Info: SIMULATION PARAMETERS:
Info: TIMESTEP               2
Info: NUMBER OF STEPS        0
Info: STEPS PER CYCLE        10
Info: PERIODIC CELL BASIS 1  30.7714 0 0
Info: PERIODIC CELL BASIS 2  0 28.6807 0
Info: PERIODIC CELL BASIS 3  0 0 34.0859
Info: PERIODIC CELL CENTER   0 0 0
Info: WRAPPING WATERS AROUND PERIODIC BOUNDARIES ON OUTPUT.
Info: WRAPPING ALL CLUSTERS AROUND PERIODIC BOUNDARIES ON OUTPUT.
Info: FIRST LDB TIMESTEP     50
Info: LAST LDB TIMESTEP     -1
Info: HOM BACKGROUND SCALING 1
Info: PME BACKGROUND SCALING 1
Info: MIN ATOMS PER PATCH    40
Info: EMPTY PATCH LOAD       40 ATOMS
Info: VELOCITY FILE          mobley_3968739_equil.vel
Info: CENTER OF MASS MOVING INITIALLY? NO
Info: DIELECTRIC             1
Info: EXCLUDE                SCALED ONE-FOUR
Info: 1-4 ELECTROSTATICS SCALED BY 0.833333
Info: MODIFIED 1-4 VDW PARAMETERS WILL BE USED
Info: DCD FILENAME           mobley_3968739_prod.dcd
Info: DCD FREQUENCY          100000
Info: DCD FIRST STEP         100000
Info: DCD FILE WILL CONTAIN UNIT CELL DATA
Info: XST FILENAME           mobley_3968739_prod.xst
Info: XST FREQUENCY          100000
Info: NO VELOCITY DCD OUTPUT
Info: NO FORCE DCD OUTPUT
Info: OUTPUT FILENAME        mobley_3968739_prod
Info: BINARY OUTPUT FILES WILL BE USED
Info: RESTART FILENAME       mobley_3968739_prod.restart
Info: RESTART FREQUENCY      100000
Info: BINARY RESTART FILES WILL BE USED
Info: CUTOFF                 9
Info: PAIRLIST DISTANCE      11
Info: PAIRLIST SHRINK RATE   0.01
Info: PAIRLIST GROW RATE     0.01
Info: PAIRLIST TRIGGER       0.3
Info: PAIRLISTS PER CYCLE    2
Info: PAIRLISTS ENABLED
Info: MARGIN                 2
Info: HYDROGEN GROUP CUTOFF  2.5
Info: PATCH DIMENSION        15.5
Info: ENERGY OUTPUT STEPS    100000
Info: ENERGY EVALUATION STEPS    100000
Info: OUTPUT ENERGY PRECISION 4
Info: CROSSTERM ENERGY INCLUDED IN DIHEDRAL
Info: TIMING OUTPUT STEPS    1000000
Info: PRESSURE OUTPUT STEPS  100000
Info: ALCHEMICAL FEP ON
Info: FEP CURRENT LAMBDA VALUE     0
Info: FEP COMPARISON LAMBDA VALUE  0.05
Info: FEP INTRA-ALCHEMICAL NON-BONDED INTERACTIONS WILL BE RETAINED
Info: FEP INTRA-ALCHEMICAL BONDED INTERACTIONS WILL BE RETAINED
Info: FEP VDW SHIFTING COEFFICIENT 5
Info: FEP ELEC. ACTIVE FOR ANNIHILATED PARTICLES BETWEEN LAMBDA = 0 AND LAMBDA = 0.5
Info: FEP ELEC. ACTIVE FOR EXNIHILATED PARTICLES BETWEEN LAMBDA = 0.5 AND LAMBDA = 1
Info: FEP VDW ACTIVE FOR ANNIHILATED PARTICLES BETWEEN LAMBDA = 0 AND LAMBDA = 1
Info: FEP VDW ACTIVE FOR EXNIHILATED PARTICLES BETWEEN LAMBDA = 0 AND LAMBDA = 1
Info: FEP BOND ACTIVE FOR ANNIHILATED PARTICLES BETWEEN LAMBDA = 1 AND LAMBDA = 1
Info: FEP BOND ACTIVE FOR EXNIHILATED PARTICLES BETWEEN LAMBDA = 0 AND LAMBDA = 0
Info: LANGEVIN DYNAMICS ACTIVE
Info: LANGEVIN TEMPERATURE   300
Info: LANGEVIN USING BBK INTEGRATOR
Info: LANGEVIN DAMPING COEFFICIENT IS 1 INVERSE PS
Info: LANGEVIN DYNAMICS APPLIED TO HYDROGENS
Info: LANGEVIN PISTON PRESSURE CONTROL ACTIVE
Info:        TARGET PRESSURE IS 1.01325 BAR
Info:     OSCILLATION PERIOD IS 50 FS
Info:             DECAY TIME IS 25 FS
Info:     PISTON TEMPERATURE IS 300 K
Info:       PRESSURE CONTROL IS GROUP-BASED
Info:    INITIAL STRAIN RATE IS 5.56814e-05 5.56814e-05 5.56814e-05
Info:       CELL FLUCTUATION IS ISOTROPIC
Info: PARTICLE MESH EWALD (PME) ACTIVE
Info: PME TOLERANCE               1e-06
Info: PME EWALD COEFFICIENT       0.348832
Info: PME INTERPOLATION ORDER     4
Info: PME GRID DIMENSIONS         32 32 36
Info: PME MAXIMUM GRID SPACING    1
Info: PME CALCULATION WILL BE PERFORMED ON GPU
Info: FULL ELECTROSTATIC EVALUATION FREQUENCY      2
Info: USING VERLET I (r-RESPA) MTS SCHEME.
Info: C1 SPLITTING OF LONG RANGE ELECTROSTATICS
Info: PLACING ATOMS IN PATCHES BY HYDROGEN GROUPS
Info: RIGID BONDS TO HYDROGEN : ALL
Info:         ERROR TOLERANCE : 1e-08
Info:          MAX ITERATIONS : 100
Info: RIGID WATER USING SETTLE ALGORITHM
Info: RANDOM NUMBER SEED     1743784221
Info: USE HYDROGEN BONDS?    NO
Info: Using AMBER format force field!
Info: AMBER PARM FILE        mobley_3968739.prmtop
Info: COORDINATE PDB         mobley_3968739.pdb
Info: Exclusions will be read from PARM file!
Info: SCNB (VDW SCALING)     2
Info: USING ARITHMETIC MEAN TO COMBINE L-J SIGMA PARAMETERS
Info: BINARY COORDINATES     mobley_3968739_equil.coor
Info: SUMMARY OF PARAMETERS:
Info: 9 BONDS
Info: 9 ANGLES
Info:   9 HARMONIC
Info:   0 COSINE-BASED
Info: 6 DIHEDRAL
Info: 0 IMPROPER
Info: 0 CROSSTERM
Info: 0 VDW
Info: 36 VDW_PAIRS
Info: 0 NBTHOLE_PAIRS
Info: To read alchdata from file: mobley_3968739.pdb
Info: To read alchflag data from column: 5
Info: STRUCTURE SUMMARY:
Info: 2901 ATOMS
Info: 2901 BONDS
Info: 28 ANGLES
Info: 41 DIHEDRALS
Info: 0 IMPROPERS
Info: 0 CROSSTERMS
Info: 2959 EXCLUSIONS
Info: 2891 RIGID BONDS
Info: ALCH: 0 ATOMS TO DISAPPEAR IN FINAL STATE
Info: ALCH: 18 ATOMS TO APPEAR IN FINAL STATE
Info: 5812 DEGREES OF FREEDOM
Info: 971 HYDROGEN GROUPS
Info: 4 ATOMS IN LARGEST HYDROGEN GROUP
Info: 971 MIGRATION GROUPS
Info: 4 ATOMS IN LARGEST MIGRATION GROUP
Info: TOTAL MASS = 17449.5 amu
Info: TOTAL CHARGE = 0.000200033 e
Info: MASS DENSITY = 0.96323 g/cm^3
Info: ATOM DENSITY = 0.096435 atoms/A^3
Info: ADDED 0 IMPLICIT EXCLUSIONS
Info: NONBONDED TABLE R-SQUARED SPACING: 0.0625
Info: NONBONDED TABLE SIZE: 705 POINTS
Info: REMOVING COM VELOCITY 0.134314 0.00159734 0.12112
Info: Use 3D box decompostion in PME FFT.
Info: Updated CUDA force table with 4096 elements.
Info: Updated CUDA LJ table with 8 x 8 elements.
Info: Found 17 unique exclusion lists needing 40 bytes
TCL: Running for 1500000 steps
ETITLE: TS BOND ANGLE DIHED IMPRP ELECT VDW BOUNDARY MISC KINETIC TOTAL TEMP POTENTIAL TOTALAVG TEMPAVG PRESSURE GPRESSURE VOLUME PRESSAVG GPRESSAVG
ENERGY: 0 3.3539 6.8858 3.7409 0.0000 -10462.1998 1435.0470 0.0000 0.0000 1686.4859 -7326.6862 292.0435 -9013.1721 -7326.6862 292.0435 55.9058 135.8354 30082.4259 55.9058 135.8354
ENERGY: 300000 2.9465 4.3449 8.9417 0.0000 -10590.2481 1427.6026 0.0000 0.0000 1675.9583 -7470.4541 290.2204 -9146.4124 -7358.3981 294.6027 -27.3375 -6.0665 29597.7331 -171.5620 -137.8021
ENERGY: 600000 2.8062 5.5564 6.8616 0.0000 -10485.6566 1428.2966 0.0000 0.0000 1758.6719 -7283.4639 304.5437 -9042.1358 -7346.0161 297.7489 332.6916 421.7698 29381.5900 -12.5822 24.9894
ENERGY: 900000 3.2777 6.4147 4.8330 0.0000 -10389.2536 1372.6216 0.0000 0.0000 1690.4209 -7311.6857 292.7249 -9002.1066 -7348.2718 297.6021 -464.2234 -416.3214 30106.0647 -34.2699 2.9759
ENERGY: 1200000 3.3742 2.9798 8.3309 0.0000 -10499.2818 1477.2798 0.0000 0.0000 1749.6114 -7257.7057 302.9747 -9007.3171 -7331.2197 298.4996 854.1060 852.9006 29332.3874 61.3940 98.5133
ENERGY: 1500000 2.7144 5.9673 5.0476 0.0000 -10373.5773 1414.2170 0.0000 0.0000 1732.9893 -7212.6418 300.0963 -8945.6310 -7324.5543 299.2842 329.7615 355.7391 29927.0292 136.6091 168.3301
TCL: Running FEP window   2: Lambda1 0.05   Lambda2 0.1    [dLambda 0.05  ]
TCL: Setting parameter firsttimestep to 0
TCL: Setting parameter alchLambda to 0.05
Info: NONBONDED TABLE R-SQUARED SPACING: 0.0625
Info: NONBONDED TABLE SIZE: 705 POINTS
TCL: Setting parameter alchLambda2 to 0.1
Info: NONBONDED TABLE R-SQUARED SPACING: 0.0625
Info: NONBONDED TABLE SIZE: 705 POINTS
TCL: Running for 1500000 steps
ETITLE: TS BOND ANGLE DIHED IMPRP ELECT VDW BOUNDARY MISC KINETIC TOTAL TEMP POTENTIAL TOTALAVG TEMPAVG PRESSURE GPRESSURE VOLUME PRESSAVG GPRESSAVG
ENERGY: 0 2.7144 5.9673 5.0476 0.0000 -10373.5766 1417.9103 0.0000 0.0000 1732.1739 -7209.7631 299.9551 -8941.9370 -7209.7631 299.9551 280.0281 366.7628 29927.0292 280.0281 366.7628
ENERGY: 300000 5.0891 4.6204 7.1779 0.0000 -10444.1276 1341.3129 0.0000 0.0000 1777.1493 -7308.7780 307.7434 -9085.9273 -7281.9744 304.1461 -656.6183 -584.0064 29625.7882 133.5560 203.0120
ENERGY: 600000 1.5968 11.0769 1.9313 0.0000 -10546.1375 1467.3719 0.0000 0.0000 1744.5245 -7319.6362 302.0938 -9064.1607 -7305.4071 302.0609 387.3850 536.8819 29738.4471 82.2892 166.6817
ENERGY: 900000 4.3493 5.1283 5.2336 0.0000 -10508.1815 1420.3321 0.0000 0.0000 1753.3078 -7319.8305 303.6148 -9073.1383 -7296.6360 302.4727 77.0270 85.8054 29566.0517 69.1713 147.5038
ENERGY: 1200000 2.9813 3.9434 4.1054 0.0000 -10548.4519 1438.3167 0.0000 0.0000 1752.3477 -7346.7573 303.4486 -9099.1050 -7293.8065 302.2894 238.3277 400.3742 29339.5915 0.9627 79.6150
ENERGY: 1500000 1.7587 4.0295 3.0163 0.0000 -10645.4104 1508.9319 0.0000 0.0000 1763.0975 -7364.5765 305.3101 -9127.6741 -7298.9147 303.0580 713.5537 813.3795 29292.0061 50.9394 125.9454
TCL: Running FEP window   3: Lambda1 0.1    Lambda2 0.15000000000000002 [dLambda 0.05000000000000002]
TCL: Setting parameter firsttimestep to 0
TCL: Setting parameter alchLambda to 0.1
Info: NONBONDED TABLE R-SQUARED SPACING: 0.0625
Info: NONBONDED TABLE SIZE: 705 POINTS
TCL: Setting parameter alchLambda2 to 0.15000000000000002
Info: NONBONDED TABLE R-SQUARED SPACING: 0.0625
Info: NONBONDED TABLE SIZE: 705 POINTS
TCL: Running for 1500000 steps
ETITLE: TS BOND ANGLE DIHED IMPRP ELECT VDW BOUNDARY MISC KINETIC TOTAL TEMP POTENTIAL TOTALAVG TEMPAVG PRESSURE GPRESSURE VOLUME PRESSAVG GPRESSAVG
ENERGY: 0 1.7587 4.0295 3.0163 0.0000 -10645.4105 1510.0570 0.0000 0.0000 1762.2252 -7364.3239 305.1590 -9126.5491 -7364.3239 305.1590 730.5370 819.6067 29292.0061 730.5370 819.6067
ENERGY: 300000 3.3688 4.5709 2.9911 0.0000 -10369.8582 1344.3029 0.0000 0.0000 1717.4965 -7297.1280 297.4135 -9014.6245 -7318.6356 301.7739 -330.2377 -307.7650 29849.6343 -161.9283 -102.7113
ENERGY: 600000 2.1651 7.6673 5.7502 0.0000 -10417.9716 1378.6273 0.0000 0.0000 1720.8958 -7302.8659 298.0021 -9023.7617 -7309.1745 300.6099 -349.6704 -284.5096 29858.1724 -112.4794 -63.6287
ENERGY: 900000 5.3340 4.5683 2.0562 0.0000 -10412.7922 1391.2216 0.0000 0.0000 1698.1534 -7311.4587 294.0639 -9009.6122 -7315.2535 300.0813 -265.3887 -164.6163 29704.0751 -187.1272 -136.1881
ENERGY: 1200000 2.1304 4.5188 4.4367 0.0000 -10450.9986 1393.5262 0.0000 0.0000 1719.4466 -7326.9400 297.7512 -9046.3866 -7317.8592 299.9036 10.4045 10.4182 29783.6445 -227.8579 -174.6790
ENERGY: 1500000 2.5368 5.5238 2.1101 0.0000 -10495.7378 1378.7242 0.0000 0.0000 1713.2236 -7393.6193 296.6735 -9106.8428 -7330.2208 299.6216 -136.7945 -123.5332 29474.5779 -240.2951 -185.3016
TCL: Running FEP window   4: Lambda1 0.15000000000000002 Lambda2 0.2    [dLambda 0.04999999999999999]
TCL: Setting parameter firsttimestep to 0
TCL: Setting parameter alchLambda to 0.15000000000000002
Info: NONBONDED TABLE R-SQUARED SPACING: 0.0625
Info: NONBONDED TABLE SIZE: 705 POINTS
TCL: Setting parameter alchLambda2 to 0.2
Info: NONBONDED TABLE R-SQUARED SPACING: 0.0625
Info: NONBONDED TABLE SIZE: 705 POINTS
TCL: Running for 1500000 steps
ETITLE: TS BOND ANGLE DIHED IMPRP ELECT VDW BOUNDARY MISC KINETIC TOTAL TEMP POTENTIAL TOTALAVG TEMPAVG PRESSURE GPRESSURE VOLUME PRESSAVG GPRESSAVG
ENERGY: 0 2.5368 5.5239 2.1101 0.0000 -10495.7367 1378.4669 0.0000 0.0000 1712.3512 -7394.7477 296.5225 -9107.0989 -7394.7477 296.5225 -202.9403 -122.0637 29474.5779 -202.9403 -122.0637
ENERGY: 300000 1.5880 6.9340 3.2544 0.0000 -10696.4597 1572.0059 0.0000 0.0000 1755.4156 -7357.2617 303.9798 -9112.6773 -7351.7630 298.5557 1362.5493 1421.8246 29274.2926 566.1153 637.7315
ENERGY: 600000 1.7697 3.7984 3.3373 0.0000 -10401.5636 1339.3229 0.0000 0.0000 1766.2608 -7287.0745 305.8578 -9053.3353 -7331.1729 300.4174 -706.7379 -610.2120 29911.9785 294.6154 364.6681
ENERGY: 900000 4.7895 4.6413 3.0291 0.0000 -10549.5429 1407.2614 0.0000 0.0000 1771.6029 -7358.2187 306.7829 -9129.8216 -7310.2545 303.2784 -309.1076 -250.6258 29752.3339 296.6138 361.1108
ENERGY: 1200000 2.6461 5.7471 5.5040 0.0000 -10445.0229 1398.5239 0.0000 0.0000 1708.5790 -7324.0228 295.8693 -9032.6018 -7312.4878 303.1369 -184.0478 -206.2468 30101.3342 250.8606 303.3221
ENERGY: 1500000 6.8895 3.6546 1.8626 0.0000 -10482.8541 1430.7437 0.0000 0.0000 1766.8509 -7272.8528 305.9600 -9039.7037 -7313.3919 303.3603 178.9005 224.7670 29440.1614 175.1881 226.2466
TCL: Running FEP window   5: Lambda1 0.2    Lambda2 0.25   [dLambda 0.04999999999999999]
TCL: Setting parameter firsttimestep to 0
TCL: Setting parameter alchLambda to 0.2
Info: NONBONDED TABLE R-SQUARED SPACING: 0.0625
Info: NONBONDED TABLE SIZE: 705 POINTS
TCL: Setting parameter alchLambda2 to 0.25
Info: NONBONDED TABLE R-SQUARED SPACING: 0.0625
Info: NONBONDED TABLE SIZE: 705 POINTS
TCL: Running for 1500000 steps
ETITLE: TS BOND ANGLE DIHED IMPRP ELECT VDW BOUNDARY MISC KINETIC TOTAL TEMP POTENTIAL TOTALAVG TEMPAVG PRESSURE GPRESSURE VOLUME PRESSAVG GPRESSAVG
ENERGY: 0 6.8896 3.6546 1.8626 0.0000 -10482.8526 1431.2970 0.0000 0.0000 1765.9814 -7273.1675 305.8095 -9039.1489 -7273.1675 305.8095 154.9396 232.6312 29440.1614 154.9396 232.6312
ENERGY: 300000 3.6186 6.5065 2.3301 0.0000 -10434.4329 1363.7892 0.0000 0.0000 1736.3417 -7321.8468 300.6768 -9058.1884 -7292.3821 301.3568 -682.7868 -574.0807 30284.5035 -21.0194 59.4472
ENERGY: 600000 2.7527 9.0878 4.4626 0.0000 -10511.8794 1479.9858 0.0000 0.0000 1670.4112 -7345.1793 289.2599 -9015.5905 -7301.1574 298.5228 579.4024 651.3066 29773.7020 -0.0310 78.4288
ENERGY: 900000 4.3427 7.8143 2.9557 0.0000 -10493.2396 1414.5497 0.0000 0.0000 1703.5912 -7359.9861 295.0055 -9063.5772 -7327.4679 298.2739 -74.1214 -63.0687 29970.3180 25.7355 96.0739
ENERGY: 1200000 2.8041 4.5602 3.6223 0.0000 -10540.3870 1445.2657 0.0000 0.0000 1688.0207 -7396.1141 292.3092 -9084.1348 -7340.1320 297.2684 167.1783 249.3068 29603.5864 88.4078 156.0966
ENERGY: 1500000 3.9690 2.9371 4.1505 0.0000 -10419.5019 1399.4829 0.0000 0.0000 1724.6385 -7284.3240 298.6502 -9008.9624 -7341.6128 297.3144 -25.5359 48.1853 29864.1935 60.8084 130.7792
TCL: Running FEP window   6: Lambda1 0.25   Lambda2 0.3    [dLambda 0.04999999999999999]
TCL: Setting parameter firsttimestep to 0
TCL: Setting parameter alchLambda to 0.25
Info: NONBONDED TABLE R-SQUARED SPACING: 0.0625
Info: NONBONDED TABLE SIZE: 705 POINTS
TCL: Setting parameter alchLambda2 to 0.3
Info: NONBONDED TABLE R-SQUARED SPACING: 0.0625
Info: NONBONDED TABLE SIZE: 705 POINTS
TCL: Running for 1500000 steps
ETITLE: TS BOND ANGLE DIHED IMPRP ELECT VDW BOUNDARY MISC KINETIC TOTAL TEMP POTENTIAL TOTALAVG TEMPAVG PRESSURE GPRESSURE VOLUME PRESSAVG GPRESSAVG
ENERGY: 0 3.9690 2.9371 4.1505 0.0000 -10419.5016 1399.6561 0.0000 0.0000 1723.8033 -7284.9856 298.5056 -9008.7889 -7284.9856 298.5056 -31.4724 55.2330 29864.1935 -31.4724 55.2330
ENERGY: 300000 7.1071 4.8962 3.6647 0.0000 -10466.2324 1433.4916 0.0000 0.0000 1779.6708 -7237.4020 308.1800 -9017.0728 -7259.6365 302.4351 66.8076 150.2577 29958.1088 -178.0189 -117.5537
ENERGY: 600000 3.2411 6.4131 4.3457 0.0000 -10541.3997 1473.3174 0.0000 0.0000 1722.0916 -7331.9909 298.2092 -9054.0824 -7299.3587 301.5241 583.9904 670.9880 29578.6239 -3.8626 55.4736
ENERGY: 900000 0.6095 6.1402 5.3563 0.0000 -10339.3673 1315.6939 0.0000 0.0000 1762.1195 -7249.4479 305.1407 -9011.5674 -7294.4456 301.8042 -497.5600 -405.3949 29628.8844 10.0821 70.5062
ENERGY: 1200000 2.9505 2.5621 2.4024 0.0000 -10491.5821 1423.6358 0.0000 0.0000 1779.5180 -7280.5133 308.1535 -9060.0313 -7314.9052 301.2408 136.2339 170.0968 29931.1741 -68.3182 -7.2538
ENERGY: 1500000 3.6759 4.9298 2.4313 0.0000 -10360.7088 1349.7245 0.0000 0.0000 1767.9686 -7231.9787 306.1536 -8999.9473 -7308.2452 300.9101 -118.4820 -59.2229 29729.9763 -126.1271 -63.2486
TCL: Running FEP window   7: Lambda1 0.3    Lambda2 0.35   [dLambda 0.04999999999999999]
TCL: Setting parameter firsttimestep to 0
TCL: Setting parameter alchLambda to 0.3
Info: NONBONDED TABLE R-SQUARED SPACING: 0.0625
Info: NONBONDED TABLE SIZE: 705 POINTS
TCL: Setting parameter alchLambda2 to 0.35
Info: NONBONDED TABLE R-SQUARED SPACING: 0.0625
Info: NONBONDED TABLE SIZE: 705 POINTS
TCL: Running for 1500000 steps
ETITLE: TS BOND ANGLE DIHED IMPRP ELECT VDW BOUNDARY MISC KINETIC TOTAL TEMP POTENTIAL TOTALAVG TEMPAVG PRESSURE GPRESSURE VOLUME PRESSAVG GPRESSAVG
ENERGY: 0 3.6759 4.9298 2.4313 0.0000 -10360.7104 1349.1800 0.0000 0.0000 1767.1213 -7233.3722 306.0068 -9000.4934 -7233.3722 306.0068 -155.9083 -59.9025 29729.9763 -155.9083 -59.9025
ENERGY: 300000 5.7154 3.5000 2.2348 0.0000 -10446.8159 1375.4404 0.0000 0.0000 1750.5214 -7309.4039 303.1323 -9059.9253 -7289.5875 303.1200 -398.2812 -409.5873 29955.6957 -417.7851 -343.3340
ENERGY: 600000 3.1008 6.0219 2.5658 0.0000 -10305.0695 1345.0987 0.0000 0.0000 1683.3944 -7264.8878 291.5081 -8948.2823 -7308.8248 300.7518 -392.0534 -343.1061 30065.6461 -276.7634 -193.8622
ENERGY: 900000 1.5164 2.9884 3.0238 0.0000 -10507.9534 1438.9988 0.0000 0.0000 1727.2729 -7334.1531 299.1064 -9061.4260 -7319.1498 301.4547 283.5678 379.6384 29726.2900 -131.4166 -58.2028
ENERGY: 1200000 6.5909 5.0051 2.2341 0.0000 -10482.4508 1388.9203 0.0000 0.0000 1765.8371 -7313.8634 305.7845 -9079.7005 -7323.4046 302.3921 -371.7416 -338.5208 29793.1763 -74.2649 -10.4918
ENERGY: 1500000 2.5599 3.3668 4.9809 0.0000 -10478.5487 1416.8019 0.0000 0.0000 1736.2486 -7314.5907 300.6607 -9050.8392 -7327.8991 301.8784 -99.7829 -76.2496 29960.1970 -72.7264 -11.4897
TCL: Running FEP window   8: Lambda1 0.35   Lambda2 0.39999999999999997 [dLambda 0.04999999999999999]
TCL: Setting parameter firsttimestep to 0
TCL: Setting parameter alchLambda to 0.35
Info: NONBONDED TABLE R-SQUARED SPACING: 0.0625
Info: NONBONDED TABLE SIZE: 705 POINTS
TCL: Setting parameter alchLambda2 to 0.39999999999999997
Info: NONBONDED TABLE R-SQUARED SPACING: 0.0625
Info: NONBONDED TABLE SIZE: 705 POINTS
TCL: Running for 1500000 steps
ETITLE: TS BOND ANGLE DIHED IMPRP ELECT VDW BOUNDARY MISC KINETIC TOTAL TEMP POTENTIAL TOTALAVG TEMPAVG PRESSURE GPRESSURE VOLUME PRESSAVG GPRESSAVG
ENERGY: 0 2.5599 3.3668 4.9809 0.0000 -10478.5487 1416.4639 0.0000 0.0000 1735.4170 -7315.7601 300.5167 -9051.1772 -7315.7601 300.5167 -145.4383 -74.5340 29960.1970 -145.4383 -74.5340
ENERGY: 300000 5.0452 6.7171 4.0791 0.0000 -10462.6778 1393.0046 0.0000 0.0000 1768.2034 -7285.6285 306.1942 -9053.8319 -7308.6905 305.1482 -76.7470 -12.8650 29516.3467 -228.8018 -169.1407
ENERGY: 600000 2.6030 5.0612 5.2824 0.0000 -10517.9092 1433.7598 0.0000 0.0000 1692.5840 -7378.6189 293.0994 -9071.2029 -7326.0415 301.4732 -21.0517 106.8393 29994.5061 -163.4672 -106.6787
ENERGY: 900000 5.0677 7.6075 3.7323 0.0000 -10498.8733 1428.4810 0.0000 0.0000 1709.4162 -7344.5687 296.0142 -9053.9849 -7341.4840 299.2328 -49.3851 -33.6180 29843.5444 -98.9450 -42.9248
ENERGY: 1200000 3.0910 7.4771 6.1102 0.0000 -10461.8195 1352.0855 0.0000 0.0000 1737.5833 -7355.4724 300.8918 -9093.0557 -7337.3903 299.3460 -819.0518 -698.8242 29929.2412 -214.8671 -158.2447
ENERGY: 1500000 2.0714 6.2280 1.2751 0.0000 -10410.7324 1333.5579 0.0000 0.0000 1777.1348 -7290.4651 307.7409 -9067.6000 -7327.9947 300.3049 -664.5300 -514.5121 29822.0119 -245.7360 -182.7463
TCL: Running FEP window   9: Lambda1 0.39999999999999997 Lambda2 0.44999999999999996 [dLambda 0.04999999999999999]
TCL: Setting parameter firsttimestep to 0
TCL: Setting parameter alchLambda to 0.39999999999999997
Info: NONBONDED TABLE R-SQUARED SPACING: 0.0625
Info: NONBONDED TABLE SIZE: 705 POINTS
TCL: Setting parameter alchLambda2 to 0.44999999999999996
Info: NONBONDED TABLE R-SQUARED SPACING: 0.0625
Info: NONBONDED TABLE SIZE: 705 POINTS
TCL: Running for 1500000 steps
ETITLE: TS BOND ANGLE DIHED IMPRP ELECT VDW BOUNDARY MISC KINETIC TOTAL TEMP POTENTIAL TOTALAVG TEMPAVG PRESSURE GPRESSURE VOLUME PRESSAVG GPRESSAVG
ENERGY: 0 2.0714 6.2280 1.2751 0.0000 -10410.7332 1334.1633 0.0000 0.0000 1776.3127 -7290.6827 307.5985 -9066.9954 -7290.6827 307.5985 -588.7504 -501.0094 29822.0119 -588.7504 -501.0094
ENERGY: 300000 1.8369 7.4326 5.9590 0.0000 -10576.8174 1474.7260 0.0000 0.0000 1719.1113 -7367.7517 297.6931 -9086.8630 -7348.7502 298.9237 295.4926 358.5200 29707.4585 -106.1662 -17.3785
ENERGY: 600000 2.1913 4.4945 2.9677 0.0000 -10419.9864 1318.3850 0.0000 0.0000 1757.7722 -7334.1758 304.3879 -9091.9480 -7347.0478 300.9988 -637.6361 -566.3633 29180.8381 -62.3818 9.7630
ENERGY: 900000 3.8215 3.4094 2.7124 0.0000 -10372.1868 1350.5563 0.0000 0.0000 1796.3844 -7215.3028 311.0742 -9011.6872 -7345.2671 302.0843 -671.5239 -569.9228 30337.2600 -158.9310 -90.2013
ENERGY: 1200000 4.6650 5.9506 4.3495 0.0000 -10444.1363 1402.2821 0.0000 0.0000 1733.9080 -7292.9812 300.2554 -9026.8891 -7323.4214 302.7617 13.5667 80.3304 29639.4376 -147.9721 -83.5643
ENERGY: 1500000 1.9560 3.4122 3.6926 0.0000 -10532.0575 1389.5090 0.0000 0.0000 1788.1472 -7345.3405 309.6478 -9133.4877 -7325.7909 302.2829 -508.7128 -397.5235 29887.0098 -227.8678 -161.3175
TCL: Running FEP window  10: Lambda1 0.44999999999999996 Lambda2 0.49999999999999994 [dLambda 0.04999999999999999]
TCL: Setting parameter firsttimestep to 0
TCL: Setting parameter alchLambda to 0.44999999999999996
Info: NONBONDED TABLE R-SQUARED SPACING: 0.0625
Info: NONBONDED TABLE SIZE: 705 POINTS
TCL: Setting parameter alchLambda2 to 0.49999999999999994
Info: NONBONDED TABLE R-SQUARED SPACING: 0.0625
Info: NONBONDED TABLE SIZE: 705 POINTS
TCL: Running for 1500000 steps
ETITLE: TS BOND ANGLE DIHED IMPRP ELECT VDW BOUNDARY MISC KINETIC TOTAL TEMP POTENTIAL TOTALAVG TEMPAVG PRESSURE GPRESSURE VOLUME PRESSAVG GPRESSAVG
ENERGY: 0 1.9560 3.4122 3.6926 0.0000 -10532.0558 1389.4870 0.0000 0.0000 1787.2621 -7346.2460 309.4946 -9133.5081 -7346.2460 309.4946 -471.2395 -390.5475 29887.0098 -471.2395 -390.5475
ENERGY: 300000 2.2783 4.2582 4.2435 0.0000 -10679.1684 1523.0022 0.0000 0.0000 1694.5054 -7450.8808 293.4322 -9145.3862 -7403.7203 296.1905 1101.8022 1121.9037 29033.9224 265.0537 311.2803
ENERGY: 600000 4.1247 4.7582 3.3401 0.0000 -10579.3530 1446.3312 0.0000 0.0000 1711.7657 -7409.0332 296.4211 -9120.7988 -7373.9139 296.9571 219.3201 264.7841 29594.0326 191.4959 241.3789
ENERGY: 900000 5.2935 6.5563 1.9985 0.0000 -10505.4906 1422.6572 0.0000 0.0000 1739.6061 -7329.3791 301.2421 -9068.9852 -7353.4543 297.6960 234.6063 323.5252 29362.0267 152.9621 202.1196
ENERGY: 1200000 1.8631 5.3419 3.9532 0.0000 -10410.1477 1378.8718 0.0000 0.0000 1793.2732 -7226.8445 310.5355 -9020.1177 -7334.3054 298.9975 -334.7496 -236.9916 30112.3784 126.3419 184.5617
ENERGY: 1500000 2.4964 4.3279 4.7606 0.0000 -10479.2786 1389.7794 0.0000 0.0000 1696.4759 -7381.4384 293.7734 -9077.9143 -7333.5450 299.0252 -532.6349 -496.9888 30381.1967 -6.7802 53.5107
TCL: Running FEP window  11: Lambda1 0.49999999999999994 Lambda2 0.5499999999999999 [dLambda 0.04999999999999999]
TCL: Setting parameter firsttimestep to 0
TCL: Setting parameter alchLambda to 0.49999999999999994
Info: NONBONDED TABLE R-SQUARED SPACING: 0.0625
Info: NONBONDED TABLE SIZE: 705 POINTS
TCL: Setting parameter alchLambda2 to 0.5499999999999999
Info: NONBONDED TABLE R-SQUARED SPACING: 0.0625
Info: NONBONDED TABLE SIZE: 705 POINTS
TCL: Running for 1500000 steps
ETITLE: TS BOND ANGLE DIHED IMPRP ELECT VDW BOUNDARY MISC KINETIC TOTAL TEMP POTENTIAL TOTALAVG TEMPAVG PRESSURE GPRESSURE VOLUME PRESSAVG GPRESSAVG
ENERGY: 0 2.4964 4.3279 4.7606 0.0000 -10479.2786 1389.3617 0.0000 0.0000 1695.6173 -7382.7146 293.6247 -9078.3319 -7382.7146 293.6247 -568.7236 -491.8512 30381.1967 -568.7236 -491.8512
ENERGY: 300000 5.1984 7.5308 3.5692 0.0000 -10581.2217 1472.0126 0.0000 0.0000 1718.4099 -7374.5009 297.5716 -9092.9108 -7363.8527 298.5721 441.3648 498.8521 29481.9171 -316.3897 -234.6958
ENERGY: 600000 2.4049 3.7681 3.0348 0.0000 -10472.1495 1440.9788 0.0000 0.0000 1711.9888 -7309.9742 296.4597 -9021.9629 -7353.3686 298.7233 274.6498 380.4722 29977.8870 -431.6304 -357.0482
ENERGY: 900000 3.6197 4.2768 3.3182 0.0000 -10317.6988 1308.8839 0.0000 0.0000 1691.0013 -7306.5989 292.8254 -8997.6002 -7347.5659 297.7879 -561.7002 -450.2899 29577.6017 -363.0797 -286.1994
ENERGY: 1200000 5.5939 4.4009 4.4274 0.0000 -10401.0110 1334.8843 0.0000 0.0000 1690.7034 -7361.0011 292.7738 -9051.7045 -7347.4266 296.9495 -780.3422 -708.5958 29674.1027 -332.7790 -268.6701
ENERGY: 1500000 2.4268 3.3811 2.5320 0.0000 -10378.3774 1392.3057 0.0000 0.0000 1726.8090 -7250.9228 299.0261 -8977.7318 -7340.4555 297.9352 250.4641 260.3455 29498.9232 -270.5205 -209.8337
TCL: Running FEP window  12: Lambda1 0.5499999999999999 Lambda2 0.6    [dLambda 0.050000000000000044]
TCL: Setting parameter firsttimestep to 0
TCL: Setting parameter alchLambda to 0.5499999999999999
Info: NONBONDED TABLE R-SQUARED SPACING: 0.0625
Info: NONBONDED TABLE SIZE: 705 POINTS
TCL: Setting parameter alchLambda2 to 0.6
Info: NONBONDED TABLE R-SQUARED SPACING: 0.0625
Info: NONBONDED TABLE SIZE: 705 POINTS
TCL: Running for 1500000 steps
ETITLE: TS BOND ANGLE DIHED IMPRP ELECT VDW BOUNDARY MISC KINETIC TOTAL TEMP POTENTIAL TOTALAVG TEMPAVG PRESSURE GPRESSURE VOLUME PRESSAVG GPRESSAVG
ENERGY: 0 2.4268 3.3811 2.5320 0.0000 -10378.5190 1392.2487 0.0000 0.0000 1725.9472 -7251.9833 298.8769 -8977.9305 -7251.9833 298.8769 169.8112 265.5665 29498.9232 169.8112 265.5665
ENERGY: 300000 1.1508 5.2674 2.6832 0.0000 -10532.9534 1489.2595 0.0000 0.0000 1749.5455 -7285.0470 302.9633 -9034.5925 -7285.7236 303.3719 722.9561 757.3012 29836.0814 -3.9105 36.8902
ENERGY: 600000 7.8624 6.3373 2.8900 0.0000 -10522.4654 1407.0021 0.0000 0.0000 1675.6168 -7422.7568 290.1613 -9098.3736 -7304.7812 301.2862 -326.9872 -249.2103 29757.0296 145.2404 190.2825
ENERGY: 900000 2.0455 3.5564 9.3324 0.0000 -10524.3227 1406.5960 0.0000 0.0000 1752.5610 -7350.2315 303.4855 -9102.7924 -7314.7556 300.1031 68.7175 120.1581 29407.2151 142.7469 184.6450
ENERGY: 1200000 3.3906 4.7085 4.0693 0.0000 -10593.9310 1491.5851 0.0000 0.0000 1743.8793 -7346.2982 301.9821 -9090.1775 -7317.2168 300.2239 625.6583 602.8334 29870.6039 136.6778 182.1136
ENERGY: 1500000 3.8422 4.5162 5.0397 0.0000 -10427.6326 1357.8865 0.0000 0.0000 1741.8819 -7314.4660 301.6362 -9056.3479 -7328.8872 298.9081 -336.1869 -246.3948 29801.1563 91.7864 140.7541
TCL: Running FEP window  13: Lambda1 0.6    Lambda2 0.65   [dLambda 0.050000000000000044]
TCL: Setting parameter firsttimestep to 0
TCL: Setting parameter alchLambda to 0.6
Info: NONBONDED TABLE R-SQUARED SPACING: 0.0625
Info: NONBONDED TABLE SIZE: 705 POINTS
TCL: Setting parameter alchLambda2 to 0.65
Info: NONBONDED TABLE R-SQUARED SPACING: 0.0625
Info: NONBONDED TABLE SIZE: 705 POINTS
TCL: Running for 1500000 steps
ETITLE: TS BOND ANGLE DIHED IMPRP ELECT VDW BOUNDARY MISC KINETIC TOTAL TEMP POTENTIAL TOTALAVG TEMPAVG PRESSURE GPRESSURE VOLUME PRESSAVG GPRESSAVG
ENERGY: 0 3.8422 4.5162 5.0397 0.0000 -10427.6387 1357.3250 0.0000 0.0000 1741.0536 -7315.8619 301.4928 -9056.9155 -7315.8619 301.4928 -321.6018 -241.6839 29801.1563 -321.6018 -241.6839
ENERGY: 300000 2.2091 4.2228 2.5203 0.0000 -10469.1725 1360.7556 0.0000 0.0000 1667.6551 -7431.8096 288.7826 -9099.4647 -7333.1690 293.4076 -360.3485 -255.9541 29452.3471 -114.6871 -35.8124
ENERGY: 600000 3.3279 7.1928 4.1264 0.0000 -10360.3379 1294.7277 0.0000 0.0000 1684.1507 -7366.8123 291.6391 -9050.9630 -7346.6912 294.5702 -1027.3728 -904.2099 29954.7091 -213.8418 -127.9479
ENERGY: 900000 2.5802 4.5015 6.1278 0.0000 -10453.5835 1364.4541 0.0000 0.0000 1732.2903 -7343.6296 299.9753 -9075.9198 -7343.1957 296.7734 -437.2046 -419.9550 30010.7220 -84.1558 -17.9050
ENERGY: 1200000 1.8397 4.2366 5.2654 0.0000 -10393.5183 1312.2159 0.0000 0.0000 1722.6621 -7347.2985 298.3080 -9069.9607 -7328.4846 297.2785 -794.9875 -758.9069 30049.9020 -204.3141 -140.7287
ENERGY: 1500000 2.4579 7.0274 3.6286 0.0000 -10572.3234 1495.9863 0.0000 0.0000 1755.5223 -7307.7010 303.9983 -9063.2232 -7335.3080 297.4026 968.8437 1003.9582 29780.6185 -110.4268 -49.5302
TCL: Running FEP window  14: Lambda1 0.65   Lambda2 0.7000000000000001 [dLambda 0.050000000000000044]
TCL: Setting parameter firsttimestep to 0
TCL: Setting parameter alchLambda to 0.65
Info: NONBONDED TABLE R-SQUARED SPACING: 0.0625
Info: NONBONDED TABLE SIZE: 705 POINTS
TCL: Setting parameter alchLambda2 to 0.7000000000000001
Info: NONBONDED TABLE R-SQUARED SPACING: 0.0625
Info: NONBONDED TABLE SIZE: 705 POINTS
TCL: Running for 1500000 steps
ETITLE: TS BOND ANGLE DIHED IMPRP ELECT VDW BOUNDARY MISC KINETIC TOTAL TEMP POTENTIAL TOTALAVG TEMPAVG PRESSURE GPRESSURE VOLUME PRESSAVG GPRESSAVG
ENERGY: 0 2.4579 7.0274 3.6286 0.0000 -10572.7924 1496.2770 0.0000 0.0000 1754.6884 -7308.7131 303.8539 -9063.4015 -7308.7131 303.8539 933.0955 1020.6076 29780.6185 933.0955 1020.6076
ENERGY: 300000 2.5052 7.2412 6.9965 0.0000 -10431.0485 1340.9925 0.0000 0.0000 1755.0329 -7318.2802 303.9135 -9073.3131 -7358.2257 300.3112 -525.2459 -470.4149 29752.4998 -269.5631 -206.2659
ENERGY: 600000 8.0983 6.3610 3.3719 0.0000 -10539.2166 1460.3180 0.0000 0.0000 1736.1707 -7324.8968 300.6472 -9061.0674 -7355.6901 300.6232 123.8123 260.6909 29649.1041 -64.6473 8.5544
ENERGY: 900000 3.8674 4.0785 6.5993 0.0000 -10525.8929 1431.8330 0.0000 0.0000 1783.3581 -7296.1566 308.8185 -9079.5147 -7335.2036 301.7503 309.0246 396.5458 29923.0955 -46.7341 23.5822
ENERGY: 1200000 3.2821 3.0886 3.0242 0.0000 -10664.6960 1449.5446 0.0000 0.0000 1721.5636 -7484.1928 298.1178 -9205.7564 -7351.0991 302.0156 -134.2270 -53.2142 29357.5017 -107.7976 -38.7931
ENERGY: 1500000 2.7934 6.9538 3.7542 0.0000 -10591.2867 1433.8155 0.0000 0.0000 1705.9146 -7438.0552 295.4079 -9143.9698 -7359.4198 301.3543 146.8986 197.3980 29608.9207 -34.1267 34.6002
TCL: Running FEP window  15: Lambda1 0.7000000000000001 Lambda2 0.7500000000000001 [dLambda 0.050000000000000044]
TCL: Setting parameter firsttimestep to 0
TCL: Setting parameter alchLambda to 0.7000000000000001
Info: NONBONDED TABLE R-SQUARED SPACING: 0.0625
Info: NONBONDED TABLE SIZE: 705 POINTS
TCL: Setting parameter alchLambda2 to 0.7500000000000001
Info: NONBONDED TABLE R-SQUARED SPACING: 0.0625
Info: NONBONDED TABLE SIZE: 705 POINTS
TCL: Running for 1500000 steps
ETITLE: TS BOND ANGLE DIHED IMPRP ELECT VDW BOUNDARY MISC KINETIC TOTAL TEMP POTENTIAL TOTALAVG TEMPAVG PRESSURE GPRESSURE VOLUME PRESSAVG GPRESSAVG
ENERGY: 0 2.7934 6.9538 3.7542 0.0000 -10591.7604 1433.1590 0.0000 0.0000 1705.1061 -7439.9940 295.2679 -9145.1001 -7439.9940 295.2679 116.1326 199.6695 29608.9207 116.1326 199.6695
ENERGY: 300000 8.3707 6.3752 2.8093 0.0000 -10635.7116 1444.9502 0.0000 0.0000 1787.7587 -7385.4475 309.5806 -9173.2062 -7372.6382 300.3804 -51.6350 -3.0851 29576.3582 67.4219 157.1274
ENERGY: 600000 2.1220 6.0496 2.7838 0.0000 -10561.2893 1428.7154 0.0000 0.0000 1839.2901 -7282.3283 318.5041 -9121.6184 -7331.2520 304.0286 -120.7482 -1.2573 29843.4516 -173.6592 -91.8599
ENERGY: 900000 2.5272 3.8241 2.0932 0.0000 -10573.6017 1490.1958 0.0000 0.0000 1711.1088 -7363.8526 296.3073 -9074.9614 -7345.4087 302.9289 438.0599 491.9921 29891.3494 -74.2768 -1.3512
ENERGY: 1200000 3.1516 5.2480 5.0217 0.0000 -10356.8805 1304.7699 0.0000 0.0000 1700.7626 -7337.9266 294.5157 -9038.6891 -7343.0183 301.3967 -1074.1246 -954.8434 30293.3649 -102.7046 -31.7191
ENERGY: 1500000 2.9208 4.4247 6.6088 0.0000 -10653.0926 1450.4698 0.0000 0.0000 1769.1249 -7419.5435 306.3538 -9188.6684 -7343.2359 301.5288 64.9810 113.2196 29736.6344 -99.3404 -32.2230
TCL: Running FEP window  16: Lambda1 0.7500000000000001 Lambda2 0.8000000000000002 [dLambda 0.050000000000000044]
TCL: Setting parameter firsttimestep to 0
TCL: Setting parameter alchLambda to 0.7500000000000001
Info: NONBONDED TABLE R-SQUARED SPACING: 0.0625
Info: NONBONDED TABLE SIZE: 705 POINTS
TCL: Setting parameter alchLambda2 to 0.8000000000000002
Info: NONBONDED TABLE R-SQUARED SPACING: 0.0625
Info: NONBONDED TABLE SIZE: 705 POINTS
TCL: Running for 1500000 steps
ETITLE: TS BOND ANGLE DIHED IMPRP ELECT VDW BOUNDARY MISC KINETIC TOTAL TEMP POTENTIAL TOTALAVG TEMPAVG PRESSURE GPRESSURE VOLUME PRESSAVG GPRESSAVG
ENERGY: 0 2.9208 4.4247 6.6088 0.0000 -10654.4026 1450.5536 0.0000 0.0000 1768.2393 -7421.6554 306.2005 -9189.8947 -7421.6554 306.2005 34.2314 124.1474 29736.6344 34.2314 124.1474
ENERGY: 300000 4.6896 5.9383 3.3363 0.0000 -10424.7938 1399.1225 0.0000 0.0000 1728.1282 -7283.5788 299.2545 -9011.7070 -7330.7370 300.3138 -118.3346 -113.2522 30187.3415 -141.9433 -97.0920
ENERGY: 600000 5.0163 4.7616 3.1332 0.0000 -10474.2789 1386.4538 0.0000 0.0000 1713.1637 -7361.7503 296.6632 -9074.9140 -7342.8548 300.3351 -260.4875 -184.1548 29875.4282 -183.0226 -121.1683
ENERGY: 900000 2.7297 4.4196 4.4543 0.0000 -10482.4027 1393.2343 0.0000 0.0000 1738.3100 -7339.2548 301.0177 -9077.5647 -7345.6302 299.3812 2.6422 52.8633 29523.4035 -189.5450 -130.5066
ENERGY: 1200000 2.6441 5.5288 3.9792 0.0000 -10516.9400 1465.8436 0.0000 0.0000 1742.1861 -7296.7581 301.6889 -9038.9443 -7345.4086 300.0456 668.8133 754.8508 29690.3139 -87.7239 -32.7710
ENERGY: 1500000 4.2545 3.5140 3.3945 0.0000 -10624.4748 1473.3733 0.0000 0.0000 1793.1631 -7346.7755 310.5164 -9139.9386 -7350.1555 300.3936 185.6309 304.3227 29836.3971 -44.2371 16.6191
TCL: Running FEP window  17: Lambda1 0.8000000000000002 Lambda2 0.8500000000000002 [dLambda 0.050000000000000044]
TCL: Setting parameter firsttimestep to 0
TCL: Setting parameter alchLambda to 0.8000000000000002
Info: NONBONDED TABLE R-SQUARED SPACING: 0.0625
Info: NONBONDED TABLE SIZE: 705 POINTS
TCL: Setting parameter alchLambda2 to 0.8500000000000002
Info: NONBONDED TABLE R-SQUARED SPACING: 0.0625
Info: NONBONDED TABLE SIZE: 705 POINTS
TCL: Running for 1500000 steps
ETITLE: TS BOND ANGLE DIHED IMPRP ELECT VDW BOUNDARY MISC KINETIC TOTAL TEMP POTENTIAL TOTALAVG TEMPAVG PRESSURE GPRESSURE VOLUME PRESSAVG GPRESSAVG
ENERGY: 0 4.2545 3.5140 3.3945 0.0000 -10625.0176 1472.9277 0.0000 0.0000 1792.3246 -7348.6023 310.3712 -9140.9269 -7348.6023 310.3712 235.8404 311.1405 29836.3971 235.8404 311.1405
ENERGY: 300000 4.3968 5.0842 4.6376 0.0000 -10425.4288 1365.8208 0.0000 0.0000 1698.7421 -7346.7474 294.1658 -9045.4894 -7336.0604 302.8425 -193.9623 -150.4545 29837.8047 355.8953 419.8331
ENERGY: 600000 2.8649 6.1150 4.0156 0.0000 -10520.0463 1445.6852 0.0000 0.0000 1760.4080 -7300.9577 304.8443 -9061.3657 -7341.4731 303.9286 303.3145 380.0128 29941.0723 220.7635 293.6110
ENERGY: 900000 2.4411 5.5263 6.1288 0.0000 -10631.4100 1499.6868 0.0000 0.0000 1735.3335 -7382.2935 300.5022 -9117.6270 -7335.1260 303.5459 477.7739 626.0043 29513.5433 173.2311 254.4504
ENERGY: 1200000 2.2888 7.0706 7.2565 0.0000 -10442.9574 1393.5677 0.0000 0.0000 1734.8949 -7297.8790 300.4263 -9032.7739 -7331.4511 302.2704 66.9504 99.5221 30033.4340 104.8729 177.5225
ENERGY: 1500000 1.8860 5.2036 1.8960 0.0000 -10443.9083 1340.6675 0.0000 0.0000 1782.3040 -7311.9511 308.6360 -9094.2551 -7327.7130 302.2115 -456.4367 -431.4488 29850.6364 -29.9559 41.0763
TCL: Running FEP window  18: Lambda1 0.8500000000000002 Lambda2 0.9000000000000002 [dLambda 0.050000000000000044]
TCL: Setting parameter firsttimestep to 0
TCL: Setting parameter alchLambda to 0.8500000000000002
Info: NONBONDED TABLE R-SQUARED SPACING: 0.0625
Info: NONBONDED TABLE SIZE: 705 POINTS
TCL: Setting parameter alchLambda2 to 0.9000000000000002
Info: NONBONDED TABLE R-SQUARED SPACING: 0.0625
Info: NONBONDED TABLE SIZE: 705 POINTS
TCL: Running for 1500000 steps
ETITLE: TS BOND ANGLE DIHED IMPRP ELECT VDW BOUNDARY MISC KINETIC TOTAL TEMP POTENTIAL TOTALAVG TEMPAVG PRESSURE GPRESSURE VOLUME PRESSAVG GPRESSAVG
ENERGY: 0 1.8860 5.2036 1.8960 0.0000 -10445.4840 1341.2651 0.0000 0.0000 1781.4422 -7313.7909 308.4868 -9095.2332 -7313.7909 308.4868 -502.4306 -415.6830 29850.6364 -502.4306 -415.6830
ENERGY: 300000 4.9089 2.5541 1.8819 0.0000 -10473.3276 1371.9050 0.0000 0.0000 1725.2895 -7366.7882 298.7630 -9092.0777 -7374.6134 297.0590 -453.1439 -389.2319 29952.2840 67.4986 129.7685
ENERGY: 600000 3.9782 4.4622 6.0630 0.0000 -10601.3609 1514.1511 0.0000 0.0000 1716.2018 -7356.5046 297.1893 -9072.7064 -7382.1517 297.7661 817.7163 857.9050 29948.1869 77.8227 142.4580
ENERGY: 900000 3.1417 2.8971 7.8253 0.0000 -10447.0139 1398.3223 0.0000 0.0000 1762.6940 -7272.1336 305.2402 -9034.8276 -7364.1245 299.7841 -187.4306 -176.0254 30441.0756 0.8110 63.1243
ENERGY: 1200000 2.2195 4.9947 4.9757 0.0000 -10527.6608 1386.6482 0.0000 0.0000 1741.5099 -7387.3128 301.5718 -9128.8226 -7365.8471 299.7221 -85.2095 39.4452 29306.8861 -93.1037 -27.1079
ENERGY: 1500000 4.8879 3.0423 1.9413 0.0000 -10490.9551 1340.0838 0.0000 0.0000 1699.2708 -7441.7290 294.2574 -9140.9998 -7364.3984 299.6050 -748.0703 -707.9692 29493.4694 -158.2406 -95.3379
TCL: Running FEP window  19: Lambda1 0.9000000000000002 Lambda2 0.9500000000000003 [dLambda 0.050000000000000044]
TCL: Setting parameter firsttimestep to 0
TCL: Setting parameter alchLambda to 0.9000000000000002
Info: NONBONDED TABLE R-SQUARED SPACING: 0.0625
Info: NONBONDED TABLE SIZE: 705 POINTS
TCL: Setting parameter alchLambda2 to 0.9500000000000003
Info: NONBONDED TABLE R-SQUARED SPACING: 0.0625
Info: NONBONDED TABLE SIZE: 705 POINTS
TCL: Running for 1500000 steps
ETITLE: TS BOND ANGLE DIHED IMPRP ELECT VDW BOUNDARY MISC KINETIC TOTAL TEMP POTENTIAL TOTALAVG TEMPAVG PRESSURE GPRESSURE VOLUME PRESSAVG GPRESSAVG
ENERGY: 0 4.8880 3.0423 1.9413 0.0000 -10492.4194 1340.3767 0.0000 0.0000 1698.4097 -7443.7615 294.1083 -9142.1712 -7443.7615 294.1083 -764.8184 -691.9466 29493.4694 -764.8184 -691.9466
ENERGY: 300000 3.3966 5.4077 3.1050 0.0000 -10425.7363 1390.7638 0.0000 0.0000 1692.7724 -7330.2908 293.1321 -9023.0632 -7333.4833 299.9486 -212.2188 -176.5982 30365.9948 -581.6377 -533.9804
ENERGY: 600000 3.5594 4.7546 4.0767 0.0000 -10528.9175 1413.4042 0.0000 0.0000 1719.0864 -7384.0362 297.6888 -9103.1226 -7351.3970 296.6718 -218.7803 -111.6040 30000.1242 -334.9750 -264.6815
ENERGY: 900000 5.0982 4.5610 4.0530 0.0000 -10445.3919 1368.4854 0.0000 0.0000 1723.2888 -7339.9056 298.4165 -9063.1943 -7337.7461 297.2689 -634.4465 -539.3253 30529.6348 -293.3420 -229.1008
ENERGY: 1200000 6.1632 10.0359 3.4593 0.0000 -10406.2733 1339.7480 0.0000 0.0000 1747.2794 -7299.5876 302.5709 -9046.8670 -7346.0812 297.5598 -503.9283 -401.3834 29642.6743 -348.4531 -279.3286
ENERGY: 1500000 4.9175 6.6704 3.2957 0.0000 -10593.4405 1454.4440 0.0000 0.0000 1765.1265 -7358.9865 305.6614 -9124.1130 -7344.1473 298.7106 142.5103 217.3609 29789.6055 -282.1976 -214.7026
TCL: Running FEP window  20: Lambda1 0.9500000000000003 Lambda2 1.0    [dLambda 0.04999999999999971]
TCL: Setting parameter firsttimestep to 0
TCL: Setting parameter alchLambda to 0.9500000000000003
Info: NONBONDED TABLE R-SQUARED SPACING: 0.0625
Info: NONBONDED TABLE SIZE: 705 POINTS
TCL: Setting parameter alchLambda2 to 1.0
Info: NONBONDED TABLE R-SQUARED SPACING: 0.0625
Info: NONBONDED TABLE SIZE: 705 POINTS
TCL: Running for 1500000 steps
ETITLE: TS BOND ANGLE DIHED IMPRP ELECT VDW BOUNDARY MISC KINETIC TOTAL TEMP POTENTIAL TOTALAVG TEMPAVG PRESSURE GPRESSURE VOLUME PRESSAVG GPRESSAVG
ENERGY: 0 4.9175 6.6704 3.2957 0.0000 -10594.9585 1454.4681 0.0000 0.0000 1764.2494 -7361.3575 305.5095 -9125.6069 -7361.3575 305.5095 150.9990 230.5531 29789.6055 150.9990 230.5531
ENERGY: 300000 1.8900 6.0361 2.9896 0.0000 -10415.7435 1418.7911 0.0000 0.0000 1729.3604 -7256.6764 299.4679 -8986.0368 -7288.7182 300.7772 15.6472 78.6053 30541.6040 -134.9793 -46.8731
ENERGY: 600000 3.3745 5.2855 2.2645 0.0000 -10372.9015 1347.3576 0.0000 0.0000 1740.7411 -7273.8783 301.4387 -9014.6193 -7314.0847 299.4788 -582.2587 -577.9907 30298.1310 -225.3601 -162.3100
ENERGY: 900000 4.5065 4.1090 2.1606 0.0000 -10640.7616 1522.0194 0.0000 0.0000 1731.1929 -7376.7732 299.7852 -9107.9661 -7324.4394 298.8491 901.3913 960.4477 29691.0800 6.3232 69.3032
ENERGY: 1200000 1.3460 3.6321 3.7067 0.0000 -10574.5283 1465.8269 0.0000 0.0000 1738.0179 -7361.9988 300.9671 -9100.0167 -7339.8246 299.2194 250.9349 318.9480 30122.8521 12.9143 72.6158
ENERGY: 1500000 5.1561 6.2956 3.6587 0.0000 -10702.4000 1575.6898 0.0000 0.0000 1771.4885 -7340.1112 306.7631 -9111.5998 -7336.2768 300.7978 1484.4227 1517.8379 29586.5802 115.5216 179.7493
TCL: Exiting due to exit command.
