Info: SIMULATION PARAMETERS:
Info: TIMESTEP               2
Info: NUMBER OF STEPS        0
Info: STEPS PER CYCLE        10
Info: PERIODIC CELL BASIS 1  30.3982 0 0
Info: PERIODIC CELL BASIS 2  0 29.6802 0
Info: PERIODIC CELL BASIS 3  0 0 33.5671
Info: PERIODIC CELL CENTER   0 0 0
Info: WRAPPING WATERS AROUND PERIODIC BOUNDARIES ON OUTPUT.
Info: WRAPPING ALL CLUSTERS AROUND PERIODIC BOUNDARIES ON OUTPUT.
Info: FIRST LDB TIMESTEP     50
Info: LAST LDB TIMESTEP     -1
Info: HOM BACKGROUND SCALING 1
Info: PME BACKGROUND SCALING 1
Info: MIN ATOMS PER PATCH    40
Info: EMPTY PATCH LOAD       40 ATOMS
Info: VELOCITY FILE          mobley_6430250_equil.vel
Info: CENTER OF MASS MOVING INITIALLY? NO
Info: DIELECTRIC             1
Info: EXCLUDE                SCALED ONE-FOUR
Info: 1-4 ELECTROSTATICS SCALED BY 0.833333
Info: MODIFIED 1-4 VDW PARAMETERS WILL BE USED
Info: DCD FILENAME           mobley_6430250_prod.dcd
Info: DCD FREQUENCY          100000
Info: DCD FIRST STEP         100000
Info: DCD FILE WILL CONTAIN UNIT CELL DATA
Info: XST FILENAME           mobley_6430250_prod.xst
Info: XST FREQUENCY          100000
Info: NO VELOCITY DCD OUTPUT
Info: NO FORCE DCD OUTPUT
Info: OUTPUT FILENAME        mobley_6430250_prod
Info: BINARY OUTPUT FILES WILL BE USED
Info: RESTART FILENAME       mobley_6430250_prod.restart
Info: RESTART FREQUENCY      100000
Info: BINARY RESTART FILES WILL BE USED
Info: CUTOFF                 9
Info: PAIRLIST DISTANCE      11
Info: PAIRLIST SHRINK RATE   0.01
Info: PAIRLIST GROW RATE     0.01
Info: PAIRLIST TRIGGER       0.3
Info: PAIRLISTS PER CYCLE    2
Info: PAIRLISTS ENABLED
Info: MARGIN                 2
Info: HYDROGEN GROUP CUTOFF  2.5
Info: PATCH DIMENSION        15.5
Info: ENERGY OUTPUT STEPS    100000
Info: ENERGY EVALUATION STEPS    100000
Info: OUTPUT ENERGY PRECISION 4
Info: CROSSTERM ENERGY INCLUDED IN DIHEDRAL
Info: TIMING OUTPUT STEPS    1000000
Info: PRESSURE OUTPUT STEPS  100000
Info: ALCHEMICAL FEP ON
Info: FEP CURRENT LAMBDA VALUE     1
Info: FEP COMPARISON LAMBDA VALUE  0.95
Info: FEP INTRA-ALCHEMICAL NON-BONDED INTERACTIONS WILL BE RETAINED
Info: FEP INTRA-ALCHEMICAL BONDED INTERACTIONS WILL BE RETAINED
Info: FEP VDW SHIFTING COEFFICIENT 5
Info: FEP ELEC. ACTIVE FOR ANNIHILATED PARTICLES BETWEEN LAMBDA = 0 AND LAMBDA = 0.5
Info: FEP ELEC. ACTIVE FOR EXNIHILATED PARTICLES BETWEEN LAMBDA = 0.5 AND LAMBDA = 1
Info: FEP VDW ACTIVE FOR ANNIHILATED PARTICLES BETWEEN LAMBDA = 0 AND LAMBDA = 1
Info: FEP VDW ACTIVE FOR EXNIHILATED PARTICLES BETWEEN LAMBDA = 0 AND LAMBDA = 1
Info: FEP BOND ACTIVE FOR ANNIHILATED PARTICLES BETWEEN LAMBDA = 1 AND LAMBDA = 1
Info: FEP BOND ACTIVE FOR EXNIHILATED PARTICLES BETWEEN LAMBDA = 0 AND LAMBDA = 0
Info: LANGEVIN DYNAMICS ACTIVE
Info: LANGEVIN TEMPERATURE   300
Info: LANGEVIN USING BBK INTEGRATOR
Info: LANGEVIN DAMPING COEFFICIENT IS 1 INVERSE PS
Info: LANGEVIN DYNAMICS APPLIED TO HYDROGENS
Info: LANGEVIN PISTON PRESSURE CONTROL ACTIVE
Info:        TARGET PRESSURE IS 1.01325 BAR
Info:     OSCILLATION PERIOD IS 50 FS
Info:             DECAY TIME IS 25 FS
Info:     PISTON TEMPERATURE IS 300 K
Info:       PRESSURE CONTROL IS GROUP-BASED
Info:    INITIAL STRAIN RATE IS 0.000460325 0.000460325 0.000460325
Info:       CELL FLUCTUATION IS ISOTROPIC
Info: PARTICLE MESH EWALD (PME) ACTIVE
Info: PME TOLERANCE               1e-06
Info: PME EWALD COEFFICIENT       0.348832
Info: PME INTERPOLATION ORDER     4
Info: PME GRID DIMENSIONS         32 32 36
Info: PME MAXIMUM GRID SPACING    1
Info: PME CALCULATION WILL BE PERFORMED ON GPU
Info: FULL ELECTROSTATIC EVALUATION FREQUENCY      2
Info: USING VERLET I (r-RESPA) MTS SCHEME.
Info: C1 SPLITTING OF LONG RANGE ELECTROSTATICS
Info: PLACING ATOMS IN PATCHES BY HYDROGEN GROUPS
Info: RIGID BONDS TO HYDROGEN : ALL
Info:         ERROR TOLERANCE : 1e-08
Info:          MAX ITERATIONS : 100
Info: RIGID WATER USING SETTLE ALGORITHM
Info: RANDOM NUMBER SEED     1743875071
Info: USE HYDROGEN BONDS?    NO
Info: Using AMBER format force field!
Info: AMBER PARM FILE        mobley_6430250.prmtop
Info: COORDINATE PDB         mobley_6430250.pdb
Info: Exclusions will be read from PARM file!
Info: SCNB (VDW SCALING)     2
Info: USING ARITHMETIC MEAN TO COMBINE L-J SIGMA PARAMETERS
Info: BINARY COORDINATES     mobley_6430250_equil.coor
Info: SUMMARY OF PARAMETERS:
Info: 7 BONDS
Info: 8 ANGLES
Info:   8 HARMONIC
Info:   0 COSINE-BASED
Info: 6 DIHEDRAL
Info: 0 IMPROPER
Info: 0 CROSSTERM
Info: 0 VDW
Info: 21 VDW_PAIRS
Info: 0 NBTHOLE_PAIRS
Info: To read alchdata from file: mobley_6430250.pdb
Info: To read alchflag data from column: 5
Info: STRUCTURE SUMMARY:
Info: 2940 ATOMS
Info: 2940 BONDS
Info: 36 ANGLES
Info: 54 DIHEDRALS
Info: 0 IMPROPERS
Info: 0 CROSSTERMS
Info: 3021 EXCLUSIONS
Info: 2931 RIGID BONDS
Info: ALCH: 0 ATOMS TO DISAPPEAR IN FINAL STATE
Info: ALCH: 21 ATOMS TO APPEAR IN FINAL STATE
Info: 5889 DEGREES OF FREEDOM
Info: 982 HYDROGEN GROUPS
Info: 4 ATOMS IN LARGEST HYDROGEN GROUP
Info: 982 MIGRATION GROUPS
Info: 4 ATOMS IN LARGEST MIGRATION GROUP
Info: TOTAL MASS = 17649.8 amu
Info: TOTAL CHARGE = -0.000200003 e
Info: MASS DENSITY = 0.967763 g/cm^3
Info: ATOM DENSITY = 0.0970775 atoms/A^3
Info: ADDED 0 IMPLICIT EXCLUSIONS
Info: NONBONDED TABLE R-SQUARED SPACING: 0.0625
Info: NONBONDED TABLE SIZE: 705 POINTS
Info: REMOVING COM VELOCITY 0.0892048 0.112144 0.314022
Info: Use 3D box decompostion in PME FFT.
Info: Updated CUDA force table with 4096 elements.
Info: Updated CUDA LJ table with 6 x 6 elements.
Info: Found 20 unique exclusion lists needing 60 bytes
TCL: Running for 1500000 steps
ETITLE: TS BOND ANGLE DIHED IMPRP ELECT VDW BOUNDARY MISC KINETIC TOTAL TEMP POTENTIAL TOTALAVG TEMPAVG PRESSURE GPRESSURE VOLUME PRESSAVG GPRESSAVG
ENERGY: 0 1.0426 7.5372 1.4923 0.0000 -10582.7983 1407.4731 0.0000 0.0000 1762.7700 -7402.4831 301.2621 -9165.2531 -7402.4831 301.2621 -71.2875 8.3599 30285.0796 -71.2875 8.3599
ENERGY: 300000 4.1674 4.6404 5.6294 0.0000 -10677.0857 1487.9619 0.0000 0.0000 1772.9785 -7401.7081 303.0067 -9174.6866 -7428.1372 302.6359 753.2289 820.3254 30179.4558 276.0167 325.8548
ENERGY: 600000 3.3847 7.5179 1.2719 0.0000 -10727.0245 1471.5549 0.0000 0.0000 1777.2731 -7466.0220 303.7407 -9243.2951 -7428.5590 301.4858 368.7016 476.7819 29636.2909 278.8998 348.8339
ENERGY: 900000 5.0700 6.8355 3.8289 0.0000 -10538.2848 1296.1924 0.0000 0.0000 1771.6369 -7454.7212 302.7775 -9226.3581 -7433.2434 302.1658 -1051.2231 -1016.7093 30026.3519 150.5792 217.0695
ENERGY: 1200000 2.0038 4.9350 3.1739 0.0000 -10633.9858 1418.5789 0.0000 0.0000 1743.5190 -7461.7752 297.9720 -9205.2941 -7438.8361 302.2046 102.8495 144.0480 30132.3067 90.4744 152.0594
ENERGY: 1500000 1.0330 10.2791 2.6838 0.0000 -10514.3128 1343.5551 0.0000 0.0000 1769.5274 -7387.2345 302.4169 -9156.7618 -7437.9227 302.1098 -588.7165 -521.0662 30586.9897 50.7134 114.3060
TCL: Running FEP window   2: Lambda1 0.95   Lambda2 0.8999999999999999 [dLambda -0.050000000000000044]
TCL: Setting parameter firsttimestep to 0
TCL: Setting parameter alchLambda to 0.95
Info: NONBONDED TABLE R-SQUARED SPACING: 0.0625
Info: NONBONDED TABLE SIZE: 705 POINTS
TCL: Setting parameter alchLambda2 to 0.8999999999999999
Info: NONBONDED TABLE R-SQUARED SPACING: 0.0625
Info: NONBONDED TABLE SIZE: 705 POINTS
TCL: Running for 1500000 steps
ETITLE: TS BOND ANGLE DIHED IMPRP ELECT VDW BOUNDARY MISC KINETIC TOTAL TEMP POTENTIAL TOTALAVG TEMPAVG PRESSURE GPRESSURE VOLUME PRESSAVG GPRESSAVG
ENERGY: 0 1.0330 10.2791 2.6838 0.0000 -10513.5265 1343.5959 0.0000 0.0000 1768.6996 -7387.2352 302.2755 -9155.9348 -7387.2352 302.2755 -615.5739 -535.4378 30586.9897 -615.5739 -535.4378
ENERGY: 300000 2.6119 9.6903 2.6086 0.0000 -10810.6321 1516.5955 0.0000 0.0000 1748.6908 -7530.4351 298.8559 -9279.1258 -7426.7678 299.0566 682.7990 746.8227 29811.7692 182.2779 256.9163
ENERGY: 600000 3.6383 5.4971 2.0139 0.0000 -10642.0034 1427.3297 0.0000 0.0000 1732.1022 -7471.4221 296.0209 -9203.5244 -7434.0616 300.2807 -155.9067 -102.3881 30262.7513 131.0364 203.9487
ENERGY: 900000 0.6263 7.1123 2.8990 0.0000 -10649.5749 1441.7731 0.0000 0.0000 1692.3159 -7504.8483 289.2213 -9197.1643 -7437.9973 299.6774 367.7509 501.0706 29605.9621 147.0222 214.2173
ENERGY: 1200000 0.7701 11.4061 4.0859 0.0000 -10719.1442 1452.0698 0.0000 0.0000 1740.1486 -7510.6637 297.3960 -9250.8123 -7447.3021 299.9007 310.3995 462.4778 29670.5720 187.5856 258.8913
ENERGY: 1500000 5.3837 7.3280 6.2231 0.0000 -10504.7140 1328.3445 0.0000 0.0000 1754.9952 -7402.4395 299.9333 -9157.4347 -7439.3900 299.5609 -1080.8271 -1001.8504 30670.6629 39.2030 110.4848
TCL: Running FEP window   3: Lambda1 0.8999999999999999 Lambda2 0.8499999999999999 [dLambda -0.050000000000000044]
TCL: Setting parameter firsttimestep to 0
TCL: Setting parameter alchLambda to 0.8999999999999999
Info: NONBONDED TABLE R-SQUARED SPACING: 0.0625
Info: NONBONDED TABLE SIZE: 705 POINTS
TCL: Setting parameter alchLambda2 to 0.8499999999999999
Info: NONBONDED TABLE R-SQUARED SPACING: 0.0625
Info: NONBONDED TABLE SIZE: 705 POINTS
TCL: Running for 1500000 steps
ETITLE: TS BOND ANGLE DIHED IMPRP ELECT VDW BOUNDARY MISC KINETIC TOTAL TEMP POTENTIAL TOTALAVG TEMPAVG PRESSURE GPRESSURE VOLUME PRESSAVG GPRESSAVG
ENERGY: 0 5.3838 7.3280 6.2231 0.0000 -10504.2693 1328.8948 0.0000 0.0000 1754.1284 -7402.3111 299.7852 -9156.4395 -7402.3111 299.7852 -1100.9361 -1012.2160 30670.6629 -1100.9361 -1012.2160
ENERGY: 300000 1.2171 7.3595 2.1757 0.0000 -10542.5213 1380.6821 0.0000 0.0000 1746.7477 -7404.3393 298.5238 -9151.0870 -7398.2807 302.3210 -330.5517 -261.2479 30574.1244 -357.9045 -289.6192
ENERGY: 600000 2.8564 10.0505 2.6721 0.0000 -10710.6130 1492.9288 0.0000 0.0000 1737.6845 -7464.4208 296.9749 -9202.1052 -7408.4846 301.5236 572.0624 647.8592 30060.9156 -241.6948 -186.7323
ENERGY: 900000 5.6071 7.5875 2.7738 0.0000 -10611.3904 1429.8718 0.0000 0.0000 1723.1000 -7442.4502 294.4824 -9165.5502 -7418.4289 299.6620 -88.9227 -80.6010 30360.8088 -234.1665 -184.8173
ENERGY: 1200000 3.4266 8.8287 3.5555 0.0000 -10609.6931 1451.1330 0.0000 0.0000 1763.5585 -7379.1908 301.3968 -9142.7493 -7413.1040 300.6181 241.2018 297.0665 30662.9786 -236.0299 -181.0088
ENERGY: 1500000 4.0474 8.9933 6.8103 0.0000 -10507.8818 1381.5490 0.0000 0.0000 1761.7865 -7344.6954 301.0940 -9106.4819 -7404.0959 300.3670 -488.5435 -440.5723 30727.1723 -242.0145 -192.5949
TCL: Running FEP window   4: Lambda1 0.8499999999999999 Lambda2 0.7999999999999998 [dLambda -0.050000000000000044]
TCL: Setting parameter firsttimestep to 0
TCL: Setting parameter alchLambda to 0.8499999999999999
Info: NONBONDED TABLE R-SQUARED SPACING: 0.0625
Info: NONBONDED TABLE SIZE: 705 POINTS
TCL: Setting parameter alchLambda2 to 0.7999999999999998
Info: NONBONDED TABLE R-SQUARED SPACING: 0.0625
Info: NONBONDED TABLE SIZE: 705 POINTS
TCL: Running for 1500000 steps
ETITLE: TS BOND ANGLE DIHED IMPRP ELECT VDW BOUNDARY MISC KINETIC TOTAL TEMP POTENTIAL TOTALAVG TEMPAVG PRESSURE GPRESSURE VOLUME PRESSAVG GPRESSAVG
ENERGY: 0 4.0474 8.9933 6.8103 0.0000 -10506.9928 1381.9654 0.0000 0.0000 1760.9057 -7344.2707 300.9435 -9105.1764 -7344.2707 300.9435 -523.5258 -445.7986 30727.1723 -523.5258 -445.7986
ENERGY: 300000 1.8165 6.1649 1.8584 0.0000 -10575.7223 1422.6463 0.0000 0.0000 1780.9458 -7362.2904 304.3684 -9143.2362 -7391.9294 299.8423 2.0470 75.7096 30535.0404 -119.9936 -24.1738
ENERGY: 600000 3.6202 7.1059 1.1709 0.0000 -10684.7991 1457.4662 0.0000 0.0000 1768.6047 -7446.8312 302.2593 -9215.4359 -7393.0496 300.2494 -198.7114 -128.8713 30527.2843 -190.2362 -113.2768
ENERGY: 900000 4.1171 7.4174 2.3506 0.0000 -10730.1608 1574.2574 0.0000 0.0000 1737.5061 -7404.5122 296.9444 -9142.0184 -7397.9119 300.1402 1065.5415 1123.2413 30183.1710 -27.7314 54.9964
ENERGY: 1200000 2.6828 6.9048 2.7084 0.0000 -10624.3056 1442.2051 0.0000 0.0000 1750.2831 -7419.5214 299.1280 -9169.8045 -7400.5904 300.0992 23.1169 67.2543 30243.0581 -59.9651 15.1395
ENERGY: 1500000 1.1054 6.2962 3.2088 0.0000 -10694.2857 1436.7477 0.0000 0.0000 1754.6621 -7492.2656 299.8764 -9246.9277 -7410.9437 300.0757 -12.9430 39.8961 30139.5203 -79.3149 -8.1324
TCL: Running FEP window   5: Lambda1 0.7999999999999998 Lambda2 0.7499999999999998 [dLambda -0.050000000000000044]
TCL: Setting parameter firsttimestep to 0
TCL: Setting parameter alchLambda to 0.7999999999999998
Info: NONBONDED TABLE R-SQUARED SPACING: 0.0625
Info: NONBONDED TABLE SIZE: 705 POINTS
TCL: Setting parameter alchLambda2 to 0.7499999999999998
Info: NONBONDED TABLE R-SQUARED SPACING: 0.0625
Info: NONBONDED TABLE SIZE: 705 POINTS
TCL: Running for 1500000 steps
ETITLE: TS BOND ANGLE DIHED IMPRP ELECT VDW BOUNDARY MISC KINETIC TOTAL TEMP POTENTIAL TOTALAVG TEMPAVG PRESSURE GPRESSURE VOLUME PRESSAVG GPRESSAVG
ENERGY: 0 1.1054 6.2962 3.2088 0.0000 -10693.5736 1437.3852 0.0000 0.0000 1753.7898 -7491.7884 299.7273 -9245.5781 -7491.7884 299.7273 -51.1943 40.1350 30139.5203 -51.1943 40.1350
ENERGY: 300000 2.5510 7.1405 6.0527 0.0000 -10543.3206 1417.3169 0.0000 0.0000 1713.1003 -7397.1591 292.7734 -9110.2594 -7413.8243 297.9541 -189.3411 -94.9069 30506.3353 53.3376 119.5883
ENERGY: 600000 2.6709 5.9646 1.6462 0.0000 -10668.2411 1488.5584 0.0000 0.0000 1740.6053 -7428.7956 297.4741 -9169.4009 -7414.8745 297.4979 93.3059 173.5533 30869.2273 114.1491 181.7170
ENERGY: 900000 2.2298 8.0494 4.5093 0.0000 -10631.1466 1467.7295 0.0000 0.0000 1770.0985 -7378.5301 302.5145 -9148.6286 -7402.1309 298.4603 264.9125 336.6024 30195.6472 170.9871 228.7983
ENERGY: 1200000 2.8957 4.4742 1.6656 0.0000 -10787.1768 1520.3723 0.0000 0.0000 1742.2714 -7515.4977 297.7588 -9257.7691 -7419.6720 298.7290 318.2040 387.5385 30226.5146 218.0090 277.9429
ENERGY: 1500000 1.3163 6.2497 2.2954 0.0000 -10586.7291 1413.4035 0.0000 0.0000 1793.2949 -7370.1693 306.4789 -9163.4642 -7417.3459 299.4379 249.8153 270.0484 30074.6212 183.0802 238.1362
TCL: Running FEP window   6: Lambda1 0.7499999999999998 Lambda2 0.6999999999999997 [dLambda -0.050000000000000044]
TCL: Setting parameter firsttimestep to 0
TCL: Setting parameter alchLambda to 0.7499999999999998
Info: NONBONDED TABLE R-SQUARED SPACING: 0.0625
Info: NONBONDED TABLE SIZE: 705 POINTS
TCL: Setting parameter alchLambda2 to 0.6999999999999997
Info: NONBONDED TABLE R-SQUARED SPACING: 0.0625
Info: NONBONDED TABLE SIZE: 705 POINTS
TCL: Running for 1500000 steps
ETITLE: TS BOND ANGLE DIHED IMPRP ELECT VDW BOUNDARY MISC KINETIC TOTAL TEMP POTENTIAL TOTALAVG TEMPAVG PRESSURE GPRESSURE VOLUME PRESSAVG GPRESSAVG
ENERGY: 0 1.3162 6.2497 2.2954 0.0000 -10586.5144 1413.5352 0.0000 0.0000 1792.4364 -7370.6814 306.3322 -9163.1179 -7370.6814 306.3322 194.8500 262.0455 30074.6212 194.8500 262.0455
ENERGY: 300000 4.0687 4.5311 3.2028 0.0000 -10653.4126 1463.8540 0.0000 0.0000 1757.6621 -7420.0938 300.3891 -9177.7559 -7404.5113 302.0740 780.8870 807.7951 29734.3282 357.6487 420.0803
ENERGY: 600000 4.0308 8.5807 3.2989 0.0000 -10602.2438 1471.0218 0.0000 0.0000 1764.1268 -7351.1847 301.4940 -9115.3116 -7389.4168 303.0919 637.6654 617.8482 30521.5273 207.0375 265.3639
ENERGY: 900000 2.7053 8.6361 6.1062 0.0000 -10603.4121 1390.6257 0.0000 0.0000 1782.5931 -7412.7458 304.6499 -9195.3389 -7407.3685 303.6084 -141.3067 -88.1342 29953.1844 32.8275 96.6786
ENERGY: 1200000 3.0891 12.9067 4.1155 0.0000 -10706.4885 1486.0781 0.0000 0.0000 1757.6346 -7442.6644 300.3844 -9200.2990 -7408.5897 302.7388 423.7885 462.1944 30140.1131 174.0418 235.0552
ENERGY: 1500000 0.9527 3.8373 2.8368 0.0000 -10678.8023 1471.8450 0.0000 0.0000 1778.5088 -7420.8218 303.9519 -9199.3305 -7415.4727 301.6474 583.3730 640.4723 30020.7461 131.9877 195.2391
TCL: Running FEP window   7: Lambda1 0.6999999999999997 Lambda2 0.6499999999999997 [dLambda -0.050000000000000044]
TCL: Setting parameter firsttimestep to 0
TCL: Setting parameter alchLambda to 0.6999999999999997
Info: NONBONDED TABLE R-SQUARED SPACING: 0.0625
Info: NONBONDED TABLE SIZE: 705 POINTS
TCL: Setting parameter alchLambda2 to 0.6499999999999997
Info: NONBONDED TABLE R-SQUARED SPACING: 0.0625
Info: NONBONDED TABLE SIZE: 705 POINTS
TCL: Running for 1500000 steps
ETITLE: TS BOND ANGLE DIHED IMPRP ELECT VDW BOUNDARY MISC KINETIC TOTAL TEMP POTENTIAL TOTALAVG TEMPAVG PRESSURE GPRESSURE VOLUME PRESSAVG GPRESSAVG
ENERGY: 0 0.9527 3.8373 2.8368 0.0000 -10678.4333 1471.8530 0.0000 0.0000 1777.6490 -7421.3045 303.8050 -9198.9535 -7421.3045 303.8050 540.4157 629.0166 30020.7461 540.4157 629.0166
ENERGY: 300000 3.6511 9.9808 4.6897 0.0000 -10747.7385 1531.2957 0.0000 0.0000 1741.3547 -7456.7664 297.6022 -9198.1211 -7423.0081 302.4226 860.4770 879.7407 30011.0650 312.2573 386.8422
ENERGY: 600000 3.4949 8.1700 5.1625 0.0000 -10842.7338 1572.6938 0.0000 0.0000 1725.3195 -7527.8931 294.8617 -9253.2126 -7451.3592 301.1734 1071.0520 1137.7383 30009.4418 347.3144 415.4488
ENERGY: 900000 1.7588 8.5112 2.6012 0.0000 -10489.8808 1373.7308 0.0000 0.0000 1723.8689 -7379.4098 294.6138 -9103.2787 -7445.9960 300.5402 -369.3545 -349.3939 30584.5830 198.5474 260.9119
ENERGY: 1200000 1.2509 8.3431 4.4949 0.0000 -10526.6449 1307.1666 0.0000 0.0000 1716.9286 -7488.4608 293.4277 -9205.3894 -7446.4180 299.7731 -1034.8655 -1046.1887 30347.0732 28.3981 81.3836
ENERGY: 1500000 1.8264 8.4250 4.4323 0.0000 -10566.0124 1450.9159 0.0000 0.0000 1782.3109 -7318.1017 304.6017 -9100.4126 -7439.5229 299.5762 636.7938 676.2555 29916.4619 79.8816 137.1212
TCL: Running FEP window   8: Lambda1 0.6499999999999997 Lambda2 0.5999999999999996 [dLambda -0.050000000000000044]
TCL: Setting parameter firsttimestep to 0
TCL: Setting parameter alchLambda to 0.6499999999999997
Info: NONBONDED TABLE R-SQUARED SPACING: 0.0625
Info: NONBONDED TABLE SIZE: 705 POINTS
TCL: Setting parameter alchLambda2 to 0.5999999999999996
Info: NONBONDED TABLE R-SQUARED SPACING: 0.0625
Info: NONBONDED TABLE SIZE: 705 POINTS
TCL: Running for 1500000 steps
ETITLE: TS BOND ANGLE DIHED IMPRP ELECT VDW BOUNDARY MISC KINETIC TOTAL TEMP POTENTIAL TOTALAVG TEMPAVG PRESSURE GPRESSURE VOLUME PRESSAVG GPRESSAVG
ENERGY: 0 1.8264 8.4250 4.4323 0.0000 -10565.7834 1451.0797 0.0000 0.0000 1781.4219 -7318.5981 304.4497 -9100.0200 -7318.5981 304.4497 579.7010 669.5883 29916.4619 579.7010 669.5883
ENERGY: 300000 4.1938 9.9600 4.1307 0.0000 -10588.5133 1447.5812 0.0000 0.0000 1801.0927 -7321.5549 307.8115 -9122.6476 -7383.0282 302.7157 -35.1498 53.2940 30547.6928 -251.6637 -192.8332
ENERGY: 600000 2.7510 7.4745 2.5672 0.0000 -10601.6790 1387.2375 0.0000 0.0000 1748.3431 -7453.3057 298.7965 -9201.6488 -7408.6983 303.6551 -270.2567 -232.8042 30056.2446 -188.1518 -132.1083
ENERGY: 900000 2.6088 6.5892 2.7972 0.0000 -10523.8568 1357.4390 0.0000 0.0000 1787.8375 -7366.5851 305.5462 -9154.4226 -7404.5506 303.8893 -343.7976 -327.1271 30420.3260 -237.3503 -177.0980
ENERGY: 1200000 3.6724 6.9186 3.0193 0.0000 -10661.6336 1407.3606 0.0000 0.0000 1732.1350 -7508.5278 296.0265 -9240.6627 -7423.5274 301.4159 -529.9571 -516.6022 30351.7195 -270.1236 -204.1808
ENERGY: 1500000 2.1799 7.8481 2.0383 0.0000 -10592.0941 1411.4886 0.0000 0.0000 1753.4093 -7415.1298 299.6623 -9168.5391 -7432.3219 300.5634 -136.0032 -120.6429 30266.4653 -259.8412 -195.0336
TCL: Running FEP window   9: Lambda1 0.5999999999999996 Lambda2 0.5499999999999996 [dLambda -0.050000000000000044]
TCL: Setting parameter firsttimestep to 0
TCL: Setting parameter alchLambda to 0.5999999999999996
Info: NONBONDED TABLE R-SQUARED SPACING: 0.0625
Info: NONBONDED TABLE SIZE: 705 POINTS
TCL: Setting parameter alchLambda2 to 0.5499999999999996
Info: NONBONDED TABLE R-SQUARED SPACING: 0.0625
Info: NONBONDED TABLE SIZE: 705 POINTS
TCL: Running for 1500000 steps
ETITLE: TS BOND ANGLE DIHED IMPRP ELECT VDW BOUNDARY MISC KINETIC TOTAL TEMP POTENTIAL TOTALAVG TEMPAVG PRESSURE GPRESSURE VOLUME PRESSAVG GPRESSAVG
ENERGY: 0 2.1799 7.8481 2.0383 0.0000 -10592.1464 1412.0075 0.0000 0.0000 1752.5622 -7415.5103 299.5176 -9168.0726 -7415.5103 299.5176 -216.2226 -126.8459 30266.4653 -216.2226 -126.8459
ENERGY: 300000 6.2183 5.3641 2.1845 0.0000 -10477.1057 1281.6517 0.0000 0.0000 1690.8311 -7490.8559 288.9675 -9181.6871 -7434.6537 297.2322 -1508.6360 -1456.2734 30723.7933 -689.6245 -609.0891
ENERGY: 600000 1.1244 7.0837 2.1837 0.0000 -10513.4488 1306.0391 0.0000 0.0000 1732.2511 -7464.7669 296.0463 -9197.0180 -7434.1126 299.0205 -959.4530 -905.1589 30284.1945 -569.6402 -493.9418
ENERGY: 900000 2.8892 6.2423 2.1506 0.0000 -10570.9188 1379.6478 0.0000 0.0000 1713.0365 -7466.9526 292.7625 -9179.9890 -7441.9656 298.8751 -375.8565 -287.8772 30388.3235 -640.3786 -566.2701
ENERGY: 1200000 1.8115 9.0542 7.8522 0.0000 -10566.7143 1403.9664 0.0000 0.0000 1773.7498 -7370.2802 303.1386 -9144.0300 -7430.8456 299.7205 -424.3947 -372.5695 30800.2382 -492.0310 -416.7244
ENERGY: 1500000 3.1637 6.6778 1.9435 0.0000 -10686.3343 1452.1575 0.0000 0.0000 1774.2257 -7448.1661 303.2199 -9222.3918 -7433.8979 300.5523 23.3114 90.6101 30035.5400 -360.7940 -292.3832
TCL: Running FEP window  10: Lambda1 0.5499999999999996 Lambda2 0.4999999999999996 [dLambda -0.04999999999999999]
TCL: Setting parameter firsttimestep to 0
TCL: Setting parameter alchLambda to 0.5499999999999996
Info: NONBONDED TABLE R-SQUARED SPACING: 0.0625
Info: NONBONDED TABLE SIZE: 705 POINTS
TCL: Setting parameter alchLambda2 to 0.4999999999999996
Info: NONBONDED TABLE R-SQUARED SPACING: 0.0625
Info: NONBONDED TABLE SIZE: 705 POINTS
TCL: Running for 1500000 steps
ETITLE: TS BOND ANGLE DIHED IMPRP ELECT VDW BOUNDARY MISC KINETIC TOTAL TEMP POTENTIAL TOTALAVG TEMPAVG PRESSURE GPRESSURE VOLUME PRESSAVG GPRESSAVG
ENERGY: 0 3.1637 6.6778 1.9435 0.0000 -10686.4248 1452.7304 0.0000 0.0000 1773.3428 -7448.5666 303.0690 -9221.9094 -7448.5666 303.0690 -12.4805 87.8888 30035.5400 -12.4805 87.8888
ENERGY: 300000 2.8599 7.2978 3.5095 0.0000 -10704.3457 1498.5285 0.0000 0.0000 1736.1717 -7455.9782 296.7164 -9192.1499 -7442.9826 298.5346 840.7309 945.9009 29576.3620 259.5985 355.0816
ENERGY: 600000 3.8290 6.3775 3.3871 0.0000 -10710.0306 1430.0085 0.0000 0.0000 1750.8418 -7515.5867 299.2235 -9266.4285 -7454.6891 299.0098 -265.9469 -202.4830 30191.9445 78.6738 154.8311
ENERGY: 900000 3.0502 6.7445 3.0891 0.0000 -10634.1847 1367.8451 0.0000 0.0000 1742.1794 -7511.2764 297.7431 -9253.4558 -7443.9745 300.0470 -842.6242 -786.9051 30384.2929 -37.0071 43.5199
ENERGY: 1200000 5.4938 5.4456 3.1442 0.0000 -10679.8698 1444.7704 0.0000 0.0000 1692.8123 -7528.2035 289.3061 -9221.0158 -7456.9699 299.9476 -31.5388 65.4970 30120.6498 1.3491 78.7010
ENERGY: 1500000 1.2938 7.4159 3.4381 0.0000 -10613.7769 1372.7082 0.0000 0.0000 1766.5192 -7462.4018 301.9028 -9228.9210 -7455.5009 299.9001 -602.5928 -581.4206 30194.4540 42.9070 116.6331
TCL: Running FEP window  11: Lambda1 0.4999999999999996 Lambda2 0.4499999999999996 [dLambda -0.04999999999999999]
TCL: Setting parameter firsttimestep to 0
TCL: Setting parameter alchLambda to 0.4999999999999996
Info: NONBONDED TABLE R-SQUARED SPACING: 0.0625
Info: NONBONDED TABLE SIZE: 705 POINTS
TCL: Setting parameter alchLambda2 to 0.4499999999999996
Info: NONBONDED TABLE R-SQUARED SPACING: 0.0625
Info: NONBONDED TABLE SIZE: 705 POINTS
TCL: Running for 1500000 steps
ETITLE: TS BOND ANGLE DIHED IMPRP ELECT VDW BOUNDARY MISC KINETIC TOTAL TEMP POTENTIAL TOTALAVG TEMPAVG PRESSURE GPRESSURE VOLUME PRESSAVG GPRESSAVG
ENERGY: 0 1.2938 7.4159 3.4381 0.0000 -10613.8269 1372.9844 0.0000 0.0000 1765.6834 -7463.0114 301.7600 -9228.6948 -7463.0114 301.7600 -676.5921 -587.9025 30194.4540 -676.5921 -587.9025
ENERGY: 300000 2.8826 8.1588 2.1967 0.0000 -10477.1294 1355.1099 0.0000 0.0000 1756.6459 -7352.1355 300.2155 -9108.7814 -7392.8680 301.4253 -521.4933 -422.2042 30163.9646 -418.4294 -354.7396
ENERGY: 600000 2.0737 7.3651 3.1977 0.0000 -10717.4852 1509.0332 0.0000 0.0000 1768.0170 -7427.7985 302.1588 -9195.8155 -7397.1136 301.2132 608.9133 696.9754 30298.6268 -82.9463 -10.2586
ENERGY: 900000 4.3152 7.2190 3.1670 0.0000 -10600.1487 1389.2622 0.0000 0.0000 1767.5399 -7428.6454 302.0773 -9196.1853 -7410.5364 300.5213 -506.6515 -416.4644 30188.5517 -199.5729 -130.9526
ENERGY: 1200000 2.7292 7.2279 1.8896 0.0000 -10568.7085 1357.5570 0.0000 0.0000 1779.8409 -7419.4639 304.1795 -9199.3048 -7420.4997 301.2497 -811.1704 -755.0013 30407.2058 -255.2424 -184.7516
ENERGY: 1500000 1.0721 11.0184 4.2554 0.0000 -10545.0788 1371.7635 0.0000 0.0000 1752.6408 -7404.3286 299.5310 -9156.9694 -7423.2198 301.0716 -212.4991 -173.1768 30232.1455 -141.7797 -73.4458
TCL: Running FEP window  12: Lambda1 0.4499999999999996 Lambda2 0.39999999999999963 [dLambda -0.04999999999999999]
TCL: Setting parameter firsttimestep to 0
TCL: Setting parameter alchLambda to 0.4499999999999996
Info: NONBONDED TABLE R-SQUARED SPACING: 0.0625
Info: NONBONDED TABLE SIZE: 705 POINTS
TCL: Setting parameter alchLambda2 to 0.39999999999999963
Info: NONBONDED TABLE R-SQUARED SPACING: 0.0625
Info: NONBONDED TABLE SIZE: 705 POINTS
TCL: Running for 1500000 steps
ETITLE: TS BOND ANGLE DIHED IMPRP ELECT VDW BOUNDARY MISC KINETIC TOTAL TEMP POTENTIAL TOTALAVG TEMPAVG PRESSURE GPRESSURE VOLUME PRESSAVG GPRESSAVG
ENERGY: 0 1.0721 11.0184 4.2554 0.0000 -10545.0790 1372.2314 0.0000 0.0000 1751.7708 -7404.7309 299.3823 -9156.5017 -7404.7309 299.3823 -239.0421 -174.4994 30232.1455 -239.0421 -174.4994
ENERGY: 300000 2.7259 7.0592 3.4162 0.0000 -10511.2246 1361.2809 0.0000 0.0000 1737.0371 -7399.7054 296.8643 -9136.7425 -7436.4974 296.2561 -401.2152 -307.7305 29965.7395 -319.7258 -262.4927
ENERGY: 600000 3.2306 5.5074 4.3528 0.0000 -10648.6323 1433.0051 0.0000 0.0000 1780.7406 -7421.7957 304.3333 -9202.5364 -7421.0906 300.4700 -229.5608 -192.3605 30505.6097 -347.0877 -294.1434
ENERGY: 900000 2.6053 6.2182 4.4840 0.0000 -10562.0931 1415.9989 0.0000 0.0000 1722.2852 -7410.5015 294.3431 -9132.7866 -7416.3059 299.4859 -19.0488 45.8619 30416.8421 -229.9383 -173.0502
ENERGY: 1200000 3.2234 5.3337 5.5964 0.0000 -10870.5659 1530.7307 0.0000 0.0000 1741.0465 -7584.6352 297.5495 -9325.6817 -7444.0016 298.7523 671.7638 737.9408 29644.1529 -162.4721 -103.0597
ENERGY: 1500000 1.8327 8.7721 2.9554 0.0000 -10702.7051 1561.3856 0.0000 0.0000 1776.6517 -7351.1076 303.6345 -9127.7593 -7430.8639 299.2887 1430.4836 1487.3765 29814.7094 -71.9394 -13.1379
TCL: Running FEP window  13: Lambda1 0.39999999999999963 Lambda2 0.34999999999999964 [dLambda -0.04999999999999999]
TCL: Setting parameter firsttimestep to 0
TCL: Setting parameter alchLambda to 0.39999999999999963
Info: NONBONDED TABLE R-SQUARED SPACING: 0.0625
Info: NONBONDED TABLE SIZE: 705 POINTS
TCL: Setting parameter alchLambda2 to 0.34999999999999964
Info: NONBONDED TABLE R-SQUARED SPACING: 0.0625
Info: NONBONDED TABLE SIZE: 705 POINTS
TCL: Running for 1500000 steps
ETITLE: TS BOND ANGLE DIHED IMPRP ELECT VDW BOUNDARY MISC KINETIC TOTAL TEMP POTENTIAL TOTALAVG TEMPAVG PRESSURE GPRESSURE VOLUME PRESSAVG GPRESSAVG
ENERGY: 0 1.8327 8.7721 2.9554 0.0000 -10702.7042 1561.3083 0.0000 0.0000 1775.7869 -7352.0488 303.4867 -9127.8356 -7352.0488 303.4867 1400.4674 1481.2605 29814.7094 1400.4674 1481.2605
ENERGY: 300000 3.2862 8.6813 4.8217 0.0000 -10622.4455 1470.3632 0.0000 0.0000 1740.7769 -7394.5161 297.5034 -9135.2930 -7411.5321 298.6882 422.8586 479.1358 29954.3075 224.9163 302.1060
ENERGY: 600000 1.6593 12.2446 5.3963 0.0000 -10534.7143 1393.8263 0.0000 0.0000 1776.9595 -7344.6283 303.6871 -9121.5878 -7414.8896 300.1488 -267.1075 -312.6137 30607.6267 57.4080 123.6874
ENERGY: 900000 3.7466 8.2351 5.1364 0.0000 -10672.1524 1438.7332 0.0000 0.0000 1714.2763 -7502.0248 292.9744 -9216.3011 -7424.6825 299.6462 -169.3385 -164.7115 29974.6574 -96.9733 -42.2660
ENERGY: 1200000 0.7113 3.8677 3.1814 0.0000 -10577.4892 1357.2811 0.0000 0.0000 1763.2390 -7449.2086 301.3422 -9212.4476 -7430.2954 300.1912 -585.9737 -538.8813 30247.0807 -87.3532 -36.0205
ENERGY: 1500000 2.1726 10.2044 5.1394 0.0000 -10671.8305 1451.6785 0.0000 0.0000 1767.2261 -7435.4096 302.0236 -9202.6356 -7429.3489 300.6497 -41.7395 49.4375 30328.5722 -23.9033 31.3546
TCL: Running FEP window  14: Lambda1 0.34999999999999964 Lambda2 0.29999999999999966 [dLambda -0.04999999999999999]
TCL: Setting parameter firsttimestep to 0
TCL: Setting parameter alchLambda to 0.34999999999999964
Info: NONBONDED TABLE R-SQUARED SPACING: 0.0625
Info: NONBONDED TABLE SIZE: 705 POINTS
TCL: Setting parameter alchLambda2 to 0.29999999999999966
Info: NONBONDED TABLE R-SQUARED SPACING: 0.0625
Info: NONBONDED TABLE SIZE: 705 POINTS
TCL: Running for 1500000 steps
ETITLE: TS BOND ANGLE DIHED IMPRP ELECT VDW BOUNDARY MISC KINETIC TOTAL TEMP POTENTIAL TOTALAVG TEMPAVG PRESSURE GPRESSURE VOLUME PRESSAVG GPRESSAVG
ENERGY: 0 2.1726 10.2044 5.1394 0.0000 -10671.8293 1452.2842 0.0000 0.0000 1766.3859 -7435.6427 301.8801 -9202.0286 -7435.6427 301.8801 -45.6536 47.8604 30328.5722 -45.6536 47.8604
ENERGY: 300000 1.9545 8.9945 3.2577 0.0000 -10656.0611 1417.5465 0.0000 0.0000 1744.4938 -7479.8141 298.1386 -9224.3079 -7428.0536 298.8206 -143.2888 -105.9650 30099.0061 -133.1195 -63.8377
ENERGY: 600000 4.3461 8.8980 3.0923 0.0000 -10505.7059 1377.1447 0.0000 0.0000 1744.0212 -7368.2035 298.0579 -9112.2248 -7420.9839 299.5881 -489.2964 -445.3853 30557.6905 -169.8222 -113.7546
ENERGY: 900000 3.2543 7.8411 1.7086 0.0000 -10627.3569 1444.6035 0.0000 0.0000 1801.7225 -7368.2268 307.9192 -9169.9493 -7408.1528 300.7814 -62.4702 37.1458 30059.5431 -210.9811 -150.7310
ENERGY: 1200000 4.9968 6.0038 3.1573 0.0000 -10793.1495 1570.5072 0.0000 0.0000 1719.2705 -7489.2140 293.8279 -9208.4845 -7415.1721 300.2590 1461.0239 1472.3011 29295.4047 -105.4488 -53.2588
ENERGY: 1500000 2.3918 9.9711 1.8736 0.0000 -10707.9175 1498.9355 0.0000 0.0000 1676.4459 -7518.2997 286.5091 -9194.7456 -7419.0006 300.1251 603.5576 687.6854 30073.6499 -70.9065 -12.1422
TCL: Running FEP window  15: Lambda1 0.29999999999999966 Lambda2 0.24999999999999967 [dLambda -0.04999999999999999]
TCL: Setting parameter firsttimestep to 0
TCL: Setting parameter alchLambda to 0.29999999999999966
Info: NONBONDED TABLE R-SQUARED SPACING: 0.0625
Info: NONBONDED TABLE SIZE: 705 POINTS
TCL: Setting parameter alchLambda2 to 0.24999999999999967
Info: NONBONDED TABLE R-SQUARED SPACING: 0.0625
Info: NONBONDED TABLE SIZE: 705 POINTS
TCL: Running for 1500000 steps
ETITLE: TS BOND ANGLE DIHED IMPRP ELECT VDW BOUNDARY MISC KINETIC TOTAL TEMP POTENTIAL TOTALAVG TEMPAVG PRESSURE GPRESSURE VOLUME PRESSAVG GPRESSAVG
ENERGY: 0 2.3918 9.9711 1.8736 0.0000 -10707.9187 1499.2160 0.0000 0.0000 1675.5569 -7518.9094 286.3571 -9194.4663 -7518.9094 286.3571 589.1121 684.8690 30073.6499 589.1121 684.8690
ENERGY: 300000 2.1634 5.8924 3.2546 0.0000 -10718.3116 1528.0710 0.0000 0.0000 1719.1911 -7459.7391 293.8143 -9178.9303 -7485.2515 291.9365 851.0989 913.5462 29855.1988 266.6986 349.9336
ENERGY: 600000 3.0411 10.1359 3.3092 0.0000 -10583.1379 1427.3596 0.0000 0.0000 1774.3562 -7364.9359 303.2422 -9139.2921 -7461.1342 295.5523 204.1497 182.8042 29871.4488 205.5479 267.7375
ENERGY: 900000 4.3028 9.8428 3.7804 0.0000 -10654.2188 1439.5351 0.0000 0.0000 1774.2048 -7422.5530 303.2163 -9196.7577 -7457.1309 296.8275 104.3761 149.3473 30006.0525 63.5072 113.5530
ENERGY: 1200000 1.6735 11.4072 4.2692 0.0000 -10635.1879 1425.1047 0.0000 0.0000 1767.0404 -7425.6928 301.9919 -9192.7332 -7451.8892 297.6447 -266.8540 -231.0081 30142.5630 56.1584 102.4005
ENERGY: 1500000 4.5041 8.9085 5.4207 0.0000 -10595.2814 1404.3220 0.0000 0.0000 1709.0045 -7463.1215 292.0734 -9172.1260 -7448.0722 297.9552 -224.7247 -154.2648 30042.1021 -43.2905 5.1029
TCL: Running FEP window  16: Lambda1 0.24999999999999967 Lambda2 0.19999999999999968 [dLambda -0.04999999999999999]
TCL: Setting parameter firsttimestep to 0
TCL: Setting parameter alchLambda to 0.24999999999999967
Info: NONBONDED TABLE R-SQUARED SPACING: 0.0625
Info: NONBONDED TABLE SIZE: 705 POINTS
TCL: Setting parameter alchLambda2 to 0.19999999999999968
Info: NONBONDED TABLE R-SQUARED SPACING: 0.0625
Info: NONBONDED TABLE SIZE: 705 POINTS
TCL: Running for 1500000 steps
ETITLE: TS BOND ANGLE DIHED IMPRP ELECT VDW BOUNDARY MISC KINETIC TOTAL TEMP POTENTIAL TOTALAVG TEMPAVG PRESSURE GPRESSURE VOLUME PRESSAVG GPRESSAVG
ENERGY: 0 4.5042 8.9085 5.4207 0.0000 -10595.2831 1404.4135 0.0000 0.0000 1708.0891 -7463.9471 291.9170 -9172.0362 -7463.9471 291.9170 -234.9164 -156.9828 30042.1021 -234.9164 -156.9828
ENERGY: 300000 3.3236 9.2944 2.1296 0.0000 -10540.9538 1345.2736 0.0000 0.0000 1753.2489 -7427.6836 299.6349 -9180.9325 -7478.0160 295.6658 -964.9865 -795.9333 30517.2271 -280.0978 -176.0541
ENERGY: 600000 3.5331 8.1762 2.5201 0.0000 -10546.6380 1386.8972 0.0000 0.0000 1773.7104 -7371.8009 303.1318 -9145.5114 -7448.4505 297.1241 -73.7671 -52.7847 29678.0719 -347.2782 -277.4975
ENERGY: 900000 3.1996 4.9303 2.1092 0.0000 -10737.4498 1491.9978 0.0000 0.0000 1757.0340 -7478.1790 300.2818 -9235.2129 -7451.5587 298.5724 275.2095 363.1549 29977.1104 -352.6075 -282.0200
ENERGY: 1200000 1.9264 4.9045 1.7417 0.0000 -10633.3129 1444.2704 0.0000 0.0000 1736.9241 -7443.5458 296.8450 -9180.4699 -7456.1757 297.3696 -3.3361 20.9135 30451.9493 -358.3438 -290.3244
ENERGY: 1500000 3.0396 3.5114 5.5522 0.0000 -10556.2871 1408.3567 0.0000 0.0000 1777.3156 -7358.5117 303.7480 -9135.8273 -7452.7954 297.9911 19.2869 68.6000 30016.3080 -289.3325 -222.1571
TCL: Running FEP window  17: Lambda1 0.19999999999999968 Lambda2 0.1499999999999997 [dLambda -0.04999999999999999]
TCL: Setting parameter firsttimestep to 0
TCL: Setting parameter alchLambda to 0.19999999999999968
Info: NONBONDED TABLE R-SQUARED SPACING: 0.0625
Info: NONBONDED TABLE SIZE: 705 POINTS
TCL: Setting parameter alchLambda2 to 0.1499999999999997
Info: NONBONDED TABLE R-SQUARED SPACING: 0.0625
Info: NONBONDED TABLE SIZE: 705 POINTS
TCL: Running for 1500000 steps
ETITLE: TS BOND ANGLE DIHED IMPRP ELECT VDW BOUNDARY MISC KINETIC TOTAL TEMP POTENTIAL TOTALAVG TEMPAVG PRESSURE GPRESSURE VOLUME PRESSAVG GPRESSAVG
ENERGY: 0 3.0396 3.5114 5.5522 0.0000 -10556.2880 1407.9915 0.0000 0.0000 1776.4766 -7359.7168 303.6046 -9136.1934 -7359.7168 303.6046 -43.8280 63.8796 30016.3080 -43.8280 63.8796
ENERGY: 300000 5.2959 6.1025 2.0033 0.0000 -10692.2546 1540.0683 0.0000 0.0000 1769.5806 -7369.2039 302.4260 -9138.7846 -7367.6813 304.3623 932.4826 953.8285 30287.4012 244.3384 315.7018
ENERGY: 600000 1.1631 6.0880 6.3936 0.0000 -10583.4347 1406.1109 0.0000 0.0000 1745.4681 -7418.2110 298.3051 -9163.6790 -7388.9362 300.7660 -198.6242 -221.7314 30610.8992 92.0934 154.7010
ENERGY: 900000 2.3431 9.4762 7.7337 0.0000 -10735.3470 1475.9122 0.0000 0.0000 1757.6055 -7482.2763 300.3795 -9239.8817 -7402.3533 300.1179 262.4987 285.7436 29983.5133 54.5983 111.1087
ENERGY: 1200000 1.8472 6.9571 2.9287 0.0000 -10720.7620 1422.6487 0.0000 0.0000 1707.7477 -7578.6325 291.8586 -9286.3803 -7414.9651 299.7131 -333.7955 -291.4961 29785.9725 81.2743 139.1845
ENERGY: 1500000 6.8204 8.3812 1.7051 0.0000 -10783.2531 1519.1487 0.0000 0.0000 1667.9461 -7579.2516 285.0564 -9247.1977 -7425.8526 299.1607 483.6387 548.9918 29967.7909 160.2797 219.3336
TCL: Running FEP window  18: Lambda1 0.1499999999999997 Lambda2 0.09999999999999969 [dLambda -0.05 ]
TCL: Setting parameter firsttimestep to 0
TCL: Setting parameter alchLambda to 0.1499999999999997
Info: NONBONDED TABLE R-SQUARED SPACING: 0.0625
Info: NONBONDED TABLE SIZE: 705 POINTS
TCL: Setting parameter alchLambda2 to 0.09999999999999969
Info: NONBONDED TABLE R-SQUARED SPACING: 0.0625
Info: NONBONDED TABLE SIZE: 705 POINTS
TCL: Running for 1500000 steps
ETITLE: TS BOND ANGLE DIHED IMPRP ELECT VDW BOUNDARY MISC KINETIC TOTAL TEMP POTENTIAL TOTALAVG TEMPAVG PRESSURE GPRESSURE VOLUME PRESSAVG GPRESSAVG
ENERGY: 0 6.8204 8.3811 1.7051 0.0000 -10783.2522 1519.5017 0.0000 0.0000 1667.0886 -7579.7551 284.9099 -9246.8437 -7579.7551 284.9099 460.2405 545.0982 29967.7909 460.2405 545.0982
ENERGY: 300000 3.5578 7.2745 2.0176 0.0000 -10591.5802 1384.5992 0.0000 0.0000 1749.6049 -7444.5261 299.0121 -9194.1309 -7477.9502 296.0793 -616.5663 -628.6821 30352.2400 -49.3977 -3.5753
ENERGY: 600000 2.7083 7.5287 2.0096 0.0000 -10679.6988 1482.8726 0.0000 0.0000 1770.0256 -7414.5541 302.5021 -9184.5796 -7437.0885 298.9069 482.0866 523.2084 29701.6292 -85.9004 -23.1527
ENERGY: 900000 2.8769 8.6250 2.8946 0.0000 -10476.6528 1365.0808 0.0000 0.0000 1723.2676 -7373.9079 294.5110 -9097.1755 -7424.8101 300.3461 -572.2107 -500.1632 30550.6526 -125.2843 -68.9471
ENERGY: 1200000 1.2194 10.6439 5.0195 0.0000 -10562.3834 1401.3425 0.0000 0.0000 1726.6752 -7417.4829 295.0934 -9144.1581 -7425.4935 299.4713 -140.1921 -67.9841 30240.5731 -130.6243 -66.8635
ENERGY: 1500000 4.0786 6.5922 2.7078 0.0000 -10722.6699 1472.3527 0.0000 0.0000 1716.8352 -7520.1034 293.4117 -9236.9387 -7433.6657 299.9265 245.0153 233.6387 29866.1425 -72.0222 -16.4570
TCL: Running FEP window  19: Lambda1 0.09999999999999969 Lambda2 0.049999999999999684 [dLambda -0.05 ]
TCL: Setting parameter firsttimestep to 0
TCL: Setting parameter alchLambda to 0.09999999999999969
Info: NONBONDED TABLE R-SQUARED SPACING: 0.0625
Info: NONBONDED TABLE SIZE: 705 POINTS
TCL: Setting parameter alchLambda2 to 0.049999999999999684
Info: NONBONDED TABLE R-SQUARED SPACING: 0.0625
Info: NONBONDED TABLE SIZE: 705 POINTS
TCL: Running for 1500000 steps
ETITLE: TS BOND ANGLE DIHED IMPRP ELECT VDW BOUNDARY MISC KINETIC TOTAL TEMP POTENTIAL TOTALAVG TEMPAVG PRESSURE GPRESSURE VOLUME PRESSAVG GPRESSAVG
ENERGY: 0 4.0786 6.5922 2.7078 0.0000 -10722.6700 1472.9061 0.0000 0.0000 1715.9972 -7520.3882 293.2685 -9236.3853 -7520.3882 293.2685 126.0021 233.2963 29866.1425 126.0021 233.2963
ENERGY: 300000 3.1434 7.0861 4.6171 0.0000 -10708.1965 1495.0258 0.0000 0.0000 1753.0916 -7445.2326 299.6080 -9198.3242 -7451.4827 299.4226 477.3697 577.3104 29987.8977 173.4006 246.3665
ENERGY: 600000 2.5554 11.8141 2.6876 0.0000 -10704.6835 1491.5272 0.0000 0.0000 1776.0957 -7420.0035 303.5395 -9196.0992 -7429.3449 302.8703 421.9650 471.1265 29929.6762 253.0081 320.8179
ENERGY: 900000 3.8125 6.9262 3.1494 0.0000 -10605.4637 1342.8788 0.0000 0.0000 1793.0981 -7455.5987 306.4452 -9248.6968 -7424.3205 303.1343 -1038.8965 -994.2394 30302.0773 115.7533 177.5410
ENERGY: 1200000 2.3875 6.9752 2.9848 0.0000 -10658.4543 1527.0694 0.0000 0.0000 1799.3420 -7319.6954 307.5123 -9119.0374 -7421.2628 302.8766 829.1169 851.7743 29959.6632 85.7296 141.7922
ENERGY: 1500000 3.3902 8.7364 2.4506 0.0000 -10489.0425 1400.7148 0.0000 0.0000 1757.3019 -7316.4485 300.3276 -9073.7505 -7429.1993 301.8273 -444.0636 -396.2937 30975.8610 40.5578 95.2971
TCL: Running FEP window  20: Lambda1 0.049999999999999684 Lambda2 0.0    [dLambda -0.049999999999999684]
TCL: Setting parameter firsttimestep to 0
TCL: Setting parameter alchLambda to 0.049999999999999684
Info: NONBONDED TABLE R-SQUARED SPACING: 0.0625
Info: NONBONDED TABLE SIZE: 705 POINTS
TCL: Setting parameter alchLambda2 to 0.0
Info: NONBONDED TABLE R-SQUARED SPACING: 0.0625
Info: NONBONDED TABLE SIZE: 705 POINTS
TCL: Running for 1500000 steps
ETITLE: TS BOND ANGLE DIHED IMPRP ELECT VDW BOUNDARY MISC KINETIC TOTAL TEMP POTENTIAL TOTALAVG TEMPAVG PRESSURE GPRESSURE VOLUME PRESSAVG GPRESSAVG
ENERGY: 0 3.3902 8.7364 2.4506 0.0000 -10489.0423 1400.4282 0.0000 0.0000 1756.4080 -7317.6289 300.1748 -9074.0369 -7317.6289 300.1748 -460.5606 -401.4257 30975.8610 -460.5606 -401.4257
ENERGY: 300000 1.6258 7.9955 2.4287 0.0000 -10569.1462 1411.3840 0.0000 0.0000 1733.6840 -7412.0282 296.2912 -9145.7122 -7375.5076 300.3091 -245.5607 -216.3692 30313.6487 -257.7721 -218.4971
ENERGY: 600000 6.4260 9.6731 7.7560 0.0000 -10536.4593 1392.0467 0.0000 0.0000 1789.1621 -7331.3954 305.7726 -9120.5575 -7380.2716 301.1628 -476.3303 -463.3835 30437.5304 -155.6546 -116.3831
ENERGY: 900000 1.7023 5.3417 3.2137 0.0000 -10722.7061 1480.7646 0.0000 0.0000 1804.8675 -7426.8163 308.4567 -9231.6838 -7379.9555 303.1495 370.1288 444.3097 29783.0005 3.0219 55.4121
ENERGY: 1200000 4.6568 5.8345 4.0199 0.0000 -10613.0193 1482.5582 0.0000 0.0000 1760.7422 -7355.2077 300.9155 -9115.9499 -7396.3277 301.4674 320.0379 310.8727 30534.4399 -64.8988 -17.2832
ENERGY: 1500000 1.1530 12.4532 4.7469 0.0000 -10610.1694 1444.5448 0.0000 0.0000 1700.2168 -7447.0547 290.5716 -9147.2716 -7397.3761 301.1434 111.4153 176.0771 30117.6183 -39.7601 8.6718
TCL: Exiting due to exit command.
