Info: SIMULATION PARAMETERS:
Info: TIMESTEP               2
Info: NUMBER OF STEPS        0
Info: STEPS PER CYCLE        10
Info: PERIODIC CELL BASIS 1  31.1428 0 0
Info: PERIODIC CELL BASIS 2  0 30.4966 0
Info: PERIODIC CELL BASIS 3  0 0 32.2226
Info: PERIODIC CELL CENTER   0 0 0
Info: WRAPPING WATERS AROUND PERIODIC BOUNDARIES ON OUTPUT.
Info: WRAPPING ALL CLUSTERS AROUND PERIODIC BOUNDARIES ON OUTPUT.
Info: FIRST LDB TIMESTEP     50
Info: LAST LDB TIMESTEP     -1
Info: HOM BACKGROUND SCALING 1
Info: PME BACKGROUND SCALING 1
Info: MIN ATOMS PER PATCH    40
Info: EMPTY PATCH LOAD       40 ATOMS
Info: VELOCITY FILE          mobley_5347550_equil.vel
Info: CENTER OF MASS MOVING INITIALLY? NO
Info: DIELECTRIC             1
Info: EXCLUDE                SCALED ONE-FOUR
Info: 1-4 ELECTROSTATICS SCALED BY 0.833333
Info: MODIFIED 1-4 VDW PARAMETERS WILL BE USED
Info: DCD FILENAME           mobley_5347550_prod.dcd
Info: DCD FREQUENCY          100000
Info: DCD FIRST STEP         100000
Info: DCD FILE WILL CONTAIN UNIT CELL DATA
Info: XST FILENAME           mobley_5347550_prod.xst
Info: XST FREQUENCY          100000
Info: NO VELOCITY DCD OUTPUT
Info: NO FORCE DCD OUTPUT
Info: OUTPUT FILENAME        mobley_5347550_prod
Info: BINARY OUTPUT FILES WILL BE USED
Info: RESTART FILENAME       mobley_5347550_prod.restart
Info: RESTART FREQUENCY      100000
Info: BINARY RESTART FILES WILL BE USED
Info: CUTOFF                 9
Info: PAIRLIST DISTANCE      11
Info: PAIRLIST SHRINK RATE   0.01
Info: PAIRLIST GROW RATE     0.01
Info: PAIRLIST TRIGGER       0.3
Info: PAIRLISTS PER CYCLE    2
Info: PAIRLISTS ENABLED
Info: MARGIN                 2
Info: HYDROGEN GROUP CUTOFF  2.5
Info: PATCH DIMENSION        15.5
Info: ENERGY OUTPUT STEPS    100000
Info: ENERGY EVALUATION STEPS    100000
Info: OUTPUT ENERGY PRECISION 4
Info: CROSSTERM ENERGY INCLUDED IN DIHEDRAL
Info: TIMING OUTPUT STEPS    1000000
Info: PRESSURE OUTPUT STEPS  100000
Info: ALCHEMICAL FEP ON
Info: FEP CURRENT LAMBDA VALUE     1
Info: FEP COMPARISON LAMBDA VALUE  0.95
Info: FEP INTRA-ALCHEMICAL NON-BONDED INTERACTIONS WILL BE RETAINED
Info: FEP INTRA-ALCHEMICAL BONDED INTERACTIONS WILL BE RETAINED
Info: FEP VDW SHIFTING COEFFICIENT 5
Info: FEP ELEC. ACTIVE FOR ANNIHILATED PARTICLES BETWEEN LAMBDA = 0 AND LAMBDA = 0.5
Info: FEP ELEC. ACTIVE FOR EXNIHILATED PARTICLES BETWEEN LAMBDA = 0.5 AND LAMBDA = 1
Info: FEP VDW ACTIVE FOR ANNIHILATED PARTICLES BETWEEN LAMBDA = 0 AND LAMBDA = 1
Info: FEP VDW ACTIVE FOR EXNIHILATED PARTICLES BETWEEN LAMBDA = 0 AND LAMBDA = 1
Info: FEP BOND ACTIVE FOR ANNIHILATED PARTICLES BETWEEN LAMBDA = 1 AND LAMBDA = 1
Info: FEP BOND ACTIVE FOR EXNIHILATED PARTICLES BETWEEN LAMBDA = 0 AND LAMBDA = 0
Info: LANGEVIN DYNAMICS ACTIVE
Info: LANGEVIN TEMPERATURE   300
Info: LANGEVIN USING BBK INTEGRATOR
Info: LANGEVIN DAMPING COEFFICIENT IS 1 INVERSE PS
Info: LANGEVIN DYNAMICS APPLIED TO HYDROGENS
Info: LANGEVIN PISTON PRESSURE CONTROL ACTIVE
Info:        TARGET PRESSURE IS 1.01325 BAR
Info:     OSCILLATION PERIOD IS 50 FS
Info:             DECAY TIME IS 25 FS
Info:     PISTON TEMPERATURE IS 300 K
Info:       PRESSURE CONTROL IS GROUP-BASED
Info:    INITIAL STRAIN RATE IS -6.04337e-05 -6.04337e-05 -6.04337e-05
Info:       CELL FLUCTUATION IS ISOTROPIC
Info: PARTICLE MESH EWALD (PME) ACTIVE
Info: PME TOLERANCE               1e-06
Info: PME EWALD COEFFICIENT       0.348832
Info: PME INTERPOLATION ORDER     4
Info: PME GRID DIMENSIONS         32 32 36
Info: PME MAXIMUM GRID SPACING    1
Info: PME CALCULATION WILL BE PERFORMED ON GPU
Info: FULL ELECTROSTATIC EVALUATION FREQUENCY      2
Info: USING VERLET I (r-RESPA) MTS SCHEME.
Info: C1 SPLITTING OF LONG RANGE ELECTROSTATICS
Info: PLACING ATOMS IN PATCHES BY HYDROGEN GROUPS
Info: RIGID BONDS TO HYDROGEN : ALL
Info:         ERROR TOLERANCE : 1e-08
Info:          MAX ITERATIONS : 100
Info: RIGID WATER USING SETTLE ALGORITHM
Info: RANDOM NUMBER SEED     1743823010
Info: USE HYDROGEN BONDS?    NO
Info: Using AMBER format force field!
Info: AMBER PARM FILE        mobley_5347550.prmtop
Info: COORDINATE PDB         mobley_5347550.pdb
Info: Exclusions will be read from PARM file!
Info: SCNB (VDW SCALING)     2
Info: USING ARITHMETIC MEAN TO COMBINE L-J SIGMA PARAMETERS
Info: BINARY COORDINATES     mobley_5347550_equil.coor
Info: SUMMARY OF PARAMETERS:
Info: 8 BONDS
Info: 11 ANGLES
Info:   11 HARMONIC
Info:   0 COSINE-BASED
Info: 4 DIHEDRAL
Info: 0 IMPROPER
Info: 0 CROSSTERM
Info: 0 VDW
Info: 36 VDW_PAIRS
Info: 0 NBTHOLE_PAIRS
Info: To read alchdata from file: mobley_5347550.pdb
Info: To read alchflag data from column: 5
Info: STRUCTURE SUMMARY:
Info: 2952 ATOMS
Info: 2951 BONDS
Info: 19 ANGLES
Info: 16 DIHEDRALS
Info: 0 IMPROPERS
Info: 0 CROSSTERMS
Info: 2985 EXCLUSIONS
Info: 2944 RIGID BONDS
Info: ALCH: 0 ATOMS TO DISAPPEAR IN FINAL STATE
Info: ALCH: 12 ATOMS TO APPEAR IN FINAL STATE
Info: 5912 DEGREES OF FREEDOM
Info: 988 HYDROGEN GROUPS
Info: 4 ATOMS IN LARGEST HYDROGEN GROUP
Info: 988 MIGRATION GROUPS
Info: 4 ATOMS IN LARGEST MIGRATION GROUP
Info: TOTAL MASS = 17820.6 amu
Info: TOTAL CHARGE = 0.00010002 e
Info: MASS DENSITY = 0.966969 g/cm^3
Info: ATOM DENSITY = 0.0964598 atoms/A^3
Info: ADDED 0 IMPLICIT EXCLUSIONS
Info: NONBONDED TABLE R-SQUARED SPACING: 0.0625
Info: NONBONDED TABLE SIZE: 705 POINTS
Info: REMOVING COM VELOCITY -0.0555021 -0.00625518 -0.0342422
Info: Use 3D box decompostion in PME FFT.
Info: Updated CUDA force table with 4096 elements.
Info: Updated CUDA LJ table with 8 x 8 elements.
Info: Found 15 unique exclusion lists needing 28 bytes
TCL: Running for 1500000 steps
ETITLE: TS BOND ANGLE DIHED IMPRP ELECT VDW BOUNDARY MISC KINETIC TOTAL TEMP POTENTIAL TOTALAVG TEMPAVG PRESSURE GPRESSURE VOLUME PRESSAVG GPRESSAVG
ENERGY: 0 3.0249 3.6605 0.1970 0.0000 -10774.6527 1438.1865 0.0000 0.0000 1802.2533 -7527.3305 306.8116 -9329.5839 -7527.3305 306.8116 -234.9321 -154.5419 30603.4381 -234.9321 -154.5419
ENERGY: 300000 3.0280 4.1879 0.1993 0.0000 -10840.9279 1501.8949 0.0000 0.0000 1780.6188 -7550.9990 303.1286 -9331.6178 -7525.0218 302.2308 411.6632 508.1458 30110.4062 -239.3641 -162.1583
ENERGY: 600000 1.1508 5.6032 0.4495 0.0000 -10725.6001 1456.8702 0.0000 0.0000 1771.0248 -7490.5015 301.4953 -9261.5263 -7516.8927 302.7807 338.1142 371.7374 30312.7601 158.2510 207.8710
ENERGY: 900000 2.2047 4.3329 2.6544 0.0000 -10689.8254 1409.0606 0.0000 0.0000 1736.1507 -7535.4220 295.5585 -9271.5727 -7524.8521 301.9188 -347.7835 -295.6172 30570.8091 -58.7493 -6.0964
ENERGY: 1200000 2.0740 3.7472 2.4267 0.0000 -10633.9745 1408.3424 0.0000 0.0000 1710.7561 -7506.6281 291.2353 -9217.3842 -7513.7928 300.7170 242.8570 189.0311 30169.3519 -70.9222 -23.4978
ENERGY: 1500000 1.1046 4.1257 0.2322 0.0000 -10619.2695 1393.0228 0.0000 0.0000 1827.0853 -7393.6989 311.0389 -9220.7841 -7503.2140 301.2975 -74.0012 -37.3972 30505.4022 -76.5576 -32.6888
TCL: Running FEP window   2: Lambda1 0.95   Lambda2 0.8999999999999999 [dLambda -0.050000000000000044]
TCL: Setting parameter firsttimestep to 0
TCL: Setting parameter alchLambda to 0.95
Info: NONBONDED TABLE R-SQUARED SPACING: 0.0625
Info: NONBONDED TABLE SIZE: 705 POINTS
TCL: Setting parameter alchLambda2 to 0.8999999999999999
Info: NONBONDED TABLE R-SQUARED SPACING: 0.0625
Info: NONBONDED TABLE SIZE: 705 POINTS
TCL: Running for 1500000 steps
ETITLE: TS BOND ANGLE DIHED IMPRP ELECT VDW BOUNDARY MISC KINETIC TOTAL TEMP POTENTIAL TOTALAVG TEMPAVG PRESSURE GPRESSURE VOLUME PRESSAVG GPRESSAVG
ENERGY: 0 1.1046 4.1257 0.2322 0.0000 -10618.6977 1393.2650 0.0000 0.0000 1826.1748 -7393.7953 310.8840 -9219.9702 -7393.7953 310.8840 -129.8656 -44.6466 30505.4022 -129.8656 -44.6466
ENERGY: 300000 2.2501 3.7053 1.2705 0.0000 -10699.6120 1462.7356 0.0000 0.0000 1741.8665 -7487.7841 296.5315 -9229.6506 -7454.0578 306.1163 191.3922 306.8160 30495.4614 108.6644 192.1087
ENERGY: 600000 2.0527 2.8071 0.0771 0.0000 -10742.5428 1442.5170 0.0000 0.0000 1775.6491 -7519.4398 302.2826 -9295.0889 -7492.4348 304.3874 58.3461 109.0116 30226.0798 -143.6185 -70.5267
ENERGY: 900000 2.8300 6.3521 2.2947 0.0000 -10767.9927 1490.7336 0.0000 0.0000 1761.7872 -7503.9951 299.9227 -9265.7823 -7508.4913 302.8492 226.1459 252.7270 30609.9079 -176.7007 -104.2849
ENERGY: 1200000 2.4747 5.8037 0.3196 0.0000 -10737.9120 1376.0903 0.0000 0.0000 1750.7747 -7602.4491 298.0480 -9353.2237 -7513.3109 301.5214 -460.1663 -374.9678 29986.6691 -229.5290 -154.9818
ENERGY: 1500000 1.3759 4.0381 0.6889 0.0000 -10740.0621 1478.2440 0.0000 0.0000 1783.6105 -7472.1047 303.6379 -9255.7152 -7514.1728 301.2466 199.8046 263.3804 30578.4067 -239.6529 -169.8300
TCL: Running FEP window   3: Lambda1 0.8999999999999999 Lambda2 0.8499999999999999 [dLambda -0.050000000000000044]
TCL: Setting parameter firsttimestep to 0
TCL: Setting parameter alchLambda to 0.8999999999999999
Info: NONBONDED TABLE R-SQUARED SPACING: 0.0625
Info: NONBONDED TABLE SIZE: 705 POINTS
TCL: Setting parameter alchLambda2 to 0.8499999999999999
Info: NONBONDED TABLE R-SQUARED SPACING: 0.0625
Info: NONBONDED TABLE SIZE: 705 POINTS
TCL: Running for 1500000 steps
ETITLE: TS BOND ANGLE DIHED IMPRP ELECT VDW BOUNDARY MISC KINETIC TOTAL TEMP POTENTIAL TOTALAVG TEMPAVG PRESSURE GPRESSURE VOLUME PRESSAVG GPRESSAVG
ENERGY: 0 1.3759 4.0381 0.6889 0.0000 -10739.6620 1478.4856 0.0000 0.0000 1782.7407 -7472.3327 303.4898 -9255.0735 -7472.3327 303.4898 183.8591 256.2348 30578.4067 183.8591 256.2348
ENERGY: 300000 1.7567 4.3163 0.9079 0.0000 -10742.6212 1462.5628 0.0000 0.0000 1759.5872 -7513.4903 299.5482 -9273.0775 -7496.1554 299.1055 264.8505 238.5765 30536.2943 146.1486 197.1939
ENERGY: 600000 2.8092 3.3721 0.4220 0.0000 -10734.5907 1438.2915 0.0000 0.0000 1740.6283 -7549.0676 296.3207 -9289.6958 -7501.6294 300.0424 -285.9522 -259.3747 30770.9774 34.0682 74.7446
ENERGY: 900000 5.0590 3.6572 0.2051 0.0000 -10616.2639 1367.4612 0.0000 0.0000 1769.4887 -7470.3927 301.2338 -9239.8814 -7505.2453 299.6239 -660.6722 -553.8896 30531.4642 -68.1446 -13.8720
ENERGY: 1200000 1.4082 3.6811 0.2602 0.0000 -10622.0393 1399.2040 0.0000 0.0000 1838.4898 -7378.9960 312.9804 -9217.4858 -7491.7437 300.4286 -145.8529 -112.2595 30591.0844 -77.5675 -23.0288
ENERGY: 1500000 1.3681 3.8877 1.4672 0.0000 -10819.6674 1478.0286 0.0000 0.0000 1797.3143 -7537.6015 305.9708 -9334.9159 -7495.3178 301.2756 379.3848 396.5656 30222.4366 -82.3399 -25.6950
TCL: Running FEP window   4: Lambda1 0.8499999999999999 Lambda2 0.7999999999999998 [dLambda -0.050000000000000044]
TCL: Setting parameter firsttimestep to 0
TCL: Setting parameter alchLambda to 0.8499999999999999
Info: NONBONDED TABLE R-SQUARED SPACING: 0.0625
Info: NONBONDED TABLE SIZE: 705 POINTS
TCL: Setting parameter alchLambda2 to 0.7999999999999998
Info: NONBONDED TABLE R-SQUARED SPACING: 0.0625
Info: NONBONDED TABLE SIZE: 705 POINTS
TCL: Running for 1500000 steps
ETITLE: TS BOND ANGLE DIHED IMPRP ELECT VDW BOUNDARY MISC KINETIC TOTAL TEMP POTENTIAL TOTALAVG TEMPAVG PRESSURE GPRESSURE VOLUME PRESSAVG GPRESSAVG
ENERGY: 0 1.3681 3.8877 1.4672 0.0000 -10819.0533 1478.5654 0.0000 0.0000 1796.4868 -7537.2781 305.8299 -9333.7649 -7537.2781 305.8299 311.9832 395.4275 30222.4366 311.9832 395.4275
ENERGY: 300000 3.2229 3.5242 0.3800 0.0000 -10841.0857 1532.1006 0.0000 0.0000 1739.8648 -7561.9932 296.1907 -9301.8580 -7507.9919 299.0265 485.7479 544.8750 30641.5813 -107.7830 -22.4491
ENERGY: 600000 5.6284 2.2048 1.9628 0.0000 -10544.7266 1349.9583 0.0000 0.0000 1809.1808 -7375.7916 307.9909 -9184.9723 -7467.6312 299.5369 -739.0450 -658.3546 30946.9522 -180.5207 -108.9184
ENERGY: 900000 2.1065 5.0922 0.3881 0.0000 -10649.1305 1402.7190 0.0000 0.0000 1756.6565 -7482.1683 299.0493 -9238.8248 -7472.1450 301.1201 -396.6197 -364.2729 30864.9258 -31.4270 18.1398
ENERGY: 1200000 1.0586 3.6466 1.6816 0.0000 -10757.7853 1432.4599 0.0000 0.0000 1760.2939 -7558.6447 299.6685 -9318.9386 -7483.1909 300.8822 -260.6518 -156.1973 30616.3427 -52.1841 3.0619
ENERGY: 1500000 2.0750 5.0173 0.0888 0.0000 -10775.5039 1465.2199 0.0000 0.0000 1742.0104 -7561.0925 296.5560 -9303.1029 -7475.1969 301.2111 224.4936 324.2053 30321.3950 -69.1222 -15.4444
TCL: Running FEP window   5: Lambda1 0.7999999999999998 Lambda2 0.7499999999999998 [dLambda -0.050000000000000044]
TCL: Setting parameter firsttimestep to 0
TCL: Setting parameter alchLambda to 0.7999999999999998
Info: NONBONDED TABLE R-SQUARED SPACING: 0.0625
Info: NONBONDED TABLE SIZE: 705 POINTS
TCL: Setting parameter alchLambda2 to 0.7499999999999998
Info: NONBONDED TABLE R-SQUARED SPACING: 0.0625
Info: NONBONDED TABLE SIZE: 705 POINTS
TCL: Running for 1500000 steps
ETITLE: TS BOND ANGLE DIHED IMPRP ELECT VDW BOUNDARY MISC KINETIC TOTAL TEMP POTENTIAL TOTALAVG TEMPAVG PRESSURE GPRESSURE VOLUME PRESSAVG GPRESSAVG
ENERGY: 0 2.0750 5.0173 0.0888 0.0000 -10775.2285 1465.5265 0.0000 0.0000 1741.1790 -7561.3419 296.4145 -9302.5209 -7561.3419 296.4145 238.7155 319.3000 30321.3950 238.7155 319.3000
ENERGY: 300000 1.9906 1.9955 0.4883 0.0000 -10817.9506 1474.4591 0.0000 0.0000 1771.3805 -7567.6367 301.5559 -9339.0172 -7543.9769 297.1791 300.7305 374.9457 29712.8299 39.8139 117.3459
ENERGY: 600000 1.4673 7.0975 1.4918 0.0000 -10695.0628 1441.7975 0.0000 0.0000 1781.0443 -7462.1645 303.2010 -9243.2087 -7545.8752 296.4320 -62.8407 -10.1285 30641.7198 -48.1092 20.4515
ENERGY: 900000 1.6454 9.5774 0.7101 0.0000 -10900.2603 1534.1694 0.0000 0.0000 1749.8058 -7604.3521 297.8831 -9354.1579 -7555.4345 296.6649 634.6488 632.4625 29895.4601 106.5563 169.0138
ENERGY: 1200000 4.0700 5.9945 0.6279 0.0000 -10620.7042 1411.1234 0.0000 0.0000 1746.5811 -7452.3073 297.3341 -9198.8884 -7539.1196 296.7720 -228.2775 -132.5904 30464.9767 50.5381 116.8208
ENERGY: 1500000 0.9016 3.9332 2.6725 0.0000 -10675.5314 1425.2024 0.0000 0.0000 1731.9221 -7510.8996 294.8386 -9242.8217 -7523.5559 297.7551 -428.8675 -346.1850 30992.7780 36.3915 101.7621
TCL: Running FEP window   6: Lambda1 0.7499999999999998 Lambda2 0.6999999999999997 [dLambda -0.050000000000000044]
TCL: Setting parameter firsttimestep to 0
TCL: Setting parameter alchLambda to 0.7499999999999998
Info: NONBONDED TABLE R-SQUARED SPACING: 0.0625
Info: NONBONDED TABLE SIZE: 705 POINTS
TCL: Setting parameter alchLambda2 to 0.6999999999999997
Info: NONBONDED TABLE R-SQUARED SPACING: 0.0625
Info: NONBONDED TABLE SIZE: 705 POINTS
TCL: Running for 1500000 steps
ETITLE: TS BOND ANGLE DIHED IMPRP ELECT VDW BOUNDARY MISC KINETIC TOTAL TEMP POTENTIAL TOTALAVG TEMPAVG PRESSURE GPRESSURE VOLUME PRESSAVG GPRESSAVG
ENERGY: 0 0.9016 3.9332 2.6725 0.0000 -10675.0880 1425.1540 0.0000 0.0000 1731.0038 -7511.4230 294.6823 -9242.4268 -7511.4230 294.6823 -439.9334 -355.9816 30992.7780 -439.9334 -355.9816
ENERGY: 300000 2.7046 4.9582 1.7401 0.0000 -10694.6752 1403.5293 0.0000 0.0000 1742.6496 -7539.0935 296.6648 -9281.7431 -7502.2720 301.0368 -144.9415 -102.9081 30181.2829 -444.9756 -379.4754
ENERGY: 600000 1.8608 3.9071 1.4564 0.0000 -10643.0150 1421.8822 0.0000 0.0000 1729.9708 -7483.9377 294.5064 -9213.9085 -7492.9131 298.8676 -107.2099 -39.5330 30582.6284 -318.7048 -250.0900
ENERGY: 900000 2.4651 4.5025 0.6144 0.0000 -10814.2960 1470.4869 0.0000 0.0000 1786.4882 -7549.7388 304.1278 -9336.2270 -7502.6897 299.4521 128.0001 194.7210 30397.4882 -365.4319 -304.2430
ENERGY: 1200000 2.1417 2.7359 0.3161 0.0000 -10588.1490 1375.3509 0.0000 0.0000 1748.1293 -7459.4751 297.5977 -9207.6044 -7504.8928 299.6356 -318.7432 -308.7210 30527.0792 -251.9120 -194.4897
ENERGY: 1500000 1.6594 3.7839 0.7212 0.0000 -10784.8026 1475.4146 0.0000 0.0000 1763.9336 -7539.2899 300.2881 -9303.2234 -7497.6901 300.2742 274.0371 325.3756 30214.5334 -144.3571 -87.3440
TCL: Running FEP window   7: Lambda1 0.6999999999999997 Lambda2 0.6499999999999997 [dLambda -0.050000000000000044]
TCL: Setting parameter firsttimestep to 0
TCL: Setting parameter alchLambda to 0.6999999999999997
Info: NONBONDED TABLE R-SQUARED SPACING: 0.0625
Info: NONBONDED TABLE SIZE: 705 POINTS
TCL: Setting parameter alchLambda2 to 0.6499999999999997
Info: NONBONDED TABLE R-SQUARED SPACING: 0.0625
Info: NONBONDED TABLE SIZE: 705 POINTS
TCL: Running for 1500000 steps
ETITLE: TS BOND ANGLE DIHED IMPRP ELECT VDW BOUNDARY MISC KINETIC TOTAL TEMP POTENTIAL TOTALAVG TEMPAVG PRESSURE GPRESSURE VOLUME PRESSAVG GPRESSAVG
ENERGY: 0 1.6594 3.7839 0.7212 0.0000 -10784.6441 1475.6035 0.0000 0.0000 1763.0573 -7539.8188 300.1390 -9302.8761 -7539.8188 300.1390 248.0936 323.8952 30214.5334 248.0936 323.8952
ENERGY: 300000 1.1465 5.2191 3.2267 0.0000 -10723.7856 1415.2542 0.0000 0.0000 1753.9632 -7544.9759 298.5908 -9298.9391 -7525.3187 303.1107 -279.9118 -218.9081 30388.8430 -130.4004 -68.2655
ENERGY: 600000 1.6377 6.0561 0.1340 0.0000 -10532.0325 1341.7799 0.0000 0.0000 1776.7373 -7405.6876 302.4678 -9182.4248 -7511.8518 302.5716 -770.0154 -702.7847 30936.6522 -137.4311 -69.7191
ENERGY: 900000 2.6748 6.7740 1.0960 0.0000 -10741.0105 1499.8574 0.0000 0.0000 1699.6622 -7530.9462 289.3467 -9230.6083 -7509.0625 301.3659 285.7688 358.9438 30850.8585 -6.3192 55.8076
ENERGY: 1200000 4.6926 5.1761 0.1454 0.0000 -10802.2986 1480.5106 0.0000 0.0000 1749.7145 -7562.0594 297.8675 -9311.7740 -7509.0765 301.3965 -79.7392 -10.4542 30448.8856 -8.9404 44.3206
ENERGY: 1500000 1.6845 6.9806 0.1457 0.0000 -10663.5422 1364.8267 0.0000 0.0000 1757.0563 -7532.8483 299.1174 -9289.9047 -7509.3937 301.2848 -1036.3727 -924.5985 30705.5083 -112.5188 -50.5254
TCL: Running FEP window   8: Lambda1 0.6499999999999997 Lambda2 0.5999999999999996 [dLambda -0.050000000000000044]
TCL: Setting parameter firsttimestep to 0
TCL: Setting parameter alchLambda to 0.6499999999999997
Info: NONBONDED TABLE R-SQUARED SPACING: 0.0625
Info: NONBONDED TABLE SIZE: 705 POINTS
TCL: Setting parameter alchLambda2 to 0.5999999999999996
Info: NONBONDED TABLE R-SQUARED SPACING: 0.0625
Info: NONBONDED TABLE SIZE: 705 POINTS
TCL: Running for 1500000 steps
ETITLE: TS BOND ANGLE DIHED IMPRP ELECT VDW BOUNDARY MISC KINETIC TOTAL TEMP POTENTIAL TOTALAVG TEMPAVG PRESSURE GPRESSURE VOLUME PRESSAVG GPRESSAVG
ENERGY: 0 1.6845 6.9806 0.1457 0.0000 -10663.0795 1365.2989 0.0000 0.0000 1756.1797 -7532.7901 298.9681 -9288.9698 -7532.7901 298.9681 -1010.0482 -924.4747 30705.5083 -1010.0482 -924.4747
ENERGY: 300000 3.2698 4.9567 0.4306 0.0000 -10716.0454 1434.3510 0.0000 0.0000 1803.9767 -7469.0606 307.1050 -9273.0373 -7508.0104 299.7731 136.3497 171.9919 30060.9164 -381.3073 -331.6880
ENERGY: 600000 2.0096 3.0530 0.3719 0.0000 -10626.5738 1409.3022 0.0000 0.0000 1749.8497 -7461.9875 297.8905 -9211.8372 -7490.7948 299.5302 10.4875 89.6583 30167.1781 -186.4806 -127.3551
ENERGY: 900000 4.8553 6.0195 0.1673 0.0000 -10576.3375 1376.9661 0.0000 0.0000 1764.7891 -7423.5402 300.4338 -9188.3293 -7495.6851 299.2776 -407.6615 -323.3332 30648.9180 -161.0129 -97.5870
ENERGY: 1200000 0.8348 4.9614 0.2288 0.0000 -10732.5217 1447.0709 0.0000 0.0000 1800.1804 -7479.2453 306.4587 -9279.4258 -7496.0128 299.5937 128.8455 222.9639 30144.4749 -100.2561 -41.6697
ENERGY: 1500000 1.9466 5.6752 1.7973 0.0000 -10676.5984 1414.6043 0.0000 0.0000 1796.5884 -7455.9865 305.8472 -9252.5750 -7490.7200 300.1560 -186.9879 -142.8686 30710.2777 -111.1359 -53.2402
TCL: Running FEP window   9: Lambda1 0.5999999999999996 Lambda2 0.5499999999999996 [dLambda -0.050000000000000044]
TCL: Setting parameter firsttimestep to 0
TCL: Setting parameter alchLambda to 0.5999999999999996
Info: NONBONDED TABLE R-SQUARED SPACING: 0.0625
Info: NONBONDED TABLE SIZE: 705 POINTS
TCL: Setting parameter alchLambda2 to 0.5499999999999996
Info: NONBONDED TABLE R-SQUARED SPACING: 0.0625
Info: NONBONDED TABLE SIZE: 705 POINTS
TCL: Running for 1500000 steps
ETITLE: TS BOND ANGLE DIHED IMPRP ELECT VDW BOUNDARY MISC KINETIC TOTAL TEMP POTENTIAL TOTALAVG TEMPAVG PRESSURE GPRESSURE VOLUME PRESSAVG GPRESSAVG
ENERGY: 0 1.9466 5.6752 1.7973 0.0000 -10676.0847 1415.0659 0.0000 0.0000 1795.7173 -7455.8823 305.6989 -9251.5997 -7455.8823 305.6989 -213.5001 -149.3878 30710.2777 -213.5001 -149.3878
ENERGY: 300000 1.2576 3.5748 0.6026 0.0000 -10683.6573 1476.7947 0.0000 0.0000 1751.6094 -7449.8183 298.1901 -9201.4277 -7475.0704 301.1569 531.0221 582.8031 30208.0287 144.5967 196.8394
ENERGY: 600000 2.9785 6.0229 0.2947 0.0000 -10554.2706 1364.1715 0.0000 0.0000 1785.7167 -7395.0863 303.9965 -9180.8030 -7482.0123 300.2518 -407.2109 -324.3433 30718.2294 117.2935 165.6201
ENERGY: 900000 1.8095 6.7601 0.4170 0.0000 -10805.2650 1518.4188 0.0000 0.0000 1710.8128 -7567.0468 291.2450 -9277.8596 -7495.8038 300.2874 648.3621 689.7115 30045.5507 131.6528 189.0948
ENERGY: 1200000 1.1952 2.9957 0.3508 0.0000 -10684.4229 1384.6533 0.0000 0.0000 1814.4673 -7480.7608 308.8909 -9295.2280 -7479.9233 301.6486 -425.1253 -380.5107 30209.1163 86.0731 146.9064
ENERGY: 1500000 0.7839 3.6342 0.1684 0.0000 -10697.8024 1468.4222 0.0000 0.0000 1720.8009 -7503.9927 292.9453 -9224.7936 -7486.3582 300.7627 258.3683 317.0699 30416.6925 121.8498 174.0967
TCL: Running FEP window  10: Lambda1 0.5499999999999996 Lambda2 0.4999999999999996 [dLambda -0.04999999999999999]
TCL: Setting parameter firsttimestep to 0
TCL: Setting parameter alchLambda to 0.5499999999999996
Info: NONBONDED TABLE R-SQUARED SPACING: 0.0625
Info: NONBONDED TABLE SIZE: 705 POINTS
TCL: Setting parameter alchLambda2 to 0.4999999999999996
Info: NONBONDED TABLE R-SQUARED SPACING: 0.0625
Info: NONBONDED TABLE SIZE: 705 POINTS
TCL: Running for 1500000 steps
ETITLE: TS BOND ANGLE DIHED IMPRP ELECT VDW BOUNDARY MISC KINETIC TOTAL TEMP POTENTIAL TOTALAVG TEMPAVG PRESSURE GPRESSURE VOLUME PRESSAVG GPRESSAVG
ENERGY: 0 0.7839 3.6342 0.1684 0.0000 -10697.6850 1468.4306 0.0000 0.0000 1719.9445 -7504.7234 292.7995 -9224.6679 -7504.7234 292.7995 212.6789 311.3097 30416.6925 212.6789 311.3097
ENERGY: 300000 1.3917 6.3008 0.7778 0.0000 -10662.5937 1401.0488 0.0000 0.0000 1721.0109 -7532.0636 292.9811 -9253.0745 -7480.8871 297.5200 -672.2909 -628.9086 30913.1384 -160.1856 -97.5927
ENERGY: 600000 1.3528 6.3457 0.2609 0.0000 -10487.6650 1285.7523 0.0000 0.0000 1741.8870 -7452.0663 296.5350 -9193.9533 -7472.7545 296.3500 -1286.1546 -1201.1879 31156.7581 -407.3047 -340.6293
ENERGY: 900000 2.2571 7.3663 0.1885 0.0000 -10657.6052 1439.0149 0.0000 0.0000 1811.3339 -7397.4444 308.3575 -9208.7783 -7482.4822 298.0060 149.1707 113.7119 30514.5603 -232.1176 -180.3177
ENERGY: 1200000 1.2788 5.6878 0.7926 0.0000 -10811.7201 1495.4293 0.0000 0.0000 1758.6608 -7549.8708 299.3905 -9308.5316 -7491.7739 298.3270 214.3385 329.9172 30564.3212 -229.0018 -180.9154
ENERGY: 1500000 0.9664 5.7305 0.8574 0.0000 -10733.9261 1408.4547 0.0000 0.0000 1689.1933 -7628.7239 287.5645 -9317.9171 -7509.2693 296.7370 -524.7414 -454.0070 30410.7761 -151.1559 -101.9017
TCL: Running FEP window  11: Lambda1 0.4999999999999996 Lambda2 0.4499999999999996 [dLambda -0.04999999999999999]
TCL: Setting parameter firsttimestep to 0
TCL: Setting parameter alchLambda to 0.4999999999999996
Info: NONBONDED TABLE R-SQUARED SPACING: 0.0625
Info: NONBONDED TABLE SIZE: 705 POINTS
TCL: Setting parameter alchLambda2 to 0.4499999999999996
Info: NONBONDED TABLE R-SQUARED SPACING: 0.0625
Info: NONBONDED TABLE SIZE: 705 POINTS
TCL: Running for 1500000 steps
ETITLE: TS BOND ANGLE DIHED IMPRP ELECT VDW BOUNDARY MISC KINETIC TOTAL TEMP POTENTIAL TOTALAVG TEMPAVG PRESSURE GPRESSURE VOLUME PRESSAVG GPRESSAVG
ENERGY: 0 0.9664 5.7305 0.8574 0.0000 -10734.1790 1409.0346 0.0000 0.0000 1688.3130 -7629.2770 287.4147 -9317.5901 -7629.2770 287.4147 -554.4464 -454.8566 30410.7761 -554.4464 -454.8566
ENERGY: 300000 1.1537 4.0173 1.3777 0.0000 -10669.5684 1409.6613 0.0000 0.0000 1760.8850 -7492.4734 299.7692 -9253.3584 -7533.2818 296.4715 22.8160 -7.9367 30343.7164 32.8668 78.5634
ENERGY: 600000 2.5133 4.1197 0.3836 0.0000 -10639.4894 1397.6594 0.0000 0.0000 1800.2849 -7434.5286 306.4765 -9234.8135 -7504.4010 300.8461 -156.9037 -81.8689 30027.7846 -87.2966 -38.4498
ENERGY: 900000 5.5125 5.0949 0.2744 0.0000 -10736.9709 1437.6104 0.0000 0.0000 1743.5039 -7544.9748 296.8102 -9288.4786 -7506.6754 300.8362 -128.4663 -64.3974 30094.4413 -46.6507 16.1991
ENERGY: 1200000 0.5834 3.6360 0.7725 0.0000 -10611.9749 1386.5508 0.0000 0.0000 1784.1311 -7436.3011 303.7265 -9220.4322 -7500.4156 300.5945 -403.8711 -317.8932 30633.5857 -17.5011 48.5189
ENERGY: 1500000 2.2500 3.9180 0.1140 0.0000 -10821.2331 1531.9144 0.0000 0.0000 1715.7659 -7567.2709 292.0882 -9283.0368 -7508.8237 299.7920 828.8169 876.9715 29955.4215 47.7437 118.4808
TCL: Running FEP window  12: Lambda1 0.4499999999999996 Lambda2 0.39999999999999963 [dLambda -0.04999999999999999]
TCL: Setting parameter firsttimestep to 0
TCL: Setting parameter alchLambda to 0.4499999999999996
Info: NONBONDED TABLE R-SQUARED SPACING: 0.0625
Info: NONBONDED TABLE SIZE: 705 POINTS
TCL: Setting parameter alchLambda2 to 0.39999999999999963
Info: NONBONDED TABLE R-SQUARED SPACING: 0.0625
Info: NONBONDED TABLE SIZE: 705 POINTS
TCL: Running for 1500000 steps
ETITLE: TS BOND ANGLE DIHED IMPRP ELECT VDW BOUNDARY MISC KINETIC TOTAL TEMP POTENTIAL TOTALAVG TEMPAVG PRESSURE GPRESSURE VOLUME PRESSAVG GPRESSAVG
ENERGY: 0 2.2500 3.9180 0.1140 0.0000 -10821.2316 1532.3123 0.0000 0.0000 1714.8699 -7567.7673 291.9357 -9282.6373 -7567.7673 291.9357 796.2153 877.5937 29955.4215 796.2153 877.5937
ENERGY: 300000 1.1057 6.3655 1.3864 0.0000 -10658.6567 1424.8960 0.0000 0.0000 1807.7508 -7417.1523 307.7475 -9224.9031 -7458.1164 302.7998 29.3432 36.2121 30488.0788 247.2238 330.9264
ENERGY: 600000 0.8111 5.6869 0.8115 0.0000 -10709.7909 1401.7108 0.0000 0.0000 1808.8471 -7491.9234 307.9341 -9300.7705 -7494.4179 300.7174 -554.1158 -463.2023 30521.3342 43.8981 123.0734
ENERGY: 900000 3.9836 4.0820 1.8139 0.0000 -10789.2588 1481.9884 0.0000 0.0000 1734.6997 -7562.6912 295.3114 -9297.3909 -7503.4511 298.8497 191.5472 245.1106 30390.8604 -9.5504 66.7001
ENERGY: 1200000 2.2880 5.1164 0.2893 0.0000 -10594.5825 1398.7989 0.0000 0.0000 1741.8172 -7446.2726 296.5231 -9188.0898 -7498.7553 298.8380 -209.8903 -148.9907 30360.5473 -72.5514 -5.4880
ENERGY: 1500000 2.6847 3.2580 0.4331 0.0000 -10575.8573 1350.6398 0.0000 0.0000 1826.7366 -7392.1051 310.9796 -9218.8417 -7488.3360 299.8134 -581.1699 -505.7074 30280.0230 -123.5770 -56.3684
TCL: Running FEP window  13: Lambda1 0.39999999999999963 Lambda2 0.34999999999999964 [dLambda -0.04999999999999999]
TCL: Setting parameter firsttimestep to 0
TCL: Setting parameter alchLambda to 0.39999999999999963
Info: NONBONDED TABLE R-SQUARED SPACING: 0.0625
Info: NONBONDED TABLE SIZE: 705 POINTS
TCL: Setting parameter alchLambda2 to 0.34999999999999964
Info: NONBONDED TABLE R-SQUARED SPACING: 0.0625
Info: NONBONDED TABLE SIZE: 705 POINTS
TCL: Running for 1500000 steps
ETITLE: TS BOND ANGLE DIHED IMPRP ELECT VDW BOUNDARY MISC KINETIC TOTAL TEMP POTENTIAL TOTALAVG TEMPAVG PRESSURE GPRESSURE VOLUME PRESSAVG GPRESSAVG
ENERGY: 0 2.6847 3.2580 0.4331 0.0000 -10575.8595 1351.2073 0.0000 0.0000 1825.8397 -7392.4367 310.8269 -9218.2764 -7392.4367 310.8269 -591.8123 -508.6691 30280.0230 -591.8123 -508.6691
ENERGY: 300000 0.3415 4.7448 0.5317 0.0000 -10844.9692 1540.8005 0.0000 0.0000 1762.4600 -7536.0906 300.0373 -9298.5507 -7495.2189 299.7976 749.7138 842.5455 29921.0312 -160.0476 -75.8685
ENERGY: 600000 3.0345 5.0613 0.5783 0.0000 -10646.9920 1408.3863 0.0000 0.0000 1802.7371 -7427.1945 306.8940 -9229.9316 -7475.1359 300.9307 -523.4484 -440.4027 30834.9820 -81.8568 -11.0632
ENERGY: 900000 2.2430 6.0018 0.7420 0.0000 -10487.9179 1319.2929 0.0000 0.0000 1780.5775 -7379.0606 303.1216 -9159.6381 -7462.6334 301.8403 -809.9078 -730.7000 30995.2915 -146.5672 -84.5497
ENERGY: 1200000 2.5023 4.9850 0.3661 0.0000 -10887.4660 1566.4819 0.0000 0.0000 1808.0935 -7505.0371 307.8058 -9313.1306 -7457.8648 302.8551 507.9803 576.6547 30767.3939 23.0256 84.0369
ENERGY: 1500000 0.6138 3.8623 1.7764 0.0000 -10645.3122 1402.2752 0.0000 0.0000 1781.9784 -7454.8060 303.3600 -9236.7844 -7461.6486 302.4738 -228.9926 -90.6010 30270.0378 13.4780 80.4101
TCL: Running FEP window  14: Lambda1 0.34999999999999964 Lambda2 0.29999999999999966 [dLambda -0.04999999999999999]
TCL: Setting parameter firsttimestep to 0
TCL: Setting parameter alchLambda to 0.34999999999999964
Info: NONBONDED TABLE R-SQUARED SPACING: 0.0625
Info: NONBONDED TABLE SIZE: 705 POINTS
TCL: Setting parameter alchLambda2 to 0.29999999999999966
Info: NONBONDED TABLE R-SQUARED SPACING: 0.0625
Info: NONBONDED TABLE SIZE: 705 POINTS
TCL: Running for 1500000 steps
ETITLE: TS BOND ANGLE DIHED IMPRP ELECT VDW BOUNDARY MISC KINETIC TOTAL TEMP POTENTIAL TOTALAVG TEMPAVG PRESSURE GPRESSURE VOLUME PRESSAVG GPRESSAVG
ENERGY: 0 0.6138 3.8623 1.7764 0.0000 -10645.3113 1402.1735 0.0000 0.0000 1781.0714 -7455.8138 303.2057 -9236.8852 -7455.8138 303.2057 -187.6031 -99.1773 30270.0378 -187.6031 -99.1773
ENERGY: 300000 2.9484 5.5970 1.1301 0.0000 -10717.1057 1449.0896 0.0000 0.0000 1737.5410 -7520.7996 295.7951 -9258.3406 -7469.0230 300.8493 23.8042 88.9960 30155.7217 323.7458 367.6765
ENERGY: 600000 4.1720 5.7745 0.8816 0.0000 -10775.9536 1482.0109 0.0000 0.0000 1741.7590 -7541.3557 296.5132 -9283.1147 -7482.0103 299.7965 417.0445 460.1284 30167.9083 164.8593 205.7103
ENERGY: 900000 3.0517 5.1008 0.3157 0.0000 -10659.2601 1463.9986 0.0000 0.0000 1769.2173 -7417.5759 301.1876 -9186.7932 -7488.4716 299.0482 515.3462 527.9463 30286.7868 211.9805 255.4333
ENERGY: 1200000 0.2088 4.0966 0.7867 0.0000 -10587.1016 1358.7285 0.0000 0.0000 1780.1643 -7443.1169 303.0512 -9223.2812 -7472.1043 299.5954 -548.2750 -566.2770 30630.6671 67.8736 117.1094
ENERGY: 1500000 2.6378 3.2288 2.5147 0.0000 -10843.2118 1488.2740 0.0000 0.0000 1799.8663 -7546.6901 306.4052 -9346.5564 -7470.0907 300.4642 21.3818 148.1484 30104.0913 56.9640 112.0519
TCL: Running FEP window  15: Lambda1 0.29999999999999966 Lambda2 0.24999999999999967 [dLambda -0.04999999999999999]
TCL: Setting parameter firsttimestep to 0
TCL: Setting parameter alchLambda to 0.29999999999999966
Info: NONBONDED TABLE R-SQUARED SPACING: 0.0625
Info: NONBONDED TABLE SIZE: 705 POINTS
TCL: Setting parameter alchLambda2 to 0.24999999999999967
Info: NONBONDED TABLE R-SQUARED SPACING: 0.0625
Info: NONBONDED TABLE SIZE: 705 POINTS
TCL: Running for 1500000 steps
ETITLE: TS BOND ANGLE DIHED IMPRP ELECT VDW BOUNDARY MISC KINETIC TOTAL TEMP POTENTIAL TOTALAVG TEMPAVG PRESSURE GPRESSURE VOLUME PRESSAVG GPRESSAVG
ENERGY: 0 2.6378 3.2288 2.5147 0.0000 -10843.2121 1487.7895 0.0000 0.0000 1798.9580 -7548.0832 306.2506 -9347.0413 -7548.0832 306.2506 54.7377 144.6087 30104.0913 54.7377 144.6087
ENERGY: 300000 3.5422 7.6252 0.5051 0.0000 -10692.4943 1417.5073 0.0000 0.0000 1720.1846 -7543.1299 292.8404 -9263.3145 -7479.4563 304.0061 -479.7838 -452.0431 30765.8711 79.4941 119.6388
ENERGY: 600000 1.9610 6.5106 0.4827 0.0000 -10751.5196 1448.6445 0.0000 0.0000 1747.8758 -7546.0450 297.5545 -9293.9208 -7491.8752 302.3214 -120.4708 27.9419 30131.2269 -63.7874 18.5552
ENERGY: 900000 2.0671 1.7750 0.1499 0.0000 -10777.4366 1420.0826 0.0000 0.0000 1821.2384 -7532.1236 310.0436 -9353.3620 -7495.4922 302.9701 -388.5463 -308.3029 30263.0878 -36.3555 38.3935
ENERGY: 1200000 2.9046 6.4229 0.3659 0.0000 -10703.0233 1418.0384 0.0000 0.0000 1788.5215 -7486.7701 304.4739 -9275.2916 -7493.8001 302.1169 -423.2899 -349.3602 30545.5063 -130.8933 -62.4909
ENERGY: 1500000 2.8853 4.2563 2.4386 0.0000 -10672.6529 1432.3361 0.0000 0.0000 1808.1162 -7422.6205 307.8097 -9230.7366 -7490.9724 302.1522 60.3994 106.1723 30306.9610 -44.5292 23.7059
TCL: Running FEP window  16: Lambda1 0.24999999999999967 Lambda2 0.19999999999999968 [dLambda -0.04999999999999999]
TCL: Setting parameter firsttimestep to 0
TCL: Setting parameter alchLambda to 0.24999999999999967
Info: NONBONDED TABLE R-SQUARED SPACING: 0.0625
Info: NONBONDED TABLE SIZE: 705 POINTS
TCL: Setting parameter alchLambda2 to 0.19999999999999968
Info: NONBONDED TABLE R-SQUARED SPACING: 0.0625
Info: NONBONDED TABLE SIZE: 705 POINTS
TCL: Running for 1500000 steps
ETITLE: TS BOND ANGLE DIHED IMPRP ELECT VDW BOUNDARY MISC KINETIC TOTAL TEMP POTENTIAL TOTALAVG TEMPAVG PRESSURE GPRESSURE VOLUME PRESSAVG GPRESSAVG
ENERGY: 0 2.8853 4.2563 2.4386 0.0000 -10672.6510 1431.8316 0.0000 0.0000 1807.2469 -7423.9924 307.6617 -9231.2392 -7423.9924 307.6617 9.9868 98.1172 30306.9610 9.9868 98.1172
ENERGY: 300000 0.7916 6.6879 0.6659 0.0000 -10711.7919 1433.2735 0.0000 0.0000 1831.9514 -7438.4216 311.8673 -9270.3730 -7447.5770 305.5115 -218.4797 -125.6734 30421.0885 86.5223 148.6265
ENERGY: 600000 0.3286 4.3040 0.5365 0.0000 -10658.2289 1350.0276 0.0000 0.0000 1803.6316 -7499.4006 307.0462 -9303.0322 -7466.6794 305.6698 -556.5264 -495.2872 30000.0767 -26.0938 24.2982
ENERGY: 900000 2.5007 7.1779 0.5844 0.0000 -10747.2797 1498.4533 0.0000 0.0000 1767.0164 -7471.5469 300.8130 -9238.5633 -7476.4914 303.4461 642.4811 716.5544 30080.1690 33.0209 84.4682
ENERGY: 1200000 2.2144 3.5339 1.0359 0.0000 -10671.2643 1422.9370 0.0000 0.0000 1772.3157 -7469.2275 301.7151 -9241.5431 -7486.7605 301.8500 -88.0947 -41.1615 30399.6730 -26.9666 28.2661
ENERGY: 1500000 0.5760 4.9709 0.2441 0.0000 -10812.0180 1451.3924 0.0000 0.0000 1689.3037 -7665.5308 287.5833 -9354.8345 -7496.0786 300.5950 -45.1895 3.1022 29748.2635 -23.9253 25.9593
TCL: Running FEP window  17: Lambda1 0.19999999999999968 Lambda2 0.1499999999999997 [dLambda -0.04999999999999999]
TCL: Setting parameter firsttimestep to 0
TCL: Setting parameter alchLambda to 0.19999999999999968
Info: NONBONDED TABLE R-SQUARED SPACING: 0.0625
Info: NONBONDED TABLE SIZE: 705 POINTS
TCL: Setting parameter alchLambda2 to 0.1499999999999997
Info: NONBONDED TABLE R-SQUARED SPACING: 0.0625
Info: NONBONDED TABLE SIZE: 705 POINTS
TCL: Running for 1500000 steps
ETITLE: TS BOND ANGLE DIHED IMPRP ELECT VDW BOUNDARY MISC KINETIC TOTAL TEMP POTENTIAL TOTALAVG TEMPAVG PRESSURE GPRESSURE VOLUME PRESSAVG GPRESSAVG
ENERGY: 0 0.5760 4.9709 0.2441 0.0000 -10812.0175 1450.9721 0.0000 0.0000 1688.4362 -7666.8181 287.4356 -9355.2543 -7666.8181 287.4356 -79.8313 -4.4838 29748.2635 -79.8313 -4.4838
ENERGY: 300000 1.4172 2.4177 0.7246 0.0000 -10612.5636 1379.3876 0.0000 0.0000 1731.9012 -7496.7153 294.8350 -9228.6165 -7554.3658 296.2568 -295.6498 -218.3530 30171.9939 -482.3176 -402.2461
ENERGY: 600000 1.3712 8.4687 0.6286 0.0000 -10940.3412 1548.2033 0.0000 0.0000 1786.0339 -7595.6354 304.0505 -9381.6693 -7547.8169 300.2011 585.7749 653.1220 29822.4959 -193.0788 -122.5502
ENERGY: 900000 1.3877 5.5517 2.6005 0.0000 -10601.0903 1363.0905 0.0000 0.0000 1723.7525 -7504.7074 293.4478 -9228.4599 -7513.4025 300.3653 -656.3502 -621.6845 30477.8711 -272.2357 -216.7789
ENERGY: 1200000 1.1342 4.9030 1.2435 0.0000 -10577.8681 1352.1541 0.0000 0.0000 1751.8495 -7466.5839 298.2310 -9218.4334 -7504.4756 299.7320 -757.8681 -734.5265 30647.4045 -323.9504 -265.0602
ENERGY: 1500000 0.8251 6.6688 0.5633 0.0000 -10576.5517 1337.2724 0.0000 0.0000 1818.7652 -7412.4570 309.6226 -9231.2222 -7498.1802 300.5400 -926.2247 -799.3025 30651.2806 -316.4411 -247.5020
TCL: Running FEP window  18: Lambda1 0.1499999999999997 Lambda2 0.09999999999999969 [dLambda -0.05 ]
TCL: Setting parameter firsttimestep to 0
TCL: Setting parameter alchLambda to 0.1499999999999997
Info: NONBONDED TABLE R-SQUARED SPACING: 0.0625
Info: NONBONDED TABLE SIZE: 705 POINTS
TCL: Setting parameter alchLambda2 to 0.09999999999999969
Info: NONBONDED TABLE R-SQUARED SPACING: 0.0625
Info: NONBONDED TABLE SIZE: 705 POINTS
TCL: Running for 1500000 steps
ETITLE: TS BOND ANGLE DIHED IMPRP ELECT VDW BOUNDARY MISC KINETIC TOTAL TEMP POTENTIAL TOTALAVG TEMPAVG PRESSURE GPRESSURE VOLUME PRESSAVG GPRESSAVG
ENERGY: 0 0.8251 6.6688 0.5633 0.0000 -10576.5514 1337.6164 0.0000 0.0000 1817.8466 -7413.0312 309.4662 -9230.8778 -7413.0312 309.4662 -886.4598 -801.9530 30651.2806 -886.4598 -801.9530
ENERGY: 300000 3.5765 3.7572 0.5005 0.0000 -10798.7433 1499.7156 0.0000 0.0000 1767.4241 -7523.7693 300.8824 -9291.1934 -7475.4061 303.0470 281.2412 373.6820 30148.7701 -263.1460 -201.6151
ENERGY: 600000 0.9177 4.9255 0.2316 0.0000 -10751.9715 1482.6619 0.0000 0.0000 1735.6134 -7527.6214 295.4670 -9263.2348 -7488.5046 301.2494 124.3383 180.3805 30340.4556 -168.6701 -100.3348
ENERGY: 900000 2.3638 2.7561 1.2195 0.0000 -10658.4799 1449.3949 0.0000 0.0000 1742.4378 -7460.3078 296.6287 -9202.7456 -7490.7729 299.8688 247.2013 342.7106 30320.5880 -58.8135 6.2546
ENERGY: 1200000 2.3483 3.7392 0.7114 0.0000 -10659.4972 1400.4544 0.0000 0.0000 1793.3424 -7458.9015 305.2946 -9252.2439 -7490.9837 299.3030 -152.5108 -93.3548 29897.6071 -61.7858 -0.5587
ENERGY: 1500000 1.3243 6.2370 1.1139 0.0000 -10530.1422 1362.2388 0.0000 0.0000 1819.7311 -7339.4970 309.7870 -9159.2281 -7480.4988 300.0058 -377.5615 -309.7024 30371.2111 -77.4596 -19.0812
TCL: Running FEP window  19: Lambda1 0.09999999999999969 Lambda2 0.049999999999999684 [dLambda -0.05 ]
TCL: Setting parameter firsttimestep to 0
TCL: Setting parameter alchLambda to 0.09999999999999969
Info: NONBONDED TABLE R-SQUARED SPACING: 0.0625
Info: NONBONDED TABLE SIZE: 705 POINTS
TCL: Setting parameter alchLambda2 to 0.049999999999999684
Info: NONBONDED TABLE R-SQUARED SPACING: 0.0625
Info: NONBONDED TABLE SIZE: 705 POINTS
TCL: Running for 1500000 steps
ETITLE: TS BOND ANGLE DIHED IMPRP ELECT VDW BOUNDARY MISC KINETIC TOTAL TEMP POTENTIAL TOTALAVG TEMPAVG PRESSURE GPRESSURE VOLUME PRESSAVG GPRESSAVG
ENERGY: 0 1.3243 6.2370 1.1139 0.0000 -10530.1430 1362.1732 0.0000 0.0000 1818.8748 -7340.4198 309.6412 -9159.2946 -7340.4198 309.6412 -375.9229 -310.8607 30371.2111 -375.9229 -310.8607
ENERGY: 300000 0.9947 3.0891 0.4393 0.0000 -10777.5106 1471.1637 0.0000 0.0000 1743.3356 -7558.4882 296.7816 -9301.8238 -7468.6624 302.5753 344.7365 423.1178 29765.7761 -235.4847 -160.3739
ENERGY: 600000 0.8595 4.8283 0.6837 0.0000 -10667.3694 1350.7494 0.0000 0.0000 1774.5534 -7535.6951 302.0960 -9310.2485 -7487.0776 300.9021 -742.3348 -624.9309 30137.2375 -408.9429 -315.2101
ENERGY: 900000 2.0167 7.1957 0.2879 0.0000 -10600.5675 1391.4520 0.0000 0.0000 1771.3783 -7428.2368 301.5555 -9199.6151 -7484.0192 301.1266 -495.1354 -438.2963 30809.3327 -425.9327 -345.2176
ENERGY: 1200000 0.8598 2.5402 0.3217 0.0000 -10685.1208 1418.6889 0.0000 0.0000 1801.6384 -7461.0719 306.7069 -9262.7103 -7491.3481 300.7324 -90.0361 -29.7786 30158.6197 -268.2921 -194.6289
ENERGY: 1500000 1.1282 1.4479 0.5655 0.0000 -10822.8011 1537.1370 0.0000 0.0000 1750.5991 -7531.9234 298.0181 -9282.5226 -7495.5001 300.1991 645.2326 694.0995 30295.9308 -130.5483 -63.8298
TCL: Running FEP window  20: Lambda1 0.049999999999999684 Lambda2 0.0    [dLambda -0.049999999999999684]
TCL: Setting parameter firsttimestep to 0
TCL: Setting parameter alchLambda to 0.049999999999999684
Info: NONBONDED TABLE R-SQUARED SPACING: 0.0625
Info: NONBONDED TABLE SIZE: 705 POINTS
TCL: Setting parameter alchLambda2 to 0.0
Info: NONBONDED TABLE R-SQUARED SPACING: 0.0625
Info: NONBONDED TABLE SIZE: 705 POINTS
TCL: Running for 1500000 steps
ETITLE: TS BOND ANGLE DIHED IMPRP ELECT VDW BOUNDARY MISC KINETIC TOTAL TEMP POTENTIAL TOTALAVG TEMPAVG PRESSURE GPRESSURE VOLUME PRESSAVG GPRESSAVG
ENERGY: 0 1.1282 1.4479 0.5655 0.0000 -10822.8026 1537.0023 0.0000 0.0000 1749.7601 -7532.8985 297.8753 -9282.6586 -7532.8985 297.8753 608.5324 694.4419 30295.9308 608.5324 694.4419
ENERGY: 300000 2.4580 3.8906 0.9422 0.0000 -10706.5791 1422.9327 0.0000 0.0000 1747.1393 -7529.2162 297.4291 -9276.3555 -7504.4042 298.7549 -294.7117 -223.2519 30262.1704 230.5189 301.5834
ENERGY: 600000 1.9272 3.0330 0.6552 0.0000 -10627.7131 1416.6719 0.0000 0.0000 1763.6726 -7441.7531 300.2437 -9205.4258 -7488.6792 298.3799 -211.2934 -180.9407 30587.4317 70.4007 135.6355
ENERGY: 900000 1.3153 4.6375 0.7803 0.0000 -10507.4708 1351.9074 0.0000 0.0000 1772.9059 -7375.9246 301.8156 -9148.8304 -7476.0239 298.3687 -683.4938 -599.2764 30839.2707 -20.9809 46.6546
ENERGY: 1200000 2.4367 7.6788 0.5015 0.0000 -10656.3107 1445.8813 0.0000 0.0000 1810.6835 -7389.1290 308.2467 -9199.8124 -7468.2551 299.1031 -59.9338 -45.6150 30837.0421 54.8029 115.9848
ENERGY: 1500000 2.8633 6.7667 0.4509 0.0000 -10557.5895 1398.3971 0.0000 0.0000 1751.9315 -7397.1801 298.2449 -9149.1116 -7469.2507 299.0599 -72.9853 33.5134 30142.7708 40.8033 103.0281
TCL: Exiting due to exit command.
