Info: SIMULATION PARAMETERS:
Info: TIMESTEP               2
Info: NUMBER OF STEPS        0
Info: STEPS PER CYCLE        10
Info: PERIODIC CELL BASIS 1  31.5952 0 0
Info: PERIODIC CELL BASIS 2  0 30.0639 0
Info: PERIODIC CELL BASIS 3  0 0 31.3477
Info: PERIODIC CELL CENTER   0 0 0
Info: WRAPPING WATERS AROUND PERIODIC BOUNDARIES ON OUTPUT.
Info: WRAPPING ALL CLUSTERS AROUND PERIODIC BOUNDARIES ON OUTPUT.
Info: FIRST LDB TIMESTEP     50
Info: LAST LDB TIMESTEP     -1
Info: HOM BACKGROUND SCALING 1
Info: PME BACKGROUND SCALING 1
Info: MIN ATOMS PER PATCH    40
Info: EMPTY PATCH LOAD       40 ATOMS
Info: VELOCITY FILE          mobley_9246215_equil.vel
Info: CENTER OF MASS MOVING INITIALLY? NO
Info: DIELECTRIC             1
Info: EXCLUDE                SCALED ONE-FOUR
Info: 1-4 ELECTROSTATICS SCALED BY 0.833333
Info: MODIFIED 1-4 VDW PARAMETERS WILL BE USED
Info: DCD FILENAME           mobley_9246215_prod.dcd
Info: DCD FREQUENCY          100000
Info: DCD FIRST STEP         100000
Info: DCD FILE WILL CONTAIN UNIT CELL DATA
Info: XST FILENAME           mobley_9246215_prod.xst
Info: XST FREQUENCY          100000
Info: NO VELOCITY DCD OUTPUT
Info: NO FORCE DCD OUTPUT
Info: OUTPUT FILENAME        mobley_9246215_prod
Info: BINARY OUTPUT FILES WILL BE USED
Info: RESTART FILENAME       mobley_9246215_prod.restart
Info: RESTART FREQUENCY      100000
Info: BINARY RESTART FILES WILL BE USED
Info: CUTOFF                 9
Info: PAIRLIST DISTANCE      11
Info: PAIRLIST SHRINK RATE   0.01
Info: PAIRLIST GROW RATE     0.01
Info: PAIRLIST TRIGGER       0.3
Info: PAIRLISTS PER CYCLE    2
Info: PAIRLISTS ENABLED
Info: MARGIN                 2
Info: HYDROGEN GROUP CUTOFF  2.5
Info: PATCH DIMENSION        15.5
Info: ENERGY OUTPUT STEPS    100000
Info: ENERGY EVALUATION STEPS    100000
Info: OUTPUT ENERGY PRECISION 4
Info: CROSSTERM ENERGY INCLUDED IN DIHEDRAL
Info: TIMING OUTPUT STEPS    1000000
Info: PRESSURE OUTPUT STEPS  100000
Info: ALCHEMICAL FEP ON
Info: FEP CURRENT LAMBDA VALUE     0
Info: FEP COMPARISON LAMBDA VALUE  0.05
Info: FEP INTRA-ALCHEMICAL NON-BONDED INTERACTIONS WILL BE RETAINED
Info: FEP INTRA-ALCHEMICAL BONDED INTERACTIONS WILL BE RETAINED
Info: FEP VDW SHIFTING COEFFICIENT 5
Info: FEP ELEC. ACTIVE FOR ANNIHILATED PARTICLES BETWEEN LAMBDA = 0 AND LAMBDA = 0.5
Info: FEP ELEC. ACTIVE FOR EXNIHILATED PARTICLES BETWEEN LAMBDA = 0.5 AND LAMBDA = 1
Info: FEP VDW ACTIVE FOR ANNIHILATED PARTICLES BETWEEN LAMBDA = 0 AND LAMBDA = 1
Info: FEP VDW ACTIVE FOR EXNIHILATED PARTICLES BETWEEN LAMBDA = 0 AND LAMBDA = 1
Info: FEP BOND ACTIVE FOR ANNIHILATED PARTICLES BETWEEN LAMBDA = 1 AND LAMBDA = 1
Info: FEP BOND ACTIVE FOR EXNIHILATED PARTICLES BETWEEN LAMBDA = 0 AND LAMBDA = 0
Info: LANGEVIN DYNAMICS ACTIVE
Info: LANGEVIN TEMPERATURE   300
Info: LANGEVIN USING BBK INTEGRATOR
Info: LANGEVIN DAMPING COEFFICIENT IS 1 INVERSE PS
Info: LANGEVIN DYNAMICS APPLIED TO HYDROGENS
Info: LANGEVIN PISTON PRESSURE CONTROL ACTIVE
Info:        TARGET PRESSURE IS 1.01325 BAR
Info:     OSCILLATION PERIOD IS 50 FS
Info:             DECAY TIME IS 25 FS
Info:     PISTON TEMPERATURE IS 300 K
Info:       PRESSURE CONTROL IS GROUP-BASED
Info:    INITIAL STRAIN RATE IS 0.000387744 0.000387744 0.000387744
Info:       CELL FLUCTUATION IS ISOTROPIC
Info: PARTICLE MESH EWALD (PME) ACTIVE
Info: PME TOLERANCE               1e-06
Info: PME EWALD COEFFICIENT       0.348832
Info: PME INTERPOLATION ORDER     4
Info: PME GRID DIMENSIONS         32 32 32
Info: PME MAXIMUM GRID SPACING    1
Info: PME CALCULATION WILL BE PERFORMED ON GPU
Info: FULL ELECTROSTATIC EVALUATION FREQUENCY      2
Info: USING VERLET I (r-RESPA) MTS SCHEME.
Info: C1 SPLITTING OF LONG RANGE ELECTROSTATICS
Info: PLACING ATOMS IN PATCHES BY HYDROGEN GROUPS
Info: RIGID BONDS TO HYDROGEN : ALL
Info:         ERROR TOLERANCE : 1e-08
Info:          MAX ITERATIONS : 100
Info: RIGID WATER USING SETTLE ALGORITHM
Info: RANDOM NUMBER SEED     1743831111
Info: USE HYDROGEN BONDS?    NO
Info: Using AMBER format force field!
Info: AMBER PARM FILE        mobley_9246215.prmtop
Info: COORDINATE PDB         mobley_9246215.pdb
Info: Exclusions will be read from PARM file!
Info: SCNB (VDW SCALING)     2
Info: USING ARITHMETIC MEAN TO COMBINE L-J SIGMA PARAMETERS
Info: BINARY COORDINATES     mobley_9246215_equil.coor
Info: SUMMARY OF PARAMETERS:
Info: 6 BONDS
Info: 7 ANGLES
Info:   7 HARMONIC
Info:   0 COSINE-BASED
Info: 5 DIHEDRAL
Info: 0 IMPROPER
Info: 0 CROSSTERM
Info: 0 VDW
Info: 21 VDW_PAIRS
Info: 0 NBTHOLE_PAIRS
Info: To read alchdata from file: mobley_9246215.pdb
Info: To read alchflag data from column: 5
Info: STRUCTURE SUMMARY:
Info: 2911 ATOMS
Info: 2910 BONDS
Info: 18 ANGLES
Info: 32 DIHEDRALS
Info: 0 IMPROPERS
Info: 0 CROSSTERMS
Info: 2948 EXCLUSIONS
Info: 2906 RIGID BONDS
Info: ALCH: 0 ATOMS TO DISAPPEAR IN FINAL STATE
Info: ALCH: 13 ATOMS TO APPEAR IN FINAL STATE
Info: 5827 DEGREES OF FREEDOM
Info: 971 HYDROGEN GROUPS
Info: 3 ATOMS IN LARGEST HYDROGEN GROUP
Info: 971 MIGRATION GROUPS
Info: 3 ATOMS IN LARGEST MIGRATION GROUP
Info: TOTAL MASS = 17471.6 amu
Info: TOTAL CHARGE = 0.000200043 e
Info: MASS DENSITY = 0.974359 g/cm^3
Info: ATOM DENSITY = 0.097762 atoms/A^3
Info: ADDED 0 IMPLICIT EXCLUSIONS
Info: NONBONDED TABLE R-SQUARED SPACING: 0.0625
Info: NONBONDED TABLE SIZE: 705 POINTS
Info: REMOVING COM VELOCITY -0.0720545 0.0510117 -0.0596706
Info: Use 3D box decompostion in PME FFT.
Info: Updated CUDA force table with 4096 elements.
Info: Updated CUDA LJ table with 6 x 6 elements.
Info: Found 16 unique exclusion lists needing 28 bytes
TCL: Running for 1500000 steps
ETITLE: TS BOND ANGLE DIHED IMPRP ELECT VDW BOUNDARY MISC KINETIC TOTAL TEMP POTENTIAL TOTALAVG TEMPAVG PRESSURE GPRESSURE VOLUME PRESSAVG GPRESSAVG
ENERGY: 0 1.5064 2.2825 7.9225 0.0000 -10624.8087 1406.0085 0.0000 0.0000 1708.9071 -7498.1817 295.1643 -9207.0889 -7498.1817 295.1643 -462.6476 -372.8954 29776.3922 -462.6476 -372.8954
ENERGY: 300000 3.3284 5.1301 6.6346 0.0000 -10422.6287 1359.0773 0.0000 0.0000 1759.7037 -7288.7546 303.9379 -9048.4583 -7403.4478 301.7283 -582.4065 -487.1094 30225.9355 -322.4498 -225.2538
ENERGY: 600000 2.1853 2.3725 5.6167 0.0000 -10498.3328 1443.1544 0.0000 0.0000 1756.9157 -7288.0882 303.4564 -9045.0039 -7364.7888 302.6669 250.1309 314.0921 30029.3684 -346.9784 -260.5425
ENERGY: 900000 1.9777 5.2837 8.7105 0.0000 -10649.9491 1477.5966 0.0000 0.0000 1808.4304 -7347.9502 312.3541 -9156.3806 -7350.7171 303.5181 480.8877 472.6395 29766.1560 -198.1490 -130.5366
ENERGY: 1200000 2.0140 7.7936 5.2076 0.0000 -10472.0295 1435.2096 0.0000 0.0000 1743.1896 -7278.6152 301.0856 -9021.8048 -7353.5946 302.1966 71.1184 138.4333 30148.6444 -74.9427 -7.9240
ENERGY: 1500000 0.7458 5.7115 8.3282 0.0000 -10423.5238 1385.9803 0.0000 0.0000 1726.9176 -7295.8404 298.2751 -9022.7580 -7356.6935 301.8405 -338.9783 -251.2117 30634.4473 -124.6474 -65.2419
TCL: Running FEP window   2: Lambda1 0.05   Lambda2 0.1    [dLambda 0.05  ]
TCL: Setting parameter firsttimestep to 0
TCL: Setting parameter alchLambda to 0.05
Info: NONBONDED TABLE R-SQUARED SPACING: 0.0625
Info: NONBONDED TABLE SIZE: 705 POINTS
TCL: Setting parameter alchLambda2 to 0.1
Info: NONBONDED TABLE R-SQUARED SPACING: 0.0625
Info: NONBONDED TABLE SIZE: 705 POINTS
TCL: Running for 1500000 steps
ETITLE: TS BOND ANGLE DIHED IMPRP ELECT VDW BOUNDARY MISC KINETIC TOTAL TEMP POTENTIAL TOTALAVG TEMPAVG PRESSURE GPRESSURE VOLUME PRESSAVG GPRESSAVG
ENERGY: 0 0.7458 5.7115 8.3282 0.0000 -10423.5210 1389.9064 0.0000 0.0000 1726.0465 -7292.7825 298.1246 -9018.8290 -7292.7825 298.1246 -330.1617 -249.0146 30634.4473 -330.1617 -249.0146
ENERGY: 300000 0.3730 5.2744 6.8398 0.0000 -10553.0860 1451.1528 0.0000 0.0000 1750.7543 -7338.6917 302.3922 -9089.4460 -7336.2428 299.3891 241.3424 284.9380 29889.0984 -298.5319 -216.4948
ENERGY: 600000 0.1007 3.4067 6.7877 0.0000 -10570.8567 1423.3956 0.0000 0.0000 1722.1569 -7415.0092 297.4528 -9137.1661 -7368.1296 298.6906 -337.0617 -238.7791 30273.3347 -271.0411 -197.2361
ENERGY: 900000 1.0573 3.4598 5.6195 0.0000 -10477.3286 1396.4293 0.0000 0.0000 1747.9783 -7322.7844 301.9127 -9070.7627 -7365.7336 298.9582 93.7748 128.0710 29821.3414 -179.4296 -107.0927
ENERGY: 1200000 0.4141 3.6028 6.1130 0.0000 -10475.4216 1407.3074 0.0000 0.0000 1783.7952 -7274.1891 308.0991 -9057.9844 -7354.0135 301.4117 573.9319 618.4748 29084.6120 -178.9408 -111.9168
ENERGY: 1500000 0.5789 3.9083 6.3384 0.0000 -10636.3055 1437.4834 0.0000 0.0000 1708.8605 -7479.1359 295.1563 -9187.9965 -7380.0713 299.7791 -37.6382 86.1980 29480.2401 -125.1059 -53.4225
TCL: Running FEP window   3: Lambda1 0.1    Lambda2 0.15000000000000002 [dLambda 0.05000000000000002]
TCL: Setting parameter firsttimestep to 0
TCL: Setting parameter alchLambda to 0.1
Info: NONBONDED TABLE R-SQUARED SPACING: 0.0625
Info: NONBONDED TABLE SIZE: 705 POINTS
TCL: Setting parameter alchLambda2 to 0.15000000000000002
Info: NONBONDED TABLE R-SQUARED SPACING: 0.0625
Info: NONBONDED TABLE SIZE: 705 POINTS
TCL: Running for 1500000 steps
ETITLE: TS BOND ANGLE DIHED IMPRP ELECT VDW BOUNDARY MISC KINETIC TOTAL TEMP POTENTIAL TOTALAVG TEMPAVG PRESSURE GPRESSURE VOLUME PRESSAVG GPRESSAVG
ENERGY: 0 0.5789 3.9083 6.3384 0.0000 -10636.3047 1438.6053 0.0000 0.0000 1707.9844 -7478.8894 295.0049 -9186.8737 -7478.8894 295.0049 18.0330 93.2856 29480.2401 18.0330 93.2856
ENERGY: 300000 0.5164 6.2272 7.6446 0.0000 -10505.9481 1406.9470 0.0000 0.0000 1693.6578 -7390.9551 292.5304 -9084.6129 -7414.2554 294.6677 -90.5335 -16.7629 29891.7947 -112.5967 -51.9495
ENERGY: 600000 2.0556 4.9746 8.1528 0.0000 -10551.9558 1435.3721 0.0000 0.0000 1713.6287 -7387.7721 295.9798 -9101.4007 -7408.9595 296.6321 234.2461 314.6920 29696.7562 -68.5437 -3.8955
ENERGY: 900000 1.1563 5.7302 6.8036 0.0000 -10414.0072 1295.3591 0.0000 0.0000 1730.0107 -7374.9472 298.8093 -9104.9579 -7408.4321 297.7751 -1079.6903 -954.7601 30060.8113 -90.6339 -18.2265
ENERGY: 1200000 2.4071 3.5223 9.0580 0.0000 -10504.5307 1342.7268 0.0000 0.0000 1765.4544 -7381.3621 304.9312 -9146.8165 -7399.2893 298.4743 -611.4868 -602.9781 29536.2164 -164.1689 -102.9588
ENERGY: 1500000 1.3975 1.7083 5.5737 0.0000 -10536.4409 1395.3272 0.0000 0.0000 1740.8174 -7391.6168 300.6759 -9132.4342 -7382.6950 299.7848 -290.1720 -204.2613 29828.3288 -272.4387 -211.0802
TCL: Running FEP window   4: Lambda1 0.15000000000000002 Lambda2 0.2    [dLambda 0.04999999999999999]
TCL: Setting parameter firsttimestep to 0
TCL: Setting parameter alchLambda to 0.15000000000000002
Info: NONBONDED TABLE R-SQUARED SPACING: 0.0625
Info: NONBONDED TABLE SIZE: 705 POINTS
TCL: Setting parameter alchLambda2 to 0.2
Info: NONBONDED TABLE R-SQUARED SPACING: 0.0625
Info: NONBONDED TABLE SIZE: 705 POINTS
TCL: Running for 1500000 steps
ETITLE: TS BOND ANGLE DIHED IMPRP ELECT VDW BOUNDARY MISC KINETIC TOTAL TEMP POTENTIAL TOTALAVG TEMPAVG PRESSURE GPRESSURE VOLUME PRESSAVG GPRESSAVG
ENERGY: 0 1.3975 1.7083 5.5737 0.0000 -10536.4405 1397.0541 0.0000 0.0000 1739.9284 -7390.7785 300.5223 -9130.7069 -7390.7785 300.5223 -271.0199 -197.3932 29828.3288 -271.0199 -197.3932
ENERGY: 300000 1.1646 6.5581 4.8362 0.0000 -10679.1951 1498.7899 0.0000 0.0000 1705.5874 -7462.2589 294.5909 -9167.8464 -7375.0431 296.9761 735.3388 785.4576 29279.1020 -16.8101 22.8596
ENERGY: 600000 1.4213 2.5736 6.4220 0.0000 -10559.5774 1457.5672 0.0000 0.0000 1780.9332 -7310.6601 307.6047 -9091.5934 -7369.2327 299.2471 242.6223 331.8061 29952.6410 291.5906 329.4552
ENERGY: 900000 0.5327 4.8423 9.3137 0.0000 -10579.8161 1446.2253 0.0000 0.0000 1764.7725 -7354.1296 304.8134 -9118.9021 -7369.0493 299.4761 357.5405 406.9593 29584.6254 324.3074 365.3863
ENERGY: 1200000 1.3645 3.3907 4.7654 0.0000 -10764.7689 1558.4576 0.0000 0.0000 1767.3393 -7429.4515 305.2568 -9196.7907 -7378.8860 299.8301 607.4519 648.3060 30206.2918 270.8089 312.5537
ENERGY: 1500000 0.3225 7.6113 4.7983 0.0000 -10748.1204 1552.2405 0.0000 0.0000 1754.6914 -7428.4564 303.0722 -9183.1478 -7380.9337 300.0377 849.1069 948.6333 29620.8080 206.4772 251.5203
TCL: Running FEP window   5: Lambda1 0.2    Lambda2 0.25   [dLambda 0.04999999999999999]
TCL: Setting parameter firsttimestep to 0
TCL: Setting parameter alchLambda to 0.2
Info: NONBONDED TABLE R-SQUARED SPACING: 0.0625
Info: NONBONDED TABLE SIZE: 705 POINTS
TCL: Setting parameter alchLambda2 to 0.25
Info: NONBONDED TABLE R-SQUARED SPACING: 0.0625
Info: NONBONDED TABLE SIZE: 705 POINTS
TCL: Running for 1500000 steps
ETITLE: TS BOND ANGLE DIHED IMPRP ELECT VDW BOUNDARY MISC KINETIC TOTAL TEMP POTENTIAL TOTALAVG TEMPAVG PRESSURE GPRESSURE VOLUME PRESSAVG GPRESSAVG
ENERGY: 0 0.3225 7.6113 4.7983 0.0000 -10748.1202 1552.9490 0.0000 0.0000 1753.8355 -7428.6036 302.9244 -9182.4391 -7428.6036 302.9244 858.1605 957.3900 29620.8080 858.1605 957.3900
ENERGY: 300000 0.5624 4.4391 6.7439 0.0000 -10483.8344 1395.6561 0.0000 0.0000 1702.2836 -7374.1493 294.0203 -9076.4328 -7373.9519 302.5170 -278.7747 -196.3482 30204.3883 390.4298 473.8501
ENERGY: 600000 0.2817 5.2097 5.6504 0.0000 -10485.0773 1405.0051 0.0000 0.0000 1738.3521 -7330.5783 300.2501 -9068.9304 -7372.8461 302.1432 -25.1178 37.6150 30283.0162 32.0479 122.5743
ENERGY: 900000 1.0903 7.7916 5.6364 0.0000 -10549.7673 1386.6728 0.0000 0.0000 1786.9223 -7361.6540 308.6392 -9148.5763 -7372.8747 302.6598 -228.7734 -226.6117 29478.2839 -58.5634 17.3702
ENERGY: 1200000 0.6789 3.3374 5.7475 0.0000 -10467.4647 1425.0414 0.0000 0.0000 1726.1472 -7306.5123 298.1420 -9032.6596 -7359.7896 301.9971 164.8536 290.4631 29981.8252 -11.8602 61.2587
ENERGY: 1500000 0.3550 5.8310 11.6886 0.0000 -10493.4221 1339.1369 0.0000 0.0000 1713.4934 -7422.9170 295.9565 -9136.4105 -7364.2999 301.7294 -739.6403 -719.4193 29817.0982 -62.8763 5.2339
TCL: Running FEP window   6: Lambda1 0.25   Lambda2 0.3    [dLambda 0.04999999999999999]
TCL: Setting parameter firsttimestep to 0
TCL: Setting parameter alchLambda to 0.25
Info: NONBONDED TABLE R-SQUARED SPACING: 0.0625
Info: NONBONDED TABLE SIZE: 705 POINTS
TCL: Setting parameter alchLambda2 to 0.3
Info: NONBONDED TABLE R-SQUARED SPACING: 0.0625
Info: NONBONDED TABLE SIZE: 705 POINTS
TCL: Running for 1500000 steps
ETITLE: TS BOND ANGLE DIHED IMPRP ELECT VDW BOUNDARY MISC KINETIC TOTAL TEMP POTENTIAL TOTALAVG TEMPAVG PRESSURE GPRESSURE VOLUME PRESSAVG GPRESSAVG
ENERGY: 0 0.3550 5.8310 11.6886 0.0000 -10493.4219 1339.9981 0.0000 0.0000 1712.6396 -7422.9095 295.8090 -9135.5491 -7422.9095 295.8090 -792.4023 -708.8078 29817.0982 -792.4023 -708.8078
ENERGY: 300000 1.4790 4.1159 8.4078 0.0000 -10470.1629 1407.8753 0.0000 0.0000 1733.3145 -7314.9705 299.3800 -9048.2849 -7383.6328 298.8203 140.1455 193.4534 29930.6666 22.2238 82.7713
ENERGY: 600000 1.0144 2.9795 8.6461 0.0000 -10432.9632 1329.9257 0.0000 0.0000 1736.1295 -7354.2680 299.8662 -9090.3975 -7368.2013 300.2928 -958.4976 -935.6279 30510.3073 7.5329 62.9099
ENERGY: 900000 0.7648 3.3162 6.0047 0.0000 -10558.4055 1430.0455 0.0000 0.0000 1749.8436 -7368.4307 302.2349 -9118.2743 -7366.5862 301.4309 160.0200 249.9102 29791.8981 10.6119 61.8869
ENERGY: 1200000 1.8362 4.2685 7.6981 0.0000 -10547.5317 1447.3471 0.0000 0.0000 1720.2937 -7366.0881 297.1310 -9086.3818 -7368.6035 300.1097 405.6955 489.8469 29814.0627 62.9178 114.4334
ENERGY: 1500000 0.4317 6.8929 5.7207 0.0000 -10589.7077 1465.4451 0.0000 0.0000 1679.9543 -7431.2630 290.1635 -9111.2173 -7375.1518 299.4031 187.4825 263.6997 30186.6237 129.9775 184.6798
TCL: Running FEP window   7: Lambda1 0.3    Lambda2 0.35   [dLambda 0.04999999999999999]
TCL: Setting parameter firsttimestep to 0
TCL: Setting parameter alchLambda to 0.3
Info: NONBONDED TABLE R-SQUARED SPACING: 0.0625
Info: NONBONDED TABLE SIZE: 705 POINTS
TCL: Setting parameter alchLambda2 to 0.35
Info: NONBONDED TABLE R-SQUARED SPACING: 0.0625
Info: NONBONDED TABLE SIZE: 705 POINTS
TCL: Running for 1500000 steps
ETITLE: TS BOND ANGLE DIHED IMPRP ELECT VDW BOUNDARY MISC KINETIC TOTAL TEMP POTENTIAL TOTALAVG TEMPAVG PRESSURE GPRESSURE VOLUME PRESSAVG GPRESSAVG
ENERGY: 0 0.4317 6.8929 5.7207 0.0000 -10589.7081 1465.6883 0.0000 0.0000 1679.1140 -7431.8605 290.0184 -9110.9745 -7431.8605 290.0184 203.1638 267.0685 30186.6237 203.1638 267.0685
ENERGY: 300000 2.6939 3.6802 6.0598 0.0000 -10671.0248 1426.0797 0.0000 0.0000 1761.4207 -7471.0904 304.2345 -9232.5112 -7383.4491 300.5800 -276.6566 -215.5342 29409.6370 93.2826 152.0964
ENERGY: 600000 1.9635 3.3036 7.3192 0.0000 -10479.0954 1442.5842 0.0000 0.0000 1722.8968 -7301.0280 297.5806 -9023.9249 -7351.6915 300.8980 105.7590 188.7906 30529.3530 238.2766 296.9215
ENERGY: 900000 2.2453 3.5778 5.1863 0.0000 -10747.3354 1555.6620 0.0000 0.0000 1775.5360 -7405.1280 306.6725 -9180.6640 -7370.9377 301.7858 1003.0709 1040.7687 29505.7285 170.1601 224.4380
ENERGY: 1200000 1.2148 3.4140 6.6401 0.0000 -10578.0606 1401.3649 0.0000 0.0000 1713.7051 -7451.7217 295.9930 -9165.4268 -7380.0558 300.6445 -525.0263 -503.6494 30083.0941 21.7088 77.1056
ENERGY: 1500000 2.6027 4.0392 7.6991 0.0000 -10554.0427 1393.5842 0.0000 0.0000 1705.9878 -7440.1297 294.6601 -9146.1175 -7381.1691 301.0326 -383.9519 -345.3258 29736.0200 -56.9672 0.4658
TCL: Running FEP window   8: Lambda1 0.35   Lambda2 0.39999999999999997 [dLambda 0.04999999999999999]
TCL: Setting parameter firsttimestep to 0
TCL: Setting parameter alchLambda to 0.35
Info: NONBONDED TABLE R-SQUARED SPACING: 0.0625
Info: NONBONDED TABLE SIZE: 705 POINTS
TCL: Setting parameter alchLambda2 to 0.39999999999999997
Info: NONBONDED TABLE R-SQUARED SPACING: 0.0625
Info: NONBONDED TABLE SIZE: 705 POINTS
TCL: Running for 1500000 steps
ETITLE: TS BOND ANGLE DIHED IMPRP ELECT VDW BOUNDARY MISC KINETIC TOTAL TEMP POTENTIAL TOTALAVG TEMPAVG PRESSURE GPRESSURE VOLUME PRESSAVG GPRESSAVG
ENERGY: 0 2.6027 4.0392 7.6991 0.0000 -10554.0429 1393.8248 0.0000 0.0000 1705.1163 -7440.7608 294.5095 -9145.8771 -7440.7608 294.5095 -408.6676 -340.0229 29736.0200 -408.6676 -340.0229
ENERGY: 300000 0.5895 6.4048 4.8638 0.0000 -10592.1486 1493.5143 0.0000 0.0000 1729.1144 -7357.6618 298.6545 -9086.7762 -7405.2922 297.1435 586.6077 628.0711 29842.1595 -140.9715 -84.8309
ENERGY: 600000 1.5623 1.9296 5.6966 0.0000 -10446.2369 1364.4408 0.0000 0.0000 1785.6725 -7286.9352 308.4233 -9072.6076 -7359.0691 299.4640 -681.6996 -645.5823 30492.0794 -283.1525 -224.1705
ENERGY: 900000 1.6768 4.4573 5.9122 0.0000 -10581.0318 1476.0296 0.0000 0.0000 1740.3896 -7352.5663 300.6020 -9092.9559 -7363.7907 299.7250 577.3277 621.5359 29736.4154 -52.5312 7.1312
ENERGY: 1200000 1.3087 1.8121 7.9569 0.0000 -10490.1688 1334.5191 0.0000 0.0000 1795.1974 -7349.3745 310.0684 -9144.5719 -7361.1415 300.8622 -848.9028 -751.4013 30023.4571 -165.5801 -93.3924
ENERGY: 1500000 0.9388 2.2131 7.9712 0.0000 -10579.4307 1425.4730 0.0000 0.0000 1728.1571 -7414.6774 298.4892 -9142.8345 -7360.2689 300.6483 -89.2338 -55.1978 29896.6936 -50.1435 23.1725
TCL: Running FEP window   9: Lambda1 0.39999999999999997 Lambda2 0.44999999999999996 [dLambda 0.04999999999999999]
TCL: Setting parameter firsttimestep to 0
TCL: Setting parameter alchLambda to 0.39999999999999997
Info: NONBONDED TABLE R-SQUARED SPACING: 0.0625
Info: NONBONDED TABLE SIZE: 705 POINTS
TCL: Setting parameter alchLambda2 to 0.44999999999999996
Info: NONBONDED TABLE R-SQUARED SPACING: 0.0625
Info: NONBONDED TABLE SIZE: 705 POINTS
TCL: Running for 1500000 steps
ETITLE: TS BOND ANGLE DIHED IMPRP ELECT VDW BOUNDARY MISC KINETIC TOTAL TEMP POTENTIAL TOTALAVG TEMPAVG PRESSURE GPRESSURE VOLUME PRESSAVG GPRESSAVG
ENERGY: 0 0.9388 2.2131 7.9712 0.0000 -10579.4306 1425.7611 0.0000 0.0000 1727.2905 -7415.2558 298.3395 -9142.5463 -7415.2558 298.3395 -130.9799 -49.0564 29896.6936 -130.9799 -49.0564
ENERGY: 300000 0.9239 3.6690 7.2123 0.0000 -10470.5511 1432.1570 0.0000 0.0000 1692.5452 -7334.0437 292.3382 -9026.5889 -7381.4882 298.0202 -0.6765 150.0029 30160.2148 -260.1242 -145.6103
ENERGY: 600000 0.7726 4.8375 5.7525 0.0000 -10601.5413 1493.4925 0.0000 0.0000 1736.3990 -7360.2871 299.9127 -9096.6862 -7370.1860 300.9069 405.5946 466.2262 29991.5733 -263.9857 -175.0155
ENERGY: 900000 1.9949 4.7560 8.7178 0.0000 -10658.3109 1476.6320 0.0000 0.0000 1700.4269 -7465.7832 293.6996 -9166.2101 -7374.0556 300.3110 437.8061 506.4129 29457.4907 -98.9607 -21.4436
ENERGY: 1200000 1.3788 4.8491 9.6745 0.0000 -10682.4963 1523.9100 0.0000 0.0000 1731.9585 -7410.7255 299.1458 -9142.6840 -7374.7810 300.5642 731.7634 770.2355 29676.7301 -10.6161 61.1845
ENERGY: 1500000 1.1389 3.6290 5.2672 0.0000 -10603.5544 1430.0679 0.0000 0.0000 1758.5690 -7404.8823 303.7420 -9163.4513 -7384.8525 300.4164 138.9390 223.9044 29760.8201 50.2257 122.8879
TCL: Running FEP window  10: Lambda1 0.44999999999999996 Lambda2 0.49999999999999994 [dLambda 0.04999999999999999]
TCL: Setting parameter firsttimestep to 0
TCL: Setting parameter alchLambda to 0.44999999999999996
Info: NONBONDED TABLE R-SQUARED SPACING: 0.0625
Info: NONBONDED TABLE SIZE: 705 POINTS
TCL: Setting parameter alchLambda2 to 0.49999999999999994
Info: NONBONDED TABLE R-SQUARED SPACING: 0.0625
Info: NONBONDED TABLE SIZE: 705 POINTS
TCL: Running for 1500000 steps
ETITLE: TS BOND ANGLE DIHED IMPRP ELECT VDW BOUNDARY MISC KINETIC TOTAL TEMP POTENTIAL TOTALAVG TEMPAVG PRESSURE GPRESSURE VOLUME PRESSAVG GPRESSAVG
ENERGY: 0 1.1389 3.6290 5.2672 0.0000 -10603.5561 1429.9890 0.0000 0.0000 1757.6961 -7405.8358 303.5912 -9163.5320 -7405.8358 303.5912 141.4938 226.1115 29760.8201 141.4938 226.1115
ENERGY: 300000 1.5917 5.5969 8.0435 0.0000 -10457.6065 1365.9059 0.0000 0.0000 1742.1478 -7334.3207 300.9057 -9076.4685 -7396.5468 301.7333 -226.3859 -228.8508 30025.8957 -430.0922 -375.7625
ENERGY: 600000 1.2799 4.1360 4.4693 0.0000 -10552.1905 1413.8697 0.0000 0.0000 1773.8067 -7354.6289 306.3738 -9128.4357 -7375.3972 302.4114 128.1732 135.3425 30044.7339 -238.7264 -195.1862
ENERGY: 900000 1.9772 7.4393 5.6816 0.0000 -10589.9400 1452.5116 0.0000 0.0000 1781.7073 -7340.6229 307.7384 -9122.3303 -7366.1040 302.9841 347.4522 466.5857 29491.7367 -153.0511 -102.2546
ENERGY: 1200000 1.3779 3.5150 5.5907 0.0000 -10448.1358 1395.5353 0.0000 0.0000 1712.8634 -7329.2535 295.8476 -9042.1169 -7364.4085 301.3205 -281.9889 -236.4730 30359.3641 -236.2401 -176.4871
ENERGY: 1500000 0.7469 5.4789 6.3995 0.0000 -10652.4993 1477.0087 0.0000 0.0000 1762.5876 -7400.2777 304.4361 -9162.8653 -7365.1027 301.2395 64.6385 183.4370 30158.5507 -207.2192 -145.6012
TCL: Running FEP window  11: Lambda1 0.49999999999999994 Lambda2 0.5499999999999999 [dLambda 0.04999999999999999]
TCL: Setting parameter firsttimestep to 0
TCL: Setting parameter alchLambda to 0.49999999999999994
Info: NONBONDED TABLE R-SQUARED SPACING: 0.0625
Info: NONBONDED TABLE SIZE: 705 POINTS
TCL: Setting parameter alchLambda2 to 0.5499999999999999
Info: NONBONDED TABLE R-SQUARED SPACING: 0.0625
Info: NONBONDED TABLE SIZE: 705 POINTS
TCL: Running for 1500000 steps
ETITLE: TS BOND ANGLE DIHED IMPRP ELECT VDW BOUNDARY MISC KINETIC TOTAL TEMP POTENTIAL TOTALAVG TEMPAVG PRESSURE GPRESSURE VOLUME PRESSAVG GPRESSAVG
ENERGY: 0 0.7469 5.4789 6.3995 0.0000 -10652.4976 1477.3808 0.0000 0.0000 1761.7291 -7400.7624 304.2878 -9162.4915 -7400.7624 304.2878 111.9072 190.6917 30158.5507 111.9072 190.6917
ENERGY: 300000 0.3452 3.9643 6.8253 0.0000 -10623.2846 1477.6629 0.0000 0.0000 1704.9806 -7429.5064 294.4861 -9134.4870 -7426.6146 296.1953 345.1577 446.7949 29718.3049 8.4724 82.3150
ENERGY: 600000 1.2624 4.1638 7.2237 0.0000 -10680.2302 1523.5195 0.0000 0.0000 1748.0557 -7396.0051 301.9261 -9144.0609 -7398.6851 297.4267 648.2348 709.8376 30003.3278 136.8182 211.2013
ENERGY: 900000 2.3767 6.0387 4.9670 0.0000 -10515.3168 1360.7220 0.0000 0.0000 1784.2533 -7356.9591 308.1782 -9141.2124 -7387.2909 299.0180 -460.7686 -477.7755 29979.2785 83.7093 138.0527
ENERGY: 1200000 0.4074 8.6692 6.1742 0.0000 -10571.9712 1423.9177 0.0000 0.0000 1732.0324 -7400.7704 299.1585 -9132.8027 -7392.6829 299.1443 -39.9847 83.0848 29740.0144 77.5383 132.8232
ENERGY: 1500000 0.7210 10.0422 5.4421 0.0000 -10414.4628 1354.5702 0.0000 0.0000 1675.0115 -7368.6759 289.3098 -9043.6874 -7389.3498 298.2060 -346.8669 -350.6483 29949.1734 22.6892 72.2790
TCL: Running FEP window  12: Lambda1 0.5499999999999999 Lambda2 0.6    [dLambda 0.050000000000000044]
TCL: Setting parameter firsttimestep to 0
TCL: Setting parameter alchLambda to 0.5499999999999999
Info: NONBONDED TABLE R-SQUARED SPACING: 0.0625
Info: NONBONDED TABLE SIZE: 705 POINTS
TCL: Setting parameter alchLambda2 to 0.6
Info: NONBONDED TABLE R-SQUARED SPACING: 0.0625
Info: NONBONDED TABLE SIZE: 705 POINTS
TCL: Running for 1500000 steps
ETITLE: TS BOND ANGLE DIHED IMPRP ELECT VDW BOUNDARY MISC KINETIC TOTAL TEMP POTENTIAL TOTALAVG TEMPAVG PRESSURE GPRESSURE VOLUME PRESSAVG GPRESSAVG
ENERGY: 0 0.7210 10.0422 5.4421 0.0000 -10414.3082 1355.3380 0.0000 0.0000 1674.1604 -7368.6046 289.1628 -9042.7650 -7368.6046 289.1628 -418.6245 -338.2186 29949.1734 -418.6245 -338.2186
ENERGY: 300000 0.4282 1.4525 6.7407 0.0000 -10582.7879 1389.3909 0.0000 0.0000 1742.1393 -7442.6363 300.9042 -9184.7756 -7407.1422 295.1493 -459.6975 -319.9860 29686.5821 -182.7956 -121.1911
ENERGY: 600000 0.1665 5.7821 9.6880 0.0000 -10465.4723 1392.3673 0.0000 0.0000 1737.0166 -7320.4517 300.0194 -9057.4684 -7391.5429 297.4220 -63.4942 12.9858 29905.9801 -162.0422 -98.9167
ENERGY: 900000 2.1093 3.3818 7.0866 0.0000 -10440.3411 1325.8232 0.0000 0.0000 1714.7034 -7387.2367 296.1654 -9101.9401 -7392.4857 298.3254 -795.7903 -786.9544 29963.6433 -270.2950 -212.8228
ENERGY: 1200000 0.3688 3.1892 8.4584 0.0000 -10453.2404 1294.1992 0.0000 0.0000 1748.9736 -7398.0511 302.0846 -9147.0247 -7389.2794 299.2437 -1292.0827 -1223.9274 30638.0169 -265.7881 -206.3942
ENERGY: 1500000 2.7321 5.9223 6.4061 0.0000 -10591.4633 1430.4921 0.0000 0.0000 1737.1534 -7408.7572 300.0430 -9145.9106 -7390.8158 299.5989 -43.2975 25.9435 29800.3327 -249.2995 -188.9100
TCL: Running FEP window  13: Lambda1 0.6    Lambda2 0.65   [dLambda 0.050000000000000044]
TCL: Setting parameter firsttimestep to 0
TCL: Setting parameter alchLambda to 0.6
Info: NONBONDED TABLE R-SQUARED SPACING: 0.0625
Info: NONBONDED TABLE SIZE: 705 POINTS
TCL: Setting parameter alchLambda2 to 0.65
Info: NONBONDED TABLE R-SQUARED SPACING: 0.0625
Info: NONBONDED TABLE SIZE: 705 POINTS
TCL: Running for 1500000 steps
ETITLE: TS BOND ANGLE DIHED IMPRP ELECT VDW BOUNDARY MISC KINETIC TOTAL TEMP POTENTIAL TOTALAVG TEMPAVG PRESSURE GPRESSURE VOLUME PRESSAVG GPRESSAVG
ENERGY: 0 2.7321 5.9223 6.4061 0.0000 -10591.5038 1431.4457 0.0000 0.0000 1736.2863 -7408.7113 299.8933 -9144.9975 -7408.7113 299.8933 -43.0243 37.9612 29800.3327 -43.0243 37.9612
ENERGY: 300000 0.5552 2.9073 7.7697 0.0000 -10603.0987 1488.1643 0.0000 0.0000 1785.1183 -7318.5839 308.3276 -9103.7022 -7344.7666 303.7636 548.7559 611.9658 29856.6151 141.8952 217.7387
ENERGY: 600000 0.4593 11.9319 9.8062 0.0000 -10604.3309 1382.6061 0.0000 0.0000 1694.1994 -7505.3280 292.6240 -9199.5274 -7375.8784 300.9420 -717.0419 -606.1476 30141.7761 -97.3957 -11.0850
ENERGY: 900000 4.2420 3.6258 5.4755 0.0000 -10576.6752 1400.2454 0.0000 0.0000 1772.2761 -7390.8105 306.1095 -9163.0866 -7387.5045 300.4776 -240.0178 -242.7940 29719.3091 -97.1380 -17.8347
ENERGY: 1200000 0.3836 4.5248 7.8250 0.0000 -10470.8361 1366.1841 0.0000 0.0000 1698.4436 -7393.4749 293.3570 -9091.9186 -7384.4791 300.2710 -514.5565 -453.6162 30238.4019 -97.3333 -22.2343
ENERGY: 1500000 0.5283 2.8793 9.9444 0.0000 -10508.1960 1431.9532 0.0000 0.0000 1709.7062 -7353.1846 295.3023 -9062.8908 -7384.6160 300.7442 57.2840 55.6966 30202.7068 -54.9454 9.9316
TCL: Running FEP window  14: Lambda1 0.65   Lambda2 0.7000000000000001 [dLambda 0.050000000000000044]
TCL: Setting parameter firsttimestep to 0
TCL: Setting parameter alchLambda to 0.65
Info: NONBONDED TABLE R-SQUARED SPACING: 0.0625
Info: NONBONDED TABLE SIZE: 705 POINTS
TCL: Setting parameter alchLambda2 to 0.7000000000000001
Info: NONBONDED TABLE R-SQUARED SPACING: 0.0625
Info: NONBONDED TABLE SIZE: 705 POINTS
TCL: Running for 1500000 steps
ETITLE: TS BOND ANGLE DIHED IMPRP ELECT VDW BOUNDARY MISC KINETIC TOTAL TEMP POTENTIAL TOTALAVG TEMPAVG PRESSURE GPRESSURE VOLUME PRESSAVG GPRESSAVG
ENERGY: 0 0.5283 2.8793 9.9444 0.0000 -10508.2083 1431.9917 0.0000 0.0000 1708.8269 -7354.0377 295.1504 -9062.8646 -7354.0377 295.1504 -27.9134 62.7571 30202.7068 -27.9134 62.7571
ENERGY: 300000 3.3986 1.3026 7.1544 0.0000 -10675.5719 1522.8436 0.0000 0.0000 1738.2221 -7402.6505 300.2276 -9140.8726 -7418.1637 298.7625 939.0918 1001.2501 29585.6166 117.6922 175.6201
ENERGY: 600000 3.5823 2.7415 7.5311 0.0000 -10524.5998 1389.0881 0.0000 0.0000 1739.1101 -7382.5466 300.3810 -9121.6567 -7385.6082 299.5698 -297.1435 -261.7029 29910.8065 127.5905 177.8558
ENERGY: 900000 2.6915 3.4401 5.7051 0.0000 -10434.4866 1358.7472 0.0000 0.0000 1710.4743 -7353.4284 295.4350 -9063.9027 -7386.4659 299.8743 -746.2406 -705.4306 30468.2985 -72.9102 -26.4179
ENERGY: 1200000 2.0271 3.7710 7.7211 0.0000 -10591.0865 1458.4877 0.0000 0.0000 1703.4367 -7415.6430 294.2194 -9119.0797 -7382.1982 300.4094 330.1665 383.8439 29863.2972 -52.6822 0.4333
ENERGY: 1500000 0.8847 5.2920 7.2421 0.0000 -10591.0375 1408.4091 0.0000 0.0000 1693.4575 -7475.7521 292.4958 -9169.2096 -7379.0203 300.7203 -422.9717 -321.0545 29950.8821 -63.7008 -6.6220
TCL: Running FEP window  15: Lambda1 0.7000000000000001 Lambda2 0.7500000000000001 [dLambda 0.050000000000000044]
TCL: Setting parameter firsttimestep to 0
TCL: Setting parameter alchLambda to 0.7000000000000001
Info: NONBONDED TABLE R-SQUARED SPACING: 0.0625
Info: NONBONDED TABLE SIZE: 705 POINTS
TCL: Setting parameter alchLambda2 to 0.7500000000000001
Info: NONBONDED TABLE R-SQUARED SPACING: 0.0625
Info: NONBONDED TABLE SIZE: 705 POINTS
TCL: Running for 1500000 steps
ETITLE: TS BOND ANGLE DIHED IMPRP ELECT VDW BOUNDARY MISC KINETIC TOTAL TEMP POTENTIAL TOTALAVG TEMPAVG PRESSURE GPRESSURE VOLUME PRESSAVG GPRESSAVG
ENERGY: 0 0.8847 5.2920 7.2421 0.0000 -10591.0776 1408.9027 0.0000 0.0000 1692.5751 -7476.1810 292.3434 -9168.7561 -7476.1810 292.3434 -390.7687 -309.5052 29950.8821 -390.7687 -309.5052
ENERGY: 300000 0.3168 3.4229 8.6090 0.0000 -10458.0046 1336.1252 0.0000 0.0000 1708.1218 -7401.4089 295.0287 -9109.5307 -7429.0214 294.9388 -763.0105 -711.8271 30373.6873 -57.3560 25.7246
ENERGY: 600000 0.5058 6.4352 6.1132 0.0000 -10687.3289 1517.7738 0.0000 0.0000 1733.5292 -7422.9717 299.4171 -9156.5009 -7403.7266 298.2480 652.8794 644.3234 29996.9262 111.0895 176.6563
ENERGY: 900000 1.2265 5.0134 5.9758 0.0000 -10425.7084 1360.2958 0.0000 0.0000 1784.2952 -7268.9016 308.1854 -9053.1968 -7384.1713 299.7546 -400.6884 -335.9251 30096.4733 56.6020 125.8831
ENERGY: 1200000 0.8746 2.9501 7.6559 0.0000 -10588.1000 1460.7403 0.0000 0.0000 1743.1358 -7372.7434 301.0763 -9115.8791 -7381.2131 300.4389 352.4198 437.7347 29716.2659 11.6939 82.4957
ENERGY: 1500000 0.1060 3.3762 4.9958 0.0000 -10631.2775 1468.7725 0.0000 0.0000 1784.9885 -7369.0384 308.3052 -9154.0270 -7380.5815 301.1925 406.1020 422.7393 29763.3316 44.7864 113.2950
TCL: Running FEP window  16: Lambda1 0.7500000000000001 Lambda2 0.8000000000000002 [dLambda 0.050000000000000044]
TCL: Setting parameter firsttimestep to 0
TCL: Setting parameter alchLambda to 0.7500000000000001
Info: NONBONDED TABLE R-SQUARED SPACING: 0.0625
Info: NONBONDED TABLE SIZE: 705 POINTS
TCL: Setting parameter alchLambda2 to 0.8000000000000002
Info: NONBONDED TABLE R-SQUARED SPACING: 0.0625
Info: NONBONDED TABLE SIZE: 705 POINTS
TCL: Running for 1500000 steps
ETITLE: TS BOND ANGLE DIHED IMPRP ELECT VDW BOUNDARY MISC KINETIC TOTAL TEMP POTENTIAL TOTALAVG TEMPAVG PRESSURE GPRESSURE VOLUME PRESSAVG GPRESSAVG
ENERGY: 0 0.1060 3.3762 4.9958 0.0000 -10631.5687 1469.7078 0.0000 0.0000 1784.1316 -7369.2514 308.1571 -9153.3829 -7369.2514 308.1571 367.2121 442.1222 29763.3316 367.2121 442.1222
ENERGY: 300000 1.3657 3.3600 6.6580 0.0000 -10761.0694 1524.6444 0.0000 0.0000 1773.8122 -7451.2291 306.3748 -9225.0414 -7401.7893 301.6711 710.1743 664.0401 29638.0101 135.6753 170.4551
ENERGY: 600000 3.3252 4.6360 6.5681 0.0000 -10600.0144 1437.6968 0.0000 0.0000 1722.2792 -7425.5090 297.4739 -9147.7882 -7396.7283 298.9970 114.3146 158.0150 29953.3182 52.9844 99.8917
ENERGY: 900000 2.2456 7.5780 5.8715 0.0000 -10544.2785 1438.4816 0.0000 0.0000 1736.8798 -7353.2221 299.9958 -9090.1020 -7386.5775 299.8406 47.2618 114.4084 30116.5155 93.6998 140.6008
ENERGY: 1200000 2.5876 2.9809 6.7200 0.0000 -10555.5596 1452.2003 0.0000 0.0000 1763.2779 -7327.7930 304.5553 -9091.0709 -7372.7494 301.1833 552.6476 612.6761 29632.9354 103.8873 155.1677
ENERGY: 1500000 0.8995 5.7269 7.2386 0.0000 -10495.2340 1406.5681 0.0000 0.0000 1734.8115 -7339.9894 299.6385 -9074.8010 -7379.3214 299.6050 -138.8595 -88.5749 30338.9401 68.0599 121.1214
TCL: Running FEP window  17: Lambda1 0.8000000000000002 Lambda2 0.8500000000000002 [dLambda 0.050000000000000044]
TCL: Setting parameter firsttimestep to 0
TCL: Setting parameter alchLambda to 0.8000000000000002
Info: NONBONDED TABLE R-SQUARED SPACING: 0.0625
Info: NONBONDED TABLE SIZE: 705 POINTS
TCL: Setting parameter alchLambda2 to 0.8500000000000002
Info: NONBONDED TABLE R-SQUARED SPACING: 0.0625
Info: NONBONDED TABLE SIZE: 705 POINTS
TCL: Running for 1500000 steps
ETITLE: TS BOND ANGLE DIHED IMPRP ELECT VDW BOUNDARY MISC KINETIC TOTAL TEMP POTENTIAL TOTALAVG TEMPAVG PRESSURE GPRESSURE VOLUME PRESSAVG GPRESSAVG
ENERGY: 0 0.8995 5.7269 7.2386 0.0000 -10495.7770 1406.4829 0.0000 0.0000 1733.9662 -7341.4630 299.4925 -9075.4292 -7341.4630 299.4925 -159.8403 -84.7032 30338.9401 -159.8403 -84.7032
ENERGY: 300000 1.1108 2.8190 7.2264 0.0000 -10566.4477 1434.0428 0.0000 0.0000 1753.6112 -7367.6375 302.8856 -9121.2487 -7360.5112 300.0343 95.8768 174.2203 29767.8645 -58.1338 15.4865
ENERGY: 600000 0.4084 4.8708 6.7532 0.0000 -10510.3685 1387.2344 0.0000 0.0000 1794.7803 -7316.3214 309.9964 -9111.1018 -7339.2377 302.7942 -219.3577 -116.3736 29849.4953 -138.2429 -65.8030
ENERGY: 900000 1.3225 4.3826 7.6921 0.0000 -10634.4599 1496.9104 0.0000 0.0000 1732.5325 -7391.6197 299.2449 -9124.1523 -7342.5174 302.1667 580.2461 619.5400 29934.9644 -73.8203 -5.3030
ENERGY: 1200000 4.4288 4.4700 6.1849 0.0000 -10521.8390 1396.0673 0.0000 0.0000 1763.0590 -7347.6289 304.5175 -9110.6879 -7349.8330 302.0164 -229.4383 -84.2160 29852.4364 -11.0738 60.3544
ENERGY: 1500000 2.8669 4.5159 5.7937 0.0000 -10441.5303 1400.9570 0.0000 0.0000 1736.8460 -7290.5508 299.9899 -9027.3967 -7348.3613 301.1229 63.3578 156.8852 29968.9969 -15.0934 54.6815
TCL: Running FEP window  18: Lambda1 0.8500000000000002 Lambda2 0.9000000000000002 [dLambda 0.050000000000000044]
TCL: Setting parameter firsttimestep to 0
TCL: Setting parameter alchLambda to 0.8500000000000002
Info: NONBONDED TABLE R-SQUARED SPACING: 0.0625
Info: NONBONDED TABLE SIZE: 705 POINTS
TCL: Setting parameter alchLambda2 to 0.9000000000000002
Info: NONBONDED TABLE R-SQUARED SPACING: 0.0625
Info: NONBONDED TABLE SIZE: 705 POINTS
TCL: Running for 1500000 steps
ETITLE: TS BOND ANGLE DIHED IMPRP ELECT VDW BOUNDARY MISC KINETIC TOTAL TEMP POTENTIAL TOTALAVG TEMPAVG PRESSURE GPRESSURE VOLUME PRESSAVG GPRESSAVG
ENERGY: 0 2.8669 4.5159 5.7937 0.0000 -10441.7348 1401.1173 0.0000 0.0000 1735.9700 -7291.4709 299.8386 -9027.4409 -7291.4709 299.8386 77.8421 164.9148 29968.9969 77.8421 164.9148
ENERGY: 300000 1.3950 3.0441 9.4743 0.0000 -10512.5231 1428.2350 0.0000 0.0000 1729.0051 -7341.3696 298.6357 -9070.3748 -7349.6724 299.2028 84.7640 191.9935 30076.2544 -37.1791 24.5829
ENERGY: 600000 0.1302 5.0710 6.9041 0.0000 -10500.6864 1408.5421 0.0000 0.0000 1695.0330 -7385.0060 292.7680 -9080.0391 -7367.9468 298.4691 -271.8732 -181.5369 30453.6693 -241.5403 -162.3053
ENERGY: 900000 2.0280 3.3850 6.7036 0.0000 -10593.0902 1479.4683 0.0000 0.0000 1723.5162 -7377.9891 297.6876 -9101.5053 -7356.0727 298.7856 583.9380 606.1208 30025.2409 -40.5275 32.7414
ENERGY: 1200000 0.5645 5.4631 9.9551 0.0000 -10587.4830 1381.4997 0.0000 0.0000 1733.1311 -7456.8695 299.3483 -9190.0006 -7364.2717 298.7492 -500.5078 -404.7772 29947.7543 -13.4192 57.2538
ENERGY: 1500000 1.1758 2.9275 4.4571 0.0000 -10649.5483 1466.6714 0.0000 0.0000 1754.0442 -7420.2722 302.9604 -9174.3165 -7370.3812 298.8367 430.0077 448.6158 29520.0420 11.4742 75.5579
TCL: Running FEP window  19: Lambda1 0.9000000000000002 Lambda2 0.9500000000000003 [dLambda 0.050000000000000044]
TCL: Setting parameter firsttimestep to 0
TCL: Setting parameter alchLambda to 0.9000000000000002
Info: NONBONDED TABLE R-SQUARED SPACING: 0.0625
Info: NONBONDED TABLE SIZE: 705 POINTS
TCL: Setting parameter alchLambda2 to 0.9500000000000003
Info: NONBONDED TABLE R-SQUARED SPACING: 0.0625
Info: NONBONDED TABLE SIZE: 705 POINTS
TCL: Running for 1500000 steps
ETITLE: TS BOND ANGLE DIHED IMPRP ELECT VDW BOUNDARY MISC KINETIC TOTAL TEMP POTENTIAL TOTALAVG TEMPAVG PRESSURE GPRESSURE VOLUME PRESSAVG GPRESSAVG
ENERGY: 0 1.1758 2.9275 4.4571 0.0000 -10649.7003 1466.3843 0.0000 0.0000 1753.1739 -7421.5817 302.8101 -9174.7556 -7421.5817 302.8101 382.0459 454.4877 29520.0420 382.0459 454.4877
ENERGY: 300000 1.1986 5.7958 6.1240 0.0000 -10541.4825 1394.3696 0.0000 0.0000 1709.5017 -7424.4927 295.2670 -9133.9944 -7427.7348 299.8470 -183.6614 -93.6583 29597.4446 -5.6290 46.8397
ENERGY: 600000 1.5068 4.4412 7.5112 0.0000 -10650.5280 1470.1812 0.0000 0.0000 1781.9240 -7384.9636 307.7759 -9166.8876 -7404.8253 300.7619 144.4889 207.2451 30268.6720 64.6513 113.5408
ENERGY: 900000 0.9446 5.3566 7.2587 0.0000 -10414.0083 1328.1818 0.0000 0.0000 1757.6596 -7314.6070 303.5849 -9072.2666 -7371.6388 303.0142 -470.5001 -477.6845 30066.3394 29.5248 71.0297
ENERGY: 1200000 1.3753 3.7737 5.3316 0.0000 -10534.1057 1414.5925 0.0000 0.0000 1763.0916 -7345.9410 304.5231 -9109.0326 -7376.1725 302.8929 -103.4835 -59.8851 30240.0483 3.0511 49.6807
ENERGY: 1500000 2.8170 2.6758 6.4473 0.0000 -10639.6606 1466.1631 0.0000 0.0000 1795.9760 -7365.5813 310.2029 -9161.5573 -7378.2151 303.4132 219.3709 322.8251 30041.8258 45.4068 97.3496
TCL: Running FEP window  20: Lambda1 0.9500000000000003 Lambda2 1.0    [dLambda 0.04999999999999971]
TCL: Setting parameter firsttimestep to 0
TCL: Setting parameter alchLambda to 0.9500000000000003
Info: NONBONDED TABLE R-SQUARED SPACING: 0.0625
Info: NONBONDED TABLE SIZE: 705 POINTS
TCL: Setting parameter alchLambda2 to 1.0
Info: NONBONDED TABLE R-SQUARED SPACING: 0.0625
Info: NONBONDED TABLE SIZE: 705 POINTS
TCL: Running for 1500000 steps
ETITLE: TS BOND ANGLE DIHED IMPRP ELECT VDW BOUNDARY MISC KINETIC TOTAL TEMP POTENTIAL TOTALAVG TEMPAVG PRESSURE GPRESSURE VOLUME PRESSAVG GPRESSAVG
ENERGY: 0 2.8170 2.6758 6.4473 0.0000 -10639.7743 1465.6880 0.0000 0.0000 1795.1158 -7367.0304 310.0544 -9162.1461 -7367.0304 310.0544 232.8682 322.4563 30041.8258 232.8682 322.4563
ENERGY: 300000 1.9153 3.7242 6.4326 0.0000 -10550.2379 1455.6196 0.0000 0.0000 1701.3771 -7381.1691 293.8637 -9082.5462 -7400.7473 299.6447 259.0151 387.0553 29884.4385 307.0333 406.6677
ENERGY: 600000 0.8357 5.0090 7.0076 0.0000 -10597.2346 1408.6325 0.0000 0.0000 1776.6534 -7399.0963 306.8655 -9175.7498 -7381.5788 300.5803 -120.0937 -17.5718 29741.1155 232.0303 310.9307
ENERGY: 900000 0.5553 2.4351 8.1594 0.0000 -10503.4875 1403.3861 0.0000 0.0000 1751.2210 -7337.7306 302.4728 -9088.9516 -7367.4205 302.0292 46.6928 96.1563 29937.5170 172.8407 245.5587
ENERGY: 1200000 0.4516 3.0001 5.7477 0.0000 -10531.0880 1398.8481 0.0000 0.0000 1746.9690 -7376.0716 301.7384 -9123.0405 -7362.7531 302.5591 -479.8054 -360.9245 30199.7600 10.7280 86.9136
ENERGY: 1500000 1.2810 4.9295 6.9970 0.0000 -10426.1470 1335.8319 0.0000 0.0000 1735.8183 -7341.2894 299.8124 -9077.1076 -7362.3318 302.3195 -249.0841 -243.7365 29502.3142 49.5872 118.1534
TCL: Exiting due to exit command.
