Info: SIMULATION PARAMETERS:
Info: TIMESTEP               2
Info: NUMBER OF STEPS        0
Info: STEPS PER CYCLE        10
Info: PERIODIC CELL BASIS 1  32.1836 0 0
Info: PERIODIC CELL BASIS 2  0 30.7776 0
Info: PERIODIC CELL BASIS 3  0 0 31.6886
Info: PERIODIC CELL CENTER   0 0 0
Info: WRAPPING WATERS AROUND PERIODIC BOUNDARIES ON OUTPUT.
Info: WRAPPING ALL CLUSTERS AROUND PERIODIC BOUNDARIES ON OUTPUT.
Info: FIRST LDB TIMESTEP     50
Info: LAST LDB TIMESTEP     -1
Info: HOM BACKGROUND SCALING 1
Info: PME BACKGROUND SCALING 1
Info: MIN ATOMS PER PATCH    40
Info: EMPTY PATCH LOAD       40 ATOMS
Info: VELOCITY FILE          mobley_1899443_equil.vel
Info: CENTER OF MASS MOVING INITIALLY? NO
Info: DIELECTRIC             1
Info: EXCLUDE                SCALED ONE-FOUR
Info: 1-4 ELECTROSTATICS SCALED BY 0.833333
Info: MODIFIED 1-4 VDW PARAMETERS WILL BE USED
Info: DCD FILENAME           mobley_1899443_prod.dcd
Info: DCD FREQUENCY          100000
Info: DCD FIRST STEP         100000
Info: DCD FILE WILL CONTAIN UNIT CELL DATA
Info: XST FILENAME           mobley_1899443_prod.xst
Info: XST FREQUENCY          100000
Info: NO VELOCITY DCD OUTPUT
Info: NO FORCE DCD OUTPUT
Info: OUTPUT FILENAME        mobley_1899443_prod
Info: BINARY OUTPUT FILES WILL BE USED
Info: RESTART FILENAME       mobley_1899443_prod.restart
Info: RESTART FREQUENCY      100000
Info: BINARY RESTART FILES WILL BE USED
Info: CUTOFF                 9
Info: PAIRLIST DISTANCE      11
Info: PAIRLIST SHRINK RATE   0.01
Info: PAIRLIST GROW RATE     0.01
Info: PAIRLIST TRIGGER       0.3
Info: PAIRLISTS PER CYCLE    2
Info: PAIRLISTS ENABLED
Info: MARGIN                 2
Info: HYDROGEN GROUP CUTOFF  2.5
Info: PATCH DIMENSION        15.5
Info: ENERGY OUTPUT STEPS    100000
Info: ENERGY EVALUATION STEPS    100000
Info: OUTPUT ENERGY PRECISION 4
Info: CROSSTERM ENERGY INCLUDED IN DIHEDRAL
Info: TIMING OUTPUT STEPS    1000000
Info: PRESSURE OUTPUT STEPS  100000
Info: ALCHEMICAL FEP ON
Info: FEP CURRENT LAMBDA VALUE     1
Info: FEP COMPARISON LAMBDA VALUE  0.95
Info: FEP INTRA-ALCHEMICAL NON-BONDED INTERACTIONS WILL BE RETAINED
Info: FEP INTRA-ALCHEMICAL BONDED INTERACTIONS WILL BE RETAINED
Info: FEP VDW SHIFTING COEFFICIENT 5
Info: FEP ELEC. ACTIVE FOR ANNIHILATED PARTICLES BETWEEN LAMBDA = 0 AND LAMBDA = 0.5
Info: FEP ELEC. ACTIVE FOR EXNIHILATED PARTICLES BETWEEN LAMBDA = 0.5 AND LAMBDA = 1
Info: FEP VDW ACTIVE FOR ANNIHILATED PARTICLES BETWEEN LAMBDA = 0 AND LAMBDA = 1
Info: FEP VDW ACTIVE FOR EXNIHILATED PARTICLES BETWEEN LAMBDA = 0 AND LAMBDA = 1
Info: FEP BOND ACTIVE FOR ANNIHILATED PARTICLES BETWEEN LAMBDA = 1 AND LAMBDA = 1
Info: FEP BOND ACTIVE FOR EXNIHILATED PARTICLES BETWEEN LAMBDA = 0 AND LAMBDA = 0
Info: LANGEVIN DYNAMICS ACTIVE
Info: LANGEVIN TEMPERATURE   300
Info: LANGEVIN USING BBK INTEGRATOR
Info: LANGEVIN DAMPING COEFFICIENT IS 1 INVERSE PS
Info: LANGEVIN DYNAMICS APPLIED TO HYDROGENS
Info: LANGEVIN PISTON PRESSURE CONTROL ACTIVE
Info:        TARGET PRESSURE IS 1.01325 BAR
Info:     OSCILLATION PERIOD IS 50 FS
Info:             DECAY TIME IS 25 FS
Info:     PISTON TEMPERATURE IS 300 K
Info:       PRESSURE CONTROL IS GROUP-BASED
Info:    INITIAL STRAIN RATE IS -0.000276833 -0.000276833 -0.000276833
Info:       CELL FLUCTUATION IS ISOTROPIC
Info: PARTICLE MESH EWALD (PME) ACTIVE
Info: PME TOLERANCE               1e-06
Info: PME EWALD COEFFICIENT       0.348832
Info: PME INTERPOLATION ORDER     4
Info: PME GRID DIMENSIONS         36 32 32
Info: PME MAXIMUM GRID SPACING    1
Info: PME CALCULATION WILL BE PERFORMED ON GPU
Info: FULL ELECTROSTATIC EVALUATION FREQUENCY      2
Info: USING VERLET I (r-RESPA) MTS SCHEME.
Info: C1 SPLITTING OF LONG RANGE ELECTROSTATICS
Info: PLACING ATOMS IN PATCHES BY HYDROGEN GROUPS
Info: RIGID BONDS TO HYDROGEN : ALL
Info:         ERROR TOLERANCE : 1e-08
Info:          MAX ITERATIONS : 100
Info: RIGID WATER USING SETTLE ALGORITHM
Info: RANDOM NUMBER SEED     1743849927
Info: USE HYDROGEN BONDS?    NO
Info: Using AMBER format force field!
Info: AMBER PARM FILE        mobley_1899443.prmtop
Info: COORDINATE PDB         mobley_1899443.pdb
Info: Exclusions will be read from PARM file!
Info: SCNB (VDW SCALING)     2
Info: USING ARITHMETIC MEAN TO COMBINE L-J SIGMA PARAMETERS
Info: BINARY COORDINATES     mobley_1899443_equil.coor
Info: SUMMARY OF PARAMETERS:
Info: 7 BONDS
Info: 9 ANGLES
Info:   9 HARMONIC
Info:   0 COSINE-BASED
Info: 8 DIHEDRAL
Info: 0 IMPROPER
Info: 0 CROSSTERM
Info: 0 VDW
Info: 21 VDW_PAIRS
Info: 0 NBTHOLE_PAIRS
Info: To read alchdata from file: mobley_1899443.pdb
Info: To read alchflag data from column: 5
Info: STRUCTURE SUMMARY:
Info: 3000 ATOMS
Info: 2999 BONDS
Info: 30 ANGLES
Info: 46 DIHEDRALS
Info: 0 IMPROPERS
Info: 0 CROSSTERMS
Info: 3063 EXCLUSIONS
Info: 2994 RIGID BONDS
Info: ALCH: 0 ATOMS TO DISAPPEAR IN FINAL STATE
Info: ALCH: 18 ATOMS TO APPEAR IN FINAL STATE
Info: 6006 DEGREES OF FREEDOM
Info: 1000 HYDROGEN GROUPS
Info: 4 ATOMS IN LARGEST HYDROGEN GROUP
Info: 1000 MIGRATION GROUPS
Info: 4 ATOMS IN LARGEST MIGRATION GROUP
Info: TOTAL MASS = 17992.1 amu
Info: TOTAL CHARGE = -0.000100013 e
Info: MASS DENSITY = 0.951849 g/cm^3
Info: ATOM DENSITY = 0.0955761 atoms/A^3
Info: ADDED 0 IMPLICIT EXCLUSIONS
Info: NONBONDED TABLE R-SQUARED SPACING: 0.0625
Info: NONBONDED TABLE SIZE: 705 POINTS
Info: REMOVING COM VELOCITY 0.0989887 0.016206 0.207065
Info: Use 3D box decompostion in PME FFT.
Info: Updated CUDA force table with 4096 elements.
Info: Updated CUDA LJ table with 6 x 6 elements.
Info: Found 21 unique exclusion lists needing 52 bytes
TCL: Running for 1500000 steps
ETITLE: TS BOND ANGLE DIHED IMPRP ELECT VDW BOUNDARY MISC KINETIC TOTAL TEMP POTENTIAL TOTALAVG TEMPAVG PRESSURE GPRESSURE VOLUME PRESSAVG GPRESSAVG
ENERGY: 0 0.6481 9.4066 7.8032 0.0000 -10855.0538 1496.5041 0.0000 0.0000 1798.5199 -7542.1718 301.3841 -9340.6917 -7542.1718 301.3841 87.3326 157.6860 31388.5950 87.3326 157.6860
ENERGY: 300000 0.1002 7.3769 7.0971 0.0000 -10940.8747 1544.9496 0.0000 0.0000 1764.5531 -7616.7979 295.6922 -9381.3510 -7606.1416 297.7111 977.3311 1099.9782 30154.5569 101.8423 171.7237
ENERGY: 600000 1.6545 5.6151 9.5580 0.0000 -10911.1340 1491.4850 0.0000 0.0000 1808.3450 -7594.4763 303.0305 -9402.8213 -7610.3861 299.3728 87.8074 126.8777 30705.3444 106.9108 176.7983
ENERGY: 900000 2.6448 7.2367 10.0860 0.0000 -10945.9167 1492.3078 0.0000 0.0000 1790.2520 -7643.3894 299.9986 -9433.6415 -7598.0787 299.2500 164.7835 203.5371 30791.7529 30.6360 92.2261
ENERGY: 1200000 1.9305 5.8857 7.9114 0.0000 -10954.8776 1482.8614 0.0000 0.0000 1816.7513 -7639.5373 304.4392 -9456.2886 -7596.2567 299.8415 50.1009 149.1586 30633.7480 -32.6150 25.2170
ENERGY: 1500000 3.6708 6.7048 6.3724 0.0000 -10768.9380 1421.9556 0.0000 0.0000 1750.2698 -7579.9645 293.2987 -9330.2343 -7593.9302 299.3273 -625.5561 -533.1125 31504.4918 -71.4266 -7.6644
TCL: Running FEP window   2: Lambda1 0.95   Lambda2 0.8999999999999999 [dLambda -0.050000000000000044]
TCL: Setting parameter firsttimestep to 0
TCL: Setting parameter alchLambda to 0.95
Info: NONBONDED TABLE R-SQUARED SPACING: 0.0625
Info: NONBONDED TABLE SIZE: 705 POINTS
TCL: Setting parameter alchLambda2 to 0.8999999999999999
Info: NONBONDED TABLE R-SQUARED SPACING: 0.0625
Info: NONBONDED TABLE SIZE: 705 POINTS
TCL: Running for 1500000 steps
ETITLE: TS BOND ANGLE DIHED IMPRP ELECT VDW BOUNDARY MISC KINETIC TOTAL TEMP POTENTIAL TOTALAVG TEMPAVG PRESSURE GPRESSURE VOLUME PRESSAVG GPRESSAVG
ENERGY: 0 3.6708 6.7048 6.3724 0.0000 -10768.9191 1422.1616 0.0000 0.0000 1749.3395 -7580.6699 293.1428 -9330.0095 -7580.6699 293.1428 -616.1303 -538.1090 31504.4918 -616.1303 -538.1090
ENERGY: 300000 1.6084 5.8218 5.5482 0.0000 -10646.0615 1365.4451 0.0000 0.0000 1753.1907 -7514.4472 293.7881 -9267.6380 -7551.0920 297.8610 -589.1284 -580.5831 31372.4133 -449.9089 -382.3355
ENERGY: 600000 1.8410 6.2019 9.3537 0.0000 -10919.1579 1466.4683 0.0000 0.0000 1843.7377 -7591.5552 308.9614 -9435.2929 -7549.9585 301.3505 197.8144 183.0688 30658.7304 -310.0776 -248.1611
ENERGY: 900000 1.6281 5.7543 8.6506 0.0000 -10868.6130 1472.3831 0.0000 0.0000 1765.9146 -7614.2822 295.9203 -9380.1968 -7566.3329 300.9102 -289.0187 -185.9335 31444.3329 -288.3779 -226.0781
ENERGY: 1200000 1.9776 8.2925 8.5287 0.0000 -10865.2812 1465.4066 0.0000 0.0000 1790.8038 -7590.2721 300.0911 -9381.0759 -7576.2564 301.1262 214.4713 307.2123 30573.8494 -254.1047 -185.9517
ENERGY: 1500000 0.7871 9.3806 6.2551 0.0000 -11018.3824 1559.2759 0.0000 0.0000 1821.6377 -7621.0461 305.2580 -9442.6838 -7589.4078 301.5326 516.0172 614.4315 31094.3721 -149.3685 -82.2055
TCL: Running FEP window   3: Lambda1 0.8999999999999999 Lambda2 0.8499999999999999 [dLambda -0.050000000000000044]
TCL: Setting parameter firsttimestep to 0
TCL: Setting parameter alchLambda to 0.8999999999999999
Info: NONBONDED TABLE R-SQUARED SPACING: 0.0625
Info: NONBONDED TABLE SIZE: 705 POINTS
TCL: Setting parameter alchLambda2 to 0.8499999999999999
Info: NONBONDED TABLE R-SQUARED SPACING: 0.0625
Info: NONBONDED TABLE SIZE: 705 POINTS
TCL: Running for 1500000 steps
ETITLE: TS BOND ANGLE DIHED IMPRP ELECT VDW BOUNDARY MISC KINETIC TOTAL TEMP POTENTIAL TOTALAVG TEMPAVG PRESSURE GPRESSURE VOLUME PRESSAVG GPRESSAVG
ENERGY: 0 0.7871 9.3806 6.2551 0.0000 -11018.4061 1559.7462 0.0000 0.0000 1820.7206 -7621.5166 305.1043 -9442.2372 -7621.5166 305.1043 526.7163 614.7132 31094.3721 526.7163 614.7132
ENERGY: 300000 3.1236 10.8730 8.2222 0.0000 -10777.5653 1415.1866 0.0000 0.0000 1835.5769 -7504.5829 307.5938 -9340.1598 -7564.9210 303.3065 -65.9778 -30.2607 30336.4129 95.5635 171.1549
ENERGY: 600000 2.3676 6.4997 7.9013 0.0000 -10817.7813 1379.3352 0.0000 0.0000 1790.8746 -7630.8029 300.1029 -9421.6775 -7585.9214 301.5877 -856.5420 -704.9350 30920.3624 -69.9025 7.6977
ENERGY: 900000 1.0974 5.4513 8.5298 0.0000 -10830.3096 1404.7798 0.0000 0.0000 1788.8126 -7621.6388 299.7574 -9410.4514 -7595.7862 300.7587 -564.9989 -535.9041 31070.8640 -133.8155 -67.5490
ENERGY: 1200000 2.0670 7.3711 7.3330 0.0000 -10871.6797 1457.2481 0.0000 0.0000 1734.2732 -7663.3874 290.6180 -9397.6606 -7591.5462 299.7456 -200.6795 -162.0541 31127.9884 -197.7098 -141.6986
ENERGY: 1500000 0.7407 3.6123 8.2083 0.0000 -10910.6707 1472.5786 0.0000 0.0000 1770.5616 -7654.9692 296.6990 -9425.5307 -7596.2798 299.9355 260.5134 296.3671 30352.7247 -146.5663 -86.5969
TCL: Running FEP window   4: Lambda1 0.8499999999999999 Lambda2 0.7999999999999998 [dLambda -0.050000000000000044]
TCL: Setting parameter firsttimestep to 0
TCL: Setting parameter alchLambda to 0.8499999999999999
Info: NONBONDED TABLE R-SQUARED SPACING: 0.0625
Info: NONBONDED TABLE SIZE: 705 POINTS
TCL: Setting parameter alchLambda2 to 0.7999999999999998
Info: NONBONDED TABLE R-SQUARED SPACING: 0.0625
Info: NONBONDED TABLE SIZE: 705 POINTS
TCL: Running for 1500000 steps
ETITLE: TS BOND ANGLE DIHED IMPRP ELECT VDW BOUNDARY MISC KINETIC TOTAL TEMP POTENTIAL TOTALAVG TEMPAVG PRESSURE GPRESSURE VOLUME PRESSAVG GPRESSAVG
ENERGY: 0 0.7407 3.6123 8.2083 0.0000 -10910.2893 1472.3728 0.0000 0.0000 1769.6497 -7655.7055 296.5462 -9425.3552 -7655.7055 296.5462 196.0448 281.0180 30352.7247 196.0448 281.0180
ENERGY: 300000 0.4088 7.9519 8.6070 0.0000 -10811.1711 1455.1155 0.0000 0.0000 1818.3818 -7520.7062 304.7124 -9339.0880 -7554.0339 300.2486 211.6320 302.4229 30459.7512 161.7849 201.0037
ENERGY: 600000 2.8978 7.4795 6.0388 0.0000 -10855.7464 1461.5037 0.0000 0.0000 1794.2758 -7583.5507 300.6729 -9377.8265 -7566.5526 298.3170 4.6457 75.1772 30750.2211 126.2194 181.0133
ENERGY: 900000 1.2688 6.9505 7.8049 0.0000 -10863.0415 1506.6801 0.0000 0.0000 1783.8836 -7556.4537 298.9314 -9340.3372 -7576.7490 298.2748 366.9646 459.1827 31404.2202 213.5195 279.6882
ENERGY: 1200000 2.0484 4.6320 6.3049 0.0000 -10996.9632 1585.6086 0.0000 0.0000 1776.2612 -7622.1081 297.6541 -9398.3693 -7587.6147 297.9183 903.6518 930.2262 30905.5152 212.2737 273.5712
ENERGY: 1500000 3.8205 4.6276 7.7372 0.0000 -10652.3380 1315.0162 0.0000 0.0000 1856.6288 -7464.5078 311.1216 -9321.1366 -7584.3683 298.6155 -1243.1550 -1108.2109 31551.8621 103.5932 171.0886
TCL: Running FEP window   5: Lambda1 0.7999999999999998 Lambda2 0.7499999999999998 [dLambda -0.050000000000000044]
TCL: Setting parameter firsttimestep to 0
TCL: Setting parameter alchLambda to 0.7999999999999998
Info: NONBONDED TABLE R-SQUARED SPACING: 0.0625
Info: NONBONDED TABLE SIZE: 705 POINTS
TCL: Setting parameter alchLambda2 to 0.7499999999999998
Info: NONBONDED TABLE R-SQUARED SPACING: 0.0625
Info: NONBONDED TABLE SIZE: 705 POINTS
TCL: Running for 1500000 steps
ETITLE: TS BOND ANGLE DIHED IMPRP ELECT VDW BOUNDARY MISC KINETIC TOTAL TEMP POTENTIAL TOTALAVG TEMPAVG PRESSURE GPRESSURE VOLUME PRESSAVG GPRESSAVG
ENERGY: 0 3.8205 4.6276 7.7372 0.0000 -10652.4508 1314.8192 0.0000 0.0000 1855.7541 -7465.6922 310.9750 -9321.4463 -7465.6922 310.9750 -1220.2407 -1123.8427 31551.8621 -1220.2407 -1123.8427
ENERGY: 300000 0.8634 9.5605 7.1668 0.0000 -10892.3763 1520.0338 0.0000 0.0000 1835.4146 -7519.3372 307.5666 -9354.7518 -7545.6897 307.1089 597.8804 641.0355 30900.7504 83.4438 153.0785
ENERGY: 600000 3.5113 8.3656 11.0983 0.0000 -10804.5893 1380.7189 0.0000 0.0000 1823.2692 -7577.6259 305.5314 -9400.8951 -7563.6392 304.4697 -602.8955 -545.3014 30712.7126 -118.0550 -49.1873
ENERGY: 900000 1.3276 9.5750 9.1132 0.0000 -10926.3564 1466.6700 0.0000 0.0000 1799.6763 -7639.9942 301.5779 -9439.6705 -7566.6696 304.3282 85.1075 163.5169 30348.3675 -82.0087 -12.7061
ENERGY: 1200000 1.1360 10.8157 7.8454 0.0000 -10952.9477 1513.8439 0.0000 0.0000 1740.2683 -7679.0385 291.6227 -9419.3068 -7579.8784 302.4863 456.4542 540.1232 30470.2633 -73.5668 -2.5276
ENERGY: 1500000 1.4326 7.8308 8.1609 0.0000 -10788.6306 1425.2082 0.0000 0.0000 1783.2876 -7562.7105 298.8315 -9345.9981 -7575.4299 302.2807 53.1704 128.2231 30680.8325 -53.5697 15.2361
TCL: Running FEP window   6: Lambda1 0.7499999999999998 Lambda2 0.6999999999999997 [dLambda -0.050000000000000044]
TCL: Setting parameter firsttimestep to 0
TCL: Setting parameter alchLambda to 0.7499999999999998
Info: NONBONDED TABLE R-SQUARED SPACING: 0.0625
Info: NONBONDED TABLE SIZE: 705 POINTS
TCL: Setting parameter alchLambda2 to 0.6999999999999997
Info: NONBONDED TABLE R-SQUARED SPACING: 0.0625
Info: NONBONDED TABLE SIZE: 705 POINTS
TCL: Running for 1500000 steps
ETITLE: TS BOND ANGLE DIHED IMPRP ELECT VDW BOUNDARY MISC KINETIC TOTAL TEMP POTENTIAL TOTALAVG TEMPAVG PRESSURE GPRESSURE VOLUME PRESSAVG GPRESSAVG
ENERGY: 0 1.4325 7.8308 8.1609 0.0000 -10788.5051 1425.6120 0.0000 0.0000 1782.3765 -7563.0923 298.6789 -9345.4688 -7563.0923 298.6789 44.3017 123.5343 30680.8325 44.3017 123.5343
ENERGY: 300000 0.3627 6.7364 8.0638 0.0000 -11012.7819 1578.8886 0.0000 0.0000 1787.0188 -7631.7116 299.4568 -9418.7303 -7595.3838 299.5433 1125.2654 1105.9632 30540.5450 441.9534 468.4446
ENERGY: 600000 0.3893 9.2650 9.1200 0.0000 -10871.5558 1452.6875 0.0000 0.0000 1780.7166 -7619.3774 298.4007 -9400.0940 -7593.2733 300.9306 -111.1557 1.2713 30658.9786 284.1186 325.6042
ENERGY: 900000 2.0157 8.3222 7.1459 0.0000 -10895.3327 1475.5630 0.0000 0.0000 1812.1849 -7590.1010 303.6740 -9402.2859 -7574.5676 302.7258 129.1668 157.0092 30599.5113 51.4497 95.4986
ENERGY: 1200000 1.0442 5.8006 7.6605 0.0000 -10725.7129 1354.2890 0.0000 0.0000 1823.0802 -7533.8384 305.4997 -9356.9185 -7563.2326 303.5281 -573.9600 -560.0008 31058.3717 -66.4136 -24.8233
ENERGY: 1500000 1.4656 8.1622 8.5851 0.0000 -10799.2156 1447.8707 0.0000 0.0000 1840.3339 -7492.7980 308.3910 -9333.1319 -7564.0915 303.9447 119.3861 87.7418 31135.4304 -66.4810 -20.5751
TCL: Running FEP window   7: Lambda1 0.6999999999999997 Lambda2 0.6499999999999997 [dLambda -0.050000000000000044]
TCL: Setting parameter firsttimestep to 0
TCL: Setting parameter alchLambda to 0.6999999999999997
Info: NONBONDED TABLE R-SQUARED SPACING: 0.0625
Info: NONBONDED TABLE SIZE: 705 POINTS
TCL: Setting parameter alchLambda2 to 0.6499999999999997
Info: NONBONDED TABLE R-SQUARED SPACING: 0.0625
Info: NONBONDED TABLE SIZE: 705 POINTS
TCL: Running for 1500000 steps
ETITLE: TS BOND ANGLE DIHED IMPRP ELECT VDW BOUNDARY MISC KINETIC TOTAL TEMP POTENTIAL TOTALAVG TEMPAVG PRESSURE GPRESSURE VOLUME PRESSAVG GPRESSAVG
ENERGY: 0 1.4656 8.1622 8.5851 0.0000 -10799.1034 1448.4108 0.0000 0.0000 1839.3840 -7493.0957 308.2318 -9332.4797 -7493.0957 308.2318 6.8532 86.4134 31135.4304 6.8532 86.4134
ENERGY: 300000 2.0018 11.4229 6.6002 0.0000 -10893.0908 1462.7274 0.0000 0.0000 1796.4324 -7613.9061 301.0343 -9410.3385 -7553.3616 305.5716 -238.5578 -159.1460 30983.7159 -7.6970 63.1744
ENERGY: 600000 0.8226 7.0834 9.2317 0.0000 -10744.8730 1369.8592 0.0000 0.0000 1778.8918 -7578.9842 298.0949 -9357.8760 -7565.9218 303.3762 -782.5946 -701.5557 31065.4268 -55.5852 10.4703
ENERGY: 900000 1.5672 7.8916 5.1535 0.0000 -10849.3586 1430.2713 0.0000 0.0000 1787.5810 -7616.8939 299.5510 -9404.4749 -7566.4687 301.4263 -468.0985 -408.3705 31117.6202 -64.0114 -2.7283
ENERGY: 1200000 2.3875 7.7529 7.0676 0.0000 -10744.0031 1419.5388 0.0000 0.0000 1805.4919 -7501.7643 302.5524 -9307.2562 -7566.9028 300.6461 -152.9448 -22.3905 31022.5924 -67.6712 4.3146
ENERGY: 1500000 1.9539 10.8254 6.1280 0.0000 -10752.3462 1371.1491 0.0000 0.0000 1730.1036 -7632.1862 289.9193 -9362.2898 -7569.5199 300.3057 -572.3166 -559.7325 30627.6228 -97.3526 -34.4124
TCL: Running FEP window   8: Lambda1 0.6499999999999997 Lambda2 0.5999999999999996 [dLambda -0.050000000000000044]
TCL: Setting parameter firsttimestep to 0
TCL: Setting parameter alchLambda to 0.6499999999999997
Info: NONBONDED TABLE R-SQUARED SPACING: 0.0625
Info: NONBONDED TABLE SIZE: 705 POINTS
TCL: Setting parameter alchLambda2 to 0.5999999999999996
Info: NONBONDED TABLE R-SQUARED SPACING: 0.0625
Info: NONBONDED TABLE SIZE: 705 POINTS
TCL: Running for 1500000 steps
ETITLE: TS BOND ANGLE DIHED IMPRP ELECT VDW BOUNDARY MISC KINETIC TOTAL TEMP POTENTIAL TOTALAVG TEMPAVG PRESSURE GPRESSURE VOLUME PRESSAVG GPRESSAVG
ENERGY: 0 1.9539 10.8254 6.1280 0.0000 -10752.3040 1370.8087 0.0000 0.0000 1729.2509 -7633.3371 289.7764 -9362.5879 -7633.3371 289.7764 -658.9557 -574.0513 30627.6228 -658.9557 -574.0513
ENERGY: 300000 0.7338 8.2007 8.9051 0.0000 -10892.9190 1455.7786 0.0000 0.0000 1809.0075 -7610.2934 303.1415 -9419.3009 -7590.0479 297.9870 -265.6874 -165.2295 30851.5798 -693.7356 -612.1241
ENERGY: 600000 1.0676 8.4980 8.1968 0.0000 -10874.4624 1475.7439 0.0000 0.0000 1849.1515 -7531.8047 309.8686 -9380.9562 -7581.8831 300.4803 218.5046 277.3581 30711.3368 -346.0678 -272.4890
ENERGY: 900000 0.1625 8.5116 6.7365 0.0000 -10856.3723 1467.2276 0.0000 0.0000 1738.2897 -7635.4443 291.2911 -9373.7340 -7588.6265 298.9474 346.1204 386.9190 30499.5708 -161.8347 -95.5589
ENERGY: 1200000 0.3820 6.4239 7.9599 0.0000 -10863.2283 1457.1536 0.0000 0.0000 1797.0091 -7594.2999 301.1309 -9391.3089 -7581.6465 300.3499 -10.6507 33.4150 30620.0668 -175.1167 -108.3915
ENERGY: 1500000 1.6744 9.1505 7.6081 0.0000 -10778.4493 1441.5927 0.0000 0.0000 1757.9052 -7560.5185 294.5781 -9318.4237 -7585.9010 299.8171 -306.7776 -248.0758 31512.5982 -203.8932 -136.8873
TCL: Running FEP window   9: Lambda1 0.5999999999999996 Lambda2 0.5499999999999996 [dLambda -0.050000000000000044]
TCL: Setting parameter firsttimestep to 0
TCL: Setting parameter alchLambda to 0.5999999999999996
Info: NONBONDED TABLE R-SQUARED SPACING: 0.0625
Info: NONBONDED TABLE SIZE: 705 POINTS
TCL: Setting parameter alchLambda2 to 0.5499999999999996
Info: NONBONDED TABLE R-SQUARED SPACING: 0.0625
Info: NONBONDED TABLE SIZE: 705 POINTS
TCL: Running for 1500000 steps
ETITLE: TS BOND ANGLE DIHED IMPRP ELECT VDW BOUNDARY MISC KINETIC TOTAL TEMP POTENTIAL TOTALAVG TEMPAVG PRESSURE GPRESSURE VOLUME PRESSAVG GPRESSAVG
ENERGY: 0 1.6744 9.1505 7.6081 0.0000 -10778.3671 1441.3344 0.0000 0.0000 1757.0491 -7561.5508 294.4347 -9318.5998 -7561.5508 294.4347 -331.8921 -259.4923 31512.5982 -331.8921 -259.4923
ENERGY: 300000 3.4240 8.2305 6.6118 0.0000 -10735.1636 1358.5366 0.0000 0.0000 1735.6551 -7622.7055 290.8496 -9358.3606 -7574.5358 298.8711 -532.7904 -502.1030 30592.5946 -372.1901 -304.8716
ENERGY: 600000 3.8051 8.7555 7.0930 0.0000 -10961.0789 1498.4284 0.0000 0.0000 1808.6399 -7634.3569 303.0799 -9442.9968 -7575.3915 300.5426 201.7969 349.3266 30787.3850 -318.2663 -243.6574
ENERGY: 900000 2.2529 4.1069 6.2774 0.0000 -10870.8576 1459.9287 0.0000 0.0000 1778.0658 -7620.2259 297.9565 -9398.2917 -7573.9624 301.0665 19.0504 125.1837 30680.3835 -300.4433 -232.7432
ENERGY: 1200000 1.3816 10.3025 8.7897 0.0000 -10782.8415 1425.5925 0.0000 0.0000 1808.8892 -7527.8860 303.1217 -9336.7752 -7561.6091 301.4472 -305.3883 -353.8853 31267.3339 -345.0918 -286.1762
ENERGY: 1500000 1.6755 7.1930 8.5764 0.0000 -10833.1025 1426.7432 0.0000 0.0000 1786.4754 -7602.4389 299.3657 -9388.9143 -7559.2124 301.8423 -205.9380 -150.3140 30684.2474 -309.0655 -250.2929
TCL: Running FEP window  10: Lambda1 0.5499999999999996 Lambda2 0.4999999999999996 [dLambda -0.04999999999999999]
TCL: Setting parameter firsttimestep to 0
TCL: Setting parameter alchLambda to 0.5499999999999996
Info: NONBONDED TABLE R-SQUARED SPACING: 0.0625
Info: NONBONDED TABLE SIZE: 705 POINTS
TCL: Setting parameter alchLambda2 to 0.4999999999999996
Info: NONBONDED TABLE R-SQUARED SPACING: 0.0625
Info: NONBONDED TABLE SIZE: 705 POINTS
TCL: Running for 1500000 steps
ETITLE: TS BOND ANGLE DIHED IMPRP ELECT VDW BOUNDARY MISC KINETIC TOTAL TEMP POTENTIAL TOTALAVG TEMPAVG PRESSURE GPRESSURE VOLUME PRESSAVG GPRESSAVG
ENERGY: 0 1.6755 7.1930 8.5764 0.0000 -10833.1132 1427.1698 0.0000 0.0000 1785.5952 -7602.9034 299.2182 -9388.4985 -7602.9034 299.2182 -226.0423 -151.9819 30684.2474 -226.0423 -151.9819
ENERGY: 300000 1.5127 11.5523 8.1035 0.0000 -10870.3669 1453.8666 0.0000 0.0000 1791.9812 -7603.3506 300.2884 -9395.3318 -7606.8546 300.0348 -138.2201 -115.0655 30719.2507 -32.8833 18.9544
ENERGY: 600000 0.7514 3.9381 7.0591 0.0000 -10859.5082 1438.3489 0.0000 0.0000 1800.8766 -7608.5341 301.7790 -9409.4106 -7620.5864 298.9738 -45.6789 -17.2052 30781.6600 61.3214 108.6610
ENERGY: 900000 1.1605 7.4778 6.5844 0.0000 -10791.9973 1399.5112 0.0000 0.0000 1724.1821 -7653.0812 288.9270 -9377.2634 -7614.0303 298.6302 -500.2893 -471.1922 30955.5969 1.5497 58.0649
ENERGY: 1200000 1.0922 10.0616 9.7847 0.0000 -10794.2786 1444.0220 0.0000 0.0000 1810.1385 -7519.1797 303.3310 -9329.3182 -7595.1752 299.4474 16.8583 98.8095 30709.7079 32.9423 89.9844
ENERGY: 1500000 2.5663 9.0375 6.9805 0.0000 -10895.4504 1466.4543 0.0000 0.0000 1801.2383 -7609.1734 301.8396 -9410.4117 -7589.8504 299.3871 59.0060 154.8839 30555.5701 54.4828 110.1420
TCL: Running FEP window  11: Lambda1 0.4999999999999996 Lambda2 0.4499999999999996 [dLambda -0.04999999999999999]
TCL: Setting parameter firsttimestep to 0
TCL: Setting parameter alchLambda to 0.4999999999999996
Info: NONBONDED TABLE R-SQUARED SPACING: 0.0625
Info: NONBONDED TABLE SIZE: 705 POINTS
TCL: Setting parameter alchLambda2 to 0.4499999999999996
Info: NONBONDED TABLE R-SQUARED SPACING: 0.0625
Info: NONBONDED TABLE SIZE: 705 POINTS
TCL: Running for 1500000 steps
ETITLE: TS BOND ANGLE DIHED IMPRP ELECT VDW BOUNDARY MISC KINETIC TOTAL TEMP POTENTIAL TOTALAVG TEMPAVG PRESSURE GPRESSURE VOLUME PRESSAVG GPRESSAVG
ENERGY: 0 2.5663 9.0375 6.9805 0.0000 -10895.4438 1466.9769 0.0000 0.0000 1800.3456 -7609.5369 301.6900 -9409.8825 -7609.5369 301.6900 81.0372 150.3579 30555.5701 81.0372 150.3579
ENERGY: 300000 2.4903 5.0328 9.0490 0.0000 -10950.5381 1487.2153 0.0000 0.0000 1768.3506 -7678.4001 296.3285 -9446.7507 -7630.6090 295.4831 225.8496 268.5758 30589.7182 382.3714 468.9855
ENERGY: 600000 1.4796 4.4528 7.4413 0.0000 -10807.8936 1428.9533 0.0000 0.0000 1736.0574 -7629.5093 290.9170 -9365.5666 -7639.2591 293.2013 -168.8205 -143.4239 30683.4716 130.8303 196.7072
ENERGY: 900000 0.8928 9.3505 6.4928 0.0000 -10858.8171 1444.1688 0.0000 0.0000 1746.9522 -7650.9600 292.7427 -9397.9122 -7627.5729 294.3002 -133.8862 -119.9472 30866.0271 137.2600 198.2257
ENERGY: 1200000 3.4575 3.3315 8.4100 0.0000 -10861.5545 1501.1185 0.0000 0.0000 1778.3855 -7566.8516 298.0101 -9345.2371 -7618.1261 295.5836 213.2440 266.4697 30851.4730 139.6257 205.0001
ENERGY: 1500000 0.2014 10.2655 7.5654 0.0000 -10729.3107 1424.8671 0.0000 0.0000 1797.5460 -7488.8653 301.2209 -9286.4113 -7605.9728 296.8678 -265.1053 -176.2760 31390.2756 30.5961 100.5916
TCL: Running FEP window  12: Lambda1 0.4499999999999996 Lambda2 0.39999999999999963 [dLambda -0.04999999999999999]
TCL: Setting parameter firsttimestep to 0
TCL: Setting parameter alchLambda to 0.4499999999999996
Info: NONBONDED TABLE R-SQUARED SPACING: 0.0625
Info: NONBONDED TABLE SIZE: 705 POINTS
TCL: Setting parameter alchLambda2 to 0.39999999999999963
Info: NONBONDED TABLE R-SQUARED SPACING: 0.0625
Info: NONBONDED TABLE SIZE: 705 POINTS
TCL: Running for 1500000 steps
ETITLE: TS BOND ANGLE DIHED IMPRP ELECT VDW BOUNDARY MISC KINETIC TOTAL TEMP POTENTIAL TOTALAVG TEMPAVG PRESSURE GPRESSURE VOLUME PRESSAVG GPRESSAVG
ENERGY: 0 0.2014 10.2655 7.5654 0.0000 -10729.3091 1424.7181 0.0000 0.0000 1796.6734 -7489.8852 301.0747 -9286.5587 -7489.8852 301.0747 -266.3259 -179.8001 31390.2756 -266.3259 -179.8001
ENERGY: 300000 4.1958 12.6657 7.8620 0.0000 -10812.7152 1472.6050 0.0000 0.0000 1780.2305 -7535.1561 298.3193 -9315.3866 -7571.8336 297.3371 56.2737 98.9873 30860.9405 -215.2327 -123.7446
ENERGY: 600000 1.3894 5.6116 8.0085 0.0000 -10968.1242 1552.8984 0.0000 0.0000 1780.0516 -7620.1647 298.2893 -9400.2163 -7583.9009 298.2757 389.1127 414.8563 31322.1521 -101.1812 -31.6152
ENERGY: 900000 1.7241 9.4025 8.4576 0.0000 -10999.3513 1525.5924 0.0000 0.0000 1774.8887 -7679.2859 297.4241 -9454.1746 -7585.5356 299.7592 188.8600 256.8451 30883.6173 -149.1551 -75.0492
ENERGY: 1200000 0.7737 8.6648 8.7827 0.0000 -10922.8072 1452.4044 0.0000 0.0000 1782.4195 -7669.7620 298.6861 -9452.1815 -7593.6144 299.1648 -219.9495 -198.5246 30658.6575 -220.5428 -150.4509
ENERGY: 1500000 2.0623 8.1578 7.2255 0.0000 -10860.1191 1465.8715 0.0000 0.0000 1711.9118 -7664.8901 286.8709 -9376.8019 -7594.9252 298.9383 -276.4087 -120.7855 30895.3873 -188.7404 -113.2136
TCL: Running FEP window  13: Lambda1 0.39999999999999963 Lambda2 0.34999999999999964 [dLambda -0.04999999999999999]
TCL: Setting parameter firsttimestep to 0
TCL: Setting parameter alchLambda to 0.39999999999999963
Info: NONBONDED TABLE R-SQUARED SPACING: 0.0625
Info: NONBONDED TABLE SIZE: 705 POINTS
TCL: Setting parameter alchLambda2 to 0.34999999999999964
Info: NONBONDED TABLE R-SQUARED SPACING: 0.0625
Info: NONBONDED TABLE SIZE: 705 POINTS
TCL: Running for 1500000 steps
ETITLE: TS BOND ANGLE DIHED IMPRP ELECT VDW BOUNDARY MISC KINETIC TOTAL TEMP POTENTIAL TOTALAVG TEMPAVG PRESSURE GPRESSURE VOLUME PRESSAVG GPRESSAVG
ENERGY: 0 2.0623 8.1578 7.2255 0.0000 -10860.1187 1466.4038 0.0000 0.0000 1711.0194 -7665.2498 286.7213 -9376.2691 -7665.2498 286.7213 -196.4414 -121.6412 30895.3873 -196.4414 -121.6412
ENERGY: 300000 1.0221 7.8622 8.2826 0.0000 -10806.9374 1487.7984 0.0000 0.0000 1810.3765 -7491.5956 303.3709 -9301.9721 -7625.6507 296.5383 305.8288 391.7632 30826.9396 -51.1333 0.9428
ENERGY: 600000 2.6162 8.7287 5.7043 0.0000 -10894.3280 1457.3874 0.0000 0.0000 1847.4922 -7572.3992 309.5905 -9419.8914 -7624.0145 298.4414 -492.2301 -438.4368 31559.3349 -168.9234 -109.1451
ENERGY: 900000 1.0752 5.5311 7.3486 0.0000 -10922.9382 1500.7462 0.0000 0.0000 1774.0716 -7634.1655 297.2872 -9408.2371 -7630.2618 297.7452 266.7098 355.4365 30441.4143 -113.7400 -46.3108
ENERGY: 1200000 2.7872 6.4256 5.7755 0.0000 -10846.0312 1460.2680 0.0000 0.0000 1791.5909 -7579.1839 300.2230 -9370.7748 -7618.7639 298.3226 190.5215 204.9928 30498.7499 -16.3869 44.3386
ENERGY: 1500000 2.6924 4.8989 8.6780 0.0000 -10700.3162 1379.7947 0.0000 0.0000 1792.7704 -7511.4817 300.4206 -9304.2521 -7605.2164 299.0881 -410.5567 -380.3169 30885.2086 -88.8560 -33.7544
TCL: Running FEP window  14: Lambda1 0.34999999999999964 Lambda2 0.29999999999999966 [dLambda -0.04999999999999999]
TCL: Setting parameter firsttimestep to 0
TCL: Setting parameter alchLambda to 0.34999999999999964
Info: NONBONDED TABLE R-SQUARED SPACING: 0.0625
Info: NONBONDED TABLE SIZE: 705 POINTS
TCL: Setting parameter alchLambda2 to 0.29999999999999966
Info: NONBONDED TABLE R-SQUARED SPACING: 0.0625
Info: NONBONDED TABLE SIZE: 705 POINTS
TCL: Running for 1500000 steps
ETITLE: TS BOND ANGLE DIHED IMPRP ELECT VDW BOUNDARY MISC KINETIC TOTAL TEMP POTENTIAL TOTALAVG TEMPAVG PRESSURE GPRESSURE VOLUME PRESSAVG GPRESSAVG
ENERGY: 0 2.6924 4.8989 8.6780 0.0000 -10700.3147 1379.5961 0.0000 0.0000 1791.8914 -7512.5579 300.2733 -9304.4493 -7512.5579 300.2733 -460.1898 -387.1095 30885.2086 -460.1898 -387.1095
ENERGY: 300000 0.5632 10.2540 8.3201 0.0000 -10921.7181 1500.0384 0.0000 0.0000 1727.8610 -7674.6815 289.5435 -9402.5424 -7602.7607 296.2997 358.6102 369.9160 30324.9299 -103.4184 -53.5151
ENERGY: 600000 0.9860 11.4241 7.8332 0.0000 -10972.0530 1519.0617 0.0000 0.0000 1833.9332 -7598.8147 307.3184 -9432.7479 -7586.2292 300.1996 413.6196 476.3776 30469.8694 244.0471 308.4206
ENERGY: 900000 0.5392 6.6497 8.1015 0.0000 -10775.4632 1354.5871 0.0000 0.0000 1876.3883 -7529.1975 314.4327 -9405.5858 -7580.6017 300.4252 -804.7915 -754.7408 30975.0391 44.0661 114.6256
ENERGY: 1200000 0.6840 8.7508 8.3771 0.0000 -10820.4166 1484.6502 0.0000 0.0000 1797.6664 -7520.2880 301.2411 -9317.9545 -7574.2412 300.2509 258.7331 300.8788 30977.6279 154.2595 216.7700
ENERGY: 1500000 0.5606 4.3886 7.9945 0.0000 -10862.5223 1514.1597 0.0000 0.0000 1818.3497 -7517.0692 304.7070 -9335.4189 -7564.9409 300.3483 589.8324 660.8723 30765.1240 163.6774 225.8014
TCL: Running FEP window  15: Lambda1 0.29999999999999966 Lambda2 0.24999999999999967 [dLambda -0.04999999999999999]
TCL: Setting parameter firsttimestep to 0
TCL: Setting parameter alchLambda to 0.29999999999999966
Info: NONBONDED TABLE R-SQUARED SPACING: 0.0625
Info: NONBONDED TABLE SIZE: 705 POINTS
TCL: Setting parameter alchLambda2 to 0.24999999999999967
Info: NONBONDED TABLE R-SQUARED SPACING: 0.0625
Info: NONBONDED TABLE SIZE: 705 POINTS
TCL: Running for 1500000 steps
ETITLE: TS BOND ANGLE DIHED IMPRP ELECT VDW BOUNDARY MISC KINETIC TOTAL TEMP POTENTIAL TOTALAVG TEMPAVG PRESSURE GPRESSURE VOLUME PRESSAVG GPRESSAVG
ENERGY: 0 0.5606 4.3886 7.9945 0.0000 -10862.5221 1514.2264 0.0000 0.0000 1817.4268 -7517.9252 304.5524 -9335.3520 -7517.9252 304.5524 582.6484 655.6897 30765.1240 582.6484 655.6897
ENERGY: 300000 2.2596 8.1277 11.2784 0.0000 -10947.9385 1500.1979 0.0000 0.0000 1826.3892 -7599.6858 306.0542 -9426.0749 -7576.0247 302.8948 196.2934 250.0613 30691.1544 342.7768 397.8384
ENERGY: 600000 0.2145 9.8098 8.0905 0.0000 -10796.5310 1438.4812 0.0000 0.0000 1785.2871 -7554.6479 299.1666 -9339.9350 -7576.3181 301.4562 -186.8796 -152.2700 31079.9058 283.0112 325.1599
ENERGY: 900000 1.6786 7.4789 9.3589 0.0000 -10894.4924 1456.5803 0.0000 0.0000 1801.9142 -7617.4814 301.9529 -9419.3956 -7577.8761 300.8466 -104.4198 -46.0438 30473.5731 246.5374 294.6002
ENERGY: 1200000 0.8011 8.4619 8.2331 0.0000 -10979.6299 1541.3427 0.0000 0.0000 1796.3165 -7624.4746 301.0148 -9420.7911 -7589.4426 300.4506 586.9881 619.2410 30705.5206 183.7012 235.7582
ENERGY: 1500000 1.5753 6.6049 7.8484 0.0000 -10713.9532 1370.4876 0.0000 0.0000 1734.7763 -7592.6607 290.7023 -9327.4370 -7593.8648 299.5990 -620.4435 -618.0421 31031.7923 131.5900 183.9715
TCL: Running FEP window  16: Lambda1 0.24999999999999967 Lambda2 0.19999999999999968 [dLambda -0.04999999999999999]
TCL: Setting parameter firsttimestep to 0
TCL: Setting parameter alchLambda to 0.24999999999999967
Info: NONBONDED TABLE R-SQUARED SPACING: 0.0625
Info: NONBONDED TABLE SIZE: 705 POINTS
TCL: Setting parameter alchLambda2 to 0.19999999999999968
Info: NONBONDED TABLE R-SQUARED SPACING: 0.0625
Info: NONBONDED TABLE SIZE: 705 POINTS
TCL: Running for 1500000 steps
ETITLE: TS BOND ANGLE DIHED IMPRP ELECT VDW BOUNDARY MISC KINETIC TOTAL TEMP POTENTIAL TOTALAVG TEMPAVG PRESSURE GPRESSURE VOLUME PRESSAVG GPRESSAVG
ENERGY: 0 1.5753 6.6049 7.8484 0.0000 -10713.9540 1370.3716 0.0000 0.0000 1733.9106 -7593.6433 290.5573 -9327.5539 -7593.6433 290.5573 -705.0040 -623.0941 31031.7923 -705.0040 -623.0941
ENERGY: 300000 1.4632 8.0981 7.9059 0.0000 -10791.9375 1434.6145 0.0000 0.0000 1771.4773 -7568.3784 296.8525 -9339.8557 -7615.4066 294.8726 -43.2095 -39.5163 30674.1348 -404.4314 -328.2499
ENERGY: 600000 2.3876 7.8876 6.9726 0.0000 -10868.3381 1465.3342 0.0000 0.0000 1837.8856 -7547.8704 307.9807 -9385.7560 -7590.9954 298.8492 -67.6422 25.6822 30787.1267 -384.4735 -299.2144
ENERGY: 900000 1.4853 7.4704 8.4209 0.0000 -10895.6807 1521.6205 0.0000 0.0000 1803.3722 -7553.3113 302.1972 -9356.6835 -7595.4270 299.2924 474.2213 488.6439 31031.4427 -189.3829 -118.9801
ENERGY: 1200000 0.7287 6.4302 7.4236 0.0000 -10991.2954 1507.7590 0.0000 0.0000 1774.5031 -7694.4509 297.3595 -9468.9540 -7596.7752 300.2915 -51.9975 23.4320 30797.6236 -163.3194 -99.1517
ENERGY: 1500000 2.6406 2.6548 9.1511 0.0000 -10898.6172 1536.6493 0.0000 0.0000 1763.6784 -7583.8431 295.5456 -9347.5215 -7595.4325 300.0735 436.7600 522.5375 30780.5798 -131.8975 -61.1355
TCL: Running FEP window  17: Lambda1 0.19999999999999968 Lambda2 0.1499999999999997 [dLambda -0.04999999999999999]
TCL: Setting parameter firsttimestep to 0
TCL: Setting parameter alchLambda to 0.19999999999999968
Info: NONBONDED TABLE R-SQUARED SPACING: 0.0625
Info: NONBONDED TABLE SIZE: 705 POINTS
TCL: Setting parameter alchLambda2 to 0.1499999999999997
Info: NONBONDED TABLE R-SQUARED SPACING: 0.0625
Info: NONBONDED TABLE SIZE: 705 POINTS
TCL: Running for 1500000 steps
ETITLE: TS BOND ANGLE DIHED IMPRP ELECT VDW BOUNDARY MISC KINETIC TOTAL TEMP POTENTIAL TOTALAVG TEMPAVG PRESSURE GPRESSURE VOLUME PRESSAVG GPRESSAVG
ENERGY: 0 2.6406 2.6548 9.1511 0.0000 -10898.6177 1536.5234 0.0000 0.0000 1762.7611 -7584.8868 295.3919 -9347.6478 -7584.8868 295.3919 439.9604 520.0468 30780.5798 439.9604 520.0468
ENERGY: 300000 0.6922 6.3562 7.8818 0.0000 -10914.1850 1425.9962 0.0000 0.0000 1781.7592 -7691.4993 298.5754 -9473.2586 -7617.4962 297.3122 -424.3712 -348.1576 30548.1348 44.0541 119.5939
ENERGY: 600000 0.8987 8.1506 9.2077 0.0000 -10778.3214 1427.6735 0.0000 0.0000 1841.4568 -7490.9340 308.5792 -9332.3908 -7612.2090 299.0602 -185.9523 -117.1229 31023.2931 19.4790 82.2029
ENERGY: 900000 1.7177 6.0143 7.5203 0.0000 -10676.1539 1406.7871 0.0000 0.0000 1827.4106 -7426.7040 306.2254 -9254.1146 -7566.4212 301.1168 -463.6533 -434.4263 31890.9384 -96.6082 -43.3872
ENERGY: 1200000 1.3778 7.1789 8.8890 0.0000 -10840.1403 1430.3224 0.0000 0.0000 1787.5723 -7604.8000 299.5496 -9392.3723 -7569.1197 301.6728 -551.5785 -523.7316 31204.6417 -140.2297 -85.1990
ENERGY: 1500000 0.4205 5.2283 7.9176 0.0000 -10654.8943 1359.1295 0.0000 0.0000 1772.2244 -7509.9740 296.9776 -9282.1983 -7571.5600 300.4240 -694.3221 -636.4831 31100.6864 -117.7566 -56.3107
TCL: Running FEP window  18: Lambda1 0.1499999999999997 Lambda2 0.09999999999999969 [dLambda -0.05 ]
TCL: Setting parameter firsttimestep to 0
TCL: Setting parameter alchLambda to 0.1499999999999997
Info: NONBONDED TABLE R-SQUARED SPACING: 0.0625
Info: NONBONDED TABLE SIZE: 705 POINTS
TCL: Setting parameter alchLambda2 to 0.09999999999999969
Info: NONBONDED TABLE R-SQUARED SPACING: 0.0625
Info: NONBONDED TABLE SIZE: 705 POINTS
TCL: Running for 1500000 steps
ETITLE: TS BOND ANGLE DIHED IMPRP ELECT VDW BOUNDARY MISC KINETIC TOTAL TEMP POTENTIAL TOTALAVG TEMPAVG PRESSURE GPRESSURE VOLUME PRESSAVG GPRESSAVG
ENERGY: 0 0.4205 5.2283 7.9176 0.0000 -10654.8935 1358.7483 0.0000 0.0000 1771.3282 -7511.2507 296.8275 -9282.5789 -7511.2507 296.8275 -710.9572 -640.4538 31100.6864 -710.9572 -640.4538
ENERGY: 300000 2.7740 6.1574 7.3829 0.0000 -10854.3544 1443.5062 0.0000 0.0000 1797.4996 -7597.0342 301.2131 -9394.5338 -7578.0025 297.8222 -316.7812 -267.7947 30824.0987 -230.8789 -180.9723
ENERGY: 600000 1.2181 9.0047 9.7016 0.0000 -10866.1291 1471.3499 0.0000 0.0000 1755.3622 -7619.4927 294.1520 -9374.8548 -7582.0133 298.9159 -270.3110 -266.6232 31384.6779 -188.9559 -131.5125
ENERGY: 900000 1.3600 14.3739 12.3752 0.0000 -10861.2360 1488.4344 0.0000 0.0000 1710.2797 -7634.4127 286.5974 -9344.6925 -7586.6668 297.4418 308.2771 355.5253 30406.1236 -135.3964 -81.3488
ENERGY: 1200000 1.2122 5.5610 8.1643 0.0000 -10843.6821 1450.7212 0.0000 0.0000 1779.8839 -7598.1397 298.2612 -9378.0235 -7577.4521 298.9329 -30.7001 -16.4609 30580.4568 -62.8691 -4.8207
ENERGY: 1500000 0.7565 7.3509 8.7864 0.0000 -10801.0009 1461.7863 0.0000 0.0000 1776.4408 -7545.8800 297.6842 -9322.3208 -7575.3254 299.7344 334.1331 395.3393 30199.9891 -44.3942 9.8922
TCL: Running FEP window  19: Lambda1 0.09999999999999969 Lambda2 0.049999999999999684 [dLambda -0.05 ]
TCL: Setting parameter firsttimestep to 0
TCL: Setting parameter alchLambda to 0.09999999999999969
Info: NONBONDED TABLE R-SQUARED SPACING: 0.0625
Info: NONBONDED TABLE SIZE: 705 POINTS
TCL: Setting parameter alchLambda2 to 0.049999999999999684
Info: NONBONDED TABLE R-SQUARED SPACING: 0.0625
Info: NONBONDED TABLE SIZE: 705 POINTS
TCL: Running for 1500000 steps
ETITLE: TS BOND ANGLE DIHED IMPRP ELECT VDW BOUNDARY MISC KINETIC TOTAL TEMP POTENTIAL TOTALAVG TEMPAVG PRESSURE GPRESSURE VOLUME PRESSAVG GPRESSAVG
ENERGY: 0 0.7565 7.3509 8.7864 0.0000 -10801.0009 1461.8223 0.0000 0.0000 1775.5555 -7546.7293 297.5359 -9322.2848 -7546.7293 297.5359 309.2252 393.2120 30199.9891 309.2252 393.2120
ENERGY: 300000 0.2545 10.8936 7.1040 0.0000 -10737.1465 1409.0909 0.0000 0.0000 1822.4036 -7487.3999 305.3863 -9309.8035 -7524.5101 302.0023 -148.3280 -58.8356 30784.8300 119.6615 191.4680
ENERGY: 600000 1.6994 7.9287 8.5305 0.0000 -10993.1618 1581.7004 0.0000 0.0000 1767.0170 -7626.2857 296.1050 -9393.3027 -7543.4857 302.4372 1149.0035 1255.3771 30154.7423 174.1848 234.9545
ENERGY: 900000 2.6973 4.8094 7.9926 0.0000 -10943.5982 1536.5987 0.0000 0.0000 1797.9623 -7593.5381 301.2906 -9391.5003 -7566.8043 301.5577 611.4280 628.3332 30500.9027 121.2199 177.8220
ENERGY: 1200000 1.5888 9.6042 7.6729 0.0000 -10844.5135 1441.2071 0.0000 0.0000 1787.8913 -7596.5493 299.6030 -9384.4406 -7575.3270 300.8411 -183.7536 -90.2165 30363.0162 4.0034 58.4317
ENERGY: 1500000 2.8727 8.0588 7.4056 0.0000 -10513.0634 1242.3498 0.0000 0.0000 1787.6118 -7464.7647 299.5562 -9252.3765 -7565.8009 300.4304 -1608.8047 -1536.6442 31595.3754 -110.8975 -55.9704
TCL: Running FEP window  20: Lambda1 0.049999999999999684 Lambda2 0.0    [dLambda -0.049999999999999684]
TCL: Setting parameter firsttimestep to 0
TCL: Setting parameter alchLambda to 0.049999999999999684
Info: NONBONDED TABLE R-SQUARED SPACING: 0.0625
Info: NONBONDED TABLE SIZE: 705 POINTS
TCL: Setting parameter alchLambda2 to 0.0
Info: NONBONDED TABLE R-SQUARED SPACING: 0.0625
Info: NONBONDED TABLE SIZE: 705 POINTS
TCL: Running for 1500000 steps
ETITLE: TS BOND ANGLE DIHED IMPRP ELECT VDW BOUNDARY MISC KINETIC TOTAL TEMP POTENTIAL TOTALAVG TEMPAVG PRESSURE GPRESSURE VOLUME PRESSAVG GPRESSAVG
ENERGY: 0 2.8727 8.0588 7.4056 0.0000 -10513.0637 1241.6762 0.0000 0.0000 1786.7335 -7466.3168 299.4090 -9253.0504 -7466.3168 299.4090 -1625.0446 -1540.7002 31595.3754 -1625.0446 -1540.7002
ENERGY: 300000 0.8347 6.2443 8.8521 0.0000 -10831.9317 1393.7883 0.0000 0.0000 1782.9298 -7639.2826 298.7716 -9422.2124 -7578.5496 300.2926 -481.1850 -421.7660 30230.6973 -327.2699 -250.2740
ENERGY: 600000 5.7800 5.2978 7.8831 0.0000 -10815.0111 1361.6823 0.0000 0.0000 1764.6788 -7669.6891 295.7132 -9434.3679 -7604.8502 298.0089 -697.8644 -660.4444 30101.2352 -293.5962 -237.0314
ENERGY: 900000 2.4549 4.8004 6.7211 0.0000 -11032.5945 1559.8002 0.0000 0.0000 1782.3024 -7676.5154 298.6664 -9458.8178 -7599.7507 299.4528 889.8173 952.8792 30002.1631 -113.7130 -61.1423
ENERGY: 1200000 3.7142 8.1356 8.6134 0.0000 -10863.6320 1450.0626 0.0000 0.0000 1771.2685 -7621.8378 296.8175 -9393.1062 -7601.4623 299.5456 -326.8088 -231.9798 30966.2761 -187.4730 -136.5833
ENERGY: 1500000 0.3739 7.3612 7.9132 0.0000 -10886.6136 1482.6533 0.0000 0.0000 1807.3084 -7581.0035 302.8568 -9388.3120 -7593.0196 299.9289 -79.3372 34.1251 30923.5505 -149.9099 -93.3296
TCL: Exiting due to exit command.
