Info: SIMULATION PARAMETERS:
Info: TIMESTEP               2
Info: NUMBER OF STEPS        0
Info: STEPS PER CYCLE        10
Info: PERIODIC CELL BASIS 1  30.2717 0 0
Info: PERIODIC CELL BASIS 2  0 31.6628 0
Info: PERIODIC CELL BASIS 3  0 0 32.0345
Info: PERIODIC CELL CENTER   0 0 0
Info: WRAPPING WATERS AROUND PERIODIC BOUNDARIES ON OUTPUT.
Info: WRAPPING ALL CLUSTERS AROUND PERIODIC BOUNDARIES ON OUTPUT.
Info: FIRST LDB TIMESTEP     50
Info: LAST LDB TIMESTEP     -1
Info: HOM BACKGROUND SCALING 1
Info: PME BACKGROUND SCALING 1
Info: MIN ATOMS PER PATCH    40
Info: EMPTY PATCH LOAD       40 ATOMS
Info: VELOCITY FILE          mobley_8467917_equil.vel
Info: CENTER OF MASS MOVING INITIALLY? NO
Info: DIELECTRIC             1
Info: EXCLUDE                SCALED ONE-FOUR
Info: 1-4 ELECTROSTATICS SCALED BY 0.833333
Info: MODIFIED 1-4 VDW PARAMETERS WILL BE USED
Info: DCD FILENAME           mobley_8467917_prod.dcd
Info: DCD FREQUENCY          100000
Info: DCD FIRST STEP         100000
Info: DCD FILE WILL CONTAIN UNIT CELL DATA
Info: XST FILENAME           mobley_8467917_prod.xst
Info: XST FREQUENCY          100000
Info: NO VELOCITY DCD OUTPUT
Info: NO FORCE DCD OUTPUT
Info: OUTPUT FILENAME        mobley_8467917_prod
Info: BINARY OUTPUT FILES WILL BE USED
Info: RESTART FILENAME       mobley_8467917_prod.restart
Info: RESTART FREQUENCY      100000
Info: BINARY RESTART FILES WILL BE USED
Info: CUTOFF                 9
Info: PAIRLIST DISTANCE      11
Info: PAIRLIST SHRINK RATE   0.01
Info: PAIRLIST GROW RATE     0.01
Info: PAIRLIST TRIGGER       0.3
Info: PAIRLISTS PER CYCLE    2
Info: PAIRLISTS ENABLED
Info: MARGIN                 2
Info: HYDROGEN GROUP CUTOFF  2.5
Info: PATCH DIMENSION        15.5
Info: ENERGY OUTPUT STEPS    100000
Info: ENERGY EVALUATION STEPS    100000
Info: OUTPUT ENERGY PRECISION 4
Info: CROSSTERM ENERGY INCLUDED IN DIHEDRAL
Info: TIMING OUTPUT STEPS    1000000
Info: PRESSURE OUTPUT STEPS  100000
Info: ALCHEMICAL FEP ON
Info: FEP CURRENT LAMBDA VALUE     1
Info: FEP COMPARISON LAMBDA VALUE  0.95
Info: FEP INTRA-ALCHEMICAL NON-BONDED INTERACTIONS WILL BE RETAINED
Info: FEP INTRA-ALCHEMICAL BONDED INTERACTIONS WILL BE RETAINED
Info: FEP VDW SHIFTING COEFFICIENT 5
Info: FEP ELEC. ACTIVE FOR ANNIHILATED PARTICLES BETWEEN LAMBDA = 0 AND LAMBDA = 0.5
Info: FEP ELEC. ACTIVE FOR EXNIHILATED PARTICLES BETWEEN LAMBDA = 0.5 AND LAMBDA = 1
Info: FEP VDW ACTIVE FOR ANNIHILATED PARTICLES BETWEEN LAMBDA = 0 AND LAMBDA = 1
Info: FEP VDW ACTIVE FOR EXNIHILATED PARTICLES BETWEEN LAMBDA = 0 AND LAMBDA = 1
Info: FEP BOND ACTIVE FOR ANNIHILATED PARTICLES BETWEEN LAMBDA = 1 AND LAMBDA = 1
Info: FEP BOND ACTIVE FOR EXNIHILATED PARTICLES BETWEEN LAMBDA = 0 AND LAMBDA = 0
Info: LANGEVIN DYNAMICS ACTIVE
Info: LANGEVIN TEMPERATURE   300
Info: LANGEVIN USING BBK INTEGRATOR
Info: LANGEVIN DAMPING COEFFICIENT IS 1 INVERSE PS
Info: LANGEVIN DYNAMICS APPLIED TO HYDROGENS
Info: LANGEVIN PISTON PRESSURE CONTROL ACTIVE
Info:        TARGET PRESSURE IS 1.01325 BAR
Info:     OSCILLATION PERIOD IS 50 FS
Info:             DECAY TIME IS 25 FS
Info:     PISTON TEMPERATURE IS 300 K
Info:       PRESSURE CONTROL IS GROUP-BASED
Info:    INITIAL STRAIN RATE IS -0.000181437 -0.000181437 -0.000181437
Info:       CELL FLUCTUATION IS ISOTROPIC
Info: PARTICLE MESH EWALD (PME) ACTIVE
Info: PME TOLERANCE               1e-06
Info: PME EWALD COEFFICIENT       0.348832
Info: PME INTERPOLATION ORDER     4
Info: PME GRID DIMENSIONS         32 32 36
Info: PME MAXIMUM GRID SPACING    1
Info: PME CALCULATION WILL BE PERFORMED ON GPU
Info: FULL ELECTROSTATIC EVALUATION FREQUENCY      2
Info: USING VERLET I (r-RESPA) MTS SCHEME.
Info: C1 SPLITTING OF LONG RANGE ELECTROSTATICS
Info: PLACING ATOMS IN PATCHES BY HYDROGEN GROUPS
Info: RIGID BONDS TO HYDROGEN : ALL
Info:         ERROR TOLERANCE : 1e-08
Info:          MAX ITERATIONS : 100
Info: RIGID WATER USING SETTLE ALGORITHM
Info: RANDOM NUMBER SEED     1743934225
Info: USE HYDROGEN BONDS?    NO
Info: Using AMBER format force field!
Info: AMBER PARM FILE        mobley_8467917.prmtop
Info: COORDINATE PDB         mobley_8467917.pdb
Info: Exclusions will be read from PARM file!
Info: SCNB (VDW SCALING)     2
Info: USING ARITHMETIC MEAN TO COMBINE L-J SIGMA PARAMETERS
Info: BINARY COORDINATES     mobley_8467917_equil.coor
Info: SUMMARY OF PARAMETERS:
Info: 7 BONDS
Info: 8 ANGLES
Info:   8 HARMONIC
Info:   0 COSINE-BASED
Info: 12 DIHEDRAL
Info: 0 IMPROPER
Info: 0 CROSSTERM
Info: 0 VDW
Info: 21 VDW_PAIRS
Info: 0 NBTHOLE_PAIRS
Info: To read alchdata from file: mobley_8467917.pdb
Info: To read alchflag data from column: 5
Info: STRUCTURE SUMMARY:
Info: 3000 ATOMS
Info: 2999 BONDS
Info: 36 ANGLES
Info: 58 DIHEDRALS
Info: 0 IMPROPERS
Info: 0 CROSSTERMS
Info: 3078 EXCLUSIONS
Info: 2993 RIGID BONDS
Info: ALCH: 0 ATOMS TO DISAPPEAR IN FINAL STATE
Info: ALCH: 21 ATOMS TO APPEAR IN FINAL STATE
Info: 6007 DEGREES OF FREEDOM
Info: 1000 HYDROGEN GROUPS
Info: 4 ATOMS IN LARGEST HYDROGEN GROUP
Info: 1000 MIGRATION GROUPS
Info: 4 ATOMS IN LARGEST MIGRATION GROUP
Info: TOTAL MASS = 17988.1 amu
Info: TOTAL CHARGE = -0.000200003 e
Info: MASS DENSITY = 0.972835 g/cm^3
Info: ATOM DENSITY = 0.0977049 atoms/A^3
Info: ADDED 0 IMPLICIT EXCLUSIONS
Info: NONBONDED TABLE R-SQUARED SPACING: 0.0625
Info: NONBONDED TABLE SIZE: 705 POINTS
Info: REMOVING COM VELOCITY -0.205205 -0.0157109 -0.105316
Info: Use 3D box decompostion in PME FFT.
Info: Updated CUDA force table with 4096 elements.
Info: Updated CUDA LJ table with 6 x 6 elements.
Info: Found 23 unique exclusion lists needing 64 bytes
TCL: Running for 1500000 steps
ETITLE: TS BOND ANGLE DIHED IMPRP ELECT VDW BOUNDARY MISC KINETIC TOTAL TEMP POTENTIAL TOTALAVG TEMPAVG PRESSURE GPRESSURE VOLUME PRESSAVG GPRESSAVG
ENERGY: 0 1.8322 9.8822 11.8570 0.0000 -10866.5946 1459.9241 0.0000 0.0000 1807.3678 -7575.7313 302.8163 -9383.0990 -7575.7313 302.8163 -29.3232 56.2641 30704.6931 -29.3232 56.2641
ENERGY: 300000 3.5883 10.5928 9.7123 0.0000 -10675.5062 1364.8596 0.0000 0.0000 1809.2975 -7477.4556 303.1397 -9286.7531 -7558.8529 298.8836 -358.7904 -288.8085 31024.1534 124.8518 207.9768
ENERGY: 600000 0.8864 7.8371 11.2944 0.0000 -10912.2874 1471.7548 0.0000 0.0000 1759.0188 -7661.4959 294.7157 -9420.5147 -7564.6778 298.2816 -8.2052 59.3664 31011.8555 167.9691 235.8722
ENERGY: 900000 1.5613 9.5390 12.7099 0.0000 -10782.9323 1489.1635 0.0000 0.0000 1730.5246 -7539.4341 289.9416 -9269.9586 -7567.3876 297.1792 258.6267 245.1122 31335.4496 72.3441 136.0568
ENERGY: 1200000 1.2878 8.2490 11.1588 0.0000 -10936.4623 1542.9227 0.0000 0.0000 1800.6882 -7572.1558 301.6972 -9372.8440 -7566.0458 298.4199 829.1681 817.0484 30719.0498 128.5991 185.0449
ENERGY: 1500000 1.6235 9.9942 11.1267 0.0000 -11005.9343 1581.6066 0.0000 0.0000 1799.2545 -7602.3289 301.4570 -9401.5834 -7569.9419 298.6870 1049.6775 1140.9929 30326.5008 65.8418 129.7703
TCL: Running FEP window   2: Lambda1 0.95   Lambda2 0.8999999999999999 [dLambda -0.050000000000000044]
TCL: Setting parameter firsttimestep to 0
TCL: Setting parameter alchLambda to 0.95
Info: NONBONDED TABLE R-SQUARED SPACING: 0.0625
Info: NONBONDED TABLE SIZE: 705 POINTS
TCL: Setting parameter alchLambda2 to 0.8999999999999999
Info: NONBONDED TABLE R-SQUARED SPACING: 0.0625
Info: NONBONDED TABLE SIZE: 705 POINTS
TCL: Running for 1500000 steps
ETITLE: TS BOND ANGLE DIHED IMPRP ELECT VDW BOUNDARY MISC KINETIC TOTAL TEMP POTENTIAL TOTALAVG TEMPAVG PRESSURE GPRESSURE VOLUME PRESSAVG GPRESSAVG
ENERGY: 0 1.6235 9.9942 11.1267 0.0000 -11005.8437 1582.1457 0.0000 0.0000 1798.3538 -7602.5999 301.3061 -9400.9537 -7602.5999 301.3061 1054.5830 1130.4585 30326.5008 1054.5830 1130.4585
ENERGY: 300000 1.6012 9.5663 13.3639 0.0000 -10798.9630 1346.8564 0.0000 0.0000 1734.4052 -7693.1700 290.5918 -9427.5752 -7647.9724 295.9414 -1312.1631 -1241.7104 31301.8333 -117.8821 -82.1138
ENERGY: 600000 3.8102 13.1746 11.1509 0.0000 -10762.7775 1429.1114 0.0000 0.0000 1767.0699 -7538.4605 296.0646 -9305.5304 -7628.1729 295.3886 -221.2322 -181.6174 31061.8735 -200.0648 -153.2728
ENERGY: 900000 0.3582 6.6781 11.4243 0.0000 -10752.2672 1393.3179 0.0000 0.0000 1783.7502 -7556.7384 298.8593 -9340.4886 -7614.1151 296.6881 -205.8606 -156.0735 30584.8195 -103.6347 -57.4316
ENERGY: 1200000 3.8145 8.8217 13.9428 0.0000 -10907.5777 1524.2569 0.0000 0.0000 1748.0661 -7608.6757 292.8806 -9356.7418 -7608.0717 295.9663 452.7339 541.2815 30563.5975 -47.6797 2.9641
ENERGY: 1500000 0.8625 6.7745 13.6333 0.0000 -10769.0657 1381.9552 0.0000 0.0000 1799.5649 -7566.2752 301.5090 -9365.8402 -7608.8482 296.4017 -603.5305 -534.0710 31058.1409 -117.4445 -66.4295
TCL: Running FEP window   3: Lambda1 0.8999999999999999 Lambda2 0.8499999999999999 [dLambda -0.050000000000000044]
TCL: Setting parameter firsttimestep to 0
TCL: Setting parameter alchLambda to 0.8999999999999999
Info: NONBONDED TABLE R-SQUARED SPACING: 0.0625
Info: NONBONDED TABLE SIZE: 705 POINTS
TCL: Setting parameter alchLambda2 to 0.8499999999999999
Info: NONBONDED TABLE R-SQUARED SPACING: 0.0625
Info: NONBONDED TABLE SIZE: 705 POINTS
TCL: Running for 1500000 steps
ETITLE: TS BOND ANGLE DIHED IMPRP ELECT VDW BOUNDARY MISC KINETIC TOTAL TEMP POTENTIAL TOTALAVG TEMPAVG PRESSURE GPRESSURE VOLUME PRESSAVG GPRESSAVG
ENERGY: 0 0.8625 6.7745 13.6333 0.0000 -10768.9864 1382.4805 0.0000 0.0000 1798.6605 -7566.5750 301.3575 -9365.2356 -7566.5750 301.3575 -620.4005 -542.2282 31058.1409 -620.4005 -542.2282
ENERGY: 300000 1.5665 10.6447 10.7300 0.0000 -10929.1914 1578.5174 0.0000 0.0000 1772.3600 -7555.3728 296.9509 -9327.7328 -7574.8077 298.5875 948.0350 1014.8736 30915.1871 272.7345 324.8960
ENERGY: 600000 2.9288 6.5302 12.9699 0.0000 -10863.9280 1471.0200 0.0000 0.0000 1795.0295 -7575.4496 300.7491 -9370.4791 -7583.7554 299.7339 156.1503 118.9856 30837.6750 181.2669 228.8790
ENERGY: 900000 1.8145 10.3802 14.8388 0.0000 -10817.9800 1452.8262 0.0000 0.0000 1796.3208 -7541.7994 300.9655 -9338.1202 -7564.2840 301.1150 -123.9980 -78.5613 30771.8510 117.3374 162.7934
ENERGY: 1200000 2.0657 10.3166 12.4356 0.0000 -10828.8151 1427.0768 0.0000 0.0000 1817.0634 -7559.8570 304.4408 -9376.9204 -7570.5658 300.7187 -217.4989 -210.1576 30978.3173 76.8723 121.7137
ENERGY: 1500000 1.5474 10.8718 12.0545 0.0000 -10866.0548 1373.3939 0.0000 0.0000 1772.5381 -7695.6491 296.9808 -9468.1872 -7581.3911 300.3057 -730.2102 -704.3651 30541.4466 -26.8416 21.9887
TCL: Running FEP window   4: Lambda1 0.8499999999999999 Lambda2 0.7999999999999998 [dLambda -0.050000000000000044]
TCL: Setting parameter firsttimestep to 0
TCL: Setting parameter alchLambda to 0.8499999999999999
Info: NONBONDED TABLE R-SQUARED SPACING: 0.0625
Info: NONBONDED TABLE SIZE: 705 POINTS
TCL: Setting parameter alchLambda2 to 0.7999999999999998
Info: NONBONDED TABLE R-SQUARED SPACING: 0.0625
Info: NONBONDED TABLE SIZE: 705 POINTS
TCL: Running for 1500000 steps
ETITLE: TS BOND ANGLE DIHED IMPRP ELECT VDW BOUNDARY MISC KINETIC TOTAL TEMP POTENTIAL TOTALAVG TEMPAVG PRESSURE GPRESSURE VOLUME PRESSAVG GPRESSAVG
ENERGY: 0 1.5474 10.8718 12.0545 0.0000 -10865.8338 1373.8996 0.0000 0.0000 1771.6469 -7695.8136 296.8315 -9467.4605 -7695.8136 296.8315 -800.5074 -710.5463 30541.4466 -800.5074 -710.5463
ENERGY: 300000 2.6763 11.2362 13.1119 0.0000 -10786.1012 1409.2175 0.0000 0.0000 1832.3360 -7517.5232 306.9996 -9349.8592 -7613.8629 298.2181 -163.4157 -188.8866 30814.5233 -332.8541 -266.2739
ENERGY: 600000 1.7405 9.6644 12.0636 0.0000 -10881.6232 1425.1878 0.0000 0.0000 1803.5127 -7629.4542 302.1704 -9432.9670 -7581.0774 301.0630 -551.9524 -392.4092 30847.7498 -159.3988 -89.2704
ENERGY: 900000 1.8537 9.9763 13.6959 0.0000 -10831.4579 1511.6966 0.0000 0.0000 1766.9318 -7527.3036 296.0415 -9294.2354 -7575.5149 300.8388 384.0628 400.2630 31397.2545 -163.9987 -91.8540
ENERGY: 1200000 0.8805 10.0818 10.6708 0.0000 -10838.1028 1435.8131 0.0000 0.0000 1801.6996 -7578.9569 301.8667 -9380.6565 -7578.6145 300.2793 -3.6763 23.2744 30787.2909 -144.9008 -78.4155
ENERGY: 1500000 1.6151 9.0492 14.9595 0.0000 -10837.6200 1440.0208 0.0000 0.0000 1797.3642 -7574.6112 301.1403 -9371.9755 -7578.0394 299.9265 9.3512 55.6528 30394.5340 -192.7273 -131.4832
TCL: Running FEP window   5: Lambda1 0.7999999999999998 Lambda2 0.7499999999999998 [dLambda -0.050000000000000044]
TCL: Setting parameter firsttimestep to 0
TCL: Setting parameter alchLambda to 0.7999999999999998
Info: NONBONDED TABLE R-SQUARED SPACING: 0.0625
Info: NONBONDED TABLE SIZE: 705 POINTS
TCL: Setting parameter alchLambda2 to 0.7499999999999998
Info: NONBONDED TABLE R-SQUARED SPACING: 0.0625
Info: NONBONDED TABLE SIZE: 705 POINTS
TCL: Running for 1500000 steps
ETITLE: TS BOND ANGLE DIHED IMPRP ELECT VDW BOUNDARY MISC KINETIC TOTAL TEMP POTENTIAL TOTALAVG TEMPAVG PRESSURE GPRESSURE VOLUME PRESSAVG GPRESSAVG
ENERGY: 0 1.6150 9.0492 14.9595 0.0000 -10837.3303 1440.1255 0.0000 0.0000 1796.4831 -7575.0980 300.9927 -9371.5812 -7575.0980 300.9927 -53.0814 44.8474 30394.5340 -53.0814 44.8474
ENERGY: 300000 0.8308 7.8378 14.3400 0.0000 -10856.9854 1451.0905 0.0000 0.0000 1744.5964 -7638.2899 292.2993 -9382.8864 -7591.9121 295.2936 -69.8105 46.9829 30838.6048 -80.2035 2.4123
ENERGY: 600000 2.5451 9.8229 15.9488 0.0000 -10838.6821 1450.1784 0.0000 0.0000 1752.1499 -7608.0370 293.5648 -9360.1869 -7588.0541 296.1794 -354.5956 -230.8358 30982.0113 -150.9968 -74.0260
ENERGY: 900000 2.1368 6.6042 12.7521 0.0000 -10993.9885 1583.6141 0.0000 0.0000 1800.5706 -7588.3107 301.6775 -9388.8813 -7574.7265 299.2885 963.0057 1023.2864 30829.5463 53.4540 123.4634
ENERGY: 1200000 1.3521 7.8151 11.7876 0.0000 -10808.3562 1392.1464 0.0000 0.0000 1721.2140 -7674.0410 288.3817 -9395.2550 -7597.5041 297.6183 -762.4297 -665.7513 30956.5653 -130.6302 -61.4580
ENERGY: 1500000 1.6068 9.8802 16.2929 0.0000 -10750.0474 1381.8670 0.0000 0.0000 1843.2143 -7497.1861 308.8223 -9340.4004 -7579.7867 298.8490 -370.9838 -342.0688 30892.0389 -99.9944 -35.0602
TCL: Running FEP window   6: Lambda1 0.7499999999999998 Lambda2 0.6999999999999997 [dLambda -0.050000000000000044]
TCL: Setting parameter firsttimestep to 0
TCL: Setting parameter alchLambda to 0.7499999999999998
Info: NONBONDED TABLE R-SQUARED SPACING: 0.0625
Info: NONBONDED TABLE SIZE: 705 POINTS
TCL: Setting parameter alchLambda2 to 0.6999999999999997
Info: NONBONDED TABLE R-SQUARED SPACING: 0.0625
Info: NONBONDED TABLE SIZE: 705 POINTS
TCL: Running for 1500000 steps
ETITLE: TS BOND ANGLE DIHED IMPRP ELECT VDW BOUNDARY MISC KINETIC TOTAL TEMP POTENTIAL TOTALAVG TEMPAVG PRESSURE GPRESSURE VOLUME PRESSAVG GPRESSAVG
ENERGY: 0 1.6068 9.8802 16.2929 0.0000 -10750.1118 1382.0893 0.0000 0.0000 1842.3711 -7497.8714 308.6810 -9340.2425 -7497.8714 308.6810 -411.0070 -349.9738 30892.0389 -411.0070 -349.9738
ENERGY: 300000 1.7473 5.8045 14.1421 0.0000 -10609.9643 1335.8353 0.0000 0.0000 1775.6654 -7476.7698 297.5047 -9252.4352 -7525.2344 302.2337 -590.2318 -463.8636 30623.3369 -229.1047 -184.1019
ENERGY: 600000 3.1005 8.4544 15.6244 0.0000 -10703.3992 1401.8698 0.0000 0.0000 1786.8326 -7487.5175 299.3757 -9274.3501 -7515.6698 301.7409 -298.1028 -212.5861 31152.9415 -300.1126 -240.8566
ENERGY: 900000 1.6381 6.7742 11.3509 0.0000 -10742.4298 1372.1788 0.0000 0.0000 1742.7269 -7607.7609 291.9860 -9350.4877 -7540.7025 299.8699 -448.8715 -439.8573 30643.9244 -247.2992 -200.6654
ENERGY: 1200000 1.8360 8.3923 13.1688 0.0000 -10881.4790 1522.9787 0.0000 0.0000 1820.5136 -7514.5896 305.0189 -9335.1032 -7547.6695 300.5461 582.7031 689.6592 30944.1644 -151.2103 -101.2374
ENERGY: 1500000 1.8413 11.8353 12.3580 0.0000 -10830.5582 1492.0294 0.0000 0.0000 1842.4601 -7470.0340 308.6959 -9312.4942 -7553.7165 300.5939 357.0916 430.8916 30935.5682 -75.2853 -14.6982
TCL: Running FEP window   7: Lambda1 0.6999999999999997 Lambda2 0.6499999999999997 [dLambda -0.050000000000000044]
TCL: Setting parameter firsttimestep to 0
TCL: Setting parameter alchLambda to 0.6999999999999997
Info: NONBONDED TABLE R-SQUARED SPACING: 0.0625
Info: NONBONDED TABLE SIZE: 705 POINTS
TCL: Setting parameter alchLambda2 to 0.6499999999999997
Info: NONBONDED TABLE R-SQUARED SPACING: 0.0625
Info: NONBONDED TABLE SIZE: 705 POINTS
TCL: Running for 1500000 steps
ETITLE: TS BOND ANGLE DIHED IMPRP ELECT VDW BOUNDARY MISC KINETIC TOTAL TEMP POTENTIAL TOTALAVG TEMPAVG PRESSURE GPRESSURE VOLUME PRESSAVG GPRESSAVG
ENERGY: 0 1.8413 11.8353 12.3580 0.0000 -10830.5553 1492.0522 0.0000 0.0000 1841.5657 -7470.9028 308.5460 -9312.4685 -7470.9028 308.5460 354.3243 421.4150 30935.5682 354.3243 421.4150
ENERGY: 300000 2.6996 7.7829 12.5576 0.0000 -10889.6395 1530.7610 0.0000 0.0000 1782.2109 -7553.6276 298.6014 -9335.8385 -7575.2682 300.5038 801.1033 816.9567 30679.7371 302.3069 334.6649
ENERGY: 600000 1.5424 15.0124 13.6765 0.0000 -10880.4245 1457.0624 0.0000 0.0000 1821.5680 -7571.5629 305.1955 -9393.1309 -7566.4425 302.2637 117.3629 181.1276 30784.6522 119.5066 159.5097
ENERGY: 900000 3.0396 9.8823 12.4561 0.0000 -10818.5815 1463.0240 0.0000 0.0000 1838.5535 -7491.6260 308.0414 -9330.1795 -7562.8068 302.0430 75.9754 102.5114 31007.4681 90.6763 132.8751
ENERGY: 1200000 0.4857 5.4015 12.8180 0.0000 -10802.4838 1458.8261 0.0000 0.0000 1850.9725 -7473.9801 310.1221 -9324.9526 -7559.7068 302.4331 87.7231 145.1570 31360.5422 136.0100 179.3791
ENERGY: 1500000 1.8983 10.5607 12.7907 0.0000 -10908.3999 1461.4451 0.0000 0.0000 1800.1218 -7621.5833 301.6023 -9421.7051 -7560.0521 303.1187 -101.0017 -62.5165 30697.7710 105.2841 154.5652
TCL: Running FEP window   8: Lambda1 0.6499999999999997 Lambda2 0.5999999999999996 [dLambda -0.050000000000000044]
TCL: Setting parameter firsttimestep to 0
TCL: Setting parameter alchLambda to 0.6499999999999997
Info: NONBONDED TABLE R-SQUARED SPACING: 0.0625
Info: NONBONDED TABLE SIZE: 705 POINTS
TCL: Setting parameter alchLambda2 to 0.5999999999999996
Info: NONBONDED TABLE R-SQUARED SPACING: 0.0625
Info: NONBONDED TABLE SIZE: 705 POINTS
TCL: Running for 1500000 steps
ETITLE: TS BOND ANGLE DIHED IMPRP ELECT VDW BOUNDARY MISC KINETIC TOTAL TEMP POTENTIAL TOTALAVG TEMPAVG PRESSURE GPRESSURE VOLUME PRESSAVG GPRESSAVG
ENERGY: 0 1.8983 10.5607 12.7907 0.0000 -10908.3503 1462.0635 0.0000 0.0000 1799.2273 -7621.8098 301.4524 -9421.0371 -7621.8098 301.4524 -144.6244 -64.6532 30697.7710 -144.6244 -64.6532
ENERGY: 300000 1.2673 6.5651 11.7363 0.0000 -10830.0853 1458.6711 0.0000 0.0000 1784.9854 -7566.8601 299.0663 -9351.8455 -7555.8213 301.7961 -10.1909 -9.4882 30914.0307 -30.6128 7.6658
ENERGY: 600000 0.8565 9.0289 13.9107 0.0000 -10855.8798 1491.4306 0.0000 0.0000 1756.6029 -7584.0502 294.3109 -9340.6531 -7568.8237 301.1976 486.5142 509.4921 30513.4247 95.7099 128.5311
ENERGY: 900000 0.7108 8.0895 11.8189 0.0000 -10868.6124 1425.5538 0.0000 0.0000 1770.5724 -7651.8669 296.6514 -9422.4393 -7572.3109 300.6665 -397.2564 -332.8791 30600.7889 2.5347 31.3483
ENERGY: 1200000 1.7462 9.2867 12.5127 0.0000 -10881.2323 1471.2097 0.0000 0.0000 1783.4305 -7603.0465 298.8057 -9386.4770 -7568.5923 300.9370 -102.3352 -34.9516 30975.9569 -56.3669 -29.1515
ENERGY: 1500000 0.4747 11.9701 15.4712 0.0000 -10930.5732 1534.3396 0.0000 0.0000 1765.1686 -7603.1490 295.7461 -9368.3177 -7571.0692 300.6764 727.2079 757.9205 30714.5715 -5.0180 29.4752
TCL: Running FEP window   9: Lambda1 0.5999999999999996 Lambda2 0.5499999999999996 [dLambda -0.050000000000000044]
TCL: Setting parameter firsttimestep to 0
TCL: Setting parameter alchLambda to 0.5999999999999996
Info: NONBONDED TABLE R-SQUARED SPACING: 0.0625
Info: NONBONDED TABLE SIZE: 705 POINTS
TCL: Setting parameter alchLambda2 to 0.5499999999999996
Info: NONBONDED TABLE R-SQUARED SPACING: 0.0625
Info: NONBONDED TABLE SIZE: 705 POINTS
TCL: Running for 1500000 steps
ETITLE: TS BOND ANGLE DIHED IMPRP ELECT VDW BOUNDARY MISC KINETIC TOTAL TEMP POTENTIAL TOTALAVG TEMPAVG PRESSURE GPRESSURE VOLUME PRESSAVG GPRESSAVG
ENERGY: 0 0.4747 11.9701 15.4712 0.0000 -10930.5734 1534.7203 0.0000 0.0000 1764.2481 -7603.6892 295.5918 -9367.9372 -7603.6892 295.5918 677.6918 750.7894 30714.5715 677.6918 750.7894
ENERGY: 300000 1.2863 11.2278 10.0698 0.0000 -10872.0443 1451.1932 0.0000 0.0000 1751.8170 -7646.4501 293.5090 -9398.2672 -7563.9272 299.8052 -21.6824 -17.3585 30707.5105 339.1636 371.7119
ENERGY: 600000 2.8424 7.8166 13.5167 0.0000 -10702.5590 1345.0198 0.0000 0.0000 1854.9788 -7478.3847 310.7933 -9333.3635 -7570.7126 299.8158 -1103.1346 -981.0621 30940.0393 -122.5432 -66.4713
ENERGY: 900000 1.0678 9.2593 12.8209 0.0000 -10883.8197 1447.1807 0.0000 0.0000 1803.0714 -7610.4195 302.0965 -9413.4909 -7581.8484 300.6757 -290.4504 -246.0292 30870.9500 -115.9587 -58.2108
ENERGY: 1200000 5.0996 9.7579 13.4956 0.0000 -10806.0504 1426.2593 0.0000 0.0000 1787.8078 -7563.6303 299.5391 -9351.4381 -7581.4662 299.8467 -361.6475 -347.4759 31135.5559 -176.5732 -125.9901
ENERGY: 1500000 6.0060 11.0193 12.8528 0.0000 -10692.5154 1406.1717 0.0000 0.0000 1758.7367 -7497.7289 294.6684 -9256.4656 -7579.0551 299.0182 -292.6900 -260.7443 30940.5785 -182.9101 -128.8255
TCL: Running FEP window  10: Lambda1 0.5499999999999996 Lambda2 0.4999999999999996 [dLambda -0.04999999999999999]
TCL: Setting parameter firsttimestep to 0
TCL: Setting parameter alchLambda to 0.5499999999999996
Info: NONBONDED TABLE R-SQUARED SPACING: 0.0625
Info: NONBONDED TABLE SIZE: 705 POINTS
TCL: Setting parameter alchLambda2 to 0.4999999999999996
Info: NONBONDED TABLE R-SQUARED SPACING: 0.0625
Info: NONBONDED TABLE SIZE: 705 POINTS
TCL: Running for 1500000 steps
ETITLE: TS BOND ANGLE DIHED IMPRP ELECT VDW BOUNDARY MISC KINETIC TOTAL TEMP POTENTIAL TOTALAVG TEMPAVG PRESSURE GPRESSURE VOLUME PRESSAVG GPRESSAVG
ENERGY: 0 6.0060 11.0193 12.8528 0.0000 -10692.5958 1406.5121 0.0000 0.0000 1757.8534 -7498.3522 294.5204 -9256.2056 -7498.3522 294.5204 -339.3341 -268.2531 30940.5785 -339.3341 -268.2531
ENERGY: 300000 1.7039 12.3407 12.9864 0.0000 -10866.0021 1460.5598 0.0000 0.0000 1856.9011 -7521.5102 311.1154 -9378.4113 -7529.4092 301.2305 150.3847 175.6346 30449.3955 -137.7219 -89.5253
ENERGY: 600000 1.5741 6.9462 10.6008 0.0000 -11024.9804 1571.7362 0.0000 0.0000 1822.0436 -7612.0794 305.2752 -9434.1231 -7538.0072 302.3216 876.2135 876.6141 30566.5288 -187.8393 -119.3312
ENERGY: 900000 0.6288 10.5058 11.4541 0.0000 -10827.1622 1452.0372 0.0000 0.0000 1834.1908 -7518.3454 307.3104 -9352.5362 -7535.9224 302.7403 112.1455 162.5496 30708.8672 -21.5831 37.8688
ENERGY: 1200000 3.2369 12.1592 11.1065 0.0000 -10785.4478 1425.7248 0.0000 0.0000 1817.8796 -7515.3409 304.5775 -9333.2204 -7534.7756 303.0350 -379.6442 -256.8432 31048.7507 76.9858 138.4834
ENERGY: 1500000 1.2386 5.6055 12.8754 0.0000 -10816.4802 1420.6875 0.0000 0.0000 1712.0123 -7664.0609 286.8399 -9376.0732 -7539.8601 302.2819 -130.6325 -134.9451 30573.9154 101.2939 156.1726
TCL: Running FEP window  11: Lambda1 0.4999999999999996 Lambda2 0.4499999999999996 [dLambda -0.04999999999999999]
TCL: Setting parameter firsttimestep to 0
TCL: Setting parameter alchLambda to 0.4999999999999996
Info: NONBONDED TABLE R-SQUARED SPACING: 0.0625
Info: NONBONDED TABLE SIZE: 705 POINTS
TCL: Setting parameter alchLambda2 to 0.4499999999999996
Info: NONBONDED TABLE R-SQUARED SPACING: 0.0625
Info: NONBONDED TABLE SIZE: 705 POINTS
TCL: Running for 1500000 steps
ETITLE: TS BOND ANGLE DIHED IMPRP ELECT VDW BOUNDARY MISC KINETIC TOTAL TEMP POTENTIAL TOTALAVG TEMPAVG PRESSURE GPRESSURE VOLUME PRESSAVG GPRESSAVG
ENERGY: 0 1.2386 5.6055 12.8754 0.0000 -10816.2748 1420.9502 0.0000 0.0000 1711.1684 -7664.4367 286.6986 -9375.6051 -7664.4367 286.6986 -215.2424 -140.9798 30573.9154 -215.2424 -140.9798
ENERGY: 300000 0.7702 7.4768 10.5959 0.0000 -10945.8183 1471.8103 0.0000 0.0000 1750.6648 -7704.5003 293.3160 -9455.1650 -7577.2386 297.5391 -42.2900 34.4115 30503.1786 -79.5606 -10.6154
ENERGY: 600000 3.2891 6.6978 10.9166 0.0000 -10704.3482 1399.1026 0.0000 0.0000 1878.2283 -7406.1138 314.6887 -9284.3421 -7547.1750 299.8568 -420.9888 -373.1009 31367.9694 -215.8582 -159.8833
ENERGY: 900000 1.6149 6.1238 12.1055 0.0000 -10813.0129 1430.6474 0.0000 0.0000 1770.6794 -7591.8418 296.6694 -9362.5212 -7557.1769 299.0527 -383.2017 -338.4836 31055.0914 -206.4051 -148.5266
ENERGY: 1200000 3.1696 5.8706 13.6690 0.0000 -10885.3748 1466.2615 0.0000 0.0000 1806.6068 -7589.7974 302.6888 -9396.4042 -7560.8960 299.1304 185.3029 192.8234 30268.9577 -173.2391 -114.8833
ENERGY: 1500000 2.5899 7.5922 13.5964 0.0000 -10850.7339 1415.6926 0.0000 0.0000 1794.7938 -7616.4690 300.7096 -9411.2628 -7571.2294 299.3630 -598.8627 -534.9597 31099.9265 -143.1051 -86.5896
TCL: Running FEP window  12: Lambda1 0.4499999999999996 Lambda2 0.39999999999999963 [dLambda -0.04999999999999999]
TCL: Setting parameter firsttimestep to 0
TCL: Setting parameter alchLambda to 0.4499999999999996
Info: NONBONDED TABLE R-SQUARED SPACING: 0.0625
Info: NONBONDED TABLE SIZE: 705 POINTS
TCL: Setting parameter alchLambda2 to 0.39999999999999963
Info: NONBONDED TABLE R-SQUARED SPACING: 0.0625
Info: NONBONDED TABLE SIZE: 705 POINTS
TCL: Running for 1500000 steps
ETITLE: TS BOND ANGLE DIHED IMPRP ELECT VDW BOUNDARY MISC KINETIC TOTAL TEMP POTENTIAL TOTALAVG TEMPAVG PRESSURE GPRESSURE VOLUME PRESSAVG GPRESSAVG
ENERGY: 0 2.5899 7.5922 13.5964 0.0000 -10850.7333 1415.8824 0.0000 0.0000 1793.9154 -7617.1571 300.5624 -9411.0725 -7617.1571 300.5624 -621.4402 -537.9638 31099.9265 -621.4402 -537.9638
ENERGY: 300000 1.7335 8.2346 12.7154 0.0000 -10999.0871 1598.3398 0.0000 0.0000 1827.6427 -7550.4210 306.2133 -9378.0637 -7586.5436 300.7048 1075.6706 1093.2801 30906.8820 162.2329 205.4442
ENERGY: 600000 2.4136 5.1668 14.9340 0.0000 -10698.8518 1410.1378 0.0000 0.0000 1826.9588 -7439.2408 306.0987 -9266.1996 -7548.8923 302.0815 77.3450 166.3795 30531.9725 132.2904 175.5436
ENERGY: 900000 1.6692 9.7434 13.0834 0.0000 -10775.7254 1437.6350 0.0000 0.0000 1852.6386 -7460.9559 310.4013 -9313.5945 -7559.6762 301.7155 41.1941 128.7948 30749.1874 14.7704 65.9321
ENERGY: 1200000 1.7316 8.5289 12.5666 0.0000 -10857.3623 1480.8414 0.0000 0.0000 1777.8688 -7575.8251 297.8739 -9353.6939 -7574.3877 300.8743 116.4572 238.6952 30565.9381 9.7097 57.6142
ENERGY: 1500000 2.4122 10.9519 15.1767 0.0000 -10810.7267 1401.4400 0.0000 0.0000 1836.4098 -7544.3359 307.6822 -9380.7458 -7568.7746 300.6202 -413.0174 -365.2371 30674.2095 -30.5473 24.2038
TCL: Running FEP window  13: Lambda1 0.39999999999999963 Lambda2 0.34999999999999964 [dLambda -0.04999999999999999]
TCL: Setting parameter firsttimestep to 0
TCL: Setting parameter alchLambda to 0.39999999999999963
Info: NONBONDED TABLE R-SQUARED SPACING: 0.0625
Info: NONBONDED TABLE SIZE: 705 POINTS
TCL: Setting parameter alchLambda2 to 0.34999999999999964
Info: NONBONDED TABLE R-SQUARED SPACING: 0.0625
Info: NONBONDED TABLE SIZE: 705 POINTS
TCL: Running for 1500000 steps
ETITLE: TS BOND ANGLE DIHED IMPRP ELECT VDW BOUNDARY MISC KINETIC TOTAL TEMP POTENTIAL TOTALAVG TEMPAVG PRESSURE GPRESSURE VOLUME PRESSAVG GPRESSAVG
ENERGY: 0 2.4122 10.9519 15.1767 0.0000 -10810.7270 1401.9756 0.0000 0.0000 1835.4758 -7544.7347 307.5257 -9380.2105 -7544.7347 307.5257 -460.9818 -368.1294 30674.2095 -460.9818 -368.1294
ENERGY: 300000 0.7726 7.6967 14.1438 0.0000 -10826.0094 1441.8594 0.0000 0.0000 1789.5240 -7572.0129 299.8267 -9361.5370 -7546.1179 301.0657 -46.3506 -1.6872 30619.0455 117.2592 153.2435
ENERGY: 600000 2.4956 13.7162 13.0165 0.0000 -10905.7892 1524.6205 0.0000 0.0000 1786.7197 -7565.2206 299.3568 -9351.9404 -7568.1279 300.5799 590.6372 603.5321 30648.4373 244.2542 281.0733
ENERGY: 900000 3.2787 7.1083 12.5023 0.0000 -10876.7701 1515.2895 0.0000 0.0000 1769.1680 -7569.4233 296.4161 -9338.5913 -7570.9020 300.9861 221.3062 284.5141 31006.6699 258.6118 290.9205
ENERGY: 1200000 2.4573 13.6441 11.2153 0.0000 -10875.4068 1484.0932 0.0000 0.0000 1754.9197 -7609.0771 294.0289 -9363.9968 -7565.5975 301.2519 358.0608 359.3190 30688.9715 237.6120 274.6032
ENERGY: 1500000 2.5949 5.1517 11.2816 0.0000 -10780.8145 1414.7007 0.0000 0.0000 1773.7130 -7573.3726 297.1776 -9347.0857 -7568.0320 299.9520 -313.1272 -278.6771 30446.5481 132.3675 172.9889
TCL: Running FEP window  14: Lambda1 0.34999999999999964 Lambda2 0.29999999999999966 [dLambda -0.04999999999999999]
TCL: Setting parameter firsttimestep to 0
TCL: Setting parameter alchLambda to 0.34999999999999964
Info: NONBONDED TABLE R-SQUARED SPACING: 0.0625
Info: NONBONDED TABLE SIZE: 705 POINTS
TCL: Setting parameter alchLambda2 to 0.29999999999999966
Info: NONBONDED TABLE R-SQUARED SPACING: 0.0625
Info: NONBONDED TABLE SIZE: 705 POINTS
TCL: Running for 1500000 steps
ETITLE: TS BOND ANGLE DIHED IMPRP ELECT VDW BOUNDARY MISC KINETIC TOTAL TEMP POTENTIAL TOTALAVG TEMPAVG PRESSURE GPRESSURE VOLUME PRESSAVG GPRESSAVG
ENERGY: 0 2.5949 5.1517 11.2816 0.0000 -10780.8140 1415.1540 0.0000 0.0000 1772.8327 -7573.7992 297.0301 -9346.6319 -7573.7992 297.0301 -387.9632 -281.7407 30446.5481 -387.9632 -281.7407
ENERGY: 300000 3.2476 10.7844 11.4036 0.0000 -10783.7931 1386.8790 0.0000 0.0000 1768.8376 -7602.6408 296.3608 -9371.4784 -7592.9887 298.6081 -778.8353 -739.7737 30916.6376 -345.1830 -269.9319
ENERGY: 600000 1.1017 8.5685 12.3194 0.0000 -10892.7812 1456.9804 0.0000 0.0000 1839.5317 -7574.2795 308.2052 -9413.8112 -7579.7825 301.5500 10.3304 78.8994 30674.8070 -84.1403 -4.7625
ENERGY: 900000 5.4476 7.5431 13.8027 0.0000 -10788.5359 1464.7907 0.0000 0.0000 1808.5681 -7488.3836 303.0174 -9296.9518 -7563.1248 302.2287 182.4470 201.0893 30851.8388 -114.9226 -45.5666
ENERGY: 1200000 3.4893 8.4859 13.1638 0.0000 -10761.3329 1456.6849 0.0000 0.0000 1810.5273 -7468.9816 303.3457 -9279.5089 -7557.9838 302.1964 255.1540 343.2514 30475.0463 -84.9454 -24.3393
ENERGY: 1500000 0.3332 7.5855 13.5570 0.0000 -10813.5595 1419.0250 0.0000 0.0000 1771.8175 -7601.2414 296.8600 -9373.0589 -7563.6110 302.1943 -492.0456 -399.3056 30849.7591 -100.6163 -34.6213
TCL: Running FEP window  15: Lambda1 0.29999999999999966 Lambda2 0.24999999999999967 [dLambda -0.04999999999999999]
TCL: Setting parameter firsttimestep to 0
TCL: Setting parameter alchLambda to 0.29999999999999966
Info: NONBONDED TABLE R-SQUARED SPACING: 0.0625
Info: NONBONDED TABLE SIZE: 705 POINTS
TCL: Setting parameter alchLambda2 to 0.24999999999999967
Info: NONBONDED TABLE R-SQUARED SPACING: 0.0625
Info: NONBONDED TABLE SIZE: 705 POINTS
TCL: Running for 1500000 steps
ETITLE: TS BOND ANGLE DIHED IMPRP ELECT VDW BOUNDARY MISC KINETIC TOTAL TEMP POTENTIAL TOTALAVG TEMPAVG PRESSURE GPRESSURE VOLUME PRESSAVG GPRESSAVG
ENERGY: 0 0.3332 7.5855 13.5570 0.0000 -10813.5623 1418.7251 0.0000 0.0000 1770.9819 -7602.3795 296.7200 -9373.3615 -7602.3795 296.7200 -494.2503 -405.7056 30849.7591 -494.2503 -405.7056
ENERGY: 300000 1.5880 6.2933 11.9617 0.0000 -10938.8573 1537.1074 0.0000 0.0000 1818.6991 -7563.2079 304.7148 -9381.9069 -7607.3391 298.7571 719.1776 770.2664 30582.5147 54.5845 110.0348
ENERGY: 600000 1.4006 5.8113 11.3222 0.0000 -10902.6730 1517.2885 0.0000 0.0000 1831.8493 -7535.0011 306.9181 -9366.8504 -7576.0464 301.8441 785.4513 790.1958 30248.4528 176.3324 215.6011
ENERGY: 900000 1.5047 7.0688 13.8205 0.0000 -10727.7673 1409.3667 0.0000 0.0000 1775.7425 -7520.2641 297.5177 -9296.0066 -7574.6486 300.9731 -204.8617 -132.6085 30699.8357 81.3952 127.1320
ENERGY: 1200000 0.5298 8.4444 11.7306 0.0000 -10857.1611 1477.9420 0.0000 0.0000 1749.0874 -7609.4270 293.0517 -9358.5144 -7570.3617 300.9223 141.0516 281.3827 30421.1298 81.8042 138.1987
ENERGY: 1500000 0.8129 7.1531 12.7849 0.0000 -10935.9194 1550.5040 0.0000 0.0000 1816.6775 -7547.9869 304.3761 -9364.6644 -7563.6336 301.5536 943.4481 1015.4625 30184.3320 131.7910 196.3036
TCL: Running FEP window  16: Lambda1 0.24999999999999967 Lambda2 0.19999999999999968 [dLambda -0.04999999999999999]
TCL: Setting parameter firsttimestep to 0
TCL: Setting parameter alchLambda to 0.24999999999999967
Info: NONBONDED TABLE R-SQUARED SPACING: 0.0625
Info: NONBONDED TABLE SIZE: 705 POINTS
TCL: Setting parameter alchLambda2 to 0.19999999999999968
Info: NONBONDED TABLE R-SQUARED SPACING: 0.0625
Info: NONBONDED TABLE SIZE: 705 POINTS
TCL: Running for 1500000 steps
ETITLE: TS BOND ANGLE DIHED IMPRP ELECT VDW BOUNDARY MISC KINETIC TOTAL TEMP POTENTIAL TOTALAVG TEMPAVG PRESSURE GPRESSURE VOLUME PRESSAVG GPRESSAVG
ENERGY: 0 0.8129 7.1531 12.7849 0.0000 -10935.9200 1550.3174 0.0000 0.0000 1815.8241 -7549.0275 304.2332 -9364.8516 -7549.0275 304.2332 913.6726 1008.9648 30184.3320 913.6726 1008.9648
ENERGY: 300000 5.0959 6.4933 11.5996 0.0000 -10858.9565 1421.3415 0.0000 0.0000 1774.6375 -7639.7887 297.3325 -9414.4262 -7577.3615 299.8897 -609.7599 -521.7341 30658.8422 205.7510 307.6987
ENERGY: 600000 1.5059 9.4907 12.5890 0.0000 -10846.8949 1482.4324 0.0000 0.0000 1799.1631 -7541.7137 301.4417 -9340.8768 -7586.6601 298.5112 -40.7573 69.7592 30943.5198 94.0155 175.9818
ENERGY: 900000 1.0729 8.1474 12.7385 0.0000 -10887.3639 1535.0003 0.0000 0.0000 1779.4187 -7550.9861 298.1336 -9330.4048 -7579.2089 298.6315 443.7576 523.4866 31115.3654 58.5046 144.2693
ENERGY: 1200000 2.5129 10.7639 12.8751 0.0000 -11046.4350 1535.5922 0.0000 0.0000 1784.5205 -7700.1704 298.9884 -9484.6909 -7596.6886 298.6989 201.9005 244.3106 30417.9839 87.5541 160.3354
ENERGY: 1500000 0.8177 7.5002 13.3418 0.0000 -11012.4044 1593.3528 0.0000 0.0000 1848.3104 -7549.0816 309.6761 -9397.3919 -7594.5723 299.7044 1012.7890 1075.9693 30503.0566 135.2763 199.4509
TCL: Running FEP window  17: Lambda1 0.19999999999999968 Lambda2 0.1499999999999997 [dLambda -0.04999999999999999]
TCL: Setting parameter firsttimestep to 0
TCL: Setting parameter alchLambda to 0.19999999999999968
Info: NONBONDED TABLE R-SQUARED SPACING: 0.0625
Info: NONBONDED TABLE SIZE: 705 POINTS
TCL: Setting parameter alchLambda2 to 0.1499999999999997
Info: NONBONDED TABLE R-SQUARED SPACING: 0.0625
Info: NONBONDED TABLE SIZE: 705 POINTS
TCL: Running for 1500000 steps
ETITLE: TS BOND ANGLE DIHED IMPRP ELECT VDW BOUNDARY MISC KINETIC TOTAL TEMP POTENTIAL TOTALAVG TEMPAVG PRESSURE GPRESSURE VOLUME PRESSAVG GPRESSAVG
ENERGY: 0 0.8177 7.5002 13.3418 0.0000 -11012.4054 1592.0219 0.0000 0.0000 1847.4445 -7551.2793 309.5310 -9398.7239 -7551.2793 309.5310 973.7907 1062.5186 30503.0566 973.7907 1062.5186
ENERGY: 300000 1.9061 12.3066 12.1099 0.0000 -10968.1782 1489.9691 0.0000 0.0000 1808.3352 -7643.5513 302.9784 -9451.8865 -7568.7194 304.1134 -123.0346 -35.5606 30498.2200 239.2888 319.5789
ENERGY: 600000 0.8293 7.7184 12.3397 0.0000 -10907.8029 1511.7814 0.0000 0.0000 1845.4255 -7529.7085 309.1927 -9375.1341 -7568.6877 302.1554 159.5210 173.9453 31171.2779 19.8599 91.9362
ENERGY: 900000 2.0884 8.4782 10.9323 0.0000 -10815.8297 1430.1326 0.0000 0.0000 1794.7179 -7569.4803 300.6969 -9364.1982 -7573.6813 301.5495 -316.2138 -259.1312 30825.4229 -63.9751 -0.6002
ENERGY: 1200000 0.7075 7.8748 12.7186 0.0000 -10793.6958 1384.9434 0.0000 0.0000 1830.6776 -7556.7738 306.7218 -9387.4514 -7566.0401 302.4361 -308.4988 -279.2843 30207.2393 -111.1684 -54.7788
ENERGY: 1500000 0.6868 8.0361 12.2619 0.0000 -10894.0592 1497.5503 0.0000 0.0000 1839.3297 -7536.1945 308.1714 -9375.5241 -7560.3495 302.5932 165.7153 209.7996 31156.2353 -67.0068 -14.4548
TCL: Running FEP window  18: Lambda1 0.1499999999999997 Lambda2 0.09999999999999969 [dLambda -0.05 ]
TCL: Setting parameter firsttimestep to 0
TCL: Setting parameter alchLambda to 0.1499999999999997
Info: NONBONDED TABLE R-SQUARED SPACING: 0.0625
Info: NONBONDED TABLE SIZE: 705 POINTS
TCL: Setting parameter alchLambda2 to 0.09999999999999969
Info: NONBONDED TABLE R-SQUARED SPACING: 0.0625
Info: NONBONDED TABLE SIZE: 705 POINTS
TCL: Running for 1500000 steps
ETITLE: TS BOND ANGLE DIHED IMPRP ELECT VDW BOUNDARY MISC KINETIC TOTAL TEMP POTENTIAL TOTALAVG TEMPAVG PRESSURE GPRESSURE VOLUME PRESSAVG GPRESSAVG
ENERGY: 0 0.6868 8.0361 12.2619 0.0000 -10894.0604 1497.3886 0.0000 0.0000 1838.4075 -7537.2795 308.0169 -9375.6870 -7537.2795 308.0169 125.7071 205.8094 31156.2353 125.7071 205.8094
ENERGY: 300000 3.2289 7.3846 13.7727 0.0000 -10892.0707 1539.9297 0.0000 0.0000 1774.8632 -7552.8915 297.3703 -9327.7547 -7566.2701 301.2151 721.2890 700.9964 30812.8667 242.8671 290.7879
ENERGY: 600000 1.8083 8.9733 15.4119 0.0000 -10784.8194 1452.4720 0.0000 0.0000 1790.2308 -7515.9231 299.9451 -9306.1539 -7555.7232 302.4556 -6.2454 70.2493 30653.2226 22.8706 82.2451
ENERGY: 900000 3.4454 7.2701 12.2901 0.0000 -10774.6701 1437.8678 0.0000 0.0000 1795.3597 -7518.4370 300.8044 -9313.7967 -7559.9697 302.0579 75.9017 159.2748 30307.7783 -139.9576 -76.1038
ENERGY: 1200000 2.2126 11.1313 15.3979 0.0000 -10819.8890 1449.1467 0.0000 0.0000 1773.4883 -7568.5123 297.1400 -9342.0006 -7559.2323 301.6015 -78.3310 -66.2654 31199.8364 -170.0652 -101.3342
ENERGY: 1500000 2.8044 10.0460 11.5094 0.0000 -10684.9269 1394.7865 0.0000 0.0000 1799.8907 -7465.8900 301.5636 -9265.7806 -7558.7493 301.1146 -266.7301 -192.4679 30683.9723 -177.4866 -107.4452
TCL: Running FEP window  19: Lambda1 0.09999999999999969 Lambda2 0.049999999999999684 [dLambda -0.05 ]
TCL: Setting parameter firsttimestep to 0
TCL: Setting parameter alchLambda to 0.09999999999999969
Info: NONBONDED TABLE R-SQUARED SPACING: 0.0625
Info: NONBONDED TABLE SIZE: 705 POINTS
TCL: Setting parameter alchLambda2 to 0.049999999999999684
Info: NONBONDED TABLE R-SQUARED SPACING: 0.0625
Info: NONBONDED TABLE SIZE: 705 POINTS
TCL: Running for 1500000 steps
ETITLE: TS BOND ANGLE DIHED IMPRP ELECT VDW BOUNDARY MISC KINETIC TOTAL TEMP POTENTIAL TOTALAVG TEMPAVG PRESSURE GPRESSURE VOLUME PRESSAVG GPRESSAVG
ENERGY: 0 2.8044 10.0460 11.5094 0.0000 -10684.9273 1394.7518 0.0000 0.0000 1799.0262 -7466.7896 301.4187 -9265.8158 -7466.7896 301.4187 -274.8930 -192.1370 30683.9723 -274.8930 -192.1370
ENERGY: 300000 1.0157 10.2809 11.5558 0.0000 -10877.7348 1487.0347 0.0000 0.0000 1850.0322 -7517.8155 309.9646 -9367.8477 -7528.3195 302.3208 337.9871 372.0941 30354.3453 213.5873 285.9417
ENERGY: 600000 2.4358 10.8766 11.6270 0.0000 -10841.7877 1499.2581 0.0000 0.0000 1822.4141 -7495.1761 305.3373 -9317.5902 -7555.3911 301.4233 377.2820 457.3154 30919.8741 193.8592 255.6095
ENERGY: 900000 1.0620 5.1194 15.3130 0.0000 -10831.3828 1462.7852 0.0000 0.0000 1791.3015 -7555.8016 300.1245 -9347.1032 -7545.1985 301.6685 180.0438 249.9628 30329.4836 252.4394 308.9533
ENERGY: 1200000 1.4351 7.2944 13.2883 0.0000 -10918.5258 1502.2605 0.0000 0.0000 1806.3861 -7587.8614 302.6518 -9394.2475 -7544.8515 302.0877 383.3332 452.8576 30585.8287 187.1381 247.0874
ENERGY: 1500000 1.3223 7.7067 12.5838 0.0000 -10797.5909 1437.4299 0.0000 0.0000 1792.7944 -7545.7539 300.3746 -9338.5483 -7546.7961 301.3663 -285.5996 -240.3296 30884.8165 147.3909 212.1850
TCL: Running FEP window  20: Lambda1 0.049999999999999684 Lambda2 0.0    [dLambda -0.049999999999999684]
TCL: Setting parameter firsttimestep to 0
TCL: Setting parameter alchLambda to 0.049999999999999684
Info: NONBONDED TABLE R-SQUARED SPACING: 0.0625
Info: NONBONDED TABLE SIZE: 705 POINTS
TCL: Setting parameter alchLambda2 to 0.0
Info: NONBONDED TABLE R-SQUARED SPACING: 0.0625
Info: NONBONDED TABLE SIZE: 705 POINTS
TCL: Running for 1500000 steps
ETITLE: TS BOND ANGLE DIHED IMPRP ELECT VDW BOUNDARY MISC KINETIC TOTAL TEMP POTENTIAL TOTALAVG TEMPAVG PRESSURE GPRESSURE VOLUME PRESSAVG GPRESSAVG
ENERGY: 0 1.3223 7.7067 12.5838 0.0000 -10797.5893 1437.1349 0.0000 0.0000 1791.9398 -7546.9018 300.2314 -9338.8416 -7546.9018 300.2314 -327.5544 -244.3813 30884.8165 -327.5544 -244.3813
ENERGY: 300000 4.4416 8.8513 16.9406 0.0000 -10835.8442 1423.6052 0.0000 0.0000 1798.9879 -7583.0175 301.4123 -9382.0054 -7540.6676 301.6297 -599.6531 -527.3677 30782.1106 -498.4257 -422.9404
ENERGY: 600000 2.5881 8.5079 13.0497 0.0000 -10790.9764 1450.9127 0.0000 0.0000 1821.2236 -7494.6944 305.1378 -9315.9179 -7547.4625 300.8749 -7.1271 54.9225 30766.6128 -333.7421 -250.1019
ENERGY: 900000 1.5572 13.4983 10.4521 0.0000 -10730.6304 1364.6821 0.0000 0.0000 1765.1489 -7575.2918 295.7427 -9340.4407 -7554.4679 300.9983 -642.7772 -593.5312 30737.0960 -214.5625 -139.7113
ENERGY: 1200000 0.9903 13.7662 14.5204 0.0000 -10724.6564 1386.0845 0.0000 0.0000 1852.2235 -7457.0716 310.3317 -9309.2950 -7559.5581 301.2893 -684.8179 -601.2416 31121.1951 -290.4346 -225.4973
ENERGY: 1500000 2.0361 11.1312 10.5923 0.0000 -10947.1438 1498.0055 0.0000 0.0000 1814.7925 -7610.5862 304.0603 -9425.3787 -7561.6035 301.7741 74.1960 171.1669 30809.3370 -308.9247 -239.9179
TCL: Exiting due to exit command.
