Info: SIMULATION PARAMETERS:
Info: TIMESTEP               2
Info: NUMBER OF STEPS        0
Info: STEPS PER CYCLE        10
Info: PERIODIC CELL BASIS 1  33.7026 0 0
Info: PERIODIC CELL BASIS 2  0 30.2613 0
Info: PERIODIC CELL BASIS 3  0 0 29.3869
Info: PERIODIC CELL CENTER   0 0 0
Info: WRAPPING WATERS AROUND PERIODIC BOUNDARIES ON OUTPUT.
Info: WRAPPING ALL CLUSTERS AROUND PERIODIC BOUNDARIES ON OUTPUT.
Info: FIRST LDB TIMESTEP     50
Info: LAST LDB TIMESTEP     -1
Info: HOM BACKGROUND SCALING 1
Info: PME BACKGROUND SCALING 1
Info: MIN ATOMS PER PATCH    40
Info: EMPTY PATCH LOAD       40 ATOMS
Info: VELOCITY FILE          mobley_6861308_equil.vel
Info: CENTER OF MASS MOVING INITIALLY? NO
Info: DIELECTRIC             1
Info: EXCLUDE                SCALED ONE-FOUR
Info: 1-4 ELECTROSTATICS SCALED BY 0.833333
Info: MODIFIED 1-4 VDW PARAMETERS WILL BE USED
Info: DCD FILENAME           mobley_6861308_prod.dcd
Info: DCD FREQUENCY          100000
Info: DCD FIRST STEP         100000
Info: DCD FILE WILL CONTAIN UNIT CELL DATA
Info: XST FILENAME           mobley_6861308_prod.xst
Info: XST FREQUENCY          100000
Info: NO VELOCITY DCD OUTPUT
Info: NO FORCE DCD OUTPUT
Info: OUTPUT FILENAME        mobley_6861308_prod
Info: BINARY OUTPUT FILES WILL BE USED
Info: RESTART FILENAME       mobley_6861308_prod.restart
Info: RESTART FREQUENCY      100000
Info: BINARY RESTART FILES WILL BE USED
Info: CUTOFF                 9
Info: PAIRLIST DISTANCE      11
Info: PAIRLIST SHRINK RATE   0.01
Info: PAIRLIST GROW RATE     0.01
Info: PAIRLIST TRIGGER       0.3
Info: PAIRLISTS PER CYCLE    2
Info: PAIRLISTS ENABLED
Info: MARGIN                 2
Info: HYDROGEN GROUP CUTOFF  2.5
Info: PATCH DIMENSION        15.5
Info: ENERGY OUTPUT STEPS    100000
Info: ENERGY EVALUATION STEPS    100000
Info: OUTPUT ENERGY PRECISION 4
Info: CROSSTERM ENERGY INCLUDED IN DIHEDRAL
Info: TIMING OUTPUT STEPS    1000000
Info: PRESSURE OUTPUT STEPS  100000
Info: ALCHEMICAL FEP ON
Info: FEP CURRENT LAMBDA VALUE     0
Info: FEP COMPARISON LAMBDA VALUE  0.05
Info: FEP INTRA-ALCHEMICAL NON-BONDED INTERACTIONS WILL BE RETAINED
Info: FEP INTRA-ALCHEMICAL BONDED INTERACTIONS WILL BE RETAINED
Info: FEP VDW SHIFTING COEFFICIENT 5
Info: FEP ELEC. ACTIVE FOR ANNIHILATED PARTICLES BETWEEN LAMBDA = 0 AND LAMBDA = 0.5
Info: FEP ELEC. ACTIVE FOR EXNIHILATED PARTICLES BETWEEN LAMBDA = 0.5 AND LAMBDA = 1
Info: FEP VDW ACTIVE FOR ANNIHILATED PARTICLES BETWEEN LAMBDA = 0 AND LAMBDA = 1
Info: FEP VDW ACTIVE FOR EXNIHILATED PARTICLES BETWEEN LAMBDA = 0 AND LAMBDA = 1
Info: FEP BOND ACTIVE FOR ANNIHILATED PARTICLES BETWEEN LAMBDA = 1 AND LAMBDA = 1
Info: FEP BOND ACTIVE FOR EXNIHILATED PARTICLES BETWEEN LAMBDA = 0 AND LAMBDA = 0
Info: LANGEVIN DYNAMICS ACTIVE
Info: LANGEVIN TEMPERATURE   300
Info: LANGEVIN USING BBK INTEGRATOR
Info: LANGEVIN DAMPING COEFFICIENT IS 1 INVERSE PS
Info: LANGEVIN DYNAMICS APPLIED TO HYDROGENS
Info: LANGEVIN PISTON PRESSURE CONTROL ACTIVE
Info:        TARGET PRESSURE IS 1.01325 BAR
Info:     OSCILLATION PERIOD IS 50 FS
Info:             DECAY TIME IS 25 FS
Info:     PISTON TEMPERATURE IS 300 K
Info:       PRESSURE CONTROL IS GROUP-BASED
Info:    INITIAL STRAIN RATE IS -0.000474029 -0.000474029 -0.000474029
Info:       CELL FLUCTUATION IS ISOTROPIC
Info: PARTICLE MESH EWALD (PME) ACTIVE
Info: PME TOLERANCE               1e-06
Info: PME EWALD COEFFICIENT       0.348832
Info: PME INTERPOLATION ORDER     4
Info: PME GRID DIMENSIONS         36 32 32
Info: PME MAXIMUM GRID SPACING    1
Info: PME CALCULATION WILL BE PERFORMED ON GPU
Info: FULL ELECTROSTATIC EVALUATION FREQUENCY      2
Info: USING VERLET I (r-RESPA) MTS SCHEME.
Info: C1 SPLITTING OF LONG RANGE ELECTROSTATICS
Info: PLACING ATOMS IN PATCHES BY HYDROGEN GROUPS
Info: RIGID BONDS TO HYDROGEN : ALL
Info:         ERROR TOLERANCE : 1e-08
Info:          MAX ITERATIONS : 100
Info: RIGID WATER USING SETTLE ALGORITHM
Info: RANDOM NUMBER SEED     1743821655
Info: USE HYDROGEN BONDS?    NO
Info: Using AMBER format force field!
Info: AMBER PARM FILE        mobley_6861308.prmtop
Info: COORDINATE PDB         mobley_6861308.pdb
Info: Exclusions will be read from PARM file!
Info: SCNB (VDW SCALING)     2
Info: USING ARITHMETIC MEAN TO COMBINE L-J SIGMA PARAMETERS
Info: BINARY COORDINATES     mobley_6861308_equil.coor
Info: SUMMARY OF PARAMETERS:
Info: 10 BONDS
Info: 12 ANGLES
Info:   12 HARMONIC
Info:   0 COSINE-BASED
Info: 7 DIHEDRAL
Info: 0 IMPROPER
Info: 0 CROSSTERM
Info: 0 VDW
Info: 45 VDW_PAIRS
Info: 0 NBTHOLE_PAIRS
Info: To read alchdata from file: mobley_6861308.pdb
Info: To read alchflag data from column: 5
Info: STRUCTURE SUMMARY:
Info: 2919 ATOMS
Info: 2919 BONDS
Info: 39 ANGLES
Info: 58 DIHEDRALS
Info: 0 IMPROPERS
Info: 0 CROSSTERMS
Info: 3003 EXCLUSIONS
Info: 2907 RIGID BONDS
Info: ALCH: 0 ATOMS TO DISAPPEAR IN FINAL STATE
Info: ALCH: 24 ATOMS TO APPEAR IN FINAL STATE
Info: 5850 DEGREES OF FREEDOM
Info: 977 HYDROGEN GROUPS
Info: 4 ATOMS IN LARGEST HYDROGEN GROUP
Info: 977 MIGRATION GROUPS
Info: 4 ATOMS IN LARGEST MIGRATION GROUP
Info: TOTAL MASS = 17549.6 amu
Info: TOTAL CHARGE = 0.000199981 e
Info: MASS DENSITY = 0.97235 g/cm^3
Info: ATOM DENSITY = 0.0973933 atoms/A^3
Info: ADDED 0 IMPLICIT EXCLUSIONS
Info: NONBONDED TABLE R-SQUARED SPACING: 0.0625
Info: NONBONDED TABLE SIZE: 705 POINTS
Info: REMOVING COM VELOCITY -0.190182 -0.0822613 0.00322568
Info: Use 3D box decompostion in PME FFT.
Info: Updated CUDA force table with 4096 elements.
Info: Updated CUDA LJ table with 9 x 9 elements.
Info: Found 23 unique exclusion lists needing 76 bytes
TCL: Running for 1500000 steps
ETITLE: TS BOND ANGLE DIHED IMPRP ELECT VDW BOUNDARY MISC KINETIC TOTAL TEMP POTENTIAL TOTALAVG TEMPAVG PRESSURE GPRESSURE VOLUME PRESSAVG GPRESSAVG
ENERGY: 0 2.9163 9.2460 6.2649 0.0000 -10745.0268 1462.6412 0.0000 0.0000 1734.6657 -7529.2928 298.4354 -9263.9585 -7529.2928 298.4354 64.7840 142.5810 29971.2532 64.7840 142.5810
ENERGY: 300000 1.4278 5.9046 3.9551 0.0000 -10530.9953 1332.4147 0.0000 0.0000 1698.2961 -7488.9969 292.1783 -9187.2931 -7479.3052 294.8672 -899.7242 -870.5979 29996.8455 -475.3910 -429.4579
ENERGY: 600000 3.2057 5.9918 5.5317 0.0000 -10679.8868 1440.9050 0.0000 0.0000 1767.9009 -7456.3517 304.1532 -9224.2526 -7447.6761 296.2211 -60.8590 0.8153 29915.1515 -533.8773 -470.6194
ENERGY: 900000 3.3323 10.5686 5.2050 0.0000 -10619.4484 1447.9555 0.0000 0.0000 1735.0638 -7417.3233 298.5039 -9152.3871 -7445.5771 296.9441 253.9331 262.8562 29917.0573 -254.2187 -210.3643
ENERGY: 1200000 4.6366 7.2528 8.2899 0.0000 -10571.9196 1366.3452 0.0000 0.0000 1717.2829 -7468.1122 295.4448 -9185.3951 -7434.2212 296.0893 -703.1628 -639.1586 29930.6576 -150.3337 -104.0815
ENERGY: 1500000 3.6428 4.6674 9.0050 0.0000 -10537.0325 1422.7744 0.0000 0.0000 1716.4057 -7380.5372 295.2939 -9096.9429 -7425.6868 296.3461 43.7973 60.9822 30041.5874 -99.0413 -55.5452
TCL: Running FEP window   2: Lambda1 0.05   Lambda2 0.1    [dLambda 0.05  ]
TCL: Setting parameter firsttimestep to 0
TCL: Setting parameter alchLambda to 0.05
Info: NONBONDED TABLE R-SQUARED SPACING: 0.0625
Info: NONBONDED TABLE SIZE: 705 POINTS
TCL: Setting parameter alchLambda2 to 0.1
Info: NONBONDED TABLE R-SQUARED SPACING: 0.0625
Info: NONBONDED TABLE SIZE: 705 POINTS
TCL: Running for 1500000 steps
ETITLE: TS BOND ANGLE DIHED IMPRP ELECT VDW BOUNDARY MISC KINETIC TOTAL TEMP POTENTIAL TOTALAVG TEMPAVG PRESSURE GPRESSURE VOLUME PRESSAVG GPRESSAVG
ENERGY: 0 3.6428 4.6674 9.0050 0.0000 -10537.0345 1426.3613 0.0000 0.0000 1715.5094 -7377.8486 295.1397 -9093.3580 -7377.8486 295.1397 -29.3482 70.8313 30041.5874 -29.3482 70.8313
ENERGY: 300000 2.8812 7.8770 3.9652 0.0000 -10672.2078 1462.2946 0.0000 0.0000 1703.8273 -7491.3625 293.1299 -9195.1898 -7424.1519 297.1112 298.0775 285.1484 29514.2356 -146.9350 -101.8966
ENERGY: 600000 8.1958 10.5114 5.0758 0.0000 -10540.7799 1370.0143 0.0000 0.0000 1690.2653 -7456.7172 290.7966 -9146.9825 -7413.3513 297.5063 -393.3018 -357.3400 29759.2573 -139.0124 -80.7228
ENERGY: 900000 5.6235 8.0834 5.3725 0.0000 -10811.6317 1542.0376 0.0000 0.0000 1726.6083 -7523.9065 297.0492 -9250.5148 -7417.1026 298.7597 596.1710 680.6454 29746.8921 -1.7368 60.0322
ENERGY: 1200000 3.1851 10.9546 7.5869 0.0000 -10579.3329 1420.4575 0.0000 0.0000 1743.2894 -7393.8594 299.9190 -9137.1487 -7406.7870 299.3324 17.1550 165.0815 29667.7633 2.2864 63.3305
ENERGY: 1500000 7.2461 7.8092 5.5026 0.0000 -10654.7588 1506.8165 0.0000 0.0000 1690.9619 -7436.4225 290.9165 -9127.3844 -7407.8656 298.3588 527.8638 585.6025 29942.6272 22.7346 86.2489
TCL: Running FEP window   3: Lambda1 0.1    Lambda2 0.15000000000000002 [dLambda 0.05000000000000002]
TCL: Setting parameter firsttimestep to 0
TCL: Setting parameter alchLambda to 0.1
Info: NONBONDED TABLE R-SQUARED SPACING: 0.0625
Info: NONBONDED TABLE SIZE: 705 POINTS
TCL: Setting parameter alchLambda2 to 0.15000000000000002
Info: NONBONDED TABLE R-SQUARED SPACING: 0.0625
Info: NONBONDED TABLE SIZE: 705 POINTS
TCL: Running for 1500000 steps
ETITLE: TS BOND ANGLE DIHED IMPRP ELECT VDW BOUNDARY MISC KINETIC TOTAL TEMP POTENTIAL TOTALAVG TEMPAVG PRESSURE GPRESSURE VOLUME PRESSAVG GPRESSAVG
ENERGY: 0 7.2461 7.8092 5.5026 0.0000 -10654.7581 1509.6605 0.0000 0.0000 1690.0825 -7434.4572 290.7652 -9124.5397 -7434.4572 290.7652 525.0560 595.9828 29942.6272 525.0560 595.9828
ENERGY: 300000 2.5380 7.2740 6.9780 0.0000 -10699.3949 1489.4194 0.0000 0.0000 1759.1466 -7434.0389 302.6471 -9193.1855 -7416.3279 297.6946 393.7058 486.1950 29754.1482 168.8626 241.1475
ENERGY: 600000 4.1049 6.1626 7.7829 0.0000 -10565.7903 1353.1223 0.0000 0.0000 1791.0868 -7403.5308 308.1422 -9194.6176 -7413.6490 299.5233 -642.4106 -622.5383 29788.3835 45.1416 127.9359
ENERGY: 900000 3.4514 7.2579 11.0359 0.0000 -10508.6822 1405.8642 0.0000 0.0000 1719.8048 -7361.2679 295.8787 -9081.0727 -7400.5281 299.9248 114.8057 211.9093 29878.4478 -44.4788 38.4080
ENERGY: 1200000 5.2284 14.1416 6.5415 0.0000 -10801.8513 1584.4771 0.0000 0.0000 1742.3894 -7449.0732 299.7642 -9191.4626 -7399.6915 299.0259 919.4848 968.7161 29931.3220 -12.3534 63.5075
ENERGY: 1500000 3.2793 7.2075 8.2195 0.0000 -10441.0683 1320.2077 0.0000 0.0000 1726.9173 -7375.2370 297.1023 -9102.1543 -7408.6598 298.1369 -893.8810 -799.9423 30415.1172 -65.6714 8.7454
TCL: Running FEP window   4: Lambda1 0.15000000000000002 Lambda2 0.2    [dLambda 0.04999999999999999]
TCL: Setting parameter firsttimestep to 0
TCL: Setting parameter alchLambda to 0.15000000000000002
Info: NONBONDED TABLE R-SQUARED SPACING: 0.0625
Info: NONBONDED TABLE SIZE: 705 POINTS
TCL: Setting parameter alchLambda2 to 0.2
Info: NONBONDED TABLE R-SQUARED SPACING: 0.0625
Info: NONBONDED TABLE SIZE: 705 POINTS
TCL: Running for 1500000 steps
ETITLE: TS BOND ANGLE DIHED IMPRP ELECT VDW BOUNDARY MISC KINETIC TOTAL TEMP POTENTIAL TOTALAVG TEMPAVG PRESSURE GPRESSURE VOLUME PRESSAVG GPRESSAVG
ENERGY: 0 3.2793 7.2075 8.2195 0.0000 -10441.0680 1320.9431 0.0000 0.0000 1726.0596 -7375.3591 296.9548 -9101.4186 -7375.3591 296.9548 -871.3336 -793.5699 30415.1172 -871.3336 -793.5699
ENERGY: 300000 6.8031 6.8385 4.6944 0.0000 -10721.1247 1524.1734 0.0000 0.0000 1715.2938 -7463.3216 295.1026 -9178.6154 -7412.5399 297.1436 806.9895 859.7496 29735.7226 -265.7436 -187.6174
ENERGY: 600000 5.1610 10.5751 2.9777 0.0000 -10512.6393 1383.6919 0.0000 0.0000 1762.7250 -7347.5087 303.2628 -9110.2336 -7405.1071 299.2129 -324.9797 -294.5710 30226.3868 -134.5312 -59.7187
ENERGY: 900000 5.9207 12.3440 3.5754 0.0000 -10506.7473 1371.8761 0.0000 0.0000 1732.0655 -7380.9656 297.9880 -9113.0311 -7401.7110 298.4605 -175.4817 -141.5491 29854.8174 -74.2184 -4.9753
ENERGY: 1200000 6.3558 6.1092 6.5316 0.0000 -10662.5881 1389.4459 0.0000 0.0000 1707.9374 -7546.2083 293.8370 -9254.1457 -7419.6914 298.4615 -516.0650 -516.0490 29552.9949 -123.4934 -60.9535
ENERGY: 1500000 2.3076 5.1536 5.3589 0.0000 -10551.3094 1362.2286 0.0000 0.0000 1785.5977 -7390.6630 307.1978 -9176.2607 -7412.3061 298.7560 -712.8046 -610.5864 30347.2582 -182.6692 -115.9395
TCL: Running FEP window   5: Lambda1 0.2    Lambda2 0.25   [dLambda 0.04999999999999999]
TCL: Setting parameter firsttimestep to 0
TCL: Setting parameter alchLambda to 0.2
Info: NONBONDED TABLE R-SQUARED SPACING: 0.0625
Info: NONBONDED TABLE SIZE: 705 POINTS
TCL: Setting parameter alchLambda2 to 0.25
Info: NONBONDED TABLE R-SQUARED SPACING: 0.0625
Info: NONBONDED TABLE SIZE: 705 POINTS
TCL: Running for 1500000 steps
ETITLE: TS BOND ANGLE DIHED IMPRP ELECT VDW BOUNDARY MISC KINETIC TOTAL TEMP POTENTIAL TOTALAVG TEMPAVG PRESSURE GPRESSURE VOLUME PRESSAVG GPRESSAVG
ENERGY: 0 2.3076 5.1536 5.3589 0.0000 -10551.3095 1362.2606 0.0000 0.0000 1784.7280 -7391.5009 307.0482 -9176.2288 -7391.5009 307.0482 -665.7852 -603.8083 30347.2582 -665.7852 -603.8083
ENERGY: 300000 3.1566 11.0536 5.4764 0.0000 -10626.9675 1431.2782 0.0000 0.0000 1737.5054 -7438.4973 298.9239 -9176.0028 -7408.1717 300.3167 -126.0999 13.9616 29869.0567 -685.1107 -599.3889
ENERGY: 600000 2.5408 9.1040 7.0431 0.0000 -10636.1053 1482.0428 0.0000 0.0000 1738.9199 -7396.4548 299.1673 -9135.3747 -7387.5293 302.9366 545.6621 651.8052 29861.6731 -383.3059 -309.5264
ENERGY: 900000 4.3081 9.5904 1.8444 0.0000 -10533.4609 1427.1889 0.0000 0.0000 1727.2538 -7363.2754 297.1602 -9090.5292 -7391.7895 301.2290 190.2333 304.9025 29839.7124 -301.2368 -233.6987
ENERGY: 1200000 9.4758 9.8212 2.9492 0.0000 -10591.5958 1456.3319 0.0000 0.0000 1732.4481 -7380.5696 298.0539 -9113.0177 -7402.2831 299.9967 78.9662 186.9213 29778.8508 -176.9463 -100.1334
ENERGY: 1500000 2.1311 11.6260 6.8935 0.0000 -10475.5478 1395.5768 0.0000 0.0000 1770.5535 -7288.7668 304.6096 -9059.3203 -7397.3348 300.5840 156.8549 176.3099 29797.1639 -146.9511 -76.7948
TCL: Running FEP window   6: Lambda1 0.25   Lambda2 0.3    [dLambda 0.04999999999999999]
TCL: Setting parameter firsttimestep to 0
TCL: Setting parameter alchLambda to 0.25
Info: NONBONDED TABLE R-SQUARED SPACING: 0.0625
Info: NONBONDED TABLE SIZE: 705 POINTS
TCL: Setting parameter alchLambda2 to 0.3
Info: NONBONDED TABLE R-SQUARED SPACING: 0.0625
Info: NONBONDED TABLE SIZE: 705 POINTS
TCL: Running for 1500000 steps
ETITLE: TS BOND ANGLE DIHED IMPRP ELECT VDW BOUNDARY MISC KINETIC TOTAL TEMP POTENTIAL TOTALAVG TEMPAVG PRESSURE GPRESSURE VOLUME PRESSAVG GPRESSAVG
ENERGY: 0 2.1311 11.6260 6.8935 0.0000 -10475.5468 1395.5339 0.0000 0.0000 1769.6777 -7289.6846 304.4589 -9059.3623 -7289.6846 304.4589 98.2777 180.2330 29797.1639 98.2777 180.2330
ENERGY: 300000 5.0191 11.1701 7.9773 0.0000 -10615.1318 1452.8829 0.0000 0.0000 1790.8509 -7347.2315 308.1016 -9138.0824 -7354.6678 303.5533 323.6722 341.2594 30040.0996 -20.1586 43.3597
ENERGY: 600000 4.8734 6.5725 6.3699 0.0000 -10652.8424 1491.2056 0.0000 0.0000 1712.7769 -7431.0441 294.6696 -9143.8209 -7398.9871 299.1780 362.9098 481.9006 30318.7239 -42.0240 23.8679
ENERGY: 900000 2.8196 4.0456 2.7279 0.0000 -10482.8058 1336.5354 0.0000 0.0000 1738.9212 -7397.7561 299.1675 -9136.6773 -7413.0767 298.7833 -923.5696 -881.4875 30444.6876 -49.7171 9.6657
ENERGY: 1200000 1.3006 14.1432 7.8343 0.0000 -10737.6628 1521.5523 0.0000 0.0000 1779.2824 -7413.5500 306.1113 -9192.8324 -7415.8483 300.2408 801.9706 869.7286 29787.8802 119.9797 175.4473
ENERGY: 1500000 3.3514 7.4723 8.3681 0.0000 -10357.5575 1308.1132 0.0000 0.0000 1804.6983 -7225.5542 310.4839 -9030.2525 -7398.3629 301.2028 -670.3724 -594.0766 30262.5395 83.4652 141.8277
TCL: Running FEP window   7: Lambda1 0.3    Lambda2 0.35   [dLambda 0.04999999999999999]
TCL: Setting parameter firsttimestep to 0
TCL: Setting parameter alchLambda to 0.3
Info: NONBONDED TABLE R-SQUARED SPACING: 0.0625
Info: NONBONDED TABLE SIZE: 705 POINTS
TCL: Setting parameter alchLambda2 to 0.35
Info: NONBONDED TABLE R-SQUARED SPACING: 0.0625
Info: NONBONDED TABLE SIZE: 705 POINTS
TCL: Running for 1500000 steps
ETITLE: TS BOND ANGLE DIHED IMPRP ELECT VDW BOUNDARY MISC KINETIC TOTAL TEMP POTENTIAL TOTALAVG TEMPAVG PRESSURE GPRESSURE VOLUME PRESSAVG GPRESSAVG
ENERGY: 0 3.3513 7.4723 8.3681 0.0000 -10357.5581 1308.1184 0.0000 0.0000 1803.8036 -7226.4443 310.3300 -9030.2479 -7226.4443 310.3300 -662.7067 -585.3530 30262.5395 -662.7067 -585.3530
ENERGY: 300000 2.0026 6.6508 7.4925 0.0000 -10551.2965 1394.0063 0.0000 0.0000 1759.6983 -7381.4460 302.7420 -9141.1443 -7363.7314 303.0049 -185.0650 -158.2071 30066.7208 -379.5739 -307.5205
ENERGY: 600000 3.8360 10.2856 5.6725 0.0000 -10500.0632 1368.2866 0.0000 0.0000 1723.8702 -7388.1124 296.5781 -9111.9826 -7376.7936 300.6982 -567.3914 -430.1549 30140.6775 -512.7709 -442.3720
ENERGY: 900000 6.0221 14.3117 7.2076 0.0000 -10545.6755 1366.4682 0.0000 0.0000 1738.1198 -7413.5462 299.0296 -9151.6660 -7410.7701 299.7670 -434.5639 -357.7850 29745.5508 -413.5636 -340.2260
ENERGY: 1200000 7.7230 9.4344 3.5770 0.0000 -10553.0176 1413.8233 0.0000 0.0000 1808.8954 -7309.5646 311.2060 -9118.4600 -7414.5789 299.9244 -176.9222 -102.3438 30093.0056 -308.1957 -233.4053
ENERGY: 1500000 3.3846 9.5978 3.6334 0.0000 -10538.1702 1436.3636 0.0000 0.0000 1807.4722 -7277.7188 310.9611 -9085.1909 -7398.3150 301.1012 343.6615 389.9369 30115.9317 -263.3384 -183.7863
TCL: Running FEP window   8: Lambda1 0.35   Lambda2 0.39999999999999997 [dLambda 0.04999999999999999]
TCL: Setting parameter firsttimestep to 0
TCL: Setting parameter alchLambda to 0.35
Info: NONBONDED TABLE R-SQUARED SPACING: 0.0625
Info: NONBONDED TABLE SIZE: 705 POINTS
TCL: Setting parameter alchLambda2 to 0.39999999999999997
Info: NONBONDED TABLE R-SQUARED SPACING: 0.0625
Info: NONBONDED TABLE SIZE: 705 POINTS
TCL: Running for 1500000 steps
ETITLE: TS BOND ANGLE DIHED IMPRP ELECT VDW BOUNDARY MISC KINETIC TOTAL TEMP POTENTIAL TOTALAVG TEMPAVG PRESSURE GPRESSURE VOLUME PRESSAVG GPRESSAVG
ENERGY: 0 3.3846 9.5978 3.6334 0.0000 -10538.1700 1436.3300 0.0000 0.0000 1806.6205 -7278.6038 310.8146 -9085.2243 -7278.6038 310.8146 326.1881 398.3710 30115.9317 326.1881 398.3710
ENERGY: 300000 3.5088 8.0603 3.7903 0.0000 -10536.6219 1370.2087 0.0000 0.0000 1784.2295 -7366.8243 306.9624 -9151.0538 -7326.9409 306.9308 -444.7246 -406.5035 30015.7628 -237.3246 -171.2553
ENERGY: 600000 5.2072 5.8832 4.2271 0.0000 -10543.7301 1381.2460 0.0000 0.0000 1788.2338 -7358.9328 307.6513 -9147.1666 -7364.7760 305.0545 -323.9494 -247.1397 30135.5115 -94.0063 -28.0353
ENERGY: 900000 5.1763 10.1413 7.5415 0.0000 -10525.5275 1369.9737 0.0000 0.0000 1783.1310 -7349.5638 306.7734 -9132.6948 -7378.5461 304.0377 -487.3298 -398.4465 29997.2506 -48.9288 11.1393
ENERGY: 1200000 3.9982 7.9085 9.9973 0.0000 -10669.5698 1425.5714 0.0000 0.0000 1789.1769 -7432.9176 307.8136 -9222.0945 -7379.9916 304.3210 411.6501 506.4810 29158.4389 6.5691 62.2144
ENERGY: 1500000 2.4874 5.8648 3.9779 0.0000 -10778.6318 1509.1772 0.0000 0.0000 1740.1529 -7516.9717 299.3794 -9257.1246 -7394.2211 303.5344 406.2003 423.1954 29797.7079 -27.2597 27.1602
TCL: Running FEP window   9: Lambda1 0.39999999999999997 Lambda2 0.44999999999999996 [dLambda 0.04999999999999999]
TCL: Setting parameter firsttimestep to 0
TCL: Setting parameter alchLambda to 0.39999999999999997
Info: NONBONDED TABLE R-SQUARED SPACING: 0.0625
Info: NONBONDED TABLE SIZE: 705 POINTS
TCL: Setting parameter alchLambda2 to 0.44999999999999996
Info: NONBONDED TABLE R-SQUARED SPACING: 0.0625
Info: NONBONDED TABLE SIZE: 705 POINTS
TCL: Running for 1500000 steps
ETITLE: TS BOND ANGLE DIHED IMPRP ELECT VDW BOUNDARY MISC KINETIC TOTAL TEMP POTENTIAL TOTALAVG TEMPAVG PRESSURE GPRESSURE VOLUME PRESSAVG GPRESSAVG
ENERGY: 0 2.4874 5.8648 3.9779 0.0000 -10778.6319 1510.4054 0.0000 0.0000 1739.2643 -7516.6322 299.2265 -9255.8964 -7516.6322 299.2265 360.0448 438.2436 29797.7079 360.0448 438.2436
ENERGY: 300000 4.3542 4.8885 10.1409 0.0000 -10459.6928 1383.3551 0.0000 0.0000 1705.1047 -7351.8494 293.3496 -9056.9542 -7465.2578 298.0057 -312.9376 -245.1203 30400.5424 -39.5752 33.2010
ENERGY: 600000 2.0174 5.4012 7.8287 0.0000 -10652.1176 1478.6261 0.0000 0.0000 1736.0870 -7422.1573 298.6799 -9158.2443 -7436.1712 299.9850 436.4154 503.3292 29866.3106 82.5851 157.2395
ENERGY: 900000 4.2412 10.7019 5.5573 0.0000 -10656.8109 1487.6440 0.0000 0.0000 1757.7632 -7390.9032 302.4091 -9148.6664 -7431.0915 301.4220 309.0709 352.8671 30179.3177 -7.1689 65.0375
ENERGY: 1200000 8.3065 6.6678 4.9604 0.0000 -10710.0054 1413.3041 0.0000 0.0000 1787.3247 -7489.4419 307.4949 -9276.7666 -7427.5942 302.2819 -462.1962 -389.6727 29858.3235 -67.9784 1.7090
ENERGY: 1500000 2.4130 9.5467 7.8258 0.0000 -10642.1954 1459.4835 0.0000 0.0000 1722.0657 -7440.8606 296.2677 -9162.9263 -7431.5705 301.7737 432.9114 511.8239 29687.7553 -58.2125 10.3293
TCL: Running FEP window  10: Lambda1 0.44999999999999996 Lambda2 0.49999999999999994 [dLambda 0.04999999999999999]
TCL: Setting parameter firsttimestep to 0
TCL: Setting parameter alchLambda to 0.44999999999999996
Info: NONBONDED TABLE R-SQUARED SPACING: 0.0625
Info: NONBONDED TABLE SIZE: 705 POINTS
TCL: Setting parameter alchLambda2 to 0.49999999999999994
Info: NONBONDED TABLE R-SQUARED SPACING: 0.0625
Info: NONBONDED TABLE SIZE: 705 POINTS
TCL: Running for 1500000 steps
ETITLE: TS BOND ANGLE DIHED IMPRP ELECT VDW BOUNDARY MISC KINETIC TOTAL TEMP POTENTIAL TOTALAVG TEMPAVG PRESSURE GPRESSURE VOLUME PRESSAVG GPRESSAVG
ENERGY: 0 2.4130 9.5467 7.8258 0.0000 -10642.1958 1459.2756 0.0000 0.0000 1721.2047 -7441.9299 296.1195 -9163.1346 -7441.9299 296.1195 442.3245 517.5950 29687.7553 442.3245 517.5950
ENERGY: 300000 6.6303 10.6800 7.2189 0.0000 -10634.7336 1415.2711 0.0000 0.0000 1736.4533 -7458.4799 298.7429 -9194.9332 -7487.5987 295.3205 -20.7878 -13.1093 29625.9702 17.7039 82.3626
ENERGY: 600000 2.8990 8.7566 6.7815 0.0000 -10595.4473 1435.0400 0.0000 0.0000 1745.0204 -7396.9498 300.2168 -9141.9701 -7473.7233 294.3792 148.1724 232.7202 29868.0268 -11.6944 63.2272
ENERGY: 900000 7.3042 5.4032 3.1312 0.0000 -10572.6942 1331.3755 0.0000 0.0000 1691.2139 -7534.2662 290.9598 -9225.4801 -7477.4266 294.7246 -944.7096 -904.9600 29873.7091 -154.2253 -87.5857
ENERGY: 1200000 3.6043 6.3090 5.1436 0.0000 -10476.4037 1370.3690 0.0000 0.0000 1768.6643 -7322.3135 304.2846 -9090.9778 -7441.8337 296.7294 -369.9626 -296.6231 30362.1937 -96.3662 -28.8999
ENERGY: 1500000 3.8301 10.1828 4.5080 0.0000 -10587.6442 1396.7781 0.0000 0.0000 1699.3673 -7472.9780 292.3626 -9172.3453 -7436.6831 296.6745 -158.4517 -137.5977 29879.5310 -125.4414 -63.8411
TCL: Running FEP window  11: Lambda1 0.49999999999999994 Lambda2 0.5499999999999999 [dLambda 0.04999999999999999]
TCL: Setting parameter firsttimestep to 0
TCL: Setting parameter alchLambda to 0.49999999999999994
Info: NONBONDED TABLE R-SQUARED SPACING: 0.0625
Info: NONBONDED TABLE SIZE: 705 POINTS
TCL: Setting parameter alchLambda2 to 0.5499999999999999
Info: NONBONDED TABLE R-SQUARED SPACING: 0.0625
Info: NONBONDED TABLE SIZE: 705 POINTS
TCL: Running for 1500000 steps
ETITLE: TS BOND ANGLE DIHED IMPRP ELECT VDW BOUNDARY MISC KINETIC TOTAL TEMP POTENTIAL TOTALAVG TEMPAVG PRESSURE GPRESSURE VOLUME PRESSAVG GPRESSAVG
ENERGY: 0 3.8301 10.1828 4.5080 0.0000 -10587.6440 1396.2582 0.0000 0.0000 1698.5151 -7474.3498 292.2160 -9172.8650 -7474.3498 292.2160 -213.7112 -131.3903 29879.5310 -213.7112 -131.3903
ENERGY: 300000 3.3731 9.0888 6.3173 0.0000 -10564.0191 1375.5465 0.0000 0.0000 1720.3646 -7449.3288 295.9750 -9169.6934 -7406.4720 298.5540 -310.6212 -262.4673 29778.1932 -42.6283 9.1932
ENERGY: 600000 2.6923 6.1781 5.2521 0.0000 -10598.8833 1468.9088 0.0000 0.0000 1741.6057 -7374.2463 299.6294 -9115.8520 -7395.2849 300.0497 425.1542 466.5828 30414.0479 98.0513 134.5857
ENERGY: 900000 8.5744 10.4058 4.4014 0.0000 -10533.3608 1390.7920 0.0000 0.0000 1764.0178 -7355.1694 303.4852 -9119.1872 -7394.6170 300.7910 -446.5665 -348.8175 30325.5433 47.8560 92.3513
ENERGY: 1200000 3.5674 8.9671 3.5604 0.0000 -10579.1951 1396.7411 0.0000 0.0000 1779.8365 -7386.5228 306.2067 -9166.3592 -7392.2643 301.3169 65.9484 154.0703 29490.7854 -4.8356 52.3787
ENERGY: 1500000 6.8022 11.8702 6.6136 0.0000 -10650.0656 1481.0549 0.0000 0.0000 1709.3122 -7434.4125 294.0735 -9143.7247 -7394.4446 300.7731 779.7633 804.1740 29616.9809 -0.1938 60.3682
TCL: Running FEP window  12: Lambda1 0.5499999999999999 Lambda2 0.6    [dLambda 0.050000000000000044]
TCL: Setting parameter firsttimestep to 0
TCL: Setting parameter alchLambda to 0.5499999999999999
Info: NONBONDED TABLE R-SQUARED SPACING: 0.0625
Info: NONBONDED TABLE SIZE: 705 POINTS
TCL: Setting parameter alchLambda2 to 0.6
Info: NONBONDED TABLE R-SQUARED SPACING: 0.0625
Info: NONBONDED TABLE SIZE: 705 POINTS
TCL: Running for 1500000 steps
ETITLE: TS BOND ANGLE DIHED IMPRP ELECT VDW BOUNDARY MISC KINETIC TOTAL TEMP POTENTIAL TOTALAVG TEMPAVG PRESSURE GPRESSURE VOLUME PRESSAVG GPRESSAVG
ENERGY: 0 6.8022 11.8702 6.6136 0.0000 -10649.3817 1480.9455 0.0000 0.0000 1708.4529 -7434.6973 293.9257 -9143.1501 -7434.6973 293.9257 715.6044 815.9595 29616.9809 715.6044 815.9595
ENERGY: 300000 1.9814 10.4108 4.8411 0.0000 -10541.6933 1445.7041 0.0000 0.0000 1717.5843 -7361.1715 295.4967 -9078.7558 -7427.9186 295.3646 407.7856 375.5946 30269.9031 254.6988 322.0208
ENERGY: 600000 3.3334 7.1759 4.6426 0.0000 -10671.2303 1455.3654 0.0000 0.0000 1780.2035 -7420.5095 306.2698 -9200.7130 -7447.1798 296.6237 440.4389 485.5594 30018.6104 261.6165 334.6959
ENERGY: 900000 4.0393 10.8758 6.1814 0.0000 -10457.1694 1278.6038 0.0000 0.0000 1701.2664 -7456.2027 292.6893 -9157.4691 -7442.7579 297.8420 -1369.6868 -1333.7238 30397.3546 157.5480 224.0739
ENERGY: 1200000 2.3972 7.1718 5.8140 0.0000 -10578.3605 1417.2374 0.0000 0.0000 1771.3948 -7374.3453 304.7543 -9145.7401 -7429.3175 298.8234 269.5610 310.9467 29797.8059 101.5571 169.6377
ENERGY: 1500000 3.4102 9.2786 6.2288 0.0000 -10630.3485 1439.2730 0.0000 0.0000 1786.9274 -7385.2305 307.4266 -9172.1579 -7418.5476 299.6483 324.4811 359.2506 29760.6092 122.8618 185.1999
TCL: Running FEP window  13: Lambda1 0.6    Lambda2 0.65   [dLambda 0.050000000000000044]
TCL: Setting parameter firsttimestep to 0
TCL: Setting parameter alchLambda to 0.6
Info: NONBONDED TABLE R-SQUARED SPACING: 0.0625
Info: NONBONDED TABLE SIZE: 705 POINTS
TCL: Setting parameter alchLambda2 to 0.65
Info: NONBONDED TABLE R-SQUARED SPACING: 0.0625
Info: NONBONDED TABLE SIZE: 705 POINTS
TCL: Running for 1500000 steps
ETITLE: TS BOND ANGLE DIHED IMPRP ELECT VDW BOUNDARY MISC KINETIC TOTAL TEMP POTENTIAL TOTALAVG TEMPAVG PRESSURE GPRESSURE VOLUME PRESSAVG GPRESSAVG
ENERGY: 0 3.4102 9.2786 6.2288 0.0000 -10631.3195 1439.2269 0.0000 0.0000 1786.0212 -7387.1538 307.2707 -9173.1750 -7387.1538 307.2707 275.2687 366.7951 29760.6092 275.2687 366.7951
ENERGY: 300000 5.7661 10.6293 8.3379 0.0000 -10474.0552 1323.5330 0.0000 0.0000 1765.9638 -7359.8251 303.8200 -9125.7889 -7381.2030 302.2493 -543.4371 -514.2536 30025.1693 -56.9311 20.5514
ENERGY: 600000 3.9167 10.2522 4.4095 0.0000 -10460.6476 1355.7845 0.0000 0.0000 1787.9985 -7298.2861 307.6109 -9086.2846 -7404.9230 300.7380 -706.1445 -559.1205 30594.7719 -181.0902 -90.5973
ENERGY: 900000 5.8321 8.3364 8.6715 0.0000 -10539.8250 1399.2556 0.0000 0.0000 1759.6938 -7358.0356 302.7413 -9117.7294 -7404.7524 301.3181 -107.7815 -20.1187 30428.3952 -109.2191 -24.3154
ENERGY: 1200000 2.9520 6.1532 5.2135 0.0000 -10512.8796 1301.0711 0.0000 0.0000 1768.2819 -7429.2079 304.2188 -9197.4898 -7404.4244 301.3392 -1160.9363 -1080.1323 30028.7708 -267.4075 -186.5597
ENERGY: 1500000 3.3519 6.8958 8.2031 0.0000 -10624.4070 1393.3136 0.0000 0.0000 1697.4628 -7515.1798 292.0349 -9212.6426 -7410.8866 300.5034 -340.5022 -236.5287 29435.7560 -252.9362 -173.0568
TCL: Running FEP window  14: Lambda1 0.65   Lambda2 0.7000000000000001 [dLambda 0.050000000000000044]
TCL: Setting parameter firsttimestep to 0
TCL: Setting parameter alchLambda to 0.65
Info: NONBONDED TABLE R-SQUARED SPACING: 0.0625
Info: NONBONDED TABLE SIZE: 705 POINTS
TCL: Setting parameter alchLambda2 to 0.7000000000000001
Info: NONBONDED TABLE R-SQUARED SPACING: 0.0625
Info: NONBONDED TABLE SIZE: 705 POINTS
TCL: Running for 1500000 steps
ETITLE: TS BOND ANGLE DIHED IMPRP ELECT VDW BOUNDARY MISC KINETIC TOTAL TEMP POTENTIAL TOTALAVG TEMPAVG PRESSURE GPRESSURE VOLUME PRESSAVG GPRESSAVG
ENERGY: 0 3.3519 6.8958 8.2031 0.0000 -10624.4491 1393.5108 0.0000 0.0000 1696.5876 -7515.8999 291.8843 -9212.4875 -7515.8999 291.8843 -310.5833 -220.5457 29435.7560 -310.5833 -220.5457
ENERGY: 300000 4.3994 10.9678 3.4819 0.0000 -10635.0664 1447.0374 0.0000 0.0000 1762.0041 -7407.1757 303.1387 -9169.1798 -7441.1092 296.1999 260.4460 325.0553 29843.5089 -62.8150 -1.5376
ENERGY: 600000 2.3849 10.7385 4.9896 0.0000 -10517.4103 1353.1343 0.0000 0.0000 1704.0836 -7442.0795 293.1740 -9146.1631 -7426.3420 296.6527 -567.0323 -537.7451 30241.0242 -110.7370 -55.7122
ENERGY: 900000 6.2517 15.5959 6.9332 0.0000 -10527.6038 1342.3623 0.0000 0.0000 1733.3281 -7423.1327 298.2053 -9156.4607 -7412.5743 297.3635 -588.8137 -580.1455 30154.2685 -218.7316 -160.7257
ENERGY: 1200000 4.6263 8.9569 5.4450 0.0000 -10532.4496 1364.1539 0.0000 0.0000 1714.7813 -7434.4862 295.0144 -9149.2675 -7417.1493 297.1093 -666.4541 -611.4493 30292.8306 -303.7205 -247.3097
ENERGY: 1500000 4.6179 16.5336 5.6204 0.0000 -10652.0812 1378.0001 0.0000 0.0000 1768.8953 -7478.4139 304.3243 -9247.3092 -7415.1254 298.5743 -602.9634 -556.3985 29855.1151 -292.0353 -241.2776
TCL: Running FEP window  15: Lambda1 0.7000000000000001 Lambda2 0.7500000000000001 [dLambda 0.050000000000000044]
TCL: Setting parameter firsttimestep to 0
TCL: Setting parameter alchLambda to 0.7000000000000001
Info: NONBONDED TABLE R-SQUARED SPACING: 0.0625
Info: NONBONDED TABLE SIZE: 705 POINTS
TCL: Setting parameter alchLambda2 to 0.7500000000000001
Info: NONBONDED TABLE R-SQUARED SPACING: 0.0625
Info: NONBONDED TABLE SIZE: 705 POINTS
TCL: Running for 1500000 steps
ETITLE: TS BOND ANGLE DIHED IMPRP ELECT VDW BOUNDARY MISC KINETIC TOTAL TEMP POTENTIAL TOTALAVG TEMPAVG PRESSURE GPRESSURE VOLUME PRESSAVG GPRESSAVG
ENERGY: 0 4.6179 16.5336 5.6204 0.0000 -10653.3609 1377.9912 0.0000 0.0000 1768.0359 -7480.5620 304.1765 -9248.5979 -7480.5620 304.1765 -625.3156 -546.9830 29855.1151 -625.3156 -546.9830
ENERGY: 300000 4.1391 7.5909 11.8081 0.0000 -10680.2772 1518.0136 0.0000 0.0000 1835.3961 -7303.3295 315.7652 -9138.7255 -7412.3262 304.1296 1158.0280 1200.6861 29711.6253 -56.9000 13.4649
ENERGY: 600000 5.1331 7.4826 6.4554 0.0000 -10546.9818 1395.1330 0.0000 0.0000 1736.2964 -7396.4814 298.7159 -9132.7777 -7417.3681 300.7190 -152.5609 -16.5167 29903.4639 -126.7726 -52.3852
ENERGY: 900000 1.8413 10.4217 9.0462 0.0000 -10496.7077 1303.4910 0.0000 0.0000 1697.6869 -7474.2207 292.0735 -9171.9076 -7438.5618 299.2412 -1020.4459 -978.8063 30244.1271 -198.1886 -134.2011
ENERGY: 1200000 8.5728 6.4954 2.3112 0.0000 -10574.8612 1405.0019 0.0000 0.0000 1768.4408 -7384.0391 304.2461 -9152.4799 -7425.1572 299.3430 -588.4248 -561.8032 30704.9850 -212.3913 -153.2735
ENERGY: 1500000 6.8319 10.9473 3.9235 0.0000 -10677.6283 1496.3940 0.0000 0.0000 1722.4313 -7437.1003 296.3306 -9159.5316 -7420.5661 299.4458 849.3878 814.3542 29695.1983 -145.6600 -95.0409
TCL: Running FEP window  16: Lambda1 0.7500000000000001 Lambda2 0.8000000000000002 [dLambda 0.050000000000000044]
TCL: Setting parameter firsttimestep to 0
TCL: Setting parameter alchLambda to 0.7500000000000001
Info: NONBONDED TABLE R-SQUARED SPACING: 0.0625
Info: NONBONDED TABLE SIZE: 705 POINTS
TCL: Setting parameter alchLambda2 to 0.8000000000000002
Info: NONBONDED TABLE R-SQUARED SPACING: 0.0625
Info: NONBONDED TABLE SIZE: 705 POINTS
TCL: Running for 1500000 steps
ETITLE: TS BOND ANGLE DIHED IMPRP ELECT VDW BOUNDARY MISC KINETIC TOTAL TEMP POTENTIAL TOTALAVG TEMPAVG PRESSURE GPRESSURE VOLUME PRESSAVG GPRESSAVG
ENERGY: 0 6.8319 10.9473 3.9235 0.0000 -10680.0503 1496.5859 0.0000 0.0000 1721.5810 -7440.1806 296.1843 -9161.7617 -7440.1806 296.1843 756.4556 825.4052 29695.1983 756.4556 825.4052
ENERGY: 300000 4.0253 6.8080 7.1520 0.0000 -10602.5233 1375.8113 0.0000 0.0000 1798.7460 -7409.9808 309.4599 -9208.7268 -7416.8299 304.4610 -676.2533 -596.3004 30460.2490 -170.8971 -97.2515
ENERGY: 600000 3.8067 6.7560 3.8311 0.0000 -10565.5354 1363.6530 0.0000 0.0000 1747.8424 -7439.6462 300.7023 -9187.4886 -7412.4843 303.5248 -511.8111 -386.5892 30095.0903 -240.6564 -169.7465
ENERGY: 900000 2.8100 8.3182 4.5465 0.0000 -10569.7667 1418.7297 0.0000 0.0000 1808.9085 -7326.4538 311.2083 -9135.3623 -7411.8282 302.7953 48.8783 80.1493 30052.3105 -117.5074 -52.1808
ENERGY: 1200000 5.3444 15.3188 3.2240 0.0000 -10660.7397 1400.8728 0.0000 0.0000 1705.6569 -7530.3228 293.4447 -9235.9797 -7424.9227 301.6416 -287.4700 -232.9279 29906.1569 -94.3074 -34.2277
ENERGY: 1500000 5.1701 7.7305 6.6004 0.0000 -10777.5217 1488.9658 0.0000 0.0000 1779.8718 -7489.1831 306.2127 -9269.0549 -7427.3033 301.4133 600.7380 721.9144 29361.7702 -25.5447 42.4051
TCL: Running FEP window  17: Lambda1 0.8000000000000002 Lambda2 0.8500000000000002 [dLambda 0.050000000000000044]
TCL: Setting parameter firsttimestep to 0
TCL: Setting parameter alchLambda to 0.8000000000000002
Info: NONBONDED TABLE R-SQUARED SPACING: 0.0625
Info: NONBONDED TABLE SIZE: 705 POINTS
TCL: Setting parameter alchLambda2 to 0.8500000000000002
Info: NONBONDED TABLE R-SQUARED SPACING: 0.0625
Info: NONBONDED TABLE SIZE: 705 POINTS
TCL: Running for 1500000 steps
ETITLE: TS BOND ANGLE DIHED IMPRP ELECT VDW BOUNDARY MISC KINETIC TOTAL TEMP POTENTIAL TOTALAVG TEMPAVG PRESSURE GPRESSURE VOLUME PRESSAVG GPRESSAVG
ENERGY: 0 5.1701 7.7305 6.6004 0.0000 -10779.4013 1488.7924 0.0000 0.0000 1778.9999 -7492.1080 306.0627 -9271.1079 -7492.1080 306.0627 640.2972 729.1888 29361.7702 640.2972 729.1888
ENERGY: 300000 5.5788 8.9804 3.1947 0.0000 -10486.9099 1363.0561 0.0000 0.0000 1743.3558 -7362.7441 299.9304 -9106.0999 -7430.3437 300.8828 -563.0712 -507.6722 30355.2147 -197.4592 -143.8320
ENERGY: 600000 5.4206 7.2589 7.0769 0.0000 -10658.4774 1384.1567 0.0000 0.0000 1792.6919 -7461.8725 308.4183 -9254.5644 -7448.7293 300.4787 -680.6511 -602.0280 30232.2401 -333.0184 -264.1234
ENERGY: 900000 5.9608 12.7153 4.3495 0.0000 -10537.3107 1388.0911 0.0000 0.0000 1771.2379 -7354.9561 304.7273 -9126.1940 -7443.8215 301.2635 -83.4703 -11.2612 29895.3221 -284.1629 -203.5868
ENERGY: 1200000 3.8558 8.7989 2.1520 0.0000 -10618.5826 1513.4229 0.0000 0.0000 1731.0075 -7359.3456 297.8060 -9090.3530 -7439.9095 299.9466 1209.1861 1253.9181 29596.4340 -213.9932 -136.4745
ENERGY: 1500000 2.7069 13.0935 10.7278 0.0000 -10589.4327 1385.6963 0.0000 0.0000 1741.0587 -7436.1494 299.5352 -9177.2082 -7440.8545 299.5736 -32.3240 -22.1488 29830.1633 -168.0745 -95.5477
TCL: Running FEP window  18: Lambda1 0.8500000000000002 Lambda2 0.9000000000000002 [dLambda 0.050000000000000044]
TCL: Setting parameter firsttimestep to 0
TCL: Setting parameter alchLambda to 0.8500000000000002
Info: NONBONDED TABLE R-SQUARED SPACING: 0.0625
Info: NONBONDED TABLE SIZE: 705 POINTS
TCL: Setting parameter alchLambda2 to 0.9000000000000002
Info: NONBONDED TABLE R-SQUARED SPACING: 0.0625
Info: NONBONDED TABLE SIZE: 705 POINTS
TCL: Running for 1500000 steps
ETITLE: TS BOND ANGLE DIHED IMPRP ELECT VDW BOUNDARY MISC KINETIC TOTAL TEMP POTENTIAL TOTALAVG TEMPAVG PRESSURE GPRESSURE VOLUME PRESSAVG GPRESSAVG
ENERGY: 0 2.7069 13.0935 10.7278 0.0000 -10590.9769 1385.7049 0.0000 0.0000 1740.1850 -7438.5587 299.3849 -9178.7437 -7438.5587 299.3849 -97.1714 -9.1688 29830.1633 -97.1714 -9.1688
ENERGY: 300000 4.4867 9.3466 4.0651 0.0000 -10631.9938 1447.6341 0.0000 0.0000 1731.0183 -7435.4430 297.8079 -9166.4612 -7415.2416 300.0729 269.1459 291.7762 29997.5049 98.2196 153.7106
ENERGY: 600000 5.0993 8.6102 4.3790 0.0000 -10740.5078 1506.3751 0.0000 0.0000 1731.5342 -7484.5099 297.8966 -9216.0441 -7416.8863 301.8281 299.7976 364.6688 30340.6012 142.9473 216.5384
ENERGY: 900000 1.3039 11.8961 4.0459 0.0000 -10359.8756 1295.7764 0.0000 0.0000 1760.8575 -7285.9959 302.9415 -9046.8534 -7397.3560 302.4429 -603.4696 -519.9416 30260.7791 56.3462 116.7474
ENERGY: 1200000 3.2974 10.9662 5.0060 0.0000 -10532.0046 1350.9968 0.0000 0.0000 1764.4936 -7397.2445 303.5670 -9161.7381 -7400.5349 302.5903 -425.6685 -376.8512 29819.6502 33.2823 85.2862
ENERGY: 1500000 4.2511 12.1899 7.0615 0.0000 -10743.0188 1453.8111 0.0000 0.0000 1752.6275 -7513.0777 301.5256 -9265.7052 -7401.6069 303.0502 210.0752 269.9779 29633.8439 80.2830 137.7959
TCL: Running FEP window  19: Lambda1 0.9000000000000002 Lambda2 0.9500000000000003 [dLambda 0.050000000000000044]
TCL: Setting parameter firsttimestep to 0
TCL: Setting parameter alchLambda to 0.9000000000000002
Info: NONBONDED TABLE R-SQUARED SPACING: 0.0625
Info: NONBONDED TABLE SIZE: 705 POINTS
TCL: Setting parameter alchLambda2 to 0.9500000000000003
Info: NONBONDED TABLE R-SQUARED SPACING: 0.0625
Info: NONBONDED TABLE SIZE: 705 POINTS
TCL: Running for 1500000 steps
ETITLE: TS BOND ANGLE DIHED IMPRP ELECT VDW BOUNDARY MISC KINETIC TOTAL TEMP POTENTIAL TOTALAVG TEMPAVG PRESSURE GPRESSURE VOLUME PRESSAVG GPRESSAVG
ENERGY: 0 4.2511 12.1899 7.0615 0.0000 -10745.3404 1455.2109 0.0000 0.0000 1751.7268 -7514.9003 301.3706 -9266.6270 -7514.9003 301.3706 215.1491 302.5395 29633.8439 215.1491 302.5395
ENERGY: 300000 3.2584 5.7941 5.0552 0.0000 -10505.9828 1387.8769 0.0000 0.0000 1687.9625 -7416.0358 290.4005 -9103.9983 -7416.7121 298.2416 164.7811 239.2726 30371.8089 -14.3608 60.0666
ENERGY: 600000 2.4934 8.7071 4.6714 0.0000 -10595.4611 1408.5444 0.0000 0.0000 1788.1667 -7382.8781 307.6398 -9171.0448 -7401.7342 299.9484 -214.9667 -127.1244 30206.8517 -126.3031 -54.4527
ENERGY: 900000 5.6562 12.2571 6.5986 0.0000 -10605.2354 1399.4408 0.0000 0.0000 1732.2194 -7449.0633 298.0145 -9181.2827 -7402.9143 300.5560 -158.9617 -111.4922 29931.6813 -76.2636 -2.7077
ENERGY: 1200000 2.7925 4.7708 3.2818 0.0000 -10619.6045 1399.4757 0.0000 0.0000 1747.4039 -7461.8798 300.6269 -9209.2837 -7416.7110 300.1118 158.7863 252.3197 29609.1943 -40.0918 29.7832
ENERGY: 1500000 5.1227 7.9839 10.3056 0.0000 -10664.4696 1431.1171 0.0000 0.0000 1777.3093 -7432.6311 305.7719 -9209.9404 -7426.2675 300.2715 237.4030 290.8539 29757.6580 -53.6543 14.7938
TCL: Running FEP window  20: Lambda1 0.9500000000000003 Lambda2 1.0    [dLambda 0.04999999999999971]
TCL: Setting parameter firsttimestep to 0
TCL: Setting parameter alchLambda to 0.9500000000000003
Info: NONBONDED TABLE R-SQUARED SPACING: 0.0625
Info: NONBONDED TABLE SIZE: 705 POINTS
TCL: Setting parameter alchLambda2 to 1.0
Info: NONBONDED TABLE R-SQUARED SPACING: 0.0625
Info: NONBONDED TABLE SIZE: 705 POINTS
TCL: Running for 1500000 steps
ETITLE: TS BOND ANGLE DIHED IMPRP ELECT VDW BOUNDARY MISC KINETIC TOTAL TEMP POTENTIAL TOTALAVG TEMPAVG PRESSURE GPRESSURE VOLUME PRESSAVG GPRESSAVG
ENERGY: 0 5.1227 7.9839 10.3056 0.0000 -10667.6280 1431.6611 0.0000 0.0000 1776.4347 -7436.1201 305.6214 -9212.5548 -7436.1201 305.6214 222.2467 309.3910 29757.6580 222.2467 309.3910
ENERGY: 300000 4.9121 6.9026 8.0879 0.0000 -10519.9534 1325.8445 0.0000 0.0000 1703.3655 -7470.8408 293.0504 -9174.2064 -7428.2823 300.7017 -811.4349 -712.8744 29836.5646 -69.2332 7.1325
ENERGY: 600000 3.1470 9.0620 7.9150 0.0000 -10730.2539 1514.0107 0.0000 0.0000 1735.8136 -7460.3056 298.6329 -9196.1191 -7442.5792 299.3761 905.9770 961.4977 29934.6509 108.0430 178.7561
ENERGY: 900000 6.2838 5.8264 4.9609 0.0000 -10500.8099 1361.4929 0.0000 0.0000 1780.9279 -7341.3180 306.3944 -9122.2460 -7444.8056 298.9251 -117.7117 -65.0236 29904.6010 -29.2882 38.6809
ENERGY: 1200000 3.3567 8.1826 6.3829 0.0000 -10506.0606 1327.1483 0.0000 0.0000 1781.0767 -7379.9135 306.4200 -9160.9902 -7449.0744 298.4995 -562.2448 -500.1583 30143.0893 -121.1934 -61.4101
ENERGY: 1500000 4.2102 8.0340 3.9640 0.0000 -10611.9240 1438.5811 0.0000 0.0000 1714.9128 -7442.2219 295.0370 -9157.1347 -7444.2889 298.7429 323.1340 385.8717 30112.5709 -44.5315 16.8601
TCL: Exiting due to exit command.
