Info: SIMULATION PARAMETERS:
Info: TIMESTEP               2
Info: NUMBER OF STEPS        0
Info: STEPS PER CYCLE        10
Info: PERIODIC CELL BASIS 1  31.8378 0 0
Info: PERIODIC CELL BASIS 2  0 31.3973 0
Info: PERIODIC CELL BASIS 3  0 0 30.4329
Info: PERIODIC CELL CENTER   0 0 0
Info: WRAPPING WATERS AROUND PERIODIC BOUNDARIES ON OUTPUT.
Info: WRAPPING ALL CLUSTERS AROUND PERIODIC BOUNDARIES ON OUTPUT.
Info: FIRST LDB TIMESTEP     50
Info: LAST LDB TIMESTEP     -1
Info: HOM BACKGROUND SCALING 1
Info: PME BACKGROUND SCALING 1
Info: MIN ATOMS PER PATCH    40
Info: EMPTY PATCH LOAD       40 ATOMS
Info: VELOCITY FILE          mobley_430089_equil.vel
Info: CENTER OF MASS MOVING INITIALLY? NO
Info: DIELECTRIC             1
Info: EXCLUDE                SCALED ONE-FOUR
Info: 1-4 ELECTROSTATICS SCALED BY 0.833333
Info: MODIFIED 1-4 VDW PARAMETERS WILL BE USED
Info: DCD FILENAME           mobley_430089_prod.dcd
Info: DCD FREQUENCY          100000
Info: DCD FIRST STEP         100000
Info: DCD FILE WILL CONTAIN UNIT CELL DATA
Info: XST FILENAME           mobley_430089_prod.xst
Info: XST FREQUENCY          100000
Info: NO VELOCITY DCD OUTPUT
Info: NO FORCE DCD OUTPUT
Info: OUTPUT FILENAME        mobley_430089_prod
Info: BINARY OUTPUT FILES WILL BE USED
Info: RESTART FILENAME       mobley_430089_prod.restart
Info: RESTART FREQUENCY      100000
Info: BINARY RESTART FILES WILL BE USED
Info: CUTOFF                 9
Info: PAIRLIST DISTANCE      11
Info: PAIRLIST SHRINK RATE   0.01
Info: PAIRLIST GROW RATE     0.01
Info: PAIRLIST TRIGGER       0.3
Info: PAIRLISTS PER CYCLE    2
Info: PAIRLISTS ENABLED
Info: MARGIN                 2
Info: HYDROGEN GROUP CUTOFF  2.5
Info: PATCH DIMENSION        15.5
Info: ENERGY OUTPUT STEPS    100000
Info: ENERGY EVALUATION STEPS    100000
Info: OUTPUT ENERGY PRECISION 4
Info: CROSSTERM ENERGY INCLUDED IN DIHEDRAL
Info: TIMING OUTPUT STEPS    1000000
Info: PRESSURE OUTPUT STEPS  100000
Info: ALCHEMICAL FEP ON
Info: FEP CURRENT LAMBDA VALUE     0
Info: FEP COMPARISON LAMBDA VALUE  0.05
Info: FEP INTRA-ALCHEMICAL NON-BONDED INTERACTIONS WILL BE RETAINED
Info: FEP INTRA-ALCHEMICAL BONDED INTERACTIONS WILL BE RETAINED
Info: FEP VDW SHIFTING COEFFICIENT 5
Info: FEP ELEC. ACTIVE FOR ANNIHILATED PARTICLES BETWEEN LAMBDA = 0 AND LAMBDA = 0.5
Info: FEP ELEC. ACTIVE FOR EXNIHILATED PARTICLES BETWEEN LAMBDA = 0.5 AND LAMBDA = 1
Info: FEP VDW ACTIVE FOR ANNIHILATED PARTICLES BETWEEN LAMBDA = 0 AND LAMBDA = 1
Info: FEP VDW ACTIVE FOR EXNIHILATED PARTICLES BETWEEN LAMBDA = 0 AND LAMBDA = 1
Info: FEP BOND ACTIVE FOR ANNIHILATED PARTICLES BETWEEN LAMBDA = 1 AND LAMBDA = 1
Info: FEP BOND ACTIVE FOR EXNIHILATED PARTICLES BETWEEN LAMBDA = 0 AND LAMBDA = 0
Info: LANGEVIN DYNAMICS ACTIVE
Info: LANGEVIN TEMPERATURE   300
Info: LANGEVIN USING BBK INTEGRATOR
Info: LANGEVIN DAMPING COEFFICIENT IS 1 INVERSE PS
Info: LANGEVIN DYNAMICS APPLIED TO HYDROGENS
Info: LANGEVIN PISTON PRESSURE CONTROL ACTIVE
Info:        TARGET PRESSURE IS 1.01325 BAR
Info:     OSCILLATION PERIOD IS 50 FS
Info:             DECAY TIME IS 25 FS
Info:     PISTON TEMPERATURE IS 300 K
Info:       PRESSURE CONTROL IS GROUP-BASED
Info:    INITIAL STRAIN RATE IS -0.000111458 -0.000111458 -0.000111458
Info:       CELL FLUCTUATION IS ISOTROPIC
Info: PARTICLE MESH EWALD (PME) ACTIVE
Info: PME TOLERANCE               1e-06
Info: PME EWALD COEFFICIENT       0.348832
Info: PME INTERPOLATION ORDER     4
Info: PME GRID DIMENSIONS         32 32 32
Info: PME MAXIMUM GRID SPACING    1
Info: PME CALCULATION WILL BE PERFORMED ON GPU
Info: FULL ELECTROSTATIC EVALUATION FREQUENCY      2
Info: USING VERLET I (r-RESPA) MTS SCHEME.
Info: C1 SPLITTING OF LONG RANGE ELECTROSTATICS
Info: PLACING ATOMS IN PATCHES BY HYDROGEN GROUPS
Info: RIGID BONDS TO HYDROGEN : ALL
Info:         ERROR TOLERANCE : 1e-08
Info:          MAX ITERATIONS : 100
Info: RIGID WATER USING SETTLE ALGORITHM
Info: RANDOM NUMBER SEED     1743727659
Info: USE HYDROGEN BONDS?    NO
Info: Using AMBER format force field!
Info: AMBER PARM FILE        mobley_430089.prmtop
Info: COORDINATE PDB         mobley_430089.pdb
Info: Exclusions will be read from PARM file!
Info: SCNB (VDW SCALING)     2
Info: USING ARITHMETIC MEAN TO COMBINE L-J SIGMA PARAMETERS
Info: BINARY COORDINATES     mobley_430089_equil.coor
Info: SUMMARY OF PARAMETERS:
Info: 7 BONDS
Info: 7 ANGLES
Info:   7 HARMONIC
Info:   0 COSINE-BASED
Info: 4 DIHEDRAL
Info: 0 IMPROPER
Info: 0 CROSSTERM
Info: 0 VDW
Info: 21 VDW_PAIRS
Info: 0 NBTHOLE_PAIRS
Info: To read alchdata from file: mobley_430089.pdb
Info: To read alchflag data from column: 5
Info: STRUCTURE SUMMARY:
Info: 2944 ATOMS
Info: 2943 BONDS
Info: 20 ANGLES
Info: 22 DIHEDRALS
Info: 0 IMPROPERS
Info: 0 CROSSTERMS
Info: 2985 EXCLUSIONS
Info: 2939 RIGID BONDS
Info: ALCH: 0 ATOMS TO DISAPPEAR IN FINAL STATE
Info: ALCH: 13 ATOMS TO APPEAR IN FINAL STATE
Info: 5893 DEGREES OF FREEDOM
Info: 982 HYDROGEN GROUPS
Info: 4 ATOMS IN LARGEST HYDROGEN GROUP
Info: 982 MIGRATION GROUPS
Info: 4 ATOMS IN LARGEST MIGRATION GROUP
Info: TOTAL MASS = 17669.7 amu
Info: TOTAL CHARGE = 9.99928e-05 e
Info: MASS DENSITY = 0.964519 g/cm^3
Info: ATOM DENSITY = 0.096774 atoms/A^3
Info: ADDED 0 IMPLICIT EXCLUSIONS
Info: NONBONDED TABLE R-SQUARED SPACING: 0.0625
Info: NONBONDED TABLE SIZE: 705 POINTS
Info: REDUCING NUMBER OF PATCHES TO IMPROVE LOAD BALANCE
Info: REMOVING COM VELOCITY -0.144308 0.0312406 -0.0236093
Info: Use 3D box decompostion in PME FFT.
Info: Updated CUDA force table with 4096 elements.
Info: Updated CUDA LJ table with 6 x 6 elements.
Info: Found 16 unique exclusion lists needing 32 bytes
TCL: Running for 1500000 steps
ETITLE: TS BOND ANGLE DIHED IMPRP ELECT VDW BOUNDARY MISC KINETIC TOTAL TEMP POTENTIAL TOTALAVG TEMPAVG PRESSURE GPRESSURE VOLUME PRESSAVG GPRESSAVG
ENERGY: 0 1.8057 4.7669 0.6067 0.0000 -10764.7039 1534.4303 0.0000 0.0000 1743.1139 -7479.9804 297.7006 -9223.0943 -7479.9804 297.7006 564.9127 641.9740 30421.3836 564.9127 641.9740
ENERGY: 300000 4.1047 2.9917 0.2467 0.0000 -10703.7122 1451.9311 0.0000 0.0000 1770.1402 -7474.2977 302.3163 -9244.4379 -7459.4680 300.2327 -199.7871 -100.1850 30576.6374 196.8190 280.4148
ENERGY: 600000 0.6287 2.2517 0.1475 0.0000 -10744.0818 1445.2391 0.0000 0.0000 1819.9127 -7475.9022 310.8168 -9295.8149 -7456.8238 301.7661 -53.3721 17.8080 30049.2093 27.4125 99.1483
ENERGY: 900000 0.5934 5.8215 0.1039 0.0000 -10724.9774 1393.2643 0.0000 0.0000 1747.9993 -7577.1950 298.5350 -9325.1943 -7468.2897 301.4510 -1104.6144 -1006.2896 31006.5673 -139.3327 -68.2631
ENERGY: 1200000 0.4196 6.7303 0.2881 0.0000 -10618.1809 1428.8335 0.0000 0.0000 1730.8931 -7451.0163 295.6135 -9181.9094 -7466.3251 301.0802 200.5389 242.0259 29913.1609 -125.2847 -56.4120
ENERGY: 1500000 1.4682 6.4147 0.3797 0.0000 -10640.9340 1411.7696 0.0000 0.0000 1727.3431 -7493.5586 295.0072 -9220.9017 -7474.2510 300.3540 -127.9491 -79.4396 30154.7977 -114.1372 -46.2573
TCL: Running FEP window   2: Lambda1 0.05   Lambda2 0.1    [dLambda 0.05  ]
TCL: Setting parameter firsttimestep to 0
TCL: Setting parameter alchLambda to 0.05
Info: NONBONDED TABLE R-SQUARED SPACING: 0.0625
Info: NONBONDED TABLE SIZE: 705 POINTS
TCL: Setting parameter alchLambda2 to 0.1
Info: NONBONDED TABLE R-SQUARED SPACING: 0.0625
Info: NONBONDED TABLE SIZE: 705 POINTS
TCL: Running for 1500000 steps
ETITLE: TS BOND ANGLE DIHED IMPRP ELECT VDW BOUNDARY MISC KINETIC TOTAL TEMP POTENTIAL TOTALAVG TEMPAVG PRESSURE GPRESSURE VOLUME PRESSAVG GPRESSAVG
ENERGY: 0 1.4682 6.4147 0.3797 0.0000 -10640.9339 1412.9175 0.0000 0.0000 1726.4376 -7493.3162 294.8525 -9219.7538 -7493.3162 294.8525 -157.4180 -74.9674 30154.7977 -157.4180 -74.9674
ENERGY: 300000 0.6436 7.9558 0.9684 0.0000 -10545.3274 1385.2168 0.0000 0.0000 1725.7220 -7424.8208 294.7303 -9150.5428 -7509.6941 293.7626 4.9030 0.3016 30126.6291 -154.8774 -86.7202
ENERGY: 600000 1.2144 6.2488 0.3301 0.0000 -10713.4028 1505.2347 0.0000 0.0000 1739.0235 -7461.3513 297.0020 -9200.3748 -7488.0533 293.5992 677.3659 709.6996 30047.3201 -120.6313 -49.7620
ENERGY: 900000 0.0666 6.3300 0.2181 0.0000 -10733.1500 1435.1014 0.0000 0.0000 1773.9354 -7517.4986 302.9645 -9291.4340 -7477.7685 296.3549 -194.5318 -91.4536 30052.0073 -93.0717 -25.4016
ENERGY: 1200000 1.0892 4.1461 0.2332 0.0000 -10645.7381 1415.2687 0.0000 0.0000 1706.1790 -7518.8220 291.3926 -9225.0010 -7478.7741 296.8073 -204.5298 -91.8012 29898.3793 -41.4264 30.2944
ENERGY: 1500000 0.2563 4.8752 0.0966 0.0000 -10734.9172 1422.2177 0.0000 0.0000 1780.7699 -7526.7015 304.1317 -9307.4714 -7478.1147 297.9509 -299.4007 -194.3302 30196.7850 27.1992 96.6964
TCL: Running FEP window   3: Lambda1 0.1    Lambda2 0.15000000000000002 [dLambda 0.05000000000000002]
TCL: Setting parameter firsttimestep to 0
TCL: Setting parameter alchLambda to 0.1
Info: NONBONDED TABLE R-SQUARED SPACING: 0.0625
Info: NONBONDED TABLE SIZE: 705 POINTS
TCL: Setting parameter alchLambda2 to 0.15000000000000002
Info: NONBONDED TABLE R-SQUARED SPACING: 0.0625
Info: NONBONDED TABLE SIZE: 705 POINTS
TCL: Running for 1500000 steps
ETITLE: TS BOND ANGLE DIHED IMPRP ELECT VDW BOUNDARY MISC KINETIC TOTAL TEMP POTENTIAL TOTALAVG TEMPAVG PRESSURE GPRESSURE VOLUME PRESSAVG GPRESSAVG
ENERGY: 0 0.2563 4.8752 0.0966 0.0000 -10734.9176 1422.6175 0.0000 0.0000 1779.9524 -7527.1196 303.9921 -9307.0720 -7527.1196 303.9921 -266.4422 -190.2486 30196.7850 -266.4422 -190.2486
ENERGY: 300000 0.7861 8.4780 0.2108 0.0000 -10704.5298 1434.6801 0.0000 0.0000 1729.1996 -7531.1752 295.3242 -9260.3748 -7518.3586 301.1985 -181.7181 -60.0517 29960.9748 -306.5146 -234.4264
ENERGY: 600000 1.3218 3.9742 0.1832 0.0000 -10772.8501 1535.5891 0.0000 0.0000 1784.7607 -7447.0211 304.8133 -9231.7818 -7505.6505 301.8808 619.2204 631.5515 30261.0655 -109.9891 -43.2764
ENERGY: 900000 0.2428 3.4175 0.1732 0.0000 -10601.7535 1380.2135 0.0000 0.0000 1746.9006 -7470.8059 298.3473 -9217.7065 -7493.6417 302.4643 -161.7161 -148.0733 29951.6797 -22.9282 29.5205
ENERGY: 1200000 1.8372 5.1640 0.9065 0.0000 -10552.9958 1410.5718 0.0000 0.0000 1765.0026 -7369.5137 301.4389 -9134.5163 -7479.6855 301.3219 -260.3312 -210.9800 30547.4719 -13.6607 45.8330
ENERGY: 1500000 0.5723 6.5732 1.9445 0.0000 -10513.1557 1350.8733 0.0000 0.0000 1720.3572 -7432.8352 293.8141 -9153.1924 -7473.7987 300.0699 -395.7473 -381.1232 30201.6455 -108.7527 -51.9454
TCL: Running FEP window   4: Lambda1 0.15000000000000002 Lambda2 0.2    [dLambda 0.04999999999999999]
TCL: Setting parameter firsttimestep to 0
TCL: Setting parameter alchLambda to 0.15000000000000002
Info: NONBONDED TABLE R-SQUARED SPACING: 0.0625
Info: NONBONDED TABLE SIZE: 705 POINTS
TCL: Setting parameter alchLambda2 to 0.2
Info: NONBONDED TABLE R-SQUARED SPACING: 0.0625
Info: NONBONDED TABLE SIZE: 705 POINTS
TCL: Running for 1500000 steps
ETITLE: TS BOND ANGLE DIHED IMPRP ELECT VDW BOUNDARY MISC KINETIC TOTAL TEMP POTENTIAL TOTALAVG TEMPAVG PRESSURE GPRESSURE VOLUME PRESSAVG GPRESSAVG
ENERGY: 0 0.5723 6.5732 1.9445 0.0000 -10513.1546 1351.6956 0.0000 0.0000 1719.4760 -7432.8930 293.6636 -9152.3690 -7432.8930 293.6636 -451.2648 -374.6788 30201.6455 -451.2648 -374.6788
ENERGY: 300000 1.2899 5.8836 0.6666 0.0000 -10796.3081 1461.2812 0.0000 0.0000 1850.4597 -7476.7271 316.0338 -9327.1868 -7471.7821 303.9084 -198.8615 -130.4900 30200.7920 -142.4927 -69.6313
ENERGY: 600000 0.8940 6.8379 0.5349 0.0000 -10727.3905 1437.0258 0.0000 0.0000 1762.0353 -7520.0625 300.9321 -9282.0978 -7471.7031 302.6476 -74.0081 -80.8709 29969.9917 -7.6525 57.5698
ENERGY: 900000 1.8430 9.2191 0.2780 0.0000 -10687.6107 1440.6149 0.0000 0.0000 1798.8689 -7436.7867 307.2228 -9235.6556 -7466.0852 302.9059 8.1840 106.1253 30127.6808 18.9533 94.4453
ENERGY: 1200000 0.7053 4.9084 0.6889 0.0000 -10626.7255 1388.8390 0.0000 0.0000 1770.6490 -7460.9350 302.4032 -9231.5839 -7461.5196 301.5733 -326.2582 -272.9417 30121.9771 -9.3185 50.5987
ENERGY: 1500000 1.5397 5.5729 0.8005 0.0000 -10608.3787 1365.1780 0.0000 0.0000 1814.1193 -7421.1682 309.8274 -9235.2876 -7454.7850 302.0212 -516.0664 -513.6185 30269.4831 -105.2768 -52.2380
TCL: Running FEP window   5: Lambda1 0.2    Lambda2 0.25   [dLambda 0.04999999999999999]
TCL: Setting parameter firsttimestep to 0
TCL: Setting parameter alchLambda to 0.2
Info: NONBONDED TABLE R-SQUARED SPACING: 0.0625
Info: NONBONDED TABLE SIZE: 705 POINTS
TCL: Setting parameter alchLambda2 to 0.25
Info: NONBONDED TABLE R-SQUARED SPACING: 0.0625
Info: NONBONDED TABLE SIZE: 705 POINTS
TCL: Running for 1500000 steps
ETITLE: TS BOND ANGLE DIHED IMPRP ELECT VDW BOUNDARY MISC KINETIC TOTAL TEMP POTENTIAL TOTALAVG TEMPAVG PRESSURE GPRESSURE VOLUME PRESSAVG GPRESSAVG
ENERGY: 0 1.5397 5.5729 0.8005 0.0000 -10608.3784 1365.1496 0.0000 0.0000 1813.2573 -7422.0584 309.6802 -9235.3157 -7422.0584 309.6802 -594.1980 -511.1841 30269.4831 -594.1980 -511.1841
ENERGY: 300000 0.5453 5.2456 0.2948 0.0000 -10632.6107 1443.6582 0.0000 0.0000 1720.7151 -7462.1518 293.8752 -9182.8668 -7451.9151 299.7216 133.9255 239.6837 30258.7282 -296.6566 -213.9087
ENERGY: 600000 0.4548 3.7965 0.0893 0.0000 -10610.5312 1421.4993 0.0000 0.0000 1762.8190 -7421.8724 301.0660 -9184.6914 -7440.7538 299.2388 65.0968 127.3625 30017.8623 -251.7737 -185.4045
ENERGY: 900000 1.1472 6.3955 0.4667 0.0000 -10704.2523 1423.0369 0.0000 0.0000 1792.7592 -7480.4468 306.1793 -9273.2060 -7452.4955 300.6091 -237.2120 -175.0707 30187.2561 -363.6549 -302.0698
ENERGY: 1200000 0.3722 6.6054 0.6468 0.0000 -10647.2004 1394.3653 0.0000 0.0000 1790.9454 -7454.2653 305.8696 -9245.2107 -7455.1718 301.7155 -345.5116 -350.5888 30402.0176 -375.9580 -326.8516
ENERGY: 1500000 1.8984 11.5561 0.2189 0.0000 -10529.4225 1332.1348 0.0000 0.0000 1734.1033 -7449.5111 296.1617 -9183.6143 -7461.5912 301.0416 -724.8880 -619.5299 30430.5021 -320.7568 -265.6390
TCL: Running FEP window   6: Lambda1 0.25   Lambda2 0.3    [dLambda 0.04999999999999999]
TCL: Setting parameter firsttimestep to 0
TCL: Setting parameter alchLambda to 0.25
Info: NONBONDED TABLE R-SQUARED SPACING: 0.0625
Info: NONBONDED TABLE SIZE: 705 POINTS
TCL: Setting parameter alchLambda2 to 0.3
Info: NONBONDED TABLE R-SQUARED SPACING: 0.0625
Info: NONBONDED TABLE SIZE: 705 POINTS
TCL: Running for 1500000 steps
ETITLE: TS BOND ANGLE DIHED IMPRP ELECT VDW BOUNDARY MISC KINETIC TOTAL TEMP POTENTIAL TOTALAVG TEMPAVG PRESSURE GPRESSURE VOLUME PRESSAVG GPRESSAVG
ENERGY: 0 1.8984 11.5561 0.2189 0.0000 -10529.4213 1333.0014 0.0000 0.0000 1733.2148 -7449.5317 296.0100 -9182.7466 -7449.5317 296.0100 -702.8877 -611.1485 30430.5021 -702.8877 -611.1485
ENERGY: 300000 2.4192 5.1237 0.7766 0.0000 -10697.7067 1451.9543 0.0000 0.0000 1744.4694 -7492.9633 297.9321 -9237.4327 -7485.7441 297.4718 -68.0962 -23.8008 30468.0631 -301.4756 -217.9299
ENERGY: 600000 1.2187 6.5257 0.7332 0.0000 -10648.4833 1409.1993 0.0000 0.0000 1752.0406 -7478.7657 299.2252 -9230.8063 -7482.1847 300.0748 -73.9500 59.0016 29759.7237 -358.9380 -282.9822
ENERGY: 900000 1.8017 4.1695 0.3895 0.0000 -10520.4763 1338.8180 0.0000 0.0000 1709.0503 -7466.2473 291.8830 -9175.2976 -7481.7707 298.4463 -887.5826 -796.8298 30571.6292 -330.0182 -258.9484
ENERGY: 1200000 0.6469 8.3571 0.5742 0.0000 -10707.6225 1496.4148 0.0000 0.0000 1726.9417 -7474.6877 294.9386 -9201.6294 -7475.3934 298.3182 395.7670 457.6138 30309.1933 -181.0495 -111.4967
ENERGY: 1500000 2.2784 4.8476 0.7249 0.0000 -10591.2240 1371.2108 0.0000 0.0000 1804.6396 -7407.5226 308.2084 -9212.1623 -7470.4633 298.7170 -651.1997 -530.9686 30387.6198 -223.9962 -149.9457
TCL: Running FEP window   7: Lambda1 0.3    Lambda2 0.35   [dLambda 0.04999999999999999]
TCL: Setting parameter firsttimestep to 0
TCL: Setting parameter alchLambda to 0.3
Info: NONBONDED TABLE R-SQUARED SPACING: 0.0625
Info: NONBONDED TABLE SIZE: 705 POINTS
TCL: Setting parameter alchLambda2 to 0.35
Info: NONBONDED TABLE R-SQUARED SPACING: 0.0625
Info: NONBONDED TABLE SIZE: 705 POINTS
TCL: Running for 1500000 steps
ETITLE: TS BOND ANGLE DIHED IMPRP ELECT VDW BOUNDARY MISC KINETIC TOTAL TEMP POTENTIAL TOTALAVG TEMPAVG PRESSURE GPRESSURE VOLUME PRESSAVG GPRESSAVG
ENERGY: 0 2.2784 4.8476 0.7249 0.0000 -10591.2241 1371.1138 0.0000 0.0000 1803.8014 -7408.4580 308.0652 -9212.2594 -7408.4580 308.0652 -619.5790 -530.0403 30387.6198 -619.5790 -530.0403
ENERGY: 300000 3.8088 6.7095 0.2714 0.0000 -10821.6225 1567.1749 0.0000 0.0000 1739.3911 -7504.2669 297.0648 -9243.6580 -7476.6412 302.2852 732.2075 765.0561 30053.5518 310.7396 348.8108
ENERGY: 600000 1.6706 3.5065 0.1661 0.0000 -10680.5388 1424.1486 0.0000 0.0000 1723.4276 -7527.6193 294.3384 -9251.0469 -7485.9798 300.7399 -521.3971 -460.8138 30852.3662 86.5803 133.6188
ENERGY: 900000 0.7280 7.1061 0.3571 0.0000 -10440.1445 1320.6496 0.0000 0.0000 1752.4068 -7358.8969 299.2877 -9111.3037 -7467.9564 299.8034 -577.7466 -530.6445 30293.6370 -12.2488 41.4098
ENERGY: 1200000 0.5284 4.5173 0.5639 0.0000 -10657.6713 1426.9874 0.0000 0.0000 1755.3481 -7469.7263 299.7900 -9225.0743 -7454.5803 300.8180 -233.9852 -196.1272 30622.9985 -53.4339 -2.8077
ENERGY: 1500000 2.0105 3.3997 0.6731 0.0000 -10645.0795 1449.0197 0.0000 0.0000 1732.7805 -7457.1959 295.9358 -9189.9764 -7455.2950 300.2679 129.6153 193.4055 30350.5539 -90.1055 -37.5531
TCL: Running FEP window   8: Lambda1 0.35   Lambda2 0.39999999999999997 [dLambda 0.04999999999999999]
TCL: Setting parameter firsttimestep to 0
TCL: Setting parameter alchLambda to 0.35
Info: NONBONDED TABLE R-SQUARED SPACING: 0.0625
Info: NONBONDED TABLE SIZE: 705 POINTS
TCL: Setting parameter alchLambda2 to 0.39999999999999997
Info: NONBONDED TABLE R-SQUARED SPACING: 0.0625
Info: NONBONDED TABLE SIZE: 705 POINTS
TCL: Running for 1500000 steps
ETITLE: TS BOND ANGLE DIHED IMPRP ELECT VDW BOUNDARY MISC KINETIC TOTAL TEMP POTENTIAL TOTALAVG TEMPAVG PRESSURE GPRESSURE VOLUME PRESSAVG GPRESSAVG
ENERGY: 0 2.0106 3.3997 0.6731 0.0000 -10645.0792 1450.6184 0.0000 0.0000 1731.9425 -7456.4349 295.7927 -9188.3774 -7456.4349 295.7927 130.9163 206.7389 30350.5539 130.9163 206.7389
ENERGY: 300000 0.6791 7.0950 1.4384 0.0000 -10496.2408 1297.4212 0.0000 0.0000 1723.9066 -7465.7005 294.4202 -9189.6070 -7465.4400 298.7788 -903.0446 -895.0272 30345.3436 50.1108 100.8774
ENERGY: 600000 1.5824 4.2706 0.3739 0.0000 -10710.1176 1439.9894 0.0000 0.0000 1740.1682 -7523.7330 297.1975 -9263.9012 -7470.6997 299.7132 128.0142 189.5446 29948.5157 4.2315 63.2068
ENERGY: 900000 1.0561 2.1096 0.1403 0.0000 -10630.2302 1333.9992 0.0000 0.0000 1755.5245 -7537.4005 299.8202 -9292.9250 -7481.5815 299.1491 -1013.9609 -975.0170 30324.1759 -45.2692 7.1537
ENERGY: 1200000 3.1848 3.3179 0.3623 0.0000 -10598.9876 1374.7091 0.0000 0.0000 1751.5491 -7465.8644 299.1412 -9217.4135 -7489.4714 299.7139 -713.6096 -626.8020 30288.2225 -123.7731 -71.6058
ENERGY: 1500000 0.8043 7.8370 1.5521 0.0000 -10607.6444 1415.5316 0.0000 0.0000 1765.2280 -7416.6914 301.4774 -9181.9195 -7474.7269 300.7360 181.3158 217.8686 30174.2048 -64.0940 -5.6971
TCL: Running FEP window   9: Lambda1 0.39999999999999997 Lambda2 0.44999999999999996 [dLambda 0.04999999999999999]
TCL: Setting parameter firsttimestep to 0
TCL: Setting parameter alchLambda to 0.39999999999999997
Info: NONBONDED TABLE R-SQUARED SPACING: 0.0625
Info: NONBONDED TABLE SIZE: 705 POINTS
TCL: Setting parameter alchLambda2 to 0.44999999999999996
Info: NONBONDED TABLE R-SQUARED SPACING: 0.0625
Info: NONBONDED TABLE SIZE: 705 POINTS
TCL: Running for 1500000 steps
ETITLE: TS BOND ANGLE DIHED IMPRP ELECT VDW BOUNDARY MISC KINETIC TOTAL TEMP POTENTIAL TOTALAVG TEMPAVG PRESSURE GPRESSURE VOLUME PRESSAVG GPRESSAVG
ENERGY: 0 0.8043 7.8370 1.5521 0.0000 -10607.6439 1415.7789 0.0000 0.0000 1764.3835 -7417.2881 301.3332 -9181.6716 -7417.2881 301.3332 147.4256 225.8271 30174.2048 147.4256 225.8271
ENERGY: 300000 1.8352 8.3450 1.2192 0.0000 -10832.5151 1516.3687 0.0000 0.0000 1737.0940 -7567.6530 296.6725 -9304.7470 -7510.1490 298.3471 527.2030 546.8885 30001.7876 297.4125 360.9278
ENERGY: 600000 0.9417 8.6011 1.6701 0.0000 -10585.8022 1380.6119 0.0000 0.0000 1721.9933 -7471.9841 294.0935 -9193.9774 -7489.6751 299.2475 -318.8317 -219.0350 30202.8595 74.9648 155.4089
ENERGY: 900000 0.3120 8.1324 0.1858 0.0000 -10689.1506 1486.8960 0.0000 0.0000 1712.3089 -7481.3154 292.4395 -9193.6243 -7497.6102 297.5497 622.9911 680.9794 29747.9641 180.4898 263.1029
ENERGY: 1200000 0.3058 4.6773 0.2157 0.0000 -10589.6207 1320.9261 0.0000 0.0000 1716.0931 -7547.4027 293.0858 -9263.4958 -7509.1200 296.5947 -1020.6977 -978.7666 30239.4569 -43.8813 38.7646
ENERGY: 1500000 2.6212 10.6149 1.1608 0.0000 -10722.3511 1484.4153 0.0000 0.0000 1732.2334 -7491.3054 295.8424 -9223.5388 -7504.0808 296.4801 251.3927 270.6938 30180.6121 -12.1833 60.4295
TCL: Running FEP window  10: Lambda1 0.44999999999999996 Lambda2 0.49999999999999994 [dLambda 0.04999999999999999]
TCL: Setting parameter firsttimestep to 0
TCL: Setting parameter alchLambda to 0.44999999999999996
Info: NONBONDED TABLE R-SQUARED SPACING: 0.0625
Info: NONBONDED TABLE SIZE: 705 POINTS
TCL: Setting parameter alchLambda2 to 0.49999999999999994
Info: NONBONDED TABLE R-SQUARED SPACING: 0.0625
Info: NONBONDED TABLE SIZE: 705 POINTS
TCL: Running for 1500000 steps
ETITLE: TS BOND ANGLE DIHED IMPRP ELECT VDW BOUNDARY MISC KINETIC TOTAL TEMP POTENTIAL TOTALAVG TEMPAVG PRESSURE GPRESSURE VOLUME PRESSAVG GPRESSAVG
ENERGY: 0 2.6212 10.6149 1.1608 0.0000 -10722.3505 1484.5990 0.0000 0.0000 1731.3709 -7491.9837 295.6950 -9223.3546 -7491.9837 295.6950 180.3964 279.0087 30180.6121 180.3964 279.0087
ENERGY: 300000 1.8971 3.6596 0.5072 0.0000 -10635.5985 1434.3363 0.0000 0.0000 1777.9821 -7417.2162 303.6556 -9195.1983 -7485.1319 297.7350 -137.7012 -72.3092 30465.4254 -180.7563 -122.0986
ENERGY: 600000 1.6347 11.4756 1.3252 0.0000 -10644.6452 1413.8274 0.0000 0.0000 1737.8877 -7478.4947 296.8080 -9216.3824 -7466.2100 297.9499 55.5442 120.6444 29910.0665 -122.0664 -65.4572
ENERGY: 900000 1.1541 7.4892 0.9144 0.0000 -10782.5749 1523.3168 0.0000 0.0000 1725.1276 -7524.5729 294.6288 -9249.7005 -7474.7573 298.0653 349.7236 453.3289 30477.7881 -65.8924 -7.0707
ENERGY: 1200000 5.0639 6.7925 1.2158 0.0000 -10856.4438 1531.5410 0.0000 0.0000 1785.1171 -7526.7136 304.8742 -9311.8307 -7481.2212 297.8213 341.3746 323.3988 30411.9781 -91.6867 -38.9648
ENERGY: 1500000 1.6097 4.7687 0.2712 0.0000 -10620.1756 1423.2958 0.0000 0.0000 1724.4328 -7465.7976 294.5101 -9190.2303 -7480.4441 298.3063 -123.5338 -23.6226 30640.9447 -52.5854 5.9829
TCL: Running FEP window  11: Lambda1 0.49999999999999994 Lambda2 0.5499999999999999 [dLambda 0.04999999999999999]
TCL: Setting parameter firsttimestep to 0
TCL: Setting parameter alchLambda to 0.49999999999999994
Info: NONBONDED TABLE R-SQUARED SPACING: 0.0625
Info: NONBONDED TABLE SIZE: 705 POINTS
TCL: Setting parameter alchLambda2 to 0.5499999999999999
Info: NONBONDED TABLE R-SQUARED SPACING: 0.0625
Info: NONBONDED TABLE SIZE: 705 POINTS
TCL: Running for 1500000 steps
ETITLE: TS BOND ANGLE DIHED IMPRP ELECT VDW BOUNDARY MISC KINETIC TOTAL TEMP POTENTIAL TOTALAVG TEMPAVG PRESSURE GPRESSURE VOLUME PRESSAVG GPRESSAVG
ENERGY: 0 1.6097 4.7687 0.2712 0.0000 -10620.1766 1423.0672 0.0000 0.0000 1723.5610 -7466.8989 294.3612 -9190.4599 -7466.8989 294.3612 -112.9008 -19.5767 30640.9447 -112.9008 -19.5767
ENERGY: 300000 1.4477 6.9051 1.1177 0.0000 -10648.5893 1426.5854 0.0000 0.0000 1772.1861 -7440.3473 302.6657 -9212.5334 -7464.3743 301.1040 -187.0012 -132.2266 30862.1817 -269.5577 -181.8770
ENERGY: 600000 2.4849 2.5381 0.9938 0.0000 -10651.2453 1450.2373 0.0000 0.0000 1750.2287 -7444.7626 298.9157 -9194.9912 -7455.7094 300.6847 258.1739 346.2439 30326.7745 -237.1629 -152.3009
ENERGY: 900000 1.6309 5.0222 0.9369 0.0000 -10639.5962 1418.8846 0.0000 0.0000 1794.7205 -7418.4011 306.5143 -9213.1216 -7458.5309 301.1179 -10.3972 -39.0597 30305.3961 -135.1283 -73.7829
ENERGY: 1200000 1.7900 6.6826 0.3459 0.0000 -10737.4259 1608.8830 0.0000 0.0000 1728.2757 -7391.4486 295.1664 -9119.7243 -7459.3908 300.2680 2004.8868 2073.2344 29458.6523 24.2092 91.3841
ENERGY: 1500000 2.0127 4.8962 0.2890 0.0000 -10757.1076 1500.6017 0.0000 0.0000 1740.2446 -7509.0634 297.2106 -9249.3080 -7463.8944 299.2314 476.3305 560.0477 30108.9528 62.6531 129.4830
TCL: Running FEP window  12: Lambda1 0.5499999999999999 Lambda2 0.6    [dLambda 0.050000000000000044]
TCL: Setting parameter firsttimestep to 0
TCL: Setting parameter alchLambda to 0.5499999999999999
Info: NONBONDED TABLE R-SQUARED SPACING: 0.0625
Info: NONBONDED TABLE SIZE: 705 POINTS
TCL: Setting parameter alchLambda2 to 0.6
Info: NONBONDED TABLE R-SQUARED SPACING: 0.0625
Info: NONBONDED TABLE SIZE: 705 POINTS
TCL: Running for 1500000 steps
ETITLE: TS BOND ANGLE DIHED IMPRP ELECT VDW BOUNDARY MISC KINETIC TOTAL TEMP POTENTIAL TOTALAVG TEMPAVG PRESSURE GPRESSURE VOLUME PRESSAVG GPRESSAVG
ENERGY: 0 2.0127 4.8962 0.2890 0.0000 -10757.1458 1500.6969 0.0000 0.0000 1739.3715 -7509.8795 297.0615 -9249.2510 -7509.8795 297.0615 509.8437 570.0492 30108.9528 509.8437 570.0492
ENERGY: 300000 1.1007 3.8880 0.9643 0.0000 -10596.0867 1384.8521 0.0000 0.0000 1748.4479 -7456.8337 298.6116 -9205.2816 -7452.7011 297.8383 -297.9284 -230.9534 30150.3806 -234.8056 -188.0128
ENERGY: 600000 0.2245 5.7553 0.5273 0.0000 -10712.1383 1419.3784 0.0000 0.0000 1806.0676 -7480.1852 308.4523 -9286.2528 -7463.3725 299.7718 -181.9899 -92.8131 30302.3573 -269.2510 -219.7666
ENERGY: 900000 0.7542 2.9593 0.3291 0.0000 -10800.6141 1505.4916 0.0000 0.0000 1831.6459 -7459.4340 312.8207 -9291.0799 -7462.9657 300.8379 303.6271 422.0069 30418.2999 -164.1684 -105.7880
ENERGY: 1200000 2.2202 9.1928 0.0966 0.0000 -10702.9508 1467.1376 0.0000 0.0000 1724.0295 -7500.2740 294.4412 -9224.3035 -7466.7681 300.9560 447.3718 519.6993 29978.8528 -74.7348 -9.7021
ENERGY: 1500000 4.2513 3.3687 0.2902 0.0000 -10663.5787 1469.1432 0.0000 0.0000 1823.8136 -7362.7117 311.4830 -9186.5253 -7473.0149 300.8915 142.1431 251.5079 30381.5338 -121.5174 -57.8246
TCL: Running FEP window  13: Lambda1 0.6    Lambda2 0.65   [dLambda 0.050000000000000044]
TCL: Setting parameter firsttimestep to 0
TCL: Setting parameter alchLambda to 0.6
Info: NONBONDED TABLE R-SQUARED SPACING: 0.0625
Info: NONBONDED TABLE SIZE: 705 POINTS
TCL: Setting parameter alchLambda2 to 0.65
Info: NONBONDED TABLE R-SQUARED SPACING: 0.0625
Info: NONBONDED TABLE SIZE: 705 POINTS
TCL: Running for 1500000 steps
ETITLE: TS BOND ANGLE DIHED IMPRP ELECT VDW BOUNDARY MISC KINETIC TOTAL TEMP POTENTIAL TOTALAVG TEMPAVG PRESSURE GPRESSURE VOLUME PRESSAVG GPRESSAVG
ENERGY: 0 4.2513 3.3687 0.2902 0.0000 -10663.7958 1468.8458 0.0000 0.0000 1822.9763 -7364.0636 311.3400 -9187.0399 -7364.0636 311.3400 162.9005 257.4841 30381.5338 162.9005 257.4841
ENERGY: 300000 0.5099 5.1701 0.6253 0.0000 -10720.9996 1502.2390 0.0000 0.0000 1719.3162 -7493.1393 293.6363 -9212.4554 -7440.6890 300.6164 406.2494 463.6418 30401.2877 -134.0694 -44.4572
ENERGY: 600000 0.3910 5.2180 0.1947 0.0000 -10656.0867 1454.7977 0.0000 0.0000 1747.3916 -7448.0936 298.4312 -9195.4852 -7441.7790 299.8121 136.8779 173.3512 30620.6079 -113.3183 -27.0654
ENERGY: 900000 2.6219 7.8402 0.2510 0.0000 -10816.0815 1490.6796 0.0000 0.0000 1747.1218 -7567.5670 298.3851 -9314.6888 -7445.5710 299.4083 379.7551 391.7652 30036.4148 -66.2925 14.4020
ENERGY: 1200000 1.4053 3.9743 0.0827 0.0000 -10672.0066 1408.4451 0.0000 0.0000 1767.8388 -7490.2605 301.9233 -9258.0993 -7454.8424 299.0802 -376.4568 -298.4937 30265.4332 -159.0238 -81.7863
ENERGY: 1500000 1.8710 7.6678 0.1348 0.0000 -10758.1408 1484.9321 0.0000 0.0000 1769.5692 -7493.9659 302.2188 -9263.5350 -7465.3537 299.0523 391.8701 410.9739 29833.0995 -92.6656 -24.3190
TCL: Running FEP window  14: Lambda1 0.65   Lambda2 0.7000000000000001 [dLambda 0.050000000000000044]
TCL: Setting parameter firsttimestep to 0
TCL: Setting parameter alchLambda to 0.65
Info: NONBONDED TABLE R-SQUARED SPACING: 0.0625
Info: NONBONDED TABLE SIZE: 705 POINTS
TCL: Setting parameter alchLambda2 to 0.7000000000000001
Info: NONBONDED TABLE R-SQUARED SPACING: 0.0625
Info: NONBONDED TABLE SIZE: 705 POINTS
TCL: Running for 1500000 steps
ETITLE: TS BOND ANGLE DIHED IMPRP ELECT VDW BOUNDARY MISC KINETIC TOTAL TEMP POTENTIAL TOTALAVG TEMPAVG PRESSURE GPRESSURE VOLUME PRESSAVG GPRESSAVG
ENERGY: 0 1.8710 7.6678 0.1348 0.0000 -10758.1285 1484.7822 0.0000 0.0000 1768.6831 -7494.9896 302.0675 -9263.6727 -7494.9896 302.0675 338.8788 419.1876 29833.0995 338.8788 419.1876
ENERGY: 300000 0.6237 7.1549 0.6401 0.0000 -10800.0065 1554.5728 0.0000 0.0000 1721.4804 -7515.5346 294.0059 -9237.0150 -7490.2563 299.2570 1065.5660 1091.2754 29935.1820 312.3345 398.8198
ENERGY: 600000 1.6673 5.1540 0.2053 0.0000 -10581.0489 1425.2970 0.0000 0.0000 1787.1092 -7361.6161 305.2144 -9148.7253 -7451.6842 301.9536 38.3850 82.4377 30563.3879 58.4762 143.5608
ENERGY: 900000 0.0990 7.6236 0.5055 0.0000 -10666.8072 1421.4574 0.0000 0.0000 1755.9175 -7481.2042 299.8873 -9237.1217 -7455.1164 301.7376 -41.2869 29.3347 30161.0381 37.4907 116.9827
ENERGY: 1200000 0.4177 2.8717 0.0418 0.0000 -10470.1048 1354.8541 0.0000 0.0000 1721.4499 -7390.4694 294.0007 -9111.9194 -7444.6558 300.7829 -194.0303 -147.7925 30501.1864 -37.3742 34.6533
ENERGY: 1500000 0.3940 6.1409 2.7137 0.0000 -10545.1117 1376.0003 0.0000 0.0000 1820.6949 -7339.1680 310.9504 -9159.8629 -7434.8373 301.9049 -237.2379 -149.6824 30346.7974 30.6603 103.2346
TCL: Running FEP window  15: Lambda1 0.7000000000000001 Lambda2 0.7500000000000001 [dLambda 0.050000000000000044]
TCL: Setting parameter firsttimestep to 0
TCL: Setting parameter alchLambda to 0.7000000000000001
Info: NONBONDED TABLE R-SQUARED SPACING: 0.0625
Info: NONBONDED TABLE SIZE: 705 POINTS
TCL: Setting parameter alchLambda2 to 0.7500000000000001
Info: NONBONDED TABLE R-SQUARED SPACING: 0.0625
Info: NONBONDED TABLE SIZE: 705 POINTS
TCL: Running for 1500000 steps
ETITLE: TS BOND ANGLE DIHED IMPRP ELECT VDW BOUNDARY MISC KINETIC TOTAL TEMP POTENTIAL TOTALAVG TEMPAVG PRESSURE GPRESSURE VOLUME PRESSAVG GPRESSAVG
ENERGY: 0 0.3940 6.1409 2.7137 0.0000 -10545.3101 1375.6824 0.0000 0.0000 1819.8388 -7340.5404 310.8042 -9160.3792 -7340.5404 310.8042 -234.0975 -148.4403 30346.7974 -234.0975 -148.4403
ENERGY: 300000 2.1762 5.8707 0.2638 0.0000 -10653.0286 1457.2589 0.0000 0.0000 1737.3801 -7450.0790 296.7213 -9187.4590 -7427.3782 301.8465 137.8581 220.3318 30550.2391 -2.6172 72.9678
ENERGY: 600000 0.6940 5.1188 0.2988 0.0000 -10621.3957 1451.7086 0.0000 0.0000 1705.0942 -7458.4814 291.2073 -9163.5756 -7469.8853 298.3783 93.8585 158.5128 30791.0512 70.9586 127.4637
ENERGY: 900000 1.2663 6.4460 0.9691 0.0000 -10855.8567 1516.7812 0.0000 0.0000 1673.2412 -7657.1529 285.7673 -9330.3941 -7487.9172 298.4093 -14.9788 43.5432 30812.8287 165.1580 210.5358
ENERGY: 1200000 2.0579 4.4978 0.4038 0.0000 -10682.9956 1452.0437 0.0000 0.0000 1814.1577 -7409.8346 309.8339 -9223.9923 -7487.1703 298.6511 -157.3984 -70.5196 30603.0824 162.8069 208.0619
ENERGY: 1500000 1.0145 7.9218 0.2535 0.0000 -10538.0282 1313.8795 0.0000 0.0000 1701.2437 -7513.7152 290.5497 -9214.9589 -7486.0353 298.0943 -969.4234 -886.8447 30476.1598 104.8873 152.3019
TCL: Running FEP window  16: Lambda1 0.7500000000000001 Lambda2 0.8000000000000002 [dLambda 0.050000000000000044]
TCL: Setting parameter firsttimestep to 0
TCL: Setting parameter alchLambda to 0.7500000000000001
Info: NONBONDED TABLE R-SQUARED SPACING: 0.0625
Info: NONBONDED TABLE SIZE: 705 POINTS
TCL: Setting parameter alchLambda2 to 0.8000000000000002
Info: NONBONDED TABLE R-SQUARED SPACING: 0.0625
Info: NONBONDED TABLE SIZE: 705 POINTS
TCL: Running for 1500000 steps
ETITLE: TS BOND ANGLE DIHED IMPRP ELECT VDW BOUNDARY MISC KINETIC TOTAL TEMP POTENTIAL TOTALAVG TEMPAVG PRESSURE GPRESSURE VOLUME PRESSAVG GPRESSAVG
ENERGY: 0 1.0145 7.9218 0.2535 0.0000 -10537.9866 1313.7887 0.0000 0.0000 1700.3675 -7514.6405 290.4001 -9215.0080 -7514.6405 290.4001 -965.6397 -878.7551 30476.1598 -965.6397 -878.7551
ENERGY: 300000 1.2308 2.4089 0.8249 0.0000 -10618.9210 1375.1485 0.0000 0.0000 1766.7412 -7472.5667 301.7358 -9239.3080 -7502.0111 295.0943 -469.1529 -444.0809 30508.3711 -547.5244 -473.8614
ENERGY: 600000 1.8174 5.3092 0.3146 0.0000 -10487.1362 1298.4883 0.0000 0.0000 1801.0343 -7380.1724 307.5926 -9181.2067 -7472.5224 297.0552 -1002.9624 -973.5204 30918.1445 -604.1158 -543.8636
ENERGY: 900000 1.0656 2.4680 0.3081 0.0000 -10779.9062 1484.9771 0.0000 0.0000 1711.9296 -7579.1579 292.3747 -9291.0875 -7499.8563 294.6563 157.0744 215.5987 30276.3522 -211.4663 -147.0999
ENERGY: 1200000 1.3247 4.9287 0.3760 0.0000 -10769.7457 1456.4863 0.0000 0.0000 1757.9209 -7548.7090 300.2294 -9306.6299 -7486.6500 296.4692 -98.7995 -100.3428 30540.6138 -181.2589 -117.1188
ENERGY: 1500000 0.9617 6.0142 0.8652 0.0000 -10600.3734 1358.4041 0.0000 0.0000 1741.5094 -7492.6188 297.4266 -9234.1282 -7475.3941 297.3197 -786.5407 -709.7027 30337.0752 -215.9105 -149.9947
TCL: Running FEP window  17: Lambda1 0.8000000000000002 Lambda2 0.8500000000000002 [dLambda 0.050000000000000044]
TCL: Setting parameter firsttimestep to 0
TCL: Setting parameter alchLambda to 0.8000000000000002
Info: NONBONDED TABLE R-SQUARED SPACING: 0.0625
Info: NONBONDED TABLE SIZE: 705 POINTS
TCL: Setting parameter alchLambda2 to 0.8500000000000002
Info: NONBONDED TABLE R-SQUARED SPACING: 0.0625
Info: NONBONDED TABLE SIZE: 705 POINTS
TCL: Running for 1500000 steps
ETITLE: TS BOND ANGLE DIHED IMPRP ELECT VDW BOUNDARY MISC KINETIC TOTAL TEMP POTENTIAL TOTALAVG TEMPAVG PRESSURE GPRESSURE VOLUME PRESSAVG GPRESSAVG
ENERGY: 0 0.9617 6.0142 0.8652 0.0000 -10600.5365 1357.9792 0.0000 0.0000 1740.6134 -7494.1028 297.2735 -9234.7161 -7494.1028 297.2735 -797.1394 -705.8322 30337.0752 -797.1394 -705.8322
ENERGY: 300000 0.9687 3.8920 1.2769 0.0000 -10797.7404 1547.6166 0.0000 0.0000 1744.3271 -7499.6591 297.9078 -9243.9862 -7485.3791 299.8854 751.6440 759.9328 30314.6254 193.2322 239.3027
ENERGY: 600000 3.9023 5.0031 0.1000 0.0000 -10645.1491 1392.5173 0.0000 0.0000 1764.9421 -7478.6842 301.4286 -9243.6264 -7481.7179 300.1456 -391.2626 -298.6505 30207.0866 -111.1664 -40.6937
ENERGY: 900000 0.9476 3.4389 0.2438 0.0000 -10569.9318 1345.9165 0.0000 0.0000 1732.4625 -7486.9226 295.8815 -9219.3851 -7488.9115 298.3878 -696.5233 -631.0387 30662.7522 -234.8859 -159.1474
ENERGY: 1200000 2.2353 4.9738 2.3977 0.0000 -10732.2875 1475.9414 0.0000 0.0000 1739.2953 -7507.4439 297.0484 -9246.7392 -7487.2212 298.9338 297.7217 368.5973 30255.2473 -129.6636 -54.1686
ENERGY: 1500000 1.4224 8.2958 0.6159 0.0000 -10679.0266 1437.4088 0.0000 0.0000 1780.9018 -7450.3819 304.1543 -9231.2837 -7482.8598 299.6070 -138.0661 -65.9133 30444.8338 -114.8943 -38.2843
TCL: Running FEP window  18: Lambda1 0.8500000000000002 Lambda2 0.9000000000000002 [dLambda 0.050000000000000044]
TCL: Setting parameter firsttimestep to 0
TCL: Setting parameter alchLambda to 0.8500000000000002
Info: NONBONDED TABLE R-SQUARED SPACING: 0.0625
Info: NONBONDED TABLE SIZE: 705 POINTS
TCL: Setting parameter alchLambda2 to 0.9000000000000002
Info: NONBONDED TABLE R-SQUARED SPACING: 0.0625
Info: NONBONDED TABLE SIZE: 705 POINTS
TCL: Running for 1500000 steps
ETITLE: TS BOND ANGLE DIHED IMPRP ELECT VDW BOUNDARY MISC KINETIC TOTAL TEMP POTENTIAL TOTALAVG TEMPAVG PRESSURE GPRESSURE VOLUME PRESSAVG GPRESSAVG
ENERGY: 0 1.4224 8.2958 0.6159 0.0000 -10679.1243 1437.1734 0.0000 0.0000 1780.0054 -7451.6115 304.0012 -9231.6169 -7451.6115 304.0012 -148.8817 -59.1087 30444.8338 -148.8817 -59.1087
ENERGY: 300000 0.9011 13.2011 0.4041 0.0000 -10698.6181 1432.9383 0.0000 0.0000 1739.4911 -7511.6824 297.0819 -9251.1735 -7487.0453 300.5671 -215.0372 -153.2938 30571.0711 65.0807 122.6702
ENERGY: 600000 3.1300 4.9242 0.0860 0.0000 -10511.5709 1366.0573 0.0000 0.0000 1733.4502 -7403.9231 296.0502 -9137.3734 -7478.0597 297.6151 -686.3131 -629.2627 30977.4804 -81.7590 -11.2976
ENERGY: 900000 2.2828 6.9499 1.7300 0.0000 -10714.4425 1428.7092 0.0000 0.0000 1761.9392 -7512.8315 300.9157 -9274.7707 -7482.9842 299.3148 -125.7501 -71.3797 30249.6753 5.5526 63.7989
ENERGY: 1200000 1.0342 8.5034 0.6768 0.0000 -10589.4845 1420.2335 0.0000 0.0000 1741.1830 -7417.8536 297.3708 -9159.0366 -7477.9924 298.9092 -218.6030 -113.6227 30619.3935 -43.9382 19.7084
ENERGY: 1500000 0.2126 7.0484 0.2253 0.0000 -10615.4445 1433.5741 0.0000 0.0000 1776.3650 -7398.0192 303.3794 -9174.3842 -7477.6921 299.5547 48.6528 110.6080 30515.0479 -41.7509 21.8006
TCL: Running FEP window  19: Lambda1 0.9000000000000002 Lambda2 0.9500000000000003 [dLambda 0.050000000000000044]
TCL: Setting parameter firsttimestep to 0
TCL: Setting parameter alchLambda to 0.9000000000000002
Info: NONBONDED TABLE R-SQUARED SPACING: 0.0625
Info: NONBONDED TABLE SIZE: 705 POINTS
TCL: Setting parameter alchLambda2 to 0.9500000000000003
Info: NONBONDED TABLE R-SQUARED SPACING: 0.0625
Info: NONBONDED TABLE SIZE: 705 POINTS
TCL: Running for 1500000 steps
ETITLE: TS BOND ANGLE DIHED IMPRP ELECT VDW BOUNDARY MISC KINETIC TOTAL TEMP POTENTIAL TOTALAVG TEMPAVG PRESSURE GPRESSURE VOLUME PRESSAVG GPRESSAVG
ENERGY: 0 0.2126 7.0484 0.2253 0.0000 -10615.4648 1434.1316 0.0000 0.0000 1775.4593 -7398.3876 303.2248 -9173.8469 -7398.3876 303.2248 34.7115 127.6981 30515.0479 34.7115 127.6981
ENERGY: 300000 1.3009 5.7070 1.1540 0.0000 -10591.7434 1392.1403 0.0000 0.0000 1781.1304 -7410.3108 304.1933 -9191.4412 -7474.7724 302.5467 -45.3215 -20.7350 30082.2681 -23.8030 20.5774
ENERGY: 600000 0.9505 3.3853 0.7903 0.0000 -10550.5302 1383.9713 0.0000 0.0000 1733.7030 -7427.7299 296.0933 -9161.4329 -7464.7896 300.4417 -470.9894 -318.2431 30812.9387 -30.1436 43.6807
ENERGY: 900000 1.8827 8.0244 1.2068 0.0000 -10707.6800 1527.0413 0.0000 0.0000 1786.5792 -7382.9457 305.1239 -9169.5249 -7462.7891 300.4060 930.4272 967.6211 30537.9873 77.4090 148.5275
ENERGY: 1200000 1.8151 3.7601 0.2051 0.0000 -10845.8498 1540.2023 0.0000 0.0000 1724.2902 -7575.5770 294.4858 -9299.8672 -7465.3217 300.5274 554.0233 622.7009 29969.5630 76.8138 146.5114
ENERGY: 1500000 0.6985 5.1564 0.2645 0.0000 -10627.7769 1404.5515 0.0000 0.0000 1765.4410 -7451.6651 301.5138 -9217.1061 -7467.4140 300.5740 -311.6766 -181.4420 30574.3820 37.4072 101.9291
TCL: Running FEP window  20: Lambda1 0.9500000000000003 Lambda2 1.0    [dLambda 0.04999999999999971]
TCL: Setting parameter firsttimestep to 0
TCL: Setting parameter alchLambda to 0.9500000000000003
Info: NONBONDED TABLE R-SQUARED SPACING: 0.0625
Info: NONBONDED TABLE SIZE: 705 POINTS
TCL: Setting parameter alchLambda2 to 1.0
Info: NONBONDED TABLE R-SQUARED SPACING: 0.0625
Info: NONBONDED TABLE SIZE: 705 POINTS
TCL: Running for 1500000 steps
ETITLE: TS BOND ANGLE DIHED IMPRP ELECT VDW BOUNDARY MISC KINETIC TOTAL TEMP POTENTIAL TOTALAVG TEMPAVG PRESSURE GPRESSURE VOLUME PRESSAVG GPRESSAVG
ENERGY: 0 0.6985 5.1564 0.2645 0.0000 -10627.9440 1404.6970 0.0000 0.0000 1764.5589 -7452.5688 301.3631 -9217.1277 -7452.5688 301.3631 -241.8472 -169.4799 30574.3820 -241.8472 -169.4799
ENERGY: 300000 1.8928 8.2747 1.3588 0.0000 -10708.4670 1456.1144 0.0000 0.0000 1711.9346 -7528.8916 292.3756 -9240.8263 -7459.2816 298.1103 29.9321 96.2643 30489.2489 -256.1617 -182.3929
ENERGY: 600000 1.9554 6.5766 1.2819 0.0000 -10648.2258 1425.1708 0.0000 0.0000 1751.7543 -7461.4869 299.1763 -9213.2411 -7472.3473 298.3008 169.3517 248.9500 30119.3932 -46.6308 25.6779
ENERGY: 900000 1.0716 5.0279 0.1813 0.0000 -10684.1212 1470.7575 0.0000 0.0000 1780.5445 -7426.5384 304.0932 -9207.0829 -7461.1822 299.4651 395.2919 425.5082 30458.9328 69.7981 141.6829
ENERGY: 1200000 3.3624 6.1071 0.3876 0.0000 -10516.1859 1360.4453 0.0000 0.0000 1720.5799 -7425.3036 293.8521 -9145.8835 -7458.9648 298.8528 -568.4472 -563.0249 30768.0503 13.6906 71.8547
ENERGY: 1500000 0.6203 4.5297 0.1577 0.0000 -10714.8424 1418.3063 0.0000 0.0000 1804.6804 -7486.5482 308.2153 -9291.2285 -7459.4670 300.2381 -412.8971 -348.2367 30486.9484 -14.1423 48.0863
TCL: Exiting due to exit command.
