Info: SIMULATION PARAMETERS:
Info: TIMESTEP               2
Info: NUMBER OF STEPS        0
Info: STEPS PER CYCLE        10
Info: PERIODIC CELL BASIS 1  30.4257 0 0
Info: PERIODIC CELL BASIS 2  0 31.4966 0
Info: PERIODIC CELL BASIS 3  0 0 32.1975
Info: PERIODIC CELL CENTER   0 0 0
Info: WRAPPING WATERS AROUND PERIODIC BOUNDARIES ON OUTPUT.
Info: WRAPPING ALL CLUSTERS AROUND PERIODIC BOUNDARIES ON OUTPUT.
Info: FIRST LDB TIMESTEP     50
Info: LAST LDB TIMESTEP     -1
Info: HOM BACKGROUND SCALING 1
Info: PME BACKGROUND SCALING 1
Info: MIN ATOMS PER PATCH    40
Info: EMPTY PATCH LOAD       40 ATOMS
Info: VELOCITY FILE          mobley_6978427_equil.vel
Info: CENTER OF MASS MOVING INITIALLY? NO
Info: DIELECTRIC             1
Info: EXCLUDE                SCALED ONE-FOUR
Info: 1-4 ELECTROSTATICS SCALED BY 0.833333
Info: MODIFIED 1-4 VDW PARAMETERS WILL BE USED
Info: DCD FILENAME           mobley_6978427_prod.dcd
Info: DCD FREQUENCY          100000
Info: DCD FIRST STEP         100000
Info: DCD FILE WILL CONTAIN UNIT CELL DATA
Info: XST FILENAME           mobley_6978427_prod.xst
Info: XST FREQUENCY          100000
Info: NO VELOCITY DCD OUTPUT
Info: NO FORCE DCD OUTPUT
Info: OUTPUT FILENAME        mobley_6978427_prod
Info: BINARY OUTPUT FILES WILL BE USED
Info: RESTART FILENAME       mobley_6978427_prod.restart
Info: RESTART FREQUENCY      100000
Info: BINARY RESTART FILES WILL BE USED
Info: CUTOFF                 9
Info: PAIRLIST DISTANCE      11
Info: PAIRLIST SHRINK RATE   0.01
Info: PAIRLIST GROW RATE     0.01
Info: PAIRLIST TRIGGER       0.3
Info: PAIRLISTS PER CYCLE    2
Info: PAIRLISTS ENABLED
Info: MARGIN                 2
Info: HYDROGEN GROUP CUTOFF  2.5
Info: PATCH DIMENSION        15.5
Info: ENERGY OUTPUT STEPS    100000
Info: ENERGY EVALUATION STEPS    100000
Info: OUTPUT ENERGY PRECISION 4
Info: CROSSTERM ENERGY INCLUDED IN DIHEDRAL
Info: TIMING OUTPUT STEPS    1000000
Info: PRESSURE OUTPUT STEPS  100000
Info: ALCHEMICAL FEP ON
Info: FEP CURRENT LAMBDA VALUE     1
Info: FEP COMPARISON LAMBDA VALUE  0.95
Info: FEP INTRA-ALCHEMICAL NON-BONDED INTERACTIONS WILL BE RETAINED
Info: FEP INTRA-ALCHEMICAL BONDED INTERACTIONS WILL BE RETAINED
Info: FEP VDW SHIFTING COEFFICIENT 5
Info: FEP ELEC. ACTIVE FOR ANNIHILATED PARTICLES BETWEEN LAMBDA = 0 AND LAMBDA = 0.5
Info: FEP ELEC. ACTIVE FOR EXNIHILATED PARTICLES BETWEEN LAMBDA = 0.5 AND LAMBDA = 1
Info: FEP VDW ACTIVE FOR ANNIHILATED PARTICLES BETWEEN LAMBDA = 0 AND LAMBDA = 1
Info: FEP VDW ACTIVE FOR EXNIHILATED PARTICLES BETWEEN LAMBDA = 0 AND LAMBDA = 1
Info: FEP BOND ACTIVE FOR ANNIHILATED PARTICLES BETWEEN LAMBDA = 1 AND LAMBDA = 1
Info: FEP BOND ACTIVE FOR EXNIHILATED PARTICLES BETWEEN LAMBDA = 0 AND LAMBDA = 0
Info: LANGEVIN DYNAMICS ACTIVE
Info: LANGEVIN TEMPERATURE   300
Info: LANGEVIN USING BBK INTEGRATOR
Info: LANGEVIN DAMPING COEFFICIENT IS 1 INVERSE PS
Info: LANGEVIN DYNAMICS APPLIED TO HYDROGENS
Info: LANGEVIN PISTON PRESSURE CONTROL ACTIVE
Info:        TARGET PRESSURE IS 1.01325 BAR
Info:     OSCILLATION PERIOD IS 50 FS
Info:             DECAY TIME IS 25 FS
Info:     PISTON TEMPERATURE IS 300 K
Info:       PRESSURE CONTROL IS GROUP-BASED
Info:    INITIAL STRAIN RATE IS -0.000138175 -0.000138175 -0.000138175
Info:       CELL FLUCTUATION IS ISOTROPIC
Info: PARTICLE MESH EWALD (PME) ACTIVE
Info: PME TOLERANCE               1e-06
Info: PME EWALD COEFFICIENT       0.348832
Info: PME INTERPOLATION ORDER     4
Info: PME GRID DIMENSIONS         32 32 36
Info: PME MAXIMUM GRID SPACING    1
Info: PME CALCULATION WILL BE PERFORMED ON GPU
Info: FULL ELECTROSTATIC EVALUATION FREQUENCY      2
Info: USING VERLET I (r-RESPA) MTS SCHEME.
Info: C1 SPLITTING OF LONG RANGE ELECTROSTATICS
Info: PLACING ATOMS IN PATCHES BY HYDROGEN GROUPS
Info: RIGID BONDS TO HYDROGEN : ALL
Info:         ERROR TOLERANCE : 1e-08
Info:          MAX ITERATIONS : 100
Info: RIGID WATER USING SETTLE ALGORITHM
Info: RANDOM NUMBER SEED     1743812931
Info: USE HYDROGEN BONDS?    NO
Info: Using AMBER format force field!
Info: AMBER PARM FILE        mobley_6978427.prmtop
Info: COORDINATE PDB         mobley_6978427.pdb
Info: Exclusions will be read from PARM file!
Info: SCNB (VDW SCALING)     2
Info: USING ARITHMETIC MEAN TO COMBINE L-J SIGMA PARAMETERS
Info: BINARY COORDINATES     mobley_6978427_equil.coor
Info: SUMMARY OF PARAMETERS:
Info: 9 BONDS
Info: 11 ANGLES
Info:   11 HARMONIC
Info:   0 COSINE-BASED
Info: 16 DIHEDRAL
Info: 0 IMPROPER
Info: 0 CROSSTERM
Info: 0 VDW
Info: 36 VDW_PAIRS
Info: 0 NBTHOLE_PAIRS
Info: To read alchdata from file: mobley_6978427.pdb
Info: To read alchflag data from column: 5
Info: STRUCTURE SUMMARY:
Info: 2961 ATOMS
Info: 2961 BONDS
Info: 46 ANGLES
Info: 83 DIHEDRALS
Info: 0 IMPROPERS
Info: 0 CROSSTERMS
Info: 3069 EXCLUSIONS
Info: 2951 RIGID BONDS
Info: ALCH: 0 ATOMS TO DISAPPEAR IN FINAL STATE
Info: ALCH: 24 ATOMS TO APPEAR IN FINAL STATE
Info: 5932 DEGREES OF FREEDOM
Info: 989 HYDROGEN GROUPS
Info: 4 ATOMS IN LARGEST HYDROGEN GROUP
Info: 989 MIGRATION GROUPS
Info: 4 ATOMS IN LARGEST MIGRATION GROUP
Info: TOTAL MASS = 17779.9 amu
Info: TOTAL CHARGE = -0.000199955 e
Info: MASS DENSITY = 0.956891 g/cm^3
Info: ATOM DENSITY = 0.0959651 atoms/A^3
Info: ADDED 0 IMPLICIT EXCLUSIONS
Info: NONBONDED TABLE R-SQUARED SPACING: 0.0625
Info: NONBONDED TABLE SIZE: 705 POINTS
Info: REMOVING COM VELOCITY 0.101614 0.00542003 -0.0965352
Info: Use 3D box decompostion in PME FFT.
Info: Updated CUDA force table with 4096 elements.
Info: Updated CUDA LJ table with 8 x 8 elements.
Info: Found 27 unique exclusion lists needing 80 bytes
TCL: Running for 1500000 steps
ETITLE: TS BOND ANGLE DIHED IMPRP ELECT VDW BOUNDARY MISC KINETIC TOTAL TEMP POTENTIAL TOTALAVG TEMPAVG PRESSURE GPRESSURE VOLUME PRESSAVG GPRESSAVG
ENERGY: 0 2.2343 14.3469 5.0655 0.0000 -10652.8349 1397.0090 0.0000 0.0000 1754.9529 -7479.2263 297.7520 -9234.1792 -7479.2263 297.7520 -424.4707 -342.5044 30854.9568 -424.4707 -342.5044
ENERGY: 300000 3.9810 12.2414 6.5197 0.0000 -10716.1567 1405.1015 0.0000 0.0000 1826.4851 -7461.8280 309.8884 -9288.3130 -7498.9985 300.4889 -533.7076 -482.7861 30741.6004 -525.0569 -440.6962
ENERGY: 600000 3.4115 15.2629 4.9688 0.0000 -10677.3450 1436.0152 0.0000 0.0000 1772.1588 -7445.5279 300.6712 -9217.6867 -7485.2477 301.1276 105.4363 187.3213 30719.1236 -307.4802 -232.7059
ENERGY: 900000 3.0533 9.1973 4.6725 0.0000 -10611.5576 1401.9393 0.0000 0.0000 1770.9376 -7421.7576 300.4640 -9192.6952 -7473.9650 301.2697 -303.7134 -260.3790 30565.7597 -170.4920 -94.8874
ENERGY: 1200000 2.4454 12.5899 5.6237 0.0000 -10898.3372 1562.5178 0.0000 0.0000 1752.9325 -7562.2278 297.4092 -9315.1603 -7481.0584 301.0212 973.7985 972.6512 30319.8675 -6.9724 65.2230
ENERGY: 1500000 2.3984 11.7233 4.7594 0.0000 -10748.7704 1449.3423 0.0000 0.0000 1701.3272 -7579.2197 288.6537 -9280.5469 -7488.7279 300.0407 64.7159 110.2437 30402.6950 19.1995 90.6229
TCL: Running FEP window   2: Lambda1 0.95   Lambda2 0.8999999999999999 [dLambda -0.050000000000000044]
TCL: Setting parameter firsttimestep to 0
TCL: Setting parameter alchLambda to 0.95
Info: NONBONDED TABLE R-SQUARED SPACING: 0.0625
Info: NONBONDED TABLE SIZE: 705 POINTS
TCL: Setting parameter alchLambda2 to 0.8999999999999999
Info: NONBONDED TABLE R-SQUARED SPACING: 0.0625
Info: NONBONDED TABLE SIZE: 705 POINTS
TCL: Running for 1500000 steps
ETITLE: TS BOND ANGLE DIHED IMPRP ELECT VDW BOUNDARY MISC KINETIC TOTAL TEMP POTENTIAL TOTALAVG TEMPAVG PRESSURE GPRESSURE VOLUME PRESSAVG GPRESSAVG
ENERGY: 0 2.3984 11.7233 4.7594 0.0000 -10747.2044 1448.6954 0.0000 0.0000 1700.4169 -7579.2109 288.4992 -9279.6278 -7579.2109 288.4992 13.9455 86.4570 30402.6950 13.9455 86.4570
ENERGY: 300000 5.3513 9.8461 4.3836 0.0000 -10733.2786 1441.0851 0.0000 0.0000 1813.0484 -7459.5640 307.6087 -9272.6124 -7514.5570 299.0860 186.4178 250.7127 30224.3541 345.1816 411.0607
ENERGY: 600000 4.4058 10.7830 5.3474 0.0000 -10766.1387 1458.0320 0.0000 0.0000 1776.1288 -7511.4417 301.3448 -9287.5705 -7504.8476 298.8248 -42.0718 -48.0717 30926.6545 240.7247 284.7058
ENERGY: 900000 2.1646 12.3666 3.7442 0.0000 -10777.8916 1542.7936 0.0000 0.0000 1835.1702 -7381.6523 311.3620 -9216.8225 -7481.5798 302.2223 912.3343 990.5661 30300.4112 252.9686 303.7387
ENERGY: 1200000 4.1405 8.1681 3.8973 0.0000 -10649.2975 1383.8269 0.0000 0.0000 1776.5760 -7472.6886 301.4207 -9249.2646 -7476.4142 301.9034 -446.7743 -377.7987 30657.0958 189.9596 242.5450
ENERGY: 1500000 7.8394 12.5590 5.3476 0.0000 -10662.3816 1383.0720 0.0000 0.0000 1750.6479 -7502.9155 297.0216 -9253.5635 -7490.0537 300.9383 -442.6256 -360.5190 30569.1634 75.4513 128.2622
TCL: Running FEP window   3: Lambda1 0.8999999999999999 Lambda2 0.8499999999999999 [dLambda -0.050000000000000044]
TCL: Setting parameter firsttimestep to 0
TCL: Setting parameter alchLambda to 0.8999999999999999
Info: NONBONDED TABLE R-SQUARED SPACING: 0.0625
Info: NONBONDED TABLE SIZE: 705 POINTS
TCL: Setting parameter alchLambda2 to 0.8499999999999999
Info: NONBONDED TABLE R-SQUARED SPACING: 0.0625
Info: NONBONDED TABLE SIZE: 705 POINTS
TCL: Running for 1500000 steps
ETITLE: TS BOND ANGLE DIHED IMPRP ELECT VDW BOUNDARY MISC KINETIC TOTAL TEMP POTENTIAL TOTALAVG TEMPAVG PRESSURE GPRESSURE VOLUME PRESSAVG GPRESSAVG
ENERGY: 0 7.8394 12.5590 5.3476 0.0000 -10661.5169 1383.5485 0.0000 0.0000 1749.7930 -7502.4292 296.8766 -9252.2222 -7502.4292 296.8766 -441.9296 -369.5122 30569.1634 -441.9296 -369.5122
ENERGY: 300000 5.7034 11.9171 9.4734 0.0000 -10731.2979 1434.4089 0.0000 0.0000 1742.3531 -7527.4421 295.6143 -9269.7952 -7517.9530 299.8985 -23.5734 7.0097 30169.0729 -28.4322 30.7604
ENERGY: 600000 5.7585 10.5629 5.6288 0.0000 -10633.7805 1365.4133 0.0000 0.0000 1739.8579 -7506.5591 295.1909 -9246.4170 -7503.1926 298.7232 -859.0381 -713.7304 30923.2861 -98.9685 -25.0574
ENERGY: 900000 5.3590 18.4695 5.3699 0.0000 -10611.1606 1322.1547 0.0000 0.0000 1823.1977 -7436.6098 309.3307 -9259.8075 -7482.9394 299.5351 -894.3156 -883.2191 30619.7312 -210.6560 -147.2420
ENERGY: 1200000 3.1144 6.4822 3.7220 0.0000 -10843.4842 1470.1532 0.0000 0.0000 1779.9306 -7580.0818 301.9898 -9360.0124 -7477.9434 300.4589 -123.8885 -46.3490 30549.4341 -128.7817 -70.0662
ENERGY: 1500000 1.9225 9.2287 4.4928 0.0000 -10722.8188 1443.8151 0.0000 0.0000 1807.4101 -7455.9495 306.6521 -9263.3597 -7466.2384 301.7149 -178.8388 -71.8759 30645.1484 -96.8227 -31.7029
TCL: Running FEP window   4: Lambda1 0.8499999999999999 Lambda2 0.7999999999999998 [dLambda -0.050000000000000044]
TCL: Setting parameter firsttimestep to 0
TCL: Setting parameter alchLambda to 0.8499999999999999
Info: NONBONDED TABLE R-SQUARED SPACING: 0.0625
Info: NONBONDED TABLE SIZE: 705 POINTS
TCL: Setting parameter alchLambda2 to 0.7999999999999998
Info: NONBONDED TABLE R-SQUARED SPACING: 0.0625
Info: NONBONDED TABLE SIZE: 705 POINTS
TCL: Running for 1500000 steps
ETITLE: TS BOND ANGLE DIHED IMPRP ELECT VDW BOUNDARY MISC KINETIC TOTAL TEMP POTENTIAL TOTALAVG TEMPAVG PRESSURE GPRESSURE VOLUME PRESSAVG GPRESSAVG
ENERGY: 0 1.9225 9.2287 4.4928 0.0000 -10721.7999 1444.0391 0.0000 0.0000 1806.5344 -7455.5823 306.5035 -9262.1167 -7455.5823 306.5035 -169.5384 -79.9642 30645.1484 -169.5384 -79.9642
ENERGY: 300000 3.3923 9.4837 4.2928 0.0000 -10706.5151 1407.7204 0.0000 0.0000 1772.6509 -7508.9750 300.7547 -9281.6259 -7478.0243 305.9650 -98.4347 -53.9600 30306.7161 -210.0724 -127.6882
ENERGY: 600000 2.8709 10.4284 4.8576 0.0000 -10703.5319 1418.4057 0.0000 0.0000 1765.5773 -7501.3921 299.5546 -9266.9694 -7488.4232 302.6323 -148.6518 -115.0409 30416.1150 -194.8598 -134.3889
ENERGY: 900000 1.5761 11.0445 4.7585 0.0000 -10594.0182 1374.9893 0.0000 0.0000 1728.8880 -7472.7617 293.3297 -9201.6497 -7477.0120 300.4986 -745.9816 -625.7091 31241.9510 -300.6011 -233.0798
ENERGY: 1200000 3.9535 7.8735 6.0205 0.0000 -10726.2199 1444.7297 0.0000 0.0000 1748.5879 -7515.0547 296.6721 -9263.6427 -7480.5774 300.7114 -39.6858 76.6656 30300.0295 -254.8120 -184.1721
ENERGY: 1500000 2.0556 12.1257 4.7890 0.0000 -10800.1649 1484.7526 0.0000 0.0000 1790.4945 -7505.9475 303.7821 -9296.4420 -7478.8281 300.9279 245.3957 256.7887 30525.8694 -140.1294 -73.3638
TCL: Running FEP window   5: Lambda1 0.7999999999999998 Lambda2 0.7499999999999998 [dLambda -0.050000000000000044]
TCL: Setting parameter firsttimestep to 0
TCL: Setting parameter alchLambda to 0.7999999999999998
Info: NONBONDED TABLE R-SQUARED SPACING: 0.0625
Info: NONBONDED TABLE SIZE: 705 POINTS
TCL: Setting parameter alchLambda2 to 0.7499999999999998
Info: NONBONDED TABLE R-SQUARED SPACING: 0.0625
Info: NONBONDED TABLE SIZE: 705 POINTS
TCL: Running for 1500000 steps
ETITLE: TS BOND ANGLE DIHED IMPRP ELECT VDW BOUNDARY MISC KINETIC TOTAL TEMP POTENTIAL TOTALAVG TEMPAVG PRESSURE GPRESSURE VOLUME PRESSAVG GPRESSAVG
ENERGY: 0 2.0556 12.1257 4.7890 0.0000 -10799.0905 1484.3292 0.0000 0.0000 1789.5689 -7506.2221 303.6251 -9295.7910 -7506.2221 303.6251 148.0392 239.0723 30525.8694 148.0392 239.0723
ENERGY: 300000 2.9288 10.6375 4.5790 0.0000 -10783.1952 1466.5474 0.0000 0.0000 1810.2568 -7488.2457 307.1351 -9298.5025 -7480.5988 300.5373 325.2061 380.2862 30097.2602 46.3499 117.5122
ENERGY: 600000 4.1569 14.6646 4.4164 0.0000 -10695.3939 1458.4327 0.0000 0.0000 1818.1689 -7395.5544 308.4775 -9213.7233 -7472.4465 301.1638 104.6738 127.9871 30884.0488 -55.2785 16.4766
ENERGY: 900000 3.7491 9.4146 5.0153 0.0000 -10518.2112 1407.7048 0.0000 0.0000 1785.2144 -7307.1131 302.8863 -9092.3275 -7469.4679 300.4467 -92.8763 22.9387 30963.1865 -119.0271 -56.3108
ENERGY: 1200000 4.1041 10.6863 4.3105 0.0000 -10769.0098 1439.1463 0.0000 0.0000 1754.5157 -7556.2470 297.6778 -9310.7627 -7464.5265 300.8805 -372.9809 -342.2398 30673.8486 -235.4201 -176.3922
ENERGY: 1500000 7.1769 12.7042 5.5066 0.0000 -10675.0289 1461.9382 0.0000 0.0000 1797.9252 -7389.7776 305.0429 -9187.7028 -7456.7388 300.9269 533.3058 628.6335 30060.5304 -119.3127 -58.6848
TCL: Running FEP window   6: Lambda1 0.7499999999999998 Lambda2 0.6999999999999997 [dLambda -0.050000000000000044]
TCL: Setting parameter firsttimestep to 0
TCL: Setting parameter alchLambda to 0.7499999999999998
Info: NONBONDED TABLE R-SQUARED SPACING: 0.0625
Info: NONBONDED TABLE SIZE: 705 POINTS
TCL: Setting parameter alchLambda2 to 0.6999999999999997
Info: NONBONDED TABLE R-SQUARED SPACING: 0.0625
Info: NONBONDED TABLE SIZE: 705 POINTS
TCL: Running for 1500000 steps
ETITLE: TS BOND ANGLE DIHED IMPRP ELECT VDW BOUNDARY MISC KINETIC TOTAL TEMP POTENTIAL TOTALAVG TEMPAVG PRESSURE GPRESSURE VOLUME PRESSAVG GPRESSAVG
ENERGY: 0 7.1769 12.7042 5.5066 0.0000 -10672.9454 1461.1908 0.0000 0.0000 1797.0098 -7389.3570 304.8876 -9186.3668 -7389.3570 304.8876 544.3041 617.5407 30060.5304 544.3041 617.5407
ENERGY: 300000 3.0976 16.4219 5.6382 0.0000 -10593.9178 1413.7079 0.0000 0.0000 1730.8178 -7424.2345 293.6572 -9155.0522 -7462.1301 298.6532 -75.4401 -28.5713 30606.4877 173.4116 238.2462
ENERGY: 600000 2.4996 11.4845 5.2054 0.0000 -10705.4067 1441.6166 0.0000 0.0000 1782.2009 -7462.3998 302.3750 -9244.6006 -7465.1230 300.0317 194.6740 304.6818 30176.4895 81.8631 170.3227
ENERGY: 900000 3.8916 8.2143 4.6565 0.0000 -10700.6766 1413.2025 0.0000 0.0000 1776.2048 -7494.5069 301.3577 -9270.7117 -7476.1110 299.7574 -542.1769 -505.4987 30847.1153 -143.8909 -65.9202
ENERGY: 1200000 3.7343 12.4245 4.0300 0.0000 -10813.5466 1532.4976 0.0000 0.0000 1746.4366 -7514.4237 296.3071 -9260.8603 -7484.4414 300.3725 670.9677 669.7140 30481.8580 -36.1009 33.7479
ENERGY: 1500000 5.2853 11.5476 4.9913 0.0000 -10680.6523 1416.3835 0.0000 0.0000 1790.9503 -7451.4942 303.8595 -9242.4445 -7483.4200 299.7433 -59.1449 -16.7501 30080.6755 -106.7025 -39.1381
TCL: Running FEP window   7: Lambda1 0.6999999999999997 Lambda2 0.6499999999999997 [dLambda -0.050000000000000044]
TCL: Setting parameter firsttimestep to 0
TCL: Setting parameter alchLambda to 0.6999999999999997
Info: NONBONDED TABLE R-SQUARED SPACING: 0.0625
Info: NONBONDED TABLE SIZE: 705 POINTS
TCL: Setting parameter alchLambda2 to 0.6499999999999997
Info: NONBONDED TABLE R-SQUARED SPACING: 0.0625
Info: NONBONDED TABLE SIZE: 705 POINTS
TCL: Running for 1500000 steps
ETITLE: TS BOND ANGLE DIHED IMPRP ELECT VDW BOUNDARY MISC KINETIC TOTAL TEMP POTENTIAL TOTALAVG TEMPAVG PRESSURE GPRESSURE VOLUME PRESSAVG GPRESSAVG
ENERGY: 0 5.2853 11.5476 4.9913 0.0000 -10679.5226 1416.5267 0.0000 0.0000 1790.0995 -7451.0721 303.7151 -9241.1716 -7451.0721 303.7151 -98.3777 -22.8195 30080.6755 -98.3777 -22.8195
ENERGY: 300000 2.2308 14.1983 4.6155 0.0000 -10787.1187 1485.5924 0.0000 0.0000 1785.8478 -7494.6340 302.9938 -9280.4818 -7478.0236 301.3751 263.7260 256.5494 30663.2370 -445.3677 -423.3406
ENERGY: 600000 2.6212 14.0481 5.3658 0.0000 -10578.0530 1363.3482 0.0000 0.0000 1783.5290 -7409.1407 302.6003 -9192.6698 -7476.6332 299.9375 -644.8142 -628.9760 30889.4185 -549.2391 -524.6031
ENERGY: 900000 1.4522 14.9605 4.7455 0.0000 -10583.9014 1374.1937 0.0000 0.0000 1806.8648 -7381.6847 306.5596 -9188.5495 -7457.2487 300.8036 -213.9691 -142.8440 30347.9277 -482.3526 -441.9674
ENERGY: 1200000 3.2260 12.3645 4.4595 0.0000 -10787.8067 1499.7001 0.0000 0.0000 1771.8194 -7496.2371 300.6136 -9268.0565 -7460.3473 301.0448 713.3770 798.2806 29893.8422 -199.2650 -147.3166
ENERGY: 1500000 1.8913 5.7048 3.5120 0.0000 -10709.2133 1463.7470 0.0000 0.0000 1798.4408 -7435.9174 305.1303 -9234.3581 -7458.8249 300.6197 195.0229 280.4222 30343.7279 -128.6878 -76.3517
TCL: Running FEP window   8: Lambda1 0.6499999999999997 Lambda2 0.5999999999999996 [dLambda -0.050000000000000044]
TCL: Setting parameter firsttimestep to 0
TCL: Setting parameter alchLambda to 0.6499999999999997
Info: NONBONDED TABLE R-SQUARED SPACING: 0.0625
Info: NONBONDED TABLE SIZE: 705 POINTS
TCL: Setting parameter alchLambda2 to 0.5999999999999996
Info: NONBONDED TABLE R-SQUARED SPACING: 0.0625
Info: NONBONDED TABLE SIZE: 705 POINTS
TCL: Running for 1500000 steps
ETITLE: TS BOND ANGLE DIHED IMPRP ELECT VDW BOUNDARY MISC KINETIC TOTAL TEMP POTENTIAL TOTALAVG TEMPAVG PRESSURE GPRESSURE VOLUME PRESSAVG GPRESSAVG
ENERGY: 0 1.8913 5.7048 3.5120 0.0000 -10709.4227 1464.3566 0.0000 0.0000 1797.5872 -7436.3708 304.9855 -9233.9580 -7436.3708 304.9855 189.4987 276.0309 30343.7279 189.4987 276.0309
ENERGY: 300000 2.3379 10.2738 5.6585 0.0000 -10720.9873 1475.0047 0.0000 0.0000 1798.2605 -7429.4517 305.0998 -9227.7123 -7453.2822 304.2784 267.2036 353.9942 30449.2530 25.0758 108.8334
ENERGY: 600000 3.3447 16.7093 3.6336 0.0000 -10767.3914 1423.1902 0.0000 0.0000 1810.2819 -7510.2317 307.1393 -9320.5136 -7460.5979 303.3585 -525.7090 -387.4141 30420.0820 -93.7676 -4.4901
ENERGY: 900000 2.0367 10.7088 5.4239 0.0000 -10690.0065 1464.6823 0.0000 0.0000 1783.6874 -7423.4673 302.6272 -9207.1547 -7458.1862 303.2185 -17.5064 47.1732 31022.8576 -107.7897 -29.2709
ENERGY: 1200000 1.3329 11.0905 5.0645 0.0000 -10593.6774 1407.5230 0.0000 0.0000 1726.4910 -7442.1754 292.9231 -9168.6664 -7462.0168 301.2645 167.5017 167.6884 30260.3801 -56.9599 8.8593
ENERGY: 1500000 4.0945 9.0770 4.2246 0.0000 -10720.5623 1483.1257 0.0000 0.0000 1802.6331 -7417.4073 305.8416 -9220.0404 -7464.9928 300.6849 320.6818 382.8100 30540.1322 -70.0809 -9.0955
TCL: Running FEP window   9: Lambda1 0.5999999999999996 Lambda2 0.5499999999999996 [dLambda -0.050000000000000044]
TCL: Setting parameter firsttimestep to 0
TCL: Setting parameter alchLambda to 0.5999999999999996
Info: NONBONDED TABLE R-SQUARED SPACING: 0.0625
Info: NONBONDED TABLE SIZE: 705 POINTS
TCL: Setting parameter alchLambda2 to 0.5499999999999996
Info: NONBONDED TABLE R-SQUARED SPACING: 0.0625
Info: NONBONDED TABLE SIZE: 705 POINTS
TCL: Running for 1500000 steps
ETITLE: TS BOND ANGLE DIHED IMPRP ELECT VDW BOUNDARY MISC KINETIC TOTAL TEMP POTENTIAL TOTALAVG TEMPAVG PRESSURE GPRESSURE VOLUME PRESSAVG GPRESSAVG
ENERGY: 0 4.0945 9.0770 4.2246 0.0000 -10719.9696 1483.0701 0.0000 0.0000 1801.7389 -7417.7645 305.6899 -9219.5033 -7417.7645 305.6899 292.4414 374.5258 30540.1322 292.4414 374.5258
ENERGY: 300000 6.9726 14.0817 4.2404 0.0000 -10661.1030 1414.8559 0.0000 0.0000 1797.1703 -7423.7821 304.9148 -9220.9524 -7474.1404 302.2684 -28.8780 -6.3420 30031.5189 -163.6163 -107.0727
ENERGY: 600000 5.8343 15.8634 5.0815 0.0000 -10595.1030 1443.4386 0.0000 0.0000 1779.4143 -7345.4709 301.9022 -9124.8852 -7464.7526 300.1549 80.9260 110.0400 30857.2087 -29.9585 19.5491
ENERGY: 900000 1.9446 8.4527 5.0015 0.0000 -10589.9001 1356.8372 0.0000 0.0000 1815.5818 -7402.0824 308.0385 -9217.6641 -7446.7934 301.1796 -504.2057 -398.1559 30543.6543 -125.1445 -79.1024
ENERGY: 1200000 3.5646 10.0453 5.5824 0.0000 -10699.2479 1462.1280 0.0000 0.0000 1775.8494 -7442.0782 301.2974 -9217.9276 -7457.0960 300.2683 152.6339 212.0696 30624.2929 -158.6195 -105.0316
ENERGY: 1500000 3.2080 9.5616 5.7491 0.0000 -10625.9380 1402.2522 0.0000 0.0000 1755.5776 -7449.5894 297.8580 -9205.1670 -7460.6351 300.0432 -226.2291 -193.9387 30462.6039 -139.4647 -89.2893
TCL: Running FEP window  10: Lambda1 0.5499999999999996 Lambda2 0.4999999999999996 [dLambda -0.04999999999999999]
TCL: Setting parameter firsttimestep to 0
TCL: Setting parameter alchLambda to 0.5499999999999996
Info: NONBONDED TABLE R-SQUARED SPACING: 0.0625
Info: NONBONDED TABLE SIZE: 705 POINTS
TCL: Setting parameter alchLambda2 to 0.4999999999999996
Info: NONBONDED TABLE R-SQUARED SPACING: 0.0625
Info: NONBONDED TABLE SIZE: 705 POINTS
TCL: Running for 1500000 steps
ETITLE: TS BOND ANGLE DIHED IMPRP ELECT VDW BOUNDARY MISC KINETIC TOTAL TEMP POTENTIAL TOTALAVG TEMPAVG PRESSURE GPRESSURE VOLUME PRESSAVG GPRESSAVG
ENERGY: 0 3.2080 9.5616 5.7491 0.0000 -10624.2820 1400.8491 0.0000 0.0000 1754.7062 -7450.2080 297.7102 -9204.9142 -7450.2080 297.7102 -298.5880 -214.6711 30462.6039 -298.5880 -214.6711
ENERGY: 300000 1.9108 6.5939 4.1663 0.0000 -10558.3235 1380.2948 0.0000 0.0000 1756.4203 -7408.9374 298.0010 -9165.3577 -7475.8458 296.5004 -472.2979 -461.0076 31194.3119 -271.0165 -207.5650
ENERGY: 600000 5.5911 9.1135 5.0911 0.0000 -10719.9638 1440.8475 0.0000 0.0000 1788.3719 -7470.9488 303.4220 -9259.3206 -7468.5939 298.8986 -242.9010 -144.3104 30408.8964 -183.1525 -110.0929
ENERGY: 900000 5.5185 9.6670 3.7303 0.0000 -10756.0349 1480.9931 0.0000 0.0000 1800.2804 -7455.8456 305.4424 -9256.1260 -7458.0777 299.8706 440.9870 465.1404 29882.0254 -184.4229 -114.8228
ENERGY: 1200000 2.9578 7.5617 5.2405 0.0000 -10595.1799 1357.4464 0.0000 0.0000 1765.2075 -7456.7660 299.4918 -9221.9735 -7455.9619 300.9043 -561.3638 -529.1367 30282.8794 -114.6326 -46.7344
ENERGY: 1500000 3.3115 7.4639 4.0970 0.0000 -10711.2181 1476.2486 0.0000 0.0000 1766.6329 -7453.4643 299.7337 -9220.0971 -7464.0120 300.0335 399.0587 491.2085 30257.9424 -118.0105 -42.7285
TCL: Running FEP window  11: Lambda1 0.4999999999999996 Lambda2 0.4499999999999996 [dLambda -0.04999999999999999]
TCL: Setting parameter firsttimestep to 0
TCL: Setting parameter alchLambda to 0.4999999999999996
Info: NONBONDED TABLE R-SQUARED SPACING: 0.0625
Info: NONBONDED TABLE SIZE: 705 POINTS
TCL: Setting parameter alchLambda2 to 0.4499999999999996
Info: NONBONDED TABLE R-SQUARED SPACING: 0.0625
Info: NONBONDED TABLE SIZE: 705 POINTS
TCL: Running for 1500000 steps
ETITLE: TS BOND ANGLE DIHED IMPRP ELECT VDW BOUNDARY MISC KINETIC TOTAL TEMP POTENTIAL TOTALAVG TEMPAVG PRESSURE GPRESSURE VOLUME PRESSAVG GPRESSAVG
ENERGY: 0 3.3115 7.4639 4.0970 0.0000 -10711.5005 1475.7994 0.0000 0.0000 1765.7284 -7455.1003 299.5802 -9220.8287 -7455.1003 299.5802 387.3382 477.8070 30257.9424 387.3382 477.8070
ENERGY: 300000 2.3323 11.4213 5.1161 0.0000 -10552.2408 1385.8860 0.0000 0.0000 1758.4912 -7388.9938 298.3523 -9147.4850 -7493.9728 297.4163 -381.3471 -305.4558 30798.1447 -216.4089 -163.3955
ENERGY: 600000 6.1815 13.7967 5.2109 0.0000 -10707.1247 1432.6525 0.0000 0.0000 1770.9217 -7478.3614 300.4613 -9249.2831 -7489.2056 298.9887 88.0016 86.8465 30140.3379 -249.8945 -206.3891
ENERGY: 900000 3.1569 11.0065 3.6871 0.0000 -10598.9758 1396.2637 0.0000 0.0000 1769.0749 -7415.7866 300.1480 -9184.8616 -7472.6813 299.2578 -362.0861 -268.5508 30509.9209 -293.1339 -240.7188
ENERGY: 1200000 4.0092 14.1558 4.6031 0.0000 -10595.7701 1389.1483 0.0000 0.0000 1776.8239 -7407.0298 301.4627 -9183.8537 -7463.8034 299.8875 -190.9787 -113.0915 30693.6204 -226.0823 -168.5080
ENERGY: 1500000 3.9952 14.7869 4.5229 0.0000 -10774.4055 1475.4998 0.0000 0.0000 1789.8633 -7485.7374 303.6750 -9275.6007 -7468.6871 299.5606 236.8000 257.3825 30598.8766 -115.2950 -55.6170
TCL: Running FEP window  12: Lambda1 0.4499999999999996 Lambda2 0.39999999999999963 [dLambda -0.04999999999999999]
TCL: Setting parameter firsttimestep to 0
TCL: Setting parameter alchLambda to 0.4499999999999996
Info: NONBONDED TABLE R-SQUARED SPACING: 0.0625
Info: NONBONDED TABLE SIZE: 705 POINTS
TCL: Setting parameter alchLambda2 to 0.39999999999999963
Info: NONBONDED TABLE R-SQUARED SPACING: 0.0625
Info: NONBONDED TABLE SIZE: 705 POINTS
TCL: Running for 1500000 steps
ETITLE: TS BOND ANGLE DIHED IMPRP ELECT VDW BOUNDARY MISC KINETIC TOTAL TEMP POTENTIAL TOTALAVG TEMPAVG PRESSURE GPRESSURE VOLUME PRESSAVG GPRESSAVG
ENERGY: 0 3.9952 14.7869 4.5229 0.0000 -10774.4056 1475.3583 0.0000 0.0000 1789.0098 -7486.7325 303.5302 -9275.7423 -7486.7325 303.5302 171.1319 247.4842 30598.8766 171.1319 247.4842
ENERGY: 300000 6.1111 15.6968 4.0721 0.0000 -10664.0805 1397.4001 0.0000 0.0000 1805.9841 -7434.8163 306.4102 -9240.8004 -7491.1373 305.4818 -361.5605 -282.5264 30192.5642 -151.9361 -81.1167
ENERGY: 600000 2.1039 9.8596 4.8618 0.0000 -10661.6259 1393.2971 0.0000 0.0000 1774.3505 -7477.1530 301.0431 -9251.5035 -7479.4572 303.0765 -149.9722 -130.3114 30340.6333 -144.9117 -91.4979
ENERGY: 900000 3.5527 12.3438 5.7521 0.0000 -10584.0110 1349.0500 0.0000 0.0000 1815.5202 -7397.7922 308.0281 -9213.3124 -7466.3757 303.1481 -723.1849 -642.3767 30398.2746 -129.5357 -78.2021
ENERGY: 1200000 2.3359 13.5718 5.7599 0.0000 -10744.2771 1473.1529 0.0000 0.0000 1771.0859 -7478.3707 300.4892 -9249.4566 -7448.6123 303.8519 211.7838 303.5598 30332.8901 -22.4483 35.5242
ENERGY: 1500000 3.2918 11.1258 4.6210 0.0000 -10765.3156 1469.9944 0.0000 0.0000 1743.6118 -7532.6708 295.8278 -9276.2826 -7460.2801 302.9073 -77.7380 38.0376 30391.4551 -76.1920 -12.8631
TCL: Running FEP window  13: Lambda1 0.39999999999999963 Lambda2 0.34999999999999964 [dLambda -0.04999999999999999]
TCL: Setting parameter firsttimestep to 0
TCL: Setting parameter alchLambda to 0.39999999999999963
Info: NONBONDED TABLE R-SQUARED SPACING: 0.0625
Info: NONBONDED TABLE SIZE: 705 POINTS
TCL: Setting parameter alchLambda2 to 0.34999999999999964
Info: NONBONDED TABLE R-SQUARED SPACING: 0.0625
Info: NONBONDED TABLE SIZE: 705 POINTS
TCL: Running for 1500000 steps
ETITLE: TS BOND ANGLE DIHED IMPRP ELECT VDW BOUNDARY MISC KINETIC TOTAL TEMP POTENTIAL TOTALAVG TEMPAVG PRESSURE GPRESSURE VOLUME PRESSAVG GPRESSAVG
ENERGY: 0 3.2918 11.1258 4.6210 0.0000 -10765.3163 1469.9767 0.0000 0.0000 1742.7616 -7533.5394 295.6836 -9276.3010 -7533.5394 295.6836 -52.5429 28.8901 30391.4551 -52.5429 28.8901
ENERGY: 300000 4.0318 11.9507 6.1331 0.0000 -10632.3690 1377.7977 0.0000 0.0000 1747.7116 -7484.7441 296.5234 -9232.4557 -7470.5135 301.4597 -468.0355 -335.2935 30083.3700 -295.8790 -237.5925
ENERGY: 600000 2.5507 9.0467 6.5131 0.0000 -10676.7258 1394.5000 0.0000 0.0000 1783.3779 -7480.7375 302.5747 -9264.1153 -7469.5892 301.9897 -283.2930 -199.9783 30261.4971 -162.1552 -92.1259
ENERGY: 900000 4.5530 9.4354 5.2517 0.0000 -10740.6185 1403.4600 0.0000 0.0000 1754.9220 -7562.9964 297.7468 -9317.9184 -7486.1736 300.5247 -644.5146 -599.1103 30339.8768 -224.9558 -157.7903
ENERGY: 1200000 7.7578 9.4308 4.4570 0.0000 -10617.6691 1391.1556 0.0000 0.0000 1770.4665 -7434.4013 300.3841 -9204.8678 -7470.9502 300.8560 -321.9142 -248.7153 30559.8408 -153.8701 -94.1328
ENERGY: 1500000 1.7958 9.9603 4.2426 0.0000 -10827.0746 1529.8736 0.0000 0.0000 1757.3953 -7523.8070 298.1664 -9281.2023 -7484.1297 299.9264 360.2574 408.9983 30800.6533 -163.6470 -101.0940
TCL: Running FEP window  14: Lambda1 0.34999999999999964 Lambda2 0.29999999999999966 [dLambda -0.04999999999999999]
TCL: Setting parameter firsttimestep to 0
TCL: Setting parameter alchLambda to 0.34999999999999964
Info: NONBONDED TABLE R-SQUARED SPACING: 0.0625
Info: NONBONDED TABLE SIZE: 705 POINTS
TCL: Setting parameter alchLambda2 to 0.29999999999999966
Info: NONBONDED TABLE R-SQUARED SPACING: 0.0625
Info: NONBONDED TABLE SIZE: 705 POINTS
TCL: Running for 1500000 steps
ETITLE: TS BOND ANGLE DIHED IMPRP ELECT VDW BOUNDARY MISC KINETIC TOTAL TEMP POTENTIAL TOTALAVG TEMPAVG PRESSURE GPRESSURE VOLUME PRESSAVG GPRESSAVG
ENERGY: 0 1.7958 9.9603 4.2426 0.0000 -10827.0750 1530.3089 0.0000 0.0000 1756.5072 -7524.2602 298.0157 -9280.7675 -7524.2602 298.0157 316.0619 411.2172 30800.6533 316.0619 411.2172
ENERGY: 300000 4.0723 11.7963 4.8142 0.0000 -10766.2771 1439.3831 0.0000 0.0000 1737.9575 -7568.2537 294.8685 -9306.2112 -7514.0435 296.7313 138.5521 228.1278 29731.3383 -209.2328 -152.1846
ENERGY: 600000 4.4337 17.6541 5.2927 0.0000 -10680.8271 1411.2717 0.0000 0.0000 1739.0067 -7503.1682 295.0465 -9242.1749 -7501.8724 295.9701 -445.6949 -336.9704 30572.7329 -118.4181 -44.5119
ENERGY: 900000 3.4803 20.7176 5.4935 0.0000 -10674.6163 1437.8982 0.0000 0.0000 1812.7359 -7394.2909 307.5557 -9207.0268 -7483.1237 297.0274 -83.2115 9.8898 30385.7831 -124.9113 -50.2606
ENERGY: 1200000 4.6588 11.3203 5.2520 0.0000 -10606.6988 1417.1850 0.0000 0.0000 1751.6781 -7416.6045 297.1964 -9168.2826 -7477.8039 298.3636 -8.6729 38.6513 30577.4374 -23.7645 46.0806
ENERGY: 1500000 1.7223 8.3885 6.4008 0.0000 -10665.4850 1389.6431 0.0000 0.0000 1725.0214 -7534.3089 292.6737 -9259.3303 -7483.5056 299.3615 -318.7924 -290.4118 30168.0963 -80.9383 -15.8671
TCL: Running FEP window  15: Lambda1 0.29999999999999966 Lambda2 0.24999999999999967 [dLambda -0.04999999999999999]
TCL: Setting parameter firsttimestep to 0
TCL: Setting parameter alchLambda to 0.29999999999999966
Info: NONBONDED TABLE R-SQUARED SPACING: 0.0625
Info: NONBONDED TABLE SIZE: 705 POINTS
TCL: Setting parameter alchLambda2 to 0.24999999999999967
Info: NONBONDED TABLE R-SQUARED SPACING: 0.0625
Info: NONBONDED TABLE SIZE: 705 POINTS
TCL: Running for 1500000 steps
ETITLE: TS BOND ANGLE DIHED IMPRP ELECT VDW BOUNDARY MISC KINETIC TOTAL TEMP POTENTIAL TOTALAVG TEMPAVG PRESSURE GPRESSURE VOLUME PRESSAVG GPRESSAVG
ENERGY: 0 1.7223 8.3885 6.4008 0.0000 -10665.4835 1389.9276 0.0000 0.0000 1724.1395 -7534.9048 292.5241 -9259.0443 -7534.9048 292.5241 -368.8076 -295.9104 30168.0963 -368.8076 -295.9104
ENERGY: 300000 3.6789 9.0070 7.1371 0.0000 -10815.2103 1536.7134 0.0000 0.0000 1745.4959 -7513.1779 296.1475 -9258.6739 -7531.2361 295.5357 492.0558 539.8252 30434.5731 250.5962 320.9861
ENERGY: 600000 2.9778 11.5641 6.3785 0.0000 -10609.6862 1409.2195 0.0000 0.0000 1734.6681 -7444.8782 294.3104 -9179.5463 -7509.2833 294.2570 -143.5359 -110.1188 30865.5651 125.1097 185.3791
ENERGY: 900000 2.4121 15.4246 4.5056 0.0000 -10666.7555 1496.1609 0.0000 0.0000 1776.9383 -7371.3139 301.4821 -9148.2522 -7498.8396 296.1780 691.8008 740.8128 30541.1075 211.5076 270.6578
ENERGY: 1200000 2.6859 15.1185 3.6983 0.0000 -10703.8675 1448.7316 0.0000 0.0000 1811.3894 -7422.2438 307.3272 -9233.6332 -7492.9292 298.5103 237.9652 295.2493 29822.2297 303.0956 364.5812
ENERGY: 1500000 5.4525 10.0964 4.1488 0.0000 -10817.0955 1532.9801 0.0000 0.0000 1798.6687 -7465.7489 305.1690 -9264.4177 -7493.1777 298.8405 814.3489 912.7467 29845.4177 360.4950 425.3552
TCL: Running FEP window  16: Lambda1 0.24999999999999967 Lambda2 0.19999999999999968 [dLambda -0.04999999999999999]
TCL: Setting parameter firsttimestep to 0
TCL: Setting parameter alchLambda to 0.24999999999999967
Info: NONBONDED TABLE R-SQUARED SPACING: 0.0625
Info: NONBONDED TABLE SIZE: 705 POINTS
TCL: Setting parameter alchLambda2 to 0.19999999999999968
Info: NONBONDED TABLE R-SQUARED SPACING: 0.0625
Info: NONBONDED TABLE SIZE: 705 POINTS
TCL: Running for 1500000 steps
ETITLE: TS BOND ANGLE DIHED IMPRP ELECT VDW BOUNDARY MISC KINETIC TOTAL TEMP POTENTIAL TOTALAVG TEMPAVG PRESSURE GPRESSURE VOLUME PRESSAVG GPRESSAVG
ENERGY: 0 5.4525 10.0964 4.1488 0.0000 -10817.0954 1533.1179 0.0000 0.0000 1797.7664 -7466.5134 305.0159 -9264.2798 -7466.5134 305.0159 836.7488 904.0683 29845.4177 836.7488 904.0683
ENERGY: 300000 3.0461 14.4739 5.8647 0.0000 -10679.6214 1439.3315 0.0000 0.0000 1787.8253 -7429.0798 303.3293 -9216.9051 -7425.0733 302.9238 316.7416 347.9946 29937.7488 354.1313 376.8250
ENERGY: 600000 2.4054 11.3095 4.0593 0.0000 -10628.8932 1411.8346 0.0000 0.0000 1745.1174 -7454.1670 296.0833 -9199.2843 -7418.3897 302.0112 -6.0236 62.8519 30148.6656 106.7729 137.7262
ENERGY: 900000 5.1945 10.0431 5.7568 0.0000 -10753.5953 1471.9773 0.0000 0.0000 1736.5157 -7524.1078 294.6239 -9260.6236 -7445.6420 300.4588 77.7479 189.6797 30068.8594 190.8285 238.8809
ENERGY: 1200000 4.5062 10.8917 6.2394 0.0000 -10909.2115 1541.1717 0.0000 0.0000 1708.0935 -7638.3090 289.8017 -9346.4025 -7459.3862 299.7058 343.2135 401.3577 30081.5909 101.9422 153.9182
ENERGY: 1500000 2.7926 16.8167 5.5301 0.0000 -10722.1897 1437.8504 0.0000 0.0000 1753.1236 -7506.0763 297.4417 -9259.1999 -7451.6790 300.2906 -238.6503 -92.0699 30349.0702 31.5469 93.0782
TCL: Running FEP window  17: Lambda1 0.19999999999999968 Lambda2 0.1499999999999997 [dLambda -0.04999999999999999]
TCL: Setting parameter firsttimestep to 0
TCL: Setting parameter alchLambda to 0.19999999999999968
Info: NONBONDED TABLE R-SQUARED SPACING: 0.0625
Info: NONBONDED TABLE SIZE: 705 POINTS
TCL: Setting parameter alchLambda2 to 0.1499999999999997
Info: NONBONDED TABLE R-SQUARED SPACING: 0.0625
Info: NONBONDED TABLE SIZE: 705 POINTS
TCL: Running for 1500000 steps
ETITLE: TS BOND ANGLE DIHED IMPRP ELECT VDW BOUNDARY MISC KINETIC TOTAL TEMP POTENTIAL TOTALAVG TEMPAVG PRESSURE GPRESSURE VOLUME PRESSAVG GPRESSAVG
ENERGY: 0 2.7926 16.8167 5.5301 0.0000 -10722.1892 1438.1422 0.0000 0.0000 1752.2110 -7506.6967 297.2868 -9258.9077 -7506.6967 297.2868 -170.6998 -91.4059 30349.0702 -170.6998 -91.4059
ENERGY: 300000 6.0696 8.6310 4.5638 0.0000 -10713.1042 1492.8250 0.0000 0.0000 1762.2823 -7438.7327 298.9955 -9201.0149 -7481.9858 297.7071 725.6554 768.5907 29940.3107 97.2584 185.8622
ENERGY: 600000 7.0360 14.3411 4.0608 0.0000 -10580.6050 1396.8080 0.0000 0.0000 1724.8407 -7433.5184 292.6431 -9158.3591 -7480.1660 297.0547 -172.8830 -129.3113 30102.7053 47.6334 126.7039
ENERGY: 900000 2.0898 15.0553 4.6821 0.0000 -10653.2548 1372.1322 0.0000 0.0000 1773.0998 -7486.1957 300.8309 -9259.2955 -7466.5935 299.7908 -641.1926 -590.3073 30468.6260 41.2479 116.0095
ENERGY: 1200000 2.4038 11.2232 4.9023 0.0000 -10503.0542 1374.2588 0.0000 0.0000 1732.1014 -7378.1647 293.8749 -9110.2661 -7471.7995 298.9620 -276.6880 -191.5154 30424.1547 -71.8793 3.5163
ENERGY: 1500000 2.8355 9.8692 5.0138 0.0000 -10553.6421 1369.7088 0.0000 0.0000 1721.0430 -7445.1718 291.9987 -9166.2148 -7473.5215 298.0527 -368.8613 -297.6108 30253.7746 -123.6230 -49.3188
TCL: Running FEP window  18: Lambda1 0.1499999999999997 Lambda2 0.09999999999999969 [dLambda -0.05 ]
TCL: Setting parameter firsttimestep to 0
TCL: Setting parameter alchLambda to 0.1499999999999997
Info: NONBONDED TABLE R-SQUARED SPACING: 0.0625
Info: NONBONDED TABLE SIZE: 705 POINTS
TCL: Setting parameter alchLambda2 to 0.09999999999999969
Info: NONBONDED TABLE R-SQUARED SPACING: 0.0625
Info: NONBONDED TABLE SIZE: 705 POINTS
TCL: Running for 1500000 steps
ETITLE: TS BOND ANGLE DIHED IMPRP ELECT VDW BOUNDARY MISC KINETIC TOTAL TEMP POTENTIAL TOTALAVG TEMPAVG PRESSURE GPRESSURE VOLUME PRESSAVG GPRESSAVG
ENERGY: 0 2.8355 9.8692 5.0138 0.0000 -10553.6439 1368.8857 0.0000 0.0000 1720.1459 -7446.8938 291.8465 -9167.0398 -7446.8938 291.8465 -380.8221 -307.1183 30253.7746 -380.8221 -307.1183
ENERGY: 300000 3.3988 9.9441 4.0551 0.0000 -10731.3408 1429.8967 0.0000 0.0000 1814.7604 -7469.2857 307.8992 -9284.0462 -7472.3629 297.8233 -175.7541 -140.4359 30364.9597 -40.2620 20.9324
ENERGY: 600000 3.9678 14.4716 4.5143 0.0000 -10737.2603 1489.1762 0.0000 0.0000 1786.1707 -7438.9597 303.0485 -9225.1304 -7476.0090 297.6199 503.8642 573.9633 30214.4908 123.6703 179.3086
ENERGY: 900000 1.4336 10.3967 5.3230 0.0000 -10712.9145 1477.3810 0.0000 0.0000 1754.4279 -7463.9523 297.6629 -9218.3802 -7477.9657 297.7644 236.8602 362.6026 30489.5994 140.5389 198.6653
ENERGY: 1200000 5.4135 13.1869 4.1733 0.0000 -10662.0281 1425.1216 0.0000 0.0000 1759.3399 -7454.7930 298.4963 -9214.1329 -7484.9631 298.3311 49.0936 130.1057 30481.5509 48.9598 110.8992
ENERGY: 1500000 4.8523 9.3802 5.5865 0.0000 -10639.3903 1358.9114 0.0000 0.0000 1723.4527 -7537.2072 292.4076 -9260.6599 -7481.9401 298.3137 -895.4088 -784.0049 30578.6153 -52.4686 12.4361
TCL: Running FEP window  19: Lambda1 0.09999999999999969 Lambda2 0.049999999999999684 [dLambda -0.05 ]
TCL: Setting parameter firsttimestep to 0
TCL: Setting parameter alchLambda to 0.09999999999999969
Info: NONBONDED TABLE R-SQUARED SPACING: 0.0625
Info: NONBONDED TABLE SIZE: 705 POINTS
TCL: Setting parameter alchLambda2 to 0.049999999999999684
Info: NONBONDED TABLE R-SQUARED SPACING: 0.0625
Info: NONBONDED TABLE SIZE: 705 POINTS
TCL: Running for 1500000 steps
ETITLE: TS BOND ANGLE DIHED IMPRP ELECT VDW BOUNDARY MISC KINETIC TOTAL TEMP POTENTIAL TOTALAVG TEMPAVG PRESSURE GPRESSURE VOLUME PRESSAVG GPRESSAVG
ENERGY: 0 4.8523 9.3802 5.5865 0.0000 -10639.3895 1358.8423 0.0000 0.0000 1722.5975 -7538.1306 292.2625 -9260.7282 -7538.1306 292.2625 -875.1841 -785.9353 30578.6153 -875.1841 -785.9353
ENERGY: 300000 3.2204 13.1384 6.0363 0.0000 -10618.1428 1432.3903 0.0000 0.0000 1736.5937 -7426.7636 294.6371 -9163.3573 -7456.5702 298.4336 148.2104 150.2276 30154.7515 -306.6933 -254.8558
ENERGY: 600000 1.9551 11.3466 5.4444 0.0000 -10733.8813 1463.4552 0.0000 0.0000 1781.4721 -7470.2079 302.2514 -9251.6800 -7481.7445 297.8650 277.2818 300.2089 30208.2725 -49.4810 -3.3021
ENERGY: 900000 3.2853 11.3331 4.3732 0.0000 -10589.2690 1393.3658 0.0000 0.0000 1780.6049 -7396.3067 302.1042 -9176.9116 -7455.5089 298.8018 -487.9728 -391.4522 30528.3706 -78.5175 -23.3417
ENERGY: 1200000 3.6672 10.3367 4.3439 0.0000 -10703.8673 1481.1594 0.0000 0.0000 1792.4370 -7411.9232 304.1117 -9204.3601 -7450.2182 299.3371 278.7027 330.4816 30495.6231 -13.9981 44.6223
ENERGY: 1500000 3.4250 13.7115 4.5301 0.0000 -10741.8986 1490.9554 0.0000 0.0000 1784.6233 -7444.6533 302.7860 -9229.2766 -7452.8857 299.5617 408.9239 492.7215 29989.4633 -25.5949 34.4350
TCL: Running FEP window  20: Lambda1 0.049999999999999684 Lambda2 0.0    [dLambda -0.049999999999999684]
TCL: Setting parameter firsttimestep to 0
TCL: Setting parameter alchLambda to 0.049999999999999684
Info: NONBONDED TABLE R-SQUARED SPACING: 0.0625
Info: NONBONDED TABLE SIZE: 705 POINTS
TCL: Setting parameter alchLambda2 to 0.0
Info: NONBONDED TABLE R-SQUARED SPACING: 0.0625
Info: NONBONDED TABLE SIZE: 705 POINTS
TCL: Running for 1500000 steps
ETITLE: TS BOND ANGLE DIHED IMPRP ELECT VDW BOUNDARY MISC KINETIC TOTAL TEMP POTENTIAL TOTALAVG TEMPAVG PRESSURE GPRESSURE VOLUME PRESSAVG GPRESSAVG
ENERGY: 0 3.4250 13.7115 4.5301 0.0000 -10741.8992 1491.0335 0.0000 0.0000 1783.7541 -7445.4450 302.6385 -9229.1990 -7445.4450 302.6385 396.8521 489.3708 29989.4633 396.8521 489.3708
ENERGY: 300000 3.5697 11.6822 6.0162 0.0000 -10667.6564 1377.6824 0.0000 0.0000 1776.8150 -7491.8908 301.4612 -9268.7058 -7435.7011 304.1855 -897.3249 -833.5012 30585.8318 6.8892 74.7833
ENERGY: 600000 2.5902 8.4501 7.6589 0.0000 -10730.7664 1478.7138 0.0000 0.0000 1808.2541 -7425.0992 306.7953 -9233.3533 -7439.8881 302.9119 141.0744 151.1666 30760.7686 -143.9192 -71.8374
ENERGY: 900000 4.2045 11.5762 5.0403 0.0000 -10630.4736 1399.7323 0.0000 0.0000 1808.4389 -7401.4813 306.8267 -9209.9202 -7444.1995 301.0234 -440.7507 -320.1681 30438.2968 -210.9570 -131.2279
ENERGY: 1200000 2.0419 8.7512 4.9606 0.0000 -10821.3262 1540.2086 0.0000 0.0000 1792.7050 -7472.6589 304.1572 -9265.3639 -7459.0368 300.3969 531.3776 543.4714 30808.2088 -158.1624 -83.5824
ENERGY: 1500000 6.1150 8.4332 4.8505 0.0000 -10753.2251 1442.4029 0.0000 0.0000 1804.7117 -7486.7118 306.1943 -9291.4234 -7457.7801 301.0746 -388.8011 -381.8069 30445.2639 -138.5544 -70.7859
TCL: Exiting due to exit command.
