Info: SIMULATION PARAMETERS:
Info: TIMESTEP               2
Info: NUMBER OF STEPS        0
Info: STEPS PER CYCLE        10
Info: PERIODIC CELL BASIS 1  30.9514 0 0
Info: PERIODIC CELL BASIS 2  0 30.3091 0
Info: PERIODIC CELL BASIS 3  0 0 32.3642
Info: PERIODIC CELL CENTER   0 0 0
Info: WRAPPING WATERS AROUND PERIODIC BOUNDARIES ON OUTPUT.
Info: WRAPPING ALL CLUSTERS AROUND PERIODIC BOUNDARIES ON OUTPUT.
Info: FIRST LDB TIMESTEP     50
Info: LAST LDB TIMESTEP     -1
Info: HOM BACKGROUND SCALING 1
Info: PME BACKGROUND SCALING 1
Info: MIN ATOMS PER PATCH    40
Info: EMPTY PATCH LOAD       40 ATOMS
Info: VELOCITY FILE          mobley_7227357_equil.vel
Info: CENTER OF MASS MOVING INITIALLY? NO
Info: DIELECTRIC             1
Info: EXCLUDE                SCALED ONE-FOUR
Info: 1-4 ELECTROSTATICS SCALED BY 0.833333
Info: MODIFIED 1-4 VDW PARAMETERS WILL BE USED
Info: DCD FILENAME           mobley_7227357_prod.dcd
Info: DCD FREQUENCY          100000
Info: DCD FIRST STEP         100000
Info: DCD FILE WILL CONTAIN UNIT CELL DATA
Info: XST FILENAME           mobley_7227357_prod.xst
Info: XST FREQUENCY          100000
Info: NO VELOCITY DCD OUTPUT
Info: NO FORCE DCD OUTPUT
Info: OUTPUT FILENAME        mobley_7227357_prod
Info: BINARY OUTPUT FILES WILL BE USED
Info: RESTART FILENAME       mobley_7227357_prod.restart
Info: RESTART FREQUENCY      100000
Info: BINARY RESTART FILES WILL BE USED
Info: CUTOFF                 9
Info: PAIRLIST DISTANCE      11
Info: PAIRLIST SHRINK RATE   0.01
Info: PAIRLIST GROW RATE     0.01
Info: PAIRLIST TRIGGER       0.3
Info: PAIRLISTS PER CYCLE    2
Info: PAIRLISTS ENABLED
Info: MARGIN                 2
Info: HYDROGEN GROUP CUTOFF  2.5
Info: PATCH DIMENSION        15.5
Info: ENERGY OUTPUT STEPS    100000
Info: ENERGY EVALUATION STEPS    100000
Info: OUTPUT ENERGY PRECISION 4
Info: CROSSTERM ENERGY INCLUDED IN DIHEDRAL
Info: TIMING OUTPUT STEPS    1000000
Info: PRESSURE OUTPUT STEPS  100000
Info: ALCHEMICAL FEP ON
Info: FEP CURRENT LAMBDA VALUE     0
Info: FEP COMPARISON LAMBDA VALUE  0.05
Info: FEP INTRA-ALCHEMICAL NON-BONDED INTERACTIONS WILL BE RETAINED
Info: FEP INTRA-ALCHEMICAL BONDED INTERACTIONS WILL BE RETAINED
Info: FEP VDW SHIFTING COEFFICIENT 5
Info: FEP ELEC. ACTIVE FOR ANNIHILATED PARTICLES BETWEEN LAMBDA = 0 AND LAMBDA = 0.5
Info: FEP ELEC. ACTIVE FOR EXNIHILATED PARTICLES BETWEEN LAMBDA = 0.5 AND LAMBDA = 1
Info: FEP VDW ACTIVE FOR ANNIHILATED PARTICLES BETWEEN LAMBDA = 0 AND LAMBDA = 1
Info: FEP VDW ACTIVE FOR EXNIHILATED PARTICLES BETWEEN LAMBDA = 0 AND LAMBDA = 1
Info: FEP BOND ACTIVE FOR ANNIHILATED PARTICLES BETWEEN LAMBDA = 1 AND LAMBDA = 1
Info: FEP BOND ACTIVE FOR EXNIHILATED PARTICLES BETWEEN LAMBDA = 0 AND LAMBDA = 0
Info: LANGEVIN DYNAMICS ACTIVE
Info: LANGEVIN TEMPERATURE   300
Info: LANGEVIN USING BBK INTEGRATOR
Info: LANGEVIN DAMPING COEFFICIENT IS 1 INVERSE PS
Info: LANGEVIN DYNAMICS APPLIED TO HYDROGENS
Info: LANGEVIN PISTON PRESSURE CONTROL ACTIVE
Info:        TARGET PRESSURE IS 1.01325 BAR
Info:     OSCILLATION PERIOD IS 50 FS
Info:             DECAY TIME IS 25 FS
Info:     PISTON TEMPERATURE IS 300 K
Info:       PRESSURE CONTROL IS GROUP-BASED
Info:    INITIAL STRAIN RATE IS -0.00112856 -0.00112856 -0.00112856
Info:       CELL FLUCTUATION IS ISOTROPIC
Info: PARTICLE MESH EWALD (PME) ACTIVE
Info: PME TOLERANCE               1e-06
Info: PME EWALD COEFFICIENT       0.348832
Info: PME INTERPOLATION ORDER     4
Info: PME GRID DIMENSIONS         32 32 36
Info: PME MAXIMUM GRID SPACING    1
Info: PME CALCULATION WILL BE PERFORMED ON GPU
Info: FULL ELECTROSTATIC EVALUATION FREQUENCY      2
Info: USING VERLET I (r-RESPA) MTS SCHEME.
Info: C1 SPLITTING OF LONG RANGE ELECTROSTATICS
Info: PLACING ATOMS IN PATCHES BY HYDROGEN GROUPS
Info: RIGID BONDS TO HYDROGEN : ALL
Info:         ERROR TOLERANCE : 1e-08
Info:          MAX ITERATIONS : 100
Info: RIGID WATER USING SETTLE ALGORITHM
Info: RANDOM NUMBER SEED     1743863403
Info: USE HYDROGEN BONDS?    NO
Info: Using AMBER format force field!
Info: AMBER PARM FILE        mobley_7227357.prmtop
Info: COORDINATE PDB         mobley_7227357.pdb
Info: Exclusions will be read from PARM file!
Info: SCNB (VDW SCALING)     2
Info: USING ARITHMETIC MEAN TO COMBINE L-J SIGMA PARAMETERS
Info: BINARY COORDINATES     mobley_7227357_equil.coor
Info: SUMMARY OF PARAMETERS:
Info: 7 BONDS
Info: 7 ANGLES
Info:   7 HARMONIC
Info:   0 COSINE-BASED
Info: 9 DIHEDRAL
Info: 0 IMPROPER
Info: 0 CROSSTERM
Info: 0 VDW
Info: 21 VDW_PAIRS
Info: 0 NBTHOLE_PAIRS
Info: To read alchdata from file: mobley_7227357.pdb
Info: To read alchflag data from column: 5
Info: STRUCTURE SUMMARY:
Info: 2970 ATOMS
Info: 2969 BONDS
Info: 31 ANGLES
Info: 49 DIHEDRALS
Info: 0 IMPROPERS
Info: 0 CROSSTERMS
Info: 3039 EXCLUSIONS
Info: 2964 RIGID BONDS
Info: ALCH: 0 ATOMS TO DISAPPEAR IN FINAL STATE
Info: ALCH: 18 ATOMS TO APPEAR IN FINAL STATE
Info: 5946 DEGREES OF FREEDOM
Info: 990 HYDROGEN GROUPS
Info: 4 ATOMS IN LARGEST HYDROGEN GROUP
Info: 990 MIGRATION GROUPS
Info: 4 ATOMS IN LARGEST MIGRATION GROUP
Info: TOTAL MASS = 17815.9 amu
Info: TOTAL CHARGE = 0.000399984 e
Info: MASS DENSITY = 0.974425 g/cm^3
Info: ATOM DENSITY = 0.0978224 atoms/A^3
Info: ADDED 0 IMPLICIT EXCLUSIONS
Info: NONBONDED TABLE R-SQUARED SPACING: 0.0625
Info: NONBONDED TABLE SIZE: 705 POINTS
Info: REMOVING COM VELOCITY 0.144586 -0.0744361 0.0139899
Info: Use 3D box decompostion in PME FFT.
Info: Updated CUDA force table with 4096 elements.
Info: Updated CUDA LJ table with 6 x 6 elements.
Info: Found 21 unique exclusion lists needing 56 bytes
TCL: Running for 1500000 steps
ETITLE: TS BOND ANGLE DIHED IMPRP ELECT VDW BOUNDARY MISC KINETIC TOTAL TEMP POTENTIAL TOTALAVG TEMPAVG PRESSURE GPRESSURE VOLUME PRESSAVG GPRESSAVG
ENERGY: 0 1.8643 7.7700 4.2242 0.0000 -10754.4823 1488.2266 0.0000 0.0000 1761.5691 -7490.8281 298.1708 -9252.3972 -7490.8281 298.1708 432.2118 530.8212 30361.1447 432.2118 530.8212
ENERGY: 300000 0.8080 8.2026 3.6536 0.0000 -10822.3744 1520.9063 0.0000 0.0000 1779.3715 -7509.4323 301.1841 -9288.8038 -7501.1131 296.8526 624.3074 698.7547 30060.8111 286.4221 352.0777
ENERGY: 600000 2.5917 12.8557 3.2152 0.0000 -10628.3729 1348.8609 0.0000 0.0000 1768.4114 -7492.4380 299.3290 -9260.8494 -7472.1382 301.0776 -666.3901 -600.5655 30648.9689 33.9721 94.5538
ENERGY: 900000 2.7802 8.5184 4.6134 0.0000 -10693.2396 1438.3975 0.0000 0.0000 1866.0697 -7372.8604 315.8591 -9238.9301 -7479.5619 301.6395 62.3180 146.8904 30392.1086 77.2764 138.9882
ENERGY: 1200000 2.5381 15.6288 3.5028 0.0000 -10812.5416 1551.7406 0.0000 0.0000 1797.4524 -7441.6789 304.2446 -9239.1313 -7483.5355 301.3678 981.4915 1067.4666 30266.3252 67.1442 130.2889
ENERGY: 1500000 1.4496 11.3568 5.2029 0.0000 -10749.5246 1414.7498 0.0000 0.0000 1796.1799 -7520.5855 304.0292 -9316.7654 -7492.8963 301.0372 -260.7074 -154.0301 30052.0616 67.4712 136.7814
TCL: Running FEP window   2: Lambda1 0.05   Lambda2 0.1    [dLambda 0.05  ]
TCL: Setting parameter firsttimestep to 0
TCL: Setting parameter alchLambda to 0.05
Info: NONBONDED TABLE R-SQUARED SPACING: 0.0625
Info: NONBONDED TABLE SIZE: 705 POINTS
TCL: Setting parameter alchLambda2 to 0.1
Info: NONBONDED TABLE R-SQUARED SPACING: 0.0625
Info: NONBONDED TABLE SIZE: 705 POINTS
TCL: Running for 1500000 steps
ETITLE: TS BOND ANGLE DIHED IMPRP ELECT VDW BOUNDARY MISC KINETIC TOTAL TEMP POTENTIAL TOTALAVG TEMPAVG PRESSURE GPRESSURE VOLUME PRESSAVG GPRESSAVG
ENERGY: 0 1.4496 11.3568 5.2029 0.0000 -10749.5235 1417.4802 0.0000 0.0000 1795.3224 -7518.7115 303.8841 -9314.0339 -7518.7115 303.8841 -244.1395 -151.6564 30052.0616 -244.1395 -151.6564
ENERGY: 300000 1.9915 12.0236 4.5403 0.0000 -10782.8687 1488.1951 0.0000 0.0000 1727.5532 -7548.5649 292.4132 -9276.1181 -7521.4122 298.3572 70.8779 161.3673 30720.8176 41.6921 91.2279
ENERGY: 600000 1.9413 5.6008 3.1386 0.0000 -10639.5921 1374.2865 0.0000 0.0000 1781.3720 -7473.2529 301.5228 -9254.6250 -7497.1209 299.9876 -431.6867 -406.7204 30404.0606 -230.2235 -182.6555
ENERGY: 900000 1.5083 5.5407 3.4280 0.0000 -10832.9910 1501.2055 0.0000 0.0000 1797.3612 -7523.9473 304.2292 -9321.3084 -7494.4738 300.4279 307.1748 324.9089 30431.0205 -306.8366 -261.1925
ENERGY: 1200000 0.4655 9.1079 2.7066 0.0000 -10806.7389 1521.9703 0.0000 0.0000 1813.8680 -7458.6208 307.0232 -9272.4888 -7496.7640 299.9832 717.0499 728.5484 30295.1941 -174.0314 -129.6368
ENERGY: 1500000 3.5588 3.7219 4.5492 0.0000 -10631.5682 1365.0717 0.0000 0.0000 1803.0609 -7451.6057 305.1939 -9254.6666 -7498.7740 300.1967 -684.9340 -622.4587 30541.6314 -229.3926 -177.9836
TCL: Running FEP window   3: Lambda1 0.1    Lambda2 0.15000000000000002 [dLambda 0.05000000000000002]
TCL: Setting parameter firsttimestep to 0
TCL: Setting parameter alchLambda to 0.1
Info: NONBONDED TABLE R-SQUARED SPACING: 0.0625
Info: NONBONDED TABLE SIZE: 705 POINTS
TCL: Setting parameter alchLambda2 to 0.15000000000000002
Info: NONBONDED TABLE R-SQUARED SPACING: 0.0625
Info: NONBONDED TABLE SIZE: 705 POINTS
TCL: Running for 1500000 steps
ETITLE: TS BOND ANGLE DIHED IMPRP ELECT VDW BOUNDARY MISC KINETIC TOTAL TEMP POTENTIAL TOTALAVG TEMPAVG PRESSURE GPRESSURE VOLUME PRESSAVG GPRESSAVG
ENERGY: 0 3.5588 3.7219 4.5492 0.0000 -10631.5682 1367.8700 0.0000 0.0000 1802.1195 -7449.7489 305.0346 -9251.8684 -7449.7489 305.0346 -698.5748 -610.5429 30541.6314 -698.5748 -610.5429
ENERGY: 300000 1.4058 8.5234 3.5198 0.0000 -10673.5687 1342.7758 0.0000 0.0000 1824.8813 -7492.4626 308.8873 -9317.3439 -7476.1960 306.7247 -907.3761 -875.2749 30419.3452 -133.7060 -72.9138
ENERGY: 600000 0.5742 9.4283 2.8339 0.0000 -10741.8591 1475.9363 0.0000 0.0000 1762.9232 -7490.1632 298.4000 -9253.0864 -7486.8331 302.6257 398.6256 469.1061 30234.6244 -65.0922 -4.9488
ENERGY: 900000 2.2450 7.4677 2.8466 0.0000 -10781.9291 1511.5019 0.0000 0.0000 1792.4914 -7465.3765 303.4049 -9257.8679 -7474.8475 304.1555 726.7435 769.8697 30204.0635 -66.5911 -2.4837
ENERGY: 1200000 1.1918 12.5983 3.1939 0.0000 -10601.0779 1396.0438 0.0000 0.0000 1807.5253 -7380.5246 305.9496 -9188.0499 -7483.2515 302.7631 -389.3189 -328.6996 30934.6853 2.5102 70.1330
ENERGY: 1500000 1.2032 7.5493 3.0664 0.0000 -10848.9905 1492.6890 0.0000 0.0000 1788.9657 -7555.5170 302.8081 -9344.4827 -7497.1583 302.3471 116.6546 165.0815 30441.8975 -28.9080 33.2665
TCL: Running FEP window   4: Lambda1 0.15000000000000002 Lambda2 0.2    [dLambda 0.04999999999999999]
TCL: Setting parameter firsttimestep to 0
TCL: Setting parameter alchLambda to 0.15000000000000002
Info: NONBONDED TABLE R-SQUARED SPACING: 0.0625
Info: NONBONDED TABLE SIZE: 705 POINTS
TCL: Setting parameter alchLambda2 to 0.2
Info: NONBONDED TABLE R-SQUARED SPACING: 0.0625
Info: NONBONDED TABLE SIZE: 705 POINTS
TCL: Running for 1500000 steps
ETITLE: TS BOND ANGLE DIHED IMPRP ELECT VDW BOUNDARY MISC KINETIC TOTAL TEMP POTENTIAL TOTALAVG TEMPAVG PRESSURE GPRESSURE VOLUME PRESSAVG GPRESSAVG
ENERGY: 0 1.2032 7.5493 3.0664 0.0000 -10848.9890 1497.3019 0.0000 0.0000 1788.0873 -7551.7809 302.6594 -9339.8682 -7551.7809 302.6594 101.9257 183.9747 30441.8975 101.9257 183.9747
ENERGY: 300000 0.7640 7.2824 3.4672 0.0000 -10690.9665 1465.8334 0.0000 0.0000 1769.5224 -7444.0970 299.5171 -9213.6194 -7521.7204 300.4468 384.5648 432.9560 30415.3927 346.0503 413.2612
ENERGY: 600000 2.9443 11.9058 4.2103 0.0000 -10670.3570 1408.8154 0.0000 0.0000 1772.1823 -7470.2987 299.9673 -9242.4810 -7511.7920 301.3494 -433.3263 -370.1047 30725.1445 147.0964 215.2590
ENERGY: 900000 0.8363 7.6948 3.7736 0.0000 -10710.2297 1379.6722 0.0000 0.0000 1798.4465 -7519.8063 304.4129 -9318.2528 -7510.0336 301.8328 -299.7461 -256.7365 30044.3799 -1.7692 64.3994
ENERGY: 1200000 0.3862 9.0338 2.4539 0.0000 -10829.5201 1501.0897 0.0000 0.0000 1829.6427 -7486.9137 309.6933 -9316.5564 -7520.8263 302.0244 309.5717 399.1674 30491.3318 15.2580 79.1210
ENERGY: 1500000 1.8773 7.9257 4.2993 0.0000 -10758.8760 1449.0439 0.0000 0.0000 1744.8998 -7550.8301 295.3493 -9295.7299 -7522.1536 302.2912 29.5890 54.7191 30204.8356 21.0036 73.7429
TCL: Running FEP window   5: Lambda1 0.2    Lambda2 0.25   [dLambda 0.04999999999999999]
TCL: Setting parameter firsttimestep to 0
TCL: Setting parameter alchLambda to 0.2
Info: NONBONDED TABLE R-SQUARED SPACING: 0.0625
Info: NONBONDED TABLE SIZE: 705 POINTS
TCL: Setting parameter alchLambda2 to 0.25
Info: NONBONDED TABLE R-SQUARED SPACING: 0.0625
Info: NONBONDED TABLE SIZE: 705 POINTS
TCL: Running for 1500000 steps
ETITLE: TS BOND ANGLE DIHED IMPRP ELECT VDW BOUNDARY MISC KINETIC TOTAL TEMP POTENTIAL TOTALAVG TEMPAVG PRESSURE GPRESSURE VOLUME PRESSAVG GPRESSAVG
ENERGY: 0 1.8773 7.9257 4.2993 0.0000 -10758.8773 1449.8720 0.0000 0.0000 1744.0252 -7550.8779 295.2013 -9294.9030 -7550.8779 295.2013 -25.6963 59.9724 30204.8356 -25.6963 59.9724
ENERGY: 300000 1.4172 11.3980 2.1560 0.0000 -10618.9413 1391.5202 0.0000 0.0000 1753.2648 -7459.1852 296.7652 -9212.4500 -7505.3606 298.0667 -89.6538 25.8616 30063.8012 69.0118 142.7867
ENERGY: 600000 2.2262 5.6395 3.2494 0.0000 -10693.9369 1400.8058 0.0000 0.0000 1766.7235 -7515.2925 299.0433 -9282.0159 -7540.0173 297.9908 -175.9846 -98.1545 29931.4760 -37.2290 38.9915
ENERGY: 900000 1.9266 6.1342 4.4346 0.0000 -10684.1637 1422.6166 0.0000 0.0000 1780.6371 -7468.4145 301.3984 -9249.0516 -7517.1792 299.4090 -15.1804 5.5407 30393.4844 42.9930 115.3240
ENERGY: 1200000 1.7877 8.3177 3.9189 0.0000 -10826.8730 1463.8990 0.0000 0.0000 1720.6665 -7628.2833 291.2475 -9348.9498 -7525.6447 298.6307 -245.2761 -263.2321 30814.9064 -82.4382 -13.6806
ENERGY: 1500000 1.4028 9.1305 5.5475 0.0000 -10801.8773 1458.9173 0.0000 0.0000 1703.5888 -7623.2904 288.3568 -9326.8792 -7533.4426 297.6220 -31.9665 39.4065 30336.5841 -41.8107 24.9735
TCL: Running FEP window   6: Lambda1 0.25   Lambda2 0.3    [dLambda 0.04999999999999999]
TCL: Setting parameter firsttimestep to 0
TCL: Setting parameter alchLambda to 0.25
Info: NONBONDED TABLE R-SQUARED SPACING: 0.0625
Info: NONBONDED TABLE SIZE: 705 POINTS
TCL: Setting parameter alchLambda2 to 0.3
Info: NONBONDED TABLE R-SQUARED SPACING: 0.0625
Info: NONBONDED TABLE SIZE: 705 POINTS
TCL: Running for 1500000 steps
ETITLE: TS BOND ANGLE DIHED IMPRP ELECT VDW BOUNDARY MISC KINETIC TOTAL TEMP POTENTIAL TOTALAVG TEMPAVG PRESSURE GPRESSURE VOLUME PRESSAVG GPRESSAVG
ENERGY: 0 1.4028 9.1305 5.5475 0.0000 -10801.8764 1459.6206 0.0000 0.0000 1702.6881 -7623.4869 288.2044 -9326.1750 -7623.4869 288.2044 -14.9308 49.2947 30336.5841 -14.9308 49.2947
ENERGY: 300000 1.1170 9.3020 4.3942 0.0000 -10776.4244 1470.0576 0.0000 0.0000 1768.8976 -7522.6561 299.4113 -9291.5537 -7518.3108 296.4211 -84.7866 7.4071 30760.4726 -116.4670 -41.2527
ENERGY: 600000 1.6349 6.7312 5.5018 0.0000 -10766.7114 1447.6493 0.0000 0.0000 1806.5033 -7498.6909 305.7766 -9305.1943 -7519.5981 298.3857 -237.6792 -219.6113 30944.5321 102.1010 168.5324
ENERGY: 900000 0.6470 11.2050 3.6401 0.0000 -10757.2517 1455.8213 0.0000 0.0000 1737.9468 -7547.9915 294.1724 -9285.9383 -7505.9037 298.5134 31.1168 134.6490 30599.1695 34.9750 102.4888
ENERGY: 1200000 1.5058 5.9820 3.4323 0.0000 -10555.9601 1367.2754 0.0000 0.0000 1726.3220 -7451.4427 292.2048 -9177.7647 -7496.0098 299.5231 -636.3625 -540.9502 31015.0774 -11.6721 63.3816
ENERGY: 1500000 1.4416 7.4150 3.0116 0.0000 -10829.9293 1469.6197 0.0000 0.0000 1781.0574 -7567.3840 301.4695 -9348.4413 -7505.0492 299.4284 276.0753 336.3279 29897.4813 53.3990 130.7275
TCL: Running FEP window   7: Lambda1 0.3    Lambda2 0.35   [dLambda 0.04999999999999999]
TCL: Setting parameter firsttimestep to 0
TCL: Setting parameter alchLambda to 0.3
Info: NONBONDED TABLE R-SQUARED SPACING: 0.0625
Info: NONBONDED TABLE SIZE: 705 POINTS
TCL: Setting parameter alchLambda2 to 0.35
Info: NONBONDED TABLE R-SQUARED SPACING: 0.0625
Info: NONBONDED TABLE SIZE: 705 POINTS
TCL: Running for 1500000 steps
ETITLE: TS BOND ANGLE DIHED IMPRP ELECT VDW BOUNDARY MISC KINETIC TOTAL TEMP POTENTIAL TOTALAVG TEMPAVG PRESSURE GPRESSURE VOLUME PRESSAVG GPRESSAVG
ENERGY: 0 1.4416 7.4150 3.0116 0.0000 -10829.9303 1469.3304 0.0000 0.0000 1780.2033 -7568.5284 301.3249 -9348.7317 -7568.5284 301.3249 246.9069 338.8018 29897.4813 246.9069 338.8018
ENERGY: 300000 1.3559 9.6913 4.3216 0.0000 -10536.2660 1276.0650 0.0000 0.0000 1788.8626 -7455.9696 302.7907 -9244.8322 -7512.2123 303.3316 -1111.0787 -1106.8783 30604.9967 -312.5419 -241.2037
ENERGY: 600000 0.8231 8.1124 3.2731 0.0000 -10638.0230 1426.4923 0.0000 0.0000 1787.9423 -7411.3798 302.6349 -9199.3221 -7514.6794 301.5749 2.4830 90.2852 30703.0432 -369.6580 -283.1965
ENERGY: 900000 0.4242 10.5727 6.2260 0.0000 -10718.4518 1345.0947 0.0000 0.0000 1778.6231 -7577.5112 301.0575 -9356.1343 -7527.8266 300.9392 -1031.7593 -946.5010 30635.8168 -354.2624 -274.0184
ENERGY: 1200000 0.5154 9.4103 3.9254 0.0000 -10767.6092 1467.5922 0.0000 0.0000 1757.5840 -7528.5819 297.4963 -9286.1659 -7525.5318 299.6789 321.2426 384.6684 30195.4139 -285.6213 -208.3600
ENERGY: 1500000 2.4625 10.2270 3.9042 0.0000 -10821.7182 1520.8901 0.0000 0.0000 1715.2033 -7569.0311 290.3228 -9284.2344 -7530.6928 299.2776 538.7865 595.5161 30326.1949 -225.0364 -152.8006
TCL: Running FEP window   8: Lambda1 0.35   Lambda2 0.39999999999999997 [dLambda 0.04999999999999999]
TCL: Setting parameter firsttimestep to 0
TCL: Setting parameter alchLambda to 0.35
Info: NONBONDED TABLE R-SQUARED SPACING: 0.0625
Info: NONBONDED TABLE SIZE: 705 POINTS
TCL: Setting parameter alchLambda2 to 0.39999999999999997
Info: NONBONDED TABLE R-SQUARED SPACING: 0.0625
Info: NONBONDED TABLE SIZE: 705 POINTS
TCL: Running for 1500000 steps
ETITLE: TS BOND ANGLE DIHED IMPRP ELECT VDW BOUNDARY MISC KINETIC TOTAL TEMP POTENTIAL TOTALAVG TEMPAVG PRESSURE GPRESSURE VOLUME PRESSAVG GPRESSAVG
ENERGY: 0 2.4625 10.2270 3.9042 0.0000 -10821.7195 1521.3993 0.0000 0.0000 1714.2816 -7569.4449 290.1667 -9283.7264 -7569.4449 290.1667 524.8037 605.7196 30326.1949 524.8037 605.7196
ENERGY: 300000 0.2774 7.9583 3.9240 0.0000 -10638.7873 1467.2226 0.0000 0.0000 1738.5127 -7420.8923 294.2682 -9159.4050 -7485.5016 295.9405 521.0384 601.5311 30309.9122 358.9859 426.7680
ENERGY: 600000 1.8951 9.5388 3.8741 0.0000 -10664.9550 1379.2338 0.0000 0.0000 1812.2049 -7458.2082 306.7417 -9270.4131 -7474.0575 299.2119 -315.8123 -281.3261 30354.1522 202.0646 261.3458
ENERGY: 900000 0.6657 7.6757 3.8885 0.0000 -10740.6277 1443.6708 0.0000 0.0000 1747.8139 -7536.9131 295.8426 -9284.7270 -7499.1031 299.1182 -206.7118 -158.3514 30864.0027 130.0936 197.0974
ENERGY: 1200000 1.4829 7.4548 3.1753 0.0000 -10727.7511 1447.7640 0.0000 0.0000 1768.2689 -7499.6052 299.3049 -9267.8741 -7509.2741 299.4435 268.7435 334.0983 30088.5325 154.1443 225.2241
ENERGY: 1500000 0.3536 7.3526 3.5472 0.0000 -10661.7997 1361.9635 0.0000 0.0000 1793.0505 -7495.5324 303.4995 -9288.5829 -7513.6025 299.1179 -767.9375 -697.1566 30846.0323 125.0483 194.4276
TCL: Running FEP window   9: Lambda1 0.39999999999999997 Lambda2 0.44999999999999996 [dLambda 0.04999999999999999]
TCL: Setting parameter firsttimestep to 0
TCL: Setting parameter alchLambda to 0.39999999999999997
Info: NONBONDED TABLE R-SQUARED SPACING: 0.0625
Info: NONBONDED TABLE SIZE: 705 POINTS
TCL: Setting parameter alchLambda2 to 0.44999999999999996
Info: NONBONDED TABLE R-SQUARED SPACING: 0.0625
Info: NONBONDED TABLE SIZE: 705 POINTS
TCL: Running for 1500000 steps
ETITLE: TS BOND ANGLE DIHED IMPRP ELECT VDW BOUNDARY MISC KINETIC TOTAL TEMP POTENTIAL TOTALAVG TEMPAVG PRESSURE GPRESSURE VOLUME PRESSAVG GPRESSAVG
ENERGY: 0 0.3536 7.3526 3.5472 0.0000 -10661.8024 1363.0278 0.0000 0.0000 1792.1793 -7495.3419 303.3521 -9287.5213 -7495.3419 303.3521 -772.8914 -684.0199 30846.0323 -772.8914 -684.0199
ENERGY: 300000 1.1527 11.4468 3.4698 0.0000 -10881.7982 1478.0481 0.0000 0.0000 1785.6772 -7602.0037 302.2515 -9387.6809 -7544.3678 300.1159 173.4466 218.1749 30278.3111 -53.2993 -0.0552
ENERGY: 600000 1.4339 6.9965 3.1797 0.0000 -10731.0669 1451.3814 0.0000 0.0000 1789.8435 -7478.2321 302.9567 -9268.0755 -7528.0072 298.3548 364.4627 427.4641 30376.2624 10.1461 64.0415
ENERGY: 900000 1.3347 9.3791 4.5075 0.0000 -10609.8861 1392.5326 0.0000 0.0000 1773.9184 -7428.2137 300.2611 -9202.1321 -7524.6871 298.8320 -293.6558 -234.6489 30720.0773 26.4001 87.3123
ENERGY: 1200000 2.1394 8.6421 3.5269 0.0000 -10878.4323 1545.6880 0.0000 0.0000 1784.3214 -7534.1145 302.0220 -9318.4358 -7527.8384 298.9913 846.1418 916.8976 30340.0698 -7.4110 52.5564
ENERGY: 1500000 5.3455 6.2388 3.4956 0.0000 -10709.1161 1386.4011 0.0000 0.0000 1817.7178 -7489.9174 307.6748 -9307.6352 -7526.6830 299.8208 -638.5494 -570.4581 30395.6409 -35.7241 17.5584
TCL: Running FEP window  10: Lambda1 0.44999999999999996 Lambda2 0.49999999999999994 [dLambda 0.04999999999999999]
TCL: Setting parameter firsttimestep to 0
TCL: Setting parameter alchLambda to 0.44999999999999996
Info: NONBONDED TABLE R-SQUARED SPACING: 0.0625
Info: NONBONDED TABLE SIZE: 705 POINTS
TCL: Setting parameter alchLambda2 to 0.49999999999999994
Info: NONBONDED TABLE R-SQUARED SPACING: 0.0625
Info: NONBONDED TABLE SIZE: 705 POINTS
TCL: Running for 1500000 steps
ETITLE: TS BOND ANGLE DIHED IMPRP ELECT VDW BOUNDARY MISC KINETIC TOTAL TEMP POTENTIAL TOTALAVG TEMPAVG PRESSURE GPRESSURE VOLUME PRESSAVG GPRESSAVG
ENERGY: 0 5.3455 6.2388 3.4956 0.0000 -10709.1157 1386.9257 0.0000 0.0000 1816.8410 -7490.2692 307.5264 -9307.1102 -7490.2692 307.5264 -628.3178 -558.2169 30395.6409 -628.3178 -558.2169
ENERGY: 300000 1.0799 15.1685 4.6990 0.0000 -10749.9008 1445.2330 0.0000 0.0000 1788.3130 -7495.4073 302.6976 -9283.7204 -7473.4264 305.7418 2.4543 90.0431 30315.6013 -261.3203 -187.0103
ENERGY: 600000 2.9131 8.0495 5.6744 0.0000 -10632.7657 1321.8222 0.0000 0.0000 1753.2307 -7541.0758 296.7594 -9294.3064 -7487.6594 303.8158 -1082.0945 -960.3873 30672.8240 -270.7167 -178.3413
ENERGY: 900000 2.0280 6.7173 3.3262 0.0000 -10720.5796 1433.3302 0.0000 0.0000 1759.5023 -7515.6756 297.8210 -9275.1779 -7494.3434 300.1955 139.4531 139.1617 30188.4053 -283.1813 -206.3607
ENERGY: 1200000 0.5292 9.5583 4.4646 0.0000 -10863.9213 1500.2781 0.0000 0.0000 1723.5250 -7625.5663 291.7313 -9349.0912 -7513.3307 299.9259 100.5713 132.3490 30572.4490 -256.7105 -187.0509
ENERGY: 1500000 2.6258 5.0193 2.5981 0.0000 -10840.2979 1501.5469 0.0000 0.0000 1804.0452 -7524.4625 305.3605 -9328.5077 -7508.5079 300.2799 267.9230 391.7499 30256.0054 -222.0274 -147.3903
TCL: Running FEP window  11: Lambda1 0.49999999999999994 Lambda2 0.5499999999999999 [dLambda 0.04999999999999999]
TCL: Setting parameter firsttimestep to 0
TCL: Setting parameter alchLambda to 0.49999999999999994
Info: NONBONDED TABLE R-SQUARED SPACING: 0.0625
Info: NONBONDED TABLE SIZE: 705 POINTS
TCL: Setting parameter alchLambda2 to 0.5499999999999999
Info: NONBONDED TABLE R-SQUARED SPACING: 0.0625
Info: NONBONDED TABLE SIZE: 705 POINTS
TCL: Running for 1500000 steps
ETITLE: TS BOND ANGLE DIHED IMPRP ELECT VDW BOUNDARY MISC KINETIC TOTAL TEMP POTENTIAL TOTALAVG TEMPAVG PRESSURE GPRESSURE VOLUME PRESSAVG GPRESSAVG
ENERGY: 0 2.6258 5.0193 2.5981 0.0000 -10840.2973 1502.0503 0.0000 0.0000 1803.1696 -7524.8343 305.2123 -9328.0038 -7524.8343 305.2123 314.5564 402.6737 30256.0054 314.5564 402.6737
ENERGY: 300000 0.9720 11.2985 3.7979 0.0000 -10818.3067 1531.8258 0.0000 0.0000 1735.6928 -7534.7197 293.7909 -9270.4125 -7497.7747 301.6484 542.2883 595.7756 30846.2966 95.8230 167.6465
ENERGY: 600000 1.3911 7.6154 2.5918 0.0000 -10767.4735 1469.0235 0.0000 0.0000 1778.2985 -7508.5533 301.0025 -9286.8518 -7507.0911 299.8531 437.7095 508.3092 30157.5217 69.0273 143.5518
ENERGY: 900000 2.4375 9.7120 3.7752 0.0000 -10728.6130 1447.6937 0.0000 0.0000 1786.5019 -7478.4926 302.3911 -9264.9946 -7516.2904 300.6964 160.9426 246.7420 30229.7686 143.2919 211.1894
ENERGY: 1200000 2.8314 5.4088 3.0574 0.0000 -10705.7148 1422.1426 0.0000 0.0000 1752.2202 -7520.0543 296.5884 -9272.2745 -7520.2072 300.6227 -94.4498 -35.9844 30125.9283 99.9621 170.4279
ENERGY: 1500000 2.9546 9.1031 3.2743 0.0000 -10872.2538 1466.9721 0.0000 0.0000 1749.1080 -7640.8417 296.0616 -9389.9497 -7528.5355 300.1970 -181.1926 -111.2147 30100.6521 32.7471 102.8332
TCL: Running FEP window  12: Lambda1 0.5499999999999999 Lambda2 0.6    [dLambda 0.050000000000000044]
TCL: Setting parameter firsttimestep to 0
TCL: Setting parameter alchLambda to 0.5499999999999999
Info: NONBONDED TABLE R-SQUARED SPACING: 0.0625
Info: NONBONDED TABLE SIZE: 705 POINTS
TCL: Setting parameter alchLambda2 to 0.6
Info: NONBONDED TABLE R-SQUARED SPACING: 0.0625
Info: NONBONDED TABLE SIZE: 705 POINTS
TCL: Running for 1500000 steps
ETITLE: TS BOND ANGLE DIHED IMPRP ELECT VDW BOUNDARY MISC KINETIC TOTAL TEMP POTENTIAL TOTALAVG TEMPAVG PRESSURE GPRESSURE VOLUME PRESSAVG GPRESSAVG
ENERGY: 0 2.9546 9.1031 3.2743 0.0000 -10872.5177 1467.4688 0.0000 0.0000 1748.2117 -7641.5052 295.9099 -9389.7168 -7641.5052 295.9099 -176.7658 -100.8083 30100.6521 -176.7658 -100.8083
ENERGY: 300000 0.8210 7.3368 3.1863 0.0000 -10630.0320 1377.7871 0.0000 0.0000 1743.7827 -7497.1181 295.1602 -9240.9008 -7541.8997 292.1892 -381.0478 -352.5217 30488.0110 -241.2969 -185.9698
ENERGY: 600000 1.5445 11.6561 3.7853 0.0000 -10767.1931 1420.8098 0.0000 0.0000 1764.1692 -7565.2281 298.6109 -9329.3973 -7526.2361 296.6838 -387.7943 -316.0641 30632.1867 -134.1850 -80.4170
ENERGY: 900000 3.2750 7.5822 3.2861 0.0000 -10820.1300 1482.3060 0.0000 0.0000 1751.3806 -7572.3001 296.4463 -9323.6806 -7529.9844 297.9592 10.1566 89.4198 30674.9186 -250.2808 -185.5844
ENERGY: 1200000 4.3581 4.0637 3.9790 0.0000 -10696.8718 1410.5852 0.0000 0.0000 1786.4015 -7487.4842 302.3741 -9273.8858 -7524.0724 298.6018 -294.3973 -171.3208 30580.6030 -263.6511 -193.5816
ENERGY: 1500000 0.9083 9.7858 3.2009 0.0000 -10874.2339 1466.8638 0.0000 0.0000 1773.6752 -7619.8001 300.2200 -9393.4753 -7523.5428 299.0647 -147.8477 -92.2884 30580.4119 -216.2727 -149.7406
TCL: Running FEP window  13: Lambda1 0.6    Lambda2 0.65   [dLambda 0.050000000000000044]
TCL: Setting parameter firsttimestep to 0
TCL: Setting parameter alchLambda to 0.6
Info: NONBONDED TABLE R-SQUARED SPACING: 0.0625
Info: NONBONDED TABLE SIZE: 705 POINTS
TCL: Setting parameter alchLambda2 to 0.65
Info: NONBONDED TABLE R-SQUARED SPACING: 0.0625
Info: NONBONDED TABLE SIZE: 705 POINTS
TCL: Running for 1500000 steps
ETITLE: TS BOND ANGLE DIHED IMPRP ELECT VDW BOUNDARY MISC KINETIC TOTAL TEMP POTENTIAL TOTALAVG TEMPAVG PRESSURE GPRESSURE VOLUME PRESSAVG GPRESSAVG
ENERGY: 0 0.9083 9.7858 3.2009 0.0000 -10873.8600 1467.1682 0.0000 0.0000 1772.7983 -7619.9986 300.0715 -9392.7969 -7619.9986 300.0715 -159.6074 -80.1103 30580.4119 -159.6074 -80.1103
ENERGY: 300000 1.9866 7.6573 3.2050 0.0000 -10740.6066 1441.8897 0.0000 0.0000 1754.9619 -7530.9060 297.0525 -9285.8679 -7513.1555 302.8650 -69.2996 -40.8981 30548.1228 -69.3898 -12.6009
ENERGY: 600000 1.2803 14.2615 3.2407 0.0000 -10759.5918 1417.2764 0.0000 0.0000 1793.3553 -7530.1777 303.5511 -9323.5329 -7511.2776 302.2566 -546.9266 -516.0940 30937.1304 -110.7165 -60.0460
ENERGY: 900000 4.9549 5.5499 2.8419 0.0000 -10831.0665 1515.6922 0.0000 0.0000 1756.7456 -7545.2820 297.3544 -9302.0277 -7518.2217 301.3018 398.3338 480.7242 30616.6666 -75.1447 -19.0792
ENERGY: 1200000 0.4191 8.3104 2.5166 0.0000 -10739.6351 1432.5573 0.0000 0.0000 1803.5945 -7492.2372 305.2842 -9295.8317 -7509.3071 302.2951 -22.5444 91.7189 30178.9365 -23.1976 38.9431
ENERGY: 1500000 0.4636 8.0489 2.9625 0.0000 -10800.3497 1487.4806 0.0000 0.0000 1760.3231 -7541.0709 297.9599 -9301.3940 -7510.5883 302.2326 197.8273 273.1520 30785.5326 -87.7845 -27.1791
TCL: Running FEP window  14: Lambda1 0.65   Lambda2 0.7000000000000001 [dLambda 0.050000000000000044]
TCL: Setting parameter firsttimestep to 0
TCL: Setting parameter alchLambda to 0.65
Info: NONBONDED TABLE R-SQUARED SPACING: 0.0625
Info: NONBONDED TABLE SIZE: 705 POINTS
TCL: Setting parameter alchLambda2 to 0.7000000000000001
Info: NONBONDED TABLE R-SQUARED SPACING: 0.0625
Info: NONBONDED TABLE SIZE: 705 POINTS
TCL: Running for 1500000 steps
ETITLE: TS BOND ANGLE DIHED IMPRP ELECT VDW BOUNDARY MISC KINETIC TOTAL TEMP POTENTIAL TOTALAVG TEMPAVG PRESSURE GPRESSURE VOLUME PRESSAVG GPRESSAVG
ENERGY: 0 0.4636 8.0489 2.9625 0.0000 -10800.5843 1488.5780 0.0000 0.0000 1759.4191 -7541.1121 297.8069 -9300.5312 -7541.1121 297.8069 218.2052 288.4573 30785.5326 218.2052 288.4573
ENERGY: 300000 0.8177 6.4896 2.3859 0.0000 -10706.4109 1417.6269 0.0000 0.0000 1687.9607 -7591.1301 285.7116 -9279.0908 -7559.6084 295.6940 -81.4114 -108.6323 30169.9197 127.3186 174.7449
ENERGY: 600000 1.6642 7.3996 3.9121 0.0000 -10682.1800 1422.0534 0.0000 0.0000 1833.7455 -7413.4053 310.3877 -9247.1507 -7546.0049 295.8698 -234.7148 -133.2972 30693.7986 -16.9799 37.2690
ENERGY: 900000 1.0742 7.4928 4.6777 0.0000 -10730.4939 1429.3296 0.0000 0.0000 1763.0431 -7524.8765 298.4203 -9287.9196 -7545.1006 296.4058 -81.5711 -81.2915 30492.1057 -149.2495 -103.4188
ENERGY: 1200000 0.9089 10.5871 4.7225 0.0000 -10625.3933 1382.8291 0.0000 0.0000 1767.4462 -7458.8994 299.1656 -9226.3457 -7526.7923 297.0554 -325.2274 -372.7661 30770.2200 -154.3878 -114.2388
ENERGY: 1500000 0.9825 9.4179 4.1848 0.0000 -10793.6252 1412.5840 0.0000 0.0000 1771.2138 -7595.2422 299.8033 -9366.4560 -7532.6914 297.5896 -616.3090 -508.8859 30767.3106 -212.3721 -160.4655
TCL: Running FEP window  15: Lambda1 0.7000000000000001 Lambda2 0.7500000000000001 [dLambda 0.050000000000000044]
TCL: Setting parameter firsttimestep to 0
TCL: Setting parameter alchLambda to 0.7000000000000001
Info: NONBONDED TABLE R-SQUARED SPACING: 0.0625
Info: NONBONDED TABLE SIZE: 705 POINTS
TCL: Setting parameter alchLambda2 to 0.7500000000000001
Info: NONBONDED TABLE R-SQUARED SPACING: 0.0625
Info: NONBONDED TABLE SIZE: 705 POINTS
TCL: Running for 1500000 steps
ETITLE: TS BOND ANGLE DIHED IMPRP ELECT VDW BOUNDARY MISC KINETIC TOTAL TEMP POTENTIAL TOTALAVG TEMPAVG PRESSURE GPRESSURE VOLUME PRESSAVG GPRESSAVG
ENERGY: 0 0.9825 9.4179 4.1848 0.0000 -10793.9106 1412.8718 0.0000 0.0000 1770.3442 -7596.1095 299.6561 -9366.4537 -7596.1095 299.6561 -575.2258 -495.1737 30767.3106 -575.2258 -495.1737
ENERGY: 300000 5.9128 11.9235 4.9825 0.0000 -10660.4444 1431.0164 0.0000 0.0000 1778.0839 -7428.5253 300.9662 -9206.6092 -7516.4012 299.0711 -274.9590 -265.1448 31136.3385 -303.1125 -244.6117
ENERGY: 600000 2.6858 10.7944 4.1629 0.0000 -10843.6457 1526.9789 0.0000 0.0000 1770.5172 -7528.5065 299.6854 -9299.0237 -7512.3188 299.5571 538.7080 555.3523 30706.7721 -74.8283 -16.0210
ENERGY: 900000 3.6934 7.1207 4.8793 0.0000 -10685.3946 1426.9061 0.0000 0.0000 1789.5742 -7453.2208 302.9111 -9242.7950 -7513.4710 300.7477 -86.5516 20.2750 30730.1936 -141.7406 -81.4738
ENERGY: 1200000 1.5373 8.7910 4.6540 0.0000 -10697.0782 1415.1997 0.0000 0.0000 1734.1107 -7532.7855 293.5231 -9266.8962 -7506.4328 300.6202 -280.2329 -284.5050 30882.7767 -175.2395 -113.6088
ENERGY: 1500000 3.6018 10.5746 3.8143 0.0000 -10810.6523 1481.5754 0.0000 0.0000 1802.6412 -7508.4449 305.1229 -9311.0861 -7503.3363 300.4115 220.1938 259.5769 30380.4098 -122.6183 -64.0277
TCL: Running FEP window  16: Lambda1 0.7500000000000001 Lambda2 0.8000000000000002 [dLambda 0.050000000000000044]
TCL: Setting parameter firsttimestep to 0
TCL: Setting parameter alchLambda to 0.7500000000000001
Info: NONBONDED TABLE R-SQUARED SPACING: 0.0625
Info: NONBONDED TABLE SIZE: 705 POINTS
TCL: Setting parameter alchLambda2 to 0.8000000000000002
Info: NONBONDED TABLE R-SQUARED SPACING: 0.0625
Info: NONBONDED TABLE SIZE: 705 POINTS
TCL: Running for 1500000 steps
ETITLE: TS BOND ANGLE DIHED IMPRP ELECT VDW BOUNDARY MISC KINETIC TOTAL TEMP POTENTIAL TOTALAVG TEMPAVG PRESSURE GPRESSURE VOLUME PRESSAVG GPRESSAVG
ENERGY: 0 3.6018 10.5746 3.8143 0.0000 -10811.5433 1481.3686 0.0000 0.0000 1801.7444 -7510.4396 304.9711 -9312.1840 -7510.4396 304.9711 178.6219 265.3187 30380.4098 178.6219 265.3187
ENERGY: 300000 0.8626 7.2462 4.0067 0.0000 -10680.0524 1444.4313 0.0000 0.0000 1782.8113 -7440.6944 301.7664 -9223.5057 -7513.9084 301.6555 217.9006 258.8842 30778.7441 169.5560 207.0846
ENERGY: 600000 1.0771 3.5847 2.5035 0.0000 -10741.5936 1407.7081 0.0000 0.0000 1819.9925 -7506.7277 308.0598 -9326.7202 -7508.2278 301.8845 -231.1449 -208.3116 30463.9770 79.5144 124.6886
ENERGY: 900000 2.7500 3.7060 4.3459 0.0000 -10743.1096 1412.1869 0.0000 0.0000 1776.8460 -7543.2749 300.7567 -9320.1209 -7513.3516 301.6730 -325.8977 -254.2014 30544.3355 11.3014 53.8222
ENERGY: 1200000 0.3144 10.9926 4.0975 0.0000 -10677.3482 1411.6255 0.0000 0.0000 1797.6197 -7452.6983 304.2729 -9250.3181 -7521.6353 301.1577 51.4015 36.0487 30747.3128 -38.8558 -4.2930
ENERGY: 1500000 6.1840 8.8709 3.7953 0.0000 -10681.2770 1438.4021 0.0000 0.0000 1825.9483 -7398.0765 309.0679 -9224.0248 -7521.1310 300.6606 17.1607 46.3481 30733.1145 -22.1161 18.4286
TCL: Running FEP window  17: Lambda1 0.8000000000000002 Lambda2 0.8500000000000002 [dLambda 0.050000000000000044]
TCL: Setting parameter firsttimestep to 0
TCL: Setting parameter alchLambda to 0.8000000000000002
Info: NONBONDED TABLE R-SQUARED SPACING: 0.0625
Info: NONBONDED TABLE SIZE: 705 POINTS
TCL: Setting parameter alchLambda2 to 0.8500000000000002
Info: NONBONDED TABLE R-SQUARED SPACING: 0.0625
Info: NONBONDED TABLE SIZE: 705 POINTS
TCL: Running for 1500000 steps
ETITLE: TS BOND ANGLE DIHED IMPRP ELECT VDW BOUNDARY MISC KINETIC TOTAL TEMP POTENTIAL TOTALAVG TEMPAVG PRESSURE GPRESSURE VOLUME PRESSAVG GPRESSAVG
ENERGY: 0 6.1840 8.8709 3.7953 0.0000 -10682.6040 1438.5830 0.0000 0.0000 1825.0728 -7400.0980 308.9198 -9225.1708 -7400.0980 308.9198 -19.3468 54.7759 30733.1145 -19.3468 54.7759
ENERGY: 300000 2.0514 8.7271 3.0762 0.0000 -10696.7876 1410.8140 0.0000 0.0000 1760.4087 -7511.7101 297.9744 -9272.1188 -7453.3379 305.5734 -184.2051 -133.1929 30781.4585 -61.9304 6.5837
ENERGY: 600000 0.4814 7.5226 3.8018 0.0000 -10629.6263 1367.8092 0.0000 0.0000 1770.6222 -7479.3891 299.7032 -9250.0113 -7474.3125 303.7909 -725.8754 -696.3552 31052.2017 -118.2887 -57.4259
ENERGY: 900000 0.5164 8.5529 3.8844 0.0000 -10862.7533 1472.8830 0.0000 0.0000 1793.8512 -7583.0654 303.6350 -9376.9165 -7484.5632 304.7089 59.2213 175.1834 30249.2567 -87.4569 -27.8683
ENERGY: 1200000 1.2486 7.8577 5.7055 0.0000 -10860.8420 1477.9590 0.0000 0.0000 1766.8706 -7601.2006 299.0682 -9368.0712 -7503.2685 303.8935 -43.7211 0.1373 30359.8728 -146.2014 -87.3484
ENERGY: 1500000 3.1518 6.0308 2.7444 0.0000 -10826.0169 1508.4045 0.0000 0.0000 1795.2895 -7510.3959 303.8785 -9305.6855 -7505.2675 303.6611 685.6511 735.4649 30167.4394 -177.4776 -117.0416
TCL: Running FEP window  18: Lambda1 0.8500000000000002 Lambda2 0.9000000000000002 [dLambda 0.050000000000000044]
TCL: Setting parameter firsttimestep to 0
TCL: Setting parameter alchLambda to 0.8500000000000002
Info: NONBONDED TABLE R-SQUARED SPACING: 0.0625
Info: NONBONDED TABLE SIZE: 705 POINTS
TCL: Setting parameter alchLambda2 to 0.9000000000000002
Info: NONBONDED TABLE R-SQUARED SPACING: 0.0625
Info: NONBONDED TABLE SIZE: 705 POINTS
TCL: Running for 1500000 steps
ETITLE: TS BOND ANGLE DIHED IMPRP ELECT VDW BOUNDARY MISC KINETIC TOTAL TEMP POTENTIAL TOTALAVG TEMPAVG PRESSURE GPRESSURE VOLUME PRESSAVG GPRESSAVG
ENERGY: 0 3.1518 6.0308 2.7444 0.0000 -10826.8304 1509.0580 0.0000 0.0000 1794.4633 -7511.3822 303.7386 -9305.8454 -7511.3822 303.7386 676.6364 752.4061 30167.4394 676.6364 752.4061
ENERGY: 300000 1.2422 7.7199 2.8760 0.0000 -10663.8139 1376.5509 0.0000 0.0000 1777.1034 -7498.3215 300.8002 -9275.4248 -7534.6849 296.5531 -630.4640 -559.3384 30623.4742 -123.3441 -54.7360
ENERGY: 600000 1.4625 6.6685 3.6119 0.0000 -10868.8733 1486.3149 0.0000 0.0000 1769.9910 -7600.8245 299.5964 -9370.8155 -7533.6964 299.1944 93.2921 119.6548 30384.8672 -87.9937 -24.4316
ENERGY: 900000 2.5207 9.3331 3.3285 0.0000 -10852.4553 1480.0350 0.0000 0.0000 1757.5978 -7599.6402 297.4986 -9357.2381 -7553.4366 298.5699 91.8790 129.1278 30399.1837 -10.3985 47.1956
ENERGY: 1200000 2.0064 11.0464 2.8989 0.0000 -10712.0105 1431.1903 0.0000 0.0000 1827.7541 -7437.1144 309.3736 -9264.8685 -7540.8778 299.8944 -126.7898 -88.8253 30940.7759 -6.7417 53.4539
ENERGY: 1500000 0.9220 7.5109 3.0127 0.0000 -10721.5631 1412.5855 0.0000 0.0000 1759.7079 -7537.8241 297.8558 -9297.5320 -7537.5237 300.4685 -254.7493 -218.5893 30500.8336 -44.0616 16.2728
TCL: Running FEP window  19: Lambda1 0.9000000000000002 Lambda2 0.9500000000000003 [dLambda 0.050000000000000044]
TCL: Setting parameter firsttimestep to 0
TCL: Setting parameter alchLambda to 0.9000000000000002
Info: NONBONDED TABLE R-SQUARED SPACING: 0.0625
Info: NONBONDED TABLE SIZE: 705 POINTS
TCL: Setting parameter alchLambda2 to 0.9500000000000003
Info: NONBONDED TABLE R-SQUARED SPACING: 0.0625
Info: NONBONDED TABLE SIZE: 705 POINTS
TCL: Running for 1500000 steps
ETITLE: TS BOND ANGLE DIHED IMPRP ELECT VDW BOUNDARY MISC KINETIC TOTAL TEMP POTENTIAL TOTALAVG TEMPAVG PRESSURE GPRESSURE VOLUME PRESSAVG GPRESSAVG
ENERGY: 0 0.9220 7.5109 3.0127 0.0000 -10723.2110 1413.5069 0.0000 0.0000 1758.8517 -7539.4069 297.7109 -9298.2586 -7539.4069 297.7109 -276.9881 -202.5735 30500.8336 -276.9881 -202.5735
ENERGY: 300000 2.7289 7.5467 4.0811 0.0000 -10721.5922 1358.9205 0.0000 0.0000 1729.8860 -7618.4289 292.8080 -9348.3150 -7567.4836 297.7744 -824.9271 -850.2490 30426.1936 -640.3992 -605.1632
ENERGY: 600000 3.6660 7.3216 5.4349 0.0000 -10661.7334 1465.0943 0.0000 0.0000 1741.5575 -7438.6591 294.7836 -9180.2166 -7550.7482 297.9059 260.0936 345.3315 31158.7594 -151.3219 -104.5472
ENERGY: 900000 1.0183 5.0877 3.1913 0.0000 -10833.8158 1474.6295 0.0000 0.0000 1776.9803 -7572.9087 300.7794 -9349.8890 -7543.3685 298.6630 215.4656 260.9263 30487.0480 -11.5747 32.4122
ENERGY: 1200000 0.9706 7.2385 4.2768 0.0000 -10733.3219 1406.3614 0.0000 0.0000 1747.7005 -7566.7740 295.8234 -9314.4746 -7544.4016 298.6800 -303.6276 -197.3047 30547.5082 29.5746 77.2459
ENERGY: 1500000 0.3535 5.4765 2.7470 0.0000 -10796.2253 1441.8783 0.0000 0.0000 1801.3309 -7544.4391 304.9011 -9345.7700 -7534.8693 298.8337 167.8325 137.2822 30127.4888 -28.4529 24.9108
TCL: Running FEP window  20: Lambda1 0.9500000000000003 Lambda2 1.0    [dLambda 0.04999999999999971]
TCL: Setting parameter firsttimestep to 0
TCL: Setting parameter alchLambda to 0.9500000000000003
Info: NONBONDED TABLE R-SQUARED SPACING: 0.0625
Info: NONBONDED TABLE SIZE: 705 POINTS
TCL: Setting parameter alchLambda2 to 1.0
Info: NONBONDED TABLE R-SQUARED SPACING: 0.0625
Info: NONBONDED TABLE SIZE: 705 POINTS
TCL: Running for 1500000 steps
ETITLE: TS BOND ANGLE DIHED IMPRP ELECT VDW BOUNDARY MISC KINETIC TOTAL TEMP POTENTIAL TOTALAVG TEMPAVG PRESSURE GPRESSURE VOLUME PRESSAVG GPRESSAVG
ENERGY: 0 0.3535 5.4765 2.7470 0.0000 -10797.1134 1441.3790 0.0000 0.0000 1800.4196 -7546.7377 304.7468 -9347.1574 -7546.7377 304.7468 80.3818 142.7208 30127.4888 80.3818 142.7208
ENERGY: 300000 0.1906 6.1114 5.2140 0.0000 -10956.5139 1571.9220 0.0000 0.0000 1759.0899 -7613.9860 297.7512 -9373.0759 -7510.5117 305.3827 863.0285 964.4494 30126.5855 435.2971 502.6090
ENERGY: 600000 2.4681 10.3280 3.5961 0.0000 -10773.2950 1456.0258 0.0000 0.0000 1754.6153 -7546.2616 296.9938 -9300.8769 -7516.4582 301.0129 33.8026 95.8382 30720.2440 76.4627 144.1811
ENERGY: 900000 1.2427 6.2559 4.6331 0.0000 -10752.6946 1490.1624 0.0000 0.0000 1790.5796 -7459.8210 303.0813 -9250.4006 -7504.9869 300.4793 500.7636 562.1582 30579.7158 178.5466 241.8648
ENERGY: 1200000 0.7687 7.9274 2.8703 0.0000 -10680.1094 1421.0129 0.0000 0.0000 1777.5133 -7470.0168 300.8696 -9247.5300 -7512.4902 300.1179 -122.0728 -81.4100 30943.4274 61.8262 122.2545
ENERGY: 1500000 0.9281 5.1180 3.3333 0.0000 -10797.9624 1530.6264 0.0000 0.0000 1793.1270 -7464.8298 303.5125 -9257.9568 -7506.0748 300.4140 559.4892 695.3585 30804.1137 122.2271 189.7886
TCL: Exiting due to exit command.
