Info: SIMULATION PARAMETERS:
Info: TIMESTEP               2
Info: NUMBER OF STEPS        0
Info: STEPS PER CYCLE        10
Info: PERIODIC CELL BASIS 1  31.9574 0 0
Info: PERIODIC CELL BASIS 2  0 32.2481 0
Info: PERIODIC CELL BASIS 3  0 0 30.5472
Info: PERIODIC CELL CENTER   0 0 0
Info: WRAPPING WATERS AROUND PERIODIC BOUNDARIES ON OUTPUT.
Info: WRAPPING ALL CLUSTERS AROUND PERIODIC BOUNDARIES ON OUTPUT.
Info: FIRST LDB TIMESTEP     50
Info: LAST LDB TIMESTEP     -1
Info: HOM BACKGROUND SCALING 1
Info: PME BACKGROUND SCALING 1
Info: MIN ATOMS PER PATCH    40
Info: EMPTY PATCH LOAD       40 ATOMS
Info: VELOCITY FILE          mobley_8221999_equil.vel
Info: CENTER OF MASS MOVING INITIALLY? NO
Info: DIELECTRIC             1
Info: EXCLUDE                SCALED ONE-FOUR
Info: 1-4 ELECTROSTATICS SCALED BY 0.833333
Info: MODIFIED 1-4 VDW PARAMETERS WILL BE USED
Info: DCD FILENAME           mobley_8221999_prod.dcd
Info: DCD FREQUENCY          100000
Info: DCD FIRST STEP         100000
Info: DCD FILE WILL CONTAIN UNIT CELL DATA
Info: XST FILENAME           mobley_8221999_prod.xst
Info: XST FREQUENCY          100000
Info: NO VELOCITY DCD OUTPUT
Info: NO FORCE DCD OUTPUT
Info: OUTPUT FILENAME        mobley_8221999_prod
Info: BINARY OUTPUT FILES WILL BE USED
Info: RESTART FILENAME       mobley_8221999_prod.restart
Info: RESTART FREQUENCY      100000
Info: BINARY RESTART FILES WILL BE USED
Info: CUTOFF                 9
Info: PAIRLIST DISTANCE      11
Info: PAIRLIST SHRINK RATE   0.01
Info: PAIRLIST GROW RATE     0.01
Info: PAIRLIST TRIGGER       0.3
Info: PAIRLISTS PER CYCLE    2
Info: PAIRLISTS ENABLED
Info: MARGIN                 2
Info: HYDROGEN GROUP CUTOFF  2.5
Info: PATCH DIMENSION        15.5
Info: ENERGY OUTPUT STEPS    100000
Info: ENERGY EVALUATION STEPS    100000
Info: OUTPUT ENERGY PRECISION 4
Info: CROSSTERM ENERGY INCLUDED IN DIHEDRAL
Info: TIMING OUTPUT STEPS    1000000
Info: PRESSURE OUTPUT STEPS  100000
Info: ALCHEMICAL FEP ON
Info: FEP CURRENT LAMBDA VALUE     0
Info: FEP COMPARISON LAMBDA VALUE  0.05
Info: FEP INTRA-ALCHEMICAL NON-BONDED INTERACTIONS WILL BE RETAINED
Info: FEP INTRA-ALCHEMICAL BONDED INTERACTIONS WILL BE RETAINED
Info: FEP VDW SHIFTING COEFFICIENT 5
Info: FEP ELEC. ACTIVE FOR ANNIHILATED PARTICLES BETWEEN LAMBDA = 0 AND LAMBDA = 0.5
Info: FEP ELEC. ACTIVE FOR EXNIHILATED PARTICLES BETWEEN LAMBDA = 0.5 AND LAMBDA = 1
Info: FEP VDW ACTIVE FOR ANNIHILATED PARTICLES BETWEEN LAMBDA = 0 AND LAMBDA = 1
Info: FEP VDW ACTIVE FOR EXNIHILATED PARTICLES BETWEEN LAMBDA = 0 AND LAMBDA = 1
Info: FEP BOND ACTIVE FOR ANNIHILATED PARTICLES BETWEEN LAMBDA = 1 AND LAMBDA = 1
Info: FEP BOND ACTIVE FOR EXNIHILATED PARTICLES BETWEEN LAMBDA = 0 AND LAMBDA = 0
Info: LANGEVIN DYNAMICS ACTIVE
Info: LANGEVIN TEMPERATURE   300
Info: LANGEVIN USING BBK INTEGRATOR
Info: LANGEVIN DAMPING COEFFICIENT IS 1 INVERSE PS
Info: LANGEVIN DYNAMICS APPLIED TO HYDROGENS
Info: LANGEVIN PISTON PRESSURE CONTROL ACTIVE
Info:        TARGET PRESSURE IS 1.01325 BAR
Info:     OSCILLATION PERIOD IS 50 FS
Info:             DECAY TIME IS 25 FS
Info:     PISTON TEMPERATURE IS 300 K
Info:       PRESSURE CONTROL IS GROUP-BASED
Info:    INITIAL STRAIN RATE IS -0.000638255 -0.000638255 -0.000638255
Info:       CELL FLUCTUATION IS ISOTROPIC
Info: PARTICLE MESH EWALD (PME) ACTIVE
Info: PME TOLERANCE               1e-06
Info: PME EWALD COEFFICIENT       0.348832
Info: PME INTERPOLATION ORDER     4
Info: PME GRID DIMENSIONS         32 36 32
Info: PME MAXIMUM GRID SPACING    1
Info: PME CALCULATION WILL BE PERFORMED ON GPU
Info: FULL ELECTROSTATIC EVALUATION FREQUENCY      2
Info: USING VERLET I (r-RESPA) MTS SCHEME.
Info: C1 SPLITTING OF LONG RANGE ELECTROSTATICS
Info: PLACING ATOMS IN PATCHES BY HYDROGEN GROUPS
Info: RIGID BONDS TO HYDROGEN : ALL
Info:         ERROR TOLERANCE : 1e-08
Info:          MAX ITERATIONS : 100
Info: RIGID WATER USING SETTLE ALGORITHM
Info: RANDOM NUMBER SEED     1743725436
Info: USE HYDROGEN BONDS?    NO
Info: Using AMBER format force field!
Info: AMBER PARM FILE        mobley_8221999.prmtop
Info: COORDINATE PDB         mobley_8221999.pdb
Info: Exclusions will be read from PARM file!
Info: SCNB (VDW SCALING)     2
Info: USING ARITHMETIC MEAN TO COMBINE L-J SIGMA PARAMETERS
Info: BINARY COORDINATES     mobley_8221999_equil.coor
Info: SUMMARY OF PARAMETERS:
Info: 6 BONDS
Info: 6 ANGLES
Info:   6 HARMONIC
Info:   0 COSINE-BASED
Info: 4 DIHEDRAL
Info: 0 IMPROPER
Info: 0 CROSSTERM
Info: 0 VDW
Info: 21 VDW_PAIRS
Info: 0 NBTHOLE_PAIRS
Info: To read alchdata from file: mobley_8221999.pdb
Info: To read alchflag data from column: 5
Info: STRUCTURE SUMMARY:
Info: 2997 ATOMS
Info: 2996 BONDS
Info: 19 ANGLES
Info: 21 DIHEDRALS
Info: 0 IMPROPERS
Info: 0 CROSSTERMS
Info: 3036 EXCLUSIONS
Info: 2992 RIGID BONDS
Info: ALCH: 0 ATOMS TO DISAPPEAR IN FINAL STATE
Info: ALCH: 12 ATOMS TO APPEAR IN FINAL STATE
Info: 5999 DEGREES OF FREEDOM
Info: 1000 HYDROGEN GROUPS
Info: 4 ATOMS IN LARGEST HYDROGEN GROUP
Info: 1000 MIGRATION GROUPS
Info: 4 ATOMS IN LARGEST MIGRATION GROUP
Info: TOTAL MASS = 17995 amu
Info: TOTAL CHARGE = -0.000200013 e
Info: MASS DENSITY = 0.949217 g/cm^3
Info: ATOM DENSITY = 0.0952008 atoms/A^3
Info: ADDED 0 IMPLICIT EXCLUSIONS
Info: NONBONDED TABLE R-SQUARED SPACING: 0.0625
Info: NONBONDED TABLE SIZE: 705 POINTS
Info: REDUCING NUMBER OF PATCHES TO IMPROVE LOAD BALANCE
Info: REMOVING COM VELOCITY -0.0349237 0.0356613 -0.0914713
Info: Use 3D box decompostion in PME FFT.
Info: Updated CUDA force table with 4096 elements.
Info: Updated CUDA LJ table with 6 x 6 elements.
Info: Found 14 unique exclusion lists needing 28 bytes
TCL: Running for 1500000 steps
ETITLE: TS BOND ANGLE DIHED IMPRP ELECT VDW BOUNDARY MISC KINETIC TOTAL TEMP POTENTIAL TOTALAVG TEMPAVG PRESSURE GPRESSURE VOLUME PRESSAVG GPRESSAVG
ENERGY: 0 1.5722 6.5005 0.5142 0.0000 -10925.5533 1545.7256 0.0000 0.0000 1856.9449 -7514.2958 311.5377 -9371.2407 -7514.2958 311.5377 450.8353 521.5317 31480.8286 450.8353 521.5317
ENERGY: 300000 1.1950 5.0544 0.5347 0.0000 -10926.9691 1586.6379 0.0000 0.0000 1814.4753 -7519.0718 304.4126 -9333.5471 -7537.7275 305.5753 901.4483 982.0424 30930.0661 159.3678 212.3329
ENERGY: 600000 2.9997 4.6233 0.0797 0.0000 -10815.3481 1404.5216 0.0000 0.0000 1880.7585 -7522.3653 315.5328 -9403.1238 -7524.9593 306.8341 -547.2732 -437.0418 30843.6368 -20.4519 33.5057
ENERGY: 900000 2.1732 3.5032 0.2038 0.0000 -10685.1279 1353.2572 0.0000 0.0000 1783.7691 -7542.2213 299.2610 -9325.9904 -7553.9825 305.6739 -670.2947 -605.7514 31065.6193 -221.5487 -168.1524
ENERGY: 1200000 1.2678 4.3984 0.2120 0.0000 -10900.3022 1498.3402 0.0000 0.0000 1748.7983 -7647.2854 293.3940 -9396.0837 -7575.8259 304.0955 512.5180 552.9739 30324.1380 -68.1929 -14.6653
ENERGY: 1500000 0.5306 7.4432 0.4758 0.0000 -10878.6378 1419.4660 0.0000 0.0000 1788.5745 -7662.1476 300.0672 -9450.7221 -7583.8135 303.5974 -209.4238 -151.8699 30681.4511 -151.9730 -91.4437
TCL: Running FEP window   2: Lambda1 0.05   Lambda2 0.1    [dLambda 0.05  ]
TCL: Setting parameter firsttimestep to 0
TCL: Setting parameter alchLambda to 0.05
Info: NONBONDED TABLE R-SQUARED SPACING: 0.0625
Info: NONBONDED TABLE SIZE: 705 POINTS
TCL: Setting parameter alchLambda2 to 0.1
Info: NONBONDED TABLE R-SQUARED SPACING: 0.0625
Info: NONBONDED TABLE SIZE: 705 POINTS
TCL: Running for 1500000 steps
ETITLE: TS BOND ANGLE DIHED IMPRP ELECT VDW BOUNDARY MISC KINETIC TOTAL TEMP POTENTIAL TOTALAVG TEMPAVG PRESSURE GPRESSURE VOLUME PRESSAVG GPRESSAVG
ENERGY: 0 0.5306 7.4432 0.4758 0.0000 -10878.6373 1421.4875 0.0000 0.0000 1787.6832 -7661.0170 299.9177 -9448.7002 -7661.0170 299.9177 -233.0306 -147.1858 30681.4511 -233.0306 -147.1858
ENERGY: 300000 0.7498 5.1549 1.3342 0.0000 -10919.6816 1543.6072 0.0000 0.0000 1752.2982 -7616.5373 293.9812 -9368.8355 -7600.5582 300.4643 574.8138 706.7656 30660.7007 140.5466 234.1953
ENERGY: 600000 2.2834 6.0501 0.6967 0.0000 -10807.1758 1426.9362 0.0000 0.0000 1795.9508 -7575.2586 301.3047 -9371.2094 -7597.7847 299.3835 -338.6837 -229.7321 31034.6149 -23.9507 62.5907
ENERGY: 900000 0.2366 4.2610 2.4641 0.0000 -10835.7079 1446.8281 0.0000 0.0000 1816.6310 -7565.2873 304.7742 -9381.9183 -7598.9485 298.9365 -21.4981 50.5508 30530.6161 -27.4614 56.4707
ENERGY: 1200000 1.5734 5.6729 0.9323 0.0000 -10711.2073 1355.1508 0.0000 0.0000 1819.7095 -7528.1683 305.2907 -9347.8778 -7597.0588 300.5479 -693.5514 -690.4973 30691.3445 -102.6447 -31.6547
ENERGY: 1500000 0.9778 3.9756 0.2452 0.0000 -10983.9939 1541.3466 0.0000 0.0000 1800.6514 -7636.7974 302.0933 -9437.4488 -7597.6933 300.1502 554.8225 624.2841 30563.2359 -86.4933 -21.3368
TCL: Running FEP window   3: Lambda1 0.1    Lambda2 0.15000000000000002 [dLambda 0.05000000000000002]
TCL: Setting parameter firsttimestep to 0
TCL: Setting parameter alchLambda to 0.1
Info: NONBONDED TABLE R-SQUARED SPACING: 0.0625
Info: NONBONDED TABLE SIZE: 705 POINTS
TCL: Setting parameter alchLambda2 to 0.15000000000000002
Info: NONBONDED TABLE R-SQUARED SPACING: 0.0625
Info: NONBONDED TABLE SIZE: 705 POINTS
TCL: Running for 1500000 steps
ETITLE: TS BOND ANGLE DIHED IMPRP ELECT VDW BOUNDARY MISC KINETIC TOTAL TEMP POTENTIAL TOTALAVG TEMPAVG PRESSURE GPRESSURE VOLUME PRESSAVG GPRESSAVG
ENERGY: 0 0.9778 3.9756 0.2452 0.0000 -10983.9947 1541.4743 0.0000 0.0000 1799.7764 -7637.5454 301.9466 -9437.3219 -7637.5454 301.9466 538.5257 623.5250 30563.2359 538.5257 623.5250
ENERGY: 300000 0.5143 6.3612 0.3264 0.0000 -10885.4744 1471.8588 0.0000 0.0000 1749.5433 -7656.8704 293.5190 -9406.4137 -7616.2925 300.4286 9.7500 113.1727 30592.6643 226.8175 292.0508
ENERGY: 600000 1.3262 7.1711 0.8940 0.0000 -10703.8381 1348.4579 0.0000 0.0000 1802.3506 -7543.6384 302.3784 -9345.9889 -7629.8291 300.0102 -970.6229 -907.3868 30880.7490 136.6539 197.1353
ENERGY: 900000 2.5954 7.1619 1.1250 0.0000 -11192.8306 1645.6400 0.0000 0.0000 1803.3267 -7732.9817 302.5422 -9536.3083 -7625.5644 301.2224 1326.1090 1366.5538 29910.1190 239.1520 308.1862
ENERGY: 1200000 0.6400 4.8775 0.5158 0.0000 -10842.8008 1444.3858 0.0000 0.0000 1789.6260 -7602.7556 300.2436 -9392.3816 -7614.5260 300.1624 -153.0567 -108.6766 30860.6149 73.5655 131.6181
ENERGY: 1500000 1.4890 5.9366 0.2113 0.0000 -10802.1246 1429.7785 0.0000 0.0000 1758.0323 -7606.6769 294.9432 -9364.7093 -7610.4215 299.8176 -264.0280 -148.0382 30943.3478 57.7735 112.2675
TCL: Running FEP window   4: Lambda1 0.15000000000000002 Lambda2 0.2    [dLambda 0.04999999999999999]
TCL: Setting parameter firsttimestep to 0
TCL: Setting parameter alchLambda to 0.15000000000000002
Info: NONBONDED TABLE R-SQUARED SPACING: 0.0625
Info: NONBONDED TABLE SIZE: 705 POINTS
TCL: Setting parameter alchLambda2 to 0.2
Info: NONBONDED TABLE R-SQUARED SPACING: 0.0625
Info: NONBONDED TABLE SIZE: 705 POINTS
TCL: Running for 1500000 steps
ETITLE: TS BOND ANGLE DIHED IMPRP ELECT VDW BOUNDARY MISC KINETIC TOTAL TEMP POTENTIAL TOTALAVG TEMPAVG PRESSURE GPRESSURE VOLUME PRESSAVG GPRESSAVG
ENERGY: 0 1.4890 5.9366 0.2113 0.0000 -10802.1244 1430.8746 0.0000 0.0000 1757.1279 -7606.4851 294.7915 -9363.6130 -7606.4851 294.7915 -222.7042 -138.9104 30943.3478 -222.7042 -138.9104
ENERGY: 300000 0.8022 6.0322 0.5052 0.0000 -10948.4101 1528.9970 0.0000 0.0000 1774.7773 -7637.2963 297.7525 -9412.0736 -7602.9744 297.7395 258.0214 298.9553 30952.0983 -164.6253 -71.3656
ENERGY: 600000 3.1608 3.9771 0.2065 0.0000 -11177.0455 1677.4826 0.0000 0.0000 1797.7247 -7694.4938 301.6023 -9492.2185 -7627.2131 297.5694 1575.0328 1652.0690 30314.0335 38.0486 116.8817
ENERGY: 900000 0.4970 3.7087 0.6550 0.0000 -10909.4511 1519.1490 0.0000 0.0000 1781.2155 -7604.2260 298.8326 -9385.4415 -7614.5071 297.9620 558.3581 662.5291 30413.6621 43.0392 122.0793
ENERGY: 1200000 2.1744 4.1124 0.2020 0.0000 -10998.8804 1564.8389 0.0000 0.0000 1815.0478 -7612.5049 304.5086 -9427.5526 -7609.1706 298.6696 834.7750 868.7118 30482.5303 25.2505 97.3127
ENERGY: 1500000 3.5077 6.5172 1.1141 0.0000 -10856.6739 1471.0608 0.0000 0.0000 1771.4799 -7602.9941 297.1993 -9374.4740 -7609.1620 298.8258 -122.7254 -81.6183 31032.2771 14.0415 86.8353
TCL: Running FEP window   5: Lambda1 0.2    Lambda2 0.25   [dLambda 0.04999999999999999]
TCL: Setting parameter firsttimestep to 0
TCL: Setting parameter alchLambda to 0.2
Info: NONBONDED TABLE R-SQUARED SPACING: 0.0625
Info: NONBONDED TABLE SIZE: 705 POINTS
TCL: Setting parameter alchLambda2 to 0.25
Info: NONBONDED TABLE R-SQUARED SPACING: 0.0625
Info: NONBONDED TABLE SIZE: 705 POINTS
TCL: Running for 1500000 steps
ETITLE: TS BOND ANGLE DIHED IMPRP ELECT VDW BOUNDARY MISC KINETIC TOTAL TEMP POTENTIAL TOTALAVG TEMPAVG PRESSURE GPRESSURE VOLUME PRESSAVG GPRESSAVG
ENERGY: 0 3.5076 6.5173 1.1141 0.0000 -10856.6740 1470.9944 0.0000 0.0000 1770.5854 -7603.9552 297.0492 -9374.5406 -7603.9552 297.0492 -167.2705 -81.3528 31032.2771 -167.2705 -81.3528
ENERGY: 300000 2.7689 6.6547 1.0220 0.0000 -10825.1411 1469.1426 0.0000 0.0000 1816.1217 -7529.4313 304.6888 -9345.5530 -7586.8555 300.6135 68.9589 91.5627 30902.7330 -158.8304 -102.9795
ENERGY: 600000 1.7397 3.9870 0.5471 0.0000 -10911.3559 1450.0681 0.0000 0.0000 1814.4821 -7640.5320 304.4137 -9455.0140 -7575.9159 302.0414 -114.0690 -35.5372 30668.4544 -325.7602 -270.6333
ENERGY: 900000 4.0331 2.5905 0.6696 0.0000 -10718.8997 1422.4632 0.0000 0.0000 1819.0969 -7470.0463 305.1879 -9289.1432 -7566.9132 301.5149 -292.9585 -197.6894 31358.2757 -432.0031 -373.9245
ENERGY: 1200000 1.5371 4.3269 1.3892 0.0000 -10830.6272 1466.7332 0.0000 0.0000 1807.7922 -7548.8486 303.2914 -9356.6408 -7572.4562 300.8509 176.4482 181.8705 30705.9270 -280.4614 -225.8080
ENERGY: 1500000 1.7823 2.6649 0.0772 0.0000 -10812.4504 1369.3252 0.0000 0.0000 1813.5502 -7625.0506 304.2574 -9438.6008 -7589.4368 300.4942 -949.2873 -925.8992 31169.3413 -292.6474 -238.9485
TCL: Running FEP window   6: Lambda1 0.25   Lambda2 0.3    [dLambda 0.04999999999999999]
TCL: Setting parameter firsttimestep to 0
TCL: Setting parameter alchLambda to 0.25
Info: NONBONDED TABLE R-SQUARED SPACING: 0.0625
Info: NONBONDED TABLE SIZE: 705 POINTS
TCL: Setting parameter alchLambda2 to 0.3
Info: NONBONDED TABLE R-SQUARED SPACING: 0.0625
Info: NONBONDED TABLE SIZE: 705 POINTS
TCL: Running for 1500000 steps
ETITLE: TS BOND ANGLE DIHED IMPRP ELECT VDW BOUNDARY MISC KINETIC TOTAL TEMP POTENTIAL TOTALAVG TEMPAVG PRESSURE GPRESSURE VOLUME PRESSAVG GPRESSAVG
ENERGY: 0 1.7823 2.6649 0.0772 0.0000 -10812.4508 1368.9402 0.0000 0.0000 1812.6785 -7626.3077 304.1111 -9438.9862 -7626.3077 304.1111 -993.3017 -925.2215 31169.3413 -993.3017 -925.2215
ENERGY: 300000 0.3035 7.4073 0.3404 0.0000 -10897.7185 1530.1900 0.0000 0.0000 1784.5770 -7574.9003 299.3966 -9359.4773 -7599.6688 299.6987 562.5588 580.8291 30850.8916 -232.9703 -180.3389
ENERGY: 600000 0.6955 7.7756 0.4078 0.0000 -10903.1279 1485.5254 0.0000 0.0000 1834.7913 -7573.9323 307.8210 -9408.7235 -7608.7690 301.1524 134.5725 180.7257 30867.1943 -42.3800 18.9945
ENERGY: 900000 0.3287 7.2261 1.0093 0.0000 -10978.1083 1589.5981 0.0000 0.0000 1818.7252 -7561.2209 305.1256 -9379.9461 -7605.0810 300.9759 962.7411 1033.2097 30758.9462 184.4374 244.0085
ENERGY: 1200000 1.7224 7.3065 1.6931 0.0000 -10854.1681 1408.3331 0.0000 0.0000 1833.7988 -7601.3142 307.6544 -9435.1129 -7609.0221 300.9950 -494.4030 -445.6351 30799.4036 100.9839 165.5391
ENERGY: 1500000 1.2448 4.0321 0.0993 0.0000 -10969.1018 1520.6132 0.0000 0.0000 1805.6543 -7637.4581 302.9327 -9443.1124 -7614.0855 301.6725 376.5462 399.2150 30891.4294 117.3842 181.8791
TCL: Running FEP window   7: Lambda1 0.3    Lambda2 0.35   [dLambda 0.04999999999999999]
TCL: Setting parameter firsttimestep to 0
TCL: Setting parameter alchLambda to 0.3
Info: NONBONDED TABLE R-SQUARED SPACING: 0.0625
Info: NONBONDED TABLE SIZE: 705 POINTS
TCL: Setting parameter alchLambda2 to 0.35
Info: NONBONDED TABLE R-SQUARED SPACING: 0.0625
Info: NONBONDED TABLE SIZE: 705 POINTS
TCL: Running for 1500000 steps
ETITLE: TS BOND ANGLE DIHED IMPRP ELECT VDW BOUNDARY MISC KINETIC TOTAL TEMP POTENTIAL TOTALAVG TEMPAVG PRESSURE GPRESSURE VOLUME PRESSAVG GPRESSAVG
ENERGY: 0 1.2448 4.0321 0.0993 0.0000 -10969.1018 1521.8222 0.0000 0.0000 1804.7371 -7637.1662 302.7788 -9441.9033 -7637.1662 302.7788 334.1988 409.0157 30891.4294 334.1988 409.0157
ENERGY: 300000 1.1972 6.4902 1.7514 0.0000 -10787.4960 1411.9802 0.0000 0.0000 1770.6984 -7595.3788 297.0682 -9366.0771 -7602.3989 300.0767 -222.8873 -153.4498 30771.9756 164.9770 226.4194
ENERGY: 600000 1.0356 5.1200 1.1842 0.0000 -10695.8075 1322.0510 0.0000 0.0000 1774.0853 -7592.3314 297.6364 -9366.4167 -7609.8479 300.4208 -1252.0704 -1199.6386 31147.9077 -44.1121 24.0681
ENERGY: 900000 0.1795 4.1336 1.6066 0.0000 -10856.0612 1418.7244 0.0000 0.0000 1806.9350 -7624.4822 303.1475 -9431.4171 -7613.8927 299.4243 -429.5439 -438.3356 30799.0392 -7.1176 56.3606
ENERGY: 1200000 3.7781 4.1219 0.9654 0.0000 -10827.8387 1466.8167 0.0000 0.0000 1815.4083 -7536.7484 304.5691 -9352.1567 -7607.4483 299.9370 85.7423 105.0037 31007.7450 25.0353 87.5981
ENERGY: 1500000 1.9804 6.1443 0.5394 0.0000 -10875.1100 1469.7385 0.0000 0.0000 1806.0532 -7590.6542 302.9996 -9396.7074 -7603.8706 299.4731 78.4038 118.6956 30981.9520 33.9189 91.7310
TCL: Running FEP window   8: Lambda1 0.35   Lambda2 0.39999999999999997 [dLambda 0.04999999999999999]
TCL: Setting parameter firsttimestep to 0
TCL: Setting parameter alchLambda to 0.35
Info: NONBONDED TABLE R-SQUARED SPACING: 0.0625
Info: NONBONDED TABLE SIZE: 705 POINTS
TCL: Setting parameter alchLambda2 to 0.39999999999999997
Info: NONBONDED TABLE R-SQUARED SPACING: 0.0625
Info: NONBONDED TABLE SIZE: 705 POINTS
TCL: Running for 1500000 steps
ETITLE: TS BOND ANGLE DIHED IMPRP ELECT VDW BOUNDARY MISC KINETIC TOTAL TEMP POTENTIAL TOTALAVG TEMPAVG PRESSURE GPRESSURE VOLUME PRESSAVG GPRESSAVG
ENERGY: 0 1.9804 6.1443 0.5394 0.0000 -10875.1108 1469.8542 0.0000 0.0000 1805.1721 -7591.4204 302.8518 -9396.5925 -7591.4204 302.8518 63.7685 123.6882 30981.9520 63.7685 123.6882
ENERGY: 300000 2.3005 5.5461 0.6328 0.0000 -10909.6287 1481.8320 0.0000 0.0000 1777.8582 -7641.4590 298.2694 -9419.3173 -7599.5975 302.3141 99.7923 171.1544 30781.6249 -343.2757 -278.6872
ENERGY: 600000 1.7561 4.2573 0.1466 0.0000 -10924.1141 1476.4955 0.0000 0.0000 1840.1926 -7601.2661 308.7271 -9441.4587 -7610.5462 302.5241 -194.6188 -135.2356 30998.6925 -225.4280 -150.1581
ENERGY: 900000 0.2642 4.9732 0.2513 0.0000 -10940.7585 1473.8763 0.0000 0.0000 1834.5504 -7626.8431 307.7806 -9461.3935 -7616.2828 302.0422 -44.7495 -37.1634 30783.2308 -191.7381 -132.3361
ENERGY: 1200000 3.1159 5.9310 1.5757 0.0000 -10827.5320 1440.9787 0.0000 0.0000 1758.7654 -7617.1654 295.0662 -9375.9308 -7614.5623 301.0366 -242.5705 -151.3445 30547.4341 -159.3420 -100.0399
ENERGY: 1500000 1.1021 6.8896 1.5363 0.0000 -10945.4967 1560.4282 0.0000 0.0000 1839.9465 -7535.5941 308.6858 -9375.5405 -7607.9036 301.7453 866.9436 965.7591 30741.9141 -106.0289 -48.2306
TCL: Running FEP window   9: Lambda1 0.39999999999999997 Lambda2 0.44999999999999996 [dLambda 0.04999999999999999]
TCL: Setting parameter firsttimestep to 0
TCL: Setting parameter alchLambda to 0.39999999999999997
Info: NONBONDED TABLE R-SQUARED SPACING: 0.0625
Info: NONBONDED TABLE SIZE: 705 POINTS
TCL: Setting parameter alchLambda2 to 0.44999999999999996
Info: NONBONDED TABLE R-SQUARED SPACING: 0.0625
Info: NONBONDED TABLE SIZE: 705 POINTS
TCL: Running for 1500000 steps
ETITLE: TS BOND ANGLE DIHED IMPRP ELECT VDW BOUNDARY MISC KINETIC TOTAL TEMP POTENTIAL TOTALAVG TEMPAVG PRESSURE GPRESSURE VOLUME PRESSAVG GPRESSAVG
ENERGY: 0 1.1021 6.8896 1.5363 0.0000 -10945.4966 1561.6641 0.0000 0.0000 1839.0442 -7535.2603 308.5345 -9374.3045 -7535.2603 308.5345 899.1039 979.5216 30741.9141 899.1039 979.5216
ENERGY: 300000 2.1885 4.4383 0.5981 0.0000 -11041.3048 1526.9679 0.0000 0.0000 1783.7140 -7723.3979 299.2518 -9507.1119 -7622.1155 299.8315 386.1244 401.9150 30560.1628 142.4072 180.9897
ENERGY: 600000 1.7938 7.5981 0.6762 0.0000 -10873.9707 1471.0386 0.0000 0.0000 1777.9814 -7614.8827 298.2900 -9392.8641 -7627.1484 300.8322 -51.6952 9.6975 30891.0464 214.7402 255.6310
ENERGY: 900000 2.7041 7.9297 0.8147 0.0000 -10817.6218 1447.1214 0.0000 0.0000 1810.3497 -7548.7023 303.7204 -9359.0520 -7611.3172 301.3235 -97.1245 -80.3311 30881.8278 199.4461 242.0371
ENERGY: 1200000 1.5076 7.1663 0.2373 0.0000 -10905.1093 1475.5644 0.0000 0.0000 1777.3909 -7643.2429 298.1910 -9420.6338 -7621.5746 300.4914 138.5062 208.5837 30621.8732 159.7829 207.5937
ENERGY: 1500000 0.8421 8.1323 1.7411 0.0000 -10834.6604 1413.4816 0.0000 0.0000 1842.1713 -7568.2920 309.0591 -9410.4633 -7616.8728 300.5182 -464.3595 -408.5732 30984.9231 84.1572 132.3530
TCL: Running FEP window  10: Lambda1 0.44999999999999996 Lambda2 0.49999999999999994 [dLambda 0.04999999999999999]
TCL: Setting parameter firsttimestep to 0
TCL: Setting parameter alchLambda to 0.44999999999999996
Info: NONBONDED TABLE R-SQUARED SPACING: 0.0625
Info: NONBONDED TABLE SIZE: 705 POINTS
TCL: Setting parameter alchLambda2 to 0.49999999999999994
Info: NONBONDED TABLE R-SQUARED SPACING: 0.0625
Info: NONBONDED TABLE SIZE: 705 POINTS
TCL: Running for 1500000 steps
ETITLE: TS BOND ANGLE DIHED IMPRP ELECT VDW BOUNDARY MISC KINETIC TOTAL TEMP POTENTIAL TOTALAVG TEMPAVG PRESSURE GPRESSURE VOLUME PRESSAVG GPRESSAVG
ENERGY: 0 0.8421 8.1323 1.7411 0.0000 -10834.6601 1414.2550 0.0000 0.0000 1841.3191 -7568.3705 308.9161 -9409.6897 -7568.3705 308.9161 -477.0030 -396.6354 30984.9231 -477.0030 -396.6354
ENERGY: 300000 1.4940 3.4572 0.5194 0.0000 -10920.5908 1460.1352 0.0000 0.0000 1793.3785 -7661.6065 300.8732 -9454.9850 -7591.4157 303.8609 -151.9830 -159.0705 30947.2117 -140.5175 -84.5232
ENERGY: 600000 1.5999 2.9018 0.2133 0.0000 -10879.9322 1516.2572 0.0000 0.0000 1828.9145 -7530.0456 306.8350 -9358.9601 -7592.8190 302.6212 650.9272 688.2045 30713.8415 -66.3701 -29.5698
ENERGY: 900000 0.2877 5.1731 0.0544 0.0000 -10807.1343 1386.9094 0.0000 0.0000 1689.3866 -7725.3232 283.4266 -9414.7098 -7604.2755 300.5101 -510.5379 -471.8285 30660.3018 -76.8627 -31.1787
ENERGY: 1200000 2.1573 3.8292 0.3173 0.0000 -10889.9045 1434.0565 0.0000 0.0000 1741.8429 -7707.7012 292.2271 -9449.5442 -7610.7941 299.8152 -409.0774 -308.0932 30427.8229 -32.2139 23.2452
ENERGY: 1500000 1.3667 6.1356 0.1104 0.0000 -10817.2300 1405.7547 0.0000 0.0000 1823.1856 -7580.6771 305.8739 -9403.8626 -7603.6341 300.4846 -630.8973 -525.1470 31613.5160 -91.0565 -29.1995
TCL: Running FEP window  11: Lambda1 0.49999999999999994 Lambda2 0.5499999999999999 [dLambda 0.04999999999999999]
TCL: Setting parameter firsttimestep to 0
TCL: Setting parameter alchLambda to 0.49999999999999994
Info: NONBONDED TABLE R-SQUARED SPACING: 0.0625
Info: NONBONDED TABLE SIZE: 705 POINTS
TCL: Setting parameter alchLambda2 to 0.5499999999999999
Info: NONBONDED TABLE R-SQUARED SPACING: 0.0625
Info: NONBONDED TABLE SIZE: 705 POINTS
TCL: Running for 1500000 steps
ETITLE: TS BOND ANGLE DIHED IMPRP ELECT VDW BOUNDARY MISC KINETIC TOTAL TEMP POTENTIAL TOTALAVG TEMPAVG PRESSURE GPRESSURE VOLUME PRESSAVG GPRESSAVG
ENERGY: 0 1.3667 6.1355 0.1104 0.0000 -10817.2297 1405.4017 0.0000 0.0000 1822.3027 -7581.9128 305.7258 -9404.2154 -7581.9128 305.7258 -596.9085 -524.0707 31613.5160 -596.9085 -524.0707
ENERGY: 300000 1.2862 8.4859 2.4184 0.0000 -10791.2014 1413.0778 0.0000 0.0000 1775.7173 -7590.2159 297.9102 -9365.9332 -7567.4509 300.0204 -305.9643 -262.6723 30920.0863 -407.4655 -319.7117
ENERGY: 600000 0.7889 4.4306 0.1179 0.0000 -10878.8443 1481.9938 0.0000 0.0000 1780.6647 -7610.8484 298.7402 -9391.5131 -7577.2975 299.7992 342.5263 420.1353 30358.1968 -82.0927 -14.9690
ENERGY: 900000 0.8841 3.5533 0.1401 0.0000 -10951.7453 1509.5726 0.0000 0.0000 1749.0241 -7688.5711 293.4319 -9437.5952 -7586.8665 299.7986 303.9509 384.0437 30656.1748 -28.8087 41.5162
ENERGY: 1200000 0.5904 2.9478 0.1238 0.0000 -10660.1656 1331.9435 0.0000 0.0000 1759.6346 -7564.9255 295.2120 -9324.5601 -7598.1944 299.1089 -986.5021 -1004.2316 31503.3237 -138.3206 -81.2414
ENERGY: 1500000 0.8439 5.7450 0.1216 0.0000 -10923.0103 1484.6874 0.0000 0.0000 1795.7676 -7635.8448 301.2740 -9431.6124 -7602.0126 298.5617 152.4216 197.8583 30805.0003 -176.2551 -114.8386
TCL: Running FEP window  12: Lambda1 0.5499999999999999 Lambda2 0.6    [dLambda 0.050000000000000044]
TCL: Setting parameter firsttimestep to 0
TCL: Setting parameter alchLambda to 0.5499999999999999
Info: NONBONDED TABLE R-SQUARED SPACING: 0.0625
Info: NONBONDED TABLE SIZE: 705 POINTS
TCL: Setting parameter alchLambda2 to 0.6
Info: NONBONDED TABLE R-SQUARED SPACING: 0.0625
Info: NONBONDED TABLE SIZE: 705 POINTS
TCL: Running for 1500000 steps
ETITLE: TS BOND ANGLE DIHED IMPRP ELECT VDW BOUNDARY MISC KINETIC TOTAL TEMP POTENTIAL TOTALAVG TEMPAVG PRESSURE GPRESSURE VOLUME PRESSAVG GPRESSAVG
ENERGY: 0 0.8439 5.7451 0.1216 0.0000 -10922.8381 1484.2571 0.0000 0.0000 1794.9315 -7636.9390 301.1337 -9431.8705 -7636.9390 301.1337 125.5985 199.7659 30805.0003 125.5985 199.7659
ENERGY: 300000 0.4074 6.2148 0.1503 0.0000 -10830.1501 1442.2506 0.0000 0.0000 1794.4127 -7586.7143 301.0467 -9381.1270 -7596.1176 300.4240 -108.2108 -68.0917 30673.0275 132.7565 175.5508
ENERGY: 600000 0.5397 4.6931 0.2643 0.0000 -10888.7164 1469.5971 0.0000 0.0000 1812.0498 -7601.5723 304.0057 -9413.6222 -7617.7681 300.9682 221.0185 275.3840 30364.6141 167.2792 226.5016
ENERGY: 900000 1.5420 4.3529 1.9797 0.0000 -10815.0648 1433.0086 0.0000 0.0000 1820.5101 -7553.6715 305.4250 -9374.1816 -7621.7963 300.3903 -550.1936 -453.5833 31384.0042 -34.1327 28.9427
ENERGY: 1200000 1.6834 4.6554 0.5481 0.0000 -10884.3762 1493.3923 0.0000 0.0000 1803.4773 -7580.6197 302.5674 -9384.0970 -7609.8798 300.4662 233.3236 307.0043 30744.4981 -28.1064 37.3251
ENERGY: 1500000 0.6420 5.3399 0.1763 0.0000 -10941.3912 1458.4643 0.0000 0.0000 1818.2599 -7658.5088 305.0475 -9476.7687 -7616.6874 300.1470 -32.4219 16.6436 30754.3541 13.2190 77.9824
TCL: Running FEP window  13: Lambda1 0.6    Lambda2 0.65   [dLambda 0.050000000000000044]
TCL: Setting parameter firsttimestep to 0
TCL: Setting parameter alchLambda to 0.6
Info: NONBONDED TABLE R-SQUARED SPACING: 0.0625
Info: NONBONDED TABLE SIZE: 705 POINTS
TCL: Setting parameter alchLambda2 to 0.65
Info: NONBONDED TABLE R-SQUARED SPACING: 0.0625
Info: NONBONDED TABLE SIZE: 705 POINTS
TCL: Running for 1500000 steps
ETITLE: TS BOND ANGLE DIHED IMPRP ELECT VDW BOUNDARY MISC KINETIC TOTAL TEMP POTENTIAL TOTALAVG TEMPAVG PRESSURE GPRESSURE VOLUME PRESSAVG GPRESSAVG
ENERGY: 0 0.6420 5.3399 0.1763 0.0000 -10941.0506 1458.5149 0.0000 0.0000 1817.3770 -7659.0005 304.8994 -9476.3775 -7659.0005 304.8994 -58.9357 24.6846 30754.3541 -58.9357 24.6846
ENERGY: 300000 1.1301 4.0746 0.4885 0.0000 -10833.7721 1419.6320 0.0000 0.0000 1817.3120 -7591.1349 304.8885 -9408.4469 -7598.6541 302.8075 -370.0383 -336.5806 31032.4802 -127.2873 -57.7927
ENERGY: 600000 0.5384 2.2622 0.4518 0.0000 -10901.1090 1520.6551 0.0000 0.0000 1782.8229 -7594.3786 299.1023 -9377.2015 -7599.2508 300.6229 632.0601 639.0645 30760.5927 22.8439 89.4598
ENERGY: 900000 2.7135 4.2481 0.9450 0.0000 -11045.4598 1611.7055 0.0000 0.0000 1786.2123 -7639.6354 299.6709 -9425.8477 -7603.0940 301.0675 1503.0546 1475.8323 30104.9078 197.2720 248.3921
ENERGY: 1200000 0.7600 7.3323 0.1571 0.0000 -10949.9336 1527.0956 0.0000 0.0000 1858.5230 -7556.0656 311.8024 -9414.5886 -7608.1756 301.3429 635.3696 745.1913 30470.3705 128.9268 192.9411
ENERGY: 1500000 4.4274 4.4262 0.2774 0.0000 -10912.2846 1515.0070 0.0000 0.0000 1811.9016 -7576.2449 303.9808 -9388.1466 -7601.5774 301.7320 587.7459 650.8980 30784.3557 270.1434 331.9107
TCL: Running FEP window  14: Lambda1 0.65   Lambda2 0.7000000000000001 [dLambda 0.050000000000000044]
TCL: Setting parameter firsttimestep to 0
TCL: Setting parameter alchLambda to 0.65
Info: NONBONDED TABLE R-SQUARED SPACING: 0.0625
Info: NONBONDED TABLE SIZE: 705 POINTS
TCL: Setting parameter alchLambda2 to 0.7000000000000001
Info: NONBONDED TABLE R-SQUARED SPACING: 0.0625
Info: NONBONDED TABLE SIZE: 705 POINTS
TCL: Running for 1500000 steps
ETITLE: TS BOND ANGLE DIHED IMPRP ELECT VDW BOUNDARY MISC KINETIC TOTAL TEMP POTENTIAL TOTALAVG TEMPAVG PRESSURE GPRESSURE VOLUME PRESSAVG GPRESSAVG
ENERGY: 0 4.4274 4.4262 0.2774 0.0000 -10912.9757 1515.3601 0.0000 0.0000 1810.9956 -7577.4890 303.8288 -9388.4846 -7577.4890 303.8288 595.0947 662.4878 30784.3557 595.0947 662.4878
ENERGY: 300000 1.4242 5.5294 1.8052 0.0000 -10909.9437 1476.7299 0.0000 0.0000 1777.1932 -7647.2617 298.1578 -9424.4549 -7611.3997 299.4438 110.2933 167.4239 30972.1444 285.2470 338.1987
ENERGY: 600000 0.3155 6.0918 0.3887 0.0000 -10834.9819 1467.0127 0.0000 0.0000 1831.5800 -7529.5931 307.2822 -9361.1731 -7590.6130 299.7572 432.8419 431.1841 30535.0012 185.0313 235.2918
ENERGY: 900000 2.8869 10.4554 0.6433 0.0000 -10849.2440 1470.2100 0.0000 0.0000 1858.3137 -7506.7347 311.7673 -9365.0484 -7589.4699 299.6121 35.8663 67.7282 31253.3929 238.0036 291.9908
ENERGY: 1200000 0.9632 3.9796 0.2485 0.0000 -10930.2062 1465.6728 0.0000 0.0000 1773.3135 -7686.0286 297.5069 -9459.3420 -7598.4629 299.3415 -345.5514 -255.1989 31020.2644 131.3606 185.3380
ENERGY: 1500000 4.0281 5.1600 0.7376 0.0000 -10747.5176 1392.4683 0.0000 0.0000 1805.9843 -7539.1393 302.9881 -9345.1236 -7594.8144 299.7608 -551.8182 -494.6963 30916.6415 55.4288 113.6414
TCL: Running FEP window  15: Lambda1 0.7000000000000001 Lambda2 0.7500000000000001 [dLambda 0.050000000000000044]
TCL: Setting parameter firsttimestep to 0
TCL: Setting parameter alchLambda to 0.7000000000000001
Info: NONBONDED TABLE R-SQUARED SPACING: 0.0625
Info: NONBONDED TABLE SIZE: 705 POINTS
TCL: Setting parameter alchLambda2 to 0.7500000000000001
Info: NONBONDED TABLE R-SQUARED SPACING: 0.0625
Info: NONBONDED TABLE SIZE: 705 POINTS
TCL: Running for 1500000 steps
ETITLE: TS BOND ANGLE DIHED IMPRP ELECT VDW BOUNDARY MISC KINETIC TOTAL TEMP POTENTIAL TOTALAVG TEMPAVG PRESSURE GPRESSURE VOLUME PRESSAVG GPRESSAVG
ENERGY: 0 4.0281 5.1600 0.7376 0.0000 -10747.8517 1392.2924 0.0000 0.0000 1805.1487 -7540.4849 302.8479 -9345.6336 -7540.4849 302.8479 -574.4564 -491.7220 30916.6415 -574.4564 -491.7220
ENERGY: 300000 2.6253 6.2153 0.1862 0.0000 -10842.5289 1402.3755 0.0000 0.0000 1814.1068 -7617.0198 304.3507 -9431.1266 -7593.5482 303.6815 -355.6355 -324.7946 30540.6477 -444.6176 -389.3559
ENERGY: 600000 1.5778 7.8124 0.8338 0.0000 -10954.5165 1497.8069 0.0000 0.0000 1857.0877 -7589.3979 311.5616 -9446.4856 -7585.4909 304.0024 382.7874 407.1371 30322.2609 -187.0985 -129.7358
ENERGY: 900000 1.1541 6.0886 1.6123 0.0000 -11001.0459 1537.5124 0.0000 0.0000 1857.2429 -7597.4355 311.5876 -9454.6784 -7592.8163 304.2897 620.3771 638.0775 30743.4547 -3.6865 53.5192
ENERGY: 1200000 0.5671 3.8926 1.1645 0.0000 -10778.8414 1412.4127 0.0000 0.0000 1760.3744 -7600.4300 295.3361 -9360.8044 -7595.7307 302.8008 -300.6874 -282.1695 31099.4760 5.7340 63.5405
ENERGY: 1500000 2.8824 4.1050 0.2298 0.0000 -10835.3592 1420.5982 0.0000 0.0000 1779.2233 -7628.3206 298.4984 -9407.5438 -7601.6942 302.0346 -488.3135 -395.3536 31011.5004 21.0712 78.4722
TCL: Running FEP window  16: Lambda1 0.7500000000000001 Lambda2 0.8000000000000002 [dLambda 0.050000000000000044]
TCL: Setting parameter firsttimestep to 0
TCL: Setting parameter alchLambda to 0.7500000000000001
Info: NONBONDED TABLE R-SQUARED SPACING: 0.0625
Info: NONBONDED TABLE SIZE: 705 POINTS
TCL: Setting parameter alchLambda2 to 0.8000000000000002
Info: NONBONDED TABLE R-SQUARED SPACING: 0.0625
Info: NONBONDED TABLE SIZE: 705 POINTS
TCL: Running for 1500000 steps
ETITLE: TS BOND ANGLE DIHED IMPRP ELECT VDW BOUNDARY MISC KINETIC TOTAL TEMP POTENTIAL TOTALAVG TEMPAVG PRESSURE GPRESSURE VOLUME PRESSAVG GPRESSAVG
ENERGY: 0 2.8824 4.1050 0.2298 0.0000 -10835.4588 1420.1863 0.0000 0.0000 1778.3213 -7629.7340 298.3471 -9408.0553 -7629.7340 298.3471 -471.2724 -394.5769 31011.5004 -471.2724 -394.5769
ENERGY: 300000 0.1918 2.2113 0.2205 0.0000 -10861.5809 1465.3299 0.0000 0.0000 1775.8128 -7617.8146 297.9262 -9393.6274 -7609.5034 296.8461 110.9520 197.0730 30773.2491 74.0176 151.0057
ENERGY: 600000 1.9524 3.2941 0.2109 0.0000 -10957.5109 1542.4395 0.0000 0.0000 1799.6716 -7609.9423 301.9290 -9409.6139 -7614.9378 299.2550 319.0359 307.3311 31150.1111 168.4140 221.7071
ENERGY: 900000 2.5840 2.9696 0.5805 0.0000 -11037.0781 1555.9510 0.0000 0.0000 1768.3709 -7706.6221 296.6777 -9474.9930 -7623.7915 298.8400 230.8862 340.8114 31073.9688 125.7340 176.5859
ENERGY: 1200000 2.9903 3.7861 2.0432 0.0000 -10938.4634 1477.0661 0.0000 0.0000 1834.4000 -7618.1777 307.7553 -9452.5777 -7615.9122 300.5400 -114.4903 -41.0054 30995.5688 96.9486 151.0634
ENERGY: 1500000 1.4739 5.9444 0.8686 0.0000 -11057.2196 1574.8125 0.0000 0.0000 1743.3315 -7730.7888 292.4768 -9474.1202 -7627.4060 299.5806 914.5393 988.1818 30403.1967 160.8172 221.9901
TCL: Running FEP window  17: Lambda1 0.8000000000000002 Lambda2 0.8500000000000002 [dLambda 0.050000000000000044]
TCL: Setting parameter firsttimestep to 0
TCL: Setting parameter alchLambda to 0.8000000000000002
Info: NONBONDED TABLE R-SQUARED SPACING: 0.0625
Info: NONBONDED TABLE SIZE: 705 POINTS
TCL: Setting parameter alchLambda2 to 0.8500000000000002
Info: NONBONDED TABLE R-SQUARED SPACING: 0.0625
Info: NONBONDED TABLE SIZE: 705 POINTS
TCL: Running for 1500000 steps
ETITLE: TS BOND ANGLE DIHED IMPRP ELECT VDW BOUNDARY MISC KINETIC TOTAL TEMP POTENTIAL TOTALAVG TEMPAVG PRESSURE GPRESSURE VOLUME PRESSAVG GPRESSAVG
ENERGY: 0 1.4739 5.9444 0.8686 0.0000 -11058.3091 1575.0573 0.0000 0.0000 1742.4406 -7732.5243 292.3274 -9474.9649 -7732.5243 292.3274 902.9435 995.7379 30403.1967 902.9435 995.7379
ENERGY: 300000 0.6552 6.2104 0.4662 0.0000 -10878.6516 1501.5625 0.0000 0.0000 1837.9520 -7531.8054 308.3512 -9369.7573 -7615.1066 300.1594 169.1189 320.6331 31120.2995 405.8311 485.9242
ENERGY: 600000 0.6189 3.7312 0.4212 0.0000 -10820.7679 1503.3724 0.0000 0.0000 1796.5042 -7516.1200 301.3976 -9312.6242 -7602.6669 299.7306 551.8614 579.0513 30904.3975 316.3076 377.8021
ENERGY: 900000 1.8305 4.5073 1.0376 0.0000 -10850.4088 1439.4430 0.0000 0.0000 1796.6629 -7606.9277 301.4242 -9403.5905 -7605.3395 299.8488 -114.6146 -17.6156 30661.3185 144.5868 214.8938
ENERGY: 1200000 1.6831 3.4946 1.0511 0.0000 -10857.3678 1445.7234 0.0000 0.0000 1774.9281 -7630.4875 297.7778 -9405.4156 -7594.2492 300.8436 -149.1749 -87.7892 30996.3217 96.2924 170.5515
ENERGY: 1500000 1.2278 9.4166 0.1673 0.0000 -10855.8524 1486.7289 0.0000 0.0000 1824.6120 -7533.6998 306.1132 -9358.3118 -7593.2384 300.9544 647.1961 687.4991 30611.6012 61.5791 135.0106
TCL: Running FEP window  18: Lambda1 0.8500000000000002 Lambda2 0.9000000000000002 [dLambda 0.050000000000000044]
TCL: Setting parameter firsttimestep to 0
TCL: Setting parameter alchLambda to 0.8500000000000002
Info: NONBONDED TABLE R-SQUARED SPACING: 0.0625
Info: NONBONDED TABLE SIZE: 705 POINTS
TCL: Setting parameter alchLambda2 to 0.9000000000000002
Info: NONBONDED TABLE R-SQUARED SPACING: 0.0625
Info: NONBONDED TABLE SIZE: 705 POINTS
TCL: Running for 1500000 steps
ETITLE: TS BOND ANGLE DIHED IMPRP ELECT VDW BOUNDARY MISC KINETIC TOTAL TEMP POTENTIAL TOTALAVG TEMPAVG PRESSURE GPRESSURE VOLUME PRESSAVG GPRESSAVG
ENERGY: 0 1.2278 9.4166 0.1673 0.0000 -10856.4799 1486.9806 0.0000 0.0000 1823.6997 -7534.9879 305.9601 -9358.6876 -7534.9879 305.9601 623.7054 702.1525 30611.6012 623.7054 702.1525
ENERGY: 300000 2.2447 3.4531 0.3512 0.0000 -10914.7776 1513.8116 0.0000 0.0000 1798.7244 -7596.1927 301.7701 -9394.9171 -7576.7643 301.4717 628.1254 698.9969 30648.2719 137.4026 211.7898
ENERGY: 600000 2.1266 4.0233 0.1437 0.0000 -10895.1240 1490.9482 0.0000 0.0000 1787.4951 -7610.3870 299.8861 -9397.8822 -7604.5442 299.7493 233.8400 260.8867 30986.8021 -25.6692 49.4869
ENERGY: 900000 0.5910 2.6694 0.7572 0.0000 -10925.3553 1486.8057 0.0000 0.0000 1762.7517 -7671.7803 295.7350 -9434.5320 -7623.6382 298.0767 249.8752 306.3405 30644.9942 -55.8220 18.9662
ENERGY: 1200000 0.7383 8.9600 0.8983 0.0000 -10779.9819 1394.7451 0.0000 0.0000 1792.6200 -7582.0202 300.7459 -9374.6401 -7625.4543 298.1945 -542.5542 -520.6234 31385.0323 -81.4743 -9.0214
ENERGY: 1500000 2.4573 3.4752 1.2392 0.0000 -10963.5283 1521.9684 0.0000 0.0000 1746.0570 -7688.3313 292.9341 -9434.3883 -7626.9191 298.4266 523.3328 534.3791 30513.8081 -47.5276 20.4256
TCL: Running FEP window  19: Lambda1 0.9000000000000002 Lambda2 0.9500000000000003 [dLambda 0.050000000000000044]
TCL: Setting parameter firsttimestep to 0
TCL: Setting parameter alchLambda to 0.9000000000000002
Info: NONBONDED TABLE R-SQUARED SPACING: 0.0625
Info: NONBONDED TABLE SIZE: 705 POINTS
TCL: Setting parameter alchLambda2 to 0.9500000000000003
Info: NONBONDED TABLE R-SQUARED SPACING: 0.0625
Info: NONBONDED TABLE SIZE: 705 POINTS
TCL: Running for 1500000 steps
ETITLE: TS BOND ANGLE DIHED IMPRP ELECT VDW BOUNDARY MISC KINETIC TOTAL TEMP POTENTIAL TOTALAVG TEMPAVG PRESSURE GPRESSURE VOLUME PRESSAVG GPRESSAVG
ENERGY: 0 2.4573 3.4752 1.2392 0.0000 -10964.2611 1522.7758 0.0000 0.0000 1745.1713 -7689.1423 292.7855 -9434.3136 -7689.1423 292.7855 451.0354 550.1864 30513.8081 451.0354 550.1864
ENERGY: 300000 0.7779 5.4740 0.5724 0.0000 -10864.6583 1445.7074 0.0000 0.0000 1744.5779 -7667.5486 292.6860 -9412.1265 -7652.0909 293.8009 -257.5784 -223.3898 31245.4867 -220.9884 -166.4151
ENERGY: 600000 0.4457 2.9881 0.2075 0.0000 -10884.9303 1451.6172 0.0000 0.0000 1756.5910 -7673.0808 294.7014 -9429.6718 -7654.9999 294.0602 -138.5285 -56.5443 30941.0247 -252.4340 -186.5029
ENERGY: 900000 1.6480 5.9322 0.3479 0.0000 -10855.7138 1412.8749 0.0000 0.0000 1791.6459 -7643.2651 300.5825 -9434.9110 -7657.5924 295.6076 -499.7027 -464.4618 31054.0065 -201.4236 -132.8468
ENERGY: 1200000 1.2968 6.2237 0.5593 0.0000 -10816.9992 1424.2564 0.0000 0.0000 1801.5554 -7583.1076 302.2450 -9384.6631 -7640.2618 297.4112 55.0033 112.1701 30650.6956 -190.0274 -119.8939
ENERGY: 1500000 0.7828 4.1190 0.0453 0.0000 -10769.1126 1393.7502 0.0000 0.0000 1784.6059 -7585.8094 299.4014 -9370.4153 -7635.6192 296.9898 -633.4895 -572.9110 31159.3082 -86.1612 -20.8571
TCL: Running FEP window  20: Lambda1 0.9500000000000003 Lambda2 1.0    [dLambda 0.04999999999999971]
TCL: Setting parameter firsttimestep to 0
TCL: Setting parameter alchLambda to 0.9500000000000003
Info: NONBONDED TABLE R-SQUARED SPACING: 0.0625
Info: NONBONDED TABLE SIZE: 705 POINTS
TCL: Setting parameter alchLambda2 to 1.0
Info: NONBONDED TABLE R-SQUARED SPACING: 0.0625
Info: NONBONDED TABLE SIZE: 705 POINTS
TCL: Running for 1500000 steps
ETITLE: TS BOND ANGLE DIHED IMPRP ELECT VDW BOUNDARY MISC KINETIC TOTAL TEMP POTENTIAL TOTALAVG TEMPAVG PRESSURE GPRESSURE VOLUME PRESSAVG GPRESSAVG
ENERGY: 0 0.7828 4.1190 0.0453 0.0000 -10769.8654 1394.5426 0.0000 0.0000 1783.7192 -7586.6565 299.2527 -9370.3757 -7586.6565 299.2527 -639.8345 -554.8566 31159.3082 -639.8345 -554.8566
ENERGY: 300000 2.1450 4.1367 0.8590 0.0000 -10938.4794 1510.5068 0.0000 0.0000 1800.6309 -7620.2009 302.0899 -9420.8318 -7564.1771 301.5236 485.5865 518.5662 30748.3154 167.5686 199.8205
ENERGY: 600000 1.9172 8.0988 0.2980 0.0000 -10838.5420 1446.3215 0.0000 0.0000 1754.9891 -7626.9175 294.4326 -9381.9066 -7582.3818 300.0676 -282.3435 -236.1868 31453.0186 -53.9609 -15.4546
ENERGY: 900000 1.1579 6.7236 0.8467 0.0000 -10838.5530 1449.5464 0.0000 0.0000 1849.3166 -7530.9618 310.2579 -9380.2785 -7574.8684 300.1143 12.7450 153.5423 30603.4415 -134.2049 -85.2442
ENERGY: 1200000 2.0516 3.8490 1.1303 0.0000 -10873.9942 1425.6999 0.0000 0.0000 1809.5504 -7631.7130 303.5863 -9441.2634 -7574.0726 301.2214 -123.7384 -89.8999 30724.6766 -55.1721 -7.3185
ENERGY: 1500000 0.9222 5.2503 0.0817 0.0000 -10780.8318 1375.1898 0.0000 0.0000 1791.2776 -7608.1102 300.5207 -9399.3878 -7601.7005 300.4397 -747.3112 -575.4591 31022.0081 -125.9656 -67.6478
TCL: Exiting due to exit command.
