Info: SIMULATION PARAMETERS:
Info: TIMESTEP               2
Info: NUMBER OF STEPS        0
Info: STEPS PER CYCLE        10
Info: PERIODIC CELL BASIS 1  30.6792 0 0
Info: PERIODIC CELL BASIS 2  0 29.5741 0
Info: PERIODIC CELL BASIS 3  0 0 33.1621
Info: PERIODIC CELL CENTER   0 0 0
Info: WRAPPING WATERS AROUND PERIODIC BOUNDARIES ON OUTPUT.
Info: WRAPPING ALL CLUSTERS AROUND PERIODIC BOUNDARIES ON OUTPUT.
Info: FIRST LDB TIMESTEP     50
Info: LAST LDB TIMESTEP     -1
Info: HOM BACKGROUND SCALING 1
Info: PME BACKGROUND SCALING 1
Info: MIN ATOMS PER PATCH    40
Info: EMPTY PATCH LOAD       40 ATOMS
Info: VELOCITY FILE          mobley_7295828_equil.vel
Info: CENTER OF MASS MOVING INITIALLY? NO
Info: DIELECTRIC             1
Info: EXCLUDE                SCALED ONE-FOUR
Info: 1-4 ELECTROSTATICS SCALED BY 0.833333
Info: MODIFIED 1-4 VDW PARAMETERS WILL BE USED
Info: DCD FILENAME           mobley_7295828_prod.dcd
Info: DCD FREQUENCY          100000
Info: DCD FIRST STEP         100000
Info: DCD FILE WILL CONTAIN UNIT CELL DATA
Info: XST FILENAME           mobley_7295828_prod.xst
Info: XST FREQUENCY          100000
Info: NO VELOCITY DCD OUTPUT
Info: NO FORCE DCD OUTPUT
Info: OUTPUT FILENAME        mobley_7295828_prod
Info: BINARY OUTPUT FILES WILL BE USED
Info: RESTART FILENAME       mobley_7295828_prod.restart
Info: RESTART FREQUENCY      100000
Info: BINARY RESTART FILES WILL BE USED
Info: CUTOFF                 9
Info: PAIRLIST DISTANCE      11
Info: PAIRLIST SHRINK RATE   0.01
Info: PAIRLIST GROW RATE     0.01
Info: PAIRLIST TRIGGER       0.3
Info: PAIRLISTS PER CYCLE    2
Info: PAIRLISTS ENABLED
Info: MARGIN                 2
Info: HYDROGEN GROUP CUTOFF  2.5
Info: PATCH DIMENSION        15.5
Info: ENERGY OUTPUT STEPS    100000
Info: ENERGY EVALUATION STEPS    100000
Info: OUTPUT ENERGY PRECISION 4
Info: CROSSTERM ENERGY INCLUDED IN DIHEDRAL
Info: TIMING OUTPUT STEPS    1000000
Info: PRESSURE OUTPUT STEPS  100000
Info: ALCHEMICAL FEP ON
Info: FEP CURRENT LAMBDA VALUE     0
Info: FEP COMPARISON LAMBDA VALUE  0.05
Info: FEP INTRA-ALCHEMICAL NON-BONDED INTERACTIONS WILL BE RETAINED
Info: FEP INTRA-ALCHEMICAL BONDED INTERACTIONS WILL BE RETAINED
Info: FEP VDW SHIFTING COEFFICIENT 5
Info: FEP ELEC. ACTIVE FOR ANNIHILATED PARTICLES BETWEEN LAMBDA = 0 AND LAMBDA = 0.5
Info: FEP ELEC. ACTIVE FOR EXNIHILATED PARTICLES BETWEEN LAMBDA = 0.5 AND LAMBDA = 1
Info: FEP VDW ACTIVE FOR ANNIHILATED PARTICLES BETWEEN LAMBDA = 0 AND LAMBDA = 1
Info: FEP VDW ACTIVE FOR EXNIHILATED PARTICLES BETWEEN LAMBDA = 0 AND LAMBDA = 1
Info: FEP BOND ACTIVE FOR ANNIHILATED PARTICLES BETWEEN LAMBDA = 1 AND LAMBDA = 1
Info: FEP BOND ACTIVE FOR EXNIHILATED PARTICLES BETWEEN LAMBDA = 0 AND LAMBDA = 0
Info: LANGEVIN DYNAMICS ACTIVE
Info: LANGEVIN TEMPERATURE   300
Info: LANGEVIN USING BBK INTEGRATOR
Info: LANGEVIN DAMPING COEFFICIENT IS 1 INVERSE PS
Info: LANGEVIN DYNAMICS APPLIED TO HYDROGENS
Info: LANGEVIN PISTON PRESSURE CONTROL ACTIVE
Info:        TARGET PRESSURE IS 1.01325 BAR
Info:     OSCILLATION PERIOD IS 50 FS
Info:             DECAY TIME IS 25 FS
Info:     PISTON TEMPERATURE IS 300 K
Info:       PRESSURE CONTROL IS GROUP-BASED
Info:    INITIAL STRAIN RATE IS 0.000122567 0.000122567 0.000122567
Info:       CELL FLUCTUATION IS ISOTROPIC
Info: PARTICLE MESH EWALD (PME) ACTIVE
Info: PME TOLERANCE               1e-06
Info: PME EWALD COEFFICIENT       0.348832
Info: PME INTERPOLATION ORDER     4
Info: PME GRID DIMENSIONS         32 32 36
Info: PME MAXIMUM GRID SPACING    1
Info: PME CALCULATION WILL BE PERFORMED ON GPU
Info: FULL ELECTROSTATIC EVALUATION FREQUENCY      2
Info: USING VERLET I (r-RESPA) MTS SCHEME.
Info: C1 SPLITTING OF LONG RANGE ELECTROSTATICS
Info: PLACING ATOMS IN PATCHES BY HYDROGEN GROUPS
Info: RIGID BONDS TO HYDROGEN : ALL
Info:         ERROR TOLERANCE : 1e-08
Info:          MAX ITERATIONS : 100
Info: RIGID WATER USING SETTLE ALGORITHM
Info: RANDOM NUMBER SEED     1743763567
Info: USE HYDROGEN BONDS?    NO
Info: Using AMBER format force field!
Info: AMBER PARM FILE        mobley_7295828.prmtop
Info: COORDINATE PDB         mobley_7295828.pdb
Info: Exclusions will be read from PARM file!
Info: SCNB (VDW SCALING)     2
Info: USING ARITHMETIC MEAN TO COMBINE L-J SIGMA PARAMETERS
Info: BINARY COORDINATES     mobley_7295828_equil.coor
Info: SUMMARY OF PARAMETERS:
Info: 7 BONDS
Info: 6 ANGLES
Info:   6 HARMONIC
Info:   0 COSINE-BASED
Info: 4 DIHEDRAL
Info: 0 IMPROPER
Info: 0 CROSSTERM
Info: 0 VDW
Info: 28 VDW_PAIRS
Info: 0 NBTHOLE_PAIRS
Info: To read alchdata from file: mobley_7295828.pdb
Info: To read alchflag data from column: 5
Info: STRUCTURE SUMMARY:
Info: 2935 ATOMS
Info: 2935 BONDS
Info: 25 ANGLES
Info: 35 DIHEDRALS
Info: 0 IMPROPERS
Info: 0 CROSSTERMS
Info: 2986 EXCLUSIONS
Info: 2927 RIGID BONDS
Info: ALCH: 0 ATOMS TO DISAPPEAR IN FINAL STATE
Info: ALCH: 16 ATOMS TO APPEAR IN FINAL STATE
Info: 5878 DEGREES OF FREEDOM
Info: 981 HYDROGEN GROUPS
Info: 4 ATOMS IN LARGEST HYDROGEN GROUP
Info: 981 MIGRATION GROUPS
Info: 4 ATOMS IN LARGEST MIGRATION GROUP
Info: TOTAL MASS = 17637.7 amu
Info: TOTAL CHARGE = -0.000100031 e
Info: MASS DENSITY = 0.973428 g/cm^3
Info: ATOM DENSITY = 0.0975463 atoms/A^3
Info: ADDED 0 IMPLICIT EXCLUSIONS
Info: NONBONDED TABLE R-SQUARED SPACING: 0.0625
Info: NONBONDED TABLE SIZE: 705 POINTS
Info: REMOVING COM VELOCITY 0.0910198 0.145116 0.189306
Info: Use 3D box decompostion in PME FFT.
Info: Updated CUDA force table with 4096 elements.
Info: Updated CUDA LJ table with 7 x 7 elements.
Info: Found 15 unique exclusion lists needing 36 bytes
TCL: Running for 1500000 steps
ETITLE: TS BOND ANGLE DIHED IMPRP ELECT VDW BOUNDARY MISC KINETIC TOTAL TEMP POTENTIAL TOTALAVG TEMPAVG PRESSURE GPRESSURE VOLUME PRESSAVG GPRESSAVG
ENERGY: 0 2.5863 5.4308 1.2559 0.0000 -10538.2975 1362.4313 0.0000 0.0000 1769.5024 -7397.0907 302.9786 -9166.5932 -7397.0907 302.9786 -380.7754 -302.8921 30088.2885 -380.7754 -302.8921
ENERGY: 300000 1.1268 4.8108 5.6743 0.0000 -10672.3903 1491.0851 0.0000 0.0000 1746.5953 -7423.0981 299.0564 -9169.6934 -7393.9444 301.1203 430.3612 504.6870 30305.2808 -13.6156 62.2847
ENERGY: 600000 2.8277 5.6629 2.6619 0.0000 -10714.9466 1469.1442 0.0000 0.0000 1738.8767 -7495.7732 297.7348 -9234.6499 -7426.4571 301.4038 261.7051 327.0169 29558.4390 -140.2681 -78.4864
ENERGY: 900000 2.2385 6.8717 3.1228 0.0000 -10683.9190 1410.6666 0.0000 0.0000 1739.2625 -7521.7570 297.8008 -9261.0194 -7448.3950 300.7166 -483.5730 -408.6107 29944.3360 -207.9507 -139.2103
ENERGY: 1200000 2.2984 3.5186 1.4831 0.0000 -10614.4985 1427.1836 0.0000 0.0000 1754.3135 -7425.7012 300.3779 -9180.0147 -7453.0201 300.0588 -206.0902 -59.5030 30276.6066 -113.3227 -38.8664
ENERGY: 1500000 1.2512 5.2602 5.0047 0.0000 -10702.2005 1509.2422 0.0000 0.0000 1789.9070 -7391.5353 306.4723 -9181.4423 -7456.2035 300.2677 582.4108 591.6567 30274.6955 -57.6679 11.1245
TCL: Running FEP window   2: Lambda1 0.05   Lambda2 0.1    [dLambda 0.05  ]
TCL: Setting parameter firsttimestep to 0
TCL: Setting parameter alchLambda to 0.05
Info: NONBONDED TABLE R-SQUARED SPACING: 0.0625
Info: NONBONDED TABLE SIZE: 705 POINTS
TCL: Setting parameter alchLambda2 to 0.1
Info: NONBONDED TABLE R-SQUARED SPACING: 0.0625
Info: NONBONDED TABLE SIZE: 705 POINTS
TCL: Running for 1500000 steps
ETITLE: TS BOND ANGLE DIHED IMPRP ELECT VDW BOUNDARY MISC KINETIC TOTAL TEMP POTENTIAL TOTALAVG TEMPAVG PRESSURE GPRESSURE VOLUME PRESSAVG GPRESSAVG
ENERGY: 0 1.2512 5.2602 5.0047 0.0000 -10702.2004 1510.2800 0.0000 0.0000 1789.0306 -7391.3739 306.3223 -9180.4044 -7391.3739 306.3223 513.5134 598.4642 30274.6955 513.5134 598.4642
ENERGY: 300000 2.9271 2.6493 7.5635 0.0000 -10649.8723 1435.8395 0.0000 0.0000 1725.4250 -7475.4679 295.4316 -9200.8929 -7427.0710 301.1266 119.6847 149.0255 29574.1256 -10.5926 69.0047
ENERGY: 600000 5.6913 6.2243 4.0097 0.0000 -10691.6252 1445.8186 0.0000 0.0000 1776.1856 -7453.6957 304.1229 -9229.8813 -7425.8318 301.9880 141.9522 167.9494 29716.4192 -88.7444 -30.0077
ENERGY: 900000 5.5167 5.9926 2.2913 0.0000 -10600.0041 1367.5473 0.0000 0.0000 1769.0592 -7449.5969 302.9027 -9218.6561 -7423.8818 301.8393 -660.3754 -601.4978 30024.5950 -104.9056 -51.3446
ENERGY: 1200000 2.2281 2.6748 6.1256 0.0000 -10649.7583 1427.8282 0.0000 0.0000 1738.1271 -7472.7745 297.6065 -9210.9016 -7423.1940 301.6187 -294.5396 -243.0974 30071.5378 -111.4516 -51.2742
ENERGY: 1500000 1.5304 4.4203 2.5182 0.0000 -10613.9222 1390.8611 0.0000 0.0000 1791.3696 -7423.2226 306.7228 -9214.5922 -7435.0793 300.5189 -224.7910 -191.6906 29860.9503 -140.7244 -84.7947
TCL: Running FEP window   3: Lambda1 0.1    Lambda2 0.15000000000000002 [dLambda 0.05000000000000002]
TCL: Setting parameter firsttimestep to 0
TCL: Setting parameter alchLambda to 0.1
Info: NONBONDED TABLE R-SQUARED SPACING: 0.0625
Info: NONBONDED TABLE SIZE: 705 POINTS
TCL: Setting parameter alchLambda2 to 0.15000000000000002
Info: NONBONDED TABLE R-SQUARED SPACING: 0.0625
Info: NONBONDED TABLE SIZE: 705 POINTS
TCL: Running for 1500000 steps
ETITLE: TS BOND ANGLE DIHED IMPRP ELECT VDW BOUNDARY MISC KINETIC TOTAL TEMP POTENTIAL TOTALAVG TEMPAVG PRESSURE GPRESSURE VOLUME PRESSAVG GPRESSAVG
ENERGY: 0 1.5304 4.4203 2.5182 0.0000 -10613.9212 1392.3188 0.0000 0.0000 1790.4865 -7422.6470 306.5716 -9213.1335 -7422.6470 306.5716 -277.5935 -186.0606 29860.9503 -277.5935 -186.0606
ENERGY: 300000 1.8191 7.2073 4.6200 0.0000 -10546.3880 1361.3332 0.0000 0.0000 1792.0072 -7379.4012 306.8319 -9171.4084 -7422.0037 302.8962 -606.9162 -540.4623 30493.9176 -153.0990 -64.2069
ENERGY: 600000 4.0671 4.0754 4.8560 0.0000 -10621.3507 1394.6773 0.0000 0.0000 1775.9397 -7437.7352 304.0808 -9213.6749 -7417.9054 304.2618 -500.6454 -470.6866 29959.5579 -243.2776 -157.7781
ENERGY: 900000 1.0277 5.9654 5.6946 0.0000 -10521.9510 1404.4724 0.0000 0.0000 1836.4108 -7268.3800 314.4348 -9104.7908 -7403.9458 304.7776 162.2052 174.3795 30033.8775 -212.5354 -132.2080
ENERGY: 1200000 1.2010 3.3108 4.5778 0.0000 -10696.6712 1453.2996 0.0000 0.0000 1773.6755 -7460.6066 303.6931 -9234.2820 -7408.4037 304.4683 102.8089 117.7561 30016.7058 -156.4642 -82.0848
ENERGY: 1500000 2.5750 8.0984 8.4655 0.0000 -10571.3361 1397.6212 0.0000 0.0000 1784.4741 -7370.1019 305.5421 -9154.5759 -7409.6282 303.8326 -201.8558 -127.8782 30184.7628 -85.6413 -19.3654
TCL: Running FEP window   4: Lambda1 0.15000000000000002 Lambda2 0.2    [dLambda 0.04999999999999999]
TCL: Setting parameter firsttimestep to 0
TCL: Setting parameter alchLambda to 0.15000000000000002
Info: NONBONDED TABLE R-SQUARED SPACING: 0.0625
Info: NONBONDED TABLE SIZE: 705 POINTS
TCL: Setting parameter alchLambda2 to 0.2
Info: NONBONDED TABLE R-SQUARED SPACING: 0.0625
Info: NONBONDED TABLE SIZE: 705 POINTS
TCL: Running for 1500000 steps
ETITLE: TS BOND ANGLE DIHED IMPRP ELECT VDW BOUNDARY MISC KINETIC TOTAL TEMP POTENTIAL TOTALAVG TEMPAVG PRESSURE GPRESSURE VOLUME PRESSAVG GPRESSAVG
ENERGY: 0 2.5750 8.0984 8.4655 0.0000 -10571.3350 1399.1775 0.0000 0.0000 1783.6342 -7369.3845 305.3983 -9153.0187 -7369.3845 305.3983 -213.0704 -119.4004 30184.7628 -213.0704 -119.4004
ENERGY: 300000 3.3650 6.7320 3.6795 0.0000 -10729.5164 1474.3265 0.0000 0.0000 1795.6069 -7445.8065 307.4483 -9241.4133 -7436.6225 302.1533 -166.4819 -90.4584 30544.1151 -29.4549 34.6178
ENERGY: 600000 2.4101 5.8866 1.3482 0.0000 -10656.0535 1472.8163 0.0000 0.0000 1760.8400 -7412.7523 301.4954 -9173.5923 -7447.2853 301.4918 -52.0740 -5.5623 30563.0051 -227.9598 -174.8690
ENERGY: 900000 1.4643 3.2671 2.7554 0.0000 -10616.3219 1390.9106 0.0000 0.0000 1740.2078 -7477.7167 297.9627 -9217.9245 -7443.9641 300.4695 -54.5425 -9.8211 29430.5807 -88.7665 -32.1798
ENERGY: 1200000 1.1582 7.9768 3.4725 0.0000 -10542.3695 1376.9255 0.0000 0.0000 1773.8291 -7379.0074 303.7194 -9152.8365 -7442.9972 300.5387 -450.2293 -390.4496 30276.9186 -131.8050 -72.2398
ENERGY: 1500000 2.9041 5.3320 6.8713 0.0000 -10693.8303 1492.8149 0.0000 0.0000 1727.2488 -7458.6592 295.7438 -9185.9080 -7444.9305 300.0144 125.1533 265.8714 30161.8472 -81.1550 -15.7472
TCL: Running FEP window   5: Lambda1 0.2    Lambda2 0.25   [dLambda 0.04999999999999999]
TCL: Setting parameter firsttimestep to 0
TCL: Setting parameter alchLambda to 0.2
Info: NONBONDED TABLE R-SQUARED SPACING: 0.0625
Info: NONBONDED TABLE SIZE: 705 POINTS
TCL: Setting parameter alchLambda2 to 0.25
Info: NONBONDED TABLE R-SQUARED SPACING: 0.0625
Info: NONBONDED TABLE SIZE: 705 POINTS
TCL: Running for 1500000 steps
ETITLE: TS BOND ANGLE DIHED IMPRP ELECT VDW BOUNDARY MISC KINETIC TOTAL TEMP POTENTIAL TOTALAVG TEMPAVG PRESSURE GPRESSURE VOLUME PRESSAVG GPRESSAVG
ENERGY: 0 2.9041 5.3320 6.8713 0.0000 -10693.8302 1492.5946 0.0000 0.0000 1726.3647 -7459.7634 295.5925 -9186.1281 -7459.7634 295.5925 181.9102 266.3420 30161.8472 181.9102 266.3420
ENERGY: 300000 4.0568 6.4846 3.0787 0.0000 -10631.7341 1418.3853 0.0000 0.0000 1730.6684 -7469.0603 296.3294 -9199.7287 -7486.9652 294.9714 -134.6177 -160.5096 30137.8128 -55.7611 -4.4717
ENERGY: 600000 1.5679 3.8391 2.1220 0.0000 -10516.0505 1310.3258 0.0000 0.0000 1711.2514 -7486.9443 293.0047 -9198.1957 -7450.7232 296.5567 -1105.6770 -1063.8234 30446.9588 -177.6784 -113.1789
ENERGY: 900000 3.5832 6.0748 6.0264 0.0000 -10560.3045 1394.6732 0.0000 0.0000 1709.2329 -7440.7140 292.6591 -9149.9469 -7451.8594 295.9939 -183.1048 -109.4593 29940.1017 -218.0410 -155.9815
ENERGY: 1200000 0.7017 6.0397 0.9767 0.0000 -10489.1339 1364.6619 0.0000 0.0000 1751.7954 -7364.9585 299.9468 -9116.7539 -7440.8571 296.8546 -195.9387 -59.8586 30007.4150 -201.7676 -136.2689
ENERGY: 1500000 2.8935 6.7726 4.4488 0.0000 -10734.5461 1543.7745 0.0000 0.0000 1750.2586 -7426.3980 299.6836 -9176.6567 -7436.8227 297.7065 862.8656 898.4889 30279.6301 -166.9799 -106.9987
TCL: Running FEP window   6: Lambda1 0.25   Lambda2 0.3    [dLambda 0.04999999999999999]
TCL: Setting parameter firsttimestep to 0
TCL: Setting parameter alchLambda to 0.25
Info: NONBONDED TABLE R-SQUARED SPACING: 0.0625
Info: NONBONDED TABLE SIZE: 705 POINTS
TCL: Setting parameter alchLambda2 to 0.3
Info: NONBONDED TABLE R-SQUARED SPACING: 0.0625
Info: NONBONDED TABLE SIZE: 705 POINTS
TCL: Running for 1500000 steps
ETITLE: TS BOND ANGLE DIHED IMPRP ELECT VDW BOUNDARY MISC KINETIC TOTAL TEMP POTENTIAL TOTALAVG TEMPAVG PRESSURE GPRESSURE VOLUME PRESSAVG GPRESSAVG
ENERGY: 0 2.8935 6.7726 4.4488 0.0000 -10734.5456 1544.0592 0.0000 0.0000 1749.3904 -7426.9811 299.5350 -9176.3715 -7426.9811 299.5350 815.2065 901.0602 30279.6301 815.2065 901.0602
ENERGY: 300000 2.3935 3.3335 1.8541 0.0000 -10628.2990 1461.9974 0.0000 0.0000 1752.0778 -7406.6427 299.9951 -9158.7205 -7420.7348 303.2507 624.2934 668.6641 29644.3627 -58.6345 4.6052
ENERGY: 600000 4.7181 5.3698 4.7287 0.0000 -10515.2644 1381.5524 0.0000 0.0000 1784.8803 -7334.0151 305.6116 -9118.8954 -7428.4081 300.6790 -527.9407 -464.5934 30475.6435 -102.8034 -46.7250
ENERGY: 900000 0.7122 7.9135 4.2620 0.0000 -10700.7878 1430.4379 0.0000 0.0000 1767.9533 -7489.5089 302.7134 -9257.4622 -7430.4909 301.4464 -64.5697 -13.9720 29806.7454 -73.3947 -11.6992
ENERGY: 1200000 2.6409 9.0504 2.8904 0.0000 -10664.1904 1457.8330 0.0000 0.0000 1777.3023 -7414.4735 304.3141 -9191.7758 -7435.1713 300.9790 229.9501 228.4858 30145.7221 -107.3455 -54.0804
ENERGY: 1500000 3.1457 3.7301 7.8393 0.0000 -10640.7834 1431.2737 0.0000 0.0000 1759.2824 -7435.5121 301.2287 -9194.7945 -7434.8604 301.4648 -236.3210 -163.3390 30264.3609 -152.8263 -95.7786
TCL: Running FEP window   7: Lambda1 0.3    Lambda2 0.35   [dLambda 0.04999999999999999]
TCL: Setting parameter firsttimestep to 0
TCL: Setting parameter alchLambda to 0.3
Info: NONBONDED TABLE R-SQUARED SPACING: 0.0625
Info: NONBONDED TABLE SIZE: 705 POINTS
TCL: Setting parameter alchLambda2 to 0.35
Info: NONBONDED TABLE R-SQUARED SPACING: 0.0625
Info: NONBONDED TABLE SIZE: 705 POINTS
TCL: Running for 1500000 steps
ETITLE: TS BOND ANGLE DIHED IMPRP ELECT VDW BOUNDARY MISC KINETIC TOTAL TEMP POTENTIAL TOTALAVG TEMPAVG PRESSURE GPRESSURE VOLUME PRESSAVG GPRESSAVG
ENERGY: 0 3.1457 3.7301 7.8393 0.0000 -10640.7820 1430.9748 0.0000 0.0000 1758.4290 -7436.6630 301.0826 -9195.0920 -7436.6630 301.0826 -249.1563 -161.9578 30264.3609 -249.1563 -161.9578
ENERGY: 300000 1.0699 7.7440 4.4592 0.0000 -10670.3863 1438.2743 0.0000 0.0000 1723.7821 -7495.0568 295.1503 -9218.8389 -7450.7035 301.3096 205.7586 273.4357 29852.9547 150.8371 221.3083
ENERGY: 600000 1.8471 4.6653 6.4536 0.0000 -10652.3779 1394.0851 0.0000 0.0000 1729.0455 -7516.2814 296.0515 -9245.3269 -7451.4665 300.5414 -614.1250 -491.5139 30043.6758 110.5594 181.3815
ENERGY: 900000 4.2194 3.3276 4.0543 0.0000 -10434.7341 1317.9743 0.0000 0.0000 1757.4975 -7347.6611 300.9231 -9105.1586 -7437.6332 300.3955 -862.4867 -855.7690 30491.1932 -67.9237 -8.9564
ENERGY: 1200000 1.7088 5.3189 3.9209 0.0000 -10694.7157 1457.2612 0.0000 0.0000 1798.5678 -7427.9381 307.9553 -9226.5059 -7436.1245 300.5138 36.5462 109.8087 30134.3913 -68.6844 -11.9809
ENERGY: 1500000 3.5265 3.4672 0.8178 0.0000 -10542.4186 1374.4925 0.0000 0.0000 1733.4275 -7426.6870 296.8018 -9160.1146 -7434.6573 300.0121 -467.4849 -340.7449 30308.4213 -10.9821 50.6456
TCL: Running FEP window   8: Lambda1 0.35   Lambda2 0.39999999999999997 [dLambda 0.04999999999999999]
TCL: Setting parameter firsttimestep to 0
TCL: Setting parameter alchLambda to 0.35
Info: NONBONDED TABLE R-SQUARED SPACING: 0.0625
Info: NONBONDED TABLE SIZE: 705 POINTS
TCL: Setting parameter alchLambda2 to 0.39999999999999997
Info: NONBONDED TABLE R-SQUARED SPACING: 0.0625
Info: NONBONDED TABLE SIZE: 705 POINTS
TCL: Running for 1500000 steps
ETITLE: TS BOND ANGLE DIHED IMPRP ELECT VDW BOUNDARY MISC KINETIC TOTAL TEMP POTENTIAL TOTALAVG TEMPAVG PRESSURE GPRESSURE VOLUME PRESSAVG GPRESSAVG
ENERGY: 0 3.5265 3.4672 0.8178 0.0000 -10542.4183 1374.0784 0.0000 0.0000 1732.5458 -7427.9825 296.6508 -9160.5283 -7427.9825 296.6508 -431.3886 -339.3515 30308.4213 -431.3886 -339.3515
ENERGY: 300000 0.9889 6.3236 4.0693 0.0000 -10630.0135 1385.5300 0.0000 0.0000 1732.9180 -7500.1836 296.7145 -9233.1016 -7467.3067 298.9514 -653.9884 -584.5869 30355.5920 -491.8256 -423.7408
ENERGY: 600000 1.4440 6.9232 3.2105 0.0000 -10690.4284 1437.8477 0.0000 0.0000 1734.8843 -7506.1187 297.0512 -9241.0030 -7473.2206 298.9870 -361.9798 -224.5534 30357.0674 -331.0192 -249.6649
ENERGY: 900000 0.9725 11.9657 2.6082 0.0000 -10734.1902 1473.8102 0.0000 0.0000 1754.0778 -7490.7559 300.3376 -9244.8337 -7470.4476 298.5051 381.1163 395.1929 29782.0957 -374.7607 -303.8915
ENERGY: 1200000 2.8488 3.8384 2.9801 0.0000 -10694.9672 1475.1864 0.0000 0.0000 1699.5455 -7510.5679 291.0004 -9210.1134 -7467.6933 298.5035 117.4798 226.0243 30298.2447 -299.4617 -224.5683
ENERGY: 1500000 2.7282 5.8994 6.7885 0.0000 -10650.5776 1448.8727 0.0000 0.0000 1801.1121 -7385.1767 308.3909 -9186.2888 -7460.5256 299.0875 -156.9520 -93.3734 30545.4226 -315.1120 -245.7462
TCL: Running FEP window   9: Lambda1 0.39999999999999997 Lambda2 0.44999999999999996 [dLambda 0.04999999999999999]
TCL: Setting parameter firsttimestep to 0
TCL: Setting parameter alchLambda to 0.39999999999999997
Info: NONBONDED TABLE R-SQUARED SPACING: 0.0625
Info: NONBONDED TABLE SIZE: 705 POINTS
TCL: Setting parameter alchLambda2 to 0.44999999999999996
Info: NONBONDED TABLE R-SQUARED SPACING: 0.0625
Info: NONBONDED TABLE SIZE: 705 POINTS
TCL: Running for 1500000 steps
ETITLE: TS BOND ANGLE DIHED IMPRP ELECT VDW BOUNDARY MISC KINETIC TOTAL TEMP POTENTIAL TOTALAVG TEMPAVG PRESSURE GPRESSURE VOLUME PRESSAVG GPRESSAVG
ENERGY: 0 2.7282 5.8994 6.7885 0.0000 -10650.5776 1449.4440 0.0000 0.0000 1800.2669 -7385.4506 308.2462 -9185.7174 -7385.4506 308.2462 -176.2102 -84.3727 30545.4226 -176.2102 -84.3727
ENERGY: 300000 1.4792 3.3680 8.2830 0.0000 -10616.9811 1419.0403 0.0000 0.0000 1744.6295 -7440.1811 298.7198 -9184.8106 -7377.3472 304.7568 74.6991 70.1629 29897.7057 -209.7435 -178.5455
ENERGY: 600000 3.4533 5.0770 3.1139 0.0000 -10725.0114 1505.2424 0.0000 0.0000 1789.3287 -7418.7960 306.3733 -9208.1248 -7386.3272 304.9705 331.9001 354.5312 30492.1727 44.0696 72.5509
ENERGY: 900000 1.5855 3.8356 5.6213 0.0000 -10582.4964 1375.9371 0.0000 0.0000 1766.8355 -7428.6814 302.5220 -9195.5169 -7398.8893 304.4040 -297.5011 -250.2927 29872.1101 -98.5557 -64.8520
ENERGY: 1200000 2.1997 2.6966 3.8205 0.0000 -10707.5629 1462.1199 0.0000 0.0000 1747.2283 -7489.4980 299.1648 -9236.7263 -7418.8714 302.9748 250.6655 290.4351 29672.0993 -62.5958 -28.9355
ENERGY: 1500000 4.5965 5.4126 2.9951 0.0000 -10561.4856 1342.1531 0.0000 0.0000 1760.7308 -7445.5975 301.4767 -9206.3282 -7420.7574 303.4433 -735.6118 -593.0538 29913.2907 -84.9320 -45.0154
TCL: Running FEP window  10: Lambda1 0.44999999999999996 Lambda2 0.49999999999999994 [dLambda 0.04999999999999999]
TCL: Setting parameter firsttimestep to 0
TCL: Setting parameter alchLambda to 0.44999999999999996
Info: NONBONDED TABLE R-SQUARED SPACING: 0.0625
Info: NONBONDED TABLE SIZE: 705 POINTS
TCL: Setting parameter alchLambda2 to 0.49999999999999994
Info: NONBONDED TABLE R-SQUARED SPACING: 0.0625
Info: NONBONDED TABLE SIZE: 705 POINTS
TCL: Running for 1500000 steps
ETITLE: TS BOND ANGLE DIHED IMPRP ELECT VDW BOUNDARY MISC KINETIC TOTAL TEMP POTENTIAL TOTALAVG TEMPAVG PRESSURE GPRESSURE VOLUME PRESSAVG GPRESSAVG
ENERGY: 0 4.5965 5.4126 2.9951 0.0000 -10561.4853 1341.7910 0.0000 0.0000 1759.8852 -7446.8049 301.3319 -9206.6901 -7446.8049 301.3319 -668.0838 -589.8752 29913.2907 -668.0838 -589.8752
ENERGY: 300000 1.4686 5.4487 6.4391 0.0000 -10626.7349 1499.8311 0.0000 0.0000 1780.4855 -7333.0619 304.8591 -9113.5474 -7400.9481 302.9853 578.7105 687.6300 30253.8133 -60.4369 4.3727
ENERGY: 600000 1.4491 3.5342 5.1563 0.0000 -10467.4676 1351.9350 0.0000 0.0000 1767.2668 -7338.1262 302.5958 -9105.3930 -7381.3437 302.9341 -465.8997 -365.9422 30308.7314 -17.1727 58.6584
ENERGY: 900000 1.0847 5.3225 3.4291 0.0000 -10632.3571 1423.5806 0.0000 0.0000 1770.6287 -7428.3115 303.1715 -9198.9403 -7381.0759 302.2796 199.3622 168.8300 29784.2528 9.9712 72.6929
ENERGY: 1200000 1.1703 4.3399 2.3959 0.0000 -10661.6959 1413.4998 0.0000 0.0000 1705.9759 -7534.3142 292.1014 -9240.2901 -7401.7815 301.7877 260.2862 320.8163 29420.4563 88.4636 150.2305
ENERGY: 1500000 2.6039 3.2314 4.4795 0.0000 -10530.1550 1349.3215 0.0000 0.0000 1803.2359 -7367.2828 308.7545 -9170.5187 -7388.7386 302.8784 -523.7965 -466.8731 30141.5744 -13.9436 48.8105
TCL: Running FEP window  11: Lambda1 0.49999999999999994 Lambda2 0.5499999999999999 [dLambda 0.04999999999999999]
TCL: Setting parameter firsttimestep to 0
TCL: Setting parameter alchLambda to 0.49999999999999994
Info: NONBONDED TABLE R-SQUARED SPACING: 0.0625
Info: NONBONDED TABLE SIZE: 705 POINTS
TCL: Setting parameter alchLambda2 to 0.5499999999999999
Info: NONBONDED TABLE R-SQUARED SPACING: 0.0625
Info: NONBONDED TABLE SIZE: 705 POINTS
TCL: Running for 1500000 steps
ETITLE: TS BOND ANGLE DIHED IMPRP ELECT VDW BOUNDARY MISC KINETIC TOTAL TEMP POTENTIAL TOTALAVG TEMPAVG PRESSURE GPRESSURE VOLUME PRESSAVG GPRESSAVG
ENERGY: 0 2.6039 3.2314 4.4795 0.0000 -10530.1556 1348.8651 0.0000 0.0000 1802.3645 -7368.6113 308.6053 -9170.9758 -7368.6113 308.6053 -549.5991 -464.8193 30141.5744 -549.5991 -464.8193
ENERGY: 300000 2.7396 5.1788 5.0497 0.0000 -10543.1334 1364.7801 0.0000 0.0000 1805.7993 -7359.5858 309.1935 -9165.3852 -7377.6679 302.6098 -420.7621 -325.7694 30371.4091 -359.4991 -277.1294
ENERGY: 600000 2.4974 4.0628 4.8082 0.0000 -10631.3180 1408.3934 0.0000 0.0000 1744.8123 -7466.7440 298.7511 -9211.5563 -7406.6231 299.9918 -466.1125 -429.3559 30255.6569 -137.7031 -78.0562
ENERGY: 900000 3.1735 2.8704 2.6214 0.0000 -10618.0454 1412.7782 0.0000 0.0000 1779.8204 -7416.7815 304.7453 -9196.6018 -7422.3971 299.6067 -248.0840 -137.5943 30431.5429 -189.2774 -125.4998
ENERGY: 1200000 1.1575 5.3419 3.3191 0.0000 -10571.7897 1390.9969 0.0000 0.0000 1795.2535 -7375.7208 307.3878 -9170.9743 -7418.2740 300.8247 -237.7105 -146.6191 30130.8170 -176.2873 -110.5004
ENERGY: 1500000 5.0048 8.6017 3.1088 0.0000 -10571.2352 1381.5921 0.0000 0.0000 1787.6465 -7385.2814 306.0853 -9172.9279 -7414.9917 301.0353 -339.6078 -310.3039 30129.1862 -220.6353 -158.6729
TCL: Running FEP window  12: Lambda1 0.5499999999999999 Lambda2 0.6    [dLambda 0.050000000000000044]
TCL: Setting parameter firsttimestep to 0
TCL: Setting parameter alchLambda to 0.5499999999999999
Info: NONBONDED TABLE R-SQUARED SPACING: 0.0625
Info: NONBONDED TABLE SIZE: 705 POINTS
TCL: Setting parameter alchLambda2 to 0.6
Info: NONBONDED TABLE R-SQUARED SPACING: 0.0625
Info: NONBONDED TABLE SIZE: 705 POINTS
TCL: Running for 1500000 steps
ETITLE: TS BOND ANGLE DIHED IMPRP ELECT VDW BOUNDARY MISC KINETIC TOTAL TEMP POTENTIAL TOTALAVG TEMPAVG PRESSURE GPRESSURE VOLUME PRESSAVG GPRESSAVG
ENERGY: 0 5.0048 8.6017 3.1088 0.0000 -10571.1537 1381.6061 0.0000 0.0000 1786.7621 -7386.0703 305.9339 -9172.8325 -7386.0703 305.9339 -397.5979 -304.1933 30129.1862 -397.5979 -304.1933
ENERGY: 300000 3.5115 8.4505 2.5084 0.0000 -10704.4089 1438.7600 0.0000 0.0000 1710.2319 -7540.9466 292.8302 -9251.1785 -7433.0457 302.3594 -157.7899 -88.8848 30139.5989 -146.9799 -82.6816
ENERGY: 600000 2.0245 3.8438 4.2154 0.0000 -10818.8784 1599.8330 0.0000 0.0000 1682.9894 -7525.9723 288.1656 -9208.9617 -7460.7068 300.1871 1380.5035 1400.8192 29900.4113 242.8534 294.6532
ENERGY: 900000 2.8691 5.4800 4.6830 0.0000 -10588.6352 1473.6725 0.0000 0.0000 1782.2419 -7319.6886 305.1599 -9101.9305 -7441.9036 300.7031 358.4749 397.1156 30216.7364 198.2798 253.7868
ENERGY: 1200000 2.0401 5.9403 3.3679 0.0000 -10615.5173 1438.8602 0.0000 0.0000 1717.0446 -7448.2642 293.9966 -9165.3088 -7442.5314 299.6814 -93.1567 -7.2572 30485.5112 177.5051 233.1626
ENERGY: 1500000 1.5644 4.3262 5.9972 0.0000 -10648.2005 1462.2019 0.0000 0.0000 1783.7895 -7390.3213 305.4249 -9174.1108 -7435.5480 300.1131 364.7500 508.7874 29870.3041 196.2527 251.7275
TCL: Running FEP window  13: Lambda1 0.6    Lambda2 0.65   [dLambda 0.050000000000000044]
TCL: Setting parameter firsttimestep to 0
TCL: Setting parameter alchLambda to 0.6
Info: NONBONDED TABLE R-SQUARED SPACING: 0.0625
Info: NONBONDED TABLE SIZE: 705 POINTS
TCL: Setting parameter alchLambda2 to 0.65
Info: NONBONDED TABLE R-SQUARED SPACING: 0.0625
Info: NONBONDED TABLE SIZE: 705 POINTS
TCL: Running for 1500000 steps
ETITLE: TS BOND ANGLE DIHED IMPRP ELECT VDW BOUNDARY MISC KINETIC TOTAL TEMP POTENTIAL TOTALAVG TEMPAVG PRESSURE GPRESSURE VOLUME PRESSAVG GPRESSAVG
ENERGY: 0 1.5644 4.3262 5.9972 0.0000 -10648.5578 1462.5096 0.0000 0.0000 1782.9356 -7391.2248 305.2787 -9174.1604 -7391.2248 305.2787 434.9614 517.8609 29870.3041 434.9614 517.8609
ENERGY: 300000 1.6874 2.8181 2.0909 0.0000 -10790.0699 1531.6955 0.0000 0.0000 1787.0365 -7464.7416 305.9808 -9251.7781 -7413.3813 305.4681 943.4988 986.6560 29640.9682 102.4209 162.7549
ENERGY: 600000 1.3240 2.7257 3.8494 0.0000 -10676.7052 1395.0675 0.0000 0.0000 1772.4881 -7501.2505 303.4898 -9273.7386 -7443.5734 302.6807 -556.8813 -446.5656 30101.8948 -158.7682 -86.2202
ENERGY: 900000 1.7108 5.1125 8.0601 0.0000 -10561.3081 1311.5111 0.0000 0.0000 1663.5208 -7571.3927 284.8322 -9234.9135 -7442.0266 300.2968 -825.6689 -757.8813 29893.1320 -168.9478 -100.7460
ENERGY: 1200000 3.8382 2.1564 6.2258 0.0000 -10644.0223 1454.1469 0.0000 0.0000 1793.3502 -7384.3047 307.0619 -9177.6550 -7430.3354 301.3392 140.5477 171.3892 30295.4808 -112.3928 -47.3081
ENERGY: 1500000 2.4053 4.0347 5.5800 0.0000 -10520.1361 1351.0783 0.0000 0.0000 1737.0649 -7419.9729 297.4246 -9157.0378 -7430.9798 301.0684 -666.2276 -562.0564 30242.2650 -180.5179 -115.3870
TCL: Running FEP window  14: Lambda1 0.65   Lambda2 0.7000000000000001 [dLambda 0.050000000000000044]
TCL: Setting parameter firsttimestep to 0
TCL: Setting parameter alchLambda to 0.65
Info: NONBONDED TABLE R-SQUARED SPACING: 0.0625
Info: NONBONDED TABLE SIZE: 705 POINTS
TCL: Setting parameter alchLambda2 to 0.7000000000000001
Info: NONBONDED TABLE R-SQUARED SPACING: 0.0625
Info: NONBONDED TABLE SIZE: 705 POINTS
TCL: Running for 1500000 steps
ETITLE: TS BOND ANGLE DIHED IMPRP ELECT VDW BOUNDARY MISC KINETIC TOTAL TEMP POTENTIAL TOTALAVG TEMPAVG PRESSURE GPRESSURE VOLUME PRESSAVG GPRESSAVG
ENERGY: 0 2.4053 4.0347 5.5800 0.0000 -10519.9980 1351.0227 0.0000 0.0000 1736.2196 -7420.7357 297.2798 -9156.9553 -7420.7357 297.2798 -641.6637 -553.7663 30242.2650 -641.6637 -553.7663
ENERGY: 300000 3.8371 5.6126 1.8797 0.0000 -10571.0322 1385.7860 0.0000 0.0000 1735.9495 -7437.9673 297.2336 -9173.9168 -7433.8627 297.0917 -56.6699 14.4801 29777.9413 -68.5446 -13.4623
ENERGY: 600000 3.1218 4.0965 4.2034 0.0000 -10728.7958 1474.9012 0.0000 0.0000 1747.2540 -7495.2189 299.1692 -9242.4729 -7452.4608 298.0752 227.7167 324.3314 29916.7558 -44.6668 16.3282
ENERGY: 900000 3.7729 7.7881 2.0664 0.0000 -10557.1740 1402.0345 0.0000 0.0000 1731.6717 -7409.8404 296.5011 -9141.5121 -7438.2316 299.1913 -384.9315 -348.3702 30649.2525 -50.9613 15.4884
ENERGY: 1200000 2.2130 5.7076 5.4688 0.0000 -10650.9248 1431.5851 0.0000 0.0000 1771.5690 -7434.3812 303.3324 -9205.9502 -7426.5911 301.2388 22.8011 18.1821 30206.5371 -59.6213 0.0171
ENERGY: 1500000 3.9312 2.8373 8.0014 0.0000 -10644.7580 1396.0604 0.0000 0.0000 1786.1192 -7447.8086 305.8238 -9233.9278 -7425.0976 301.3358 -368.6985 -280.0965 30115.6713 -45.7921 16.5106
TCL: Running FEP window  15: Lambda1 0.7000000000000001 Lambda2 0.7500000000000001 [dLambda 0.050000000000000044]
TCL: Setting parameter firsttimestep to 0
TCL: Setting parameter alchLambda to 0.7000000000000001
Info: NONBONDED TABLE R-SQUARED SPACING: 0.0625
Info: NONBONDED TABLE SIZE: 705 POINTS
TCL: Setting parameter alchLambda2 to 0.7500000000000001
Info: NONBONDED TABLE R-SQUARED SPACING: 0.0625
Info: NONBONDED TABLE SIZE: 705 POINTS
TCL: Running for 1500000 steps
ETITLE: TS BOND ANGLE DIHED IMPRP ELECT VDW BOUNDARY MISC KINETIC TOTAL TEMP POTENTIAL TOTALAVG TEMPAVG PRESSURE GPRESSURE VOLUME PRESSAVG GPRESSAVG
ENERGY: 0 3.9312 2.8373 8.0014 0.0000 -10645.1136 1396.8234 0.0000 0.0000 1785.2595 -7448.2609 305.6766 -9233.5204 -7448.2609 305.6766 -342.5267 -264.9488 30115.6713 -342.5267 -264.9488
ENERGY: 300000 3.6027 5.9469 3.0798 0.0000 -10632.2521 1432.9151 0.0000 0.0000 1737.0987 -7449.6089 297.4304 -9186.7076 -7458.9912 302.7929 -160.6334 -42.8788 30291.8534 -382.3504 -311.8428
ENERGY: 600000 2.8018 6.9726 4.2683 0.0000 -10579.6120 1346.2902 0.0000 0.0000 1749.5538 -7469.7255 299.5629 -9219.2792 -7439.3246 300.2568 -741.0593 -649.7392 30330.6086 -413.3950 -338.4318
ENERGY: 900000 1.2914 6.8377 3.1087 0.0000 -10654.9054 1403.6284 0.0000 0.0000 1789.6651 -7450.3742 306.4309 -9240.0393 -7452.9401 300.5329 -288.7027 -241.2167 30248.6336 -240.0294 -163.3101
ENERGY: 1200000 4.5359 5.8836 3.2119 0.0000 -10512.9610 1319.5299 0.0000 0.0000 1763.2682 -7416.5315 301.9112 -9179.7997 -7436.6127 301.1514 -920.1341 -870.8917 30127.8382 -294.9475 -224.0278
ENERGY: 1500000 2.9751 4.8481 3.5708 0.0000 -10606.3803 1373.5485 0.0000 0.0000 1707.7256 -7513.7123 292.4010 -9221.4379 -7445.8033 300.0373 -620.2271 -547.9122 29940.2983 -333.8846 -264.0829
TCL: Running FEP window  16: Lambda1 0.7500000000000001 Lambda2 0.8000000000000002 [dLambda 0.050000000000000044]
TCL: Setting parameter firsttimestep to 0
TCL: Setting parameter alchLambda to 0.7500000000000001
Info: NONBONDED TABLE R-SQUARED SPACING: 0.0625
Info: NONBONDED TABLE SIZE: 705 POINTS
TCL: Setting parameter alchLambda2 to 0.8000000000000002
Info: NONBONDED TABLE R-SQUARED SPACING: 0.0625
Info: NONBONDED TABLE SIZE: 705 POINTS
TCL: Running for 1500000 steps
ETITLE: TS BOND ANGLE DIHED IMPRP ELECT VDW BOUNDARY MISC KINETIC TOTAL TEMP POTENTIAL TOTALAVG TEMPAVG PRESSURE GPRESSURE VOLUME PRESSAVG GPRESSAVG
ENERGY: 0 2.9751 4.8481 3.5708 0.0000 -10606.9748 1373.8813 0.0000 0.0000 1706.9070 -7514.7925 292.2609 -9221.6995 -7514.7925 292.2609 -620.2408 -536.4751 29940.2983 -620.2408 -536.4751
ENERGY: 300000 1.5996 6.1910 1.2162 0.0000 -10635.6291 1461.1835 0.0000 0.0000 1742.4965 -7422.9425 298.3546 -9165.4389 -7427.5933 299.5538 332.4588 389.2052 30121.3304 329.0459 395.2674
ENERGY: 600000 2.5566 5.7987 2.1147 0.0000 -10661.7544 1422.6157 0.0000 0.0000 1709.1029 -7519.5657 292.6369 -9228.6686 -7460.6355 298.4480 -485.0553 -448.7185 30726.8354 196.4259 257.4295
ENERGY: 900000 1.6930 4.1364 5.1084 0.0000 -10577.0851 1406.5384 0.0000 0.0000 1716.7662 -7442.8427 293.9490 -9159.6089 -7453.5267 298.9762 -381.2625 -302.1720 30581.8340 72.9213 132.8098
ENERGY: 1200000 4.2753 5.4359 8.6433 0.0000 -10569.5445 1400.2420 0.0000 0.0000 1742.9933 -7407.9546 298.4397 -9150.9479 -7451.7459 298.6106 -305.4721 -253.1736 30415.3454 -30.2584 26.5515
ENERGY: 1500000 1.7006 5.6144 3.3165 0.0000 -10551.8192 1382.2196 0.0000 0.0000 1790.1983 -7368.7698 306.5222 -9158.9681 -7442.5011 299.4975 -791.6157 -731.6508 31377.3327 9.5911 67.4549
TCL: Running FEP window  17: Lambda1 0.8000000000000002 Lambda2 0.8500000000000002 [dLambda 0.050000000000000044]
TCL: Setting parameter firsttimestep to 0
TCL: Setting parameter alchLambda to 0.8000000000000002
Info: NONBONDED TABLE R-SQUARED SPACING: 0.0625
Info: NONBONDED TABLE SIZE: 705 POINTS
TCL: Setting parameter alchLambda2 to 0.8500000000000002
Info: NONBONDED TABLE R-SQUARED SPACING: 0.0625
Info: NONBONDED TABLE SIZE: 705 POINTS
TCL: Running for 1500000 steps
ETITLE: TS BOND ANGLE DIHED IMPRP ELECT VDW BOUNDARY MISC KINETIC TOTAL TEMP POTENTIAL TOTALAVG TEMPAVG PRESSURE GPRESSURE VOLUME PRESSAVG GPRESSAVG
ENERGY: 0 1.7006 5.6144 3.3165 0.0000 -10552.2556 1382.4376 0.0000 0.0000 1789.3355 -7369.8510 306.3745 -9159.1864 -7369.8510 306.3745 -797.1872 -722.5961 31377.3327 -797.1872 -722.5961
ENERGY: 300000 3.8773 6.9933 2.7694 0.0000 -10760.1947 1490.3944 0.0000 0.0000 1705.7129 -7550.4474 292.0564 -9256.1603 -7449.4578 299.8086 244.9529 306.3597 30153.3550 -205.1526 -120.6321
ENERGY: 600000 2.2239 3.4420 4.3627 0.0000 -10571.2977 1385.9837 0.0000 0.0000 1776.1095 -7399.1759 304.1099 -9175.2854 -7431.5157 301.2636 -308.5218 -286.0894 30270.4387 -175.0149 -110.7787
ENERGY: 900000 3.7140 2.6036 2.4874 0.0000 -10560.0896 1411.2743 0.0000 0.0000 1773.9455 -7366.0647 303.7394 -9140.0102 -7432.2124 300.4117 -27.3687 76.5908 30195.3479 -136.6545 -75.2651
ENERGY: 1200000 2.5960 5.0052 2.3015 0.0000 -10578.4300 1436.2542 0.0000 0.0000 1735.5794 -7396.6936 297.1702 -9132.2731 -7436.9003 299.5482 251.7484 268.3093 30347.2320 -128.2354 -65.1886
ENERGY: 1500000 1.1393 2.3612 6.8264 0.0000 -10610.9005 1446.1426 0.0000 0.0000 1727.7071 -7426.7239 295.8223 -9154.4310 -7430.7198 299.7099 -75.8213 -17.2988 30563.2914 -187.9260 -124.2542
TCL: Running FEP window  18: Lambda1 0.8500000000000002 Lambda2 0.9000000000000002 [dLambda 0.050000000000000044]
TCL: Setting parameter firsttimestep to 0
TCL: Setting parameter alchLambda to 0.8500000000000002
Info: NONBONDED TABLE R-SQUARED SPACING: 0.0625
Info: NONBONDED TABLE SIZE: 705 POINTS
TCL: Setting parameter alchLambda2 to 0.9000000000000002
Info: NONBONDED TABLE R-SQUARED SPACING: 0.0625
Info: NONBONDED TABLE SIZE: 705 POINTS
TCL: Running for 1500000 steps
ETITLE: TS BOND ANGLE DIHED IMPRP ELECT VDW BOUNDARY MISC KINETIC TOTAL TEMP POTENTIAL TOTALAVG TEMPAVG PRESSURE GPRESSURE VOLUME PRESSAVG GPRESSAVG
ENERGY: 0 1.1393 2.3612 6.8264 0.0000 -10611.8227 1446.3549 0.0000 0.0000 1726.8212 -7428.3197 295.6706 -9155.1409 -7428.3197 295.6706 -84.1790 -2.0714 30563.2914 -84.1790 -2.0714
ENERGY: 300000 4.3504 2.5166 5.1050 0.0000 -10727.9742 1477.7684 0.0000 0.0000 1769.7210 -7468.5129 303.0160 -9238.2338 -7461.1488 300.1336 73.4591 212.0723 30126.5905 -196.6157 -140.8184
ENERGY: 600000 3.2964 4.9588 1.9828 0.0000 -10496.1792 1359.6961 0.0000 0.0000 1794.8358 -7331.4092 307.3163 -9126.2450 -7443.6661 301.0748 -529.3300 -476.3303 30902.8537 -129.8527 -78.0281
ENERGY: 900000 3.3222 3.3954 6.5994 0.0000 -10571.9850 1393.2380 0.0000 0.0000 1711.6695 -7453.7604 293.0763 -9165.4299 -7434.6407 299.7958 -294.3403 -237.2000 30566.8419 -27.1149 25.3658
ENERGY: 1200000 3.0020 4.3122 2.2630 0.0000 -10612.5378 1459.6957 0.0000 0.0000 1755.6063 -7387.6585 300.5993 -9143.2648 -7431.1095 300.1637 769.3115 805.4836 29843.2386 26.4100 74.5003
ENERGY: 1500000 1.8195 9.5857 3.4754 0.0000 -10751.3581 1475.3925 0.0000 0.0000 1747.7934 -7513.2915 299.2615 -9261.0849 -7439.2365 299.0974 455.5150 499.4932 30034.7629 16.3732 60.3383
TCL: Running FEP window  19: Lambda1 0.9000000000000002 Lambda2 0.9500000000000003 [dLambda 0.050000000000000044]
TCL: Setting parameter firsttimestep to 0
TCL: Setting parameter alchLambda to 0.9000000000000002
Info: NONBONDED TABLE R-SQUARED SPACING: 0.0625
Info: NONBONDED TABLE SIZE: 705 POINTS
TCL: Setting parameter alchLambda2 to 0.9500000000000003
Info: NONBONDED TABLE R-SQUARED SPACING: 0.0625
Info: NONBONDED TABLE SIZE: 705 POINTS
TCL: Running for 1500000 steps
ETITLE: TS BOND ANGLE DIHED IMPRP ELECT VDW BOUNDARY MISC KINETIC TOTAL TEMP POTENTIAL TOTALAVG TEMPAVG PRESSURE GPRESSURE VOLUME PRESSAVG GPRESSAVG
ENERGY: 0 1.8195 9.5857 3.4754 0.0000 -10751.9354 1475.7819 0.0000 0.0000 1746.9411 -7514.3319 299.1156 -9261.2730 -7514.3319 299.1156 425.6966 513.0453 30034.7629 425.6966 513.0453
ENERGY: 300000 3.1629 9.8464 6.4844 0.0000 -10613.9075 1416.2224 0.0000 0.0000 1815.9271 -7362.2643 310.9275 -9178.1914 -7427.6145 302.8501 29.7765 104.8288 30250.3447 152.8037 230.7927
ENERGY: 600000 1.8857 6.2337 7.0536 0.0000 -10627.7239 1429.9646 0.0000 0.0000 1788.0900 -7394.4963 306.1612 -9182.5863 -7437.8507 301.1821 -50.9005 29.4354 30277.0037 55.5490 131.1969
ENERGY: 900000 3.2776 9.3712 7.0892 0.0000 -10727.5821 1481.3220 0.0000 0.0000 1804.8636 -7421.6585 309.0332 -9226.5221 -7434.3618 302.3313 354.4885 462.9010 30067.1297 41.4593 113.8977
ENERGY: 1200000 2.2951 7.6336 6.8850 0.0000 -10576.0353 1357.0133 0.0000 0.0000 1772.3755 -7429.8327 303.4705 -9202.2082 -7428.2337 302.0193 -760.5881 -736.5800 30600.3486 -7.8973 53.9819
ENERGY: 1500000 1.9077 3.4284 4.0864 0.0000 -10806.7533 1587.4883 0.0000 0.0000 1744.2730 -7465.5693 298.6588 -9209.8423 -7438.1086 301.1911 1256.8928 1326.5222 30006.3538 85.6829 150.0349
TCL: Running FEP window  20: Lambda1 0.9500000000000003 Lambda2 1.0    [dLambda 0.04999999999999971]
TCL: Setting parameter firsttimestep to 0
TCL: Setting parameter alchLambda to 0.9500000000000003
Info: NONBONDED TABLE R-SQUARED SPACING: 0.0625
Info: NONBONDED TABLE SIZE: 705 POINTS
TCL: Setting parameter alchLambda2 to 1.0
Info: NONBONDED TABLE R-SQUARED SPACING: 0.0625
Info: NONBONDED TABLE SIZE: 705 POINTS
TCL: Running for 1500000 steps
ETITLE: TS BOND ANGLE DIHED IMPRP ELECT VDW BOUNDARY MISC KINETIC TOTAL TEMP POTENTIAL TOTALAVG TEMPAVG PRESSURE GPRESSURE VOLUME PRESSAVG GPRESSAVG
ENERGY: 0 1.9077 3.4284 4.0864 0.0000 -10808.1582 1587.8515 0.0000 0.0000 1743.3808 -7467.5033 298.5060 -9210.8841 -7467.5033 298.5060 1261.3355 1338.5834 30006.3538 1261.3355 1338.5834
ENERGY: 300000 1.7785 5.3774 5.6018 0.0000 -10587.6310 1397.1211 0.0000 0.0000 1798.8149 -7378.9373 307.9976 -9177.7523 -7466.5694 301.8275 -280.8330 -296.4843 30711.0513 95.2092 115.7481
ENERGY: 600000 3.8931 3.3035 3.0575 0.0000 -10617.6098 1432.7936 0.0000 0.0000 1716.4974 -7458.0647 293.9029 -9174.5621 -7449.3807 299.4864 -32.9797 44.6795 30351.4099 70.3256 106.2441
ENERGY: 900000 3.1363 4.3501 10.6932 0.0000 -10518.4979 1354.5698 0.0000 0.0000 1806.7975 -7338.9510 309.3644 -9145.7485 -7442.6068 300.3906 -889.1437 -759.8227 30737.9056 31.2710 84.4264
ENERGY: 1200000 1.8245 2.4327 3.9432 0.0000 -10566.6594 1383.7603 0.0000 0.0000 1751.9996 -7422.6989 299.9817 -9174.6986 -7448.2938 299.5616 -463.8735 -407.3862 30791.4947 -41.4508 15.5042
ENERGY: 1500000 1.2421 6.6033 2.2337 0.0000 -10638.9304 1437.1798 0.0000 0.0000 1788.3986 -7403.2728 306.2141 -9191.6714 -7444.8784 300.3764 264.1227 323.6188 30085.8439 5.8242 69.7602
TCL: Exiting due to exit command.
