Info: SIMULATION PARAMETERS:
Info: TIMESTEP               2
Info: NUMBER OF STEPS        0
Info: STEPS PER CYCLE        10
Info: PERIODIC CELL BASIS 1  30.8012 0 0
Info: PERIODIC CELL BASIS 2  0 31.4777 0
Info: PERIODIC CELL BASIS 3  0 0 31.3589
Info: PERIODIC CELL CENTER   0 0 0
Info: WRAPPING WATERS AROUND PERIODIC BOUNDARIES ON OUTPUT.
Info: WRAPPING ALL CLUSTERS AROUND PERIODIC BOUNDARIES ON OUTPUT.
Info: FIRST LDB TIMESTEP     50
Info: LAST LDB TIMESTEP     -1
Info: HOM BACKGROUND SCALING 1
Info: PME BACKGROUND SCALING 1
Info: MIN ATOMS PER PATCH    40
Info: EMPTY PATCH LOAD       40 ATOMS
Info: VELOCITY FILE          mobley_197466_equil.vel
Info: CENTER OF MASS MOVING INITIALLY? NO
Info: DIELECTRIC             1
Info: EXCLUDE                SCALED ONE-FOUR
Info: 1-4 ELECTROSTATICS SCALED BY 0.833333
Info: MODIFIED 1-4 VDW PARAMETERS WILL BE USED
Info: DCD FILENAME           mobley_197466_prod.dcd
Info: DCD FREQUENCY          100000
Info: DCD FIRST STEP         100000
Info: DCD FILE WILL CONTAIN UNIT CELL DATA
Info: XST FILENAME           mobley_197466_prod.xst
Info: XST FREQUENCY          100000
Info: NO VELOCITY DCD OUTPUT
Info: NO FORCE DCD OUTPUT
Info: OUTPUT FILENAME        mobley_197466_prod
Info: BINARY OUTPUT FILES WILL BE USED
Info: RESTART FILENAME       mobley_197466_prod.restart
Info: RESTART FREQUENCY      100000
Info: BINARY RESTART FILES WILL BE USED
Info: CUTOFF                 9
Info: PAIRLIST DISTANCE      11
Info: PAIRLIST SHRINK RATE   0.01
Info: PAIRLIST GROW RATE     0.01
Info: PAIRLIST TRIGGER       0.3
Info: PAIRLISTS PER CYCLE    2
Info: PAIRLISTS ENABLED
Info: MARGIN                 2
Info: HYDROGEN GROUP CUTOFF  2.5
Info: PATCH DIMENSION        15.5
Info: ENERGY OUTPUT STEPS    100000
Info: ENERGY EVALUATION STEPS    100000
Info: OUTPUT ENERGY PRECISION 4
Info: CROSSTERM ENERGY INCLUDED IN DIHEDRAL
Info: TIMING OUTPUT STEPS    1000000
Info: PRESSURE OUTPUT STEPS  100000
Info: ALCHEMICAL FEP ON
Info: FEP CURRENT LAMBDA VALUE     1
Info: FEP COMPARISON LAMBDA VALUE  0.95
Info: FEP INTRA-ALCHEMICAL NON-BONDED INTERACTIONS WILL BE RETAINED
Info: FEP INTRA-ALCHEMICAL BONDED INTERACTIONS WILL BE RETAINED
Info: FEP VDW SHIFTING COEFFICIENT 5
Info: FEP ELEC. ACTIVE FOR ANNIHILATED PARTICLES BETWEEN LAMBDA = 0 AND LAMBDA = 0.5
Info: FEP ELEC. ACTIVE FOR EXNIHILATED PARTICLES BETWEEN LAMBDA = 0.5 AND LAMBDA = 1
Info: FEP VDW ACTIVE FOR ANNIHILATED PARTICLES BETWEEN LAMBDA = 0 AND LAMBDA = 1
Info: FEP VDW ACTIVE FOR EXNIHILATED PARTICLES BETWEEN LAMBDA = 0 AND LAMBDA = 1
Info: FEP BOND ACTIVE FOR ANNIHILATED PARTICLES BETWEEN LAMBDA = 1 AND LAMBDA = 1
Info: FEP BOND ACTIVE FOR EXNIHILATED PARTICLES BETWEEN LAMBDA = 0 AND LAMBDA = 0
Info: LANGEVIN DYNAMICS ACTIVE
Info: LANGEVIN TEMPERATURE   300
Info: LANGEVIN USING BBK INTEGRATOR
Info: LANGEVIN DAMPING COEFFICIENT IS 1 INVERSE PS
Info: LANGEVIN DYNAMICS APPLIED TO HYDROGENS
Info: LANGEVIN PISTON PRESSURE CONTROL ACTIVE
Info:        TARGET PRESSURE IS 1.01325 BAR
Info:     OSCILLATION PERIOD IS 50 FS
Info:             DECAY TIME IS 25 FS
Info:     PISTON TEMPERATURE IS 300 K
Info:       PRESSURE CONTROL IS GROUP-BASED
Info:    INITIAL STRAIN RATE IS 0.000172885 0.000172885 0.000172885
Info:       CELL FLUCTUATION IS ISOTROPIC
Info: PARTICLE MESH EWALD (PME) ACTIVE
Info: PME TOLERANCE               1e-06
Info: PME EWALD COEFFICIENT       0.348832
Info: PME INTERPOLATION ORDER     4
Info: PME GRID DIMENSIONS         32 32 32
Info: PME MAXIMUM GRID SPACING    1
Info: PME CALCULATION WILL BE PERFORMED ON GPU
Info: FULL ELECTROSTATIC EVALUATION FREQUENCY      2
Info: USING VERLET I (r-RESPA) MTS SCHEME.
Info: C1 SPLITTING OF LONG RANGE ELECTROSTATICS
Info: PLACING ATOMS IN PATCHES BY HYDROGEN GROUPS
Info: RIGID BONDS TO HYDROGEN : ALL
Info:         ERROR TOLERANCE : 1e-08
Info:          MAX ITERATIONS : 100
Info: RIGID WATER USING SETTLE ALGORITHM
Info: RANDOM NUMBER SEED     1743738588
Info: USE HYDROGEN BONDS?    NO
Info: Using AMBER format force field!
Info: AMBER PARM FILE        mobley_197466.prmtop
Info: COORDINATE PDB         mobley_197466.pdb
Info: Exclusions will be read from PARM file!
Info: SCNB (VDW SCALING)     2
Info: USING ARITHMETIC MEAN TO COMBINE L-J SIGMA PARAMETERS
Info: BINARY COORDINATES     mobley_197466_equil.coor
Info: SUMMARY OF PARAMETERS:
Info: 8 BONDS
Info: 10 ANGLES
Info:   10 HARMONIC
Info:   0 COSINE-BASED
Info: 6 DIHEDRAL
Info: 0 IMPROPER
Info: 0 CROSSTERM
Info: 0 VDW
Info: 21 VDW_PAIRS
Info: 0 NBTHOLE_PAIRS
Info: To read alchdata from file: mobley_197466.pdb
Info: To read alchflag data from column: 5
Info: STRUCTURE SUMMARY:
Info: 2981 ATOMS
Info: 2981 BONDS
Info: 27 ANGLES
Info: 43 DIHEDRALS
Info: 0 IMPROPERS
Info: 0 CROSSTERMS
Info: 3029 EXCLUSIONS
Info: 2975 RIGID BONDS
Info: ALCH: 0 ATOMS TO DISAPPEAR IN FINAL STATE
Info: ALCH: 14 ATOMS TO APPEAR IN FINAL STATE
Info: 5968 DEGREES OF FREEDOM
Info: 995 HYDROGEN GROUPS
Info: 4 ATOMS IN LARGEST HYDROGEN GROUP
Info: 995 MIGRATION GROUPS
Info: 4 ATOMS IN LARGEST MIGRATION GROUP
Info: TOTAL MASS = 17901.9 amu
Info: TOTAL CHARGE = 9.99719e-05 e
Info: MASS DENSITY = 0.97775 g/cm^3
Info: ATOM DENSITY = 0.0980462 atoms/A^3
Info: ADDED 0 IMPLICIT EXCLUSIONS
Info: NONBONDED TABLE R-SQUARED SPACING: 0.0625
Info: NONBONDED TABLE SIZE: 705 POINTS
Info: REMOVING COM VELOCITY 0.148877 -0.271657 -0.116033
Info: Use 3D box decompostion in PME FFT.
Info: Updated CUDA force table with 4096 elements.
Info: Updated CUDA LJ table with 6 x 6 elements.
Info: Found 17 unique exclusion lists needing 32 bytes
TCL: Running for 1500000 steps
ETITLE: TS BOND ANGLE DIHED IMPRP ELECT VDW BOUNDARY MISC KINETIC TOTAL TEMP POTENTIAL TOTALAVG TEMPAVG PRESSURE GPRESSURE VOLUME PRESSAVG GPRESSAVG
ENERGY: 0 1.4863 7.3247 8.9300 0.0000 -10872.3918 1528.2750 0.0000 0.0000 1824.0188 -7502.3572 307.6032 -9326.3759 -7502.3572 307.6032 806.8498 890.9872 30404.0371 806.8498 890.9872
ENERGY: 300000 0.5784 9.2079 9.3319 0.0000 -10740.4120 1391.9138 0.0000 0.0000 1816.4647 -7512.9153 306.3293 -9329.3800 -7531.6197 304.5328 -429.7492 -422.7180 30816.4002 164.2940 189.1817
ENERGY: 600000 0.7609 4.6333 8.5300 0.0000 -10854.9576 1440.9331 0.0000 0.0000 1732.3155 -7667.7847 292.1384 -9400.1003 -7551.7016 302.6066 -174.7033 -138.2674 30648.9557 21.5711 63.0389
ENERGY: 900000 2.7618 7.0083 9.1878 0.0000 -10869.2022 1474.8263 0.0000 0.0000 1807.9972 -7567.4207 304.9013 -9375.4179 -7545.9633 303.5373 436.9032 458.2615 30245.8062 -15.2109 29.5872
ENERGY: 1200000 0.8078 5.1093 10.2386 0.0000 -10815.4811 1485.3476 0.0000 0.0000 1752.3411 -7561.6366 295.5155 -9313.9777 -7550.0133 302.4879 56.8209 106.6155 31248.9911 -69.8143 -25.5947
ENERGY: 1500000 3.6451 5.3167 9.4323 0.0000 -10865.5752 1474.9567 0.0000 0.0000 1828.3801 -7543.8443 308.3387 -9372.2244 -7559.2601 301.7979 415.5686 498.3713 30336.3894 2.8806 44.7000
TCL: Running FEP window   2: Lambda1 0.95   Lambda2 0.8999999999999999 [dLambda -0.050000000000000044]
TCL: Setting parameter firsttimestep to 0
TCL: Setting parameter alchLambda to 0.95
Info: NONBONDED TABLE R-SQUARED SPACING: 0.0625
Info: NONBONDED TABLE SIZE: 705 POINTS
TCL: Setting parameter alchLambda2 to 0.8999999999999999
Info: NONBONDED TABLE R-SQUARED SPACING: 0.0625
Info: NONBONDED TABLE SIZE: 705 POINTS
TCL: Running for 1500000 steps
ETITLE: TS BOND ANGLE DIHED IMPRP ELECT VDW BOUNDARY MISC KINETIC TOTAL TEMP POTENTIAL TOTALAVG TEMPAVG PRESSURE GPRESSURE VOLUME PRESSAVG GPRESSAVG
ENERGY: 0 3.6451 5.3167 9.4323 0.0000 -10864.7391 1475.1271 0.0000 0.0000 1827.5142 -7543.7037 308.1927 -9371.2179 -7543.7037 308.1927 414.7348 491.1787 30336.3894 414.7348 491.1787
ENERGY: 300000 1.3228 7.3225 8.9035 0.0000 -10757.1033 1448.2343 0.0000 0.0000 1718.5773 -7572.7428 289.8215 -9291.3201 -7576.8667 296.0820 -42.2045 12.5327 30659.9426 -78.9804 -19.1965
ENERGY: 600000 0.7360 7.3328 9.0195 0.0000 -10800.4003 1477.7427 0.0000 0.0000 1734.0277 -7571.5416 292.4271 -9305.5693 -7558.2146 296.4100 210.3637 306.0830 30940.9638 -1.7517 55.9443
ENERGY: 900000 0.3729 5.9318 9.1300 0.0000 -10774.7966 1376.2310 0.0000 0.0000 1799.7830 -7583.3478 303.5161 -9383.1308 -7561.6181 296.9963 -481.8421 -402.6521 30470.7161 -130.5599 -70.0922
ENERGY: 1200000 1.8631 5.3329 8.8110 0.0000 -10728.9418 1361.0669 0.0000 0.0000 1815.7096 -7536.1583 306.2020 -9351.8679 -7570.2010 297.2765 -902.4169 -808.2566 31101.2344 -180.6154 -115.7298
ENERGY: 1500000 3.3186 6.1538 8.9072 0.0000 -10716.0369 1359.9412 0.0000 0.0000 1818.8422 -7518.8738 306.7302 -9337.7160 -7577.5634 297.5807 -414.8368 -346.0556 30236.1068 -203.3850 -142.8127
TCL: Running FEP window   3: Lambda1 0.8999999999999999 Lambda2 0.8499999999999999 [dLambda -0.050000000000000044]
TCL: Setting parameter firsttimestep to 0
TCL: Setting parameter alchLambda to 0.8999999999999999
Info: NONBONDED TABLE R-SQUARED SPACING: 0.0625
Info: NONBONDED TABLE SIZE: 705 POINTS
TCL: Setting parameter alchLambda2 to 0.8499999999999999
Info: NONBONDED TABLE R-SQUARED SPACING: 0.0625
Info: NONBONDED TABLE SIZE: 705 POINTS
TCL: Running for 1500000 steps
ETITLE: TS BOND ANGLE DIHED IMPRP ELECT VDW BOUNDARY MISC KINETIC TOTAL TEMP POTENTIAL TOTALAVG TEMPAVG PRESSURE GPRESSURE VOLUME PRESSAVG GPRESSAVG
ENERGY: 0 3.3186 6.1538 8.9072 0.0000 -10715.0649 1359.8310 0.0000 0.0000 1817.9256 -7518.9287 306.5757 -9336.8543 -7518.9287 306.5757 -441.1060 -357.4592 30236.1068 -441.1060 -357.4592
ENERGY: 300000 0.2376 3.8445 8.7170 0.0000 -10664.4802 1354.1608 0.0000 0.0000 1752.1725 -7545.3478 295.4870 -9297.5203 -7524.4406 299.9988 -681.2669 -599.9232 30603.6264 -402.5229 -345.9203
ENERGY: 600000 2.4323 7.6987 8.7174 0.0000 -10889.5558 1493.0314 0.0000 0.0000 1782.0191 -7595.6569 300.5204 -9377.6761 -7558.8650 299.9897 225.9630 273.0514 30446.8714 -160.1185 -97.3042
ENERGY: 900000 2.0629 4.8883 8.6638 0.0000 -10670.4871 1364.3702 0.0000 0.0000 1781.1071 -7509.3948 300.3666 -9290.5019 -7564.3453 300.3738 -538.8543 -527.5208 30864.4374 -208.1989 -147.5290
ENERGY: 1200000 0.7453 9.0524 9.0460 0.0000 -10758.1033 1407.6833 0.0000 0.0000 1789.1626 -7542.4137 301.7251 -9331.5763 -7561.7073 300.4754 -269.0357 -270.1674 30665.8414 -189.7459 -137.0960
ENERGY: 1500000 4.0091 5.2594 9.3789 0.0000 -10781.9937 1472.6597 0.0000 0.0000 1730.2384 -7560.4481 291.7881 -9290.6866 -7558.3775 300.5226 138.0355 189.7793 31221.4435 -84.9570 -30.4731
TCL: Running FEP window   4: Lambda1 0.8499999999999999 Lambda2 0.7999999999999998 [dLambda -0.050000000000000044]
TCL: Setting parameter firsttimestep to 0
TCL: Setting parameter alchLambda to 0.8499999999999999
Info: NONBONDED TABLE R-SQUARED SPACING: 0.0625
Info: NONBONDED TABLE SIZE: 705 POINTS
TCL: Setting parameter alchLambda2 to 0.7999999999999998
Info: NONBONDED TABLE R-SQUARED SPACING: 0.0625
Info: NONBONDED TABLE SIZE: 705 POINTS
TCL: Running for 1500000 steps
ETITLE: TS BOND ANGLE DIHED IMPRP ELECT VDW BOUNDARY MISC KINETIC TOTAL TEMP POTENTIAL TOTALAVG TEMPAVG PRESSURE GPRESSURE VOLUME PRESSAVG GPRESSAVG
ENERGY: 0 4.0091 5.2594 9.3789 0.0000 -10781.2410 1472.9127 0.0000 0.0000 1729.3564 -7560.3245 291.6393 -9289.6809 -7560.3245 291.6393 93.6178 186.0745 31221.4435 93.6178 186.0745
ENERGY: 300000 0.5102 9.9262 9.2492 0.0000 -10734.8887 1407.8440 0.0000 0.0000 1741.0731 -7566.2860 293.6152 -9307.3591 -7575.6565 297.0523 -130.4778 -80.6426 30782.5919 -52.9761 22.1241
ENERGY: 600000 1.3701 5.0106 9.1969 0.0000 -10752.7085 1433.1853 0.0000 0.0000 1784.8822 -7519.0633 301.0032 -9303.9455 -7556.3826 299.1278 86.4584 148.2421 30490.0885 37.5206 109.4260
ENERGY: 900000 1.5496 9.9041 9.3513 0.0000 -10855.8579 1386.6637 0.0000 0.0000 1765.1867 -7683.2024 297.6817 -9448.3891 -7570.8992 298.6155 -655.1217 -572.3137 30455.6196 -62.2552 3.9554
ENERGY: 1200000 2.0092 4.5007 9.0446 0.0000 -10632.0007 1445.1666 0.0000 0.0000 1810.2085 -7361.0712 305.2743 -9171.2797 -7542.0890 299.5448 424.6868 513.0497 30985.6328 -94.3247 -22.6544
ENERGY: 1500000 2.5410 3.5970 8.8088 0.0000 -10824.7542 1489.0044 0.0000 0.0000 1804.7541 -7516.0489 304.3544 -9320.8030 -7545.3749 299.2055 565.1106 643.0666 30680.2836 -65.2121 11.0111
TCL: Running FEP window   5: Lambda1 0.7999999999999998 Lambda2 0.7499999999999998 [dLambda -0.050000000000000044]
TCL: Setting parameter firsttimestep to 0
TCL: Setting parameter alchLambda to 0.7999999999999998
Info: NONBONDED TABLE R-SQUARED SPACING: 0.0625
Info: NONBONDED TABLE SIZE: 705 POINTS
TCL: Setting parameter alchLambda2 to 0.7499999999999998
Info: NONBONDED TABLE R-SQUARED SPACING: 0.0625
Info: NONBONDED TABLE SIZE: 705 POINTS
TCL: Running for 1500000 steps
ETITLE: TS BOND ANGLE DIHED IMPRP ELECT VDW BOUNDARY MISC KINETIC TOTAL TEMP POTENTIAL TOTALAVG TEMPAVG PRESSURE GPRESSURE VOLUME PRESSAVG GPRESSAVG
ENERGY: 0 2.5410 3.5970 8.8088 0.0000 -10823.7257 1488.7310 0.0000 0.0000 1803.8891 -7516.1587 304.2085 -9320.0478 -7516.1587 304.2085 554.9318 632.6556 30680.2836 554.9318 632.6556
ENERGY: 300000 0.8861 6.9240 8.9635 0.0000 -10910.4369 1511.1025 0.0000 0.0000 1745.7491 -7636.8118 294.4038 -9382.5609 -7588.7215 298.7120 295.6466 361.8243 30648.1104 394.1514 458.2953
ENERGY: 600000 0.3027 10.1555 8.5432 0.0000 -10676.2488 1388.9026 0.0000 0.0000 1735.5085 -7532.8362 292.6768 -9268.3447 -7584.5680 297.9919 -319.8039 -242.5825 30672.2552 216.1155 279.0568
ENERGY: 900000 0.7817 5.4320 8.6488 0.0000 -10860.9461 1467.3378 0.0000 0.0000 1791.9408 -7586.8050 302.1936 -9378.7458 -7576.6904 299.9032 -179.2711 -142.3744 31106.0795 95.1330 157.7771
ENERGY: 1200000 0.4555 5.7709 9.0831 0.0000 -10892.4875 1502.7726 0.0000 0.0000 1731.4047 -7643.0007 291.9847 -9374.4055 -7575.9262 299.7309 447.4910 510.1139 30389.0392 165.5942 232.6477
ENERGY: 1500000 2.0399 6.7037 8.6329 0.0000 -10670.8898 1374.8906 0.0000 0.0000 1732.8215 -7545.8013 292.2237 -9278.6227 -7573.7925 298.7375 -505.8702 -446.8547 30735.4197 104.0846 165.0818
TCL: Running FEP window   6: Lambda1 0.7499999999999998 Lambda2 0.6999999999999997 [dLambda -0.050000000000000044]
TCL: Setting parameter firsttimestep to 0
TCL: Setting parameter alchLambda to 0.7499999999999998
Info: NONBONDED TABLE R-SQUARED SPACING: 0.0625
Info: NONBONDED TABLE SIZE: 705 POINTS
TCL: Setting parameter alchLambda2 to 0.6999999999999997
Info: NONBONDED TABLE R-SQUARED SPACING: 0.0625
Info: NONBONDED TABLE SIZE: 705 POINTS
TCL: Running for 1500000 steps
ETITLE: TS BOND ANGLE DIHED IMPRP ELECT VDW BOUNDARY MISC KINETIC TOTAL TEMP POTENTIAL TOTALAVG TEMPAVG PRESSURE GPRESSURE VOLUME PRESSAVG GPRESSAVG
ENERGY: 0 2.0398 6.7037 8.6329 0.0000 -10670.1846 1375.2887 0.0000 0.0000 1731.9761 -7545.5434 292.0811 -9277.5195 -7545.5434 292.0811 -523.9252 -448.1139 30735.4197 -523.9252 -448.1139
ENERGY: 300000 2.2459 5.0781 8.8800 0.0000 -10731.0349 1374.2084 0.0000 0.0000 1855.1818 -7485.4407 312.8586 -9340.6225 -7542.7697 299.7114 -577.7549 -498.9385 30814.4386 -82.8865 -9.5238
ENERGY: 600000 1.3450 7.6948 8.9259 0.0000 -10699.1436 1382.1052 0.0000 0.0000 1789.0445 -7510.0282 301.7051 -9299.0726 -7563.4139 299.1135 -967.4403 -906.0300 31681.5077 -78.7450 -18.1529
ENERGY: 900000 1.8126 6.5944 8.6311 0.0000 -10756.4148 1336.6281 0.0000 0.0000 1800.5443 -7602.2043 303.6445 -9402.7486 -7568.6115 300.2395 -1261.4264 -1147.3043 31210.7935 -190.9171 -128.3248
ENERGY: 1200000 0.9583 8.5662 8.7129 0.0000 -10739.5874 1437.7013 0.0000 0.0000 1784.6034 -7499.0453 300.9562 -9283.6487 -7567.2629 300.7864 174.5047 144.8067 30586.1690 -112.9539 -59.2037
ENERGY: 1500000 2.8346 5.5598 8.7393 0.0000 -10848.8287 1494.0767 0.0000 0.0000 1772.5346 -7565.0837 298.9209 -9337.6183 -7567.7973 300.0503 497.9900 484.8399 30526.5383 -20.7377 23.5804
TCL: Running FEP window   7: Lambda1 0.6999999999999997 Lambda2 0.6499999999999997 [dLambda -0.050000000000000044]
TCL: Setting parameter firsttimestep to 0
TCL: Setting parameter alchLambda to 0.6999999999999997
Info: NONBONDED TABLE R-SQUARED SPACING: 0.0625
Info: NONBONDED TABLE SIZE: 705 POINTS
TCL: Setting parameter alchLambda2 to 0.6499999999999997
Info: NONBONDED TABLE R-SQUARED SPACING: 0.0625
Info: NONBONDED TABLE SIZE: 705 POINTS
TCL: Running for 1500000 steps
ETITLE: TS BOND ANGLE DIHED IMPRP ELECT VDW BOUNDARY MISC KINETIC TOTAL TEMP POTENTIAL TOTALAVG TEMPAVG PRESSURE GPRESSURE VOLUME PRESSAVG GPRESSAVG
ENERGY: 0 2.8346 5.5598 8.7393 0.0000 -10847.5398 1493.8141 0.0000 0.0000 1771.6576 -7564.9344 298.7730 -9336.5921 -7564.9344 298.7730 407.8272 479.1530 30526.5383 407.8272 479.1530
ENERGY: 300000 1.8764 6.7813 9.3331 0.0000 -10884.9838 1433.2730 0.0000 0.0000 1776.1933 -7657.5268 299.5379 -9433.7201 -7595.9964 298.5073 -331.8001 -283.3628 30443.6344 444.9413 486.5284
ENERGY: 600000 2.1833 6.4125 8.8380 0.0000 -10803.1042 1429.9710 0.0000 0.0000 1773.1030 -7582.5966 299.0168 -9355.6995 -7595.2457 298.7922 -141.0945 -63.1557 30350.3685 84.5109 132.3498
ENERGY: 900000 2.6541 3.6254 9.7115 0.0000 -10726.3691 1423.8962 0.0000 0.0000 1788.4219 -7498.0601 301.6001 -9286.4820 -7583.2061 299.1313 79.3614 126.0052 30441.6619 145.4159 195.2588
ENERGY: 1200000 1.5765 6.2018 9.0738 0.0000 -10854.4660 1486.6198 0.0000 0.0000 1716.1801 -7634.8140 289.4173 -9350.9941 -7585.3213 298.8709 61.9967 157.0660 30748.0337 140.2202 193.3805
ENERGY: 1500000 0.7642 7.7662 8.9286 0.0000 -10762.5356 1421.5307 0.0000 0.0000 1801.2152 -7522.3307 303.7576 -9323.5459 -7580.2403 299.3807 -51.3167 -87.9877 30447.3237 106.5906 158.5005
TCL: Running FEP window   8: Lambda1 0.6499999999999997 Lambda2 0.5999999999999996 [dLambda -0.050000000000000044]
TCL: Setting parameter firsttimestep to 0
TCL: Setting parameter alchLambda to 0.6499999999999997
Info: NONBONDED TABLE R-SQUARED SPACING: 0.0625
Info: NONBONDED TABLE SIZE: 705 POINTS
TCL: Setting parameter alchLambda2 to 0.5999999999999996
Info: NONBONDED TABLE R-SQUARED SPACING: 0.0625
Info: NONBONDED TABLE SIZE: 705 POINTS
TCL: Running for 1500000 steps
ETITLE: TS BOND ANGLE DIHED IMPRP ELECT VDW BOUNDARY MISC KINETIC TOTAL TEMP POTENTIAL TOTALAVG TEMPAVG PRESSURE GPRESSURE VOLUME PRESSAVG GPRESSAVG
ENERGY: 0 0.7642 7.7662 8.9286 0.0000 -10761.4163 1421.3456 0.0000 0.0000 1800.2765 -7522.3351 303.5993 -9322.6117 -7522.3351 303.5993 -188.4782 -96.5217 30447.3237 -188.4782 -96.5217
ENERGY: 300000 2.2841 9.9623 9.0377 0.0000 -10874.5199 1481.0298 0.0000 0.0000 1807.1639 -7565.0421 304.7608 -9372.2060 -7573.1669 299.8560 451.2430 563.9432 30171.9787 -20.6251 60.7263
ENERGY: 600000 0.9907 7.3944 8.9577 0.0000 -10883.6985 1477.5230 0.0000 0.0000 1746.7343 -7642.0985 294.5699 -9388.8328 -7578.3538 299.8496 -113.2640 -65.6839 30998.0429 56.4292 132.5021
ENERGY: 900000 3.2151 6.0896 9.0160 0.0000 -10794.3813 1433.6747 0.0000 0.0000 1777.8066 -7564.5793 299.8100 -9342.3859 -7584.2547 299.1016 -237.5488 -150.5647 30333.7119 87.7010 171.8857
ENERGY: 1200000 1.7914 5.0455 8.9775 0.0000 -10725.1195 1373.3030 0.0000 0.0000 1773.9908 -7562.0112 299.1665 -9336.0021 -7564.2973 299.8901 -677.0869 -563.6627 30860.1010 -77.7249 2.7935
ENERGY: 1500000 1.0462 7.5385 8.6464 0.0000 -10788.1619 1408.9925 0.0000 0.0000 1764.4902 -7597.4481 297.5643 -9361.9383 -7560.5210 299.9288 -448.2874 -379.5125 30573.6095 -144.6114 -66.0168
TCL: Running FEP window   9: Lambda1 0.5999999999999996 Lambda2 0.5499999999999996 [dLambda -0.050000000000000044]
TCL: Setting parameter firsttimestep to 0
TCL: Setting parameter alchLambda to 0.5999999999999996
Info: NONBONDED TABLE R-SQUARED SPACING: 0.0625
Info: NONBONDED TABLE SIZE: 705 POINTS
TCL: Setting parameter alchLambda2 to 0.5499999999999996
Info: NONBONDED TABLE R-SQUARED SPACING: 0.0625
Info: NONBONDED TABLE SIZE: 705 POINTS
TCL: Running for 1500000 steps
ETITLE: TS BOND ANGLE DIHED IMPRP ELECT VDW BOUNDARY MISC KINETIC TOTAL TEMP POTENTIAL TOTALAVG TEMPAVG PRESSURE GPRESSURE VOLUME PRESSAVG GPRESSAVG
ENERGY: 0 1.0462 7.5385 8.6464 0.0000 -10788.1018 1409.2604 0.0000 0.0000 1763.5989 -7598.0113 297.4140 -9361.6102 -7598.0113 297.4140 -470.7770 -382.5446 30573.6095 -470.7770 -382.5446
ENERGY: 300000 1.9106 10.9477 8.9205 0.0000 -10688.1887 1401.0365 0.0000 0.0000 1789.9051 -7475.4684 301.8503 -9265.3734 -7563.8189 296.6660 31.9717 61.0654 30430.3443 -135.7624 -61.1661
ENERGY: 600000 1.6928 8.2823 8.7374 0.0000 -10616.6243 1345.2491 0.0000 0.0000 1791.1744 -7461.4883 302.0643 -9252.6627 -7550.8708 297.8430 -636.8384 -584.2287 30826.4549 -130.2066 -57.8976
ENERGY: 900000 3.1548 3.7921 8.8985 0.0000 -10772.6518 1398.3190 0.0000 0.0000 1801.9392 -7556.5481 303.8797 -9358.4873 -7562.8305 297.9521 -490.1658 -445.5761 30641.6207 -117.1908 -51.7389
ENERGY: 1200000 1.1131 6.1032 9.4708 0.0000 -10932.2975 1544.3813 0.0000 0.0000 1781.8702 -7589.3588 300.4953 -9371.2291 -7569.6169 298.2146 768.7504 799.7847 30367.1746 -58.9852 -1.0025
ENERGY: 1500000 3.0052 4.4724 8.7245 0.0000 -10768.4114 1480.1702 0.0000 0.0000 1775.7415 -7496.2976 299.4617 -9272.0391 -7556.1421 299.0847 601.1618 620.9691 30299.7827 -55.0693 1.8459
TCL: Running FEP window  10: Lambda1 0.5499999999999996 Lambda2 0.4999999999999996 [dLambda -0.04999999999999999]
TCL: Setting parameter firsttimestep to 0
TCL: Setting parameter alchLambda to 0.5499999999999996
Info: NONBONDED TABLE R-SQUARED SPACING: 0.0625
Info: NONBONDED TABLE SIZE: 705 POINTS
TCL: Setting parameter alchLambda2 to 0.4999999999999996
Info: NONBONDED TABLE R-SQUARED SPACING: 0.0625
Info: NONBONDED TABLE SIZE: 705 POINTS
TCL: Running for 1500000 steps
ETITLE: TS BOND ANGLE DIHED IMPRP ELECT VDW BOUNDARY MISC KINETIC TOTAL TEMP POTENTIAL TOTALAVG TEMPAVG PRESSURE GPRESSURE VOLUME PRESSAVG GPRESSAVG
ENERGY: 0 3.0052 4.4724 8.7245 0.0000 -10767.7737 1480.2308 0.0000 0.0000 1774.8417 -7496.4991 299.3100 -9271.3408 -7496.4991 299.3100 519.1524 614.4688 30299.7827 519.1524 614.4688
ENERGY: 300000 2.2246 8.6532 8.9080 0.0000 -10856.7157 1497.4888 0.0000 0.0000 1788.2756 -7551.1654 301.5755 -9339.4410 -7539.6599 299.7765 379.7115 423.5317 30474.2759 128.3699 169.7690
ENERGY: 600000 3.1848 13.3745 8.9499 0.0000 -10752.7551 1475.5335 0.0000 0.0000 1809.7147 -7441.9977 305.1910 -9251.7124 -7516.1117 299.6014 114.0586 196.1935 31017.5963 -24.8334 22.3379
ENERGY: 900000 2.4554 6.8218 9.1442 0.0000 -10619.7831 1303.6390 0.0000 0.0000 1737.3842 -7560.3386 292.9931 -9297.7228 -7538.4889 298.2151 -1051.8350 -1050.9332 30856.5336 -7.3627 40.3896
ENERGY: 1200000 1.4160 8.5191 8.8152 0.0000 -10754.0071 1423.6991 0.0000 0.0000 1750.5951 -7560.9625 295.2210 -9311.5576 -7545.6288 298.0879 -406.8428 -334.2202 30783.4991 -0.0504 57.1683
ENERGY: 1500000 0.6066 7.8705 9.0638 0.0000 -10859.4149 1499.2715 0.0000 0.0000 1802.3963 -7540.2062 303.9568 -9342.6025 -7547.8674 297.6073 175.3803 206.8353 30968.9767 1.8963 61.0904
TCL: Running FEP window  11: Lambda1 0.4999999999999996 Lambda2 0.4499999999999996 [dLambda -0.04999999999999999]
TCL: Setting parameter firsttimestep to 0
TCL: Setting parameter alchLambda to 0.4999999999999996
Info: NONBONDED TABLE R-SQUARED SPACING: 0.0625
Info: NONBONDED TABLE SIZE: 705 POINTS
TCL: Setting parameter alchLambda2 to 0.4499999999999996
Info: NONBONDED TABLE R-SQUARED SPACING: 0.0625
Info: NONBONDED TABLE SIZE: 705 POINTS
TCL: Running for 1500000 steps
ETITLE: TS BOND ANGLE DIHED IMPRP ELECT VDW BOUNDARY MISC KINETIC TOTAL TEMP POTENTIAL TOTALAVG TEMPAVG PRESSURE GPRESSURE VOLUME PRESSAVG GPRESSAVG
ENERGY: 0 0.6066 7.8705 9.0638 0.0000 -10859.5937 1498.5152 0.0000 0.0000 1801.5035 -7542.0342 303.8062 -9343.5377 -7542.0342 303.8062 110.1486 195.9979 30968.9767 110.1486 195.9979
ENERGY: 300000 1.2400 5.0484 9.1430 0.0000 -10881.9840 1498.5425 0.0000 0.0000 1792.7043 -7575.3058 302.3223 -9368.0101 -7544.9800 303.4255 376.8744 357.9086 30762.6692 24.4804 78.5908
ENERGY: 600000 1.5572 8.5817 8.3931 0.0000 -10641.7023 1355.5427 0.0000 0.0000 1810.4966 -7457.1310 305.3228 -9267.6276 -7526.5861 303.0551 -626.8888 -564.6000 30774.7427 56.3235 119.0667
ENERGY: 900000 0.6779 6.6619 9.2656 0.0000 -10836.2734 1508.4215 0.0000 0.0000 1763.3891 -7547.8574 297.3786 -9311.2465 -7544.8586 302.9826 352.5772 317.3025 30850.4448 97.1622 147.7373
ENERGY: 1200000 1.3038 7.0268 9.4284 0.0000 -10778.2511 1451.9873 0.0000 0.0000 1784.4358 -7524.0691 300.9279 -9308.5048 -7547.4393 301.9443 59.9483 63.1952 30793.3936 102.1958 153.5782
ENERGY: 1500000 0.7281 5.7976 8.8541 0.0000 -10785.4482 1446.5989 0.0000 0.0000 1797.4704 -7525.9992 303.1261 -9323.4696 -7548.9952 301.4127 -99.6835 -29.1714 30629.8272 38.9110 88.6296
TCL: Running FEP window  12: Lambda1 0.4499999999999996 Lambda2 0.39999999999999963 [dLambda -0.04999999999999999]
TCL: Setting parameter firsttimestep to 0
TCL: Setting parameter alchLambda to 0.4499999999999996
Info: NONBONDED TABLE R-SQUARED SPACING: 0.0625
Info: NONBONDED TABLE SIZE: 705 POINTS
TCL: Setting parameter alchLambda2 to 0.39999999999999963
Info: NONBONDED TABLE R-SQUARED SPACING: 0.0625
Info: NONBONDED TABLE SIZE: 705 POINTS
TCL: Running for 1500000 steps
ETITLE: TS BOND ANGLE DIHED IMPRP ELECT VDW BOUNDARY MISC KINETIC TOTAL TEMP POTENTIAL TOTALAVG TEMPAVG PRESSURE GPRESSURE VOLUME PRESSAVG GPRESSAVG
ENERGY: 0 0.7281 5.7976 8.8541 0.0000 -10785.4476 1446.8932 0.0000 0.0000 1796.5888 -7526.5858 302.9774 -9323.1747 -7526.5858 302.9774 -114.7755 -32.3129 30629.8272 -114.7755 -32.3129
ENERGY: 300000 2.3119 2.6948 9.1223 0.0000 -10618.8746 1348.3299 0.0000 0.0000 1724.1960 -7532.2197 290.7691 -9256.4158 -7526.0714 298.2430 -530.7800 -444.9662 30463.7093 -483.9198 -403.1534
ENERGY: 600000 2.2804 4.7864 8.8011 0.0000 -10820.2695 1414.4463 0.0000 0.0000 1790.2614 -7599.6940 301.9104 -9389.9554 -7551.8185 298.8253 -602.6952 -567.9138 31016.4969 -263.2161 -193.4855
ENERGY: 900000 1.2710 7.2469 9.2082 0.0000 -10755.4078 1414.1369 0.0000 0.0000 1815.9742 -7507.5706 306.2466 -9323.5448 -7551.7852 299.7207 -342.4722 -286.3446 30726.2053 -225.2204 -160.4093
ENERGY: 1200000 1.9592 6.8101 9.0240 0.0000 -10824.6333 1461.8676 0.0000 0.0000 1761.2444 -7583.7278 297.0169 -9344.9722 -7549.4055 299.2905 79.0136 70.3473 30436.2569 -150.2073 -91.7286
ENERGY: 1500000 1.3869 4.7194 8.7753 0.0000 -10731.6494 1457.3697 0.0000 0.0000 1767.1591 -7492.2390 298.0144 -9259.3981 -7548.5568 299.2165 268.9162 348.1561 30679.2186 -99.2658 -41.5277
TCL: Running FEP window  13: Lambda1 0.39999999999999963 Lambda2 0.34999999999999964 [dLambda -0.04999999999999999]
TCL: Setting parameter firsttimestep to 0
TCL: Setting parameter alchLambda to 0.39999999999999963
Info: NONBONDED TABLE R-SQUARED SPACING: 0.0625
Info: NONBONDED TABLE SIZE: 705 POINTS
TCL: Setting parameter alchLambda2 to 0.34999999999999964
Info: NONBONDED TABLE R-SQUARED SPACING: 0.0625
Info: NONBONDED TABLE SIZE: 705 POINTS
TCL: Running for 1500000 steps
ETITLE: TS BOND ANGLE DIHED IMPRP ELECT VDW BOUNDARY MISC KINETIC TOTAL TEMP POTENTIAL TOTALAVG TEMPAVG PRESSURE GPRESSURE VOLUME PRESSAVG GPRESSAVG
ENERGY: 0 1.3869 4.7194 8.7753 0.0000 -10731.6504 1457.5600 0.0000 0.0000 1766.2473 -7492.9614 297.8606 -9259.2087 -7492.9614 297.8606 256.7433 342.5373 30679.2186 256.7433 342.5373
ENERGY: 300000 1.7056 11.5117 9.2106 0.0000 -10703.3867 1393.6268 0.0000 0.0000 1787.8383 -7499.4938 301.5017 -9287.3321 -7523.4345 302.9771 -565.8843 -513.8880 31072.2127 -143.0338 -75.3695
ENERGY: 600000 2.4352 3.4462 8.9734 0.0000 -10778.3555 1426.8698 0.0000 0.0000 1844.5190 -7492.1118 311.0604 -9336.6308 -7551.0379 302.4375 -241.8097 -169.1112 30607.9083 -79.9589 -18.1831
ENERGY: 900000 1.1283 8.3052 9.3251 0.0000 -10892.3864 1446.0885 0.0000 0.0000 1747.9164 -7679.6228 294.7693 -9427.5392 -7554.8568 303.1088 -103.4212 -35.5361 29918.2292 -166.1056 -110.4281
ENERGY: 1200000 1.2950 5.1223 9.1744 0.0000 -10769.5749 1411.3592 0.0000 0.0000 1771.6971 -7570.9269 298.7797 -9342.6241 -7551.2304 302.6467 -653.8106 -552.8771 31283.2679 -159.1115 -96.3585
ENERGY: 1500000 0.6752 3.1532 9.0369 0.0000 -10743.7019 1402.9943 0.0000 0.0000 1763.9387 -7563.9035 297.4713 -9327.8422 -7554.0104 302.0019 -530.0213 -435.0628 31035.5767 -99.7249 -32.0243
TCL: Running FEP window  14: Lambda1 0.34999999999999964 Lambda2 0.29999999999999966 [dLambda -0.04999999999999999]
TCL: Setting parameter firsttimestep to 0
TCL: Setting parameter alchLambda to 0.34999999999999964
Info: NONBONDED TABLE R-SQUARED SPACING: 0.0625
Info: NONBONDED TABLE SIZE: 705 POINTS
TCL: Setting parameter alchLambda2 to 0.29999999999999966
Info: NONBONDED TABLE R-SQUARED SPACING: 0.0625
Info: NONBONDED TABLE SIZE: 705 POINTS
TCL: Running for 1500000 steps
ETITLE: TS BOND ANGLE DIHED IMPRP ELECT VDW BOUNDARY MISC KINETIC TOTAL TEMP POTENTIAL TOTALAVG TEMPAVG PRESSURE GPRESSURE VOLUME PRESSAVG GPRESSAVG
ENERGY: 0 0.6752 3.1532 9.0369 0.0000 -10743.7015 1403.4806 0.0000 0.0000 1763.0395 -7564.3160 297.3196 -9327.3555 -7564.3160 297.3196 -525.5689 -435.8649 31035.5767 -525.5689 -435.8649
ENERGY: 300000 1.1547 9.5234 9.1048 0.0000 -10855.1269 1416.8817 0.0000 0.0000 1737.3002 -7681.1621 292.9790 -9418.4623 -7593.0182 298.7245 -228.4657 -260.0819 30129.3350 -477.9670 -405.5012
ENERGY: 600000 0.9627 5.4410 8.8611 0.0000 -10647.7737 1379.2808 0.0000 0.0000 1811.3328 -7441.8953 305.4638 -9253.2281 -7562.9626 301.1177 -405.7509 -412.2817 31291.3307 -420.3361 -370.9099
ENERGY: 900000 1.7158 7.2954 9.1150 0.0000 -10732.2014 1347.4048 0.0000 0.0000 1804.3901 -7562.2802 304.2930 -9366.6703 -7560.0787 301.0250 -1063.7152 -992.1437 30738.3622 -303.2533 -263.0082
ENERGY: 1200000 1.8960 6.4081 9.4011 0.0000 -10764.5658 1414.0535 0.0000 0.0000 1770.1110 -7562.6960 298.5122 -9332.8070 -7554.1058 301.6384 -408.0469 -408.0974 30890.3958 -257.3940 -217.9158
ENERGY: 1500000 0.4743 3.0443 9.1340 0.0000 -10856.1742 1520.2436 0.0000 0.0000 1789.2142 -7534.0638 301.7338 -9323.2780 -7560.2697 300.2313 718.0208 777.9468 30274.0700 -65.5485 -28.8573
TCL: Running FEP window  15: Lambda1 0.29999999999999966 Lambda2 0.24999999999999967 [dLambda -0.04999999999999999]
TCL: Setting parameter firsttimestep to 0
TCL: Setting parameter alchLambda to 0.29999999999999966
Info: NONBONDED TABLE R-SQUARED SPACING: 0.0625
Info: NONBONDED TABLE SIZE: 705 POINTS
TCL: Setting parameter alchLambda2 to 0.24999999999999967
Info: NONBONDED TABLE R-SQUARED SPACING: 0.0625
Info: NONBONDED TABLE SIZE: 705 POINTS
TCL: Running for 1500000 steps
ETITLE: TS BOND ANGLE DIHED IMPRP ELECT VDW BOUNDARY MISC KINETIC TOTAL TEMP POTENTIAL TOTALAVG TEMPAVG PRESSURE GPRESSURE VOLUME PRESSAVG GPRESSAVG
ENERGY: 0 0.4743 3.0443 9.1340 0.0000 -10856.1755 1520.2879 0.0000 0.0000 1788.3090 -7534.9260 301.5811 -9323.2350 -7534.9260 301.5811 702.9924 772.9508 30274.0700 702.9924 772.9508
ENERGY: 300000 1.8849 8.2908 8.7433 0.0000 -10772.0152 1432.0270 0.0000 0.0000 1776.1402 -7544.9290 299.5290 -9321.0691 -7559.5223 299.2901 127.5077 148.5400 30442.2663 372.9159 424.2070
ENERGY: 600000 3.4121 5.2885 9.2080 0.0000 -10801.1156 1487.5534 0.0000 0.0000 1767.0950 -7528.5587 298.0036 -9295.6537 -7564.5043 298.1301 357.6528 449.3042 30802.5640 342.1539 397.3327
ENERGY: 900000 0.8133 4.3632 9.6846 0.0000 -10838.2136 1497.4170 0.0000 0.0000 1746.4872 -7579.4483 294.5283 -9325.9355 -7567.3207 297.4323 291.3373 385.2532 30439.6603 234.9237 288.5666
ENERGY: 1200000 1.0499 6.0959 8.8679 0.0000 -10792.6770 1486.5632 0.0000 0.0000 1748.7157 -7541.3844 294.9041 -9290.1001 -7567.7258 296.5109 355.0401 419.8815 30455.8766 194.2011 249.0281
ENERGY: 1500000 1.3755 10.2880 8.7079 0.0000 -10710.1011 1420.1166 0.0000 0.0000 1775.5691 -7494.0439 299.4326 -9269.6130 -7561.8953 297.2555 -224.6818 -79.4188 30755.5745 168.0916 234.0117
TCL: Running FEP window  16: Lambda1 0.24999999999999967 Lambda2 0.19999999999999968 [dLambda -0.04999999999999999]
TCL: Setting parameter firsttimestep to 0
TCL: Setting parameter alchLambda to 0.24999999999999967
Info: NONBONDED TABLE R-SQUARED SPACING: 0.0625
Info: NONBONDED TABLE SIZE: 705 POINTS
TCL: Setting parameter alchLambda2 to 0.19999999999999968
Info: NONBONDED TABLE R-SQUARED SPACING: 0.0625
Info: NONBONDED TABLE SIZE: 705 POINTS
TCL: Running for 1500000 steps
ETITLE: TS BOND ANGLE DIHED IMPRP ELECT VDW BOUNDARY MISC KINETIC TOTAL TEMP POTENTIAL TOTALAVG TEMPAVG PRESSURE GPRESSURE VOLUME PRESSAVG GPRESSAVG
ENERGY: 0 1.3755 10.2880 8.7079 0.0000 -10710.1008 1420.3892 0.0000 0.0000 1774.7085 -7494.6316 299.2875 -9269.3401 -7494.6316 299.2875 -167.0818 -78.9797 30755.5745 -167.0818 -78.9797
ENERGY: 300000 2.5892 9.2778 9.0251 0.0000 -10773.0018 1445.4486 0.0000 0.0000 1737.5246 -7569.1366 293.0168 -9306.6611 -7542.8877 297.2403 -362.9259 -199.0000 31001.9490 -15.2588 56.3869
ENERGY: 600000 1.7298 5.8956 8.8770 0.0000 -10785.2005 1452.0801 0.0000 0.0000 1785.2469 -7531.3711 301.0647 -9316.6180 -7525.8230 299.3929 -85.2241 -28.2264 30591.2037 -200.1479 -132.9498
ENERGY: 900000 1.9306 5.8626 8.8536 0.0000 -10830.4211 1536.9705 0.0000 0.0000 1848.7031 -7428.1007 311.7660 -9276.8038 -7511.3771 300.9120 994.5456 1005.1479 30637.3393 -74.3647 -17.2200
ENERGY: 1200000 1.6938 8.8111 8.8112 0.0000 -10787.4285 1423.8091 0.0000 0.0000 1721.9152 -7622.3880 290.3844 -9344.3033 -7522.4911 300.3515 -127.2778 -53.5410 30519.8016 -83.7683 -20.6794
ENERGY: 1500000 1.1687 4.7110 8.6893 0.0000 -10704.8858 1426.9939 0.0000 0.0000 1773.1495 -7490.1734 299.0246 -9263.3228 -7520.1753 300.1177 100.0920 115.4207 30666.4885 -92.5286 -32.9454
TCL: Running FEP window  17: Lambda1 0.19999999999999968 Lambda2 0.1499999999999997 [dLambda -0.04999999999999999]
TCL: Setting parameter firsttimestep to 0
TCL: Setting parameter alchLambda to 0.19999999999999968
Info: NONBONDED TABLE R-SQUARED SPACING: 0.0625
Info: NONBONDED TABLE SIZE: 705 POINTS
TCL: Setting parameter alchLambda2 to 0.1499999999999997
Info: NONBONDED TABLE R-SQUARED SPACING: 0.0625
Info: NONBONDED TABLE SIZE: 705 POINTS
TCL: Running for 1500000 steps
ETITLE: TS BOND ANGLE DIHED IMPRP ELECT VDW BOUNDARY MISC KINETIC TOTAL TEMP POTENTIAL TOTALAVG TEMPAVG PRESSURE GPRESSURE VOLUME PRESSAVG GPRESSAVG
ENERGY: 0 1.1687 4.7110 8.6893 0.0000 -10704.8867 1427.2059 0.0000 0.0000 1772.2009 -7490.9108 298.8646 -9263.1117 -7490.9108 298.8646 23.6019 115.4838 30666.4885 23.6019 115.4838
ENERGY: 300000 1.7205 7.0849 9.0305 0.0000 -10670.2686 1389.1755 0.0000 0.0000 1773.4083 -7489.8488 299.0682 -9263.2571 -7507.3436 297.5254 -439.2265 -351.7368 30563.5809 -157.4568 -65.1968
ENERGY: 600000 1.4014 3.7324 9.1556 0.0000 -10887.8608 1472.1030 0.0000 0.0000 1809.4519 -7592.0165 305.1467 -9401.4684 -7547.4599 299.5190 -82.9252 -32.5486 30596.5859 -71.2223 7.1762
ENERGY: 900000 0.3308 6.2379 8.9168 0.0000 -10830.1302 1467.8787 0.0000 0.0000 1777.8245 -7568.9415 299.8130 -9346.7660 -7554.4982 298.5066 236.0460 264.8574 30441.0073 2.4885 65.0016
ENERGY: 1200000 3.8469 5.5071 9.2474 0.0000 -10807.7909 1413.6593 0.0000 0.0000 1757.2781 -7618.2521 296.3480 -9375.5302 -7560.2726 298.6583 -452.1878 -388.7656 30248.0725 -46.5261 21.4675
ENERGY: 1500000 0.8026 3.0934 9.0921 0.0000 -10923.8064 1535.7783 0.0000 0.0000 1774.3736 -7600.6665 299.2310 -9375.0400 -7557.6417 299.6196 633.1572 671.3280 30301.6838 66.9676 131.7471
TCL: Running FEP window  18: Lambda1 0.1499999999999997 Lambda2 0.09999999999999969 [dLambda -0.05 ]
TCL: Setting parameter firsttimestep to 0
TCL: Setting parameter alchLambda to 0.1499999999999997
Info: NONBONDED TABLE R-SQUARED SPACING: 0.0625
Info: NONBONDED TABLE SIZE: 705 POINTS
TCL: Setting parameter alchLambda2 to 0.09999999999999969
Info: NONBONDED TABLE R-SQUARED SPACING: 0.0625
Info: NONBONDED TABLE SIZE: 705 POINTS
TCL: Running for 1500000 steps
ETITLE: TS BOND ANGLE DIHED IMPRP ELECT VDW BOUNDARY MISC KINETIC TOTAL TEMP POTENTIAL TOTALAVG TEMPAVG PRESSURE GPRESSURE VOLUME PRESSAVG GPRESSAVG
ENERGY: 0 0.8026 3.0934 9.0921 0.0000 -10923.8066 1536.0420 0.0000 0.0000 1773.5128 -7601.2637 299.0859 -9374.7765 -7601.2637 299.0859 584.4583 672.4241 30301.6838 584.4583 672.4241
ENERGY: 300000 1.1271 4.7262 9.0371 0.0000 -10660.0937 1382.3087 0.0000 0.0000 1816.9343 -7445.9604 306.4085 -9262.8947 -7513.4871 301.7597 -341.6412 -307.1318 30609.6114 85.7638 153.1065
ENERGY: 600000 2.5441 8.1078 8.6545 0.0000 -10770.2641 1412.7034 0.0000 0.0000 1809.2150 -7529.0394 305.1067 -9338.2544 -7553.4612 299.6271 -334.9303 -235.3441 30636.4558 -122.9437 -51.6315
ENERGY: 900000 2.9096 5.3561 10.1515 0.0000 -10790.3395 1457.6525 0.0000 0.0000 1752.8287 -7561.4412 295.5977 -9314.2699 -7566.9267 298.9513 54.7892 61.0594 30706.8661 -231.8414 -166.8740
ENERGY: 1200000 3.9174 7.1734 8.6145 0.0000 -10783.2155 1463.4381 0.0000 0.0000 1805.1446 -7494.9276 304.4203 -9300.0722 -7555.9996 299.4672 640.4828 641.4331 29822.4783 -117.0083 -58.9247
ENERGY: 1500000 1.0138 7.9791 8.9414 0.0000 -10848.2145 1496.2095 0.0000 0.0000 1823.6716 -7510.3993 307.5447 -9334.0709 -7548.3762 300.0815 358.1916 469.4259 30299.0754 -223.3479 -153.2446
TCL: Running FEP window  19: Lambda1 0.09999999999999969 Lambda2 0.049999999999999684 [dLambda -0.05 ]
TCL: Setting parameter firsttimestep to 0
TCL: Setting parameter alchLambda to 0.09999999999999969
Info: NONBONDED TABLE R-SQUARED SPACING: 0.0625
Info: NONBONDED TABLE SIZE: 705 POINTS
TCL: Setting parameter alchLambda2 to 0.049999999999999684
Info: NONBONDED TABLE R-SQUARED SPACING: 0.0625
Info: NONBONDED TABLE SIZE: 705 POINTS
TCL: Running for 1500000 steps
ETITLE: TS BOND ANGLE DIHED IMPRP ELECT VDW BOUNDARY MISC KINETIC TOTAL TEMP POTENTIAL TOTALAVG TEMPAVG PRESSURE GPRESSURE VOLUME PRESSAVG GPRESSAVG
ENERGY: 0 1.0138 7.9791 8.9414 0.0000 -10848.2149 1496.0587 0.0000 0.0000 1822.8017 -7511.4202 307.3980 -9334.2219 -7511.4202 307.3980 383.9552 468.0712 30299.0754 383.9552 468.0712
ENERGY: 300000 7.0793 6.4913 8.8314 0.0000 -10751.6951 1426.8440 0.0000 0.0000 1774.5106 -7527.9385 299.2541 -9302.4492 -7530.1894 301.6432 -55.6612 21.5638 30645.1293 -50.6276 27.1010
ENERGY: 600000 3.6558 9.7554 9.0114 0.0000 -10991.6154 1532.1113 0.0000 0.0000 1773.4001 -7663.6813 299.0669 -9437.0813 -7532.7931 302.3333 466.8395 494.9140 30160.2195 161.2202 223.6303
ENERGY: 900000 2.1387 5.2103 8.8882 0.0000 -10716.1477 1408.5712 0.0000 0.0000 1783.1732 -7508.1660 300.7150 -9291.3392 -7534.1086 301.9232 -303.5961 -170.1007 30494.6345 33.3351 95.4313
ENERGY: 1200000 1.8049 7.4102 8.8792 0.0000 -10753.6831 1432.6289 0.0000 0.0000 1836.4136 -7466.5464 309.6935 -9302.9600 -7527.2591 302.3099 -295.1241 -264.6617 31071.4517 15.3484 76.7575
ENERGY: 1500000 2.2081 8.0411 9.0431 0.0000 -10778.9743 1440.2099 0.0000 0.0000 1783.9594 -7535.5128 300.8476 -9319.4722 -7529.1455 302.5023 -126.3166 -140.9818 31232.8528 -9.3047 42.5507
TCL: Running FEP window  20: Lambda1 0.049999999999999684 Lambda2 0.0    [dLambda -0.049999999999999684]
TCL: Setting parameter firsttimestep to 0
TCL: Setting parameter alchLambda to 0.049999999999999684
Info: NONBONDED TABLE R-SQUARED SPACING: 0.0625
Info: NONBONDED TABLE SIZE: 705 POINTS
TCL: Setting parameter alchLambda2 to 0.0
Info: NONBONDED TABLE R-SQUARED SPACING: 0.0625
Info: NONBONDED TABLE SIZE: 705 POINTS
TCL: Running for 1500000 steps
ETITLE: TS BOND ANGLE DIHED IMPRP ELECT VDW BOUNDARY MISC KINETIC TOTAL TEMP POTENTIAL TOTALAVG TEMPAVG PRESSURE GPRESSURE VOLUME PRESSAVG GPRESSAVG
ENERGY: 0 2.2081 8.0411 9.0431 0.0000 -10778.9749 1439.9158 0.0000 0.0000 1783.0559 -7536.7110 300.6952 -9319.7670 -7536.7110 300.6952 -237.1390 -146.4597 31232.8528 -237.1390 -146.4597
ENERGY: 300000 1.7106 4.9247 9.5954 0.0000 -10826.1547 1504.4664 0.0000 0.0000 1844.2017 -7461.2559 311.0069 -9305.4576 -7480.5854 305.9559 299.5697 317.5063 30764.2700 140.7968 191.3982
ENERGY: 600000 1.7228 3.8514 9.1758 0.0000 -10848.8899 1502.2783 0.0000 0.0000 1825.6745 -7506.1870 307.8824 -9331.8616 -7487.5322 304.8952 398.4269 451.2677 30579.1680 51.3624 101.7673
ENERGY: 900000 1.9532 13.3877 8.8605 0.0000 -10827.5085 1444.3146 0.0000 0.0000 1807.4045 -7551.5879 304.8014 -9358.9924 -7525.9141 302.5336 -111.3054 -51.1845 30371.9400 76.1476 131.8782
ENERGY: 1200000 0.9881 6.1840 8.7788 0.0000 -10931.3264 1515.0041 0.0000 0.0000 1814.7060 -7585.6654 306.0327 -9400.3714 -7538.1928 302.4284 257.5954 339.7606 30313.4022 117.5377 176.9502
ENERGY: 1500000 2.0741 4.5929 8.6438 0.0000 -10709.4541 1379.8674 0.0000 0.0000 1754.9748 -7559.3011 295.9596 -9314.2759 -7538.9257 302.6445 -696.2920 -626.1012 30706.2767 25.2414 88.1089
TCL: Exiting due to exit command.
