Info: SIMULATION PARAMETERS:
Info: TIMESTEP               2
Info: NUMBER OF STEPS        0
Info: STEPS PER CYCLE        10
Info: PERIODIC CELL BASIS 1  31.7013 0 0
Info: PERIODIC CELL BASIS 2  0 29.9354 0
Info: PERIODIC CELL BASIS 3  0 0 31.6296
Info: PERIODIC CELL CENTER   0 0 0
Info: WRAPPING WATERS AROUND PERIODIC BOUNDARIES ON OUTPUT.
Info: WRAPPING ALL CLUSTERS AROUND PERIODIC BOUNDARIES ON OUTPUT.
Info: FIRST LDB TIMESTEP     50
Info: LAST LDB TIMESTEP     -1
Info: HOM BACKGROUND SCALING 1
Info: PME BACKGROUND SCALING 1
Info: MIN ATOMS PER PATCH    40
Info: EMPTY PATCH LOAD       40 ATOMS
Info: VELOCITY FILE          mobley_1417007_equil.vel
Info: CENTER OF MASS MOVING INITIALLY? NO
Info: DIELECTRIC             1
Info: EXCLUDE                SCALED ONE-FOUR
Info: 1-4 ELECTROSTATICS SCALED BY 0.833333
Info: MODIFIED 1-4 VDW PARAMETERS WILL BE USED
Info: DCD FILENAME           mobley_1417007_prod.dcd
Info: DCD FREQUENCY          100000
Info: DCD FIRST STEP         100000
Info: DCD FILE WILL CONTAIN UNIT CELL DATA
Info: XST FILENAME           mobley_1417007_prod.xst
Info: XST FREQUENCY          100000
Info: NO VELOCITY DCD OUTPUT
Info: NO FORCE DCD OUTPUT
Info: OUTPUT FILENAME        mobley_1417007_prod
Info: BINARY OUTPUT FILES WILL BE USED
Info: RESTART FILENAME       mobley_1417007_prod.restart
Info: RESTART FREQUENCY      100000
Info: BINARY RESTART FILES WILL BE USED
Info: CUTOFF                 9
Info: PAIRLIST DISTANCE      11
Info: PAIRLIST SHRINK RATE   0.01
Info: PAIRLIST GROW RATE     0.01
Info: PAIRLIST TRIGGER       0.3
Info: PAIRLISTS PER CYCLE    2
Info: PAIRLISTS ENABLED
Info: MARGIN                 2
Info: HYDROGEN GROUP CUTOFF  2.5
Info: PATCH DIMENSION        15.5
Info: ENERGY OUTPUT STEPS    100000
Info: ENERGY EVALUATION STEPS    100000
Info: OUTPUT ENERGY PRECISION 4
Info: CROSSTERM ENERGY INCLUDED IN DIHEDRAL
Info: TIMING OUTPUT STEPS    1000000
Info: PRESSURE OUTPUT STEPS  100000
Info: ALCHEMICAL FEP ON
Info: FEP CURRENT LAMBDA VALUE     1
Info: FEP COMPARISON LAMBDA VALUE  0.95
Info: FEP INTRA-ALCHEMICAL NON-BONDED INTERACTIONS WILL BE RETAINED
Info: FEP INTRA-ALCHEMICAL BONDED INTERACTIONS WILL BE RETAINED
Info: FEP VDW SHIFTING COEFFICIENT 5
Info: FEP ELEC. ACTIVE FOR ANNIHILATED PARTICLES BETWEEN LAMBDA = 0 AND LAMBDA = 0.5
Info: FEP ELEC. ACTIVE FOR EXNIHILATED PARTICLES BETWEEN LAMBDA = 0.5 AND LAMBDA = 1
Info: FEP VDW ACTIVE FOR ANNIHILATED PARTICLES BETWEEN LAMBDA = 0 AND LAMBDA = 1
Info: FEP VDW ACTIVE FOR EXNIHILATED PARTICLES BETWEEN LAMBDA = 0 AND LAMBDA = 1
Info: FEP BOND ACTIVE FOR ANNIHILATED PARTICLES BETWEEN LAMBDA = 1 AND LAMBDA = 1
Info: FEP BOND ACTIVE FOR EXNIHILATED PARTICLES BETWEEN LAMBDA = 0 AND LAMBDA = 0
Info: LANGEVIN DYNAMICS ACTIVE
Info: LANGEVIN TEMPERATURE   300
Info: LANGEVIN USING BBK INTEGRATOR
Info: LANGEVIN DAMPING COEFFICIENT IS 1 INVERSE PS
Info: LANGEVIN DYNAMICS APPLIED TO HYDROGENS
Info: LANGEVIN PISTON PRESSURE CONTROL ACTIVE
Info:        TARGET PRESSURE IS 1.01325 BAR
Info:     OSCILLATION PERIOD IS 50 FS
Info:             DECAY TIME IS 25 FS
Info:     PISTON TEMPERATURE IS 300 K
Info:       PRESSURE CONTROL IS GROUP-BASED
Info:    INITIAL STRAIN RATE IS 6.53733e-05 6.53733e-05 6.53733e-05
Info:       CELL FLUCTUATION IS ISOTROPIC
Info: PARTICLE MESH EWALD (PME) ACTIVE
Info: PME TOLERANCE               1e-06
Info: PME EWALD COEFFICIENT       0.348832
Info: PME INTERPOLATION ORDER     4
Info: PME GRID DIMENSIONS         32 32 32
Info: PME MAXIMUM GRID SPACING    1
Info: PME CALCULATION WILL BE PERFORMED ON GPU
Info: FULL ELECTROSTATIC EVALUATION FREQUENCY      2
Info: USING VERLET I (r-RESPA) MTS SCHEME.
Info: C1 SPLITTING OF LONG RANGE ELECTROSTATICS
Info: PLACING ATOMS IN PATCHES BY HYDROGEN GROUPS
Info: RIGID BONDS TO HYDROGEN : ALL
Info:         ERROR TOLERANCE : 1e-08
Info:          MAX ITERATIONS : 100
Info: RIGID WATER USING SETTLE ALGORITHM
Info: RANDOM NUMBER SEED     1743805713
Info: USE HYDROGEN BONDS?    NO
Info: Using AMBER format force field!
Info: AMBER PARM FILE        mobley_1417007.prmtop
Info: COORDINATE PDB         mobley_1417007.pdb
Info: Exclusions will be read from PARM file!
Info: SCNB (VDW SCALING)     2
Info: USING ARITHMETIC MEAN TO COMBINE L-J SIGMA PARAMETERS
Info: BINARY COORDINATES     mobley_1417007_equil.coor
Info: SUMMARY OF PARAMETERS:
Info: 13 BONDS
Info: 18 ANGLES
Info:   18 HARMONIC
Info:   0 COSINE-BASED
Info: 21 DIHEDRAL
Info: 0 IMPROPER
Info: 0 CROSSTERM
Info: 0 VDW
Info: 55 VDW_PAIRS
Info: 0 NBTHOLE_PAIRS
Info: To read alchdata from file: mobley_1417007.pdb
Info: To read alchflag data from column: 5
Info: STRUCTURE SUMMARY:
Info: 2940 ATOMS
Info: 2941 BONDS
Info: 46 ANGLES
Info: 92 DIHEDRALS
Info: 0 IMPROPERS
Info: 0 CROSSTERMS
Info: 3047 EXCLUSIONS
Info: 2924 RIGID BONDS
Info: ALCH: 0 ATOMS TO DISAPPEAR IN FINAL STATE
Info: ALCH: 24 ATOMS TO APPEAR IN FINAL STATE
Info: 5896 DEGREES OF FREEDOM
Info: 988 HYDROGEN GROUPS
Info: 3 ATOMS IN LARGEST HYDROGEN GROUP
Info: 988 MIGRATION GROUPS
Info: 3 ATOMS IN LARGEST MIGRATION GROUP
Info: TOTAL MASS = 17812.1 amu
Info: TOTAL CHARGE = -9.99868e-05 e
Info: MASS DENSITY = 0.985417 g/cm^3
Info: ATOM DENSITY = 0.0979473 atoms/A^3
Info: ADDED 0 IMPLICIT EXCLUSIONS
Info: NONBONDED TABLE R-SQUARED SPACING: 0.0625
Info: NONBONDED TABLE SIZE: 705 POINTS
Info: REMOVING COM VELOCITY 0.0617229 -0.155527 -0.256942
Info: Use 3D box decompostion in PME FFT.
Info: Updated CUDA force table with 4096 elements.
Info: Updated CUDA LJ table with 10 x 10 elements.
Info: Found 26 unique exclusion lists needing 76 bytes
TCL: Running for 1500000 steps
ETITLE: TS BOND ANGLE DIHED IMPRP ELECT VDW BOUNDARY MISC KINETIC TOTAL TEMP POTENTIAL TOTALAVG TEMPAVG PRESSURE GPRESSURE VOLUME PRESSAVG GPRESSAVG
ENERGY: 0 6.1969 27.9748 11.9849 0.0000 -10710.6922 1437.1218 0.0000 0.0000 1737.7564 -7489.6574 296.6346 -9227.4138 -7489.6574 296.6346 153.0016 220.2933 30016.1404 153.0016 220.2933
ENERGY: 300000 5.2788 26.4793 9.8127 0.0000 -10606.6121 1401.8870 0.0000 0.0000 1757.8883 -7405.2660 300.0711 -9163.1543 -7439.2672 299.7377 11.9927 48.4163 30488.4809 38.6657 99.3403
ENERGY: 600000 4.8316 22.6030 10.3903 0.0000 -10654.4665 1398.3060 0.0000 0.0000 1744.0832 -7474.2524 297.7146 -9218.3356 -7449.4547 298.0155 -140.9054 -101.8734 30103.5379 34.1877 100.3491
ENERGY: 900000 5.1990 23.7489 15.1539 0.0000 -10547.4393 1358.5544 0.0000 0.0000 1774.9824 -7369.8006 302.9891 -9144.7830 -7411.8600 300.3865 -169.8129 -120.2236 30266.0485 45.3808 108.4802
ENERGY: 1200000 3.6676 28.4057 10.0949 0.0000 -10556.6776 1328.5733 0.0000 0.0000 1739.3374 -7446.5987 296.9045 -9185.9361 -7414.5793 299.9440 -499.0239 -432.9501 30334.9970 -134.0242 -76.1270
ENERGY: 1500000 7.0394 29.3246 11.2170 0.0000 -10564.7275 1389.4281 0.0000 0.0000 1752.6910 -7375.0275 299.1839 -9127.7185 -7417.6984 299.5474 110.9358 189.8083 30342.2249 -224.1382 -168.2341
TCL: Running FEP window   2: Lambda1 0.95   Lambda2 0.8999999999999999 [dLambda -0.050000000000000044]
TCL: Setting parameter firsttimestep to 0
TCL: Setting parameter alchLambda to 0.95
Info: NONBONDED TABLE R-SQUARED SPACING: 0.0625
Info: NONBONDED TABLE SIZE: 705 POINTS
TCL: Setting parameter alchLambda2 to 0.8999999999999999
Info: NONBONDED TABLE R-SQUARED SPACING: 0.0625
Info: NONBONDED TABLE SIZE: 705 POINTS
TCL: Running for 1500000 steps
ETITLE: TS BOND ANGLE DIHED IMPRP ELECT VDW BOUNDARY MISC KINETIC TOTAL TEMP POTENTIAL TOTALAVG TEMPAVG PRESSURE GPRESSURE VOLUME PRESSAVG GPRESSAVG
ENERGY: 0 7.0394 29.3246 11.2170 0.0000 -10562.7986 1389.0978 0.0000 0.0000 1751.8306 -7374.2893 299.0371 -9126.1199 -7374.2893 299.0371 80.9865 165.8750 30342.2249 80.9865 165.8750
ENERGY: 300000 4.7891 27.5163 11.9473 0.0000 -10573.5701 1391.8019 0.0000 0.0000 1769.9534 -7367.5620 302.1306 -9137.5155 -7359.8981 299.4772 -37.7536 14.7641 30221.2379 -171.3120 -97.1025
ENERGY: 600000 4.7263 26.9258 9.6862 0.0000 -10683.4382 1425.5058 0.0000 0.0000 1781.3629 -7435.2313 304.0782 -9216.5942 -7378.3485 301.2306 -102.7709 30.9020 30446.0964 -4.8074 57.2929
ENERGY: 900000 8.9235 27.3640 13.6752 0.0000 -10598.2897 1347.7796 0.0000 0.0000 1758.7692 -7441.7782 300.2215 -9200.5474 -7387.6181 300.2847 -553.4252 -537.3570 30526.5830 -193.4393 -131.6387
ENERGY: 1200000 5.0735 27.8151 11.8789 0.0000 -10780.6359 1504.6418 0.0000 0.0000 1779.6381 -7451.5885 303.7838 -9231.2266 -7400.5543 300.6112 802.2015 849.9302 29821.4687 -52.1755 7.8365
ENERGY: 1500000 8.3545 24.9554 12.4701 0.0000 -10626.6609 1406.2235 0.0000 0.0000 1667.5697 -7507.0877 284.6538 -9174.6574 -7413.2575 299.9241 -332.3464 -283.5691 30552.3176 -114.9519 -57.0502
TCL: Running FEP window   3: Lambda1 0.8999999999999999 Lambda2 0.8499999999999999 [dLambda -0.050000000000000044]
TCL: Setting parameter firsttimestep to 0
TCL: Setting parameter alchLambda to 0.8999999999999999
Info: NONBONDED TABLE R-SQUARED SPACING: 0.0625
Info: NONBONDED TABLE SIZE: 705 POINTS
TCL: Setting parameter alchLambda2 to 0.8499999999999999
Info: NONBONDED TABLE R-SQUARED SPACING: 0.0625
Info: NONBONDED TABLE SIZE: 705 POINTS
TCL: Running for 1500000 steps
ETITLE: TS BOND ANGLE DIHED IMPRP ELECT VDW BOUNDARY MISC KINETIC TOTAL TEMP POTENTIAL TOTALAVG TEMPAVG PRESSURE GPRESSURE VOLUME PRESSAVG GPRESSAVG
ENERGY: 0 8.3545 24.9554 12.4701 0.0000 -10624.4097 1406.0924 0.0000 0.0000 1666.7068 -7505.8306 284.5064 -9172.5373 -7505.8306 284.5064 -380.3335 -301.6477 30552.3176 -380.3335 -301.6477
ENERGY: 300000 9.2803 26.4700 11.7728 0.0000 -10626.7082 1380.0636 0.0000 0.0000 1717.6898 -7481.4317 293.2092 -9199.1215 -7455.6371 295.7200 -615.4105 -544.4725 30470.8467 -292.7466 -219.2385
ENERGY: 600000 6.4297 25.8391 12.3668 0.0000 -10599.5258 1357.6140 0.0000 0.0000 1801.6880 -7395.5883 307.5477 -9197.2763 -7423.9673 298.6116 -374.2646 -330.6666 30270.1125 -248.1513 -184.2984
ENERGY: 900000 7.3112 29.9521 11.7326 0.0000 -10698.6585 1432.9714 0.0000 0.0000 1720.2942 -7496.3970 293.6538 -9216.6911 -7429.2084 298.7243 -54.0444 68.5595 30337.0903 -110.9995 -35.2934
ENERGY: 1200000 3.0213 23.8493 10.8037 0.0000 -10563.7711 1413.4080 0.0000 0.0000 1703.3138 -7409.3750 290.7553 -9112.6888 -7422.8456 298.1684 495.7955 539.8030 30108.1113 -67.8552 5.8557
ENERGY: 1500000 4.9830 26.8553 13.5559 0.0000 -10566.8505 1428.7243 0.0000 0.0000 1721.5417 -7371.1902 293.8668 -9092.7319 -7431.5705 297.3862 266.0828 319.1427 30353.8528 -54.3633 17.3162
TCL: Running FEP window   4: Lambda1 0.8499999999999999 Lambda2 0.7999999999999998 [dLambda -0.050000000000000044]
TCL: Setting parameter firsttimestep to 0
TCL: Setting parameter alchLambda to 0.8499999999999999
Info: NONBONDED TABLE R-SQUARED SPACING: 0.0625
Info: NONBONDED TABLE SIZE: 705 POINTS
TCL: Setting parameter alchLambda2 to 0.7999999999999998
Info: NONBONDED TABLE R-SQUARED SPACING: 0.0625
Info: NONBONDED TABLE SIZE: 705 POINTS
TCL: Running for 1500000 steps
ETITLE: TS BOND ANGLE DIHED IMPRP ELECT VDW BOUNDARY MISC KINETIC TOTAL TEMP POTENTIAL TOTALAVG TEMPAVG PRESSURE GPRESSURE VOLUME PRESSAVG GPRESSAVG
ENERGY: 0 4.9830 26.8553 13.5559 0.0000 -10564.9642 1429.3632 0.0000 0.0000 1720.6648 -7369.5421 293.7171 -9090.2068 -7369.5421 293.7171 239.0833 311.8358 30353.8528 239.0833 311.8358
ENERGY: 300000 3.9654 24.4770 10.9622 0.0000 -10692.8488 1471.7567 0.0000 0.0000 1836.2733 -7345.4142 313.4514 -9181.6875 -7388.9510 301.3111 446.8859 500.2114 30255.6682 89.9284 166.6192
ENERGY: 600000 5.2152 23.8751 11.1743 0.0000 -10656.4516 1435.7687 0.0000 0.0000 1733.8441 -7446.5741 295.9668 -9180.4182 -7399.5406 301.2247 115.5745 105.7073 30592.6475 12.9397 83.1645
ENERGY: 900000 4.0618 22.6237 9.2246 0.0000 -10731.9719 1376.6055 0.0000 0.0000 1749.0558 -7570.4004 298.5634 -9319.4562 -7399.3813 303.0077 -347.7738 -290.2535 29958.8475 7.9308 65.6278
ENERGY: 1200000 6.6229 22.5843 11.0385 0.0000 -10771.0850 1498.3932 0.0000 0.0000 1692.8028 -7539.6433 288.9610 -9232.4461 -7426.2257 300.2849 311.2356 359.3356 30438.8815 3.3299 56.0254
ENERGY: 1500000 3.2446 21.2097 10.0951 0.0000 -10800.0576 1526.6782 0.0000 0.0000 1789.7599 -7449.0702 305.5116 -9238.8301 -7422.7535 301.4446 585.2210 715.8873 30534.1422 80.4814 137.1885
TCL: Running FEP window   5: Lambda1 0.7999999999999998 Lambda2 0.7499999999999998 [dLambda -0.050000000000000044]
TCL: Setting parameter firsttimestep to 0
TCL: Setting parameter alchLambda to 0.7999999999999998
Info: NONBONDED TABLE R-SQUARED SPACING: 0.0625
Info: NONBONDED TABLE SIZE: 705 POINTS
TCL: Setting parameter alchLambda2 to 0.7499999999999998
Info: NONBONDED TABLE R-SQUARED SPACING: 0.0625
Info: NONBONDED TABLE SIZE: 705 POINTS
TCL: Running for 1500000 steps
ETITLE: TS BOND ANGLE DIHED IMPRP ELECT VDW BOUNDARY MISC KINETIC TOTAL TEMP POTENTIAL TOTALAVG TEMPAVG PRESSURE GPRESSURE VOLUME PRESSAVG GPRESSAVG
ENERGY: 0 3.2446 21.2097 10.0951 0.0000 -10798.7737 1527.3137 0.0000 0.0000 1788.8993 -7448.0115 305.3647 -9236.9108 -7448.0115 305.3647 621.3216 710.2645 30534.1422 621.3216 710.2645
ENERGY: 300000 4.7153 21.3157 11.1044 0.0000 -10708.4484 1430.6807 0.0000 0.0000 1770.1066 -7470.5256 302.1568 -9240.6322 -7443.7532 305.4020 -107.4420 -49.5836 30249.8816 50.5117 122.8479
ENERGY: 600000 7.3433 26.8633 11.5243 0.0000 -10685.3256 1393.6863 0.0000 0.0000 1772.8424 -7473.0660 302.6238 -9245.9085 -7445.5482 304.0813 -472.7894 -427.7703 30520.1920 -238.3239 -167.6458
ENERGY: 900000 5.2325 24.1453 9.3395 0.0000 -10687.7549 1413.5438 0.0000 0.0000 1785.5411 -7449.9527 304.7914 -9235.4938 -7447.7008 303.7099 -268.7722 -228.6763 30411.3266 -315.0490 -245.9839
ENERGY: 1200000 5.7785 27.2571 11.2194 0.0000 -10537.5935 1388.6074 0.0000 0.0000 1713.3725 -7391.3586 292.4723 -9104.7311 -7460.2739 300.7345 -140.1557 -56.8834 30323.4571 -318.1228 -245.7069
ENERGY: 1500000 12.1257 22.5435 9.5282 0.0000 -10632.8881 1363.6653 0.0000 0.0000 1709.2047 -7515.8208 291.7608 -9225.0255 -7457.4980 300.2992 -729.2809 -645.0842 30485.8653 -222.1694 -151.4753
TCL: Running FEP window   6: Lambda1 0.7499999999999998 Lambda2 0.6999999999999997 [dLambda -0.050000000000000044]
TCL: Setting parameter firsttimestep to 0
TCL: Setting parameter alchLambda to 0.7499999999999998
Info: NONBONDED TABLE R-SQUARED SPACING: 0.0625
Info: NONBONDED TABLE SIZE: 705 POINTS
TCL: Setting parameter alchLambda2 to 0.6999999999999997
Info: NONBONDED TABLE R-SQUARED SPACING: 0.0625
Info: NONBONDED TABLE SIZE: 705 POINTS
TCL: Running for 1500000 steps
ETITLE: TS BOND ANGLE DIHED IMPRP ELECT VDW BOUNDARY MISC KINETIC TOTAL TEMP POTENTIAL TOTALAVG TEMPAVG PRESSURE GPRESSURE VOLUME PRESSAVG GPRESSAVG
ENERGY: 0 12.1257 22.5435 9.5282 0.0000 -10631.8255 1364.1527 0.0000 0.0000 1708.3286 -7515.1468 291.6113 -9223.4755 -7515.1468 291.6113 -744.1416 -654.9561 30485.8653 -744.1416 -654.9561
ENERGY: 300000 5.4312 25.4659 13.2968 0.0000 -10713.6048 1472.0912 0.0000 0.0000 1759.7497 -7437.5700 300.3888 -9197.3197 -7463.4768 296.2552 351.3529 317.9120 30696.0101 14.2895 62.8831
ENERGY: 600000 4.4533 26.1865 8.9243 0.0000 -10580.1413 1395.4237 0.0000 0.0000 1693.9546 -7451.1989 289.1576 -9145.1535 -7440.0375 296.8301 38.0829 73.0687 30434.6364 -6.4185 56.3861
ENERGY: 900000 6.6515 24.3188 10.7506 0.0000 -10786.9587 1469.7325 0.0000 0.0000 1710.2638 -7565.2416 291.9416 -9275.5053 -7451.2615 297.7743 77.9793 167.3098 30029.7294 88.8013 143.6017
ENERGY: 1200000 4.4045 24.4887 10.1216 0.0000 -10536.9940 1361.4872 0.0000 0.0000 1769.4995 -7366.9926 302.0531 -9136.4921 -7437.6694 298.6828 -385.1373 -353.9991 30742.7515 14.9102 75.4655
ENERGY: 1500000 6.6593 24.7890 8.8998 0.0000 -10678.5568 1388.0862 0.0000 0.0000 1814.7483 -7435.3742 309.7771 -9250.1225 -7438.4593 299.2379 -372.0428 -391.7241 30475.5855 35.2015 87.6773
TCL: Running FEP window   7: Lambda1 0.6999999999999997 Lambda2 0.6499999999999997 [dLambda -0.050000000000000044]
TCL: Setting parameter firsttimestep to 0
TCL: Setting parameter alchLambda to 0.6999999999999997
Info: NONBONDED TABLE R-SQUARED SPACING: 0.0625
Info: NONBONDED TABLE SIZE: 705 POINTS
TCL: Setting parameter alchLambda2 to 0.6499999999999997
Info: NONBONDED TABLE R-SQUARED SPACING: 0.0625
Info: NONBONDED TABLE SIZE: 705 POINTS
TCL: Running for 1500000 steps
ETITLE: TS BOND ANGLE DIHED IMPRP ELECT VDW BOUNDARY MISC KINETIC TOTAL TEMP POTENTIAL TOTALAVG TEMPAVG PRESSURE GPRESSURE VOLUME PRESSAVG GPRESSAVG
ENERGY: 0 6.6593 24.7890 8.8998 0.0000 -10677.9595 1388.5289 0.0000 0.0000 1813.8695 -7435.2131 309.6271 -9249.0826 -7435.2131 309.6271 -495.1215 -400.4052 30475.5855 -495.1215 -400.4052
ENERGY: 300000 6.9081 22.8382 9.7850 0.0000 -10468.8047 1330.8651 0.0000 0.0000 1820.1263 -7278.2820 310.6951 -9098.4084 -7404.2928 306.7057 -271.3988 -198.1660 30204.0698 -142.3641 -70.4319
ENERGY: 600000 1.8482 25.5492 11.7736 0.0000 -10637.7398 1374.7303 0.0000 0.0000 1766.5448 -7457.2937 301.5488 -9223.8385 -7406.1754 305.0624 -268.9402 -263.3868 30159.2519 -153.6962 -94.4885
ENERGY: 900000 5.2543 27.4487 14.4025 0.0000 -10708.7761 1411.0427 0.0000 0.0000 1737.8008 -7512.8270 296.6422 -9250.6278 -7403.2825 304.4214 -196.7982 -146.8487 30146.8094 -107.0301 -47.4875
ENERGY: 1200000 6.7321 24.9010 8.9600 0.0000 -10794.2632 1541.9950 0.0000 0.0000 1782.0570 -7429.6181 304.1967 -9211.6751 -7409.6610 304.2100 1049.8545 1035.6782 30261.7422 -86.5226 -30.2331
ENERGY: 1500000 4.5591 26.9173 9.7397 0.0000 -10531.7857 1340.5621 0.0000 0.0000 1789.2111 -7360.7964 305.4179 -9150.0075 -7403.3876 303.6672 -790.1657 -707.7726 30733.7659 -86.3743 -28.6000
TCL: Running FEP window   8: Lambda1 0.6499999999999997 Lambda2 0.5999999999999996 [dLambda -0.050000000000000044]
TCL: Setting parameter firsttimestep to 0
TCL: Setting parameter alchLambda to 0.6499999999999997
Info: NONBONDED TABLE R-SQUARED SPACING: 0.0625
Info: NONBONDED TABLE SIZE: 705 POINTS
TCL: Setting parameter alchLambda2 to 0.5999999999999996
Info: NONBONDED TABLE R-SQUARED SPACING: 0.0625
Info: NONBONDED TABLE SIZE: 705 POINTS
TCL: Running for 1500000 steps
ETITLE: TS BOND ANGLE DIHED IMPRP ELECT VDW BOUNDARY MISC KINETIC TOTAL TEMP POTENTIAL TOTALAVG TEMPAVG PRESSURE GPRESSURE VOLUME PRESSAVG GPRESSAVG
ENERGY: 0 4.5591 26.9173 9.7398 0.0000 -10530.6773 1340.9330 0.0000 0.0000 1788.3172 -7360.2109 305.2653 -9148.5281 -7360.2109 305.2653 -787.4067 -717.3418 30733.7659 -787.4067 -717.3418
ENERGY: 300000 5.4441 28.6492 10.8265 0.0000 -10650.2287 1410.9430 0.0000 0.0000 1722.4508 -7471.9151 294.0219 -9194.3659 -7421.9772 298.9848 -373.1022 -367.9439 30391.0284 -406.7322 -401.6074
ENERGY: 600000 7.1108 24.0339 9.7183 0.0000 -10674.0606 1457.4844 0.0000 0.0000 1798.1639 -7377.5492 306.9461 -9175.7131 -7397.4186 299.1934 159.3352 249.1958 30125.6235 -357.4857 -320.9802
ENERGY: 900000 7.8469 24.8863 14.2570 0.0000 -10536.0466 1337.0294 0.0000 0.0000 1728.9641 -7423.0628 295.1338 -9152.0270 -7401.3645 300.0951 -473.2951 -378.4233 30482.4848 -286.0784 -242.1114
ENERGY: 1200000 7.6642 29.3380 10.4215 0.0000 -10681.5755 1413.2548 0.0000 0.0000 1755.4219 -7465.4751 299.6501 -9220.8970 -7405.9746 300.0151 -84.1545 -14.9148 30244.5266 -221.9080 -173.1690
ENERGY: 1500000 5.4044 24.5826 11.3786 0.0000 -10844.0013 1574.7673 0.0000 0.0000 1774.5336 -7453.3348 302.9125 -9227.8683 -7405.4459 300.3220 1230.1080 1292.2602 30086.5400 -48.8837 1.0563
TCL: Running FEP window   9: Lambda1 0.5999999999999996 Lambda2 0.5499999999999996 [dLambda -0.050000000000000044]
TCL: Setting parameter firsttimestep to 0
TCL: Setting parameter alchLambda to 0.5999999999999996
Info: NONBONDED TABLE R-SQUARED SPACING: 0.0625
Info: NONBONDED TABLE SIZE: 705 POINTS
TCL: Setting parameter alchLambda2 to 0.5499999999999996
Info: NONBONDED TABLE R-SQUARED SPACING: 0.0625
Info: NONBONDED TABLE SIZE: 705 POINTS
TCL: Running for 1500000 steps
ETITLE: TS BOND ANGLE DIHED IMPRP ELECT VDW BOUNDARY MISC KINETIC TOTAL TEMP POTENTIAL TOTALAVG TEMPAVG PRESSURE GPRESSURE VOLUME PRESSAVG GPRESSAVG
ENERGY: 0 5.4044 24.5826 11.3786 0.0000 -10842.4305 1573.8499 0.0000 0.0000 1773.6359 -7453.5790 302.7592 -9227.2149 -7453.5790 302.7592 1202.6387 1271.8644 30086.5400 1202.6387 1271.8644
ENERGY: 300000 5.8896 26.0389 13.0005 0.0000 -10631.5634 1385.8009 0.0000 0.0000 1700.0643 -7500.7694 290.2006 -9200.8336 -7494.1101 296.4863 -382.4033 -356.7438 30108.3689 351.5676 420.5775
ENERGY: 600000 3.6466 26.2875 8.9650 0.0000 -10510.4129 1360.6355 0.0000 0.0000 1736.7894 -7374.0889 296.4695 -9110.8784 -7443.6001 298.8625 -216.6124 -166.2405 30508.5205 178.1131 250.5840
ENERGY: 900000 8.4884 24.2704 12.0372 0.0000 -10652.9332 1407.9962 0.0000 0.0000 1731.6892 -7468.4517 295.5989 -9200.1409 -7427.3873 299.4355 25.3885 123.5393 30035.0986 60.4206 135.4800
ENERGY: 1200000 6.0854 28.6895 10.3978 0.0000 -10547.9344 1315.9441 0.0000 0.0000 1784.6164 -7402.2011 304.6336 -9186.8175 -7430.3513 299.8058 -1060.9686 -930.0527 30571.3667 -57.1786 15.7438
ENERGY: 1500000 5.8161 22.7983 10.1547 0.0000 -10722.7479 1388.6629 0.0000 0.0000 1800.0412 -7495.2746 307.2666 -9295.3159 -7431.1166 300.6340 -725.8517 -639.0048 30297.3175 -121.9222 -49.8570
TCL: Running FEP window  10: Lambda1 0.5499999999999996 Lambda2 0.4999999999999996 [dLambda -0.04999999999999999]
TCL: Setting parameter firsttimestep to 0
TCL: Setting parameter alchLambda to 0.5499999999999996
Info: NONBONDED TABLE R-SQUARED SPACING: 0.0625
Info: NONBONDED TABLE SIZE: 705 POINTS
TCL: Setting parameter alchLambda2 to 0.4999999999999996
Info: NONBONDED TABLE R-SQUARED SPACING: 0.0625
Info: NONBONDED TABLE SIZE: 705 POINTS
TCL: Running for 1500000 steps
ETITLE: TS BOND ANGLE DIHED IMPRP ELECT VDW BOUNDARY MISC KINETIC TOTAL TEMP POTENTIAL TOTALAVG TEMPAVG PRESSURE GPRESSURE VOLUME PRESSAVG GPRESSAVG
ENERGY: 0 5.8161 22.7983 10.1547 0.0000 -10722.4628 1388.8049 0.0000 0.0000 1799.1977 -7495.6911 307.1226 -9294.8888 -7495.6911 307.1226 -757.4640 -650.1997 30297.3175 -757.4640 -650.1997
ENERGY: 300000 2.1476 22.9198 12.7543 0.0000 -10728.9421 1514.4558 0.0000 0.0000 1782.3473 -7394.3174 304.2463 -9176.6647 -7394.5055 304.3931 442.1328 503.7921 30841.8037 90.8436 165.0392
ENERGY: 600000 4.1890 31.6669 12.4634 0.0000 -10721.5279 1449.0478 0.0000 0.0000 1737.6736 -7486.4871 296.6205 -9224.1607 -7423.7945 302.1202 36.5295 52.3059 30444.9939 26.4931 74.8327
ENERGY: 900000 6.5937 28.8902 9.3617 0.0000 -10739.4701 1443.7091 0.0000 0.0000 1773.7764 -7477.1389 302.7832 -9250.9154 -7431.1184 301.2247 -86.2126 18.4046 30472.8387 -40.6147 11.3974
ENERGY: 1200000 6.4992 26.0801 9.0827 0.0000 -10509.3996 1317.2380 0.0000 0.0000 1759.8076 -7390.6920 300.3987 -9150.4996 -7433.8753 301.0101 -802.2837 -743.5664 30598.0643 -137.7546 -82.8196
ENERGY: 1500000 6.9202 21.3291 9.2443 0.0000 -10631.3658 1424.2026 0.0000 0.0000 1783.2494 -7386.4201 304.4003 -9169.6696 -7429.8581 301.4436 75.6724 104.3967 30610.7739 -164.7427 -111.4145
TCL: Running FEP window  11: Lambda1 0.4999999999999996 Lambda2 0.4499999999999996 [dLambda -0.04999999999999999]
TCL: Setting parameter firsttimestep to 0
TCL: Setting parameter alchLambda to 0.4999999999999996
Info: NONBONDED TABLE R-SQUARED SPACING: 0.0625
Info: NONBONDED TABLE SIZE: 705 POINTS
TCL: Setting parameter alchLambda2 to 0.4499999999999996
Info: NONBONDED TABLE R-SQUARED SPACING: 0.0625
Info: NONBONDED TABLE SIZE: 705 POINTS
TCL: Running for 1500000 steps
ETITLE: TS BOND ANGLE DIHED IMPRP ELECT VDW BOUNDARY MISC KINETIC TOTAL TEMP POTENTIAL TOTALAVG TEMPAVG PRESSURE GPRESSURE VOLUME PRESSAVG GPRESSAVG
ENERGY: 0 6.9202 21.3291 9.2443 0.0000 -10630.9325 1424.8147 0.0000 0.0000 1782.3528 -7386.2714 304.2472 -9168.6243 -7386.2714 304.2472 10.0003 97.3262 30610.7739 10.0003 97.3262
ENERGY: 300000 5.7791 26.0364 11.2590 0.0000 -10631.8287 1452.3802 0.0000 0.0000 1758.1056 -7378.2684 300.1082 -9136.3741 -7408.4183 300.6331 259.6826 327.0007 30334.2857 -125.4819 -46.9860
ENERGY: 600000 3.5795 23.1471 9.3278 0.0000 -10527.8450 1304.0661 0.0000 0.0000 1778.3766 -7409.3479 303.5685 -9187.7245 -7406.8379 302.8933 -822.9953 -765.1138 30126.2325 -163.9577 -92.8459
ENERGY: 900000 2.8091 24.4663 11.8456 0.0000 -10679.5928 1401.5748 0.0000 0.0000 1757.6485 -7481.2485 300.0302 -9238.8969 -7410.3361 301.9815 -122.7941 -80.7648 30204.7938 -52.8950 9.8748
ENERGY: 1200000 7.3966 28.2741 11.7563 0.0000 -10666.7086 1420.4150 0.0000 0.0000 1800.4779 -7398.3887 307.3411 -9198.8666 -7416.9300 301.8966 -461.3208 -396.3065 30413.7170 -106.2485 -40.6698
ENERGY: 1500000 3.0751 27.8174 11.9767 0.0000 -10689.4926 1422.8932 0.0000 0.0000 1771.6574 -7452.0727 302.4215 -9223.7302 -7417.7143 302.7332 273.0077 332.2960 30053.6927 -59.5770 -1.2651
TCL: Running FEP window  12: Lambda1 0.4499999999999996 Lambda2 0.39999999999999963 [dLambda -0.04999999999999999]
TCL: Setting parameter firsttimestep to 0
TCL: Setting parameter alchLambda to 0.4499999999999996
Info: NONBONDED TABLE R-SQUARED SPACING: 0.0625
Info: NONBONDED TABLE SIZE: 705 POINTS
TCL: Setting parameter alchLambda2 to 0.39999999999999963
Info: NONBONDED TABLE R-SQUARED SPACING: 0.0625
Info: NONBONDED TABLE SIZE: 705 POINTS
TCL: Running for 1500000 steps
ETITLE: TS BOND ANGLE DIHED IMPRP ELECT VDW BOUNDARY MISC KINETIC TOTAL TEMP POTENTIAL TOTALAVG TEMPAVG PRESSURE GPRESSURE VOLUME PRESSAVG GPRESSAVG
ENERGY: 0 3.0751 27.8174 11.9767 0.0000 -10689.4919 1423.0720 0.0000 0.0000 1770.8165 -7452.7342 302.2780 -9223.5507 -7452.7342 302.2780 237.2548 319.3047 30053.6927 237.2548 319.3047
ENERGY: 300000 4.8642 25.7006 13.7455 0.0000 -10771.1015 1546.6541 0.0000 0.0000 1725.8163 -7454.3208 294.5964 -9180.1371 -7423.7381 298.2660 567.8877 628.6468 30600.5965 108.7927 185.1236
ENERGY: 600000 5.7870 23.5605 12.1037 0.0000 -10688.6676 1489.4360 0.0000 0.0000 1815.1970 -7342.5834 309.8537 -9157.7804 -7412.4197 299.8392 1006.9915 1060.8576 29932.4631 133.4630 202.4036
ENERGY: 900000 4.3771 26.4418 11.1260 0.0000 -10666.6544 1448.0344 0.0000 0.0000 1776.3529 -7400.3221 303.2230 -9176.6751 -7418.7984 299.8413 405.4086 432.0010 30164.4324 69.8490 142.0480
ENERGY: 1200000 7.9101 22.3334 11.7694 0.0000 -10607.6580 1430.9832 0.0000 0.0000 1726.5538 -7408.1082 294.7223 -9134.6620 -7412.0688 298.6773 -150.2699 -40.3229 30927.5923 50.1163 125.5165
ENERGY: 1500000 6.7797 23.1337 9.5278 0.0000 -10943.2645 1553.1033 0.0000 0.0000 1721.2022 -7629.5178 293.8088 -9350.7200 -7426.0986 299.2280 555.5706 613.0170 29841.5371 153.7689 223.7214
TCL: Running FEP window  13: Lambda1 0.39999999999999963 Lambda2 0.34999999999999964 [dLambda -0.04999999999999999]
TCL: Setting parameter firsttimestep to 0
TCL: Setting parameter alchLambda to 0.39999999999999963
Info: NONBONDED TABLE R-SQUARED SPACING: 0.0625
Info: NONBONDED TABLE SIZE: 705 POINTS
TCL: Setting parameter alchLambda2 to 0.34999999999999964
Info: NONBONDED TABLE R-SQUARED SPACING: 0.0625
Info: NONBONDED TABLE SIZE: 705 POINTS
TCL: Running for 1500000 steps
ETITLE: TS BOND ANGLE DIHED IMPRP ELECT VDW BOUNDARY MISC KINETIC TOTAL TEMP POTENTIAL TOTALAVG TEMPAVG PRESSURE GPRESSURE VOLUME PRESSAVG GPRESSAVG
ENERGY: 0 6.7797 23.1337 9.5278 0.0000 -10943.2641 1553.6557 0.0000 0.0000 1720.3308 -7629.8363 293.6601 -9350.1671 -7629.8363 293.6601 526.6927 606.5586 29841.5371 526.6927 606.5586
ENERGY: 300000 9.9059 25.4678 11.2213 0.0000 -10743.6617 1485.0253 0.0000 0.0000 1738.8407 -7473.2007 296.8197 -9212.0415 -7493.9634 296.8733 388.4124 374.8118 30327.6644 204.5684 227.9743
ENERGY: 600000 5.0587 25.8149 13.0600 0.0000 -10704.9289 1399.5104 0.0000 0.0000 1740.5197 -7520.9652 297.1063 -9261.4849 -7458.8134 299.4512 -87.4857 -67.2197 30041.7874 107.4849 154.4705
ENERGY: 900000 9.9461 22.6002 10.9946 0.0000 -10450.5390 1328.3717 0.0000 0.0000 1769.5676 -7309.0588 302.0648 -9078.6264 -7439.3446 299.8809 -490.9541 -447.5248 30533.2791 21.7653 75.0714
ENERGY: 1200000 3.1659 28.9907 9.7667 0.0000 -10564.9664 1407.3856 0.0000 0.0000 1670.3662 -7445.2914 285.1311 -9115.6575 -7437.1682 298.6095 -348.9296 -326.0810 30780.6205 -52.1983 -0.1298
ENERGY: 1500000 5.0294 24.7727 9.3713 0.0000 -10680.9400 1401.2537 0.0000 0.0000 1739.4103 -7501.1026 296.9169 -9240.5129 -7444.3897 297.8124 -270.1722 -197.4071 30198.8904 -70.3880 -18.1299
TCL: Running FEP window  14: Lambda1 0.34999999999999964 Lambda2 0.29999999999999966 [dLambda -0.04999999999999999]
TCL: Setting parameter firsttimestep to 0
TCL: Setting parameter alchLambda to 0.34999999999999964
Info: NONBONDED TABLE R-SQUARED SPACING: 0.0625
Info: NONBONDED TABLE SIZE: 705 POINTS
TCL: Setting parameter alchLambda2 to 0.29999999999999966
Info: NONBONDED TABLE R-SQUARED SPACING: 0.0625
Info: NONBONDED TABLE SIZE: 705 POINTS
TCL: Running for 1500000 steps
ETITLE: TS BOND ANGLE DIHED IMPRP ELECT VDW BOUNDARY MISC KINETIC TOTAL TEMP POTENTIAL TOTALAVG TEMPAVG PRESSURE GPRESSURE VOLUME PRESSAVG GPRESSAVG
ENERGY: 0 5.0294 24.7727 9.3713 0.0000 -10680.9395 1401.3971 0.0000 0.0000 1738.5114 -7501.8577 296.7635 -9240.3690 -7501.8577 296.7635 -285.6884 -205.2463 30198.8904 -285.6884 -205.2463
ENERGY: 300000 4.3296 29.5574 8.9177 0.0000 -10527.3079 1347.3035 0.0000 0.0000 1813.9209 -7323.2787 309.6359 -9137.1996 -7423.0908 300.1989 -503.5437 -447.5650 30262.9676 -322.3982 -256.0468
ENERGY: 600000 6.7401 22.8502 10.7355 0.0000 -10642.5895 1392.3580 0.0000 0.0000 1807.0808 -7402.8249 308.4683 -9209.9057 -7434.5876 301.8602 -341.6259 -310.9119 30244.8074 -141.5191 -82.6550
ENERGY: 900000 5.7919 23.1728 10.4177 0.0000 -10568.7821 1357.0541 0.0000 0.0000 1786.3340 -7386.0117 304.9268 -9172.3456 -7429.1217 302.7082 -592.0832 -549.0157 30365.9496 -296.7301 -230.7355
ENERGY: 1200000 5.7227 24.4671 10.4997 0.0000 -10690.0463 1374.0699 0.0000 0.0000 1736.9602 -7538.3267 296.4987 -9275.2869 -7441.9314 301.6789 -665.5769 -598.8190 30239.5059 -265.5914 -199.0828
ENERGY: 1500000 4.5795 27.1698 11.8516 0.0000 -10550.2579 1378.6229 0.0000 0.0000 1707.9728 -7420.0612 291.5506 -9128.0340 -7436.9135 301.1650 -224.7745 -162.9724 30445.6444 -247.7203 -184.0573
TCL: Running FEP window  15: Lambda1 0.29999999999999966 Lambda2 0.24999999999999967 [dLambda -0.04999999999999999]
TCL: Setting parameter firsttimestep to 0
TCL: Setting parameter alchLambda to 0.29999999999999966
Info: NONBONDED TABLE R-SQUARED SPACING: 0.0625
Info: NONBONDED TABLE SIZE: 705 POINTS
TCL: Setting parameter alchLambda2 to 0.24999999999999967
Info: NONBONDED TABLE R-SQUARED SPACING: 0.0625
Info: NONBONDED TABLE SIZE: 705 POINTS
TCL: Running for 1500000 steps
ETITLE: TS BOND ANGLE DIHED IMPRP ELECT VDW BOUNDARY MISC KINETIC TOTAL TEMP POTENTIAL TOTALAVG TEMPAVG PRESSURE GPRESSURE VOLUME PRESSAVG GPRESSAVG
ENERGY: 0 4.5795 27.1698 11.8516 0.0000 -10550.2586 1379.5970 0.0000 0.0000 1707.0856 -7419.9750 291.3991 -9127.0606 -7419.9750 291.3991 -242.8345 -164.6142 30445.6444 -242.8345 -164.6142
ENERGY: 300000 5.7849 24.6912 9.8605 0.0000 -10740.0985 1489.5590 0.0000 0.0000 1794.5594 -7415.6436 306.3309 -9210.2030 -7426.4862 297.0585 511.9036 569.2758 30093.9929 165.2336 198.5220
ENERGY: 600000 3.9825 28.3436 9.4399 0.0000 -10658.6752 1497.5709 0.0000 0.0000 1774.9457 -7344.3925 302.9828 -9119.3382 -7409.1399 300.6790 895.8413 963.4931 30033.1743 395.0965 440.6143
ENERGY: 900000 3.0825 25.6752 10.5787 0.0000 -10580.4008 1377.3139 0.0000 0.0000 1736.4429 -7427.3076 296.4104 -9163.7505 -7427.2646 300.3178 -519.5229 -400.7251 30203.5133 229.3431 292.3889
ENERGY: 1200000 2.8685 22.9413 11.5550 0.0000 -10693.7723 1488.6187 0.0000 0.0000 1750.3204 -7417.4685 298.7793 -9167.7889 -7420.0122 301.2951 565.5674 557.2847 30332.4738 248.0469 307.4457
ENERGY: 1500000 3.3024 26.2501 11.1907 0.0000 -10658.3880 1436.9941 0.0000 0.0000 1705.9873 -7474.6632 291.2116 -9180.6505 -7418.8068 300.4216 207.4961 277.0900 29796.7833 155.5163 218.5908
TCL: Running FEP window  16: Lambda1 0.24999999999999967 Lambda2 0.19999999999999968 [dLambda -0.04999999999999999]
TCL: Setting parameter firsttimestep to 0
TCL: Setting parameter alchLambda to 0.24999999999999967
Info: NONBONDED TABLE R-SQUARED SPACING: 0.0625
Info: NONBONDED TABLE SIZE: 705 POINTS
TCL: Setting parameter alchLambda2 to 0.19999999999999968
Info: NONBONDED TABLE R-SQUARED SPACING: 0.0625
Info: NONBONDED TABLE SIZE: 705 POINTS
TCL: Running for 1500000 steps
ETITLE: TS BOND ANGLE DIHED IMPRP ELECT VDW BOUNDARY MISC KINETIC TOTAL TEMP POTENTIAL TOTALAVG TEMPAVG PRESSURE GPRESSURE VOLUME PRESSAVG GPRESSAVG
ENERGY: 0 3.3024 26.2501 11.1907 0.0000 -10658.3886 1437.3023 0.0000 0.0000 1705.1396 -7475.2034 291.0669 -9180.3430 -7475.2034 291.0669 183.0366 266.9035 29796.7833 183.0366 266.9035
ENERGY: 300000 5.3547 26.6345 11.5335 0.0000 -10613.7323 1413.6439 0.0000 0.0000 1775.6556 -7380.9100 303.1040 -9156.5656 -7428.0403 298.3592 84.2530 86.3645 29979.0891 57.3685 101.5023
ENERGY: 600000 5.1506 25.3649 10.7863 0.0000 -10586.9791 1353.6021 0.0000 0.0000 1761.9977 -7430.0774 300.7726 -9192.0752 -7439.8271 297.7681 -789.2690 -697.3246 30263.3733 -179.6155 -122.9068
ENERGY: 900000 8.5911 24.1801 10.0937 0.0000 -10696.8738 1479.1992 0.0000 0.0000 1757.6513 -7417.1585 300.0306 -9174.8098 -7425.0881 298.6911 250.8678 391.7901 30412.9465 -207.2354 -143.9484
ENERGY: 1200000 4.7759 30.5177 10.1093 0.0000 -10670.7434 1358.0851 0.0000 0.0000 1728.1029 -7539.1526 294.9867 -9267.2554 -7426.4876 298.3562 -987.0232 -997.0418 30479.6943 -218.4979 -168.8278
ENERGY: 1500000 5.3893 27.2720 11.4414 0.0000 -10631.1525 1427.4875 0.0000 0.0000 1653.1851 -7506.3773 282.1983 -9159.5623 -7431.9356 298.0504 -139.5847 -72.0026 30224.8088 -226.4198 -165.8640
TCL: Running FEP window  17: Lambda1 0.19999999999999968 Lambda2 0.1499999999999997 [dLambda -0.04999999999999999]
TCL: Setting parameter firsttimestep to 0
TCL: Setting parameter alchLambda to 0.19999999999999968
Info: NONBONDED TABLE R-SQUARED SPACING: 0.0625
Info: NONBONDED TABLE SIZE: 705 POINTS
TCL: Setting parameter alchLambda2 to 0.1499999999999997
Info: NONBONDED TABLE R-SQUARED SPACING: 0.0625
Info: NONBONDED TABLE SIZE: 705 POINTS
TCL: Running for 1500000 steps
ETITLE: TS BOND ANGLE DIHED IMPRP ELECT VDW BOUNDARY MISC KINETIC TOTAL TEMP POTENTIAL TOTALAVG TEMPAVG PRESSURE GPRESSURE VOLUME PRESSAVG GPRESSAVG
ENERGY: 0 5.3892 27.2720 11.4414 0.0000 -10631.1530 1427.6419 0.0000 0.0000 1652.2952 -7507.1132 282.0464 -9159.4084 -7507.1132 282.0464 -154.5506 -78.4979 30224.8088 -154.5506 -78.4979
ENERGY: 300000 6.2362 27.7557 12.8427 0.0000 -10642.1781 1493.4835 0.0000 0.0000 1764.9407 -7336.9192 301.2750 -9101.8599 -7393.7749 298.3642 450.8225 520.5912 30470.5915 -252.6033 -180.6490
ENERGY: 600000 7.9398 30.2020 8.7089 0.0000 -10597.2469 1413.7450 0.0000 0.0000 1826.5216 -7310.1296 311.7868 -9136.6511 -7391.6106 300.5488 -115.2466 11.2960 30144.4303 -190.3125 -120.1577
ENERGY: 900000 5.3970 28.7222 10.3485 0.0000 -10525.5380 1371.4547 0.0000 0.0000 1668.3399 -7441.2757 284.7852 -9109.6156 -7415.1543 298.2622 -391.7450 -329.6970 29967.3107 -77.3788 -20.8108
ENERGY: 1200000 7.0960 23.3083 9.2608 0.0000 -10477.3456 1324.3826 0.0000 0.0000 1758.0017 -7355.2963 300.0905 -9113.2980 -7409.5706 298.7381 -887.4608 -828.3125 30549.4843 -158.4582 -101.4721
ENERGY: 1500000 4.9439 26.3821 10.1619 0.0000 -10685.4331 1466.6160 0.0000 0.0000 1690.8636 -7486.4657 288.6300 -9177.3292 -7416.6522 298.6895 266.0931 358.0960 30276.7344 -84.2716 -24.2175
TCL: Running FEP window  18: Lambda1 0.1499999999999997 Lambda2 0.09999999999999969 [dLambda -0.05 ]
TCL: Setting parameter firsttimestep to 0
TCL: Setting parameter alchLambda to 0.1499999999999997
Info: NONBONDED TABLE R-SQUARED SPACING: 0.0625
Info: NONBONDED TABLE SIZE: 705 POINTS
TCL: Setting parameter alchLambda2 to 0.09999999999999969
Info: NONBONDED TABLE R-SQUARED SPACING: 0.0625
Info: NONBONDED TABLE SIZE: 705 POINTS
TCL: Running for 1500000 steps
ETITLE: TS BOND ANGLE DIHED IMPRP ELECT VDW BOUNDARY MISC KINETIC TOTAL TEMP POTENTIAL TOTALAVG TEMPAVG PRESSURE GPRESSURE VOLUME PRESSAVG GPRESSAVG
ENERGY: 0 4.9439 26.3821 10.1619 0.0000 -10685.4324 1466.5522 0.0000 0.0000 1689.9688 -7487.4236 288.4773 -9177.3924 -7487.4236 288.4773 276.0665 353.2699 30276.7344 276.0665 353.2699
ENERGY: 300000 4.2204 21.2770 12.7790 0.0000 -10594.3914 1458.5702 0.0000 0.0000 1780.7484 -7316.7965 303.9733 -9097.5448 -7450.2643 295.5750 570.5530 629.0308 30062.1579 52.4838 101.6219
ENERGY: 600000 5.3305 28.4123 11.4228 0.0000 -10741.8839 1481.3127 0.0000 0.0000 1820.3324 -7395.0732 310.7303 -9215.4055 -7458.6572 296.5327 527.3303 524.6990 30013.2343 133.9334 189.9771
ENERGY: 900000 6.2097 23.9568 12.6446 0.0000 -10646.3278 1421.4054 0.0000 0.0000 1740.9401 -7441.1713 297.1781 -9182.1114 -7448.9720 297.0768 -264.3097 -121.2084 30285.8936 84.1298 149.8188
ENERGY: 1200000 5.7167 27.7689 13.0907 0.0000 -10693.3380 1423.1202 0.0000 0.0000 1787.4500 -7436.1914 305.1173 -9223.6415 -7440.8664 298.0014 -160.9939 -173.1171 30260.9814 51.9248 103.9809
ENERGY: 1500000 4.0266 25.3960 9.8934 0.0000 -10653.7904 1455.5137 0.0000 0.0000 1711.7913 -7447.1693 292.2024 -9158.9607 -7434.5570 297.7288 626.2674 679.7687 29763.6064 153.9043 204.2292
TCL: Running FEP window  19: Lambda1 0.09999999999999969 Lambda2 0.049999999999999684 [dLambda -0.05 ]
TCL: Setting parameter firsttimestep to 0
TCL: Setting parameter alchLambda to 0.09999999999999969
Info: NONBONDED TABLE R-SQUARED SPACING: 0.0625
Info: NONBONDED TABLE SIZE: 705 POINTS
TCL: Setting parameter alchLambda2 to 0.049999999999999684
Info: NONBONDED TABLE R-SQUARED SPACING: 0.0625
Info: NONBONDED TABLE SIZE: 705 POINTS
TCL: Running for 1500000 steps
ETITLE: TS BOND ANGLE DIHED IMPRP ELECT VDW BOUNDARY MISC KINETIC TOTAL TEMP POTENTIAL TOTALAVG TEMPAVG PRESSURE GPRESSURE VOLUME PRESSAVG GPRESSAVG
ENERGY: 0 4.0266 25.3960 9.8934 0.0000 -10653.7898 1455.2665 0.0000 0.0000 1710.9179 -7448.2894 292.0533 -9159.2073 -7448.2894 292.0533 576.0977 671.6434 29763.6064 576.0977 671.6434
ENERGY: 300000 5.7517 27.2439 9.6357 0.0000 -10597.1245 1418.1394 0.0000 0.0000 1736.2827 -7400.0711 296.3830 -9136.3538 -7393.0634 297.5007 -171.7176 -133.2952 30393.5837 185.4018 231.6908
ENERGY: 600000 2.9191 24.6564 12.7062 0.0000 -10619.7262 1381.4718 0.0000 0.0000 1797.7114 -7400.2612 306.8689 -9197.9726 -7384.7352 300.8335 -204.1188 -125.1857 29671.8448 289.4535 347.8049
ENERGY: 900000 7.6402 20.8457 8.8669 0.0000 -10690.5888 1434.4464 0.0000 0.0000 1755.1027 -7463.6869 299.5956 -9218.7896 -7400.7840 301.6873 -34.2386 14.2424 29963.8852 208.3277 273.4418
ENERGY: 1200000 10.1246 22.9486 11.5181 0.0000 -10708.0180 1429.5249 0.0000 0.0000 1731.5278 -7502.3740 295.5714 -9233.9019 -7406.8210 301.2352 -340.7384 -339.6204 29872.6535 142.4850 207.1203
ENERGY: 1500000 5.2175 26.3870 10.7453 0.0000 -10563.7260 1419.0429 0.0000 0.0000 1773.5376 -7328.7957 302.7424 -9102.3333 -7407.9174 300.6717 243.1900 204.7893 30006.6591 71.4043 127.0918
TCL: Running FEP window  20: Lambda1 0.049999999999999684 Lambda2 0.0    [dLambda -0.049999999999999684]
TCL: Setting parameter firsttimestep to 0
TCL: Setting parameter alchLambda to 0.049999999999999684
Info: NONBONDED TABLE R-SQUARED SPACING: 0.0625
Info: NONBONDED TABLE SIZE: 705 POINTS
TCL: Setting parameter alchLambda2 to 0.0
Info: NONBONDED TABLE R-SQUARED SPACING: 0.0625
Info: NONBONDED TABLE SIZE: 705 POINTS
TCL: Running for 1500000 steps
ETITLE: TS BOND ANGLE DIHED IMPRP ELECT VDW BOUNDARY MISC KINETIC TOTAL TEMP POTENTIAL TOTALAVG TEMPAVG PRESSURE GPRESSURE VOLUME PRESSAVG GPRESSAVG
ENERGY: 0 5.2175 26.3870 10.7453 0.0000 -10563.7267 1417.7541 0.0000 0.0000 1772.6486 -7330.9741 302.5907 -9103.6227 -7330.9741 302.5907 118.6822 196.3324 30006.6591 118.6822 196.3324
ENERGY: 300000 8.8823 28.8646 10.0645 0.0000 -10647.5942 1435.4822 0.0000 0.0000 1751.5945 -7412.7062 298.9968 -9164.3007 -7415.4423 299.5437 28.6577 69.1347 30106.9390 -330.5133 -284.2457
ENERGY: 600000 4.7749 24.8022 10.1766 0.0000 -10553.7917 1333.2131 0.0000 0.0000 1749.9670 -7430.8579 298.7189 -9180.8249 -7419.9993 299.1304 -899.6333 -804.0192 30309.0242 -428.1207 -365.4611
ENERGY: 900000 7.1907 28.7228 10.3454 0.0000 -10695.4736 1452.9463 0.0000 0.0000 1739.6634 -7456.6049 296.9601 -9196.2683 -7433.1048 299.0992 -179.7080 -113.1117 30464.4299 -348.4518 -289.6817
ENERGY: 1200000 3.0942 23.9425 9.9421 0.0000 -10588.3816 1401.3487 0.0000 0.0000 1719.3259 -7430.7282 293.4885 -9150.0541 -7430.8835 299.5381 -301.8782 -242.2642 30276.7081 -295.1566 -237.6887
ENERGY: 1500000 4.5459 22.7685 14.9214 0.0000 -10604.9428 1391.9782 0.0000 0.0000 1791.7990 -7378.9296 305.8597 -9170.7286 -7422.4246 300.5158 -461.4561 -384.9918 30043.2815 -282.9689 -230.8397
TCL: Exiting due to exit command.
