Info: SIMULATION PARAMETERS:
Info: TIMESTEP               2
Info: NUMBER OF STEPS        0
Info: STEPS PER CYCLE        10
Info: PERIODIC CELL BASIS 1  30.0273 0 0
Info: PERIODIC CELL BASIS 2  0 32.2702 0
Info: PERIODIC CELL BASIS 3  0 0 30.6831
Info: PERIODIC CELL CENTER   0 0 0
Info: WRAPPING WATERS AROUND PERIODIC BOUNDARIES ON OUTPUT.
Info: WRAPPING ALL CLUSTERS AROUND PERIODIC BOUNDARIES ON OUTPUT.
Info: FIRST LDB TIMESTEP     50
Info: LAST LDB TIMESTEP     -1
Info: HOM BACKGROUND SCALING 1
Info: PME BACKGROUND SCALING 1
Info: MIN ATOMS PER PATCH    40
Info: EMPTY PATCH LOAD       40 ATOMS
Info: VELOCITY FILE          mobley_5616693_equil.vel
Info: CENTER OF MASS MOVING INITIALLY? NO
Info: DIELECTRIC             1
Info: EXCLUDE                SCALED ONE-FOUR
Info: 1-4 ELECTROSTATICS SCALED BY 0.833333
Info: MODIFIED 1-4 VDW PARAMETERS WILL BE USED
Info: DCD FILENAME           mobley_5616693_prod.dcd
Info: DCD FREQUENCY          100000
Info: DCD FIRST STEP         100000
Info: DCD FILE WILL CONTAIN UNIT CELL DATA
Info: XST FILENAME           mobley_5616693_prod.xst
Info: XST FREQUENCY          100000
Info: NO VELOCITY DCD OUTPUT
Info: NO FORCE DCD OUTPUT
Info: OUTPUT FILENAME        mobley_5616693_prod
Info: BINARY OUTPUT FILES WILL BE USED
Info: RESTART FILENAME       mobley_5616693_prod.restart
Info: RESTART FREQUENCY      100000
Info: BINARY RESTART FILES WILL BE USED
Info: CUTOFF                 9
Info: PAIRLIST DISTANCE      11
Info: PAIRLIST SHRINK RATE   0.01
Info: PAIRLIST GROW RATE     0.01
Info: PAIRLIST TRIGGER       0.3
Info: PAIRLISTS PER CYCLE    2
Info: PAIRLISTS ENABLED
Info: MARGIN                 2
Info: HYDROGEN GROUP CUTOFF  2.5
Info: PATCH DIMENSION        15.5
Info: ENERGY OUTPUT STEPS    100000
Info: ENERGY EVALUATION STEPS    100000
Info: OUTPUT ENERGY PRECISION 4
Info: CROSSTERM ENERGY INCLUDED IN DIHEDRAL
Info: TIMING OUTPUT STEPS    1000000
Info: PRESSURE OUTPUT STEPS  100000
Info: ALCHEMICAL FEP ON
Info: FEP CURRENT LAMBDA VALUE     1
Info: FEP COMPARISON LAMBDA VALUE  0.95
Info: FEP INTRA-ALCHEMICAL NON-BONDED INTERACTIONS WILL BE RETAINED
Info: FEP INTRA-ALCHEMICAL BONDED INTERACTIONS WILL BE RETAINED
Info: FEP VDW SHIFTING COEFFICIENT 5
Info: FEP ELEC. ACTIVE FOR ANNIHILATED PARTICLES BETWEEN LAMBDA = 0 AND LAMBDA = 0.5
Info: FEP ELEC. ACTIVE FOR EXNIHILATED PARTICLES BETWEEN LAMBDA = 0.5 AND LAMBDA = 1
Info: FEP VDW ACTIVE FOR ANNIHILATED PARTICLES BETWEEN LAMBDA = 0 AND LAMBDA = 1
Info: FEP VDW ACTIVE FOR EXNIHILATED PARTICLES BETWEEN LAMBDA = 0 AND LAMBDA = 1
Info: FEP BOND ACTIVE FOR ANNIHILATED PARTICLES BETWEEN LAMBDA = 1 AND LAMBDA = 1
Info: FEP BOND ACTIVE FOR EXNIHILATED PARTICLES BETWEEN LAMBDA = 0 AND LAMBDA = 0
Info: LANGEVIN DYNAMICS ACTIVE
Info: LANGEVIN TEMPERATURE   300
Info: LANGEVIN USING BBK INTEGRATOR
Info: LANGEVIN DAMPING COEFFICIENT IS 1 INVERSE PS
Info: LANGEVIN DYNAMICS APPLIED TO HYDROGENS
Info: LANGEVIN PISTON PRESSURE CONTROL ACTIVE
Info:        TARGET PRESSURE IS 1.01325 BAR
Info:     OSCILLATION PERIOD IS 50 FS
Info:             DECAY TIME IS 25 FS
Info:     PISTON TEMPERATURE IS 300 K
Info:       PRESSURE CONTROL IS GROUP-BASED
Info:    INITIAL STRAIN RATE IS -0.000384733 -0.000384733 -0.000384733
Info:       CELL FLUCTUATION IS ISOTROPIC
Info: PARTICLE MESH EWALD (PME) ACTIVE
Info: PME TOLERANCE               1e-06
Info: PME EWALD COEFFICIENT       0.348832
Info: PME INTERPOLATION ORDER     4
Info: PME GRID DIMENSIONS         32 36 32
Info: PME MAXIMUM GRID SPACING    1
Info: PME CALCULATION WILL BE PERFORMED ON GPU
Info: FULL ELECTROSTATIC EVALUATION FREQUENCY      2
Info: USING VERLET I (r-RESPA) MTS SCHEME.
Info: C1 SPLITTING OF LONG RANGE ELECTROSTATICS
Info: PLACING ATOMS IN PATCHES BY HYDROGEN GROUPS
Info: RIGID BONDS TO HYDROGEN : ALL
Info:         ERROR TOLERANCE : 1e-08
Info:          MAX ITERATIONS : 100
Info: RIGID WATER USING SETTLE ALGORITHM
Info: RANDOM NUMBER SEED     1743828411
Info: USE HYDROGEN BONDS?    NO
Info: Using AMBER format force field!
Info: AMBER PARM FILE        mobley_5616693.prmtop
Info: COORDINATE PDB         mobley_5616693.pdb
Info: Exclusions will be read from PARM file!
Info: SCNB (VDW SCALING)     2
Info: USING ARITHMETIC MEAN TO COMBINE L-J SIGMA PARAMETERS
Info: BINARY COORDINATES     mobley_5616693_equil.coor
Info: SUMMARY OF PARAMETERS:
Info: 6 BONDS
Info: 7 ANGLES
Info:   7 HARMONIC
Info:   0 COSINE-BASED
Info: 11 DIHEDRAL
Info: 0 IMPROPER
Info: 0 CROSSTERM
Info: 0 VDW
Info: 21 VDW_PAIRS
Info: 0 NBTHOLE_PAIRS
Info: To read alchdata from file: mobley_5616693.pdb
Info: To read alchflag data from column: 5
Info: STRUCTURE SUMMARY:
Info: 2906 ATOMS
Info: 2906 BONDS
Info: 57 ANGLES
Info: 103 DIHEDRALS
Info: 0 IMPROPERS
Info: 0 CROSSTERMS
Info: 3044 EXCLUSIONS
Info: 2895 RIGID BONDS
Info: ALCH: 0 ATOMS TO DISAPPEAR IN FINAL STATE
Info: ALCH: 29 ATOMS TO APPEAR IN FINAL STATE
Info: 5823 DEGREES OF FREEDOM
Info: 970 HYDROGEN GROUPS
Info: 4 ATOMS IN LARGEST HYDROGEN GROUP
Info: 970 MIGRATION GROUPS
Info: 4 ATOMS IN LARGEST MIGRATION GROUP
Info: TOTAL MASS = 17431.6 amu
Info: TOTAL CHARGE = -0.000100005 e
Info: MASS DENSITY = 0.973597 g/cm^3
Info: ATOM DENSITY = 0.0977415 atoms/A^3
Info: ADDED 0 IMPLICIT EXCLUSIONS
Info: NONBONDED TABLE R-SQUARED SPACING: 0.0625
Info: NONBONDED TABLE SIZE: 705 POINTS
Info: REMOVING COM VELOCITY 0.0139778 0.0674693 -0.114047
Info: Use 3D box decompostion in PME FFT.
Info: Updated CUDA force table with 4096 elements.
Info: Updated CUDA LJ table with 6 x 6 elements.
Info: Found 29 unique exclusion lists needing 104 bytes
TCL: Running for 1500000 steps
ETITLE: TS BOND ANGLE DIHED IMPRP ELECT VDW BOUNDARY MISC KINETIC TOTAL TEMP POTENTIAL TOTALAVG TEMPAVG PRESSURE GPRESSURE VOLUME PRESSAVG GPRESSAVG
ENERGY: 0 2.1780 14.6992 7.2417 0.0000 -10566.0439 1439.4702 0.0000 0.0000 1694.2030 -7408.2518 292.8256 -9102.4548 -7408.2518 292.8256 279.9031 366.9880 29731.4989 279.9031 366.9880
ENERGY: 300000 1.7066 17.1993 8.6576 0.0000 -10457.1803 1407.0482 0.0000 0.0000 1782.0012 -7240.5674 308.0006 -9022.5686 -7330.0074 301.8058 15.3150 26.3527 30262.9556 87.5045 142.0768
ENERGY: 600000 5.9828 16.3413 8.1603 0.0000 -10416.8655 1343.3652 0.0000 0.0000 1749.7661 -7293.2498 302.4291 -9043.0159 -7310.7621 302.4917 -731.3526 -666.4273 30380.1638 -178.5639 -110.1006
ENERGY: 900000 2.3082 13.6725 5.9908 0.0000 -10527.6477 1427.1435 0.0000 0.0000 1737.3106 -7341.2222 300.2763 -9078.5328 -7310.0814 302.1489 -223.2704 -144.4182 30498.4984 -118.6044 -51.2586
ENERGY: 1200000 2.9895 17.1496 5.5206 0.0000 -10418.7893 1394.4379 0.0000 0.0000 1680.6756 -7318.0161 290.4875 -8998.6917 -7317.7319 300.3303 -58.8586 -8.3578 30266.4453 24.5422 87.2472
ENERGY: 1500000 2.1428 13.5398 6.5432 0.0000 -10413.5853 1386.6867 0.0000 0.0000 1701.4363 -7303.2365 294.0758 -9004.6728 -7319.2402 299.0499 -170.2732 -152.9774 30346.7241 -68.4828 -8.2062
TCL: Running FEP window   2: Lambda1 0.95   Lambda2 0.8999999999999999 [dLambda -0.050000000000000044]
TCL: Setting parameter firsttimestep to 0
TCL: Setting parameter alchLambda to 0.95
Info: NONBONDED TABLE R-SQUARED SPACING: 0.0625
Info: NONBONDED TABLE SIZE: 705 POINTS
TCL: Setting parameter alchLambda2 to 0.8999999999999999
Info: NONBONDED TABLE R-SQUARED SPACING: 0.0625
Info: NONBONDED TABLE SIZE: 705 POINTS
TCL: Running for 1500000 steps
ETITLE: TS BOND ANGLE DIHED IMPRP ELECT VDW BOUNDARY MISC KINETIC TOTAL TEMP POTENTIAL TOTALAVG TEMPAVG PRESSURE GPRESSURE VOLUME PRESSAVG GPRESSAVG
ENERGY: 0 2.1428 13.5398 6.5432 0.0000 -10412.0637 1386.5265 0.0000 0.0000 1700.5696 -7302.7418 293.9260 -9003.3114 -7302.7418 293.9260 -245.1948 -169.7149 30346.7241 -245.1948 -169.7149
ENERGY: 300000 3.2859 17.4647 6.6769 0.0000 -10404.5785 1328.6255 0.0000 0.0000 1737.3522 -7311.1733 300.2835 -9048.5255 -7298.8931 300.4381 -616.0260 -593.6920 29959.3060 -235.9157 -175.7667
ENERGY: 600000 3.6258 12.4914 6.4546 0.0000 -10309.9978 1296.0467 0.0000 0.0000 1733.7222 -7257.6571 299.6561 -8991.3793 -7290.4868 301.7262 -758.8356 -729.8014 30240.2062 -264.9939 -202.2245
ENERGY: 900000 2.6148 14.2653 9.0451 0.0000 -10508.3046 1385.3177 0.0000 0.0000 1751.8420 -7345.2197 302.7879 -9097.0617 -7296.0715 301.9285 198.8958 282.9797 29370.3954 -106.1100 -41.9357
ENERGY: 1200000 4.3323 18.7467 7.2851 0.0000 -10563.9740 1391.6963 0.0000 0.0000 1732.6764 -7409.2373 299.4753 -9141.9137 -7320.0445 300.5744 -590.0490 -479.7471 29767.4538 -51.1362 14.6352
ENERGY: 1500000 3.3660 16.1017 6.4169 0.0000 -10519.9583 1368.6636 0.0000 0.0000 1740.4935 -7384.9165 300.8264 -9125.4100 -7322.8302 300.6818 -615.9588 -532.6122 30022.0324 -57.8473 10.4881
TCL: Running FEP window   3: Lambda1 0.8999999999999999 Lambda2 0.8499999999999999 [dLambda -0.050000000000000044]
TCL: Setting parameter firsttimestep to 0
TCL: Setting parameter alchLambda to 0.8999999999999999
Info: NONBONDED TABLE R-SQUARED SPACING: 0.0625
Info: NONBONDED TABLE SIZE: 705 POINTS
TCL: Setting parameter alchLambda2 to 0.8499999999999999
Info: NONBONDED TABLE R-SQUARED SPACING: 0.0625
Info: NONBONDED TABLE SIZE: 705 POINTS
TCL: Running for 1500000 steps
ETITLE: TS BOND ANGLE DIHED IMPRP ELECT VDW BOUNDARY MISC KINETIC TOTAL TEMP POTENTIAL TOTALAVG TEMPAVG PRESSURE GPRESSURE VOLUME PRESSAVG GPRESSAVG
ENERGY: 0 3.3660 16.1017 6.4169 0.0000 -10518.9578 1369.1529 0.0000 0.0000 1739.6209 -7384.2995 300.6756 -9123.9204 -7384.2995 300.6756 -632.6147 -542.2529 30022.0324 -632.6147 -542.2529
ENERGY: 300000 2.3247 11.7682 7.6489 0.0000 -10469.4510 1336.4437 0.0000 0.0000 1682.7010 -7428.5646 290.8376 -9111.2656 -7356.9811 297.5639 -843.6047 -746.3416 30098.9176 -267.4107 -191.4028
ENERGY: 600000 6.5997 16.8315 6.4320 0.0000 -10472.0140 1374.0549 0.0000 0.0000 1730.9530 -7337.1430 299.1775 -9068.0959 -7351.7885 298.4482 -252.8912 -180.5282 29717.2051 -197.6625 -124.0897
ENERGY: 900000 4.9209 15.9957 9.2641 0.0000 -10419.6655 1347.1579 0.0000 0.0000 1778.4178 -7263.9091 307.3813 -9042.3269 -7341.0501 299.7817 -495.6424 -462.7078 29711.6560 -196.8786 -128.9316
ENERGY: 1200000 1.0708 14.0144 6.6391 0.0000 -10381.4829 1331.9437 0.0000 0.0000 1796.1105 -7231.7043 310.4393 -9027.8148 -7330.7666 301.1028 -635.4453 -523.7002 30480.8050 -203.0226 -137.1018
ENERGY: 1500000 3.1606 15.1815 8.7997 0.0000 -10517.5330 1392.0023 0.0000 0.0000 1747.6325 -7350.7564 302.0603 -9098.3889 -7331.2056 301.2924 -26.7309 14.9743 29436.5753 -182.3661 -117.0004
TCL: Running FEP window   4: Lambda1 0.8499999999999999 Lambda2 0.7999999999999998 [dLambda -0.050000000000000044]
TCL: Setting parameter firsttimestep to 0
TCL: Setting parameter alchLambda to 0.8499999999999999
Info: NONBONDED TABLE R-SQUARED SPACING: 0.0625
Info: NONBONDED TABLE SIZE: 705 POINTS
TCL: Setting parameter alchLambda2 to 0.7999999999999998
Info: NONBONDED TABLE R-SQUARED SPACING: 0.0625
Info: NONBONDED TABLE SIZE: 705 POINTS
TCL: Running for 1500000 steps
ETITLE: TS BOND ANGLE DIHED IMPRP ELECT VDW BOUNDARY MISC KINETIC TOTAL TEMP POTENTIAL TOTALAVG TEMPAVG PRESSURE GPRESSURE VOLUME PRESSAVG GPRESSAVG
ENERGY: 0 3.1606 15.1815 8.7997 0.0000 -10517.1690 1392.6578 0.0000 0.0000 1746.7510 -7350.6184 301.9080 -9097.3694 -7350.6184 301.9080 -85.9831 9.7430 29436.5753 -85.9831 9.7430
ENERGY: 300000 2.6219 14.9959 7.2820 0.0000 -10485.5955 1400.8862 0.0000 0.0000 1718.1354 -7341.6740 296.9621 -9059.8095 -7318.3261 297.9058 119.6978 159.0793 29802.5714 184.0572 239.5739
ENERGY: 600000 5.5101 15.4430 7.3675 0.0000 -10429.9561 1373.8445 0.0000 0.0000 1737.9640 -7289.8270 300.3892 -9027.7910 -7326.2995 298.8651 -183.6402 -162.1682 29740.8306 -8.1413 51.8456
ENERGY: 900000 3.2531 10.0137 8.3061 0.0000 -10387.1916 1352.5306 0.0000 0.0000 1714.0526 -7299.0355 296.2564 -9013.0881 -7320.9349 298.4607 -557.6138 -530.8878 30186.8467 -36.0322 17.6349
ENERGY: 1200000 4.1139 17.8375 6.4846 0.0000 -10430.7806 1373.8062 0.0000 0.0000 1777.6468 -7250.8916 307.2480 -9028.5384 -7312.1036 298.7694 -472.1628 -368.9506 30388.0806 -90.9641 -26.3863
ENERGY: 1500000 4.8510 18.6661 7.1117 0.0000 -10414.5759 1431.0997 0.0000 0.0000 1702.0996 -7250.7479 294.1904 -8952.8475 -7309.8126 298.6575 432.4308 488.5748 30099.3372 -31.7656 31.8707
TCL: Running FEP window   5: Lambda1 0.7999999999999998 Lambda2 0.7499999999999998 [dLambda -0.050000000000000044]
TCL: Setting parameter firsttimestep to 0
TCL: Setting parameter alchLambda to 0.7999999999999998
Info: NONBONDED TABLE R-SQUARED SPACING: 0.0625
Info: NONBONDED TABLE SIZE: 705 POINTS
TCL: Setting parameter alchLambda2 to 0.7499999999999998
Info: NONBONDED TABLE R-SQUARED SPACING: 0.0625
Info: NONBONDED TABLE SIZE: 705 POINTS
TCL: Running for 1500000 steps
ETITLE: TS BOND ANGLE DIHED IMPRP ELECT VDW BOUNDARY MISC KINETIC TOTAL TEMP POTENTIAL TOTALAVG TEMPAVG PRESSURE GPRESSURE VOLUME PRESSAVG GPRESSAVG
ENERGY: 0 4.8510 18.6661 7.1117 0.0000 -10413.3616 1431.1529 0.0000 0.0000 1701.2239 -7250.3561 294.0391 -8951.5801 -7250.3561 294.0391 404.8826 475.8767 30099.3372 404.8826 475.8767
ENERGY: 300000 3.0420 13.7261 8.0503 0.0000 -10506.2300 1425.7783 0.0000 0.0000 1699.0755 -7356.5578 293.6678 -9055.6333 -7322.7938 293.8696 222.2285 269.6493 29622.2323 -44.8759 19.9292
ENERGY: 600000 5.4775 14.7897 7.9927 0.0000 -10410.0567 1320.9095 0.0000 0.0000 1765.1420 -7295.7452 305.0867 -9060.8872 -7299.5910 297.1266 -1008.7275 -935.8139 30015.5778 -203.8639 -143.8197
ENERGY: 900000 6.3285 18.6273 5.8935 0.0000 -10557.6488 1394.1636 0.0000 0.0000 1704.4935 -7428.1425 294.6042 -9132.6360 -7311.1770 298.0161 -758.7182 -681.5099 30328.3340 -258.0285 -190.3711
ENERGY: 1200000 3.6018 12.5385 6.3661 0.0000 -10383.0911 1374.2598 0.0000 0.0000 1739.6138 -7246.7112 300.6744 -8986.3250 -7286.2323 299.3795 -241.7933 -152.6520 29740.5029 -196.6152 -122.6659
ENERGY: 1500000 2.0965 16.4684 9.4411 0.0000 -10460.6691 1416.6393 0.0000 0.0000 1721.9244 -7294.0994 297.6170 -9016.0238 -7288.3332 300.0959 88.3357 194.6622 29979.8408 -130.9109 -51.5396
TCL: Running FEP window   6: Lambda1 0.7499999999999998 Lambda2 0.6999999999999997 [dLambda -0.050000000000000044]
TCL: Setting parameter firsttimestep to 0
TCL: Setting parameter alchLambda to 0.7499999999999998
Info: NONBONDED TABLE R-SQUARED SPACING: 0.0625
Info: NONBONDED TABLE SIZE: 705 POINTS
TCL: Setting parameter alchLambda2 to 0.6999999999999997
Info: NONBONDED TABLE R-SQUARED SPACING: 0.0625
Info: NONBONDED TABLE SIZE: 705 POINTS
TCL: Running for 1500000 steps
ETITLE: TS BOND ANGLE DIHED IMPRP ELECT VDW BOUNDARY MISC KINETIC TOTAL TEMP POTENTIAL TOTALAVG TEMPAVG PRESSURE GPRESSURE VOLUME PRESSAVG GPRESSAVG
ENERGY: 0 2.0965 16.4684 9.4411 0.0000 -10459.5502 1417.0634 0.0000 0.0000 1721.0262 -7293.4545 297.4617 -9014.4807 -7293.4545 297.4617 93.4482 188.3058 29979.8408 93.4482 188.3058
ENERGY: 300000 3.1063 14.1958 7.1165 0.0000 -10457.3393 1361.4363 0.0000 0.0000 1751.8655 -7319.6188 302.7920 -9071.4843 -7331.4833 297.1902 -259.6308 -199.3524 29466.0346 71.5464 138.6838
ENERGY: 600000 5.6345 12.5032 8.2709 0.0000 -10471.4595 1346.8651 0.0000 0.0000 1709.0693 -7389.1164 295.3951 -9098.1857 -7321.3721 298.5257 -813.8828 -794.2355 29906.7923 -187.9060 -123.0279
ENERGY: 900000 5.8507 16.6394 6.6806 0.0000 -10523.9013 1438.4372 0.0000 0.0000 1727.7985 -7328.4950 298.6322 -9056.2935 -7324.3200 298.7409 77.6354 110.4344 29908.5581 -74.2354 -0.6376
ENERGY: 1200000 1.7803 12.0247 5.5059 0.0000 -10429.5852 1350.7344 0.0000 0.0000 1690.0566 -7369.4831 292.1089 -9059.5398 -7323.3122 298.4885 -796.5215 -705.5750 30417.5167 -173.6995 -104.6298
ENERGY: 1500000 5.0734 24.1107 7.1807 0.0000 -10458.3889 1306.7877 0.0000 0.0000 1754.6825 -7360.5539 303.2789 -9115.2364 -7335.2904 297.7063 -1087.2780 -1017.3196 30065.8552 -238.5354 -177.6945
TCL: Running FEP window   7: Lambda1 0.6999999999999997 Lambda2 0.6499999999999997 [dLambda -0.050000000000000044]
TCL: Setting parameter firsttimestep to 0
TCL: Setting parameter alchLambda to 0.6999999999999997
Info: NONBONDED TABLE R-SQUARED SPACING: 0.0625
Info: NONBONDED TABLE SIZE: 705 POINTS
TCL: Setting parameter alchLambda2 to 0.6499999999999997
Info: NONBONDED TABLE R-SQUARED SPACING: 0.0625
Info: NONBONDED TABLE SIZE: 705 POINTS
TCL: Running for 1500000 steps
ETITLE: TS BOND ANGLE DIHED IMPRP ELECT VDW BOUNDARY MISC KINETIC TOTAL TEMP POTENTIAL TOTALAVG TEMPAVG PRESSURE GPRESSURE VOLUME PRESSAVG GPRESSAVG
ENERGY: 0 5.0734 24.1107 7.1807 0.0000 -10456.9640 1307.2793 0.0000 0.0000 1753.8340 -7359.4858 303.1322 -9113.3199 -7359.4858 303.1322 -1086.7680 -1022.5465 30065.8552 -1086.7680 -1022.5465
ENERGY: 300000 3.5523 11.9473 8.7900 0.0000 -10541.1835 1474.7405 0.0000 0.0000 1736.5466 -7305.6069 300.1443 -9042.1534 -7345.5997 301.8123 576.0768 601.6817 29908.9854 -193.4052 -132.5557
ENERGY: 600000 4.9172 12.0653 6.7977 0.0000 -10462.6362 1377.3458 0.0000 0.0000 1726.7412 -7334.7689 298.4495 -9061.5101 -7319.1830 301.3216 -493.7670 -463.5709 29898.8230 -134.0786 -72.2630
ENERGY: 900000 4.0270 17.5027 6.9497 0.0000 -10497.8707 1485.7567 0.0000 0.0000 1827.8067 -7155.8279 315.9176 -8983.6346 -7308.4501 301.1076 672.5706 677.8732 30310.4441 -118.0633 -61.4162
ENERGY: 1200000 5.6643 14.5466 7.9494 0.0000 -10301.6960 1345.5622 0.0000 0.0000 1705.8157 -7222.1577 294.8327 -8927.9735 -7294.1046 301.2247 -327.4585 -297.0642 29981.3294 -12.3881 45.1760
ENERGY: 1500000 2.6613 17.9946 6.1712 0.0000 -10571.8218 1451.1423 0.0000 0.0000 1711.2974 -7382.5551 295.7802 -9093.8524 -7300.3186 300.9556 318.2857 396.6750 29509.2176 -85.0933 -24.1494
TCL: Running FEP window   8: Lambda1 0.6499999999999997 Lambda2 0.5999999999999996 [dLambda -0.050000000000000044]
TCL: Setting parameter firsttimestep to 0
TCL: Setting parameter alchLambda to 0.6499999999999997
Info: NONBONDED TABLE R-SQUARED SPACING: 0.0625
Info: NONBONDED TABLE SIZE: 705 POINTS
TCL: Setting parameter alchLambda2 to 0.5999999999999996
Info: NONBONDED TABLE R-SQUARED SPACING: 0.0625
Info: NONBONDED TABLE SIZE: 705 POINTS
TCL: Running for 1500000 steps
ETITLE: TS BOND ANGLE DIHED IMPRP ELECT VDW BOUNDARY MISC KINETIC TOTAL TEMP POTENTIAL TOTALAVG TEMPAVG PRESSURE GPRESSURE VOLUME PRESSAVG GPRESSAVG
ENERGY: 0 2.6614 17.9946 6.1712 0.0000 -10571.2404 1451.6495 0.0000 0.0000 1710.4182 -7382.3456 295.6282 -9092.7638 -7382.3456 295.6282 313.1624 389.8022 29509.2176 313.1624 389.8022
ENERGY: 300000 3.1091 11.2870 6.3206 0.0000 -10441.4681 1422.3664 0.0000 0.0000 1754.6624 -7243.7226 303.2754 -8998.3850 -7307.5972 299.9921 -39.7299 63.3122 30125.1872 -175.9155 -85.9801
ENERGY: 600000 3.6671 13.7552 6.1466 0.0000 -10434.1330 1403.6536 0.0000 0.0000 1781.9448 -7224.9656 307.9909 -9006.9104 -7286.9737 303.3562 121.9977 213.1983 29724.1190 -141.3755 -74.4909
ENERGY: 900000 6.6268 12.1884 6.7661 0.0000 -10389.7384 1261.5303 0.0000 0.0000 1698.9312 -7403.6955 293.6428 -9102.6267 -7312.3364 301.1109 -1210.3154 -1207.3987 29577.5634 -211.7886 -147.6110
ENERGY: 1200000 5.0371 17.1117 6.6065 0.0000 -10478.8219 1412.4990 0.0000 0.0000 1738.8441 -7298.7235 300.5414 -9037.5677 -7307.7973 300.7606 -80.5792 -57.5806 29998.3050 -200.2206 -143.4282
ENERGY: 1500000 6.7789 9.3518 7.2776 0.0000 -10296.0560 1265.3255 0.0000 0.0000 1707.2552 -7300.0670 295.0815 -9007.3222 -7302.1157 301.0362 -1499.8992 -1450.9553 30704.8788 -270.4072 -212.4790
TCL: Running FEP window   9: Lambda1 0.5999999999999996 Lambda2 0.5499999999999996 [dLambda -0.050000000000000044]
TCL: Setting parameter firsttimestep to 0
TCL: Setting parameter alchLambda to 0.5999999999999996
Info: NONBONDED TABLE R-SQUARED SPACING: 0.0625
Info: NONBONDED TABLE SIZE: 705 POINTS
TCL: Setting parameter alchLambda2 to 0.5499999999999996
Info: NONBONDED TABLE R-SQUARED SPACING: 0.0625
Info: NONBONDED TABLE SIZE: 705 POINTS
TCL: Running for 1500000 steps
ETITLE: TS BOND ANGLE DIHED IMPRP ELECT VDW BOUNDARY MISC KINETIC TOTAL TEMP POTENTIAL TOTALAVG TEMPAVG PRESSURE GPRESSURE VOLUME PRESSAVG GPRESSAVG
ENERGY: 0 6.7789 9.3518 7.2776 0.0000 -10295.3379 1265.4916 0.0000 0.0000 1706.4086 -7300.0294 294.9352 -9006.4379 -7300.0294 294.9352 -1537.7827 -1455.1865 30704.8788 -1537.7827 -1455.1865
ENERGY: 300000 3.7852 15.7789 6.9880 0.0000 -10540.1028 1445.1072 0.0000 0.0000 1755.0808 -7313.3628 303.3477 -9068.4436 -7304.5802 298.3933 275.0838 300.9934 29780.2810 -283.1137 -230.2375
ENERGY: 600000 1.4170 12.3172 6.8086 0.0000 -10486.7434 1402.8004 0.0000 0.0000 1746.4542 -7316.9461 301.8567 -9063.4003 -7304.8819 300.2783 10.9021 7.2430 29873.1476 -141.5690 -95.4353
ENERGY: 900000 3.4094 9.3686 6.7329 0.0000 -10597.4998 1456.0101 0.0000 0.0000 1723.9667 -7398.0122 297.9699 -9121.9788 -7303.2429 300.6766 -4.8071 64.2821 29913.9249 -46.1351 0.3576
ENERGY: 1200000 5.0911 15.5607 6.4933 0.0000 -10399.4564 1366.7955 0.0000 0.0000 1709.5261 -7295.9896 295.4740 -9005.5158 -7295.9983 299.7679 -185.5474 -110.4036 29858.0529 -55.2440 -10.2687
ENERGY: 1500000 4.5652 12.1194 6.8676 0.0000 -10451.5726 1434.8955 0.0000 0.0000 1684.8455 -7308.2794 291.2083 -8993.1250 -7303.1772 299.7076 -72.1655 -21.4490 30518.8466 -153.3667 -107.3839
TCL: Running FEP window  10: Lambda1 0.5499999999999996 Lambda2 0.4999999999999996 [dLambda -0.04999999999999999]
TCL: Setting parameter firsttimestep to 0
TCL: Setting parameter alchLambda to 0.5499999999999996
Info: NONBONDED TABLE R-SQUARED SPACING: 0.0625
Info: NONBONDED TABLE SIZE: 705 POINTS
TCL: Setting parameter alchLambda2 to 0.4999999999999996
Info: NONBONDED TABLE R-SQUARED SPACING: 0.0625
Info: NONBONDED TABLE SIZE: 705 POINTS
TCL: Running for 1500000 steps
ETITLE: TS BOND ANGLE DIHED IMPRP ELECT VDW BOUNDARY MISC KINETIC TOTAL TEMP POTENTIAL TOTALAVG TEMPAVG PRESSURE GPRESSURE VOLUME PRESSAVG GPRESSAVG
ENERGY: 0 4.5652 12.1194 6.8676 0.0000 -10451.6309 1434.5623 0.0000 0.0000 1683.9769 -7309.5396 291.0581 -8993.5164 -7309.5396 291.0581 -111.5880 -37.9363 30518.8466 -111.5880 -37.9363
ENERGY: 300000 4.1997 12.3127 6.1033 0.0000 -10447.8145 1357.3066 0.0000 0.0000 1698.4732 -7369.4190 293.5637 -9067.8922 -7333.8797 295.5227 -640.4106 -555.2888 29826.0464 48.6475 102.1124
ENERGY: 600000 4.9638 11.0430 5.7725 0.0000 -10387.1236 1390.0659 0.0000 0.0000 1785.2417 -7190.0367 308.5607 -8975.2784 -7303.4235 298.7554 149.4417 235.0955 29474.4160 12.1405 90.2214
ENERGY: 900000 8.7651 19.5654 5.9190 0.0000 -10487.1588 1383.2077 0.0000 0.0000 1695.3816 -7374.3201 293.0293 -9069.7017 -7319.9861 297.9764 -819.8503 -715.2447 30126.3100 -21.0795 63.1015
ENERGY: 1200000 7.3059 14.4847 9.2549 0.0000 -10461.0962 1388.5403 0.0000 0.0000 1739.6541 -7301.8563 300.6814 -9041.5104 -7316.6409 298.1535 -175.4444 -80.8124 29597.7731 -70.3014 9.6199
ENERGY: 1500000 2.8015 14.3873 7.3138 0.0000 -10527.4940 1406.2244 0.0000 0.0000 1741.2384 -7355.5286 300.9552 -9096.7670 -7322.7696 297.6816 -93.3099 -24.0805 29704.0549 -42.3139 37.9121
TCL: Running FEP window  11: Lambda1 0.4999999999999996 Lambda2 0.4499999999999996 [dLambda -0.04999999999999999]
TCL: Setting parameter firsttimestep to 0
TCL: Setting parameter alchLambda to 0.4999999999999996
Info: NONBONDED TABLE R-SQUARED SPACING: 0.0625
Info: NONBONDED TABLE SIZE: 705 POINTS
TCL: Setting parameter alchLambda2 to 0.4499999999999996
Info: NONBONDED TABLE R-SQUARED SPACING: 0.0625
Info: NONBONDED TABLE SIZE: 705 POINTS
TCL: Running for 1500000 steps
ETITLE: TS BOND ANGLE DIHED IMPRP ELECT VDW BOUNDARY MISC KINETIC TOTAL TEMP POTENTIAL TOTALAVG TEMPAVG PRESSURE GPRESSURE VOLUME PRESSAVG GPRESSAVG
ENERGY: 0 2.8015 14.3873 7.3138 0.0000 -10527.4065 1406.8716 0.0000 0.0000 1740.3367 -7355.6956 300.7993 -9096.0323 -7355.6956 300.7993 -103.9210 -24.4638 29704.0549 -103.9210 -24.4638
ENERGY: 300000 7.1996 13.0210 6.0813 0.0000 -10375.0257 1304.1743 0.0000 0.0000 1704.9655 -7339.5839 294.6858 -9044.5494 -7353.4107 295.4611 -1101.0343 -1037.8280 29902.1832 -559.2331 -462.7975
ENERGY: 600000 5.0863 17.7013 5.4604 0.0000 -10557.2658 1439.2944 0.0000 0.0000 1723.1195 -7366.6039 297.8235 -9089.7233 -7334.4752 297.3825 43.8715 131.8689 29817.7873 -465.7941 -388.0338
ENERGY: 900000 2.6582 21.7249 6.4614 0.0000 -10473.1778 1406.6109 0.0000 0.0000 1755.3896 -7280.3329 303.4011 -9035.7224 -7319.2352 298.8269 31.9866 68.0481 29806.1868 -283.7179 -218.2875
ENERGY: 1200000 6.2046 10.7972 7.6166 0.0000 -10465.3259 1442.5508 0.0000 0.0000 1733.5891 -7264.5675 299.6331 -8998.1566 -7310.0046 298.5937 288.3100 295.1194 30057.1491 -219.4040 -162.7495
ENERGY: 1500000 4.0789 12.3862 7.6641 0.0000 -10494.6149 1457.7230 0.0000 0.0000 1695.5568 -7317.2058 293.0596 -9012.7627 -7312.9618 297.7898 817.4981 874.9324 29283.4881 -126.0991 -68.6170
TCL: Running FEP window  12: Lambda1 0.4499999999999996 Lambda2 0.39999999999999963 [dLambda -0.04999999999999999]
TCL: Setting parameter firsttimestep to 0
TCL: Setting parameter alchLambda to 0.4499999999999996
Info: NONBONDED TABLE R-SQUARED SPACING: 0.0625
Info: NONBONDED TABLE SIZE: 705 POINTS
TCL: Setting parameter alchLambda2 to 0.39999999999999963
Info: NONBONDED TABLE R-SQUARED SPACING: 0.0625
Info: NONBONDED TABLE SIZE: 705 POINTS
TCL: Running for 1500000 steps
ETITLE: TS BOND ANGLE DIHED IMPRP ELECT VDW BOUNDARY MISC KINETIC TOTAL TEMP POTENTIAL TOTALAVG TEMPAVG PRESSURE GPRESSURE VOLUME PRESSAVG GPRESSAVG
ENERGY: 0 4.0789 12.3862 7.6641 0.0000 -10494.6139 1457.8926 0.0000 0.0000 1694.6987 -7317.8934 292.9113 -9012.5921 -7317.8934 292.9113 778.0180 866.2591 29283.4881 778.0180 866.2591
ENERGY: 300000 2.2190 13.7218 5.9143 0.0000 -10582.5791 1471.5488 0.0000 0.0000 1749.3319 -7339.8435 302.3541 -9089.1754 -7318.7037 297.2081 554.2992 592.0471 29482.9336 369.3432 431.0766
ENERGY: 600000 3.2541 16.6425 6.1447 0.0000 -10341.0562 1326.4051 0.0000 0.0000 1689.5841 -7299.0257 292.0273 -8988.6099 -7310.3933 296.9927 -749.7594 -706.4690 30375.8417 81.9072 160.3200
ENERGY: 900000 7.0127 16.3561 6.8045 0.0000 -10437.2364 1372.5997 0.0000 0.0000 1718.4180 -7316.0453 297.0109 -9034.4633 -7308.4382 297.4945 -512.8515 -455.0177 30098.2171 43.2525 109.4547
ENERGY: 1200000 5.3257 13.1403 7.0080 0.0000 -10528.6764 1467.9908 0.0000 0.0000 1700.5337 -7334.6780 293.9198 -9035.2117 -7316.8913 297.4001 234.4680 302.4727 29860.3222 43.0036 105.8978
ENERGY: 1500000 2.7434 22.6033 6.6521 0.0000 -10591.0797 1488.8204 0.0000 0.0000 1690.9339 -7379.3266 292.2606 -9070.2605 -7319.5467 297.6453 712.2511 745.6321 29444.2385 36.3126 102.7242
TCL: Running FEP window  13: Lambda1 0.39999999999999963 Lambda2 0.34999999999999964 [dLambda -0.04999999999999999]
TCL: Setting parameter firsttimestep to 0
TCL: Setting parameter alchLambda to 0.39999999999999963
Info: NONBONDED TABLE R-SQUARED SPACING: 0.0625
Info: NONBONDED TABLE SIZE: 705 POINTS
TCL: Setting parameter alchLambda2 to 0.34999999999999964
Info: NONBONDED TABLE R-SQUARED SPACING: 0.0625
Info: NONBONDED TABLE SIZE: 705 POINTS
TCL: Running for 1500000 steps
ETITLE: TS BOND ANGLE DIHED IMPRP ELECT VDW BOUNDARY MISC KINETIC TOTAL TEMP POTENTIAL TOTALAVG TEMPAVG PRESSURE GPRESSURE VOLUME PRESSAVG GPRESSAVG
ENERGY: 0 2.7434 22.6033 6.6521 0.0000 -10591.0804 1489.1724 0.0000 0.0000 1690.0708 -7379.8383 292.1114 -9069.9091 -7379.8383 292.1114 677.7932 739.9657 29444.2385 677.7932 739.9657
ENERGY: 300000 3.6408 20.6607 7.1514 0.0000 -10502.6493 1454.8630 0.0000 0.0000 1781.6984 -7234.6351 307.9483 -9016.3334 -7275.5927 303.2010 253.8623 333.2723 29749.7464 -105.5385 -44.5815
ENERGY: 600000 4.5581 17.2811 8.1862 0.0000 -10432.7367 1385.8463 0.0000 0.0000 1811.2284 -7205.6367 313.0522 -9016.8651 -7275.3818 301.7070 290.4504 246.4970 29100.3093 -60.9720 -1.7856
ENERGY: 900000 4.9390 14.5813 7.7656 0.0000 -10594.5338 1507.9307 0.0000 0.0000 1778.2398 -7281.0774 307.3505 -9059.3172 -7267.4002 301.4873 737.6229 779.9634 29544.9198 -9.7584 51.9653
ENERGY: 1200000 1.9011 16.3183 6.7606 0.0000 -10487.7934 1445.1490 0.0000 0.0000 1745.2944 -7272.3700 301.6562 -9017.6644 -7277.8502 300.8736 140.9726 200.2141 30306.1933 32.6389 88.8564
ENERGY: 1500000 3.0121 12.5898 6.5779 0.0000 -10534.3047 1503.0911 0.0000 0.0000 1709.9880 -7299.0458 295.5539 -9009.0338 -7275.2665 301.0839 756.3500 826.3992 29935.4877 13.1045 72.6040
TCL: Running FEP window  14: Lambda1 0.34999999999999964 Lambda2 0.29999999999999966 [dLambda -0.04999999999999999]
TCL: Setting parameter firsttimestep to 0
TCL: Setting parameter alchLambda to 0.34999999999999964
Info: NONBONDED TABLE R-SQUARED SPACING: 0.0625
Info: NONBONDED TABLE SIZE: 705 POINTS
TCL: Setting parameter alchLambda2 to 0.29999999999999966
Info: NONBONDED TABLE R-SQUARED SPACING: 0.0625
Info: NONBONDED TABLE SIZE: 705 POINTS
TCL: Running for 1500000 steps
ETITLE: TS BOND ANGLE DIHED IMPRP ELECT VDW BOUNDARY MISC KINETIC TOTAL TEMP POTENTIAL TOTALAVG TEMPAVG PRESSURE GPRESSURE VOLUME PRESSAVG GPRESSAVG
ENERGY: 0 3.0121 12.5897 6.5779 0.0000 -10534.3053 1503.7159 0.0000 0.0000 1709.1021 -7299.3076 295.4008 -9008.4098 -7299.3076 295.4008 745.8377 822.5476 29935.4877 745.8377 822.5476
ENERGY: 300000 4.2114 15.3766 7.2548 0.0000 -10349.0457 1308.0019 0.0000 0.0000 1777.1968 -7237.0043 307.1702 -9014.2010 -7260.6562 298.7768 -693.4487 -607.3437 29979.4872 -379.2992 -297.1898
ENERGY: 600000 8.8582 9.5567 5.5680 0.0000 -10473.0416 1417.0536 0.0000 0.0000 1770.5788 -7261.4263 306.0264 -9032.0051 -7278.1206 298.8379 -151.9268 -52.2441 29803.3177 -223.0365 -150.7622
ENERGY: 900000 6.1954 13.6834 7.7820 0.0000 -10447.7621 1432.3830 0.0000 0.0000 1778.3651 -7209.3532 307.3721 -8987.7182 -7285.2803 299.6340 258.3463 283.5894 29965.3566 -126.9555 -59.6429
ENERGY: 1200000 8.4646 12.2978 7.4532 0.0000 -10442.7498 1346.9980 0.0000 0.0000 1765.6264 -7301.9098 305.1704 -9067.5362 -7290.4067 299.8027 -701.2833 -717.6884 30157.0436 -196.1053 -136.4011
ENERGY: 1500000 3.9463 15.9879 6.3880 0.0000 -10412.9647 1435.9745 0.0000 0.0000 1693.5886 -7257.0793 292.7194 -8950.6679 -7288.2028 299.0302 198.7392 257.5681 30057.4739 -100.2058 -34.0430
TCL: Running FEP window  15: Lambda1 0.29999999999999966 Lambda2 0.24999999999999967 [dLambda -0.04999999999999999]
TCL: Setting parameter firsttimestep to 0
TCL: Setting parameter alchLambda to 0.29999999999999966
Info: NONBONDED TABLE R-SQUARED SPACING: 0.0625
Info: NONBONDED TABLE SIZE: 705 POINTS
TCL: Setting parameter alchLambda2 to 0.24999999999999967
Info: NONBONDED TABLE R-SQUARED SPACING: 0.0625
Info: NONBONDED TABLE SIZE: 705 POINTS
TCL: Running for 1500000 steps
ETITLE: TS BOND ANGLE DIHED IMPRP ELECT VDW BOUNDARY MISC KINETIC TOTAL TEMP POTENTIAL TOTALAVG TEMPAVG PRESSURE GPRESSURE VOLUME PRESSAVG GPRESSAVG
ENERGY: 0 3.9463 15.9879 6.3880 0.0000 -10412.9644 1435.8754 0.0000 0.0000 1692.7164 -7258.0503 292.5687 -8950.7668 -7258.0503 292.5687 170.3996 246.2288 30057.4739 170.3996 246.2288
ENERGY: 300000 2.8100 16.4565 5.7519 0.0000 -10561.6599 1497.4353 0.0000 0.0000 1743.8450 -7295.3612 301.4057 -9039.2062 -7268.1878 301.1302 1066.9007 1158.1277 28954.6723 399.8354 453.1127
ENERGY: 600000 4.0976 15.7439 6.3904 0.0000 -10595.9957 1449.2051 0.0000 0.0000 1760.2480 -7360.3107 304.2408 -9120.5587 -7280.8731 301.3831 -4.3111 115.7979 29440.6978 273.8965 346.6690
ENERGY: 900000 6.9959 19.5362 6.1943 0.0000 -10379.0724 1322.2258 0.0000 0.0000 1752.4735 -7271.6467 302.8971 -9024.1203 -7279.6504 302.1065 -682.5435 -521.6733 29425.6798 82.8104 163.6127
ENERGY: 1200000 5.2424 12.3850 7.2721 0.0000 -10437.0342 1355.5816 0.0000 0.0000 1674.4316 -7382.1215 289.4083 -9056.5531 -7287.6395 301.4937 -664.8915 -567.4037 29814.1716 10.7681 94.0617
ENERGY: 1500000 4.7615 13.8331 6.7600 0.0000 -10461.3076 1481.9597 0.0000 0.0000 1734.0533 -7219.9399 299.7133 -8953.9932 -7280.0646 301.3929 534.8049 618.6910 30049.3993 8.2308 92.5417
TCL: Running FEP window  16: Lambda1 0.24999999999999967 Lambda2 0.19999999999999968 [dLambda -0.04999999999999999]
TCL: Setting parameter firsttimestep to 0
TCL: Setting parameter alchLambda to 0.24999999999999967
Info: NONBONDED TABLE R-SQUARED SPACING: 0.0625
Info: NONBONDED TABLE SIZE: 705 POINTS
TCL: Setting parameter alchLambda2 to 0.19999999999999968
Info: NONBONDED TABLE R-SQUARED SPACING: 0.0625
Info: NONBONDED TABLE SIZE: 705 POINTS
TCL: Running for 1500000 steps
ETITLE: TS BOND ANGLE DIHED IMPRP ELECT VDW BOUNDARY MISC KINETIC TOTAL TEMP POTENTIAL TOTALAVG TEMPAVG PRESSURE GPRESSURE VOLUME PRESSAVG GPRESSAVG
ENERGY: 0 4.7615 13.8331 6.7600 0.0000 -10461.3074 1482.6858 0.0000 0.0000 1733.1810 -7220.0860 299.5625 -8953.2670 -7220.0860 299.5625 530.6169 617.4636 30049.3993 530.6169 617.4636
ENERGY: 300000 3.3364 11.7067 8.3921 0.0000 -10667.8435 1539.2154 0.0000 0.0000 1766.4327 -7338.7603 305.3098 -9105.1930 -7269.4647 302.0519 1028.6867 1056.4979 29404.3845 413.5676 471.9694
ENERGY: 600000 2.1314 17.4475 7.3800 0.0000 -10411.5426 1391.5645 0.0000 0.0000 1737.1072 -7255.9121 300.2411 -8993.0192 -7277.3960 301.6043 -97.8446 -11.9125 29862.6069 308.1387 367.2222
ENERGY: 900000 3.9773 14.6273 7.4149 0.0000 -10619.0082 1444.4102 0.0000 0.0000 1687.6201 -7460.9584 291.6878 -9148.5785 -7292.6097 300.0057 124.6880 186.5858 29221.5534 356.5967 414.5084
ENERGY: 1200000 4.5620 12.0314 7.6629 0.0000 -10458.7358 1352.8417 0.0000 0.0000 1751.7803 -7329.8575 302.7773 -9081.6378 -7301.1617 300.4240 -598.2056 -539.5455 29682.5974 209.0077 258.9499
ENERGY: 1500000 4.6941 14.6740 7.4359 0.0000 -10539.2978 1487.6201 0.0000 0.0000 1711.6523 -7313.2213 295.8415 -9024.8737 -7300.5469 299.6245 288.5400 296.8858 30083.3633 172.6823 224.0206
TCL: Running FEP window  17: Lambda1 0.19999999999999968 Lambda2 0.1499999999999997 [dLambda -0.04999999999999999]
TCL: Setting parameter firsttimestep to 0
TCL: Setting parameter alchLambda to 0.19999999999999968
Info: NONBONDED TABLE R-SQUARED SPACING: 0.0625
Info: NONBONDED TABLE SIZE: 705 POINTS
TCL: Setting parameter alchLambda2 to 0.1499999999999997
Info: NONBONDED TABLE R-SQUARED SPACING: 0.0625
Info: NONBONDED TABLE SIZE: 705 POINTS
TCL: Running for 1500000 steps
ETITLE: TS BOND ANGLE DIHED IMPRP ELECT VDW BOUNDARY MISC KINETIC TOTAL TEMP POTENTIAL TOTALAVG TEMPAVG PRESSURE GPRESSURE VOLUME PRESSAVG GPRESSAVG
ENERGY: 0 4.6941 14.6739 7.4359 0.0000 -10539.2985 1488.3355 0.0000 0.0000 1710.7645 -7313.3945 295.6881 -9024.1590 -7313.3945 295.6881 214.8579 296.2665 30083.3633 214.8579 296.2665
ENERGY: 300000 4.6760 10.5905 7.4262 0.0000 -10647.2623 1520.7605 0.0000 0.0000 1738.5218 -7365.2875 300.4856 -9103.8092 -7329.6029 295.5435 684.0533 723.3267 29646.4751 650.1819 686.4122
ENERGY: 600000 6.5795 14.8003 7.5055 0.0000 -10465.8898 1404.7064 0.0000 0.0000 1737.8295 -7294.4687 300.3660 -9032.2982 -7330.0302 297.3934 68.1190 150.4009 29647.2682 419.6641 465.8662
ENERGY: 900000 5.7973 14.7873 7.6512 0.0000 -10367.6799 1341.9066 0.0000 0.0000 1704.6607 -7292.8768 294.6331 -8997.5375 -7302.4677 298.7800 -671.7051 -561.8568 30077.0962 322.3747 367.5900
ENERGY: 1200000 3.9248 16.8238 8.5146 0.0000 -10484.3509 1425.2250 0.0000 0.0000 1716.6160 -7313.2468 296.6995 -9029.8628 -7296.6385 298.1399 181.7768 243.5571 29381.5960 189.3858 230.4673
ENERGY: 1500000 3.4174 15.0602 8.4665 0.0000 -10476.0643 1402.5840 0.0000 0.0000 1702.1408 -7344.3954 294.1976 -9046.5362 -7306.5754 297.9102 -161.6246 -97.0132 29531.9910 26.7661 76.0644
TCL: Running FEP window  18: Lambda1 0.1499999999999997 Lambda2 0.09999999999999969 [dLambda -0.05 ]
TCL: Setting parameter firsttimestep to 0
TCL: Setting parameter alchLambda to 0.1499999999999997
Info: NONBONDED TABLE R-SQUARED SPACING: 0.0625
Info: NONBONDED TABLE SIZE: 705 POINTS
TCL: Setting parameter alchLambda2 to 0.09999999999999969
Info: NONBONDED TABLE R-SQUARED SPACING: 0.0625
Info: NONBONDED TABLE SIZE: 705 POINTS
TCL: Running for 1500000 steps
ETITLE: TS BOND ANGLE DIHED IMPRP ELECT VDW BOUNDARY MISC KINETIC TOTAL TEMP POTENTIAL TOTALAVG TEMPAVG PRESSURE GPRESSURE VOLUME PRESSAVG GPRESSAVG
ENERGY: 0 3.4174 15.0602 8.4665 0.0000 -10476.0655 1402.0300 0.0000 0.0000 1701.2852 -7345.8063 294.0497 -9047.0915 -7345.8063 294.0497 -189.2479 -106.1510 29531.9910 -189.2479 -106.1510
ENERGY: 300000 3.3566 10.2821 5.4950 0.0000 -10532.9453 1470.1832 0.0000 0.0000 1781.1938 -7262.4345 307.8611 -9043.6284 -7315.1548 296.7528 394.0316 471.1641 29675.3630 -21.0621 28.5856
ENERGY: 600000 3.1975 15.0974 8.6506 0.0000 -10563.1406 1472.3374 0.0000 0.0000 1729.5459 -7334.3118 298.9343 -9063.8578 -7315.8877 298.8430 422.9345 472.7463 29523.3334 -158.9963 -92.9558
ENERGY: 900000 2.7927 11.0123 6.3342 0.0000 -10456.0778 1396.3191 0.0000 0.0000 1673.8838 -7365.7358 289.3136 -9039.6195 -7322.3189 297.8337 -403.9004 -358.8826 29841.0255 -181.2372 -121.2880
ENERGY: 1200000 3.9987 18.4146 7.6564 0.0000 -10482.8119 1457.7241 0.0000 0.0000 1749.5045 -7245.5136 302.3839 -8995.0182 -7315.9892 298.0549 355.4016 364.6953 29819.9442 -150.2317 -94.0481
ENERGY: 1500000 2.0604 14.7230 7.4423 0.0000 -10526.1472 1476.8401 0.0000 0.0000 1714.8767 -7310.2046 296.3988 -9025.0813 -7310.6759 297.5644 546.1272 630.4401 29580.5813 -169.3199 -105.1199
TCL: Running FEP window  19: Lambda1 0.09999999999999969 Lambda2 0.049999999999999684 [dLambda -0.05 ]
TCL: Setting parameter firsttimestep to 0
TCL: Setting parameter alchLambda to 0.09999999999999969
Info: NONBONDED TABLE R-SQUARED SPACING: 0.0625
Info: NONBONDED TABLE SIZE: 705 POINTS
TCL: Setting parameter alchLambda2 to 0.049999999999999684
Info: NONBONDED TABLE R-SQUARED SPACING: 0.0625
Info: NONBONDED TABLE SIZE: 705 POINTS
TCL: Running for 1500000 steps
ETITLE: TS BOND ANGLE DIHED IMPRP ELECT VDW BOUNDARY MISC KINETIC TOTAL TEMP POTENTIAL TOTALAVG TEMPAVG PRESSURE GPRESSURE VOLUME PRESSAVG GPRESSAVG
ENERGY: 0 2.0604 14.7230 7.4423 0.0000 -10526.1486 1477.4122 0.0000 0.0000 1714.0121 -7310.4985 296.2494 -9024.5106 -7310.4985 296.2494 541.5562 628.5245 29580.5813 541.5562 628.5245
ENERGY: 300000 3.7091 21.0447 6.9789 0.0000 -10374.5323 1348.6416 0.0000 0.0000 1771.9139 -7222.2441 306.2571 -8994.1580 -7263.1498 299.3657 -380.6480 -324.2938 29703.1771 193.0618 261.7847
ENERGY: 600000 2.5596 15.2781 8.4438 0.0000 -10383.1285 1338.1771 0.0000 0.0000 1722.1856 -7296.4843 297.6621 -9018.6699 -7290.4911 299.5012 -601.6851 -534.5486 29661.2526 -41.3168 15.7402
ENERGY: 900000 4.1660 14.5661 4.8933 0.0000 -10491.9270 1437.9659 0.0000 0.0000 1743.4091 -7286.9265 301.3304 -9030.3357 -7280.1992 300.1059 269.9906 303.0626 29786.4947 -127.8862 -63.7316
ENERGY: 1200000 2.8852 12.0547 7.5681 0.0000 -10470.1766 1431.1176 0.0000 0.0000 1720.9903 -7295.5607 297.4555 -9016.5510 -7290.3647 299.7841 185.6580 179.1511 29974.5443 -58.3140 5.5838
ENERGY: 1500000 3.2575 14.6228 7.0139 0.0000 -10444.7477 1370.4686 0.0000 0.0000 1718.5235 -7330.8616 297.0291 -9049.3850 -7293.1478 299.6545 -594.1558 -534.3319 29883.5800 -88.1649 -22.6721
TCL: Running FEP window  20: Lambda1 0.049999999999999684 Lambda2 0.0    [dLambda -0.049999999999999684]
TCL: Setting parameter firsttimestep to 0
TCL: Setting parameter alchLambda to 0.049999999999999684
Info: NONBONDED TABLE R-SQUARED SPACING: 0.0625
Info: NONBONDED TABLE SIZE: 705 POINTS
TCL: Setting parameter alchLambda2 to 0.0
Info: NONBONDED TABLE R-SQUARED SPACING: 0.0625
Info: NONBONDED TABLE SIZE: 705 POINTS
TCL: Running for 1500000 steps
ETITLE: TS BOND ANGLE DIHED IMPRP ELECT VDW BOUNDARY MISC KINETIC TOTAL TEMP POTENTIAL TOTALAVG TEMPAVG PRESSURE GPRESSURE VOLUME PRESSAVG GPRESSAVG
ENERGY: 0 3.2575 14.6228 7.0139 0.0000 -10444.7489 1369.4294 0.0000 0.0000 1717.6329 -7332.7925 296.8752 -9050.4253 -7332.7925 296.8752 -637.5365 -544.8998 29883.5800 -637.5365 -544.8998
ENERGY: 300000 2.5011 17.6361 6.7528 0.0000 -10620.1828 1488.9794 0.0000 0.0000 1744.0426 -7360.2708 301.4399 -9104.3134 -7364.5828 298.3606 420.6018 434.4518 29378.2726 -99.8691 -31.4491
ENERGY: 600000 3.2536 16.0125 6.4928 0.0000 -10618.8843 1453.6026 0.0000 0.0000 1712.0815 -7427.4412 295.9157 -9139.5228 -7367.4345 297.2789 32.2927 74.3492 29505.3774 -36.5121 15.6494
ENERGY: 900000 2.8169 14.9147 6.6953 0.0000 -10547.8407 1448.6807 0.0000 0.0000 1756.2008 -7318.5323 303.5413 -9074.7331 -7348.4553 299.5157 -88.9616 52.5692 29854.8509 26.1095 85.7077
ENERGY: 1200000 2.5539 18.0731 9.0511 0.0000 -10381.1392 1343.8005 0.0000 0.0000 1729.8172 -7277.8434 298.9811 -9007.6606 -7337.2480 299.0710 -725.1379 -615.9080 30128.3446 -31.3453 32.7899
ENERGY: 1500000 4.2836 14.7439 8.3718 0.0000 -10527.5030 1418.9138 0.0000 0.0000 1746.1525 -7335.0373 301.8045 -9081.1898 -7335.6563 298.6240 116.3558 179.4872 29287.0499 31.6111 93.9154
TCL: Exiting due to exit command.
