Info: SIMULATION PARAMETERS:
Info: TIMESTEP               2
Info: NUMBER OF STEPS        0
Info: STEPS PER CYCLE        10
Info: PERIODIC CELL BASIS 1  31.5515 0 0
Info: PERIODIC CELL BASIS 2  0 30.1185 0
Info: PERIODIC CELL BASIS 3  0 0 32.1607
Info: PERIODIC CELL CENTER   0 0 0
Info: WRAPPING WATERS AROUND PERIODIC BOUNDARIES ON OUTPUT.
Info: WRAPPING ALL CLUSTERS AROUND PERIODIC BOUNDARIES ON OUTPUT.
Info: FIRST LDB TIMESTEP     50
Info: LAST LDB TIMESTEP     -1
Info: HOM BACKGROUND SCALING 1
Info: PME BACKGROUND SCALING 1
Info: MIN ATOMS PER PATCH    40
Info: EMPTY PATCH LOAD       40 ATOMS
Info: VELOCITY FILE          mobley_2613240_equil.vel
Info: CENTER OF MASS MOVING INITIALLY? NO
Info: DIELECTRIC             1
Info: EXCLUDE                SCALED ONE-FOUR
Info: 1-4 ELECTROSTATICS SCALED BY 0.833333
Info: MODIFIED 1-4 VDW PARAMETERS WILL BE USED
Info: DCD FILENAME           mobley_2613240_prod.dcd
Info: DCD FREQUENCY          100000
Info: DCD FIRST STEP         100000
Info: DCD FILE WILL CONTAIN UNIT CELL DATA
Info: XST FILENAME           mobley_2613240_prod.xst
Info: XST FREQUENCY          100000
Info: NO VELOCITY DCD OUTPUT
Info: NO FORCE DCD OUTPUT
Info: OUTPUT FILENAME        mobley_2613240_prod
Info: BINARY OUTPUT FILES WILL BE USED
Info: RESTART FILENAME       mobley_2613240_prod.restart
Info: RESTART FREQUENCY      100000
Info: BINARY RESTART FILES WILL BE USED
Info: CUTOFF                 9
Info: PAIRLIST DISTANCE      11
Info: PAIRLIST SHRINK RATE   0.01
Info: PAIRLIST GROW RATE     0.01
Info: PAIRLIST TRIGGER       0.3
Info: PAIRLISTS PER CYCLE    2
Info: PAIRLISTS ENABLED
Info: MARGIN                 2
Info: HYDROGEN GROUP CUTOFF  2.5
Info: PATCH DIMENSION        15.5
Info: ENERGY OUTPUT STEPS    100000
Info: ENERGY EVALUATION STEPS    100000
Info: OUTPUT ENERGY PRECISION 4
Info: CROSSTERM ENERGY INCLUDED IN DIHEDRAL
Info: TIMING OUTPUT STEPS    1000000
Info: PRESSURE OUTPUT STEPS  100000
Info: ALCHEMICAL FEP ON
Info: FEP CURRENT LAMBDA VALUE     0
Info: FEP COMPARISON LAMBDA VALUE  0.05
Info: FEP INTRA-ALCHEMICAL NON-BONDED INTERACTIONS WILL BE RETAINED
Info: FEP INTRA-ALCHEMICAL BONDED INTERACTIONS WILL BE RETAINED
Info: FEP VDW SHIFTING COEFFICIENT 5
Info: FEP ELEC. ACTIVE FOR ANNIHILATED PARTICLES BETWEEN LAMBDA = 0 AND LAMBDA = 0.5
Info: FEP ELEC. ACTIVE FOR EXNIHILATED PARTICLES BETWEEN LAMBDA = 0.5 AND LAMBDA = 1
Info: FEP VDW ACTIVE FOR ANNIHILATED PARTICLES BETWEEN LAMBDA = 0 AND LAMBDA = 1
Info: FEP VDW ACTIVE FOR EXNIHILATED PARTICLES BETWEEN LAMBDA = 0 AND LAMBDA = 1
Info: FEP BOND ACTIVE FOR ANNIHILATED PARTICLES BETWEEN LAMBDA = 1 AND LAMBDA = 1
Info: FEP BOND ACTIVE FOR EXNIHILATED PARTICLES BETWEEN LAMBDA = 0 AND LAMBDA = 0
Info: LANGEVIN DYNAMICS ACTIVE
Info: LANGEVIN TEMPERATURE   300
Info: LANGEVIN USING BBK INTEGRATOR
Info: LANGEVIN DAMPING COEFFICIENT IS 1 INVERSE PS
Info: LANGEVIN DYNAMICS APPLIED TO HYDROGENS
Info: LANGEVIN PISTON PRESSURE CONTROL ACTIVE
Info:        TARGET PRESSURE IS 1.01325 BAR
Info:     OSCILLATION PERIOD IS 50 FS
Info:             DECAY TIME IS 25 FS
Info:     PISTON TEMPERATURE IS 300 K
Info:       PRESSURE CONTROL IS GROUP-BASED
Info:    INITIAL STRAIN RATE IS -0.0001918 -0.0001918 -0.0001918
Info:       CELL FLUCTUATION IS ISOTROPIC
Info: PARTICLE MESH EWALD (PME) ACTIVE
Info: PME TOLERANCE               1e-06
Info: PME EWALD COEFFICIENT       0.348832
Info: PME INTERPOLATION ORDER     4
Info: PME GRID DIMENSIONS         32 32 36
Info: PME MAXIMUM GRID SPACING    1
Info: PME CALCULATION WILL BE PERFORMED ON GPU
Info: FULL ELECTROSTATIC EVALUATION FREQUENCY      2
Info: USING VERLET I (r-RESPA) MTS SCHEME.
Info: C1 SPLITTING OF LONG RANGE ELECTROSTATICS
Info: PLACING ATOMS IN PATCHES BY HYDROGEN GROUPS
Info: RIGID BONDS TO HYDROGEN : ALL
Info:         ERROR TOLERANCE : 1e-08
Info:          MAX ITERATIONS : 100
Info: RIGID WATER USING SETTLE ALGORITHM
Info: RANDOM NUMBER SEED     1743858618
Info: USE HYDROGEN BONDS?    NO
Info: Using AMBER format force field!
Info: AMBER PARM FILE        mobley_2613240.prmtop
Info: COORDINATE PDB         mobley_2613240.pdb
Info: Exclusions will be read from PARM file!
Info: SCNB (VDW SCALING)     2
Info: USING ARITHMETIC MEAN TO COMBINE L-J SIGMA PARAMETERS
Info: BINARY COORDINATES     mobley_2613240_equil.coor
Info: SUMMARY OF PARAMETERS:
Info: 7 BONDS
Info: 6 ANGLES
Info:   6 HARMONIC
Info:   0 COSINE-BASED
Info: 4 DIHEDRAL
Info: 0 IMPROPER
Info: 0 CROSSTERM
Info: 0 VDW
Info: 28 VDW_PAIRS
Info: 0 NBTHOLE_PAIRS
Info: To read alchdata from file: mobley_2613240.pdb
Info: To read alchflag data from column: 5
Info: STRUCTURE SUMMARY:
Info: 2978 ATOMS
Info: 2978 BONDS
Info: 32 ANGLES
Info: 40 DIHEDRALS
Info: 0 IMPROPERS
Info: 0 CROSSTERMS
Info: 3041 EXCLUSIONS
Info: 2968 RIGID BONDS
Info: ALCH: 0 ATOMS TO DISAPPEAR IN FINAL STATE
Info: ALCH: 20 ATOMS TO APPEAR IN FINAL STATE
Info: 5966 DEGREES OF FREEDOM
Info: 996 HYDROGEN GROUPS
Info: 4 ATOMS IN LARGEST HYDROGEN GROUP
Info: 996 MIGRATION GROUPS
Info: 4 ATOMS IN LARGEST MIGRATION GROUP
Info: TOTAL MASS = 17901.9 amu
Info: TOTAL CHARGE = 0.000300035 e
Info: MASS DENSITY = 0.972701 g/cm^3
Info: ATOM DENSITY = 0.0974416 atoms/A^3
Info: ADDED 0 IMPLICIT EXCLUSIONS
Info: NONBONDED TABLE R-SQUARED SPACING: 0.0625
Info: NONBONDED TABLE SIZE: 705 POINTS
Info: REMOVING COM VELOCITY -0.169028 0.146827 0.0549671
Info: Use 3D box decompostion in PME FFT.
Info: Updated CUDA force table with 4096 elements.
Info: Updated CUDA LJ table with 7 x 7 elements.
Info: Found 19 unique exclusion lists needing 48 bytes
TCL: Running for 1500000 steps
ETITLE: TS BOND ANGLE DIHED IMPRP ELECT VDW BOUNDARY MISC KINETIC TOTAL TEMP POTENTIAL TOTALAVG TEMPAVG PRESSURE GPRESSURE VOLUME PRESSAVG GPRESSAVG
ENERGY: 0 5.1847 4.5074 7.2449 0.0000 -10746.9832 1493.4810 0.0000 0.0000 1767.2496 -7469.3156 298.1296 -9236.5652 -7469.3156 298.1296 386.5170 465.9989 30561.8809 386.5170 465.9989
ENERGY: 300000 3.5248 3.9655 10.6684 0.0000 -10891.2161 1554.1087 0.0000 0.0000 1758.2023 -7560.7464 296.6033 -9318.9487 -7523.4291 295.2984 1008.3249 1054.9384 29852.6704 305.8730 356.0371
ENERGY: 600000 0.9384 6.2628 8.9235 0.0000 -10800.4788 1444.0517 0.0000 0.0000 1758.5781 -7581.7243 296.6667 -9340.3024 -7527.9781 297.0923 19.4122 139.2980 30111.3275 76.7693 139.5628
ENERGY: 900000 6.2291 6.2664 8.2417 0.0000 -10705.6344 1440.2224 0.0000 0.0000 1735.2798 -7509.3951 292.7364 -9244.6749 -7512.9902 297.3158 -129.2386 -73.2048 30639.1985 45.1413 109.8629
ENERGY: 1200000 3.4322 4.0831 6.9685 0.0000 -10909.4307 1521.4733 0.0000 0.0000 1742.6979 -7630.7758 293.9878 -9373.4737 -7526.4195 297.8061 301.1724 386.9510 30315.9151 22.8991 89.4406
ENERGY: 1500000 5.7259 13.3644 10.6092 0.0000 -10622.5832 1404.0632 0.0000 0.0000 1810.7064 -7378.1142 305.4606 -9188.8206 -7515.4367 298.6899 -216.9831 -207.9548 30607.5109 -6.2737 49.9893
TCL: Running FEP window   2: Lambda1 0.05   Lambda2 0.1    [dLambda 0.05  ]
TCL: Setting parameter firsttimestep to 0
TCL: Setting parameter alchLambda to 0.05
Info: NONBONDED TABLE R-SQUARED SPACING: 0.0625
Info: NONBONDED TABLE SIZE: 705 POINTS
TCL: Setting parameter alchLambda2 to 0.1
Info: NONBONDED TABLE R-SQUARED SPACING: 0.0625
Info: NONBONDED TABLE SIZE: 705 POINTS
TCL: Running for 1500000 steps
ETITLE: TS BOND ANGLE DIHED IMPRP ELECT VDW BOUNDARY MISC KINETIC TOTAL TEMP POTENTIAL TOTALAVG TEMPAVG PRESSURE GPRESSURE VOLUME PRESSAVG GPRESSAVG
ENERGY: 0 5.7259 13.3644 10.6092 0.0000 -10622.5837 1405.2435 0.0000 0.0000 1809.8302 -7377.8105 305.3128 -9187.6408 -7377.8105 305.3128 -293.9092 -203.1286 30607.5109 -293.9092 -203.1286
ENERGY: 300000 3.4259 7.9555 6.7191 0.0000 -10775.5836 1441.2769 0.0000 0.0000 1807.3678 -7508.8385 304.8974 -9316.2063 -7514.3905 298.8756 -121.7281 -87.1802 30417.2257 -295.0181 -240.6091
ENERGY: 600000 2.4424 8.0653 6.4843 0.0000 -10790.2754 1454.3402 0.0000 0.0000 1767.2108 -7551.7325 298.1230 -9318.9433 -7532.5387 298.6296 -139.6892 -86.2855 30518.2811 -335.7969 -265.9427
ENERGY: 900000 2.6601 4.3944 10.2247 0.0000 -10647.4013 1402.6733 0.0000 0.0000 1783.1654 -7444.2835 300.8145 -9227.4489 -7512.8145 298.7362 -465.6938 -401.3935 30976.5227 -278.7696 -217.2725
ENERGY: 1200000 2.6545 4.8939 14.4009 0.0000 -10797.8402 1481.0097 0.0000 0.0000 1771.2713 -7523.6099 298.8080 -9294.8812 -7523.3136 298.7347 -223.7503 -139.5629 30887.8929 -237.0834 -174.7406
ENERGY: 1500000 3.0038 6.2513 5.6436 0.0000 -10831.9523 1513.4266 0.0000 0.0000 1760.4508 -7543.1763 296.9826 -9303.6271 -7521.4770 299.0398 331.4051 396.0677 30503.4152 -153.1098 -91.1862
TCL: Running FEP window   3: Lambda1 0.1    Lambda2 0.15000000000000002 [dLambda 0.05000000000000002]
TCL: Setting parameter firsttimestep to 0
TCL: Setting parameter alchLambda to 0.1
Info: NONBONDED TABLE R-SQUARED SPACING: 0.0625
Info: NONBONDED TABLE SIZE: 705 POINTS
TCL: Setting parameter alchLambda2 to 0.15000000000000002
Info: NONBONDED TABLE R-SQUARED SPACING: 0.0625
Info: NONBONDED TABLE SIZE: 705 POINTS
TCL: Running for 1500000 steps
ETITLE: TS BOND ANGLE DIHED IMPRP ELECT VDW BOUNDARY MISC KINETIC TOTAL TEMP POTENTIAL TOTALAVG TEMPAVG PRESSURE GPRESSURE VOLUME PRESSAVG GPRESSAVG
ENERGY: 0 3.0038 6.2513 5.6436 0.0000 -10831.9508 1513.1425 0.0000 0.0000 1759.5724 -7544.3373 296.8344 -9303.9097 -7544.3373 296.8344 325.3553 398.2051 30503.4152 325.3553 398.2051
ENERGY: 300000 3.0198 8.2627 10.1079 0.0000 -10814.8732 1512.2750 0.0000 0.0000 1774.7379 -7506.4700 299.3928 -9281.2078 -7537.1278 297.6013 344.2729 417.6023 30413.4653 -41.9017 63.7935
ENERGY: 600000 4.1384 9.7333 4.6878 0.0000 -10806.3814 1447.2218 0.0000 0.0000 1785.4681 -7555.1320 301.2030 -9340.6001 -7536.5224 297.9522 -209.3089 -121.1233 30255.8361 35.7016 125.9144
ENERGY: 900000 2.1426 8.0374 2.0849 0.0000 -10784.3026 1496.7975 0.0000 0.0000 1768.5256 -7506.7145 298.3448 -9275.2401 -7530.9762 297.1499 452.6190 568.3141 30157.5578 -51.4505 31.5485
ENERGY: 1200000 1.5691 8.5671 7.6644 0.0000 -10745.3308 1416.0184 0.0000 0.0000 1740.7846 -7570.7271 293.6650 -9311.5118 -7531.4270 297.6888 -159.5510 -107.0421 30209.1520 -126.4594 -38.6970
ENERGY: 1500000 2.9976 8.2809 4.5503 0.0000 -10744.7248 1451.3215 0.0000 0.0000 1762.1636 -7515.4109 297.2716 -9277.5745 -7534.8677 297.5607 -169.2387 -151.9838 30820.0745 -61.0559 18.1129
TCL: Running FEP window   4: Lambda1 0.15000000000000002 Lambda2 0.2    [dLambda 0.04999999999999999]
TCL: Setting parameter firsttimestep to 0
TCL: Setting parameter alchLambda to 0.15000000000000002
Info: NONBONDED TABLE R-SQUARED SPACING: 0.0625
Info: NONBONDED TABLE SIZE: 705 POINTS
TCL: Setting parameter alchLambda2 to 0.2
Info: NONBONDED TABLE R-SQUARED SPACING: 0.0625
Info: NONBONDED TABLE SIZE: 705 POINTS
TCL: Running for 1500000 steps
ETITLE: TS BOND ANGLE DIHED IMPRP ELECT VDW BOUNDARY MISC KINETIC TOTAL TEMP POTENTIAL TOTALAVG TEMPAVG PRESSURE GPRESSURE VOLUME PRESSAVG GPRESSAVG
ENERGY: 0 2.9976 8.2809 4.5503 0.0000 -10744.7222 1451.4602 0.0000 0.0000 1761.2575 -7516.1757 297.1187 -9277.4331 -7516.1757 297.1187 -229.2662 -148.6653 30820.0745 -229.2662 -148.6653
ENERGY: 300000 0.8970 6.8990 8.0530 0.0000 -10676.2631 1356.7675 0.0000 0.0000 1778.8766 -7524.7701 300.0910 -9303.6467 -7487.5404 303.5297 -834.3278 -810.5459 30869.5603 -204.5687 -149.4432
ENERGY: 600000 2.7145 4.7930 9.2505 0.0000 -10726.0374 1408.8494 0.0000 0.0000 1848.1895 -7452.2404 311.7839 -9300.4300 -7484.1002 304.7270 -369.5521 -319.5938 30688.7058 -222.0528 -161.9999
ENERGY: 900000 1.1605 7.5351 9.1056 0.0000 -10795.7928 1494.6069 0.0000 0.0000 1789.2179 -7494.1668 301.8355 -9283.3847 -7484.6241 304.5279 315.6441 425.4300 30436.3820 -93.2452 -31.0300
ENERGY: 1200000 5.1044 4.7935 6.9378 0.0000 -10744.8740 1497.4343 0.0000 0.0000 1762.6808 -7467.9232 297.3588 -9230.6041 -7488.6586 303.0334 542.8518 593.0992 30092.6103 -47.2233 17.3182
ENERGY: 1500000 3.6730 6.6306 8.7518 0.0000 -10708.1926 1420.7485 0.0000 0.0000 1783.2800 -7485.1088 300.8338 -9268.3888 -7488.1439 302.1540 -285.0610 -233.9149 30542.3089 -9.3883 53.0593
TCL: Running FEP window   5: Lambda1 0.2    Lambda2 0.25   [dLambda 0.04999999999999999]
TCL: Setting parameter firsttimestep to 0
TCL: Setting parameter alchLambda to 0.2
Info: NONBONDED TABLE R-SQUARED SPACING: 0.0625
Info: NONBONDED TABLE SIZE: 705 POINTS
TCL: Setting parameter alchLambda2 to 0.25
Info: NONBONDED TABLE R-SQUARED SPACING: 0.0625
Info: NONBONDED TABLE SIZE: 705 POINTS
TCL: Running for 1500000 steps
ETITLE: TS BOND ANGLE DIHED IMPRP ELECT VDW BOUNDARY MISC KINETIC TOTAL TEMP POTENTIAL TOTALAVG TEMPAVG PRESSURE GPRESSURE VOLUME PRESSAVG GPRESSAVG
ENERGY: 0 3.6730 6.6306 8.7518 0.0000 -10708.1940 1423.1464 0.0000 0.0000 1782.3638 -7483.6285 300.6793 -9265.9923 -7483.6285 300.6793 -302.0971 -217.2000 30542.3089 -302.0971 -217.2000
ENERGY: 300000 3.8923 7.6422 8.4748 0.0000 -10767.3470 1479.8635 0.0000 0.0000 1778.7337 -7488.7405 300.0669 -9267.4741 -7512.5883 299.8562 225.1176 233.1405 30420.4048 -153.4374 -104.6633
ENERGY: 600000 2.9079 7.7505 7.0539 0.0000 -10762.4892 1463.3472 0.0000 0.0000 1740.9669 -7540.4630 293.6957 -9281.4298 -7525.5164 298.5434 268.6061 440.6013 30038.2133 40.4239 102.7004
ENERGY: 900000 3.6100 8.1094 8.2438 0.0000 -10691.4127 1374.2968 0.0000 0.0000 1797.1566 -7499.9961 303.1748 -9297.1527 -7524.7750 299.4703 -470.9489 -438.6646 30104.0333 2.1824 56.1360
ENERGY: 1200000 5.1763 6.2498 11.6589 0.0000 -10682.1330 1421.7385 0.0000 0.0000 1828.7000 -7408.6094 308.4960 -9237.3094 -7518.1582 300.3539 -469.9265 -428.7474 31051.4228 -28.1121 23.0270
ENERGY: 1500000 4.6325 6.1566 7.8909 0.0000 -10727.9290 1441.1155 0.0000 0.0000 1787.2226 -7480.9110 301.4989 -9268.1335 -7505.5754 301.2913 -225.4456 -184.1809 30853.9376 -1.5579 52.6478
TCL: Running FEP window   6: Lambda1 0.25   Lambda2 0.3    [dLambda 0.04999999999999999]
TCL: Setting parameter firsttimestep to 0
TCL: Setting parameter alchLambda to 0.25
Info: NONBONDED TABLE R-SQUARED SPACING: 0.0625
Info: NONBONDED TABLE SIZE: 705 POINTS
TCL: Setting parameter alchLambda2 to 0.3
Info: NONBONDED TABLE R-SQUARED SPACING: 0.0625
Info: NONBONDED TABLE SIZE: 705 POINTS
TCL: Running for 1500000 steps
ETITLE: TS BOND ANGLE DIHED IMPRP ELECT VDW BOUNDARY MISC KINETIC TOTAL TEMP POTENTIAL TOTALAVG TEMPAVG PRESSURE GPRESSURE VOLUME PRESSAVG GPRESSAVG
ENERGY: 0 4.6325 6.1566 7.8909 0.0000 -10727.9307 1441.8085 0.0000 0.0000 1786.3658 -7481.0764 301.3544 -9267.4422 -7481.0764 301.3544 -252.8994 -176.0275 30853.9376 -252.8994 -176.0275
ENERGY: 300000 5.1142 5.7060 5.1841 0.0000 -10742.8309 1415.8480 0.0000 0.0000 1773.7206 -7537.2580 299.2212 -9310.9786 -7509.5760 300.2617 -397.9456 -338.7058 30560.3534 -152.4349 -91.4210
ENERGY: 600000 4.7548 4.8152 9.0935 0.0000 -10856.6717 1461.5674 0.0000 0.0000 1797.9999 -7578.4409 303.3170 -9376.4408 -7527.7825 301.4270 -126.4170 -142.9829 30436.1366 -152.3170 -104.6707
ENERGY: 900000 5.2679 7.9197 5.5292 0.0000 -10655.4616 1373.4629 0.0000 0.0000 1763.1786 -7500.1033 297.4428 -9263.2819 -7523.5008 300.5018 -910.9124 -857.0947 30933.1146 -370.3819 -321.2915
ENERGY: 1200000 6.8664 6.7083 7.5817 0.0000 -10838.2772 1452.8745 0.0000 0.0000 1694.2982 -7669.9480 285.8229 -9364.2462 -7527.5036 300.5340 -139.8227 -100.7109 30524.4155 -277.1565 -225.7840
ENERGY: 1500000 5.9406 8.0388 12.1354 0.0000 -10598.5336 1324.6154 0.0000 0.0000 1801.8427 -7445.9608 303.9653 -9247.8034 -7511.8936 301.4251 -675.1980 -635.3648 30224.2625 -257.0498 -203.0211
TCL: Running FEP window   7: Lambda1 0.3    Lambda2 0.35   [dLambda 0.04999999999999999]
TCL: Setting parameter firsttimestep to 0
TCL: Setting parameter alchLambda to 0.3
Info: NONBONDED TABLE R-SQUARED SPACING: 0.0625
Info: NONBONDED TABLE SIZE: 705 POINTS
TCL: Setting parameter alchLambda2 to 0.35
Info: NONBONDED TABLE R-SQUARED SPACING: 0.0625
Info: NONBONDED TABLE SIZE: 705 POINTS
TCL: Running for 1500000 steps
ETITLE: TS BOND ANGLE DIHED IMPRP ELECT VDW BOUNDARY MISC KINETIC TOTAL TEMP POTENTIAL TOTALAVG TEMPAVG PRESSURE GPRESSURE VOLUME PRESSAVG GPRESSAVG
ENERGY: 0 5.9405 8.0388 12.1354 0.0000 -10598.5320 1324.6699 0.0000 0.0000 1801.0181 -7446.7294 303.8262 -9247.7474 -7446.7294 303.8262 -703.9207 -630.0631 30224.2625 -703.9207 -630.0631
ENERGY: 300000 4.9826 5.0477 8.0433 0.0000 -10785.9077 1499.5441 0.0000 0.0000 1773.8664 -7494.4236 299.2458 -9268.2900 -7469.0207 301.4928 382.1748 405.6182 30923.8644 -206.6745 -163.8671
ENERGY: 600000 3.7553 8.2746 10.2765 0.0000 -10691.0260 1432.1093 0.0000 0.0000 1798.0185 -7438.5919 303.3202 -9236.6104 -7487.6756 301.1054 -487.4588 -420.7537 31328.2990 -271.1007 -231.2628
ENERGY: 900000 2.4507 9.4878 9.2158 0.0000 -10714.6791 1380.3637 0.0000 0.0000 1775.2586 -7537.9024 299.4807 -9313.1611 -7500.2504 299.7844 -912.8993 -796.1021 30791.5298 -477.6487 -417.3757
ENERGY: 1200000 1.6959 4.1035 5.2972 0.0000 -10800.5140 1484.4292 0.0000 0.0000 1784.0914 -7520.8968 300.9707 -9304.9882 -7512.8579 299.6461 581.8378 636.7308 30020.3296 -325.7663 -275.9486
ENERGY: 1500000 2.0106 4.3487 9.3314 0.0000 -10600.0876 1319.2517 0.0000 0.0000 1734.4441 -7530.7011 292.5954 -9265.1452 -7515.5107 299.0947 -1069.3304 -1010.0377 30468.6556 -318.8351 -266.9865
TCL: Running FEP window   8: Lambda1 0.35   Lambda2 0.39999999999999997 [dLambda 0.04999999999999999]
TCL: Setting parameter firsttimestep to 0
TCL: Setting parameter alchLambda to 0.35
Info: NONBONDED TABLE R-SQUARED SPACING: 0.0625
Info: NONBONDED TABLE SIZE: 705 POINTS
TCL: Setting parameter alchLambda2 to 0.39999999999999997
Info: NONBONDED TABLE R-SQUARED SPACING: 0.0625
Info: NONBONDED TABLE SIZE: 705 POINTS
TCL: Running for 1500000 steps
ETITLE: TS BOND ANGLE DIHED IMPRP ELECT VDW BOUNDARY MISC KINETIC TOTAL TEMP POTENTIAL TOTALAVG TEMPAVG PRESSURE GPRESSURE VOLUME PRESSAVG GPRESSAVG
ENERGY: 0 2.0106 4.3487 9.3314 0.0000 -10600.0872 1320.6760 0.0000 0.0000 1733.5819 -7530.1387 292.4499 -9263.7205 -7530.1387 292.4499 -1083.5295 -996.9642 30468.6556 -1083.5295 -996.9642
ENERGY: 300000 1.5416 7.9565 10.4965 0.0000 -10865.0447 1540.4259 0.0000 0.0000 1786.3391 -7518.2850 301.3499 -9304.6242 -7501.2263 300.5987 713.2068 785.0444 30352.2950 -342.9665 -265.4459
ENERGY: 600000 3.5320 10.2540 8.0719 0.0000 -10724.9885 1492.8475 0.0000 0.0000 1787.9722 -7422.3109 301.6254 -9210.2831 -7495.8421 301.5499 585.3667 628.6091 30544.1847 -173.4876 -98.0725
ENERGY: 900000 3.7343 7.4225 10.3866 0.0000 -10712.4756 1408.8943 0.0000 0.0000 1826.8761 -7455.1617 308.1884 -9282.0379 -7488.6037 302.6344 -346.3474 -295.8245 30865.5652 -212.6285 -137.0425
ENERGY: 1200000 1.8904 5.2575 8.2566 0.0000 -10773.0027 1484.4514 0.0000 0.0000 1729.8669 -7543.2800 291.8232 -9273.1469 -7508.4048 302.1512 515.7813 547.5296 30269.3914 -85.7274 -14.6761
ENERGY: 1500000 3.2647 6.0734 8.8816 0.0000 -10802.2252 1475.1284 0.0000 0.0000 1757.3311 -7551.5460 296.4563 -9308.8771 -7523.8605 301.0814 83.5531 81.0031 30635.5559 -88.7592 -29.7118
TCL: Running FEP window   9: Lambda1 0.39999999999999997 Lambda2 0.44999999999999996 [dLambda 0.04999999999999999]
TCL: Setting parameter firsttimestep to 0
TCL: Setting parameter alchLambda to 0.39999999999999997
Info: NONBONDED TABLE R-SQUARED SPACING: 0.0625
Info: NONBONDED TABLE SIZE: 705 POINTS
TCL: Setting parameter alchLambda2 to 0.44999999999999996
Info: NONBONDED TABLE R-SQUARED SPACING: 0.0625
Info: NONBONDED TABLE SIZE: 705 POINTS
TCL: Running for 1500000 steps
ETITLE: TS BOND ANGLE DIHED IMPRP ELECT VDW BOUNDARY MISC KINETIC TOTAL TEMP POTENTIAL TOTALAVG TEMPAVG PRESSURE GPRESSURE VOLUME PRESSAVG GPRESSAVG
ENERGY: 0 3.2647 6.0734 8.8816 0.0000 -10802.2253 1474.7109 0.0000 0.0000 1756.4226 -7552.8721 296.3031 -9309.2947 -7552.8721 296.3031 2.8964 81.8677 30635.5559 2.8964 81.8677
ENERGY: 300000 2.6698 5.5964 11.7793 0.0000 -10783.5319 1491.4790 0.0000 0.0000 1803.5740 -7468.4334 304.2574 -9272.0074 -7519.1174 299.1714 869.8060 973.0601 30008.4881 180.7199 266.3060
ENERGY: 600000 1.9365 7.2692 10.4663 0.0000 -10806.3272 1485.6623 0.0000 0.0000 1809.3397 -7491.6532 305.2300 -9300.9930 -7526.1087 299.4579 395.7935 445.5056 30181.4375 206.3047 278.8134
ENERGY: 900000 4.0413 7.1918 4.9665 0.0000 -10854.1756 1473.5239 0.0000 0.0000 1790.0478 -7574.4042 301.9755 -9364.4521 -7535.4454 299.6714 206.1990 249.9121 30032.8943 48.6296 121.1799
ENERGY: 1200000 0.7403 7.0089 4.6303 0.0000 -10737.2633 1445.9042 0.0000 0.0000 1803.0410 -7475.9386 304.1675 -9278.9796 -7525.7557 299.6394 18.4091 114.7444 30512.4393 -60.3522 11.0040
ENERGY: 1500000 2.6458 6.0841 11.5928 0.0000 -10842.4520 1429.5106 0.0000 0.0000 1779.3006 -7613.3182 300.1625 -9392.6187 -7532.3514 298.7998 -500.2953 -406.9937 30544.3727 -104.3358 -29.4165
TCL: Running FEP window  10: Lambda1 0.44999999999999996 Lambda2 0.49999999999999994 [dLambda 0.04999999999999999]
TCL: Setting parameter firsttimestep to 0
TCL: Setting parameter alchLambda to 0.44999999999999996
Info: NONBONDED TABLE R-SQUARED SPACING: 0.0625
Info: NONBONDED TABLE SIZE: 705 POINTS
TCL: Setting parameter alchLambda2 to 0.49999999999999994
Info: NONBONDED TABLE R-SQUARED SPACING: 0.0625
Info: NONBONDED TABLE SIZE: 705 POINTS
TCL: Running for 1500000 steps
ETITLE: TS BOND ANGLE DIHED IMPRP ELECT VDW BOUNDARY MISC KINETIC TOTAL TEMP POTENTIAL TOTALAVG TEMPAVG PRESSURE GPRESSURE VOLUME PRESSAVG GPRESSAVG
ENERGY: 0 2.6458 6.0841 11.5928 0.0000 -10842.4520 1428.8458 0.0000 0.0000 1778.3674 -7614.9161 300.0051 -9393.2834 -7614.9161 300.0051 -499.3220 -404.6699 30544.3727 -499.3220 -404.6699
ENERGY: 300000 3.9501 7.2909 7.3748 0.0000 -10589.4264 1358.2442 0.0000 0.0000 1788.2442 -7424.3221 301.6713 -9212.5663 -7538.2663 300.0203 -626.4722 -619.2987 30908.8581 -168.9406 -123.8502
ENERGY: 600000 5.8173 5.5809 6.2352 0.0000 -10733.2676 1414.9540 0.0000 0.0000 1778.4089 -7522.2713 300.0121 -9300.6802 -7541.2216 299.2205 -120.9290 -143.6474 30330.3520 -28.7939 16.3365
ENERGY: 900000 3.4080 8.9386 6.1430 0.0000 -10793.8424 1462.1732 0.0000 0.0000 1789.1949 -7523.9846 301.8317 -9313.1795 -7524.6453 299.2002 61.4922 86.2581 30402.4203 -25.1491 20.3060
ENERGY: 1200000 1.9998 12.7113 9.5109 0.0000 -10651.5253 1413.7915 0.0000 0.0000 1745.6505 -7467.8612 294.4859 -9213.5118 -7514.3121 298.9519 -344.9455 -276.7796 30977.8982 -99.8607 -49.8588
ENERGY: 1500000 3.1421 6.9427 8.5527 0.0000 -10816.5819 1497.7382 0.0000 0.0000 1756.1758 -7544.0303 296.2614 -9300.2061 -7518.4345 297.9824 235.6678 315.0310 30534.5038 -52.4363 -1.1364
TCL: Running FEP window  11: Lambda1 0.49999999999999994 Lambda2 0.5499999999999999 [dLambda 0.04999999999999999]
TCL: Setting parameter firsttimestep to 0
TCL: Setting parameter alchLambda to 0.49999999999999994
Info: NONBONDED TABLE R-SQUARED SPACING: 0.0625
Info: NONBONDED TABLE SIZE: 705 POINTS
TCL: Setting parameter alchLambda2 to 0.5499999999999999
Info: NONBONDED TABLE R-SQUARED SPACING: 0.0625
Info: NONBONDED TABLE SIZE: 705 POINTS
TCL: Running for 1500000 steps
ETITLE: TS BOND ANGLE DIHED IMPRP ELECT VDW BOUNDARY MISC KINETIC TOTAL TEMP POTENTIAL TOTALAVG TEMPAVG PRESSURE GPRESSURE VOLUME PRESSAVG GPRESSAVG
ENERGY: 0 3.1421 6.9427 8.5527 0.0000 -10816.5821 1497.4006 0.0000 0.0000 1755.2884 -7545.2554 296.1117 -9300.5439 -7545.2554 296.1117 235.2209 315.3603 30534.5038 235.2209 315.3603
ENERGY: 300000 4.5054 6.7642 7.0012 0.0000 -10829.1539 1457.0380 0.0000 0.0000 1804.5073 -7549.3378 304.4148 -9353.8451 -7547.7117 297.0837 149.5236 270.6338 30234.1659 -128.8674 -42.4443
ENERGY: 600000 2.5346 7.1007 8.9389 0.0000 -10652.6701 1425.4020 0.0000 0.0000 1774.7145 -7433.9794 299.3889 -9208.6939 -7528.3763 297.9394 78.2314 154.1705 30671.5258 6.6569 97.7331
ENERGY: 900000 2.8437 5.2870 11.7779 0.0000 -10843.0499 1509.2374 0.0000 0.0000 1781.2044 -7532.6995 300.4837 -9313.9039 -7539.5570 296.6147 332.7341 398.6208 30575.4282 15.5132 94.3524
ENERGY: 1200000 4.1097 4.3110 7.7014 0.0000 -10795.4050 1539.8946 0.0000 0.0000 1754.4672 -7484.9212 295.9732 -9239.3885 -7533.8986 296.9737 873.8137 992.3337 30366.8561 68.6632 142.6399
ENERGY: 1500000 5.8061 6.0802 10.1538 0.0000 -10697.1294 1372.0077 0.0000 0.0000 1859.1129 -7443.9688 313.6266 -9303.0816 -7528.4996 298.2687 -683.4957 -610.9947 30414.2765 4.4676 75.0247
TCL: Running FEP window  12: Lambda1 0.5499999999999999 Lambda2 0.6    [dLambda 0.050000000000000044]
TCL: Setting parameter firsttimestep to 0
TCL: Setting parameter alchLambda to 0.5499999999999999
Info: NONBONDED TABLE R-SQUARED SPACING: 0.0625
Info: NONBONDED TABLE SIZE: 705 POINTS
TCL: Setting parameter alchLambda2 to 0.6
Info: NONBONDED TABLE R-SQUARED SPACING: 0.0625
Info: NONBONDED TABLE SIZE: 705 POINTS
TCL: Running for 1500000 steps
ETITLE: TS BOND ANGLE DIHED IMPRP ELECT VDW BOUNDARY MISC KINETIC TOTAL TEMP POTENTIAL TOTALAVG TEMPAVG PRESSURE GPRESSURE VOLUME PRESSAVG GPRESSAVG
ENERGY: 0 5.8061 6.0801 10.1538 0.0000 -10697.7548 1371.8906 0.0000 0.0000 1858.1949 -7445.6292 313.4718 -9303.8241 -7445.6292 313.4718 -686.7910 -601.0090 30414.2765 -686.7910 -601.0090
ENERGY: 300000 1.9959 8.4479 4.4118 0.0000 -10710.6781 1369.2265 0.0000 0.0000 1813.3973 -7513.1987 305.9145 -9326.5961 -7481.0423 303.4532 -634.5072 -562.6921 30721.3788 -440.5031 -381.4743
ENERGY: 600000 1.9035 10.2237 8.8448 0.0000 -10840.7099 1515.2955 0.0000 0.0000 1766.8638 -7537.5787 298.0645 -9304.4426 -7499.4608 301.8690 796.9423 869.6803 30374.0213 -281.8264 -224.5044
ENERGY: 900000 2.6511 9.0775 9.8999 0.0000 -10760.1878 1397.7690 0.0000 0.0000 1782.7673 -7558.0231 300.7473 -9340.7904 -7510.4852 300.4796 -693.0375 -588.0796 30648.8710 -301.1010 -246.3349
ENERGY: 1200000 5.8293 9.4433 7.1340 0.0000 -10775.0805 1491.5901 0.0000 0.0000 1803.8624 -7457.2214 304.3060 -9261.0838 -7516.3201 300.6135 432.9390 469.7201 30372.3011 -270.9050 -210.4376
ENERGY: 1500000 2.4586 4.1590 8.5877 0.0000 -10943.2219 1564.6417 0.0000 0.0000 1801.9278 -7561.4470 303.9797 -9363.3749 -7513.9198 301.7914 1039.6680 1149.7993 29925.6547 -219.4669 -160.3537
TCL: Running FEP window  13: Lambda1 0.6    Lambda2 0.65   [dLambda 0.050000000000000044]
TCL: Setting parameter firsttimestep to 0
TCL: Setting parameter alchLambda to 0.6
Info: NONBONDED TABLE R-SQUARED SPACING: 0.0625
Info: NONBONDED TABLE SIZE: 705 POINTS
TCL: Setting parameter alchLambda2 to 0.65
Info: NONBONDED TABLE R-SQUARED SPACING: 0.0625
Info: NONBONDED TABLE SIZE: 705 POINTS
TCL: Running for 1500000 steps
ETITLE: TS BOND ANGLE DIHED IMPRP ELECT VDW BOUNDARY MISC KINETIC TOTAL TEMP POTENTIAL TOTALAVG TEMPAVG PRESSURE GPRESSURE VOLUME PRESSAVG GPRESSAVG
ENERGY: 0 2.4586 4.1590 8.5877 0.0000 -10943.0328 1565.2895 0.0000 0.0000 1801.0230 -7561.5150 303.8270 -9362.5380 -7561.5150 303.8270 1068.4347 1163.8579 29925.6547 1068.4347 1163.8579
ENERGY: 300000 2.5981 10.2408 8.2899 0.0000 -10805.6842 1407.4752 0.0000 0.0000 1807.3462 -7569.7338 304.8937 -9377.0800 -7523.0565 300.3609 -484.8701 -458.9728 30077.6954 -28.5546 44.8628
ENERGY: 600000 1.4881 8.0590 7.0706 0.0000 -10757.9599 1451.8680 0.0000 0.0000 1764.1903 -7525.2839 297.6135 -9289.4743 -7510.0811 301.1335 94.2334 135.4011 30455.3186 99.5098 147.8005
ENERGY: 900000 2.0389 10.6694 3.3313 0.0000 -10795.0735 1460.3112 0.0000 0.0000 1781.6211 -7537.1016 300.5540 -9318.7227 -7506.9930 301.4532 210.4369 237.7359 30427.2437 -7.5988 43.6806
ENERGY: 1200000 3.6508 10.0390 5.3682 0.0000 -10912.1132 1473.6303 0.0000 0.0000 1792.4670 -7626.9579 302.3836 -9419.4248 -7505.6045 301.8206 -63.9944 53.6045 30296.4666 -71.9452 -13.9503
ENERGY: 1500000 3.2593 5.4729 8.1047 0.0000 -10786.5560 1459.8971 0.0000 0.0000 1735.7337 -7574.0883 292.8129 -9309.8219 -7516.0786 300.4422 117.5735 153.3925 30649.5565 -95.0518 -41.2842
TCL: Running FEP window  14: Lambda1 0.65   Lambda2 0.7000000000000001 [dLambda 0.050000000000000044]
TCL: Setting parameter firsttimestep to 0
TCL: Setting parameter alchLambda to 0.65
Info: NONBONDED TABLE R-SQUARED SPACING: 0.0625
Info: NONBONDED TABLE SIZE: 705 POINTS
TCL: Setting parameter alchLambda2 to 0.7000000000000001
Info: NONBONDED TABLE R-SQUARED SPACING: 0.0625
Info: NONBONDED TABLE SIZE: 705 POINTS
TCL: Running for 1500000 steps
ETITLE: TS BOND ANGLE DIHED IMPRP ELECT VDW BOUNDARY MISC KINETIC TOTAL TEMP POTENTIAL TOTALAVG TEMPAVG PRESSURE GPRESSURE VOLUME PRESSAVG GPRESSAVG
ENERGY: 0 3.2593 5.4729 8.1047 0.0000 -10786.9981 1459.7125 0.0000 0.0000 1734.8008 -7575.6479 292.6555 -9310.4487 -7575.6479 292.6555 71.4974 156.6320 30649.5565 71.4974 156.6320
ENERGY: 300000 2.8662 8.5316 8.8362 0.0000 -10608.9638 1336.4179 0.0000 0.0000 1720.9353 -7531.3768 290.3165 -9252.3121 -7551.1534 294.4956 -807.1191 -749.6436 30827.8522 -241.4266 -162.1043
ENERGY: 600000 3.9373 5.6541 9.3378 0.0000 -10776.4771 1413.8074 0.0000 0.0000 1741.5613 -7602.1791 293.7960 -9343.7404 -7529.7264 296.6322 -636.7332 -576.0213 30878.8565 -356.6273 -279.0197
ENERGY: 900000 6.0496 7.3107 5.4592 0.0000 -10691.9841 1448.4422 0.0000 0.0000 1801.2685 -7423.4539 303.8684 -9224.7225 -7524.8611 297.7096 -11.2042 87.0516 30975.6393 -274.9250 -201.7461
ENERGY: 1200000 4.3832 11.7855 5.8074 0.0000 -10774.8679 1440.1561 0.0000 0.0000 1763.6349 -7549.1008 297.5198 -9312.7357 -7532.9827 297.7998 -327.9741 -297.4610 30762.9391 -176.6795 -108.0536
ENERGY: 1500000 3.0947 3.5278 8.6772 0.0000 -10714.4098 1378.0594 0.0000 0.0000 1816.5271 -7504.5237 306.4425 -9321.0508 -7527.2499 298.7822 -705.0043 -618.8127 30836.3697 -258.5174 -188.3271
TCL: Running FEP window  15: Lambda1 0.7000000000000001 Lambda2 0.7500000000000001 [dLambda 0.050000000000000044]
TCL: Setting parameter firsttimestep to 0
TCL: Setting parameter alchLambda to 0.7000000000000001
Info: NONBONDED TABLE R-SQUARED SPACING: 0.0625
Info: NONBONDED TABLE SIZE: 705 POINTS
TCL: Setting parameter alchLambda2 to 0.7500000000000001
Info: NONBONDED TABLE R-SQUARED SPACING: 0.0625
Info: NONBONDED TABLE SIZE: 705 POINTS
TCL: Running for 1500000 steps
ETITLE: TS BOND ANGLE DIHED IMPRP ELECT VDW BOUNDARY MISC KINETIC TOTAL TEMP POTENTIAL TOTALAVG TEMPAVG PRESSURE GPRESSURE VOLUME PRESSAVG GPRESSAVG
ENERGY: 0 3.0947 3.5278 8.6772 0.0000 -10715.2051 1378.8810 0.0000 0.0000 1815.6339 -7505.3906 306.2918 -9321.0245 -7505.3906 306.2918 -685.1093 -602.6831 30836.3697 -685.1093 -602.6831
ENERGY: 300000 2.1087 5.8170 6.7069 0.0000 -10847.4374 1436.7575 0.0000 0.0000 1763.1881 -7632.8591 297.4444 -9396.0472 -7509.8609 301.8611 -418.7425 -404.5443 30603.9692 -192.3702 -131.1814
ENERGY: 600000 3.2414 9.5126 7.4516 0.0000 -10578.2087 1407.9364 0.0000 0.0000 1748.3836 -7401.6832 294.9469 -9150.0667 -7490.4901 301.3134 126.0448 131.0225 30964.9936 -109.4083 -60.6090
ENERGY: 900000 1.0127 6.9918 9.0406 0.0000 -10686.0268 1363.8127 0.0000 0.0000 1781.5735 -7523.5954 300.5460 -9305.1689 -7497.0005 301.9701 -847.8169 -789.8250 31140.0769 -211.2450 -170.2810
ENERGY: 1200000 3.5077 8.3319 5.7345 0.0000 -10745.0314 1463.2066 0.0000 0.0000 1792.3276 -7471.9232 302.3601 -9264.2508 -7498.9742 301.4993 35.1591 76.7922 31212.4951 -239.5431 -193.5652
ENERGY: 1500000 3.7251 5.0668 9.2339 0.0000 -10653.6453 1362.1542 0.0000 0.0000 1780.8335 -7492.6317 300.4211 -9273.4652 -7511.8843 300.8784 -700.8368 -682.2170 30946.9916 -273.6050 -229.1561
TCL: Running FEP window  16: Lambda1 0.7500000000000001 Lambda2 0.8000000000000002 [dLambda 0.050000000000000044]
TCL: Setting parameter firsttimestep to 0
TCL: Setting parameter alchLambda to 0.7500000000000001
Info: NONBONDED TABLE R-SQUARED SPACING: 0.0625
Info: NONBONDED TABLE SIZE: 705 POINTS
TCL: Setting parameter alchLambda2 to 0.8000000000000002
Info: NONBONDED TABLE R-SQUARED SPACING: 0.0625
Info: NONBONDED TABLE SIZE: 705 POINTS
TCL: Running for 1500000 steps
ETITLE: TS BOND ANGLE DIHED IMPRP ELECT VDW BOUNDARY MISC KINETIC TOTAL TEMP POTENTIAL TOTALAVG TEMPAVG PRESSURE GPRESSURE VOLUME PRESSAVG GPRESSAVG
ENERGY: 0 3.7251 5.0668 9.2339 0.0000 -10654.8456 1362.3675 0.0000 0.0000 1779.9758 -7494.4765 300.2764 -9274.4522 -7494.4765 300.2764 -755.6175 -671.5586 30946.9916 -755.6175 -671.5586
ENERGY: 300000 5.5871 5.1757 9.1335 0.0000 -10761.2152 1419.2424 0.0000 0.0000 1807.6704 -7514.4062 304.9484 -9322.0766 -7462.8960 302.5939 -349.3667 -262.1054 30682.4147 -548.2095 -473.6192
ENERGY: 600000 2.2427 6.5530 7.7876 0.0000 -10850.9599 1513.0065 0.0000 0.0000 1741.9800 -7579.3900 293.8667 -9321.3701 -7488.3330 301.4637 435.7386 528.8414 30646.2300 -494.5901 -417.3570
ENERGY: 900000 3.2652 4.9660 7.6817 0.0000 -10749.7266 1444.3563 0.0000 0.0000 1762.4076 -7527.0497 297.3127 -9289.4573 -7509.1782 299.2826 -257.6745 -168.6239 30806.8626 -304.9423 -229.5844
ENERGY: 1200000 2.5611 7.8045 11.1113 0.0000 -10652.9793 1367.9313 0.0000 0.0000 1799.8919 -7463.6793 303.6362 -9263.5711 -7505.5096 299.7059 -642.1754 -593.2128 31069.1868 -247.5473 -177.7877
ENERGY: 1500000 4.0454 9.8608 5.7211 0.0000 -10981.4338 1520.3862 0.0000 0.0000 1804.5643 -7636.8560 304.4244 -9441.4203 -7522.9041 299.1626 147.8691 248.2940 30456.9985 -232.5239 -159.1528
TCL: Running FEP window  17: Lambda1 0.8000000000000002 Lambda2 0.8500000000000002 [dLambda 0.050000000000000044]
TCL: Setting parameter firsttimestep to 0
TCL: Setting parameter alchLambda to 0.8000000000000002
Info: NONBONDED TABLE R-SQUARED SPACING: 0.0625
Info: NONBONDED TABLE SIZE: 705 POINTS
TCL: Setting parameter alchLambda2 to 0.8500000000000002
Info: NONBONDED TABLE R-SQUARED SPACING: 0.0625
Info: NONBONDED TABLE SIZE: 705 POINTS
TCL: Running for 1500000 steps
ETITLE: TS BOND ANGLE DIHED IMPRP ELECT VDW BOUNDARY MISC KINETIC TOTAL TEMP POTENTIAL TOTALAVG TEMPAVG PRESSURE GPRESSURE VOLUME PRESSAVG GPRESSAVG
ENERGY: 0 4.0454 9.8608 5.7211 0.0000 -10982.4097 1520.9175 0.0000 0.0000 1803.6780 -7638.1869 304.2749 -9441.8649 -7638.1869 304.2749 172.0785 265.4349 30456.9985 172.0785 265.4349
ENERGY: 300000 1.5447 5.6305 9.9311 0.0000 -10612.5579 1362.0196 0.0000 0.0000 1776.7056 -7456.7264 299.7248 -9233.4320 -7522.1583 301.6950 -367.4318 -246.2969 30419.3505 -325.6178 -222.5781
ENERGY: 600000 6.8368 9.5536 12.7793 0.0000 -10835.3992 1474.6268 0.0000 0.0000 1733.1795 -7598.4234 292.3820 -9331.6028 -7530.4785 300.3717 -223.0883 -164.3520 30703.0732 -95.2466 4.9071
ENERGY: 900000 3.4119 7.7509 7.2258 0.0000 -10803.5499 1507.8183 0.0000 0.0000 1762.2475 -7515.0956 297.2857 -9277.3431 -7522.3805 300.5181 792.5572 939.0817 30141.5042 12.2581 112.4027
ENERGY: 1200000 3.7586 3.6519 5.7741 0.0000 -10770.3082 1426.0568 0.0000 0.0000 1768.8903 -7562.1765 298.4063 -9331.0668 -7521.6573 299.2758 -237.6903 -183.3057 30515.0645 -84.0820 12.1772
ENERGY: 1500000 3.4893 8.1980 6.3434 0.0000 -10828.7327 1481.4793 0.0000 0.0000 1840.9859 -7488.2368 310.5686 -9329.2227 -7526.2305 299.2520 313.3930 360.4728 30265.3317 -57.2911 33.5629
TCL: Running FEP window  18: Lambda1 0.8500000000000002 Lambda2 0.9000000000000002 [dLambda 0.050000000000000044]
TCL: Setting parameter firsttimestep to 0
TCL: Setting parameter alchLambda to 0.8500000000000002
Info: NONBONDED TABLE R-SQUARED SPACING: 0.0625
Info: NONBONDED TABLE SIZE: 705 POINTS
TCL: Setting parameter alchLambda2 to 0.9000000000000002
Info: NONBONDED TABLE R-SQUARED SPACING: 0.0625
Info: NONBONDED TABLE SIZE: 705 POINTS
TCL: Running for 1500000 steps
ETITLE: TS BOND ANGLE DIHED IMPRP ELECT VDW BOUNDARY MISC KINETIC TOTAL TEMP POTENTIAL TOTALAVG TEMPAVG PRESSURE GPRESSURE VOLUME PRESSAVG GPRESSAVG
ENERGY: 0 3.4894 8.1980 6.3434 0.0000 -10829.6931 1481.8658 0.0000 0.0000 1840.1079 -7489.6887 310.4205 -9329.7966 -7489.6887 310.4205 313.7995 381.4653 30265.3317 313.7995 381.4653
ENERGY: 300000 1.3578 6.5386 11.3342 0.0000 -10793.4579 1524.3979 0.0000 0.0000 1784.9811 -7464.8483 301.1208 -9249.8294 -7504.1137 302.4868 533.1828 582.5463 31159.9300 216.6128 256.7119
ENERGY: 600000 5.1102 8.6288 11.0960 0.0000 -10930.3643 1630.6547 0.0000 0.0000 1852.0245 -7422.8502 312.4308 -9274.8747 -7489.7734 303.9116 1285.3733 1398.6035 30928.4044 230.7806 306.0960
ENERGY: 900000 2.5007 8.3034 5.5776 0.0000 -10920.7336 1531.6700 0.0000 0.0000 1769.3034 -7603.3784 298.4760 -9372.6818 -7524.1268 302.3781 520.2848 558.5835 30410.4580 309.5776 370.8939
ENERGY: 1200000 2.1131 7.1865 4.6976 0.0000 -10818.1647 1441.0943 0.0000 0.0000 1732.7183 -7630.3548 292.3042 -9363.0731 -7530.2509 301.5585 -269.5255 -183.6501 30462.0726 124.0924 182.3022
ENERGY: 1500000 5.8846 6.9294 6.5049 0.0000 -10688.0743 1384.0508 0.0000 0.0000 1785.9269 -7498.7778 301.2803 -9284.7046 -7517.7114 301.9663 -645.2559 -566.2428 31105.5014 43.4308 107.9326
TCL: Running FEP window  19: Lambda1 0.9000000000000002 Lambda2 0.9500000000000003 [dLambda 0.050000000000000044]
TCL: Setting parameter firsttimestep to 0
TCL: Setting parameter alchLambda to 0.9000000000000002
Info: NONBONDED TABLE R-SQUARED SPACING: 0.0625
Info: NONBONDED TABLE SIZE: 705 POINTS
TCL: Setting parameter alchLambda2 to 0.9500000000000003
Info: NONBONDED TABLE R-SQUARED SPACING: 0.0625
Info: NONBONDED TABLE SIZE: 705 POINTS
TCL: Running for 1500000 steps
ETITLE: TS BOND ANGLE DIHED IMPRP ELECT VDW BOUNDARY MISC KINETIC TOTAL TEMP POTENTIAL TOTALAVG TEMPAVG PRESSURE GPRESSURE VOLUME PRESSAVG GPRESSAVG
ENERGY: 0 5.8846 6.9294 6.5049 0.0000 -10689.5175 1384.0174 0.0000 0.0000 1785.0385 -7501.1426 301.1305 -9286.1811 -7501.1426 301.1305 -635.2649 -558.1102 31105.5014 -635.2649 -558.1102
ENERGY: 300000 5.2182 6.1665 8.4942 0.0000 -10867.9141 1509.6984 0.0000 0.0000 1822.8147 -7515.5222 307.5032 -9338.3369 -7517.9994 301.3387 386.8530 432.3961 30562.9856 -51.1701 -6.4188
ENERGY: 600000 2.1883 5.9841 8.1034 0.0000 -10774.4658 1445.8309 0.0000 0.0000 1775.0800 -7537.2791 299.4505 -9312.3591 -7515.3656 301.4922 -12.6073 30.5495 30847.3341 -157.1003 -114.7034
ENERGY: 900000 4.7086 9.5168 9.5562 0.0000 -10700.3777 1458.2205 0.0000 0.0000 1708.0844 -7510.2912 288.1486 -9218.3756 -7535.4313 299.4180 49.0208 103.1549 30707.3237 -99.9933 -65.7065
ENERGY: 1200000 1.8342 8.2840 7.4566 0.0000 -10722.3555 1398.7162 0.0000 0.0000 1737.6125 -7568.4519 293.1299 -9306.0644 -7539.3693 298.5544 -134.6117 -104.8363 30485.0618 -141.9023 -100.7134
ENERGY: 1500000 1.7324 7.9648 10.9166 0.0000 -10751.8087 1438.6832 0.0000 0.0000 1754.4982 -7538.0135 295.9784 -9292.5117 -7537.7649 299.3599 -207.3418 -218.2329 31054.2893 -144.7697 -98.7611
TCL: Running FEP window  20: Lambda1 0.9500000000000003 Lambda2 1.0    [dLambda 0.04999999999999971]
TCL: Setting parameter firsttimestep to 0
TCL: Setting parameter alchLambda to 0.9500000000000003
Info: NONBONDED TABLE R-SQUARED SPACING: 0.0625
Info: NONBONDED TABLE SIZE: 705 POINTS
TCL: Setting parameter alchLambda2 to 1.0
Info: NONBONDED TABLE R-SQUARED SPACING: 0.0625
Info: NONBONDED TABLE SIZE: 705 POINTS
TCL: Running for 1500000 steps
ETITLE: TS BOND ANGLE DIHED IMPRP ELECT VDW BOUNDARY MISC KINETIC TOTAL TEMP POTENTIAL TOTALAVG TEMPAVG PRESSURE GPRESSURE VOLUME PRESSAVG GPRESSAVG
ENERGY: 0 1.7324 7.9648 10.9166 0.0000 -10752.9477 1438.3587 0.0000 0.0000 1753.6350 -7540.3402 295.8328 -9293.9752 -7540.3402 295.8328 -295.1555 -215.2963 31054.2893 -295.1555 -215.2963
ENERGY: 300000 3.6282 5.2763 8.7562 0.0000 -10807.9088 1447.3609 0.0000 0.0000 1780.8519 -7562.0353 300.4242 -9342.8872 -7542.9268 297.8917 -160.0526 -51.3224 30707.3448 -116.9731 -44.1955
ENERGY: 600000 3.1869 6.8677 4.3482 0.0000 -10625.7886 1352.7469 0.0000 0.0000 1735.1224 -7523.5164 292.7098 -9258.6388 -7518.2423 298.2217 -797.1306 -740.8752 30947.3656 -93.3163 -32.9036
ENERGY: 900000 8.3850 10.8934 9.6112 0.0000 -10772.1655 1432.9776 0.0000 0.0000 1755.0780 -7555.2202 296.0762 -9310.2982 -7509.6040 297.8980 -496.5991 -359.7414 31330.9141 -40.2987 29.9946
ENERGY: 1200000 4.0845 6.4367 3.6525 0.0000 -10739.8803 1391.6056 0.0000 0.0000 1772.8451 -7561.2558 299.0735 -9334.1009 -7521.5228 297.9610 -561.9384 -576.1220 30699.9012 -33.1432 21.9429
ENERGY: 1500000 5.5058 8.8215 6.3501 0.0000 -10673.7193 1409.1686 0.0000 0.0000 1830.3427 -7413.5306 308.7732 -9243.8733 -7517.5009 298.6841 -432.9787 -330.4369 31297.1995 -39.5669 15.7795
TCL: Exiting due to exit command.
