Info: SIMULATION PARAMETERS:
Info: TIMESTEP               2
Info: NUMBER OF STEPS        0
Info: STEPS PER CYCLE        10
Info: PERIODIC CELL BASIS 1  31.6131 0 0
Info: PERIODIC CELL BASIS 2  0 28.3259 0
Info: PERIODIC CELL BASIS 3  0 0 33.8055
Info: PERIODIC CELL CENTER   0 0 0
Info: WRAPPING WATERS AROUND PERIODIC BOUNDARIES ON OUTPUT.
Info: WRAPPING ALL CLUSTERS AROUND PERIODIC BOUNDARIES ON OUTPUT.
Info: FIRST LDB TIMESTEP     50
Info: LAST LDB TIMESTEP     -1
Info: HOM BACKGROUND SCALING 1
Info: PME BACKGROUND SCALING 1
Info: MIN ATOMS PER PATCH    40
Info: EMPTY PATCH LOAD       40 ATOMS
Info: VELOCITY FILE          mobley_2341732_equil.vel
Info: CENTER OF MASS MOVING INITIALLY? NO
Info: DIELECTRIC             1
Info: EXCLUDE                SCALED ONE-FOUR
Info: 1-4 ELECTROSTATICS SCALED BY 0.833333
Info: MODIFIED 1-4 VDW PARAMETERS WILL BE USED
Info: DCD FILENAME           mobley_2341732_prod.dcd
Info: DCD FREQUENCY          100000
Info: DCD FIRST STEP         100000
Info: DCD FILE WILL CONTAIN UNIT CELL DATA
Info: XST FILENAME           mobley_2341732_prod.xst
Info: XST FREQUENCY          100000
Info: NO VELOCITY DCD OUTPUT
Info: NO FORCE DCD OUTPUT
Info: OUTPUT FILENAME        mobley_2341732_prod
Info: BINARY OUTPUT FILES WILL BE USED
Info: RESTART FILENAME       mobley_2341732_prod.restart
Info: RESTART FREQUENCY      100000
Info: BINARY RESTART FILES WILL BE USED
Info: CUTOFF                 9
Info: PAIRLIST DISTANCE      11
Info: PAIRLIST SHRINK RATE   0.01
Info: PAIRLIST GROW RATE     0.01
Info: PAIRLIST TRIGGER       0.3
Info: PAIRLISTS PER CYCLE    2
Info: PAIRLISTS ENABLED
Info: MARGIN                 2
Info: HYDROGEN GROUP CUTOFF  2.5
Info: PATCH DIMENSION        15.5
Info: ENERGY OUTPUT STEPS    100000
Info: ENERGY EVALUATION STEPS    100000
Info: OUTPUT ENERGY PRECISION 4
Info: CROSSTERM ENERGY INCLUDED IN DIHEDRAL
Info: TIMING OUTPUT STEPS    1000000
Info: PRESSURE OUTPUT STEPS  100000
Info: ALCHEMICAL FEP ON
Info: FEP CURRENT LAMBDA VALUE     1
Info: FEP COMPARISON LAMBDA VALUE  0.95
Info: FEP INTRA-ALCHEMICAL NON-BONDED INTERACTIONS WILL BE RETAINED
Info: FEP INTRA-ALCHEMICAL BONDED INTERACTIONS WILL BE RETAINED
Info: FEP VDW SHIFTING COEFFICIENT 5
Info: FEP ELEC. ACTIVE FOR ANNIHILATED PARTICLES BETWEEN LAMBDA = 0 AND LAMBDA = 0.5
Info: FEP ELEC. ACTIVE FOR EXNIHILATED PARTICLES BETWEEN LAMBDA = 0.5 AND LAMBDA = 1
Info: FEP VDW ACTIVE FOR ANNIHILATED PARTICLES BETWEEN LAMBDA = 0 AND LAMBDA = 1
Info: FEP VDW ACTIVE FOR EXNIHILATED PARTICLES BETWEEN LAMBDA = 0 AND LAMBDA = 1
Info: FEP BOND ACTIVE FOR ANNIHILATED PARTICLES BETWEEN LAMBDA = 1 AND LAMBDA = 1
Info: FEP BOND ACTIVE FOR EXNIHILATED PARTICLES BETWEEN LAMBDA = 0 AND LAMBDA = 0
Info: LANGEVIN DYNAMICS ACTIVE
Info: LANGEVIN TEMPERATURE   300
Info: LANGEVIN USING BBK INTEGRATOR
Info: LANGEVIN DAMPING COEFFICIENT IS 1 INVERSE PS
Info: LANGEVIN DYNAMICS APPLIED TO HYDROGENS
Info: LANGEVIN PISTON PRESSURE CONTROL ACTIVE
Info:        TARGET PRESSURE IS 1.01325 BAR
Info:     OSCILLATION PERIOD IS 50 FS
Info:             DECAY TIME IS 25 FS
Info:     PISTON TEMPERATURE IS 300 K
Info:       PRESSURE CONTROL IS GROUP-BASED
Info:    INITIAL STRAIN RATE IS -0.00025709 -0.00025709 -0.00025709
Info:       CELL FLUCTUATION IS ISOTROPIC
Info: PARTICLE MESH EWALD (PME) ACTIVE
Info: PME TOLERANCE               1e-06
Info: PME EWALD COEFFICIENT       0.348832
Info: PME INTERPOLATION ORDER     4
Info: PME GRID DIMENSIONS         32 32 36
Info: PME MAXIMUM GRID SPACING    1
Info: PME CALCULATION WILL BE PERFORMED ON GPU
Info: FULL ELECTROSTATIC EVALUATION FREQUENCY      2
Info: USING VERLET I (r-RESPA) MTS SCHEME.
Info: C1 SPLITTING OF LONG RANGE ELECTROSTATICS
Info: PLACING ATOMS IN PATCHES BY HYDROGEN GROUPS
Info: RIGID BONDS TO HYDROGEN : ALL
Info:         ERROR TOLERANCE : 1e-08
Info:          MAX ITERATIONS : 100
Info: RIGID WATER USING SETTLE ALGORITHM
Info: RANDOM NUMBER SEED     1743923385
Info: USE HYDROGEN BONDS?    NO
Info: Using AMBER format force field!
Info: AMBER PARM FILE        mobley_2341732.prmtop
Info: COORDINATE PDB         mobley_2341732.pdb
Info: Exclusions will be read from PARM file!
Info: SCNB (VDW SCALING)     2
Info: USING ARITHMETIC MEAN TO COMBINE L-J SIGMA PARAMETERS
Info: BINARY COORDINATES     mobley_2341732_equil.coor
Info: SUMMARY OF PARAMETERS:
Info: 9 BONDS
Info: 11 ANGLES
Info:   11 HARMONIC
Info:   0 COSINE-BASED
Info: 16 DIHEDRAL
Info: 0 IMPROPER
Info: 0 CROSSTERM
Info: 0 VDW
Info: 36 VDW_PAIRS
Info: 0 NBTHOLE_PAIRS
Info: To read alchdata from file: mobley_2341732.pdb
Info: To read alchflag data from column: 5
Info: STRUCTURE SUMMARY:
Info: 2960 ATOMS
Info: 2959 BONDS
Info: 34 ANGLES
Info: 48 DIHEDRALS
Info: 0 IMPROPERS
Info: 0 CROSSTERMS
Info: 3031 EXCLUSIONS
Info: 2952 RIGID BONDS
Info: ALCH: 0 ATOMS TO DISAPPEAR IN FINAL STATE
Info: ALCH: 20 ATOMS TO APPEAR IN FINAL STATE
Info: 5928 DEGREES OF FREEDOM
Info: 988 HYDROGEN GROUPS
Info: 4 ATOMS IN LARGEST HYDROGEN GROUP
Info: 988 MIGRATION GROUPS
Info: 4 ATOMS IN LARGEST MIGRATION GROUP
Info: TOTAL MASS = 17771.8 amu
Info: TOTAL CHARGE = -9.99682e-05 e
Info: MASS DENSITY = 0.974885 g/cm^3
Info: ATOM DENSITY = 0.0977808 atoms/A^3
Info: ADDED 0 IMPLICIT EXCLUSIONS
Info: NONBONDED TABLE R-SQUARED SPACING: 0.0625
Info: NONBONDED TABLE SIZE: 705 POINTS
Info: REMOVING COM VELOCITY -0.171373 0.20741 -0.0687498
Info: Use 3D box decompostion in PME FFT.
Info: Updated CUDA force table with 4096 elements.
Info: Updated CUDA LJ table with 8 x 8 elements.
Info: Found 23 unique exclusion lists needing 64 bytes
TCL: Running for 1500000 steps
ETITLE: TS BOND ANGLE DIHED IMPRP ELECT VDW BOUNDARY MISC KINETIC TOTAL TEMP POTENTIAL TOTALAVG TEMPAVG PRESSURE GPRESSURE VOLUME PRESSAVG GPRESSAVG
ENERGY: 0 2.6672 5.4156 2.9599 0.0000 -10717.7174 1465.8442 0.0000 0.0000 1758.0012 -7482.8293 298.4705 -9240.8305 -7482.8293 298.4705 225.6735 316.0916 30271.7883 225.6735 316.0916
ENERGY: 300000 3.4765 7.7978 2.8428 0.0000 -10652.9436 1401.4329 0.0000 0.0000 1736.0583 -7501.3353 294.7450 -9237.3936 -7519.6447 297.8506 -80.5593 -48.7322 30043.6583 138.5114 193.3573
ENERGY: 600000 4.0226 5.9357 3.4562 0.0000 -10791.0052 1500.2695 0.0000 0.0000 1783.6756 -7493.6456 302.8294 -9277.3212 -7514.4036 298.8909 695.9148 733.9942 30319.3890 -23.7080 27.6400
ENERGY: 900000 1.2095 9.1715 4.3445 0.0000 -10706.8819 1458.3504 0.0000 0.0000 1751.7086 -7482.0974 297.4021 -9233.8060 -7509.0582 298.4400 177.0208 245.9810 30619.9717 72.0007 130.0270
ENERGY: 1200000 2.3426 7.1101 2.4236 0.0000 -10855.9476 1460.6431 0.0000 0.0000 1761.1572 -7622.2711 299.0063 -9383.4282 -7516.4074 298.8846 -83.6007 -54.3020 30239.5597 -77.3897 -26.7356
ENERGY: 1500000 1.9946 8.2596 3.1364 0.0000 -10856.2868 1568.4788 0.0000 0.0000 1775.2047 -7499.2127 301.3912 -9274.4174 -7521.4281 298.2960 1083.9975 1191.8670 30161.0002 -51.1989 3.0161
TCL: Running FEP window   2: Lambda1 0.95   Lambda2 0.8999999999999999 [dLambda -0.050000000000000044]
TCL: Setting parameter firsttimestep to 0
TCL: Setting parameter alchLambda to 0.95
Info: NONBONDED TABLE R-SQUARED SPACING: 0.0625
Info: NONBONDED TABLE SIZE: 705 POINTS
TCL: Setting parameter alchLambda2 to 0.8999999999999999
Info: NONBONDED TABLE R-SQUARED SPACING: 0.0625
Info: NONBONDED TABLE SIZE: 705 POINTS
TCL: Running for 1500000 steps
ETITLE: TS BOND ANGLE DIHED IMPRP ELECT VDW BOUNDARY MISC KINETIC TOTAL TEMP POTENTIAL TOTALAVG TEMPAVG PRESSURE GPRESSURE VOLUME PRESSAVG GPRESSAVG
ENERGY: 0 1.9946 8.2596 3.1364 0.0000 -10855.2557 1568.4913 0.0000 0.0000 1774.3692 -7499.0046 301.2494 -9273.3738 -7499.0046 301.2494 1087.9750 1177.7662 30161.0002 1087.9750 1177.7662
ENERGY: 300000 5.0947 8.5993 3.1633 0.0000 -10644.1038 1386.4566 0.0000 0.0000 1707.4438 -7533.3461 289.8869 -9240.7900 -7495.7734 294.8151 -299.5508 -272.9062 30399.9707 7.5520 71.9304
ENERGY: 600000 1.3353 7.6440 3.3602 0.0000 -10811.7862 1525.9337 0.0000 0.0000 1736.1750 -7537.3379 294.7648 -9273.5130 -7500.8288 296.8663 840.2689 952.3503 30459.4141 -74.7289 -19.7825
ENERGY: 900000 0.6380 11.7964 2.4852 0.0000 -10692.3399 1454.2299 0.0000 0.0000 1804.1192 -7419.0712 306.3003 -9223.1904 -7479.2209 299.7221 171.4575 241.2106 30555.9665 -176.9085 -114.6479
ENERGY: 1200000 1.7711 8.0587 4.3752 0.0000 -10839.8155 1509.6252 0.0000 0.0000 1724.3866 -7591.5987 292.7634 -9315.9852 -7480.3981 300.2313 566.1383 602.2945 29942.7097 -144.4371 -84.1097
ENERGY: 1500000 1.8475 7.5513 3.6793 0.0000 -10679.4180 1393.2452 0.0000 0.0000 1781.6980 -7491.3967 302.4937 -9273.0947 -7490.7412 299.9621 -613.7765 -541.4784 31014.3319 -55.0149 9.7162
TCL: Running FEP window   3: Lambda1 0.8999999999999999 Lambda2 0.8499999999999999 [dLambda -0.050000000000000044]
TCL: Setting parameter firsttimestep to 0
TCL: Setting parameter alchLambda to 0.8999999999999999
Info: NONBONDED TABLE R-SQUARED SPACING: 0.0625
Info: NONBONDED TABLE SIZE: 705 POINTS
TCL: Setting parameter alchLambda2 to 0.8499999999999999
Info: NONBONDED TABLE R-SQUARED SPACING: 0.0625
Info: NONBONDED TABLE SIZE: 705 POINTS
TCL: Running for 1500000 steps
ETITLE: TS BOND ANGLE DIHED IMPRP ELECT VDW BOUNDARY MISC KINETIC TOTAL TEMP POTENTIAL TOTALAVG TEMPAVG PRESSURE GPRESSURE VOLUME PRESSAVG GPRESSAVG
ENERGY: 0 1.8475 7.5513 3.6793 0.0000 -10678.2571 1392.7681 0.0000 0.0000 1780.7924 -7491.6184 302.3399 -9272.4108 -7491.6184 302.3399 -641.0021 -560.4962 31014.3319 -641.0021 -560.4962
ENERGY: 300000 2.8816 9.1715 2.2754 0.0000 -10624.2431 1388.1229 0.0000 0.0000 1809.0195 -7412.7722 307.1323 -9221.7917 -7461.9100 302.6790 -301.2354 -203.3736 30668.1336 -222.1549 -125.4835
ENERGY: 600000 6.9252 4.6523 3.0601 0.0000 -10598.5767 1328.0909 0.0000 0.0000 1774.0042 -7481.8439 301.1874 -9255.8482 -7472.1847 301.1706 -587.0763 -558.3783 30325.8789 -359.1830 -270.0418
ENERGY: 900000 1.8826 10.0595 3.7997 0.0000 -10664.0960 1447.9078 0.0000 0.0000 1719.1290 -7481.3174 291.8708 -9200.4464 -7477.3774 300.4580 466.5507 495.9754 30010.4308 -234.3803 -158.0193
ENERGY: 1200000 1.0882 14.7039 2.3119 0.0000 -10795.5526 1453.5677 0.0000 0.0000 1767.7447 -7556.1362 300.1247 -9323.8809 -7479.9696 300.4551 127.5627 204.2357 30229.4894 -100.0247 -24.9824
ENERGY: 1500000 2.6453 10.8250 2.8355 0.0000 -10654.5787 1442.1353 0.0000 0.0000 1801.5646 -7394.5731 305.8666 -9196.1377 -7476.4014 300.7067 255.6470 289.8047 30764.4734 -34.7170 38.5886
TCL: Running FEP window   4: Lambda1 0.8499999999999999 Lambda2 0.7999999999999998 [dLambda -0.050000000000000044]
TCL: Setting parameter firsttimestep to 0
TCL: Setting parameter alchLambda to 0.8499999999999999
Info: NONBONDED TABLE R-SQUARED SPACING: 0.0625
Info: NONBONDED TABLE SIZE: 705 POINTS
TCL: Setting parameter alchLambda2 to 0.7999999999999998
Info: NONBONDED TABLE R-SQUARED SPACING: 0.0625
Info: NONBONDED TABLE SIZE: 705 POINTS
TCL: Running for 1500000 steps
ETITLE: TS BOND ANGLE DIHED IMPRP ELECT VDW BOUNDARY MISC KINETIC TOTAL TEMP POTENTIAL TOTALAVG TEMPAVG PRESSURE GPRESSURE VOLUME PRESSAVG GPRESSAVG
ENERGY: 0 2.6453 10.8249 2.8355 0.0000 -10653.2450 1442.0372 0.0000 0.0000 1800.6692 -7394.2330 305.7146 -9194.9021 -7394.2330 305.7146 191.4676 274.6142 30764.4734 191.4676 274.6142
ENERGY: 300000 2.8238 7.7559 3.5378 0.0000 -10625.5041 1368.5438 0.0000 0.0000 1729.0228 -7513.8200 293.5506 -9242.8429 -7497.2601 301.2166 -497.3268 -421.8224 30510.0896 -219.2838 -148.2018
ENERGY: 600000 1.7118 6.3651 2.6002 0.0000 -10595.7386 1328.6004 0.0000 0.0000 1796.5806 -7459.8805 305.0204 -9256.4611 -7484.0484 300.3082 -800.8818 -755.2447 30695.4454 -308.9973 -250.9584
ENERGY: 900000 2.9826 8.4219 3.1232 0.0000 -10885.7380 1499.4404 0.0000 0.0000 1779.4125 -7592.3573 302.1056 -9371.7698 -7503.8070 299.8282 573.6479 596.8503 29682.4386 -138.6375 -88.2764
ENERGY: 1200000 1.2499 7.5202 2.7163 0.0000 -10625.4030 1394.5375 0.0000 0.0000 1758.4699 -7460.9091 298.5500 -9219.3790 -7501.1566 300.1528 -295.2448 -184.0921 30758.2620 -183.6127 -133.1130
ENERGY: 1500000 3.3230 10.3965 5.1752 0.0000 -10634.5030 1382.1033 0.0000 0.0000 1746.1095 -7487.3957 296.4515 -9233.5051 -7489.2375 300.2397 -518.6684 -445.0148 30754.3731 -201.0887 -147.6343
TCL: Running FEP window   5: Lambda1 0.7999999999999998 Lambda2 0.7499999999999998 [dLambda -0.050000000000000044]
TCL: Setting parameter firsttimestep to 0
TCL: Setting parameter alchLambda to 0.7999999999999998
Info: NONBONDED TABLE R-SQUARED SPACING: 0.0625
Info: NONBONDED TABLE SIZE: 705 POINTS
TCL: Setting parameter alchLambda2 to 0.7499999999999998
Info: NONBONDED TABLE R-SQUARED SPACING: 0.0625
Info: NONBONDED TABLE SIZE: 705 POINTS
TCL: Running for 1500000 steps
ETITLE: TS BOND ANGLE DIHED IMPRP ELECT VDW BOUNDARY MISC KINETIC TOTAL TEMP POTENTIAL TOTALAVG TEMPAVG PRESSURE GPRESSURE VOLUME PRESSAVG GPRESSAVG
ENERGY: 0 3.3230 10.3965 5.1752 0.0000 -10633.8478 1382.5878 0.0000 0.0000 1745.2149 -7487.1504 296.2996 -9232.3654 -7487.1504 296.2996 -533.0273 -446.3797 30754.3731 -533.0273 -446.3797
ENERGY: 300000 3.6896 6.5480 5.3160 0.0000 -10812.8489 1447.0929 0.0000 0.0000 1803.2062 -7546.9963 306.1453 -9350.2025 -7506.1063 301.3297 -186.9107 -114.0607 30508.0569 -62.2438 10.7497
ENERGY: 600000 1.9226 5.9591 3.6633 0.0000 -10693.5620 1422.7526 0.0000 0.0000 1763.0970 -7496.1674 299.3356 -9259.2644 -7501.2299 299.1850 -242.6712 -201.0293 30738.6404 -277.7414 -203.7006
ENERGY: 900000 1.5656 13.8105 2.9812 0.0000 -10555.9211 1402.1177 0.0000 0.0000 1773.0286 -7362.4175 301.0218 -9135.4460 -7491.2655 298.7854 12.6996 67.5465 30781.6188 -295.5255 -226.6607
ENERGY: 1200000 3.0586 4.4395 3.2347 0.0000 -10877.1535 1557.9434 0.0000 0.0000 1792.1021 -7516.3751 304.2601 -9308.4772 -7486.7198 299.9847 1107.2637 1061.2847 29839.4181 -98.9436 -37.9875
ENERGY: 1500000 1.7561 10.8809 5.0216 0.0000 -10725.9537 1416.2723 0.0000 0.0000 1772.5970 -7519.4259 300.9485 -9292.0229 -7497.6519 299.2596 -397.2371 -347.9479 30432.1381 -131.9614 -77.7598
TCL: Running FEP window   6: Lambda1 0.7499999999999998 Lambda2 0.6999999999999997 [dLambda -0.050000000000000044]
TCL: Setting parameter firsttimestep to 0
TCL: Setting parameter alchLambda to 0.7499999999999998
Info: NONBONDED TABLE R-SQUARED SPACING: 0.0625
Info: NONBONDED TABLE SIZE: 705 POINTS
TCL: Setting parameter alchLambda2 to 0.6999999999999997
Info: NONBONDED TABLE R-SQUARED SPACING: 0.0625
Info: NONBONDED TABLE SIZE: 705 POINTS
TCL: Running for 1500000 steps
ETITLE: TS BOND ANGLE DIHED IMPRP ELECT VDW BOUNDARY MISC KINETIC TOTAL TEMP POTENTIAL TOTALAVG TEMPAVG PRESSURE GPRESSURE VOLUME PRESSAVG GPRESSAVG
ENERGY: 0 1.7561 10.8809 5.0216 0.0000 -10724.7787 1416.5518 0.0000 0.0000 1771.7099 -7518.8585 300.7979 -9290.5684 -7518.8585 300.7979 -440.1443 -350.6930 30432.1381 -440.1443 -350.6930
ENERGY: 300000 1.5222 14.2503 2.4653 0.0000 -10633.3434 1435.9279 0.0000 0.0000 1847.7831 -7331.3946 313.7135 -9179.1778 -7473.3462 299.5273 211.9645 271.3124 30478.6149 155.3562 220.6922
ENERGY: 600000 1.7919 5.4890 4.3101 0.0000 -10704.1178 1432.1282 0.0000 0.0000 1730.3722 -7530.0264 293.7797 -9260.3985 -7495.3532 298.5455 -474.6130 -389.6907 31037.5752 4.9224 75.3396
ENERGY: 900000 2.5779 7.2066 6.0313 0.0000 -10773.1750 1485.6032 0.0000 0.0000 1669.5344 -7602.2216 283.4507 -9271.7560 -7504.4159 297.9807 277.4588 331.9861 30397.4494 187.7236 259.5384
ENERGY: 1200000 2.3793 7.1048 3.9383 0.0000 -10598.9919 1417.4346 0.0000 0.0000 1805.2656 -7362.8693 306.4949 -9168.1349 -7491.5322 299.1358 -20.1994 101.5766 30484.1879 54.2270 128.9981
ENERGY: 1500000 1.5031 11.4469 3.6856 0.0000 -10657.0906 1412.6533 0.0000 0.0000 1790.8681 -7436.9337 304.0505 -9227.8017 -7484.7201 300.5628 102.2977 188.5232 30506.4181 89.7757 164.8336
TCL: Running FEP window   7: Lambda1 0.6999999999999997 Lambda2 0.6499999999999997 [dLambda -0.050000000000000044]
TCL: Setting parameter firsttimestep to 0
TCL: Setting parameter alchLambda to 0.6999999999999997
Info: NONBONDED TABLE R-SQUARED SPACING: 0.0625
Info: NONBONDED TABLE SIZE: 705 POINTS
TCL: Setting parameter alchLambda2 to 0.6499999999999997
Info: NONBONDED TABLE R-SQUARED SPACING: 0.0625
Info: NONBONDED TABLE SIZE: 705 POINTS
TCL: Running for 1500000 steps
ETITLE: TS BOND ANGLE DIHED IMPRP ELECT VDW BOUNDARY MISC KINETIC TOTAL TEMP POTENTIAL TOTALAVG TEMPAVG PRESSURE GPRESSURE VOLUME PRESSAVG GPRESSAVG
ENERGY: 0 1.5031 11.4469 3.6856 0.0000 -10656.0176 1412.4865 0.0000 0.0000 1790.0228 -7436.8727 303.9070 -9226.8955 -7436.8727 303.9070 78.0588 181.7738 30506.4181 78.0588 181.7738
ENERGY: 300000 2.9111 10.4998 4.5949 0.0000 -10585.3284 1377.6845 0.0000 0.0000 1800.8355 -7388.8026 305.7428 -9189.6381 -7420.7469 303.3100 -682.8100 -553.4241 30896.5799 -214.4873 -124.4850
ENERGY: 600000 2.0760 6.4756 7.2695 0.0000 -10695.9737 1425.9551 0.0000 0.0000 1726.6704 -7527.5271 293.1512 -9254.1975 -7458.6968 300.4021 -36.6430 -29.9497 30473.6318 22.6200 77.6362
ENERGY: 900000 1.7802 7.0831 3.7199 0.0000 -10767.0374 1411.3106 0.0000 0.0000 1752.3241 -7590.8195 297.5066 -9343.1436 -7482.6272 299.0449 -325.2178 -285.2647 30338.9257 -26.8241 20.1776
ENERGY: 1200000 1.2091 12.2555 2.8619 0.0000 -10690.8601 1424.0812 0.0000 0.0000 1802.6898 -7447.7625 306.0576 -9250.4523 -7477.2642 300.0054 114.2570 112.8773 30239.9002 -3.9465 37.2921
ENERGY: 1500000 2.8505 8.5189 4.0866 0.0000 -10780.1177 1404.3198 0.0000 0.0000 1791.3702 -7568.9716 304.1358 -9360.3418 -7489.9646 299.9671 -579.6030 -555.3552 30577.9628 20.1940 57.3221
TCL: Running FEP window   8: Lambda1 0.6499999999999997 Lambda2 0.5999999999999996 [dLambda -0.050000000000000044]
TCL: Setting parameter firsttimestep to 0
TCL: Setting parameter alchLambda to 0.6499999999999997
Info: NONBONDED TABLE R-SQUARED SPACING: 0.0625
Info: NONBONDED TABLE SIZE: 705 POINTS
TCL: Setting parameter alchLambda2 to 0.5999999999999996
Info: NONBONDED TABLE R-SQUARED SPACING: 0.0625
Info: NONBONDED TABLE SIZE: 705 POINTS
TCL: Running for 1500000 steps
ETITLE: TS BOND ANGLE DIHED IMPRP ELECT VDW BOUNDARY MISC KINETIC TOTAL TEMP POTENTIAL TOTALAVG TEMPAVG PRESSURE GPRESSURE VOLUME PRESSAVG GPRESSAVG
ENERGY: 0 2.8505 8.5189 4.0866 0.0000 -10778.3156 1404.3565 0.0000 0.0000 1790.5226 -7567.9804 303.9919 -9358.5031 -7567.9804 303.9919 -643.9221 -563.0600 30577.9628 -643.9221 -563.0600
ENERGY: 300000 1.2797 11.0592 8.1687 0.0000 -10517.3279 1376.2344 0.0000 0.0000 1811.5113 -7309.0744 307.5553 -9120.5858 -7468.6940 305.7585 -261.2788 -202.1857 30673.0416 -326.6072 -241.3023
ENERGY: 600000 0.7756 8.5011 3.6514 0.0000 -10652.8752 1363.7750 0.0000 0.0000 1803.5252 -7472.6469 306.1995 -9276.1721 -7463.5633 303.9291 -756.8101 -698.9373 30743.4850 -297.0203 -231.1476
ENERGY: 900000 1.2909 9.9037 5.0851 0.0000 -10566.3651 1344.6295 0.0000 0.0000 1809.1207 -7396.3351 307.1494 -9205.4559 -7453.2981 303.1115 -609.6603 -554.1103 30628.0451 -193.9053 -129.0722
ENERGY: 1200000 0.7665 6.4387 2.9083 0.0000 -10778.2014 1399.3866 0.0000 0.0000 1731.2591 -7637.4421 293.9302 -9368.7012 -7477.4778 301.6294 -544.5009 -411.7290 29954.5895 -187.1800 -116.2463
ENERGY: 1500000 1.6566 9.8809 4.5295 0.0000 -10690.5831 1422.5743 0.0000 0.0000 1785.6444 -7466.2973 303.1637 -9251.9417 -7487.8740 301.1042 74.1995 159.9813 30165.1358 -100.7500 -32.8132
TCL: Running FEP window   9: Lambda1 0.5999999999999996 Lambda2 0.5499999999999996 [dLambda -0.050000000000000044]
TCL: Setting parameter firsttimestep to 0
TCL: Setting parameter alchLambda to 0.5999999999999996
Info: NONBONDED TABLE R-SQUARED SPACING: 0.0625
Info: NONBONDED TABLE SIZE: 705 POINTS
TCL: Setting parameter alchLambda2 to 0.5499999999999996
Info: NONBONDED TABLE R-SQUARED SPACING: 0.0625
Info: NONBONDED TABLE SIZE: 705 POINTS
TCL: Running for 1500000 steps
ETITLE: TS BOND ANGLE DIHED IMPRP ELECT VDW BOUNDARY MISC KINETIC TOTAL TEMP POTENTIAL TOTALAVG TEMPAVG PRESSURE GPRESSURE VOLUME PRESSAVG GPRESSAVG
ENERGY: 0 1.6566 9.8809 4.5295 0.0000 -10690.3780 1422.6934 0.0000 0.0000 1784.8048 -7466.8127 303.0211 -9251.6175 -7466.8127 303.0211 60.5700 154.6005 30165.1358 60.5700 154.6005
ENERGY: 300000 1.3316 9.1387 4.8164 0.0000 -10689.5992 1373.3606 0.0000 0.0000 1784.4668 -7516.4851 302.9637 -9300.9518 -7461.4849 301.0876 -501.2907 -401.0051 30510.7238 -344.3902 -228.6306
ENERGY: 600000 3.1779 5.5122 2.1831 0.0000 -10635.5014 1409.9073 0.0000 0.0000 1762.9519 -7451.7689 299.3110 -9214.7208 -7475.0171 300.8406 -154.3020 -112.8490 30291.8947 -371.1834 -287.1096
ENERGY: 900000 1.4933 7.7520 2.5619 0.0000 -10736.6996 1494.1685 0.0000 0.0000 1783.5060 -7447.2179 302.8006 -9230.7239 -7478.1049 300.1211 672.6546 768.4794 30164.1778 -176.7185 -99.3535
ENERGY: 1200000 1.2365 12.4138 4.1891 0.0000 -10463.7110 1278.3059 0.0000 0.0000 1788.2570 -7379.3086 303.6072 -9167.5656 -7468.8436 301.1238 -1055.7503 -1030.2911 31034.3669 -223.6861 -153.5161
ENERGY: 1500000 3.4237 9.6367 5.0739 0.0000 -10924.5988 1547.5303 0.0000 0.0000 1812.3981 -7546.5361 307.7059 -9358.9342 -7474.0847 300.9993 421.2165 486.5054 30691.7066 -194.7778 -125.8191
TCL: Running FEP window  10: Lambda1 0.5499999999999996 Lambda2 0.4999999999999996 [dLambda -0.04999999999999999]
TCL: Setting parameter firsttimestep to 0
TCL: Setting parameter alchLambda to 0.5499999999999996
Info: NONBONDED TABLE R-SQUARED SPACING: 0.0625
Info: NONBONDED TABLE SIZE: 705 POINTS
TCL: Setting parameter alchLambda2 to 0.4999999999999996
Info: NONBONDED TABLE R-SQUARED SPACING: 0.0625
Info: NONBONDED TABLE SIZE: 705 POINTS
TCL: Running for 1500000 steps
ETITLE: TS BOND ANGLE DIHED IMPRP ELECT VDW BOUNDARY MISC KINETIC TOTAL TEMP POTENTIAL TOTALAVG TEMPAVG PRESSURE GPRESSURE VOLUME PRESSAVG GPRESSAVG
ENERGY: 0 3.4237 9.6367 5.0739 0.0000 -10924.6937 1547.6295 0.0000 0.0000 1811.5013 -7547.4285 307.5536 -9358.9298 -7547.4285 307.5536 401.2878 478.6114 30691.7066 401.2878 478.6114
ENERGY: 300000 3.3525 8.8755 1.7253 0.0000 -10781.3367 1441.8151 0.0000 0.0000 1763.0955 -7562.4728 299.3354 -9325.5683 -7511.1258 303.4636 -58.0215 -64.6646 30172.9426 -98.0334 -39.4886
ENERGY: 600000 2.1877 8.3925 3.6085 0.0000 -10568.4495 1370.7448 0.0000 0.0000 1745.4657 -7438.0503 296.3422 -9183.5160 -7508.6851 300.5358 -477.6493 -415.5251 30585.0130 37.1745 84.8958
ENERGY: 900000 0.6473 7.4364 3.7889 0.0000 -10844.5517 1518.6041 0.0000 0.0000 1776.6786 -7537.3964 301.6415 -9314.0750 -7521.6354 299.8077 928.9234 983.6409 29583.8779 135.3862 181.5149
ENERGY: 1200000 2.2894 7.7718 4.0317 0.0000 -10799.7495 1452.2801 0.0000 0.0000 1739.0740 -7594.3025 295.2570 -9333.3765 -7525.5129 299.2569 249.1937 320.0487 30157.6045 132.9255 188.8878
ENERGY: 1500000 2.9596 10.7104 3.3468 0.0000 -10742.6514 1453.7668 0.0000 0.0000 1799.3345 -7472.5333 305.4880 -9271.8678 -7517.8736 299.8123 178.4759 302.0002 30012.1206 147.0386 207.1170
TCL: Running FEP window  11: Lambda1 0.4999999999999996 Lambda2 0.4499999999999996 [dLambda -0.04999999999999999]
TCL: Setting parameter firsttimestep to 0
TCL: Setting parameter alchLambda to 0.4999999999999996
Info: NONBONDED TABLE R-SQUARED SPACING: 0.0625
Info: NONBONDED TABLE SIZE: 705 POINTS
TCL: Setting parameter alchLambda2 to 0.4499999999999996
Info: NONBONDED TABLE R-SQUARED SPACING: 0.0625
Info: NONBONDED TABLE SIZE: 705 POINTS
TCL: Running for 1500000 steps
ETITLE: TS BOND ANGLE DIHED IMPRP ELECT VDW BOUNDARY MISC KINETIC TOTAL TEMP POTENTIAL TOTALAVG TEMPAVG PRESSURE GPRESSURE VOLUME PRESSAVG GPRESSAVG
ENERGY: 0 2.9596 10.7104 3.3468 0.0000 -10742.6343 1453.5702 0.0000 0.0000 1798.4321 -7473.6152 305.3348 -9272.0473 -7473.6152 305.3348 212.3676 292.2718 30012.1206 212.3676 292.2718
ENERGY: 300000 4.6687 7.7313 3.5004 0.0000 -10793.1209 1504.3229 0.0000 0.0000 1756.6669 -7516.2307 298.2439 -9272.8976 -7509.5419 301.6788 172.5645 265.1928 30498.5386 158.7518 237.1347
ENERGY: 600000 1.2724 8.1516 2.9276 0.0000 -10697.5793 1407.8148 0.0000 0.0000 1689.8043 -7587.6087 286.8921 -9277.4129 -7505.5180 300.4702 -467.5356 -361.5624 30457.4225 8.9645 84.0099
ENERGY: 900000 2.1971 12.2658 4.2884 0.0000 -10823.5949 1482.7728 0.0000 0.0000 1728.3098 -7593.7610 293.4295 -9322.0708 -7510.4179 298.5626 201.0441 285.4251 30295.4479 62.1553 118.6937
ENERGY: 1200000 2.7338 14.6451 3.9090 0.0000 -10721.4031 1410.3348 0.0000 0.0000 1810.9658 -7478.8146 307.4627 -9289.7804 -7502.6552 298.5177 -335.8131 -259.7945 30295.8994 -122.6047 -57.2875
ENERGY: 1500000 7.6144 4.8216 2.6514 0.0000 -10767.2625 1435.6501 0.0000 0.0000 1698.8386 -7617.6864 288.4259 -9316.5250 -7506.9946 297.8601 -388.7780 -259.7945 30102.8503 -128.0802 -57.8754
TCL: Running FEP window  12: Lambda1 0.4499999999999996 Lambda2 0.39999999999999963 [dLambda -0.04999999999999999]
TCL: Setting parameter firsttimestep to 0
TCL: Setting parameter alchLambda to 0.4499999999999996
Info: NONBONDED TABLE R-SQUARED SPACING: 0.0625
Info: NONBONDED TABLE SIZE: 705 POINTS
TCL: Setting parameter alchLambda2 to 0.39999999999999963
Info: NONBONDED TABLE R-SQUARED SPACING: 0.0625
Info: NONBONDED TABLE SIZE: 705 POINTS
TCL: Running for 1500000 steps
ETITLE: TS BOND ANGLE DIHED IMPRP ELECT VDW BOUNDARY MISC KINETIC TOTAL TEMP POTENTIAL TOTALAVG TEMPAVG PRESSURE GPRESSURE VOLUME PRESSAVG GPRESSAVG
ENERGY: 0 7.6144 4.8216 2.6514 0.0000 -10767.2638 1435.8213 0.0000 0.0000 1697.9641 -7618.3910 288.2775 -9316.3551 -7618.3910 288.2775 -356.7647 -264.6468 30102.8503 -356.7647 -264.6468
ENERGY: 300000 3.1662 8.4024 2.5994 0.0000 -10795.2855 1512.0670 0.0000 0.0000 1764.9838 -7504.0668 299.6560 -9269.0506 -7480.1201 299.9082 485.9430 620.8171 30060.2200 4.9347 98.8650
ENERGY: 600000 2.4586 14.1801 3.8213 0.0000 -10709.0524 1457.9119 0.0000 0.0000 1729.5124 -7501.1679 293.6337 -9230.6803 -7475.4604 298.5831 223.8252 264.6203 30480.2516 -58.9495 28.6743
ENERGY: 900000 0.7266 9.6078 2.9369 0.0000 -10666.3002 1457.3445 0.0000 0.0000 1739.8047 -7455.8797 295.3811 -9195.6844 -7480.0984 298.0366 124.4689 126.0165 30516.2343 41.2175 119.6683
ENERGY: 1200000 0.5079 13.3758 2.9465 0.0000 -10744.6687 1450.9883 0.0000 0.0000 1763.5696 -7513.2806 299.4158 -9276.8502 -7476.2761 297.9877 219.7972 236.8267 30339.7076 92.1416 162.7483
ENERGY: 1500000 1.3145 7.5256 4.1405 0.0000 -10624.0953 1380.4144 0.0000 0.0000 1819.3683 -7411.3320 308.8893 -9230.7003 -7474.9942 298.6516 -171.7869 -146.2003 30236.1836 3.8648 73.1531
TCL: Running FEP window  13: Lambda1 0.39999999999999963 Lambda2 0.34999999999999964 [dLambda -0.04999999999999999]
TCL: Setting parameter firsttimestep to 0
TCL: Setting parameter alchLambda to 0.39999999999999963
Info: NONBONDED TABLE R-SQUARED SPACING: 0.0625
Info: NONBONDED TABLE SIZE: 705 POINTS
TCL: Setting parameter alchLambda2 to 0.34999999999999964
Info: NONBONDED TABLE R-SQUARED SPACING: 0.0625
Info: NONBONDED TABLE SIZE: 705 POINTS
TCL: Running for 1500000 steps
ETITLE: TS BOND ANGLE DIHED IMPRP ELECT VDW BOUNDARY MISC KINETIC TOTAL TEMP POTENTIAL TOTALAVG TEMPAVG PRESSURE GPRESSURE VOLUME PRESSAVG GPRESSAVG
ENERGY: 0 1.3145 7.5256 4.1405 0.0000 -10624.0954 1380.7581 0.0000 0.0000 1818.5040 -7411.8527 308.7425 -9230.3567 -7411.8527 308.7425 -222.0935 -149.0716 30236.1836 -222.0935 -149.0716
ENERGY: 300000 1.6735 8.2764 2.9976 0.0000 -10702.1526 1460.6638 0.0000 0.0000 1724.2585 -7504.2827 292.7417 -9228.5412 -7485.5200 302.1381 109.7553 156.6463 30516.3850 88.7722 155.0136
ENERGY: 600000 4.9455 8.8817 2.0493 0.0000 -10820.3689 1517.0391 0.0000 0.0000 1725.4835 -7561.9698 292.9497 -9287.4533 -7505.8610 300.3372 85.3169 197.6151 30742.2761 -10.3207 60.5998
ENERGY: 900000 1.7581 7.2641 3.5771 0.0000 -10537.3058 1301.3553 0.0000 0.0000 1838.1517 -7385.1995 312.0783 -9223.3512 -7475.9234 301.4588 -837.5048 -793.9323 30633.7065 -172.7183 -112.4303
ENERGY: 1200000 2.4533 7.6020 3.1397 0.0000 -10736.3000 1483.5691 0.0000 0.0000 1766.0675 -7473.4684 299.8399 -9239.5358 -7477.3140 301.9595 63.5637 137.7998 30714.4810 -79.1563 -21.1057
ENERGY: 1500000 2.3144 12.9796 4.9355 0.0000 -10689.3486 1465.8508 0.0000 0.0000 1720.2520 -7483.0163 292.0615 -9203.2683 -7481.9206 301.1192 520.2573 539.7932 30304.9159 -57.6579 -2.1248
TCL: Running FEP window  14: Lambda1 0.34999999999999964 Lambda2 0.29999999999999966 [dLambda -0.04999999999999999]
TCL: Setting parameter firsttimestep to 0
TCL: Setting parameter alchLambda to 0.34999999999999964
Info: NONBONDED TABLE R-SQUARED SPACING: 0.0625
Info: NONBONDED TABLE SIZE: 705 POINTS
TCL: Setting parameter alchLambda2 to 0.29999999999999966
Info: NONBONDED TABLE R-SQUARED SPACING: 0.0625
Info: NONBONDED TABLE SIZE: 705 POINTS
TCL: Running for 1500000 steps
ETITLE: TS BOND ANGLE DIHED IMPRP ELECT VDW BOUNDARY MISC KINETIC TOTAL TEMP POTENTIAL TOTALAVG TEMPAVG PRESSURE GPRESSURE VOLUME PRESSAVG GPRESSAVG
ENERGY: 0 2.3144 12.9796 4.9355 0.0000 -10689.3495 1466.1145 0.0000 0.0000 1719.3899 -7483.6156 291.9151 -9203.0055 -7483.6156 291.9151 449.3480 535.2813 30304.9159 449.3480 535.2813
ENERGY: 300000 2.2893 9.8951 2.8982 0.0000 -10676.2074 1412.1326 0.0000 0.0000 1788.2660 -7460.7262 303.6088 -9248.9922 -7474.7653 298.3961 -75.4056 18.7341 29986.0670 97.4827 140.7140
ENERGY: 600000 3.4840 8.1215 4.0567 0.0000 -10787.8438 1453.9763 0.0000 0.0000 1762.5821 -7555.6232 299.2482 -9318.2053 -7491.9544 297.3438 -81.1960 -21.0204 30104.1894 -164.1197 -112.3891
ENERGY: 900000 1.9199 5.9929 4.5717 0.0000 -10668.2324 1392.9161 0.0000 0.0000 1771.8508 -7490.9810 300.8218 -9262.8318 -7477.6596 299.5161 -521.4499 -382.6801 30563.6092 -239.8255 -178.8009
ENERGY: 1200000 2.4123 6.6793 4.8882 0.0000 -10800.0536 1463.2786 0.0000 0.0000 1744.2246 -7578.5706 296.1315 -9322.7952 -7500.3468 298.4627 -135.5847 -89.0769 30406.6261 -168.7997 -103.2400
ENERGY: 1500000 1.1082 4.9136 3.8294 0.0000 -10684.2795 1367.7975 0.0000 0.0000 1760.2602 -7546.3707 298.8540 -9306.6308 -7512.5739 298.4577 -445.6427 -373.1150 29730.0082 -215.9929 -153.3022
TCL: Running FEP window  15: Lambda1 0.29999999999999966 Lambda2 0.24999999999999967 [dLambda -0.04999999999999999]
TCL: Setting parameter firsttimestep to 0
TCL: Setting parameter alchLambda to 0.29999999999999966
Info: NONBONDED TABLE R-SQUARED SPACING: 0.0625
Info: NONBONDED TABLE SIZE: 705 POINTS
TCL: Setting parameter alchLambda2 to 0.24999999999999967
Info: NONBONDED TABLE R-SQUARED SPACING: 0.0625
Info: NONBONDED TABLE SIZE: 705 POINTS
TCL: Running for 1500000 steps
ETITLE: TS BOND ANGLE DIHED IMPRP ELECT VDW BOUNDARY MISC KINETIC TOTAL TEMP POTENTIAL TOTALAVG TEMPAVG PRESSURE GPRESSURE VOLUME PRESSAVG GPRESSAVG
ENERGY: 0 1.1082 4.9136 3.8294 0.0000 -10684.2804 1368.0838 0.0000 0.0000 1759.3671 -7546.9782 298.7024 -9306.3453 -7546.9782 298.7024 -449.6943 -374.6229 29730.0082 -449.6943 -374.6229
ENERGY: 300000 3.8740 6.9695 4.7630 0.0000 -10759.5176 1467.5328 0.0000 0.0000 1795.5545 -7480.8239 304.8462 -9276.3784 -7516.3601 301.4390 -71.4552 43.9264 30705.7306 -48.6781 25.2404
ENERGY: 600000 1.9569 8.2324 3.8624 0.0000 -10702.3493 1441.8734 0.0000 0.0000 1752.7262 -7493.6979 297.5749 -9246.4242 -7530.2760 298.6089 -43.8503 -26.1734 30433.9885 -59.0242 4.2472
ENERGY: 900000 7.2484 8.5517 2.1649 0.0000 -10748.9534 1507.1415 0.0000 0.0000 1706.2625 -7517.5844 289.6864 -9223.8469 -7532.0009 298.0486 613.6416 649.8025 30001.5838 115.5548 168.6718
ENERGY: 1200000 2.6645 8.3611 4.2949 0.0000 -10842.8891 1484.8164 0.0000 0.0000 1711.2618 -7631.4903 290.5351 -9342.7521 -7548.8910 295.7376 79.5824 115.8507 30491.0271 116.2044 172.1644
ENERGY: 1500000 3.8940 9.6178 4.1760 0.0000 -10704.3661 1506.2019 0.0000 0.0000 1703.5228 -7476.9535 289.2212 -9180.4763 -7543.0759 295.0350 544.4914 638.2004 30280.3361 98.1762 156.9651
TCL: Running FEP window  16: Lambda1 0.24999999999999967 Lambda2 0.19999999999999968 [dLambda -0.04999999999999999]
TCL: Setting parameter firsttimestep to 0
TCL: Setting parameter alchLambda to 0.24999999999999967
Info: NONBONDED TABLE R-SQUARED SPACING: 0.0625
Info: NONBONDED TABLE SIZE: 705 POINTS
TCL: Setting parameter alchLambda2 to 0.19999999999999968
Info: NONBONDED TABLE R-SQUARED SPACING: 0.0625
Info: NONBONDED TABLE SIZE: 705 POINTS
TCL: Running for 1500000 steps
ETITLE: TS BOND ANGLE DIHED IMPRP ELECT VDW BOUNDARY MISC KINETIC TOTAL TEMP POTENTIAL TOTALAVG TEMPAVG PRESSURE GPRESSURE VOLUME PRESSAVG GPRESSAVG
ENERGY: 0 3.8940 9.6178 4.1760 0.0000 -10704.3666 1506.7194 0.0000 0.0000 1702.6504 -7477.3089 289.0731 -9179.9593 -7477.3089 289.0731 543.9381 635.4833 30280.3361 543.9381 635.4833
ENERGY: 300000 4.1288 5.5229 4.8619 0.0000 -10730.2375 1467.8024 0.0000 0.0000 1713.3538 -7534.5677 290.8903 -9247.9215 -7513.5629 294.1198 374.3136 371.0897 30112.5188 -97.7614 -21.7256
ENERGY: 600000 2.6386 10.7807 2.2816 0.0000 -10844.7165 1506.9744 0.0000 0.0000 1827.2606 -7494.7805 310.2292 -9322.0411 -7500.7165 298.6043 488.6122 572.8018 29586.7429 -47.3211 34.0281
ENERGY: 900000 4.1462 7.2927 3.9746 0.0000 -10605.4810 1394.7249 0.0000 0.0000 1798.0055 -7397.3371 305.2623 -9195.3426 -7497.4950 299.3229 -351.5149 -348.4457 30492.7970 -136.5521 -68.4884
ENERGY: 1200000 0.6010 11.2915 2.3910 0.0000 -10763.3958 1507.4488 0.0000 0.0000 1802.0395 -7439.6240 305.9472 -9241.6635 -7485.4349 299.9523 484.7645 534.6732 30610.1386 -39.3432 27.9786
ENERGY: 1500000 1.2103 6.6417 2.6403 0.0000 -10766.7435 1416.6827 0.0000 0.0000 1736.0551 -7603.5134 294.7445 -9339.5685 -7491.8382 299.2541 -384.0773 -270.9249 30477.6273 -14.2212 60.3186
TCL: Running FEP window  17: Lambda1 0.19999999999999968 Lambda2 0.1499999999999997 [dLambda -0.04999999999999999]
TCL: Setting parameter firsttimestep to 0
TCL: Setting parameter alchLambda to 0.19999999999999968
Info: NONBONDED TABLE R-SQUARED SPACING: 0.0625
Info: NONBONDED TABLE SIZE: 705 POINTS
TCL: Setting parameter alchLambda2 to 0.1499999999999997
Info: NONBONDED TABLE R-SQUARED SPACING: 0.0625
Info: NONBONDED TABLE SIZE: 705 POINTS
TCL: Running for 1500000 steps
ETITLE: TS BOND ANGLE DIHED IMPRP ELECT VDW BOUNDARY MISC KINETIC TOTAL TEMP POTENTIAL TOTALAVG TEMPAVG PRESSURE GPRESSURE VOLUME PRESSAVG GPRESSAVG
ENERGY: 0 1.2103 6.6417 2.6403 0.0000 -10766.7424 1416.8828 0.0000 0.0000 1735.2019 -7604.1653 294.5996 -9339.3673 -7604.1653 294.5996 -348.8038 -275.1480 30477.6273 -348.8038 -275.1480
ENERGY: 300000 3.0317 10.7940 5.1381 0.0000 -10553.3793 1375.9370 0.0000 0.0000 1734.2374 -7424.2411 294.4359 -9158.4785 -7528.8897 294.1805 -432.3865 -290.5945 30448.5036 -41.0330 59.4002
ENERGY: 600000 3.8514 9.2045 5.3273 0.0000 -10755.3962 1493.4501 0.0000 0.0000 1821.3351 -7422.2278 309.2232 -9243.5629 -7504.7906 299.1640 294.0195 368.6402 30500.6649 60.9768 157.4835
ENERGY: 900000 2.8845 6.1329 4.7915 0.0000 -10745.6816 1469.3386 0.0000 0.0000 1758.9370 -7503.5970 298.6293 -9262.5340 -7503.2513 299.7605 255.3034 310.3704 30354.6131 92.9470 185.7200
ENERGY: 1200000 2.5879 6.2528 1.6866 0.0000 -10732.8326 1422.9349 0.0000 0.0000 1756.1833 -7543.1870 298.1618 -9299.3703 -7498.7775 300.4334 -282.3457 -208.4471 30210.0941 28.7560 106.9673
ENERGY: 1500000 5.2390 10.8298 4.6837 0.0000 -10719.4736 1438.9418 0.0000 0.0000 1759.6225 -7500.1569 298.7457 -9259.7794 -7486.6197 301.2032 -353.6693 -304.2662 30513.2498 -79.7949 -4.8474
TCL: Running FEP window  18: Lambda1 0.1499999999999997 Lambda2 0.09999999999999969 [dLambda -0.05 ]
TCL: Setting parameter firsttimestep to 0
TCL: Setting parameter alchLambda to 0.1499999999999997
Info: NONBONDED TABLE R-SQUARED SPACING: 0.0625
Info: NONBONDED TABLE SIZE: 705 POINTS
TCL: Setting parameter alchLambda2 to 0.09999999999999969
Info: NONBONDED TABLE R-SQUARED SPACING: 0.0625
Info: NONBONDED TABLE SIZE: 705 POINTS
TCL: Running for 1500000 steps
ETITLE: TS BOND ANGLE DIHED IMPRP ELECT VDW BOUNDARY MISC KINETIC TOTAL TEMP POTENTIAL TOTALAVG TEMPAVG PRESSURE GPRESSURE VOLUME PRESSAVG GPRESSAVG
ENERGY: 0 5.2390 10.8298 4.6837 0.0000 -10719.4726 1439.0883 0.0000 0.0000 1758.7449 -7500.8869 298.5967 -9259.6318 -7500.8869 298.5967 -381.7048 -306.9779 30513.2498 -381.7048 -306.9779
ENERGY: 300000 3.6457 8.9931 3.3686 0.0000 -10891.7856 1546.2007 0.0000 0.0000 1762.2563 -7567.3212 299.1929 -9329.5775 -7498.0325 300.0845 369.9004 445.3655 30307.9848 -20.0267 61.1664
ENERGY: 600000 2.8444 6.7814 5.3853 0.0000 -10817.0785 1497.8250 0.0000 0.0000 1755.3736 -7548.8688 298.0243 -9304.2424 -7493.9577 299.5828 429.4551 478.7891 29910.8739 -24.0071 33.3475
ENERGY: 900000 1.7423 12.1163 2.2372 0.0000 -10760.1827 1484.6715 0.0000 0.0000 1836.0335 -7423.3819 311.7187 -9259.4154 -7491.4408 300.1558 342.4905 387.2556 30424.8277 8.0566 71.2414
ENERGY: 1200000 1.4370 9.0973 4.1405 0.0000 -10800.8600 1471.9122 0.0000 0.0000 1791.0082 -7523.2647 304.0743 -9314.2729 -7492.7622 300.5842 159.0831 207.5489 30061.1292 10.0099 70.9129
ENERGY: 1500000 1.6053 6.3859 3.6301 0.0000 -10683.3730 1436.6008 0.0000 0.0000 1786.0136 -7449.1374 303.2264 -9235.1510 -7483.6411 301.7164 -168.6493 -130.8239 30980.1096 72.5364 132.1180
TCL: Running FEP window  19: Lambda1 0.09999999999999969 Lambda2 0.049999999999999684 [dLambda -0.05 ]
TCL: Setting parameter firsttimestep to 0
TCL: Setting parameter alchLambda to 0.09999999999999969
Info: NONBONDED TABLE R-SQUARED SPACING: 0.0625
Info: NONBONDED TABLE SIZE: 705 POINTS
TCL: Setting parameter alchLambda2 to 0.049999999999999684
Info: NONBONDED TABLE R-SQUARED SPACING: 0.0625
Info: NONBONDED TABLE SIZE: 705 POINTS
TCL: Running for 1500000 steps
ETITLE: TS BOND ANGLE DIHED IMPRP ELECT VDW BOUNDARY MISC KINETIC TOTAL TEMP POTENTIAL TOTALAVG TEMPAVG PRESSURE GPRESSURE VOLUME PRESSAVG GPRESSAVG
ENERGY: 0 1.6053 6.3859 3.6301 0.0000 -10683.3703 1435.9039 0.0000 0.0000 1785.1716 -7450.6735 303.0834 -9235.8451 -7450.6735 303.0834 -212.0926 -137.0672 30980.1096 -212.0926 -137.0672
ENERGY: 300000 0.9296 11.7071 4.8824 0.0000 -10727.3778 1467.9711 0.0000 0.0000 1786.0010 -7455.8865 303.2242 -9241.8875 -7469.5801 299.3047 5.8793 116.3477 30494.5665 62.7401 131.6000
ENERGY: 600000 3.3678 9.7816 3.7375 0.0000 -10749.6357 1472.0593 0.0000 0.0000 1735.2644 -7525.4252 294.6102 -9260.6896 -7493.0938 298.1111 109.5528 146.1010 30488.4676 -243.1071 -182.3658
ENERGY: 900000 0.6097 6.2350 2.6505 0.0000 -10607.8801 1377.8027 0.0000 0.0000 1826.9480 -7393.6342 310.1761 -9220.5822 -7488.9955 299.5018 -451.3862 -318.7174 30373.4428 -190.6974 -121.6857
ENERGY: 1200000 4.5463 6.0693 3.8379 0.0000 -10669.7024 1412.1784 0.0000 0.0000 1780.3034 -7462.7671 302.2569 -9243.0705 -7487.1978 299.6920 -394.4870 -330.1951 30208.4931 -145.4681 -68.0725
ENERGY: 1500000 0.7238 9.7189 2.5564 0.0000 -10753.4690 1442.2612 0.0000 0.0000 1776.8688 -7521.3399 301.6738 -9298.2087 -7486.5243 300.0208 153.8941 180.8749 30078.5780 -126.8537 -56.3635
TCL: Running FEP window  20: Lambda1 0.049999999999999684 Lambda2 0.0    [dLambda -0.049999999999999684]
TCL: Setting parameter firsttimestep to 0
TCL: Setting parameter alchLambda to 0.049999999999999684
Info: NONBONDED TABLE R-SQUARED SPACING: 0.0625
Info: NONBONDED TABLE SIZE: 705 POINTS
TCL: Setting parameter alchLambda2 to 0.0
Info: NONBONDED TABLE R-SQUARED SPACING: 0.0625
Info: NONBONDED TABLE SIZE: 705 POINTS
TCL: Running for 1500000 steps
ETITLE: TS BOND ANGLE DIHED IMPRP ELECT VDW BOUNDARY MISC KINETIC TOTAL TEMP POTENTIAL TOTALAVG TEMPAVG PRESSURE GPRESSURE VOLUME PRESSAVG GPRESSAVG
ENERGY: 0 0.7238 9.7189 2.5564 0.0000 -10753.4679 1439.8221 0.0000 0.0000 1775.9686 -7524.6780 301.5209 -9300.6467 -7524.6780 301.5209 104.3950 172.1288 30078.5780 104.3950 172.1288
ENERGY: 300000 1.9233 11.1183 4.8560 0.0000 -10615.6306 1398.3456 0.0000 0.0000 1770.8275 -7428.5600 300.6481 -9199.3875 -7481.3147 300.5363 -689.8715 -593.1069 31243.4244 -31.0731 52.6910
ENERGY: 600000 2.6556 14.7899 2.5082 0.0000 -10695.2718 1427.1296 0.0000 0.0000 1716.2112 -7531.9773 291.3754 -9248.1885 -7488.3766 301.3444 -97.4332 -17.7428 30023.0726 -98.7373 -13.2975
ENERGY: 900000 1.1868 7.5108 5.2948 0.0000 -10775.1394 1475.6236 0.0000 0.0000 1806.8779 -7478.6454 306.7687 -9285.5233 -7477.1770 303.2035 36.7962 101.4991 30661.9837 -24.4419 59.6354
ENERGY: 1200000 1.9416 10.4878 6.6224 0.0000 -10574.4646 1309.1043 0.0000 0.0000 1766.3048 -7480.0037 299.8802 -9246.3085 -7488.9959 301.9046 -1222.6801 -1162.5462 30469.6256 -145.9504 -68.1526
ENERGY: 1500000 1.7886 12.4988 2.7412 0.0000 -10670.5774 1400.4126 0.0000 0.0000 1728.2818 -7524.8543 293.4248 -9253.1361 -7490.7940 300.9069 -440.3410 -390.0465 30571.0992 -167.4976 -92.9098
TCL: Exiting due to exit command.
