Info: SIMULATION PARAMETERS:
Info: TIMESTEP               2
Info: NUMBER OF STEPS        0
Info: STEPS PER CYCLE        10
Info: PERIODIC CELL BASIS 1  30.6945 0 0
Info: PERIODIC CELL BASIS 2  0 28.6091 0
Info: PERIODIC CELL BASIS 3  0 0 34.2116
Info: PERIODIC CELL CENTER   0 0 0
Info: WRAPPING WATERS AROUND PERIODIC BOUNDARIES ON OUTPUT.
Info: WRAPPING ALL CLUSTERS AROUND PERIODIC BOUNDARIES ON OUTPUT.
Info: FIRST LDB TIMESTEP     50
Info: LAST LDB TIMESTEP     -1
Info: HOM BACKGROUND SCALING 1
Info: PME BACKGROUND SCALING 1
Info: MIN ATOMS PER PATCH    40
Info: EMPTY PATCH LOAD       40 ATOMS
Info: VELOCITY FILE          mobley_2295058_equil.vel
Info: CENTER OF MASS MOVING INITIALLY? NO
Info: DIELECTRIC             1
Info: EXCLUDE                SCALED ONE-FOUR
Info: 1-4 ELECTROSTATICS SCALED BY 0.833333
Info: MODIFIED 1-4 VDW PARAMETERS WILL BE USED
Info: DCD FILENAME           mobley_2295058_prod.dcd
Info: DCD FREQUENCY          100000
Info: DCD FIRST STEP         100000
Info: DCD FILE WILL CONTAIN UNIT CELL DATA
Info: XST FILENAME           mobley_2295058_prod.xst
Info: XST FREQUENCY          100000
Info: NO VELOCITY DCD OUTPUT
Info: NO FORCE DCD OUTPUT
Info: OUTPUT FILENAME        mobley_2295058_prod
Info: BINARY OUTPUT FILES WILL BE USED
Info: RESTART FILENAME       mobley_2295058_prod.restart
Info: RESTART FREQUENCY      100000
Info: BINARY RESTART FILES WILL BE USED
Info: CUTOFF                 9
Info: PAIRLIST DISTANCE      11
Info: PAIRLIST SHRINK RATE   0.01
Info: PAIRLIST GROW RATE     0.01
Info: PAIRLIST TRIGGER       0.3
Info: PAIRLISTS PER CYCLE    2
Info: PAIRLISTS ENABLED
Info: MARGIN                 2
Info: HYDROGEN GROUP CUTOFF  2.5
Info: PATCH DIMENSION        15.5
Info: ENERGY OUTPUT STEPS    100000
Info: ENERGY EVALUATION STEPS    100000
Info: OUTPUT ENERGY PRECISION 4
Info: CROSSTERM ENERGY INCLUDED IN DIHEDRAL
Info: TIMING OUTPUT STEPS    1000000
Info: PRESSURE OUTPUT STEPS  100000
Info: ALCHEMICAL FEP ON
Info: FEP CURRENT LAMBDA VALUE     1
Info: FEP COMPARISON LAMBDA VALUE  0.95
Info: FEP INTRA-ALCHEMICAL NON-BONDED INTERACTIONS WILL BE RETAINED
Info: FEP INTRA-ALCHEMICAL BONDED INTERACTIONS WILL BE RETAINED
Info: FEP VDW SHIFTING COEFFICIENT 5
Info: FEP ELEC. ACTIVE FOR ANNIHILATED PARTICLES BETWEEN LAMBDA = 0 AND LAMBDA = 0.5
Info: FEP ELEC. ACTIVE FOR EXNIHILATED PARTICLES BETWEEN LAMBDA = 0.5 AND LAMBDA = 1
Info: FEP VDW ACTIVE FOR ANNIHILATED PARTICLES BETWEEN LAMBDA = 0 AND LAMBDA = 1
Info: FEP VDW ACTIVE FOR EXNIHILATED PARTICLES BETWEEN LAMBDA = 0 AND LAMBDA = 1
Info: FEP BOND ACTIVE FOR ANNIHILATED PARTICLES BETWEEN LAMBDA = 1 AND LAMBDA = 1
Info: FEP BOND ACTIVE FOR EXNIHILATED PARTICLES BETWEEN LAMBDA = 0 AND LAMBDA = 0
Info: LANGEVIN DYNAMICS ACTIVE
Info: LANGEVIN TEMPERATURE   300
Info: LANGEVIN USING BBK INTEGRATOR
Info: LANGEVIN DAMPING COEFFICIENT IS 1 INVERSE PS
Info: LANGEVIN DYNAMICS APPLIED TO HYDROGENS
Info: LANGEVIN PISTON PRESSURE CONTROL ACTIVE
Info:        TARGET PRESSURE IS 1.01325 BAR
Info:     OSCILLATION PERIOD IS 50 FS
Info:             DECAY TIME IS 25 FS
Info:     PISTON TEMPERATURE IS 300 K
Info:       PRESSURE CONTROL IS GROUP-BASED
Info:    INITIAL STRAIN RATE IS 0.000153447 0.000153447 0.000153447
Info:       CELL FLUCTUATION IS ISOTROPIC
Info: PARTICLE MESH EWALD (PME) ACTIVE
Info: PME TOLERANCE               1e-06
Info: PME EWALD COEFFICIENT       0.348832
Info: PME INTERPOLATION ORDER     4
Info: PME GRID DIMENSIONS         32 32 36
Info: PME MAXIMUM GRID SPACING    1
Info: PME CALCULATION WILL BE PERFORMED ON GPU
Info: FULL ELECTROSTATIC EVALUATION FREQUENCY      2
Info: USING VERLET I (r-RESPA) MTS SCHEME.
Info: C1 SPLITTING OF LONG RANGE ELECTROSTATICS
Info: PLACING ATOMS IN PATCHES BY HYDROGEN GROUPS
Info: RIGID BONDS TO HYDROGEN : ALL
Info:         ERROR TOLERANCE : 1e-08
Info:          MAX ITERATIONS : 100
Info: RIGID WATER USING SETTLE ALGORITHM
Info: RANDOM NUMBER SEED     1743778268
Info: USE HYDROGEN BONDS?    NO
Info: Using AMBER format force field!
Info: AMBER PARM FILE        mobley_2295058.prmtop
Info: COORDINATE PDB         mobley_2295058.pdb
Info: Exclusions will be read from PARM file!
Info: SCNB (VDW SCALING)     2
Info: USING ARITHMETIC MEAN TO COMBINE L-J SIGMA PARAMETERS
Info: BINARY COORDINATES     mobley_2295058_equil.coor
Info: SUMMARY OF PARAMETERS:
Info: 11 BONDS
Info: 11 ANGLES
Info:   11 HARMONIC
Info:   0 COSINE-BASED
Info: 7 DIHEDRAL
Info: 0 IMPROPER
Info: 0 CROSSTERM
Info: 0 VDW
Info: 45 VDW_PAIRS
Info: 0 NBTHOLE_PAIRS
Info: To read alchdata from file: mobley_2295058.pdb
Info: To read alchflag data from column: 5
Info: STRUCTURE SUMMARY:
Info: 2938 ATOMS
Info: 2938 BONDS
Info: 29 ANGLES
Info: 43 DIHEDRALS
Info: 0 IMPROPERS
Info: 0 CROSSTERMS
Info: 2999 EXCLUSIONS
Info: 2927 RIGID BONDS
Info: ALCH: 0 ATOMS TO DISAPPEAR IN FINAL STATE
Info: ALCH: 19 ATOMS TO APPEAR IN FINAL STATE
Info: 5887 DEGREES OF FREEDOM
Info: 984 HYDROGEN GROUPS
Info: 4 ATOMS IN LARGEST HYDROGEN GROUP
Info: 984 MIGRATION GROUPS
Info: 4 ATOMS IN LARGEST MIGRATION GROUP
Info: TOTAL MASS = 17681.7 amu
Info: TOTAL CHARGE = -0.000200037 e
Info: MASS DENSITY = 0.977339 g/cm^3
Info: ATOM DENSITY = 0.0977943 atoms/A^3
Info: ADDED 0 IMPLICIT EXCLUSIONS
Info: NONBONDED TABLE R-SQUARED SPACING: 0.0625
Info: NONBONDED TABLE SIZE: 705 POINTS
Info: REMOVING COM VELOCITY 0.0954659 -0.0231683 -0.0655901
Info: Use 3D box decompostion in PME FFT.
Info: Updated CUDA force table with 4096 elements.
Info: Updated CUDA LJ table with 9 x 9 elements.
Info: Found 21 unique exclusion lists needing 52 bytes
TCL: Running for 1500000 steps
ETITLE: TS BOND ANGLE DIHED IMPRP ELECT VDW BOUNDARY MISC KINETIC TOTAL TEMP POTENTIAL TOTALAVG TEMPAVG PRESSURE GPRESSURE VOLUME PRESSAVG GPRESSAVG
ENERGY: 0 2.1112 4.0255 1.7738 0.0000 -10561.4734 1344.0571 0.0000 0.0000 1789.4757 -7420.0300 305.9301 -9209.5057 -7420.0300 305.9301 -538.3602 -446.6623 30042.6470 -538.3602 -446.6623
ENERGY: 300000 1.6086 3.7182 7.3150 0.0000 -10842.0138 1541.2515 0.0000 0.0000 1718.5498 -7569.5707 293.8045 -9288.1205 -7492.5332 300.3361 1067.9121 1133.3645 29659.7445 -35.8798 26.1420
ENERGY: 600000 1.8315 5.8444 3.8709 0.0000 -10618.0752 1397.9099 0.0000 0.0000 1775.2831 -7433.3355 303.5037 -9208.6186 -7492.8287 298.7673 -338.5886 -190.0489 30152.3444 3.7957 71.1370
ENERGY: 900000 5.4843 3.3642 2.4823 0.0000 -10655.9719 1399.3067 0.0000 0.0000 1760.1309 -7485.2036 300.9133 -9245.3345 -7474.2256 300.4994 -421.7598 -394.1582 30492.5779 20.9443 79.6328
ENERGY: 1200000 5.6077 8.9206 3.1572 0.0000 -10586.2774 1414.0198 0.0000 0.0000 1765.2022 -7389.3698 301.7802 -9154.5720 -7466.3552 300.7168 9.2097 80.0072 30380.8699 75.5781 138.0548
ENERGY: 1500000 6.0729 12.2195 6.8423 0.0000 -10705.4072 1444.3086 0.0000 0.0000 1800.5237 -7435.4400 307.8188 -9235.9638 -7455.7942 302.0883 230.0455 273.8888 30254.0896 147.0853 212.1378
TCL: Running FEP window   2: Lambda1 0.95   Lambda2 0.8999999999999999 [dLambda -0.050000000000000044]
TCL: Setting parameter firsttimestep to 0
TCL: Setting parameter alchLambda to 0.95
Info: NONBONDED TABLE R-SQUARED SPACING: 0.0625
Info: NONBONDED TABLE SIZE: 705 POINTS
TCL: Setting parameter alchLambda2 to 0.8999999999999999
Info: NONBONDED TABLE R-SQUARED SPACING: 0.0625
Info: NONBONDED TABLE SIZE: 705 POINTS
TCL: Running for 1500000 steps
ETITLE: TS BOND ANGLE DIHED IMPRP ELECT VDW BOUNDARY MISC KINETIC TOTAL TEMP POTENTIAL TOTALAVG TEMPAVG PRESSURE GPRESSURE VOLUME PRESSAVG GPRESSAVG
ENERGY: 0 6.0729 12.2195 6.8423 0.0000 -10703.9747 1444.1533 0.0000 0.0000 1799.6769 -7435.0097 307.6741 -9234.6866 -7435.0097 307.6741 182.1018 255.4449 30254.0896 182.1018 255.4449
ENERGY: 300000 5.4745 7.2286 5.7216 0.0000 -10542.2033 1335.4972 0.0000 0.0000 1720.7703 -7467.5112 294.1841 -9188.2814 -7480.7997 299.9574 -570.9800 -509.5156 30564.0950 32.1276 83.4819
ENERGY: 600000 4.9423 4.2060 4.0281 0.0000 -10596.8117 1387.6611 0.0000 0.0000 1742.4906 -7453.4836 297.8974 -9195.9741 -7463.1407 300.8203 -289.8906 -228.6506 30454.2684 -37.8198 31.7593
ENERGY: 900000 5.5339 8.6518 3.1202 0.0000 -10649.9982 1423.4377 0.0000 0.0000 1756.7679 -7452.4868 300.3383 -9209.2547 -7467.8332 299.9001 159.2820 129.1056 30036.1326 15.7331 72.8430
ENERGY: 1200000 2.3901 6.4698 3.4355 0.0000 -10678.6618 1466.3539 0.0000 0.0000 1706.5238 -7493.4887 291.7485 -9200.0125 -7458.6977 300.5542 373.4938 432.4166 30357.9217 32.5870 94.7366
ENERGY: 1500000 3.9521 5.5814 6.2449 0.0000 -10716.1277 1433.9393 0.0000 0.0000 1797.2799 -7469.1301 307.2643 -9266.4100 -7457.7726 301.2891 19.6710 18.4876 30117.6247 29.0743 92.2974
TCL: Running FEP window   3: Lambda1 0.8999999999999999 Lambda2 0.8499999999999999 [dLambda -0.050000000000000044]
TCL: Setting parameter firsttimestep to 0
TCL: Setting parameter alchLambda to 0.8999999999999999
Info: NONBONDED TABLE R-SQUARED SPACING: 0.0625
Info: NONBONDED TABLE SIZE: 705 POINTS
TCL: Setting parameter alchLambda2 to 0.8499999999999999
Info: NONBONDED TABLE R-SQUARED SPACING: 0.0625
Info: NONBONDED TABLE SIZE: 705 POINTS
TCL: Running for 1500000 steps
ETITLE: TS BOND ANGLE DIHED IMPRP ELECT VDW BOUNDARY MISC KINETIC TOTAL TEMP POTENTIAL TOTALAVG TEMPAVG PRESSURE GPRESSURE VOLUME PRESSAVG GPRESSAVG
ENERGY: 0 3.9521 5.5814 6.2449 0.0000 -10713.1411 1432.4324 0.0000 0.0000 1796.4094 -7468.5208 307.1155 -9264.9302 -7468.5208 307.1155 -89.2009 -9.6606 30117.6247 -89.2009 -9.6606
ENERGY: 300000 4.4876 6.4936 4.3943 0.0000 -10703.2247 1444.4515 0.0000 0.0000 1763.6859 -7479.7117 301.5210 -9243.3976 -7477.8125 300.9445 116.7895 159.6800 30324.1325 19.1574 65.6748
ENERGY: 600000 2.4506 5.8913 4.8342 0.0000 -10659.6698 1371.2102 0.0000 0.0000 1745.4274 -7529.8561 298.3995 -9275.2835 -7477.1925 299.9003 -725.4788 -645.7773 30456.9710 28.0412 73.5327
ENERGY: 900000 1.9592 4.8299 4.5753 0.0000 -10625.1860 1386.9104 0.0000 0.0000 1792.5168 -7434.3945 306.4500 -9226.9112 -7475.5709 298.6006 -380.3573 -299.3040 30104.5860 -59.4740 -1.8634
ENERGY: 1200000 4.7191 5.6747 6.1982 0.0000 -10771.0976 1467.0193 0.0000 0.0000 1720.0051 -7567.4812 294.0533 -9287.4863 -7480.8216 298.8090 300.1890 326.6026 29943.6139 27.9562 84.1828
ENERGY: 1500000 3.0499 6.7055 4.0470 0.0000 -10627.0963 1397.5792 0.0000 0.0000 1788.1402 -7427.5745 305.7017 -9215.7147 -7474.9091 300.0141 -98.3294 -44.9503 30118.3079 35.2770 94.0379
TCL: Running FEP window   4: Lambda1 0.8499999999999999 Lambda2 0.7999999999999998 [dLambda -0.050000000000000044]
TCL: Setting parameter firsttimestep to 0
TCL: Setting parameter alchLambda to 0.8499999999999999
Info: NONBONDED TABLE R-SQUARED SPACING: 0.0625
Info: NONBONDED TABLE SIZE: 705 POINTS
TCL: Setting parameter alchLambda2 to 0.7999999999999998
Info: NONBONDED TABLE R-SQUARED SPACING: 0.0625
Info: NONBONDED TABLE SIZE: 705 POINTS
TCL: Running for 1500000 steps
ETITLE: TS BOND ANGLE DIHED IMPRP ELECT VDW BOUNDARY MISC KINETIC TOTAL TEMP POTENTIAL TOTALAVG TEMPAVG PRESSURE GPRESSURE VOLUME PRESSAVG GPRESSAVG
ENERGY: 0 3.0499 6.7055 4.0470 0.0000 -10623.0182 1395.7882 0.0000 0.0000 1787.2750 -7426.1527 305.5538 -9213.4277 -7426.1527 305.5538 -148.4234 -69.9226 30118.3079 -148.4234 -69.9226
ENERGY: 300000 6.2077 6.7862 4.7128 0.0000 -10745.2253 1491.2900 0.0000 0.0000 1783.7595 -7452.4690 304.9528 -9236.2286 -7440.2689 302.5397 431.0190 518.0758 29896.4803 81.0908 172.5715
ENERGY: 600000 5.8907 3.6269 2.0108 0.0000 -10822.4454 1496.7237 0.0000 0.0000 1768.0975 -7546.0959 302.2752 -9314.1933 -7462.1481 301.8298 513.0025 570.2904 29627.8518 30.6397 116.4766
ENERGY: 900000 5.3691 5.1350 5.6818 0.0000 -10789.1278 1509.3589 0.0000 0.0000 1777.5027 -7486.0802 303.8831 -9263.5829 -7448.7620 302.7792 384.4741 482.5514 30127.4339 97.1726 180.0558
ENERGY: 1200000 2.9011 4.5056 2.3532 0.0000 -10651.1021 1429.6813 0.0000 0.0000 1725.4062 -7486.2547 294.9767 -9211.6609 -7446.4740 302.8011 -60.4873 -23.7417 30192.9077 102.8608 178.6083
ENERGY: 1500000 4.2068 4.1999 5.0970 0.0000 -10771.0421 1437.8937 0.0000 0.0000 1731.8701 -7587.7748 296.0818 -9319.6448 -7467.6585 301.3811 -191.0756 -80.1366 29964.6911 72.3755 145.5356
TCL: Running FEP window   5: Lambda1 0.7999999999999998 Lambda2 0.7499999999999998 [dLambda -0.050000000000000044]
TCL: Setting parameter firsttimestep to 0
TCL: Setting parameter alchLambda to 0.7999999999999998
Info: NONBONDED TABLE R-SQUARED SPACING: 0.0625
Info: NONBONDED TABLE SIZE: 705 POINTS
TCL: Setting parameter alchLambda2 to 0.7499999999999998
Info: NONBONDED TABLE R-SQUARED SPACING: 0.0625
Info: NONBONDED TABLE SIZE: 705 POINTS
TCL: Running for 1500000 steps
ETITLE: TS BOND ANGLE DIHED IMPRP ELECT VDW BOUNDARY MISC KINETIC TOTAL TEMP POTENTIAL TOTALAVG TEMPAVG PRESSURE GPRESSURE VOLUME PRESSAVG GPRESSAVG
ENERGY: 0 4.2068 4.1999 5.0970 0.0000 -10768.2776 1437.0444 0.0000 0.0000 1730.9970 -7586.7326 295.9325 -9317.7296 -7586.7326 295.9325 -181.4186 -95.2708 29964.6911 -181.4186 -95.2708
ENERGY: 300000 2.8061 3.8424 3.2023 0.0000 -10659.3719 1448.9337 0.0000 0.0000 1801.5461 -7399.0413 307.9936 -9200.5874 -7468.4086 301.5065 226.8342 258.0063 30412.6041 -29.8221 50.1556
ENERGY: 600000 2.8307 1.8917 3.2087 0.0000 -10544.9502 1350.8304 0.0000 0.0000 1750.0354 -7436.1534 299.1873 -9186.1888 -7471.4013 302.2397 -581.1911 -486.4672 30477.2494 -187.0696 -117.9281
ENERGY: 900000 6.8695 4.5761 7.3795 0.0000 -10712.0642 1424.6575 0.0000 0.0000 1744.8582 -7523.7233 298.3022 -9268.5816 -7457.0110 303.1261 -445.2655 -346.0928 30221.8187 -68.1367 5.5470
ENERGY: 1200000 3.3191 3.2344 2.4875 0.0000 -10647.3186 1449.6232 0.0000 0.0000 1757.1762 -7431.4781 300.4081 -9188.6543 -7462.5722 301.4876 209.5555 277.0233 30174.7754 16.3199 83.0907
ENERGY: 1500000 3.3945 5.0711 3.2240 0.0000 -10572.3716 1370.1318 0.0000 0.0000 1792.0852 -7398.4650 306.3762 -9190.5502 -7461.8353 301.5347 -316.8010 -252.7239 30328.4865 -82.0326 -16.7050
TCL: Running FEP window   6: Lambda1 0.7499999999999998 Lambda2 0.6999999999999997 [dLambda -0.050000000000000044]
TCL: Setting parameter firsttimestep to 0
TCL: Setting parameter alchLambda to 0.7499999999999998
Info: NONBONDED TABLE R-SQUARED SPACING: 0.0625
Info: NONBONDED TABLE SIZE: 705 POINTS
TCL: Setting parameter alchLambda2 to 0.6999999999999997
Info: NONBONDED TABLE R-SQUARED SPACING: 0.0625
Info: NONBONDED TABLE SIZE: 705 POINTS
TCL: Running for 1500000 steps
ETITLE: TS BOND ANGLE DIHED IMPRP ELECT VDW BOUNDARY MISC KINETIC TOTAL TEMP POTENTIAL TOTALAVG TEMPAVG PRESSURE GPRESSURE VOLUME PRESSAVG GPRESSAVG
ENERGY: 0 3.3945 5.0711 3.2240 0.0000 -10569.3645 1369.5703 0.0000 0.0000 1791.2271 -7396.8774 306.2295 -9188.1045 -7396.8774 306.2295 -344.0482 -263.3989 30328.4865 -344.0482 -263.3989
ENERGY: 300000 4.2628 8.3570 2.6969 0.0000 -10717.8708 1448.7961 0.0000 0.0000 1747.3617 -7506.3963 298.7302 -9253.7580 -7452.2743 302.9612 240.9926 280.4830 29786.2467 127.6296 170.7452
ENERGY: 600000 2.7191 4.9436 2.1415 0.0000 -10768.6936 1459.4848 0.0000 0.0000 1693.0378 -7606.3667 289.4430 -9299.4045 -7467.3389 298.8551 162.2935 166.4207 29803.8408 157.4552 200.0378
ENERGY: 900000 5.5721 5.3754 3.1718 0.0000 -10498.1975 1320.0165 0.0000 0.0000 1771.9160 -7392.1457 302.9280 -9164.0617 -7462.6690 299.1387 -1227.0050 -1218.4077 30938.4469 19.3495 48.2056
ENERGY: 1200000 3.1138 7.2750 4.4321 0.0000 -10700.3510 1501.4825 0.0000 0.0000 1752.8642 -7431.1834 299.6709 -9184.0476 -7456.1134 299.9111 924.5266 962.4889 29970.5799 25.1041 62.3323
ENERGY: 1500000 6.2938 8.2756 2.7996 0.0000 -10767.2042 1467.2439 0.0000 0.0000 1809.9580 -7472.6332 309.4317 -9282.5912 -7455.2615 300.1048 73.8496 125.6304 30020.2858 -4.2865 36.9130
TCL: Running FEP window   7: Lambda1 0.6999999999999997 Lambda2 0.6499999999999997 [dLambda -0.050000000000000044]
TCL: Setting parameter firsttimestep to 0
TCL: Setting parameter alchLambda to 0.6999999999999997
Info: NONBONDED TABLE R-SQUARED SPACING: 0.0625
Info: NONBONDED TABLE SIZE: 705 POINTS
TCL: Setting parameter alchLambda2 to 0.6499999999999997
Info: NONBONDED TABLE R-SQUARED SPACING: 0.0625
Info: NONBONDED TABLE SIZE: 705 POINTS
TCL: Running for 1500000 steps
ETITLE: TS BOND ANGLE DIHED IMPRP ELECT VDW BOUNDARY MISC KINETIC TOTAL TEMP POTENTIAL TOTALAVG TEMPAVG PRESSURE GPRESSURE VOLUME PRESSAVG GPRESSAVG
ENERGY: 0 6.2938 8.2756 2.7996 0.0000 -10764.6010 1466.3218 0.0000 0.0000 1809.0517 -7471.8585 309.2768 -9280.9102 -7471.8585 309.2768 32.4475 112.8261 30020.2858 32.4475 112.8261
ENERGY: 300000 4.8478 3.0342 10.1307 0.0000 -10697.1575 1486.4212 0.0000 0.0000 1802.3023 -7390.4213 308.1229 -9192.7236 -7417.4978 304.7814 527.6026 615.1594 30343.1187 30.6390 101.3551
ENERGY: 600000 3.8236 4.4908 5.7063 0.0000 -10730.9431 1501.3762 0.0000 0.0000 1762.2203 -7453.3259 301.2705 -9215.5462 -7434.2506 304.6538 869.0849 901.3953 29840.9045 40.1843 117.0029
ENERGY: 900000 2.3940 4.9006 8.8163 0.0000 -10786.9761 1500.7559 0.0000 0.0000 1750.2659 -7519.8434 299.2267 -9270.1093 -7453.2801 302.7987 380.8712 468.8639 30066.5502 104.0118 175.1373
ENERGY: 1200000 3.0541 2.4686 3.1372 0.0000 -10761.4482 1432.2473 0.0000 0.0000 1723.2556 -7597.2855 294.6090 -9320.5411 -7465.5129 301.6119 -29.2134 -10.5368 29803.0741 82.1524 142.6608
ENERGY: 1500000 4.7797 6.3274 5.4581 0.0000 -10811.2761 1517.2073 0.0000 0.0000 1756.7675 -7520.7360 300.3382 -9277.5036 -7463.7882 300.6130 366.1374 384.3866 30407.4616 58.5760 115.8892
TCL: Running FEP window   8: Lambda1 0.6499999999999997 Lambda2 0.5999999999999996 [dLambda -0.050000000000000044]
TCL: Setting parameter firsttimestep to 0
TCL: Setting parameter alchLambda to 0.6499999999999997
Info: NONBONDED TABLE R-SQUARED SPACING: 0.0625
Info: NONBONDED TABLE SIZE: 705 POINTS
TCL: Setting parameter alchLambda2 to 0.5999999999999996
Info: NONBONDED TABLE R-SQUARED SPACING: 0.0625
Info: NONBONDED TABLE SIZE: 705 POINTS
TCL: Running for 1500000 steps
ETITLE: TS BOND ANGLE DIHED IMPRP ELECT VDW BOUNDARY MISC KINETIC TOTAL TEMP POTENTIAL TOTALAVG TEMPAVG PRESSURE GPRESSURE VOLUME PRESSAVG GPRESSAVG
ENERGY: 0 4.7797 6.3274 5.4581 0.0000 -10810.1236 1516.8632 0.0000 0.0000 1755.8998 -7520.7953 300.1899 -9276.6951 -7520.7953 300.1899 300.2688 370.9031 30407.4616 300.2688 370.9031
ENERGY: 300000 4.0634 9.1609 3.6108 0.0000 -10609.0900 1405.2710 0.0000 0.0000 1756.9825 -7430.0013 300.3750 -9186.9838 -7438.2528 301.8030 -247.7695 -196.4150 30171.1952 -36.3365 34.8666
ENERGY: 600000 3.3549 8.6029 4.2767 0.0000 -10746.6782 1486.8103 0.0000 0.0000 1775.4449 -7468.1885 303.5313 -9243.6334 -7427.8061 303.4386 437.5758 527.8843 29803.4246 187.1900 254.8213
ENERGY: 900000 4.5242 8.0894 6.8456 0.0000 -10596.1636 1371.9827 0.0000 0.0000 1728.6604 -7476.0614 295.5330 -9204.7217 -7442.6589 301.7295 -383.0412 -241.5745 29836.7558 148.2399 226.9966
ENERGY: 1200000 3.0670 7.5677 5.3027 0.0000 -10624.2267 1416.0682 0.0000 0.0000 1733.2891 -7458.9321 296.3244 -9192.2212 -7444.2540 301.4564 107.5140 113.0854 30183.6868 143.3165 215.5069
ENERGY: 1500000 1.9960 7.7350 4.4258 0.0000 -10625.7758 1424.3284 0.0000 0.0000 1780.3325 -7406.9580 304.3669 -9187.2905 -7444.1543 300.4922 -172.4988 -114.2475 30455.6322 146.8684 219.0039
TCL: Running FEP window   9: Lambda1 0.5999999999999996 Lambda2 0.5499999999999996 [dLambda -0.050000000000000044]
TCL: Setting parameter firsttimestep to 0
TCL: Setting parameter alchLambda to 0.5999999999999996
Info: NONBONDED TABLE R-SQUARED SPACING: 0.0625
Info: NONBONDED TABLE SIZE: 705 POINTS
TCL: Setting parameter alchLambda2 to 0.5499999999999996
Info: NONBONDED TABLE R-SQUARED SPACING: 0.0625
Info: NONBONDED TABLE SIZE: 705 POINTS
TCL: Running for 1500000 steps
ETITLE: TS BOND ANGLE DIHED IMPRP ELECT VDW BOUNDARY MISC KINETIC TOTAL TEMP POTENTIAL TOTALAVG TEMPAVG PRESSURE GPRESSURE VOLUME PRESSAVG GPRESSAVG
ENERGY: 0 1.9960 7.7350 4.4258 0.0000 -10624.5057 1424.8119 0.0000 0.0000 1779.4809 -7406.0561 304.2213 -9185.5370 -7406.0561 304.2213 -189.1229 -114.8154 30455.6322 -189.1229 -114.8154
ENERGY: 300000 2.9579 6.4257 3.0366 0.0000 -10850.6188 1557.7060 0.0000 0.0000 1689.3666 -7591.1260 288.8153 -9280.4925 -7434.0899 299.9849 1048.2648 1061.2214 29812.2164 364.9811 427.9607
ENERGY: 600000 5.8594 4.7501 4.3164 0.0000 -10641.4580 1417.7907 0.0000 0.0000 1812.4801 -7396.2613 309.8629 -9208.7414 -7455.2051 299.6470 -143.0920 -156.6637 30218.7865 183.9711 244.0891
ENERGY: 900000 4.1104 5.8469 5.2017 0.0000 -10582.6517 1374.6743 0.0000 0.0000 1699.5391 -7493.2793 290.5544 -9192.8184 -7465.5471 298.4759 -594.9274 -526.9513 30437.4634 20.2299 69.6798
ENERGY: 1200000 2.4777 9.3450 3.4570 0.0000 -10699.4203 1476.9312 0.0000 0.0000 1751.1948 -7456.0147 299.3855 -9207.2095 -7471.2970 298.4881 291.7976 325.3498 30303.2534 3.2350 58.6564
ENERGY: 1500000 2.8756 4.4469 6.4186 0.0000 -10567.3631 1329.1398 0.0000 0.0000 1788.8954 -7435.5868 305.8309 -9224.4823 -7459.7769 299.6299 -611.4996 -628.8569 30157.0857 -102.4669 -54.3070
TCL: Running FEP window  10: Lambda1 0.5499999999999996 Lambda2 0.4999999999999996 [dLambda -0.04999999999999999]
TCL: Setting parameter firsttimestep to 0
TCL: Setting parameter alchLambda to 0.5499999999999996
Info: NONBONDED TABLE R-SQUARED SPACING: 0.0625
Info: NONBONDED TABLE SIZE: 705 POINTS
TCL: Setting parameter alchLambda2 to 0.4999999999999996
Info: NONBONDED TABLE R-SQUARED SPACING: 0.0625
Info: NONBONDED TABLE SIZE: 705 POINTS
TCL: Running for 1500000 steps
ETITLE: TS BOND ANGLE DIHED IMPRP ELECT VDW BOUNDARY MISC KINETIC TOTAL TEMP POTENTIAL TOTALAVG TEMPAVG PRESSURE GPRESSURE VOLUME PRESSAVG GPRESSAVG
ENERGY: 0 2.8756 4.4468 6.4186 0.0000 -10566.8255 1329.3269 0.0000 0.0000 1788.0200 -7435.7377 305.6812 -9223.7576 -7435.7377 305.6812 -712.9364 -634.0367 30157.0857 -712.9364 -634.0367
ENERGY: 300000 7.7599 5.7186 5.3518 0.0000 -10622.5893 1398.4104 0.0000 0.0000 1803.7801 -7401.5684 308.3756 -9205.3485 -7407.1522 304.9143 -404.2899 -347.9682 30367.4071 -379.6868 -321.7485
ENERGY: 600000 3.4237 7.9420 3.1767 0.0000 -10658.1402 1449.4909 0.0000 0.0000 1689.7289 -7504.3779 288.8773 -9194.1068 -7430.5031 298.3829 287.5053 284.2625 30122.4243 -249.5323 -182.9695
ENERGY: 900000 4.9301 4.3592 5.4024 0.0000 -10544.6132 1382.0313 0.0000 0.0000 1758.2846 -7389.6056 300.5976 -9147.8902 -7437.5871 298.7170 -274.5697 -226.5689 30428.1989 -339.6240 -275.7055
ENERGY: 1200000 3.3070 5.4127 3.9804 0.0000 -10581.9991 1366.2566 0.0000 0.0000 1743.5162 -7459.5262 298.0728 -9203.0423 -7443.9073 298.9863 -637.8943 -567.3186 30279.0929 -350.9586 -288.6188
ENERGY: 1500000 2.8514 6.6714 5.8191 0.0000 -10578.5141 1373.8877 0.0000 0.0000 1756.6647 -7432.6197 300.3207 -9189.2845 -7439.1459 299.5030 -364.1150 -318.3579 30362.7847 -232.0274 -171.5827
TCL: Running FEP window  11: Lambda1 0.4999999999999996 Lambda2 0.4499999999999996 [dLambda -0.04999999999999999]
TCL: Setting parameter firsttimestep to 0
TCL: Setting parameter alchLambda to 0.4999999999999996
Info: NONBONDED TABLE R-SQUARED SPACING: 0.0625
Info: NONBONDED TABLE SIZE: 705 POINTS
TCL: Setting parameter alchLambda2 to 0.4499999999999996
Info: NONBONDED TABLE R-SQUARED SPACING: 0.0625
Info: NONBONDED TABLE SIZE: 705 POINTS
TCL: Running for 1500000 steps
ETITLE: TS BOND ANGLE DIHED IMPRP ELECT VDW BOUNDARY MISC KINETIC TOTAL TEMP POTENTIAL TOTALAVG TEMPAVG PRESSURE GPRESSURE VOLUME PRESSAVG GPRESSAVG
ENERGY: 0 2.8514 6.6714 5.8191 0.0000 -10577.7637 1374.3949 0.0000 0.0000 1755.7741 -7432.2528 300.1684 -9188.0269 -7432.2528 300.1684 -403.6825 -319.0670 30362.7847 -403.6825 -319.0670
ENERGY: 300000 2.6816 6.2193 6.3558 0.0000 -10417.9949 1272.2232 0.0000 0.0000 1734.1610 -7396.3541 296.4734 -9130.5150 -7423.3738 298.2868 -1110.8853 -1066.9730 30694.3607 -387.2395 -314.6536
ENERGY: 600000 3.3466 3.9294 4.3595 0.0000 -10584.7437 1384.2241 0.0000 0.0000 1728.6354 -7460.2488 295.5288 -9188.8841 -7428.5861 301.1089 -339.4565 -235.3582 30110.6309 -227.1000 -167.4395
ENERGY: 900000 4.6321 7.0431 4.5137 0.0000 -10651.9896 1432.7426 0.0000 0.0000 1738.2429 -7464.8152 297.1713 -9203.0581 -7439.6771 301.3599 56.7897 120.6557 30490.2226 -147.8337 -92.2583
ENERGY: 1200000 2.5490 3.3588 1.8161 0.0000 -10726.2255 1480.1704 0.0000 0.0000 1736.9070 -7501.4242 296.9429 -9238.3312 -7449.3454 300.5904 120.4076 170.5029 30489.4335 -147.4009 -90.1451
ENERGY: 1500000 0.9502 7.7548 4.1425 0.0000 -10667.6192 1353.6442 0.0000 0.0000 1749.4570 -7551.6706 299.0884 -9301.1275 -7461.4560 300.0176 -656.5872 -629.8845 29697.8961 -183.0898 -126.7584
TCL: Running FEP window  12: Lambda1 0.4499999999999996 Lambda2 0.39999999999999963 [dLambda -0.04999999999999999]
TCL: Setting parameter firsttimestep to 0
TCL: Setting parameter alchLambda to 0.4499999999999996
Info: NONBONDED TABLE R-SQUARED SPACING: 0.0625
Info: NONBONDED TABLE SIZE: 705 POINTS
TCL: Setting parameter alchLambda2 to 0.39999999999999963
Info: NONBONDED TABLE R-SQUARED SPACING: 0.0625
Info: NONBONDED TABLE SIZE: 705 POINTS
TCL: Running for 1500000 steps
ETITLE: TS BOND ANGLE DIHED IMPRP ELECT VDW BOUNDARY MISC KINETIC TOTAL TEMP POTENTIAL TOTALAVG TEMPAVG PRESSURE GPRESSURE VOLUME PRESSAVG GPRESSAVG
ENERGY: 0 0.9502 7.7547 4.1425 0.0000 -10667.6189 1353.8045 0.0000 0.0000 1748.6161 -7552.3508 298.9447 -9300.9669 -7552.3508 298.9447 -720.7313 -637.7610 29697.8961 -720.7313 -637.7610
ENERGY: 300000 7.3207 3.2364 5.8790 0.0000 -10701.6889 1497.9484 0.0000 0.0000 1813.7266 -7373.5778 310.0760 -9187.3044 -7432.6758 304.3288 756.9394 781.1004 30136.9922 100.9006 139.0634
ENERGY: 600000 4.2747 2.3387 4.0607 0.0000 -10686.4057 1471.2128 0.0000 0.0000 1731.1868 -7473.3320 295.9650 -9204.5188 -7417.3364 302.7249 14.9056 120.2682 30521.2498 32.5324 95.6213
ENERGY: 900000 3.2840 3.3475 7.2007 0.0000 -10506.8690 1378.8366 0.0000 0.0000 1722.1537 -7392.0465 294.4206 -9114.2002 -7394.9456 301.8966 -219.2336 -170.7410 30310.4826 -97.0639 -37.9065
ENERGY: 1200000 6.3312 5.0100 3.4242 0.0000 -10693.2518 1446.4784 0.0000 0.0000 1780.6659 -7451.3421 304.4239 -9232.0080 -7394.0190 302.0620 233.4493 248.7288 30032.1603 -124.9136 -71.6071
ENERGY: 1500000 3.7777 2.7691 5.2062 0.0000 -10605.0444 1339.2655 0.0000 0.0000 1794.2829 -7459.7430 306.7519 -9254.0259 -7406.4607 302.3173 -815.3059 -807.0675 30209.1853 -202.0100 -154.3317
TCL: Running FEP window  13: Lambda1 0.39999999999999963 Lambda2 0.34999999999999964 [dLambda -0.04999999999999999]
TCL: Setting parameter firsttimestep to 0
TCL: Setting parameter alchLambda to 0.39999999999999963
Info: NONBONDED TABLE R-SQUARED SPACING: 0.0625
Info: NONBONDED TABLE SIZE: 705 POINTS
TCL: Setting parameter alchLambda2 to 0.34999999999999964
Info: NONBONDED TABLE R-SQUARED SPACING: 0.0625
Info: NONBONDED TABLE SIZE: 705 POINTS
TCL: Running for 1500000 steps
ETITLE: TS BOND ANGLE DIHED IMPRP ELECT VDW BOUNDARY MISC KINETIC TOTAL TEMP POTENTIAL TOTALAVG TEMPAVG PRESSURE GPRESSURE VOLUME PRESSAVG GPRESSAVG
ENERGY: 0 3.7777 2.7691 5.2062 0.0000 -10605.0447 1339.5883 0.0000 0.0000 1793.4109 -7460.2924 306.6028 -9253.7034 -7460.2924 306.6028 -896.9386 -814.6106 30209.1853 -896.9386 -814.6106
ENERGY: 300000 4.7796 7.4151 6.0119 0.0000 -10660.9341 1400.7425 0.0000 0.0000 1763.9351 -7478.0498 301.5636 -9241.9849 -7415.1065 305.5137 -706.2304 -516.1971 30561.6421 -415.3832 -314.9506
ENERGY: 600000 4.4496 5.0960 6.8316 0.0000 -10664.4944 1442.7440 0.0000 0.0000 1736.7425 -7468.6307 296.9148 -9205.3732 -7435.9546 302.4874 -34.0859 3.1283 30369.9654 -284.3755 -211.8158
ENERGY: 900000 5.8556 3.5346 3.6256 0.0000 -10610.1730 1395.2447 0.0000 0.0000 1806.5154 -7395.3971 308.8432 -9201.9124 -7443.6953 301.8949 -412.4781 -365.4458 30129.9254 -196.5522 -125.3437
ENERGY: 1200000 2.8046 6.6544 3.5057 0.0000 -10549.1447 1285.0713 0.0000 0.0000 1785.6392 -7465.4696 305.2742 -9251.1088 -7435.5317 302.5987 -949.0437 -879.1692 29686.4110 -201.8503 -127.4801
ENERGY: 1500000 3.0584 3.0998 3.8702 0.0000 -10626.8686 1394.4229 0.0000 0.0000 1715.0153 -7507.4020 293.2003 -9222.4173 -7439.4382 302.4712 -141.1631 -128.8796 30058.4555 -167.2482 -102.0680
TCL: Running FEP window  14: Lambda1 0.34999999999999964 Lambda2 0.29999999999999966 [dLambda -0.04999999999999999]
TCL: Setting parameter firsttimestep to 0
TCL: Setting parameter alchLambda to 0.34999999999999964
Info: NONBONDED TABLE R-SQUARED SPACING: 0.0625
Info: NONBONDED TABLE SIZE: 705 POINTS
TCL: Setting parameter alchLambda2 to 0.29999999999999966
Info: NONBONDED TABLE R-SQUARED SPACING: 0.0625
Info: NONBONDED TABLE SIZE: 705 POINTS
TCL: Running for 1500000 steps
ETITLE: TS BOND ANGLE DIHED IMPRP ELECT VDW BOUNDARY MISC KINETIC TOTAL TEMP POTENTIAL TOTALAVG TEMPAVG PRESSURE GPRESSURE VOLUME PRESSAVG GPRESSAVG
ENERGY: 0 3.0584 3.0998 3.8702 0.0000 -10626.8699 1394.9611 0.0000 0.0000 1714.1749 -7507.7056 293.0566 -9221.8805 -7507.7056 293.0566 -214.0342 -127.2614 30058.4555 -214.0342 -127.2614
ENERGY: 300000 3.4645 6.1350 2.8210 0.0000 -10681.4620 1395.0101 0.0000 0.0000 1731.9558 -7542.0756 296.0964 -9274.0314 -7471.0065 301.4915 -543.1025 -478.9504 30196.0354 -83.0158 -26.5229
ENERGY: 600000 4.2878 5.9711 2.0278 0.0000 -10761.4477 1560.0557 0.0000 0.0000 1730.9814 -7458.1239 295.9298 -9189.1053 -7475.7173 300.6315 1110.2516 1170.9064 30129.0701 113.2811 178.4283
ENERGY: 900000 4.4340 4.1596 5.7318 0.0000 -10510.3454 1318.7624 0.0000 0.0000 1744.1703 -7433.0873 298.1846 -9177.2576 -7464.7436 300.7234 -952.6537 -931.7066 30228.8255 -107.6261 -50.8576
ENERGY: 1200000 8.0550 3.4867 5.1666 0.0000 -10707.9233 1473.2828 0.0000 0.0000 1797.0874 -7420.8447 307.2314 -9217.9321 -7452.5975 301.7255 88.6570 171.4062 30138.4141 -153.9901 -86.1465
ENERGY: 1500000 4.9850 6.2617 2.9827 0.0000 -10774.4185 1495.8611 0.0000 0.0000 1767.3931 -7496.9350 302.1548 -9264.3280 -7455.5251 301.9370 -19.5862 105.8561 30506.1038 -169.4362 -96.4498
TCL: Running FEP window  15: Lambda1 0.29999999999999966 Lambda2 0.24999999999999967 [dLambda -0.04999999999999999]
TCL: Setting parameter firsttimestep to 0
TCL: Setting parameter alchLambda to 0.29999999999999966
Info: NONBONDED TABLE R-SQUARED SPACING: 0.0625
Info: NONBONDED TABLE SIZE: 705 POINTS
TCL: Setting parameter alchLambda2 to 0.24999999999999967
Info: NONBONDED TABLE R-SQUARED SPACING: 0.0625
Info: NONBONDED TABLE SIZE: 705 POINTS
TCL: Running for 1500000 steps
ETITLE: TS BOND ANGLE DIHED IMPRP ELECT VDW BOUNDARY MISC KINETIC TOTAL TEMP POTENTIAL TOTALAVG TEMPAVG PRESSURE GPRESSURE VOLUME PRESSAVG GPRESSAVG
ENERGY: 0 4.9850 6.2617 2.9827 0.0000 -10774.4183 1495.9632 0.0000 0.0000 1766.5432 -7497.6825 302.0095 -9264.2257 -7497.6825 302.0095 18.0416 99.4431 30506.1038 18.0416 99.4431
ENERGY: 300000 2.5990 10.1842 7.3909 0.0000 -10809.5747 1512.7630 0.0000 0.0000 1777.3972 -7499.2404 303.8651 -9276.6376 -7472.8533 301.2689 267.6077 250.3112 29953.5813 -199.6918 -166.6043
ENERGY: 600000 2.5729 4.9676 6.1539 0.0000 -10583.8748 1387.0158 0.0000 0.0000 1728.9633 -7454.2014 295.5848 -9183.1646 -7452.8629 300.4931 -322.9175 -243.1526 30274.0851 -370.1608 -319.5055
ENERGY: 900000 5.5517 3.7847 5.3174 0.0000 -10645.5241 1448.2745 0.0000 0.0000 1720.5180 -7462.0777 294.1410 -9182.5957 -7457.4690 299.0443 538.8882 653.5707 29711.5197 -374.8524 -308.5129
ENERGY: 1200000 4.5488 4.1916 8.7694 0.0000 -10671.8362 1447.8199 0.0000 0.0000 1735.3630 -7471.1435 296.6789 -9206.5065 -7458.1990 298.8188 40.1359 72.4346 30295.2657 -264.3898 -197.3831
ENERGY: 1500000 5.1210 6.9469 2.3002 0.0000 -10664.9092 1484.4421 0.0000 0.0000 1785.8874 -7380.2116 305.3166 -9166.0990 -7457.4449 299.0617 494.0550 548.0191 30017.7014 -212.8552 -147.5768
TCL: Running FEP window  16: Lambda1 0.24999999999999967 Lambda2 0.19999999999999968 [dLambda -0.04999999999999999]
TCL: Setting parameter firsttimestep to 0
TCL: Setting parameter alchLambda to 0.24999999999999967
Info: NONBONDED TABLE R-SQUARED SPACING: 0.0625
Info: NONBONDED TABLE SIZE: 705 POINTS
TCL: Setting parameter alchLambda2 to 0.19999999999999968
Info: NONBONDED TABLE R-SQUARED SPACING: 0.0625
Info: NONBONDED TABLE SIZE: 705 POINTS
TCL: Running for 1500000 steps
ETITLE: TS BOND ANGLE DIHED IMPRP ELECT VDW BOUNDARY MISC KINETIC TOTAL TEMP POTENTIAL TOTALAVG TEMPAVG PRESSURE GPRESSURE VOLUME PRESSAVG GPRESSAVG
ENERGY: 0 5.1211 6.9469 2.3002 0.0000 -10664.9096 1484.8413 0.0000 0.0000 1785.0097 -7380.6905 305.1665 -9165.7001 -7380.6905 305.1665 465.5914 547.4089 30017.7014 465.5914 547.4089
ENERGY: 300000 2.2865 2.8747 7.4887 0.0000 -10640.4235 1379.7294 0.0000 0.0000 1765.1029 -7482.9413 301.7633 -9248.0443 -7402.6355 307.1282 -362.5270 -369.2621 30042.5600 -14.0096 27.5904
ENERGY: 600000 3.0700 4.3902 4.1605 0.0000 -10695.8041 1490.9807 0.0000 0.0000 1796.1254 -7397.0773 307.0669 -9193.2026 -7428.0301 303.9394 757.3706 821.0570 29884.5102 19.3163 69.6854
ENERGY: 900000 2.3957 6.2182 4.9423 0.0000 -10751.0096 1556.2156 0.0000 0.0000 1739.3305 -7441.9073 297.3572 -9181.2378 -7426.4883 302.0436 886.5438 990.2438 30484.8956 75.7175 135.8147
ENERGY: 1200000 5.1914 7.7112 2.9647 0.0000 -10586.8355 1421.2211 0.0000 0.0000 1757.3530 -7392.3940 300.4383 -9149.7470 -7430.7044 301.5447 -47.9608 43.2124 30336.8899 67.5289 130.0702
ENERGY: 1500000 3.8081 6.2643 3.2969 0.0000 -10607.5101 1417.6502 0.0000 0.0000 1747.5204 -7428.9701 298.7574 -9176.4906 -7428.4554 301.5513 -311.2886 -266.6346 30411.2878 -33.1264 26.3155
TCL: Running FEP window  17: Lambda1 0.19999999999999968 Lambda2 0.1499999999999997 [dLambda -0.04999999999999999]
TCL: Setting parameter firsttimestep to 0
TCL: Setting parameter alchLambda to 0.19999999999999968
Info: NONBONDED TABLE R-SQUARED SPACING: 0.0625
Info: NONBONDED TABLE SIZE: 705 POINTS
TCL: Setting parameter alchLambda2 to 0.1499999999999997
Info: NONBONDED TABLE R-SQUARED SPACING: 0.0625
Info: NONBONDED TABLE SIZE: 705 POINTS
TCL: Running for 1500000 steps
ETITLE: TS BOND ANGLE DIHED IMPRP ELECT VDW BOUNDARY MISC KINETIC TOTAL TEMP POTENTIAL TOTALAVG TEMPAVG PRESSURE GPRESSURE VOLUME PRESSAVG GPRESSAVG
ENERGY: 0 3.8081 6.2643 3.2969 0.0000 -10607.5097 1418.1733 0.0000 0.0000 1746.6644 -7429.3026 298.6110 -9175.9670 -7429.3026 298.6110 -363.8121 -268.5456 30411.2878 -363.8121 -268.5456
ENERGY: 300000 2.4738 7.3446 4.2664 0.0000 -10564.4596 1345.7082 0.0000 0.0000 1732.3454 -7472.3212 296.1630 -9204.6667 -7427.3416 296.4361 -729.5703 -661.2430 30434.6697 -199.3591 -122.8542
ENERGY: 600000 11.1673 6.8847 6.6577 0.0000 -10699.8076 1509.3847 0.0000 0.0000 1743.1468 -7422.5663 298.0096 -9165.7132 -7427.0347 297.0937 383.9309 448.9704 30493.1874 65.3551 135.7038
ENERGY: 900000 5.3423 6.3296 2.7561 0.0000 -10570.8911 1426.0873 0.0000 0.0000 1762.6185 -7367.7573 301.3385 -9130.3758 -7419.2808 297.7029 -47.8455 27.2957 30584.3680 -49.4711 18.1927
ENERGY: 1200000 4.6751 6.8534 2.6956 0.0000 -10796.9917 1584.0298 0.0000 0.0000 1727.1165 -7471.6214 295.2691 -9198.7379 -7432.6401 297.4672 1119.4926 1125.5281 30174.1834 45.8750 103.5923
ENERGY: 1500000 1.9737 3.5830 4.3089 0.0000 -10617.8441 1404.0868 0.0000 0.0000 1731.4854 -7472.4063 296.0160 -9203.8916 -7444.3605 297.4137 -320.4243 -337.5787 30285.7332 38.1591 94.1059
TCL: Running FEP window  18: Lambda1 0.1499999999999997 Lambda2 0.09999999999999969 [dLambda -0.05 ]
TCL: Setting parameter firsttimestep to 0
TCL: Setting parameter alchLambda to 0.1499999999999997
Info: NONBONDED TABLE R-SQUARED SPACING: 0.0625
Info: NONBONDED TABLE SIZE: 705 POINTS
TCL: Setting parameter alchLambda2 to 0.09999999999999969
Info: NONBONDED TABLE R-SQUARED SPACING: 0.0625
Info: NONBONDED TABLE SIZE: 705 POINTS
TCL: Running for 1500000 steps
ETITLE: TS BOND ANGLE DIHED IMPRP ELECT VDW BOUNDARY MISC KINETIC TOTAL TEMP POTENTIAL TOTALAVG TEMPAVG PRESSURE GPRESSURE VOLUME PRESSAVG GPRESSAVG
ENERGY: 0 1.9737 3.5830 4.3089 0.0000 -10617.8441 1404.6371 0.0000 0.0000 1730.5953 -7472.7460 295.8638 -9203.3413 -7472.7460 295.8638 -425.9212 -337.1359 30285.7332 -425.9212 -337.1359
ENERGY: 300000 3.0772 9.2192 3.4810 0.0000 -10605.2975 1429.0599 0.0000 0.0000 1726.8912 -7433.5689 295.2306 -9160.4601 -7438.5349 297.8904 -99.2003 4.7160 30310.8386 -229.7485 -143.0881
ENERGY: 600000 2.7683 6.2505 3.5775 0.0000 -10753.6173 1413.4277 0.0000 0.0000 1730.1302 -7597.4631 295.7843 -9327.5933 -7450.0978 298.8667 -587.2969 -555.6142 30321.2418 -337.0682 -253.5810
ENERGY: 900000 2.9873 5.5228 1.8439 0.0000 -10609.0944 1433.1483 0.0000 0.0000 1734.6624 -7430.9297 296.5591 -9165.5921 -7452.7152 299.2922 -75.3101 -68.8143 30504.6184 -192.4791 -117.5149
ENERGY: 1200000 1.4792 5.1802 8.4551 0.0000 -10794.7442 1514.9279 0.0000 0.0000 1745.1553 -7519.5466 298.3530 -9264.7018 -7465.0375 299.2931 605.8222 697.8844 29989.8350 -20.8693 48.7771
ENERGY: 1500000 3.7721 5.6641 1.6861 0.0000 -10517.7105 1392.7224 0.0000 0.0000 1726.6628 -7387.2031 295.1915 -9113.8658 -7454.0323 299.6075 -16.2100 70.1081 29907.0801 -50.8499 25.2150
TCL: Running FEP window  19: Lambda1 0.09999999999999969 Lambda2 0.049999999999999684 [dLambda -0.05 ]
TCL: Setting parameter firsttimestep to 0
TCL: Setting parameter alchLambda to 0.09999999999999969
Info: NONBONDED TABLE R-SQUARED SPACING: 0.0625
Info: NONBONDED TABLE SIZE: 705 POINTS
TCL: Setting parameter alchLambda2 to 0.049999999999999684
Info: NONBONDED TABLE R-SQUARED SPACING: 0.0625
Info: NONBONDED TABLE SIZE: 705 POINTS
TCL: Running for 1500000 steps
ETITLE: TS BOND ANGLE DIHED IMPRP ELECT VDW BOUNDARY MISC KINETIC TOTAL TEMP POTENTIAL TOTALAVG TEMPAVG PRESSURE GPRESSURE VOLUME PRESSAVG GPRESSAVG
ENERGY: 0 3.7721 5.6641 1.6861 0.0000 -10517.7101 1391.6697 0.0000 0.0000 1725.8057 -7389.1124 295.0450 -9114.9181 -7389.1124 295.0450 -35.3051 58.7404 29907.0801 -35.3051 58.7404
ENERGY: 300000 2.0942 3.3901 6.6096 0.0000 -10661.0829 1498.8637 0.0000 0.0000 1725.3582 -7424.7671 294.9685 -9150.1253 -7424.2557 298.2843 695.3839 809.9868 29892.7224 271.2178 338.1986
ENERGY: 600000 1.9400 4.4252 3.9950 0.0000 -10746.0388 1527.2983 0.0000 0.0000 1767.2163 -7441.1639 302.1246 -9208.3803 -7437.9458 298.8860 580.8362 581.1743 30072.3521 154.7460 208.4065
ENERGY: 900000 1.7503 4.3176 5.7014 0.0000 -10504.2734 1297.7429 0.0000 0.0000 1679.6437 -7515.1174 287.1531 -9194.7611 -7434.9878 298.7272 -1140.0079 -1105.3790 30017.9801 11.5576 57.1237
ENERGY: 1200000 1.9317 5.4385 6.2480 0.0000 -10610.1340 1449.7547 0.0000 0.0000 1774.8486 -7371.9125 303.4294 -9146.7611 -7439.8483 299.2169 348.8002 467.4616 30321.9733 1.9850 48.7380
ENERGY: 1500000 1.7368 7.0607 2.7719 0.0000 -10630.8556 1358.9049 0.0000 0.0000 1791.1615 -7469.2197 306.2183 -9260.3812 -7441.2249 299.4598 -586.1123 -557.1113 29953.8258 -12.6082 36.4265
TCL: Running FEP window  20: Lambda1 0.049999999999999684 Lambda2 0.0    [dLambda -0.049999999999999684]
TCL: Setting parameter firsttimestep to 0
TCL: Setting parameter alchLambda to 0.049999999999999684
Info: NONBONDED TABLE R-SQUARED SPACING: 0.0625
Info: NONBONDED TABLE SIZE: 705 POINTS
TCL: Setting parameter alchLambda2 to 0.0
Info: NONBONDED TABLE R-SQUARED SPACING: 0.0625
Info: NONBONDED TABLE SIZE: 705 POINTS
TCL: Running for 1500000 steps
ETITLE: TS BOND ANGLE DIHED IMPRP ELECT VDW BOUNDARY MISC KINETIC TOTAL TEMP POTENTIAL TOTALAVG TEMPAVG PRESSURE GPRESSURE VOLUME PRESSAVG GPRESSAVG
ENERGY: 0 1.7368 7.0607 2.7719 0.0000 -10630.8557 1359.2967 0.0000 0.0000 1790.3245 -7469.6651 306.0752 -9259.9896 -7469.6651 306.0752 -642.4237 -559.4936 29953.8258 -642.4237 -559.4936
ENERGY: 300000 3.2740 4.9154 8.0340 0.0000 -10713.3514 1445.2508 0.0000 0.0000 1809.0484 -7442.8289 309.2762 -9251.8772 -7481.1940 304.2188 158.0891 255.5503 29665.3530 -219.1135 -130.5209
ENERGY: 600000 3.6237 2.6040 7.3777 0.0000 -10810.7057 1487.6190 0.0000 0.0000 1773.4047 -7536.0767 303.1825 -9309.4813 -7474.0958 303.4080 207.3248 268.0823 29631.4380 -222.3034 -147.1590
ENERGY: 900000 2.1437 8.3865 6.0464 0.0000 -10601.5154 1450.2674 0.0000 0.0000 1716.1249 -7418.5465 293.3900 -9134.6715 -7466.7857 302.3178 116.2832 156.4322 30296.5760 -164.3002 -93.3632
ENERGY: 1200000 4.0808 4.1516 4.8635 0.0000 -10755.1692 1490.1171 0.0000 0.0000 1724.9273 -7527.0289 294.8948 -9251.9562 -7469.3501 301.0815 193.1573 288.4289 29820.7945 -228.9590 -153.0436
ENERGY: 1500000 6.9658 5.1983 4.0536 0.0000 -10517.6987 1343.1630 0.0000 0.0000 1750.0679 -7408.2501 299.1929 -9158.3180 -7457.1650 300.7624 -976.7303 -970.6481 30509.0706 -238.4852 -166.8929
TCL: Exiting due to exit command.
