Info: SIMULATION PARAMETERS:
Info: TIMESTEP               2
Info: NUMBER OF STEPS        0
Info: STEPS PER CYCLE        10
Info: PERIODIC CELL BASIS 1  31.9799 0 0
Info: PERIODIC CELL BASIS 2  0 31.3288 0
Info: PERIODIC CELL BASIS 3  0 0 30.1262
Info: PERIODIC CELL CENTER   0 0 0
Info: WRAPPING WATERS AROUND PERIODIC BOUNDARIES ON OUTPUT.
Info: WRAPPING ALL CLUSTERS AROUND PERIODIC BOUNDARIES ON OUTPUT.
Info: FIRST LDB TIMESTEP     50
Info: LAST LDB TIMESTEP     -1
Info: HOM BACKGROUND SCALING 1
Info: PME BACKGROUND SCALING 1
Info: MIN ATOMS PER PATCH    40
Info: EMPTY PATCH LOAD       40 ATOMS
Info: VELOCITY FILE          mobley_8449031_equil.vel
Info: CENTER OF MASS MOVING INITIALLY? NO
Info: DIELECTRIC             1
Info: EXCLUDE                SCALED ONE-FOUR
Info: 1-4 ELECTROSTATICS SCALED BY 0.833333
Info: MODIFIED 1-4 VDW PARAMETERS WILL BE USED
Info: DCD FILENAME           mobley_8449031_prod.dcd
Info: DCD FREQUENCY          100000
Info: DCD FIRST STEP         100000
Info: DCD FILE WILL CONTAIN UNIT CELL DATA
Info: XST FILENAME           mobley_8449031_prod.xst
Info: XST FREQUENCY          100000
Info: NO VELOCITY DCD OUTPUT
Info: NO FORCE DCD OUTPUT
Info: OUTPUT FILENAME        mobley_8449031_prod
Info: BINARY OUTPUT FILES WILL BE USED
Info: RESTART FILENAME       mobley_8449031_prod.restart
Info: RESTART FREQUENCY      100000
Info: BINARY RESTART FILES WILL BE USED
Info: CUTOFF                 9
Info: PAIRLIST DISTANCE      11
Info: PAIRLIST SHRINK RATE   0.01
Info: PAIRLIST GROW RATE     0.01
Info: PAIRLIST TRIGGER       0.3
Info: PAIRLISTS PER CYCLE    2
Info: PAIRLISTS ENABLED
Info: MARGIN                 2
Info: HYDROGEN GROUP CUTOFF  2.5
Info: PATCH DIMENSION        15.5
Info: ENERGY OUTPUT STEPS    100000
Info: ENERGY EVALUATION STEPS    100000
Info: OUTPUT ENERGY PRECISION 4
Info: CROSSTERM ENERGY INCLUDED IN DIHEDRAL
Info: TIMING OUTPUT STEPS    1000000
Info: PRESSURE OUTPUT STEPS  100000
Info: ALCHEMICAL FEP ON
Info: FEP CURRENT LAMBDA VALUE     0
Info: FEP COMPARISON LAMBDA VALUE  0.05
Info: FEP INTRA-ALCHEMICAL NON-BONDED INTERACTIONS WILL BE RETAINED
Info: FEP INTRA-ALCHEMICAL BONDED INTERACTIONS WILL BE RETAINED
Info: FEP VDW SHIFTING COEFFICIENT 5
Info: FEP ELEC. ACTIVE FOR ANNIHILATED PARTICLES BETWEEN LAMBDA = 0 AND LAMBDA = 0.5
Info: FEP ELEC. ACTIVE FOR EXNIHILATED PARTICLES BETWEEN LAMBDA = 0.5 AND LAMBDA = 1
Info: FEP VDW ACTIVE FOR ANNIHILATED PARTICLES BETWEEN LAMBDA = 0 AND LAMBDA = 1
Info: FEP VDW ACTIVE FOR EXNIHILATED PARTICLES BETWEEN LAMBDA = 0 AND LAMBDA = 1
Info: FEP BOND ACTIVE FOR ANNIHILATED PARTICLES BETWEEN LAMBDA = 1 AND LAMBDA = 1
Info: FEP BOND ACTIVE FOR EXNIHILATED PARTICLES BETWEEN LAMBDA = 0 AND LAMBDA = 0
Info: LANGEVIN DYNAMICS ACTIVE
Info: LANGEVIN TEMPERATURE   300
Info: LANGEVIN USING BBK INTEGRATOR
Info: LANGEVIN DAMPING COEFFICIENT IS 1 INVERSE PS
Info: LANGEVIN DYNAMICS APPLIED TO HYDROGENS
Info: LANGEVIN PISTON PRESSURE CONTROL ACTIVE
Info:        TARGET PRESSURE IS 1.01325 BAR
Info:     OSCILLATION PERIOD IS 50 FS
Info:             DECAY TIME IS 25 FS
Info:     PISTON TEMPERATURE IS 300 K
Info:       PRESSURE CONTROL IS GROUP-BASED
Info:    INITIAL STRAIN RATE IS 0.000308254 0.000308254 0.000308254
Info:       CELL FLUCTUATION IS ISOTROPIC
Info: PARTICLE MESH EWALD (PME) ACTIVE
Info: PME TOLERANCE               1e-06
Info: PME EWALD COEFFICIENT       0.348832
Info: PME INTERPOLATION ORDER     4
Info: PME GRID DIMENSIONS         32 32 32
Info: PME MAXIMUM GRID SPACING    1
Info: PME CALCULATION WILL BE PERFORMED ON GPU
Info: FULL ELECTROSTATIC EVALUATION FREQUENCY      2
Info: USING VERLET I (r-RESPA) MTS SCHEME.
Info: C1 SPLITTING OF LONG RANGE ELECTROSTATICS
Info: PLACING ATOMS IN PATCHES BY HYDROGEN GROUPS
Info: RIGID BONDS TO HYDROGEN : ALL
Info:         ERROR TOLERANCE : 1e-08
Info:          MAX ITERATIONS : 100
Info: RIGID WATER USING SETTLE ALGORITHM
Info: RANDOM NUMBER SEED     1743934702
Info: USE HYDROGEN BONDS?    NO
Info: Using AMBER format force field!
Info: AMBER PARM FILE        mobley_8449031.prmtop
Info: COORDINATE PDB         mobley_8449031.pdb
Info: Exclusions will be read from PARM file!
Info: SCNB (VDW SCALING)     2
Info: USING ARITHMETIC MEAN TO COMBINE L-J SIGMA PARAMETERS
Info: BINARY COORDINATES     mobley_8449031_equil.coor
Info: SUMMARY OF PARAMETERS:
Info: 6 BONDS
Info: 7 ANGLES
Info:   7 HARMONIC
Info:   0 COSINE-BASED
Info: 3 DIHEDRAL
Info: 0 IMPROPER
Info: 0 CROSSTERM
Info: 0 VDW
Info: 21 VDW_PAIRS
Info: 0 NBTHOLE_PAIRS
Info: To read alchdata from file: mobley_8449031.pdb
Info: To read alchflag data from column: 5
Info: STRUCTURE SUMMARY:
Info: 2965 ATOMS
Info: 2964 BONDS
Info: 39 ANGLES
Info: 51 DIHEDRALS
Info: 0 IMPROPERS
Info: 0 CROSSTERMS
Info: 3048 EXCLUSIONS
Info: 2958 RIGID BONDS
Info: ALCH: 0 ATOMS TO DISAPPEAR IN FINAL STATE
Info: ALCH: 22 ATOMS TO APPEAR IN FINAL STATE
Info: 5937 DEGREES OF FREEDOM
Info: 988 HYDROGEN GROUPS
Info: 4 ATOMS IN LARGEST HYDROGEN GROUP
Info: 988 MIGRATION GROUPS
Info: 4 ATOMS IN LARGEST MIGRATION GROUP
Info: TOTAL MASS = 17774.9 amu
Info: TOTAL CHARGE = -0.000100035 e
Info: MASS DENSITY = 0.977912 g/cm^3
Info: ATOM DENSITY = 0.0982332 atoms/A^3
Info: ADDED 0 IMPLICIT EXCLUSIONS
Info: NONBONDED TABLE R-SQUARED SPACING: 0.0625
Info: NONBONDED TABLE SIZE: 705 POINTS
Info: REDUCING NUMBER OF PATCHES TO IMPROVE LOAD BALANCE
Info: REMOVING COM VELOCITY -0.00172579 0.0673855 0.0854855
Info: Use 3D box decompostion in PME FFT.
Info: Updated CUDA force table with 4096 elements.
Info: Updated CUDA LJ table with 6 x 6 elements.
Info: Found 23 unique exclusion lists needing 68 bytes
TCL: Running for 1500000 steps
ETITLE: TS BOND ANGLE DIHED IMPRP ELECT VDW BOUNDARY MISC KINETIC TOTAL TEMP POTENTIAL TOTALAVG TEMPAVG PRESSURE GPRESSURE VOLUME PRESSAVG GPRESSAVG
ENERGY: 0 1.4442 8.0441 4.2707 0.0000 -10738.0495 1444.6983 0.0000 0.0000 1739.7448 -7539.8474 294.9232 -9279.5922 -7539.8474 294.9232 -35.4957 43.0366 30183.2710 -35.4957 43.0366
ENERGY: 300000 1.8721 16.1079 4.8017 0.0000 -10827.0778 1523.1327 0.0000 0.0000 1767.5119 -7513.6515 299.6303 -9281.1635 -7485.9571 299.1654 404.9734 437.8135 30392.0600 12.2041 70.2110
ENERGY: 600000 1.3145 5.3720 7.8833 0.0000 -10838.3698 1461.0337 0.0000 0.0000 1801.7335 -7561.0328 305.4315 -9362.7663 -7495.5634 300.3342 -254.1004 -136.2004 30560.2921 -145.0015 -80.4450
ENERGY: 900000 4.5549 10.1719 5.2550 0.0000 -10807.8406 1507.1468 0.0000 0.0000 1781.1249 -7499.5872 301.9379 -9280.7121 -7494.4816 300.5971 660.6548 787.0654 29734.6239 34.8269 98.5189
ENERGY: 1200000 1.9844 8.6511 6.8940 0.0000 -10504.1864 1298.2839 0.0000 0.0000 1789.9306 -7398.4424 303.4307 -9188.3730 -7498.2196 299.4236 -918.0974 -901.8731 30551.2187 -69.6913 -8.9958
ENERGY: 1500000 3.6145 9.3530 4.2527 0.0000 -10561.1711 1373.9127 0.0000 0.0000 1771.1373 -7398.9009 300.2448 -9170.0382 -7500.4004 299.1558 -422.5011 -366.2814 30526.2863 -100.9333 -34.3937
TCL: Running FEP window   2: Lambda1 0.05   Lambda2 0.1    [dLambda 0.05  ]
TCL: Setting parameter firsttimestep to 0
TCL: Setting parameter alchLambda to 0.05
Info: NONBONDED TABLE R-SQUARED SPACING: 0.0625
Info: NONBONDED TABLE SIZE: 705 POINTS
TCL: Setting parameter alchLambda2 to 0.1
Info: NONBONDED TABLE R-SQUARED SPACING: 0.0625
Info: NONBONDED TABLE SIZE: 705 POINTS
TCL: Running for 1500000 steps
ETITLE: TS BOND ANGLE DIHED IMPRP ELECT VDW BOUNDARY MISC KINETIC TOTAL TEMP POTENTIAL TOTALAVG TEMPAVG PRESSURE GPRESSURE VOLUME PRESSAVG GPRESSAVG
ENERGY: 0 3.6145 9.3530 4.2527 0.0000 -10561.1713 1377.0887 0.0000 0.0000 1770.2871 -7396.5752 300.1007 -9166.8624 -7396.5752 300.1007 -452.1465 -361.6961 30526.2863 -452.1465 -361.6961
ENERGY: 300000 1.7082 8.9965 6.5914 0.0000 -10670.4507 1435.3909 0.0000 0.0000 1749.1215 -7468.6422 296.5127 -9217.7637 -7448.6182 303.2687 132.4929 181.5719 30165.7671 -425.8296 -334.8652
ENERGY: 600000 1.8873 12.6796 7.2202 0.0000 -10794.5064 1553.7891 0.0000 0.0000 1818.3432 -7400.5871 308.2472 -9218.9302 -7435.7634 303.7698 730.5941 777.2455 30668.0982 -87.9375 6.8086
ENERGY: 900000 1.8408 14.6981 6.7145 0.0000 -10575.1564 1335.5918 0.0000 0.0000 1763.6368 -7452.6746 298.9734 -9216.3113 -7445.7415 303.1283 -853.3493 -800.3494 30556.9348 -79.0135 9.4067
ENERGY: 1200000 3.4970 14.0523 3.3798 0.0000 -10765.0739 1489.6749 0.0000 0.0000 1787.5041 -7466.9657 303.0194 -9254.4698 -7456.1208 302.7107 75.8227 143.8696 30560.9374 -20.6733 65.4659
ENERGY: 1500000 2.5693 8.1355 5.9224 0.0000 -10907.3513 1579.9589 0.0000 0.0000 1756.7992 -7553.9661 297.8142 -9310.7653 -7462.9552 302.1685 995.5679 1058.4759 30135.2927 54.0071 126.5393
TCL: Running FEP window   3: Lambda1 0.1    Lambda2 0.15000000000000002 [dLambda 0.05000000000000002]
TCL: Setting parameter firsttimestep to 0
TCL: Setting parameter alchLambda to 0.1
Info: NONBONDED TABLE R-SQUARED SPACING: 0.0625
Info: NONBONDED TABLE SIZE: 705 POINTS
TCL: Setting parameter alchLambda2 to 0.15000000000000002
Info: NONBONDED TABLE R-SQUARED SPACING: 0.0625
Info: NONBONDED TABLE SIZE: 705 POINTS
TCL: Running for 1500000 steps
ETITLE: TS BOND ANGLE DIHED IMPRP ELECT VDW BOUNDARY MISC KINETIC TOTAL TEMP POTENTIAL TOTALAVG TEMPAVG PRESSURE GPRESSURE VOLUME PRESSAVG GPRESSAVG
ENERGY: 0 2.5693 8.1354 5.9224 0.0000 -10907.3514 1579.5682 0.0000 0.0000 1755.8825 -7555.2736 297.6588 -9311.1561 -7555.2736 297.6588 975.2107 1060.1915 30135.2927 975.2107 1060.1915
ENERGY: 300000 4.5911 8.4004 7.1541 0.0000 -10722.5609 1424.6232 0.0000 0.0000 1788.5748 -7489.2173 303.2009 -9277.7921 -7497.4481 299.9769 -247.5881 -169.6341 30279.3814 279.2080 356.4803
ENERGY: 600000 2.2173 15.2225 5.7251 0.0000 -10856.9835 1510.4792 0.0000 0.0000 1826.8860 -7496.4535 309.6954 -9323.3395 -7484.4344 301.0367 355.4350 430.2346 30172.5542 67.4997 119.6689
ENERGY: 900000 2.4843 10.8299 4.8528 0.0000 -10744.5357 1401.3172 0.0000 0.0000 1800.2867 -7524.7648 305.1863 -9325.0515 -7487.5539 301.3366 -404.2752 -348.1833 29992.1415 -86.8539 -34.5544
ENERGY: 1200000 2.2969 9.9663 4.9936 0.0000 -10695.6247 1430.1124 0.0000 0.0000 1804.6449 -7443.6105 305.9251 -9248.2554 -7488.4104 301.2267 102.1287 108.5126 30305.3354 6.6017 63.8640
ENERGY: 1500000 1.8314 10.0330 7.2301 0.0000 -10595.7808 1355.6718 0.0000 0.0000 1769.5771 -7451.4374 299.9804 -9221.0145 -7482.2523 301.9642 -409.1890 -357.1471 30143.1095 -16.8485 38.8342
TCL: Running FEP window   4: Lambda1 0.15000000000000002 Lambda2 0.2    [dLambda 0.04999999999999999]
TCL: Setting parameter firsttimestep to 0
TCL: Setting parameter alchLambda to 0.15000000000000002
Info: NONBONDED TABLE R-SQUARED SPACING: 0.0625
Info: NONBONDED TABLE SIZE: 705 POINTS
TCL: Setting parameter alchLambda2 to 0.2
Info: NONBONDED TABLE R-SQUARED SPACING: 0.0625
Info: NONBONDED TABLE SIZE: 705 POINTS
TCL: Running for 1500000 steps
ETITLE: TS BOND ANGLE DIHED IMPRP ELECT VDW BOUNDARY MISC KINETIC TOTAL TEMP POTENTIAL TOTALAVG TEMPAVG PRESSURE GPRESSURE VOLUME PRESSAVG GPRESSAVG
ENERGY: 0 1.8315 10.0330 7.2301 0.0000 -10595.7803 1356.8411 0.0000 0.0000 1768.6681 -7451.1767 299.8263 -9219.8448 -7451.1767 299.8263 -428.2949 -347.9043 30143.1095 -428.2949 -347.9043
ENERGY: 300000 2.7431 8.2510 5.3002 0.0000 -10739.8931 1416.5789 0.0000 0.0000 1781.5258 -7525.4942 302.0059 -9307.0200 -7495.3393 299.1077 -176.4202 -99.1183 30005.5616 -113.0357 -35.5591
ENERGY: 600000 0.9415 9.8576 6.3611 0.0000 -10841.4849 1568.4497 0.0000 0.0000 1723.8860 -7531.9889 292.2348 -9255.8749 -7480.1708 299.3065 696.0994 746.0942 30501.5603 -10.9198 54.5110
ENERGY: 900000 1.2874 12.2664 5.9597 0.0000 -10658.1047 1420.9268 0.0000 0.0000 1709.6339 -7508.0305 289.8187 -9217.6644 -7499.7268 298.0778 -322.0633 -235.0300 30594.5112 15.9466 76.1161
ENERGY: 1200000 6.8869 7.9064 4.7830 0.0000 -10705.2747 1424.3679 0.0000 0.0000 1760.6253 -7500.7051 298.4628 -9261.3304 -7497.2960 298.3683 -128.9777 -123.5541 30122.1199 -86.1702 -34.9942
ENERGY: 1500000 1.1051 11.9277 4.6724 0.0000 -10706.3950 1426.8002 0.0000 0.0000 1818.7696 -7443.1199 308.3195 -9261.8896 -7498.1510 298.6369 3.6725 55.1267 30171.9395 -59.2359 -11.1404
TCL: Running FEP window   5: Lambda1 0.2    Lambda2 0.25   [dLambda 0.04999999999999999]
TCL: Setting parameter firsttimestep to 0
TCL: Setting parameter alchLambda to 0.2
Info: NONBONDED TABLE R-SQUARED SPACING: 0.0625
Info: NONBONDED TABLE SIZE: 705 POINTS
TCL: Setting parameter alchLambda2 to 0.25
Info: NONBONDED TABLE R-SQUARED SPACING: 0.0625
Info: NONBONDED TABLE SIZE: 705 POINTS
TCL: Running for 1500000 steps
ETITLE: TS BOND ANGLE DIHED IMPRP ELECT VDW BOUNDARY MISC KINETIC TOTAL TEMP POTENTIAL TOTALAVG TEMPAVG PRESSURE GPRESSURE VOLUME PRESSAVG GPRESSAVG
ENERGY: 0 1.1051 11.9277 4.6724 0.0000 -10706.3952 1429.4549 0.0000 0.0000 1817.9274 -7441.3077 308.1768 -9259.2351 -7441.3077 308.1768 -17.8838 65.8642 30171.9395 -17.8838 65.8642
ENERGY: 300000 2.2060 13.8334 6.7917 0.0000 -10732.5730 1402.4215 0.0000 0.0000 1728.2717 -7579.0488 292.9782 -9307.3205 -7534.4734 295.2593 -357.1984 -283.0329 30041.0517 -163.1064 -102.6470
ENERGY: 600000 0.6311 11.7461 6.1541 0.0000 -10656.5790 1409.0376 0.0000 0.0000 1749.2731 -7479.7370 296.5384 -9229.0101 -7518.8910 296.3654 42.2011 100.1840 30181.6231 -43.3067 22.7989
ENERGY: 900000 2.9007 7.3171 8.0447 0.0000 -10725.7077 1451.6293 0.0000 0.0000 1795.2142 -7460.6015 304.3264 -9255.8157 -7506.4404 298.2006 118.6813 151.4381 30345.4757 120.7402 176.7051
ENERGY: 1200000 2.5476 12.9281 4.6085 0.0000 -10823.3492 1459.9523 0.0000 0.0000 1778.5712 -7564.7415 301.5050 -9343.3127 -7510.5273 298.0551 -451.8053 -420.2008 30819.6822 123.4643 176.8019
ENERGY: 1500000 1.9662 12.1019 4.9399 0.0000 -10744.2856 1374.2457 0.0000 0.0000 1808.6810 -7542.3510 306.6093 -9351.0320 -7514.5603 298.7019 -836.0688 -721.1777 30308.8042 18.9432 78.5647
TCL: Running FEP window   6: Lambda1 0.25   Lambda2 0.3    [dLambda 0.04999999999999999]
TCL: Setting parameter firsttimestep to 0
TCL: Setting parameter alchLambda to 0.25
Info: NONBONDED TABLE R-SQUARED SPACING: 0.0625
Info: NONBONDED TABLE SIZE: 705 POINTS
TCL: Setting parameter alchLambda2 to 0.3
Info: NONBONDED TABLE R-SQUARED SPACING: 0.0625
Info: NONBONDED TABLE SIZE: 705 POINTS
TCL: Running for 1500000 steps
ETITLE: TS BOND ANGLE DIHED IMPRP ELECT VDW BOUNDARY MISC KINETIC TOTAL TEMP POTENTIAL TOTALAVG TEMPAVG PRESSURE GPRESSURE VOLUME PRESSAVG GPRESSAVG
ENERGY: 0 1.9662 12.1018 4.9399 0.0000 -10744.2846 1374.2392 0.0000 0.0000 1807.7722 -7543.2652 306.4552 -9351.0374 -7543.2652 306.4552 -803.8451 -716.6546 30308.8042 -803.8451 -716.6546
ENERGY: 300000 3.8966 11.3888 5.3899 0.0000 -10654.4611 1445.4045 0.0000 0.0000 1796.1705 -7392.2107 304.4885 -9188.3812 -7491.5901 302.2245 -29.7978 -1.9730 30779.8216 -214.8477 -138.1427
ENERGY: 600000 2.3693 10.3982 5.9721 0.0000 -10830.9522 1512.2207 0.0000 0.0000 1785.6228 -7514.3690 302.7004 -9299.9918 -7500.7962 301.6497 177.3438 187.5138 30642.0158 -2.5363 49.9727
ENERGY: 900000 0.2603 7.5658 6.7633 0.0000 -10682.4267 1408.1692 0.0000 0.0000 1791.8191 -7467.8490 303.7508 -9259.6681 -7493.3560 301.9951 -362.8304 -262.2432 30614.4885 49.4776 106.4407
ENERGY: 1200000 1.5083 12.3293 9.7958 0.0000 -10639.9508 1462.8629 0.0000 0.0000 1799.1772 -7354.2773 304.9982 -9153.4545 -7490.8303 301.5997 89.7617 219.0916 31051.8923 -62.2033 13.7579
ENERGY: 1500000 6.4247 11.5671 4.5145 0.0000 -10698.3883 1386.1769 0.0000 0.0000 1683.0115 -7606.6936 285.3057 -9289.7051 -7501.4455 300.5316 -900.5642 -876.3003 30720.3556 -57.4435 15.6264
TCL: Running FEP window   7: Lambda1 0.3    Lambda2 0.35   [dLambda 0.04999999999999999]
TCL: Setting parameter firsttimestep to 0
TCL: Setting parameter alchLambda to 0.3
Info: NONBONDED TABLE R-SQUARED SPACING: 0.0625
Info: NONBONDED TABLE SIZE: 705 POINTS
TCL: Setting parameter alchLambda2 to 0.35
Info: NONBONDED TABLE R-SQUARED SPACING: 0.0625
Info: NONBONDED TABLE SIZE: 705 POINTS
TCL: Running for 1500000 steps
ETITLE: TS BOND ANGLE DIHED IMPRP ELECT VDW BOUNDARY MISC KINETIC TOTAL TEMP POTENTIAL TOTALAVG TEMPAVG PRESSURE GPRESSURE VOLUME PRESSAVG GPRESSAVG
ENERGY: 0 6.4247 11.5671 4.5145 0.0000 -10698.3893 1386.2118 0.0000 0.0000 1682.1295 -7607.5417 285.1562 -9289.6712 -7607.5417 285.1562 -944.3896 -869.3834 30720.3556 -944.3896 -869.3834
ENERGY: 300000 0.7475 16.0231 8.0899 0.0000 -10559.3328 1354.6883 0.0000 0.0000 1746.6300 -7433.1541 296.0903 -9179.7841 -7496.7442 296.4437 -654.8826 -598.5089 30815.0301 -102.4106 -34.4020
ENERGY: 600000 0.8983 9.2739 8.3225 0.0000 -10570.8046 1286.4956 0.0000 0.0000 1769.1866 -7496.6278 299.9142 -9265.8144 -7474.9357 299.4269 -1148.7443 -1014.4528 30150.9192 -99.7917 -32.2615
ENERGY: 900000 2.8606 11.2116 6.6351 0.0000 -10706.5496 1425.0565 0.0000 0.0000 1750.0056 -7510.7802 296.6626 -9260.7858 -7481.7156 298.0752 -559.9517 -456.8192 30845.4455 -137.4340 -65.6859
ENERGY: 1200000 2.3406 10.6080 7.9181 0.0000 -10698.1446 1382.5446 0.0000 0.0000 1778.1649 -7516.5684 301.4362 -9294.7333 -7485.5546 298.9913 -473.7209 -405.0655 30053.3351 -191.7903 -122.0186
ENERGY: 1500000 2.0963 10.0162 8.2560 0.0000 -10697.4220 1439.5614 0.0000 0.0000 1757.1519 -7480.3403 297.8740 -9237.4921 -7498.5832 297.7601 -2.6396 84.3344 30421.7303 -189.8437 -115.7157
TCL: Running FEP window   8: Lambda1 0.35   Lambda2 0.39999999999999997 [dLambda 0.04999999999999999]
TCL: Setting parameter firsttimestep to 0
TCL: Setting parameter alchLambda to 0.35
Info: NONBONDED TABLE R-SQUARED SPACING: 0.0625
Info: NONBONDED TABLE SIZE: 705 POINTS
TCL: Setting parameter alchLambda2 to 0.39999999999999997
Info: NONBONDED TABLE R-SQUARED SPACING: 0.0625
Info: NONBONDED TABLE SIZE: 705 POINTS
TCL: Running for 1500000 steps
ETITLE: TS BOND ANGLE DIHED IMPRP ELECT VDW BOUNDARY MISC KINETIC TOTAL TEMP POTENTIAL TOTALAVG TEMPAVG PRESSURE GPRESSURE VOLUME PRESSAVG GPRESSAVG
ENERGY: 0 2.0963 10.0162 8.2560 0.0000 -10697.4209 1440.1399 0.0000 0.0000 1756.2685 -7480.6440 297.7243 -9236.9125 -7480.6440 297.7243 17.7230 94.2321 30421.7303 17.7230 94.2321
ENERGY: 300000 4.6785 12.7683 6.6427 0.0000 -10671.2860 1389.1241 0.0000 0.0000 1733.1080 -7524.9643 293.7981 -9258.0723 -7511.9940 297.0016 -387.1545 -369.6484 30142.0695 -89.0455 -57.2659
ENERGY: 600000 0.9122 10.6567 8.5665 0.0000 -10670.9306 1371.9603 0.0000 0.0000 1751.0058 -7527.8289 296.8321 -9278.8348 -7517.2270 295.3428 -581.6776 -473.9581 30493.0891 -169.6517 -117.5828
ENERGY: 900000 2.7233 9.2960 6.0996 0.0000 -10787.4690 1445.1449 0.0000 0.0000 1812.1623 -7512.0429 307.1994 -9324.2052 -7513.1415 297.8194 -135.0073 -26.3777 30418.8939 -212.7401 -148.0597
ENERGY: 1200000 3.1790 7.8093 7.0591 0.0000 -10612.9850 1464.6241 0.0000 0.0000 1868.2154 -7262.0981 316.7016 -9130.3135 -7487.6657 300.6443 783.7789 849.2201 30176.2791 -128.7899 -57.0768
ENERGY: 1500000 0.8772 12.8438 11.6295 0.0000 -10699.2262 1452.7501 0.0000 0.0000 1720.6912 -7500.4344 291.6932 -9221.1256 -7485.6768 300.3851 129.7256 164.8942 30643.8342 -153.3327 -87.1909
TCL: Running FEP window   9: Lambda1 0.39999999999999997 Lambda2 0.44999999999999996 [dLambda 0.04999999999999999]
TCL: Setting parameter firsttimestep to 0
TCL: Setting parameter alchLambda to 0.39999999999999997
Info: NONBONDED TABLE R-SQUARED SPACING: 0.0625
Info: NONBONDED TABLE SIZE: 705 POINTS
TCL: Setting parameter alchLambda2 to 0.44999999999999996
Info: NONBONDED TABLE R-SQUARED SPACING: 0.0625
Info: NONBONDED TABLE SIZE: 705 POINTS
TCL: Running for 1500000 steps
ETITLE: TS BOND ANGLE DIHED IMPRP ELECT VDW BOUNDARY MISC KINETIC TOTAL TEMP POTENTIAL TOTALAVG TEMPAVG PRESSURE GPRESSURE VOLUME PRESSAVG GPRESSAVG
ENERGY: 0 0.8772 12.8438 11.6295 0.0000 -10699.2259 1453.0429 0.0000 0.0000 1719.8222 -7501.0104 291.5459 -9220.8326 -7501.0104 291.5459 81.2127 170.0188 30643.8342 81.2127 170.0188
ENERGY: 300000 2.4176 8.5666 4.8446 0.0000 -10683.6368 1377.2844 0.0000 0.0000 1782.9579 -7507.5656 302.2487 -9290.5235 -7501.7006 299.3830 -699.3155 -626.6118 30567.8568 -161.5166 -94.6471
ENERGY: 600000 3.1981 10.6625 6.2753 0.0000 -10762.7677 1478.7879 0.0000 0.0000 1767.7299 -7496.1140 299.6672 -9263.8438 -7504.5307 298.6131 -150.3521 -47.6762 31002.5229 -152.2633 -79.0775
ENERGY: 900000 2.0369 10.3552 3.7701 0.0000 -10614.7579 1439.3356 0.0000 0.0000 1800.7268 -7358.5333 305.2609 -9159.2602 -7481.3134 299.5757 362.0381 400.2812 30385.1494 19.3181 80.7688
ENERGY: 1200000 1.4901 13.5083 6.7717 0.0000 -10772.4939 1468.8970 0.0000 0.0000 1826.2470 -7455.5797 309.5871 -9281.8267 -7476.9133 300.2630 301.5955 375.9794 30247.3166 29.7971 97.6046
ENERGY: 1500000 3.6878 10.2788 5.3665 0.0000 -10737.1480 1416.2401 0.0000 0.0000 1748.8690 -7552.7058 296.4699 -9301.5748 -7482.8086 299.2786 -433.1522 -355.1333 30487.6014 23.1261 85.1496
TCL: Running FEP window  10: Lambda1 0.44999999999999996 Lambda2 0.49999999999999994 [dLambda 0.04999999999999999]
TCL: Setting parameter firsttimestep to 0
TCL: Setting parameter alchLambda to 0.44999999999999996
Info: NONBONDED TABLE R-SQUARED SPACING: 0.0625
Info: NONBONDED TABLE SIZE: 705 POINTS
TCL: Setting parameter alchLambda2 to 0.49999999999999994
Info: NONBONDED TABLE R-SQUARED SPACING: 0.0625
Info: NONBONDED TABLE SIZE: 705 POINTS
TCL: Running for 1500000 steps
ETITLE: TS BOND ANGLE DIHED IMPRP ELECT VDW BOUNDARY MISC KINETIC TOTAL TEMP POTENTIAL TOTALAVG TEMPAVG PRESSURE GPRESSURE VOLUME PRESSAVG GPRESSAVG
ENERGY: 0 3.6878 10.2788 5.3665 0.0000 -10737.1478 1416.4467 0.0000 0.0000 1747.9864 -7553.3815 296.3203 -9301.3679 -7553.3815 296.3203 -428.1062 -346.5443 30487.6014 -428.1062 -346.5443
ENERGY: 300000 1.8200 13.9643 5.3681 0.0000 -10663.3636 1345.7201 0.0000 0.0000 1805.4151 -7491.0760 306.0557 -9296.4911 -7490.5974 300.5329 -648.2351 -634.0338 30129.7614 -154.0907 -98.8677
ENERGY: 600000 1.3209 20.0697 5.5999 0.0000 -10723.6761 1463.6614 0.0000 0.0000 1773.6709 -7459.3532 300.6743 -9233.0241 -7488.1913 301.6304 75.4439 147.0153 30590.8760 7.0041 55.2056
ENERGY: 900000 1.6979 12.5851 6.2670 0.0000 -10924.5024 1507.1203 0.0000 0.0000 1700.7522 -7696.0800 288.3131 -9396.8322 -7488.2479 302.2560 -91.5622 -18.1568 30698.4590 16.4171 74.3973
ENERGY: 1200000 1.9108 6.6237 3.7449 0.0000 -10707.1576 1412.2352 0.0000 0.0000 1771.3411 -7511.3018 300.2794 -9282.6429 -7502.0230 301.6648 -251.9982 -157.5087 30154.2831 -113.9180 -52.6019
ENERGY: 1500000 2.6282 16.8451 6.9745 0.0000 -10577.3587 1334.3672 0.0000 0.0000 1777.4455 -7439.0982 301.3142 -9216.5436 -7489.8539 301.8878 -690.5949 -572.8174 30374.4547 -156.0067 -90.2749
TCL: Running FEP window  11: Lambda1 0.49999999999999994 Lambda2 0.5499999999999999 [dLambda 0.04999999999999999]
TCL: Setting parameter firsttimestep to 0
TCL: Setting parameter alchLambda to 0.49999999999999994
Info: NONBONDED TABLE R-SQUARED SPACING: 0.0625
Info: NONBONDED TABLE SIZE: 705 POINTS
TCL: Setting parameter alchLambda2 to 0.5499999999999999
Info: NONBONDED TABLE R-SQUARED SPACING: 0.0625
Info: NONBONDED TABLE SIZE: 705 POINTS
TCL: Running for 1500000 steps
ETITLE: TS BOND ANGLE DIHED IMPRP ELECT VDW BOUNDARY MISC KINETIC TOTAL TEMP POTENTIAL TOTALAVG TEMPAVG PRESSURE GPRESSURE VOLUME PRESSAVG GPRESSAVG
ENERGY: 0 2.6282 16.8451 6.9745 0.0000 -10577.3590 1334.6981 0.0000 0.0000 1776.6176 -7439.5954 301.1739 -9216.2130 -7439.5954 301.1739 -650.0310 -561.4844 30374.4547 -650.0310 -561.4844
ENERGY: 300000 1.3389 7.5661 8.9606 0.0000 -10703.8348 1477.1459 0.0000 0.0000 1727.3545 -7481.4687 292.8227 -9208.8232 -7442.4283 297.9034 570.5984 650.7669 30091.7302 -297.5447 -220.4191
ENERGY: 600000 2.4904 12.2911 4.6367 0.0000 -10937.8412 1544.7745 0.0000 0.0000 1758.9953 -7614.6532 298.1865 -9373.6485 -7487.2467 297.2353 1005.7640 1051.6871 29490.0222 -44.2250 20.6375
ENERGY: 900000 0.2746 12.6900 6.1012 0.0000 -10628.1041 1384.7913 0.0000 0.0000 1734.1805 -7490.0663 293.9799 -9224.2468 -7483.8425 297.8319 -503.9905 -441.2626 30680.2648 -98.9929 -22.8183
ENERGY: 1200000 1.9634 12.8115 11.2231 0.0000 -10574.8078 1364.5729 0.0000 0.0000 1813.6085 -7370.6284 307.4446 -9184.2369 -7459.9380 300.0441 -620.9569 -567.9420 31005.9774 -59.5316 17.6042
ENERGY: 1500000 5.5476 11.6509 4.1415 0.0000 -10657.2955 1390.0611 0.0000 0.0000 1768.7659 -7477.1285 299.8428 -9245.8944 -7461.7648 299.4952 -563.1893 -461.2245 30354.5877 -112.8235 -39.5319
TCL: Running FEP window  12: Lambda1 0.5499999999999999 Lambda2 0.6    [dLambda 0.050000000000000044]
TCL: Setting parameter firsttimestep to 0
TCL: Setting parameter alchLambda to 0.5499999999999999
Info: NONBONDED TABLE R-SQUARED SPACING: 0.0625
Info: NONBONDED TABLE SIZE: 705 POINTS
TCL: Setting parameter alchLambda2 to 0.6
Info: NONBONDED TABLE R-SQUARED SPACING: 0.0625
Info: NONBONDED TABLE SIZE: 705 POINTS
TCL: Running for 1500000 steps
ETITLE: TS BOND ANGLE DIHED IMPRP ELECT VDW BOUNDARY MISC KINETIC TOTAL TEMP POTENTIAL TOTALAVG TEMPAVG PRESSURE GPRESSURE VOLUME PRESSAVG GPRESSAVG
ENERGY: 0 5.5476 11.6509 4.1415 0.0000 -10657.2171 1390.2416 0.0000 0.0000 1767.8675 -7477.7679 299.6906 -9245.6355 -7477.7679 299.6906 -541.7627 -451.8462 30354.5877 -541.7627 -451.8462
ENERGY: 300000 1.8853 17.4746 4.6626 0.0000 -10651.1233 1413.3370 0.0000 0.0000 1755.1491 -7458.6147 297.5345 -9213.7638 -7479.5907 301.0667 -156.5962 -79.6743 30481.4971 -185.3591 -139.1697
ENERGY: 600000 1.9194 7.7152 5.0680 0.0000 -10798.6996 1526.1550 0.0000 0.0000 1826.6819 -7431.1601 309.6608 -9257.8420 -7466.9006 301.2088 975.6005 1033.0911 29907.7182 -91.6206 -32.4001
ENERGY: 900000 1.2715 8.9693 5.3332 0.0000 -10826.2565 1460.4872 0.0000 0.0000 1770.6906 -7579.5047 300.1691 -9350.1954 -7483.2573 302.3648 -1.7526 54.4322 30316.1147 44.7541 99.7637
ENERGY: 1200000 2.3207 9.6946 5.0141 0.0000 -10716.7945 1422.1666 0.0000 0.0000 1789.3818 -7488.2166 303.3377 -9277.5984 -7493.2779 301.8430 -330.1680 -245.5363 30698.3955 -56.4542 3.8999
ENERGY: 1500000 1.3670 6.1812 5.3599 0.0000 -10748.5655 1460.5953 0.0000 0.0000 1764.9057 -7510.1565 299.1885 -9275.0622 -7490.9108 301.2007 98.3460 81.4853 30823.5261 -11.4579 43.9256
TCL: Running FEP window  13: Lambda1 0.6    Lambda2 0.65   [dLambda 0.050000000000000044]
TCL: Setting parameter firsttimestep to 0
TCL: Setting parameter alchLambda to 0.6
Info: NONBONDED TABLE R-SQUARED SPACING: 0.0625
Info: NONBONDED TABLE SIZE: 705 POINTS
TCL: Setting parameter alchLambda2 to 0.65
Info: NONBONDED TABLE R-SQUARED SPACING: 0.0625
Info: NONBONDED TABLE SIZE: 705 POINTS
TCL: Running for 1500000 steps
ETITLE: TS BOND ANGLE DIHED IMPRP ELECT VDW BOUNDARY MISC KINETIC TOTAL TEMP POTENTIAL TOTALAVG TEMPAVG PRESSURE GPRESSURE VOLUME PRESSAVG GPRESSAVG
ENERGY: 0 1.3670 6.1812 5.3599 0.0000 -10748.6273 1460.1173 0.0000 0.0000 1764.0330 -7511.5690 299.0405 -9275.6020 -7511.5690 299.0405 -2.0663 86.5210 30823.5261 -2.0663 86.5210
ENERGY: 300000 2.7827 13.7034 5.9809 0.0000 -10615.6826 1404.7417 0.0000 0.0000 1791.3906 -7397.0831 303.6782 -9188.4738 -7470.5240 297.9345 -111.8537 -26.9382 30432.6861 -181.4189 -120.2950
ENERGY: 600000 1.4528 11.1456 10.2806 0.0000 -10750.5842 1488.6630 0.0000 0.0000 1748.9814 -7490.0608 296.4890 -9239.0423 -7469.3350 300.2592 222.1791 329.7625 30666.1998 -124.8829 -55.2522
ENERGY: 900000 2.0958 11.3478 4.3108 0.0000 -10882.4339 1523.1067 0.0000 0.0000 1775.5914 -7565.9814 300.9999 -9341.5729 -7469.9381 301.0882 344.5142 396.9258 30494.9682 -96.6853 -26.7538
ENERGY: 1200000 0.8676 9.9553 5.2254 0.0000 -10672.2667 1426.4672 0.0000 0.0000 1793.8503 -7435.9009 304.0952 -9229.7512 -7473.5204 300.9640 74.2532 135.5058 30309.1912 -30.3620 33.5985
ENERGY: 1500000 2.1205 16.3915 4.1902 0.0000 -10681.4662 1430.3309 0.0000 0.0000 1792.5188 -7435.9143 303.8695 -9228.4331 -7465.5943 301.9027 -57.5967 -52.0222 30577.2142 -55.9731 4.9733
TCL: Running FEP window  14: Lambda1 0.65   Lambda2 0.7000000000000001 [dLambda 0.050000000000000044]
TCL: Setting parameter firsttimestep to 0
TCL: Setting parameter alchLambda to 0.65
Info: NONBONDED TABLE R-SQUARED SPACING: 0.0625
Info: NONBONDED TABLE SIZE: 705 POINTS
TCL: Setting parameter alchLambda2 to 0.7000000000000001
Info: NONBONDED TABLE R-SQUARED SPACING: 0.0625
Info: NONBONDED TABLE SIZE: 705 POINTS
TCL: Running for 1500000 steps
ETITLE: TS BOND ANGLE DIHED IMPRP ELECT VDW BOUNDARY MISC KINETIC TOTAL TEMP POTENTIAL TOTALAVG TEMPAVG PRESSURE GPRESSURE VOLUME PRESSAVG GPRESSAVG
ENERGY: 0 2.1205 16.3915 4.1902 0.0000 -10681.7454 1431.7384 0.0000 0.0000 1791.6164 -7435.6885 303.7165 -9227.3048 -7435.6885 303.7165 -104.6692 -26.3769 30577.2142 -104.6692 -26.3769
ENERGY: 300000 2.1760 10.6300 5.4774 0.0000 -10610.1398 1356.3339 0.0000 0.0000 1733.4030 -7502.1194 293.8481 -9235.5224 -7471.7591 298.6222 -852.0291 -783.6275 31139.4825 -516.6725 -442.1860
ENERGY: 600000 1.5810 9.7724 5.5832 0.0000 -10704.3040 1309.7466 0.0000 0.0000 1769.3246 -7608.2962 299.9376 -9377.6208 -7487.0328 297.7267 -1377.3185 -1273.9873 30476.9445 -450.2939 -370.4559
ENERGY: 900000 3.0001 9.6495 7.3697 0.0000 -10749.8009 1450.9946 0.0000 0.0000 1789.3378 -7489.4493 303.3302 -9278.7871 -7500.1645 297.5569 -341.4480 -297.0557 30955.6837 -362.5510 -292.9210
ENERGY: 1200000 0.3213 9.1087 4.4697 0.0000 -10681.3715 1405.9770 0.0000 0.0000 1760.5230 -7500.9717 298.4455 -9261.4947 -7489.2540 298.0694 -431.9317 -328.6696 30956.7865 -371.2780 -298.9104
ENERGY: 1500000 0.9277 12.0895 4.9449 0.0000 -10713.8379 1445.9074 0.0000 0.0000 1810.5608 -7439.4075 306.9280 -9249.9683 -7482.6183 299.2479 -74.1290 -21.9968 30748.3892 -314.2003 -237.6918
TCL: Running FEP window  15: Lambda1 0.7000000000000001 Lambda2 0.7500000000000001 [dLambda 0.050000000000000044]
TCL: Setting parameter firsttimestep to 0
TCL: Setting parameter alchLambda to 0.7000000000000001
Info: NONBONDED TABLE R-SQUARED SPACING: 0.0625
Info: NONBONDED TABLE SIZE: 705 POINTS
TCL: Setting parameter alchLambda2 to 0.7500000000000001
Info: NONBONDED TABLE R-SQUARED SPACING: 0.0625
Info: NONBONDED TABLE SIZE: 705 POINTS
TCL: Running for 1500000 steps
ETITLE: TS BOND ANGLE DIHED IMPRP ELECT VDW BOUNDARY MISC KINETIC TOTAL TEMP POTENTIAL TOTALAVG TEMPAVG PRESSURE GPRESSURE VOLUME PRESSAVG GPRESSAVG
ENERGY: 0 0.9277 12.0895 4.9449 0.0000 -10713.9436 1445.2589 0.0000 0.0000 1809.7050 -7441.0175 306.7829 -9250.7225 -7441.0175 306.7829 -99.1887 -22.0952 30748.3892 -99.1887 -22.0952
ENERGY: 300000 2.4342 9.7357 4.6021 0.0000 -10712.3125 1407.7530 0.0000 0.0000 1793.3178 -7494.4696 304.0049 -9287.7874 -7468.7174 300.8253 -322.3433 -292.5409 30605.4039 -291.4643 -248.3079
ENERGY: 600000 1.8490 12.3918 7.4343 0.0000 -10666.6431 1399.3168 0.0000 0.0000 1765.8481 -7479.8031 299.3482 -9245.6511 -7495.6845 298.1711 -232.9494 -218.3301 30392.0880 -427.9829 -381.4668
ENERGY: 900000 1.4873 11.0622 7.9998 0.0000 -10787.0262 1526.4369 0.0000 0.0000 1822.3147 -7417.7254 308.9205 -9240.0400 -7499.3866 298.5611 710.9853 847.4676 30162.2571 -254.5986 -193.0981
ENERGY: 1200000 2.0024 10.9933 6.4306 0.0000 -10750.6993 1434.4124 0.0000 0.0000 1777.7081 -7519.1526 301.3587 -9296.8607 -7500.9669 298.7700 32.2538 61.2505 30126.2379 -205.3480 -142.2076
ENERGY: 1500000 0.5233 10.3285 5.9058 0.0000 -10620.2043 1413.7541 0.0000 0.0000 1706.3974 -7483.2952 289.2701 -9189.6926 -7507.9769 297.9046 42.6010 83.1767 30294.0079 -205.3997 -143.4661
TCL: Running FEP window  16: Lambda1 0.7500000000000001 Lambda2 0.8000000000000002 [dLambda 0.050000000000000044]
TCL: Setting parameter firsttimestep to 0
TCL: Setting parameter alchLambda to 0.7500000000000001
Info: NONBONDED TABLE R-SQUARED SPACING: 0.0625
Info: NONBONDED TABLE SIZE: 705 POINTS
TCL: Setting parameter alchLambda2 to 0.8000000000000002
Info: NONBONDED TABLE R-SQUARED SPACING: 0.0625
Info: NONBONDED TABLE SIZE: 705 POINTS
TCL: Running for 1500000 steps
ETITLE: TS BOND ANGLE DIHED IMPRP ELECT VDW BOUNDARY MISC KINETIC TOTAL TEMP POTENTIAL TOTALAVG TEMPAVG PRESSURE GPRESSURE VOLUME PRESSAVG GPRESSAVG
ENERGY: 0 0.5233 10.3286 5.9058 0.0000 -10621.4875 1414.6927 0.0000 0.0000 1705.5334 -7484.5037 289.1236 -9190.0371 -7484.5037 289.1236 7.7902 102.5234 30294.0079 7.7902 102.5234
ENERGY: 300000 1.7098 7.7490 5.9253 0.0000 -10884.9366 1518.2275 0.0000 0.0000 1779.3013 -7572.0237 301.6288 -9351.3250 -7544.7618 296.2839 327.8675 382.7978 30430.9193 307.9715 384.2525
ENERGY: 600000 2.1649 10.9540 5.7052 0.0000 -10810.1457 1499.6925 0.0000 0.0000 1827.6416 -7463.9875 309.8235 -9291.6291 -7533.5434 298.0100 326.0506 438.1006 30723.8309 226.8779 308.2618
ENERGY: 900000 2.6173 9.6465 5.1635 0.0000 -10662.9404 1365.3023 0.0000 0.0000 1786.6856 -7493.5252 302.8806 -9280.2108 -7521.1680 299.1189 -862.2228 -795.8076 30733.3528 201.6995 277.4367
ENERGY: 1200000 1.2650 12.0289 6.9774 0.0000 -10701.9748 1456.5090 0.0000 0.0000 1779.5098 -7445.6847 301.6642 -9225.1945 -7503.3777 299.4523 613.2040 736.0852 30013.2936 182.7373 267.3519
ENERGY: 1500000 3.0016 8.5115 6.4795 0.0000 -10491.0262 1314.5037 0.0000 0.0000 1734.2414 -7424.2885 293.9902 -9158.5299 -7497.5204 299.0864 -824.5607 -750.1472 30714.2966 58.1871 137.0315
TCL: Running FEP window  17: Lambda1 0.8000000000000002 Lambda2 0.8500000000000002 [dLambda 0.050000000000000044]
TCL: Setting parameter firsttimestep to 0
TCL: Setting parameter alchLambda to 0.8000000000000002
Info: NONBONDED TABLE R-SQUARED SPACING: 0.0625
Info: NONBONDED TABLE SIZE: 705 POINTS
TCL: Setting parameter alchLambda2 to 0.8500000000000002
Info: NONBONDED TABLE R-SQUARED SPACING: 0.0625
Info: NONBONDED TABLE SIZE: 705 POINTS
TCL: Running for 1500000 steps
ETITLE: TS BOND ANGLE DIHED IMPRP ELECT VDW BOUNDARY MISC KINETIC TOTAL TEMP POTENTIAL TOTALAVG TEMPAVG PRESSURE GPRESSURE VOLUME PRESSAVG GPRESSAVG
ENERGY: 0 3.0016 8.5115 6.4795 0.0000 -10492.0756 1315.9120 0.0000 0.0000 1733.3766 -7424.7945 293.8436 -9158.1710 -7424.7945 293.8436 -836.7755 -725.5761 30714.2966 -836.7755 -725.5761
ENERGY: 300000 2.8351 10.3888 3.9935 0.0000 -10631.4078 1401.6066 0.0000 0.0000 1784.4878 -7428.0960 302.5080 -9212.5838 -7457.0276 300.3373 22.2424 61.8319 30315.2760 -58.1430 -3.8513
ENERGY: 600000 2.8823 11.1044 4.4531 0.0000 -10750.0809 1486.5223 0.0000 0.0000 1765.1164 -7480.0023 299.2242 -9245.1188 -7448.4903 301.3028 541.2223 528.9153 30100.8849 14.7094 59.4178
ENERGY: 900000 3.2622 9.4370 7.4854 0.0000 -10801.9451 1492.7658 0.0000 0.0000 1771.4565 -7517.5382 300.2990 -9288.9947 -7460.1962 300.9478 248.5854 264.2878 30395.7555 64.0506 112.9616
ENERGY: 1200000 4.3633 14.6588 5.8288 0.0000 -10617.1333 1324.8578 0.0000 0.0000 1766.9864 -7500.4383 299.5412 -9267.4247 -7470.7533 300.6250 -913.2843 -875.8737 30539.2257 -102.1079 -43.1144
ENERGY: 1500000 1.4089 9.4513 5.3449 0.0000 -10690.7495 1457.4225 0.0000 0.0000 1742.5385 -7474.5834 295.3968 -9217.1219 -7474.2284 299.9582 -237.9026 -105.1304 31403.8939 -115.9082 -50.1120
TCL: Running FEP window  18: Lambda1 0.8500000000000002 Lambda2 0.9000000000000002 [dLambda 0.050000000000000044]
TCL: Setting parameter firsttimestep to 0
TCL: Setting parameter alchLambda to 0.8500000000000002
Info: NONBONDED TABLE R-SQUARED SPACING: 0.0625
Info: NONBONDED TABLE SIZE: 705 POINTS
TCL: Setting parameter alchLambda2 to 0.9000000000000002
Info: NONBONDED TABLE R-SQUARED SPACING: 0.0625
Info: NONBONDED TABLE SIZE: 705 POINTS
TCL: Running for 1500000 steps
ETITLE: TS BOND ANGLE DIHED IMPRP ELECT VDW BOUNDARY MISC KINETIC TOTAL TEMP POTENTIAL TOTALAVG TEMPAVG PRESSURE GPRESSURE VOLUME PRESSAVG GPRESSAVG
ENERGY: 0 1.4089 9.4513 5.3449 0.0000 -10691.4749 1457.0667 0.0000 0.0000 1741.6943 -7476.5088 295.2536 -9218.2031 -7476.5088 295.2536 -187.6725 -98.9256 31403.8939 -187.6725 -98.9256
ENERGY: 300000 3.3196 10.6057 5.0447 0.0000 -10925.9301 1524.8170 0.0000 0.0000 1767.3933 -7614.7498 299.6102 -9382.1431 -7551.5454 296.9163 466.0460 560.9508 30169.1244 151.6585 259.4338
ENERGY: 600000 2.8649 12.0462 3.9986 0.0000 -10663.7110 1385.7091 0.0000 0.0000 1690.5074 -7568.5849 286.5764 -9259.0923 -7573.1765 294.5005 -617.0563 -554.1995 30757.5677 -24.1987 62.1973
ENERGY: 900000 5.7320 9.2580 6.3137 0.0000 -10785.2332 1437.3592 0.0000 0.0000 1706.1766 -7620.3937 289.2327 -9326.5703 -7562.3032 295.7825 94.7300 64.1165 30181.1174 -8.2227 63.5830
ENERGY: 1200000 1.2500 10.4808 5.1819 0.0000 -10779.5080 1455.8391 0.0000 0.0000 1822.7652 -7483.9910 308.9969 -9306.7562 -7560.1224 297.2763 439.5091 474.5764 29854.1002 158.8862 231.3747
ENERGY: 1500000 6.1213 8.2400 5.1704 0.0000 -10698.7511 1399.0943 0.0000 0.0000 1835.9976 -7444.1275 311.2400 -9280.1250 -7543.3856 298.3237 -156.4429 -124.1057 30561.6814 130.0142 196.4521
TCL: Running FEP window  19: Lambda1 0.9000000000000002 Lambda2 0.9500000000000003 [dLambda 0.050000000000000044]
TCL: Setting parameter firsttimestep to 0
TCL: Setting parameter alchLambda to 0.9000000000000002
Info: NONBONDED TABLE R-SQUARED SPACING: 0.0625
Info: NONBONDED TABLE SIZE: 705 POINTS
TCL: Setting parameter alchLambda2 to 0.9500000000000003
Info: NONBONDED TABLE R-SQUARED SPACING: 0.0625
Info: NONBONDED TABLE SIZE: 705 POINTS
TCL: Running for 1500000 steps
ETITLE: TS BOND ANGLE DIHED IMPRP ELECT VDW BOUNDARY MISC KINETIC TOTAL TEMP POTENTIAL TOTALAVG TEMPAVG PRESSURE GPRESSURE VOLUME PRESSAVG GPRESSAVG
ENERGY: 0 6.1213 8.2400 5.1704 0.0000 -10699.6955 1398.8437 0.0000 0.0000 1835.0844 -7446.2357 311.0852 -9281.3201 -7446.2357 311.0852 -196.6319 -115.4474 30561.6814 -196.6319 -115.4474
ENERGY: 300000 0.9909 9.7486 4.8381 0.0000 -10912.5076 1551.9865 0.0000 0.0000 1797.2736 -7547.6699 304.6755 -9344.9436 -7473.4185 304.7413 857.1541 927.2987 30141.1681 20.2251 105.7893
ENERGY: 600000 2.3512 6.2953 5.1513 0.0000 -10663.8262 1430.8849 0.0000 0.0000 1722.8122 -7496.3315 292.0527 -9219.1436 -7486.0815 301.1978 31.1859 49.9594 30675.6312 -87.3602 -21.1889
ENERGY: 900000 3.6687 8.1759 2.9008 0.0000 -10721.5946 1412.4418 0.0000 0.0000 1787.2295 -7507.1778 302.9728 -9294.4073 -7480.2884 301.2890 -311.1837 -272.5851 31001.3666 -159.4281 -95.5328
ENERGY: 1200000 0.6694 7.9384 3.9642 0.0000 -10713.2418 1449.0570 0.0000 0.0000 1759.0126 -7492.6002 298.1895 -9251.6128 -7485.4791 300.3713 357.6826 403.7969 30203.5248 -0.0704 60.9787
ENERGY: 1500000 2.2231 10.2038 6.3626 0.0000 -10708.8716 1442.9707 0.0000 0.0000 1787.6939 -7459.4175 303.0515 -9247.1114 -7481.5860 300.4070 149.6169 178.0305 30260.5714 59.5580 114.0111
TCL: Running FEP window  20: Lambda1 0.9500000000000003 Lambda2 1.0    [dLambda 0.04999999999999971]
TCL: Setting parameter firsttimestep to 0
TCL: Setting parameter alchLambda to 0.9500000000000003
Info: NONBONDED TABLE R-SQUARED SPACING: 0.0625
Info: NONBONDED TABLE SIZE: 705 POINTS
TCL: Setting parameter alchLambda2 to 1.0
Info: NONBONDED TABLE R-SQUARED SPACING: 0.0625
Info: NONBONDED TABLE SIZE: 705 POINTS
TCL: Running for 1500000 steps
ETITLE: TS BOND ANGLE DIHED IMPRP ELECT VDW BOUNDARY MISC KINETIC TOTAL TEMP POTENTIAL TOTALAVG TEMPAVG PRESSURE GPRESSURE VOLUME PRESSAVG GPRESSAVG
ENERGY: 0 2.2231 10.2038 6.3626 0.0000 -10710.1098 1443.6070 0.0000 0.0000 1786.8478 -7460.8654 302.9081 -9247.7132 -7460.8654 302.9081 113.5270 194.2662 30260.5714 113.5270 194.2662
ENERGY: 300000 4.3963 8.3620 3.6434 0.0000 -10658.1016 1398.9432 0.0000 0.0000 1727.0053 -7515.7513 292.7636 -9242.7566 -7495.2169 299.3491 -354.5766 -336.5563 30646.6346 -317.7767 -262.2070
ENERGY: 600000 1.3024 8.7995 3.9831 0.0000 -10861.2797 1554.6655 0.0000 0.0000 1771.0277 -7521.5015 300.2263 -9292.5292 -7482.0996 301.2150 1014.6513 1102.3945 30264.6744 -146.3947 -74.9342
ENERGY: 900000 2.4807 15.9164 5.3108 0.0000 -10748.3967 1411.0390 0.0000 0.0000 1781.1651 -7532.4847 301.9448 -9313.6498 -7476.4879 301.2158 -576.1130 -455.1494 30433.3600 -89.0993 -17.9970
ENERGY: 1200000 1.6328 9.6268 4.0832 0.0000 -10805.3948 1437.9439 0.0000 0.0000 1786.5243 -7565.5837 302.8533 -9352.1080 -7484.2091 301.3796 -7.8699 -8.0569 30366.7882 -23.5708 43.2272
ENERGY: 1500000 2.5163 8.9234 10.1623 0.0000 -10856.4780 1459.4219 0.0000 0.0000 1762.1690 -7613.2851 298.7245 -9375.4541 -7487.9705 300.7948 16.0812 54.4866 30122.9374 -80.1236 -6.0723
TCL: Exiting due to exit command.
