Info: SIMULATION PARAMETERS:
Info: TIMESTEP               2
Info: NUMBER OF STEPS        0
Info: STEPS PER CYCLE        10
Info: PERIODIC CELL BASIS 1  30.5645 0 0
Info: PERIODIC CELL BASIS 2  0 31.2573 0
Info: PERIODIC CELL BASIS 3  0 0 31.1393
Info: PERIODIC CELL CENTER   0 0 0
Info: WRAPPING WATERS AROUND PERIODIC BOUNDARIES ON OUTPUT.
Info: WRAPPING ALL CLUSTERS AROUND PERIODIC BOUNDARIES ON OUTPUT.
Info: FIRST LDB TIMESTEP     50
Info: LAST LDB TIMESTEP     -1
Info: HOM BACKGROUND SCALING 1
Info: PME BACKGROUND SCALING 1
Info: MIN ATOMS PER PATCH    40
Info: EMPTY PATCH LOAD       40 ATOMS
Info: VELOCITY FILE          mobley_7983227_equil.vel
Info: CENTER OF MASS MOVING INITIALLY? NO
Info: DIELECTRIC             1
Info: EXCLUDE                SCALED ONE-FOUR
Info: 1-4 ELECTROSTATICS SCALED BY 0.833333
Info: MODIFIED 1-4 VDW PARAMETERS WILL BE USED
Info: DCD FILENAME           mobley_7983227_prod.dcd
Info: DCD FREQUENCY          100000
Info: DCD FIRST STEP         100000
Info: DCD FILE WILL CONTAIN UNIT CELL DATA
Info: XST FILENAME           mobley_7983227_prod.xst
Info: XST FREQUENCY          100000
Info: NO VELOCITY DCD OUTPUT
Info: NO FORCE DCD OUTPUT
Info: OUTPUT FILENAME        mobley_7983227_prod
Info: BINARY OUTPUT FILES WILL BE USED
Info: RESTART FILENAME       mobley_7983227_prod.restart
Info: RESTART FREQUENCY      100000
Info: BINARY RESTART FILES WILL BE USED
Info: CUTOFF                 9
Info: PAIRLIST DISTANCE      11
Info: PAIRLIST SHRINK RATE   0.01
Info: PAIRLIST GROW RATE     0.01
Info: PAIRLIST TRIGGER       0.3
Info: PAIRLISTS PER CYCLE    2
Info: PAIRLISTS ENABLED
Info: MARGIN                 2
Info: HYDROGEN GROUP CUTOFF  2.5
Info: PATCH DIMENSION        15.5
Info: ENERGY OUTPUT STEPS    100000
Info: ENERGY EVALUATION STEPS    100000
Info: OUTPUT ENERGY PRECISION 4
Info: CROSSTERM ENERGY INCLUDED IN DIHEDRAL
Info: TIMING OUTPUT STEPS    1000000
Info: PRESSURE OUTPUT STEPS  100000
Info: ALCHEMICAL FEP ON
Info: FEP CURRENT LAMBDA VALUE     1
Info: FEP COMPARISON LAMBDA VALUE  0.95
Info: FEP INTRA-ALCHEMICAL NON-BONDED INTERACTIONS WILL BE RETAINED
Info: FEP INTRA-ALCHEMICAL BONDED INTERACTIONS WILL BE RETAINED
Info: FEP VDW SHIFTING COEFFICIENT 5
Info: FEP ELEC. ACTIVE FOR ANNIHILATED PARTICLES BETWEEN LAMBDA = 0 AND LAMBDA = 0.5
Info: FEP ELEC. ACTIVE FOR EXNIHILATED PARTICLES BETWEEN LAMBDA = 0.5 AND LAMBDA = 1
Info: FEP VDW ACTIVE FOR ANNIHILATED PARTICLES BETWEEN LAMBDA = 0 AND LAMBDA = 1
Info: FEP VDW ACTIVE FOR EXNIHILATED PARTICLES BETWEEN LAMBDA = 0 AND LAMBDA = 1
Info: FEP BOND ACTIVE FOR ANNIHILATED PARTICLES BETWEEN LAMBDA = 1 AND LAMBDA = 1
Info: FEP BOND ACTIVE FOR EXNIHILATED PARTICLES BETWEEN LAMBDA = 0 AND LAMBDA = 0
Info: LANGEVIN DYNAMICS ACTIVE
Info: LANGEVIN TEMPERATURE   300
Info: LANGEVIN USING BBK INTEGRATOR
Info: LANGEVIN DAMPING COEFFICIENT IS 1 INVERSE PS
Info: LANGEVIN DYNAMICS APPLIED TO HYDROGENS
Info: LANGEVIN PISTON PRESSURE CONTROL ACTIVE
Info:        TARGET PRESSURE IS 1.01325 BAR
Info:     OSCILLATION PERIOD IS 50 FS
Info:             DECAY TIME IS 25 FS
Info:     PISTON TEMPERATURE IS 300 K
Info:       PRESSURE CONTROL IS GROUP-BASED
Info:    INITIAL STRAIN RATE IS 9.90196e-05 9.90196e-05 9.90196e-05
Info:       CELL FLUCTUATION IS ISOTROPIC
Info: PARTICLE MESH EWALD (PME) ACTIVE
Info: PME TOLERANCE               1e-06
Info: PME EWALD COEFFICIENT       0.348832
Info: PME INTERPOLATION ORDER     4
Info: PME GRID DIMENSIONS         32 32 32
Info: PME MAXIMUM GRID SPACING    1
Info: PME CALCULATION WILL BE PERFORMED ON GPU
Info: FULL ELECTROSTATIC EVALUATION FREQUENCY      2
Info: USING VERLET I (r-RESPA) MTS SCHEME.
Info: C1 SPLITTING OF LONG RANGE ELECTROSTATICS
Info: PLACING ATOMS IN PATCHES BY HYDROGEN GROUPS
Info: RIGID BONDS TO HYDROGEN : ALL
Info:         ERROR TOLERANCE : 1e-08
Info:          MAX ITERATIONS : 100
Info: RIGID WATER USING SETTLE ALGORITHM
Info: RANDOM NUMBER SEED     1743853338
Info: USE HYDROGEN BONDS?    NO
Info: Using AMBER format force field!
Info: AMBER PARM FILE        mobley_7983227.prmtop
Info: COORDINATE PDB         mobley_7983227.pdb
Info: Exclusions will be read from PARM file!
Info: SCNB (VDW SCALING)     2
Info: USING ARITHMETIC MEAN TO COMBINE L-J SIGMA PARAMETERS
Info: BINARY COORDINATES     mobley_7983227_equil.coor
Info: SUMMARY OF PARAMETERS:
Info: 7 BONDS
Info: 8 ANGLES
Info:   8 HARMONIC
Info:   0 COSINE-BASED
Info: 9 DIHEDRAL
Info: 0 IMPROPER
Info: 0 CROSSTERM
Info: 0 VDW
Info: 21 VDW_PAIRS
Info: 0 NBTHOLE_PAIRS
Info: To read alchdata from file: mobley_7983227.pdb
Info: To read alchflag data from column: 5
Info: STRUCTURE SUMMARY:
Info: 2928 ATOMS
Info: 2927 BONDS
Info: 31 ANGLES
Info: 45 DIHEDRALS
Info: 0 IMPROPERS
Info: 0 CROSSTERMS
Info: 2997 EXCLUSIONS
Info: 2922 RIGID BONDS
Info: ALCH: 0 ATOMS TO DISAPPEAR IN FINAL STATE
Info: ALCH: 18 ATOMS TO APPEAR IN FINAL STATE
Info: 5862 DEGREES OF FREEDOM
Info: 976 HYDROGEN GROUPS
Info: 4 ATOMS IN LARGEST HYDROGEN GROUP
Info: 976 MIGRATION GROUPS
Info: 4 ATOMS IN LARGEST MIGRATION GROUP
Info: TOTAL MASS = 17563.7 amu
Info: TOTAL CHARGE = -0.000200011 e
Info: MASS DENSITY = 0.980387 g/cm^3
Info: ATOM DENSITY = 0.0984225 atoms/A^3
Info: ADDED 0 IMPLICIT EXCLUSIONS
Info: NONBONDED TABLE R-SQUARED SPACING: 0.0625
Info: NONBONDED TABLE SIZE: 705 POINTS
Info: REMOVING COM VELOCITY -0.336162 0.0873357 -0.12624
Info: Use 3D box decompostion in PME FFT.
Info: Updated CUDA force table with 4096 elements.
Info: Updated CUDA LJ table with 6 x 6 elements.
Info: Found 21 unique exclusion lists needing 52 bytes
TCL: Running for 1500000 steps
ETITLE: TS BOND ANGLE DIHED IMPRP ELECT VDW BOUNDARY MISC KINETIC TOTAL TEMP POTENTIAL TOTALAVG TEMPAVG PRESSURE GPRESSURE VOLUME PRESSAVG GPRESSAVG
ENERGY: 0 2.0582 11.0879 3.4319 0.0000 -10568.3304 1458.8511 0.0000 0.0000 1814.3679 -7278.5333 311.5085 -9092.9012 -7278.5333 311.5085 680.6116 758.5427 29749.3017 680.6116 758.5427
ENERGY: 300000 1.2449 11.5273 2.9267 0.0000 -10481.7367 1353.4917 0.0000 0.0000 1782.9248 -7329.6213 306.1101 -9112.5461 -7355.1048 305.0367 -609.6086 -454.4953 30470.2394 -240.9597 -138.6734
ENERGY: 600000 1.9137 7.3990 1.9903 0.0000 -10582.1603 1437.9114 0.0000 0.0000 1763.0467 -7369.8992 302.6972 -9132.9460 -7365.8111 303.9498 169.8405 226.4083 30219.9313 46.3802 114.2492
ENERGY: 900000 2.1649 8.4205 2.7459 0.0000 -10506.0873 1334.5034 0.0000 0.0000 1693.3670 -7464.8855 290.7339 -9158.2525 -7385.7550 302.5990 -722.5188 -651.6418 30119.7842 -53.0023 16.4880
ENERGY: 1200000 0.1773 15.6224 2.6847 0.0000 -10664.9557 1416.7183 0.0000 0.0000 1718.0014 -7511.7515 294.9634 -9229.7529 -7401.5825 301.6965 -68.5624 -50.2271 29898.3364 -33.1358 35.9415
ENERGY: 1500000 1.0091 7.1992 2.9759 0.0000 -10694.8032 1522.8422 0.0000 0.0000 1784.8399 -7375.9369 306.4389 -9160.7769 -7406.4866 301.8641 531.9645 558.1820 30520.6468 -22.4199 49.1382
TCL: Running FEP window   2: Lambda1 0.95   Lambda2 0.8999999999999999 [dLambda -0.050000000000000044]
TCL: Setting parameter firsttimestep to 0
TCL: Setting parameter alchLambda to 0.95
Info: NONBONDED TABLE R-SQUARED SPACING: 0.0625
Info: NONBONDED TABLE SIZE: 705 POINTS
TCL: Setting parameter alchLambda2 to 0.8999999999999999
Info: NONBONDED TABLE R-SQUARED SPACING: 0.0625
Info: NONBONDED TABLE SIZE: 705 POINTS
TCL: Running for 1500000 steps
ETITLE: TS BOND ANGLE DIHED IMPRP ELECT VDW BOUNDARY MISC KINETIC TOTAL TEMP POTENTIAL TOTALAVG TEMPAVG PRESSURE GPRESSURE VOLUME PRESSAVG GPRESSAVG
ENERGY: 0 1.0091 7.1992 2.9759 0.0000 -10693.5610 1522.3967 0.0000 0.0000 1783.9434 -7376.0367 306.2849 -9159.9801 -7376.0367 306.2849 463.7995 543.4774 30520.6468 463.7995 543.4774
ENERGY: 300000 1.3898 6.9940 5.7979 0.0000 -10534.1495 1408.6571 0.0000 0.0000 1781.4030 -7329.9076 305.8488 -9111.3106 -7378.8096 304.3646 -152.8112 -45.7618 30385.7611 -200.3871 -111.5049
ENERGY: 600000 0.2188 10.2247 2.7074 0.0000 -10756.6235 1521.1158 0.0000 0.0000 1742.0963 -7480.2605 299.1002 -9222.3568 -7387.2197 303.9931 396.4193 469.4243 30302.8390 -26.2169 50.2015
ENERGY: 900000 0.5920 9.6714 2.8633 0.0000 -10553.4628 1375.0461 0.0000 0.0000 1732.8251 -7432.4649 297.5084 -9165.2900 -7390.8205 302.2440 -553.8002 -473.6852 30404.9755 -92.9292 -17.7003
ENERGY: 1200000 1.4110 9.9190 2.9020 0.0000 -10670.3124 1511.0784 0.0000 0.0000 1735.2081 -7409.7940 297.9176 -9145.0020 -7405.9574 301.0978 804.3411 899.8043 29844.1000 22.7936 97.6750
ENERGY: 1500000 1.3385 9.3388 2.2984 0.0000 -10507.9882 1331.6641 0.0000 0.0000 1728.6318 -7434.7166 296.7885 -9163.3484 -7405.9892 301.0823 -755.2048 -666.8471 30221.5355 -81.4240 -2.5677
TCL: Running FEP window   3: Lambda1 0.8999999999999999 Lambda2 0.8499999999999999 [dLambda -0.050000000000000044]
TCL: Setting parameter firsttimestep to 0
TCL: Setting parameter alchLambda to 0.8999999999999999
Info: NONBONDED TABLE R-SQUARED SPACING: 0.0625
Info: NONBONDED TABLE SIZE: 705 POINTS
TCL: Setting parameter alchLambda2 to 0.8499999999999999
Info: NONBONDED TABLE R-SQUARED SPACING: 0.0625
Info: NONBONDED TABLE SIZE: 705 POINTS
TCL: Running for 1500000 steps
ETITLE: TS BOND ANGLE DIHED IMPRP ELECT VDW BOUNDARY MISC KINETIC TOTAL TEMP POTENTIAL TOTALAVG TEMPAVG PRESSURE GPRESSURE VOLUME PRESSAVG GPRESSAVG
ENERGY: 0 1.3385 9.3388 2.2984 0.0000 -10506.5478 1331.2478 0.0000 0.0000 1727.7983 -7434.5259 296.6454 -9162.3242 -7434.5259 296.6454 -745.9857 -679.6918 30221.5355 -745.9857 -679.6918
ENERGY: 300000 0.2603 6.8428 2.8077 0.0000 -10635.2567 1473.7352 0.0000 0.0000 1751.5037 -7400.1070 300.7154 -9151.6107 -7397.8548 298.8749 615.0144 620.1429 30045.4828 -215.9794 -150.1720
ENERGY: 600000 0.4970 10.6863 2.9849 0.0000 -10393.5859 1291.6396 0.0000 0.0000 1726.7823 -7360.9957 296.4710 -9087.7780 -7398.7547 298.6432 -629.9386 -623.1063 30171.4377 -281.3704 -220.8112
ENERGY: 900000 1.0399 10.7389 3.3394 0.0000 -10574.6002 1376.3597 0.0000 0.0000 1762.1115 -7421.0108 302.5366 -9183.1223 -7397.9319 299.5188 -452.1269 -433.3467 30141.3869 -302.1071 -253.0276
ENERGY: 1200000 1.9642 4.2293 3.3790 0.0000 -10654.9176 1436.7522 0.0000 0.0000 1757.3134 -7451.2796 301.7128 -9208.5929 -7403.0943 300.2566 -102.8303 -11.3214 30040.2270 -188.6559 -139.2528
ENERGY: 1500000 0.4961 5.7594 4.2333 0.0000 -10492.6179 1403.1032 0.0000 0.0000 1712.0167 -7367.0091 293.9359 -9079.0258 -7398.4865 300.6459 -214.7589 -178.8573 30898.8351 -147.2250 -98.5211
TCL: Running FEP window   4: Lambda1 0.8499999999999999 Lambda2 0.7999999999999998 [dLambda -0.050000000000000044]
TCL: Setting parameter firsttimestep to 0
TCL: Setting parameter alchLambda to 0.8499999999999999
Info: NONBONDED TABLE R-SQUARED SPACING: 0.0625
Info: NONBONDED TABLE SIZE: 705 POINTS
TCL: Setting parameter alchLambda2 to 0.7999999999999998
Info: NONBONDED TABLE R-SQUARED SPACING: 0.0625
Info: NONBONDED TABLE SIZE: 705 POINTS
TCL: Running for 1500000 steps
ETITLE: TS BOND ANGLE DIHED IMPRP ELECT VDW BOUNDARY MISC KINETIC TOTAL TEMP POTENTIAL TOTALAVG TEMPAVG PRESSURE GPRESSURE VOLUME PRESSAVG GPRESSAVG
ENERGY: 0 0.4961 5.7594 4.2333 0.0000 -10491.7579 1403.0133 0.0000 0.0000 1711.1536 -7367.1021 293.7877 -9078.2557 -7367.1021 293.7877 -266.4018 -184.7491 30898.8351 -266.4018 -184.7491
ENERGY: 300000 1.7346 6.8981 2.0824 0.0000 -10540.1380 1374.6432 0.0000 0.0000 1747.1537 -7407.6261 299.9685 -9154.7798 -7385.2645 301.1464 -300.6519 -176.8137 30167.2932 -215.5404 -106.0261
ENERGY: 600000 2.0159 8.0396 3.7739 0.0000 -10581.3974 1412.7058 0.0000 0.0000 1740.4793 -7414.3828 298.8226 -9154.8621 -7388.9439 299.8729 -81.1032 -59.5497 29969.3261 -168.3695 -106.6187
ENERGY: 900000 1.0625 6.9642 1.9791 0.0000 -10698.6799 1486.4452 0.0000 0.0000 1743.2069 -7459.0219 299.2909 -9202.2288 -7403.4463 299.6046 304.4841 396.4195 30179.8067 -162.3894 -90.7469
ENERGY: 1200000 0.6742 6.5463 3.5003 0.0000 -10614.8011 1385.8529 0.0000 0.0000 1772.6193 -7445.6082 304.3407 -9218.2275 -7406.1649 300.4433 -404.9047 -399.0849 30203.3430 -139.9497 -76.5252
ENERGY: 1500000 4.9846 8.2202 1.0624 0.0000 -10590.6187 1439.8251 0.0000 0.0000 1733.3306 -7403.1958 297.5952 -9136.5264 -7400.3951 300.7919 216.0477 313.6203 29955.4006 -145.6193 -77.6923
TCL: Running FEP window   5: Lambda1 0.7999999999999998 Lambda2 0.7499999999999998 [dLambda -0.050000000000000044]
TCL: Setting parameter firsttimestep to 0
TCL: Setting parameter alchLambda to 0.7999999999999998
Info: NONBONDED TABLE R-SQUARED SPACING: 0.0625
Info: NONBONDED TABLE SIZE: 705 POINTS
TCL: Setting parameter alchLambda2 to 0.7499999999999998
Info: NONBONDED TABLE R-SQUARED SPACING: 0.0625
Info: NONBONDED TABLE SIZE: 705 POINTS
TCL: Running for 1500000 steps
ETITLE: TS BOND ANGLE DIHED IMPRP ELECT VDW BOUNDARY MISC KINETIC TOTAL TEMP POTENTIAL TOTALAVG TEMPAVG PRESSURE GPRESSURE VOLUME PRESSAVG GPRESSAVG
ENERGY: 0 4.9846 8.2202 1.0624 0.0000 -10588.9909 1439.2060 0.0000 0.0000 1732.4567 -7403.0610 297.4452 -9135.5177 -7403.0610 297.4452 230.9344 300.1868 29955.4006 230.9344 300.1868
ENERGY: 300000 2.4164 7.9243 1.7999 0.0000 -10523.7424 1353.2359 0.0000 0.0000 1725.1204 -7433.2454 296.1856 -9158.3658 -7409.0849 298.0765 -811.1543 -735.6179 30680.6057 -60.0885 31.2475
ENERGY: 600000 1.2342 6.2104 1.9563 0.0000 -10541.7716 1397.3603 0.0000 0.0000 1753.1958 -7381.8146 301.0059 -9135.0105 -7410.3509 299.3338 -455.5708 -359.3692 30496.7079 -182.1166 -99.0391
ENERGY: 900000 2.5299 5.6057 2.7707 0.0000 -10527.0858 1462.2641 0.0000 0.0000 1764.9568 -7288.9587 303.0251 -9053.9155 -7402.6334 300.3201 652.5826 679.3321 30124.0097 -100.7856 -29.6699
ENERGY: 1200000 0.6579 13.0654 1.3803 0.0000 -10570.4011 1459.8492 0.0000 0.0000 1796.4528 -7298.9956 308.4327 -9095.4484 -7392.0203 301.9975 334.6933 482.0475 30081.8135 -124.6636 -53.2516
ENERGY: 1500000 1.0549 8.5812 3.7857 0.0000 -10629.3025 1422.9714 0.0000 0.0000 1748.4936 -7444.4156 300.1986 -9192.9092 -7395.9179 301.2908 26.1516 75.7405 29890.4253 -56.8642 8.1512
TCL: Running FEP window   6: Lambda1 0.7499999999999998 Lambda2 0.6999999999999997 [dLambda -0.050000000000000044]
TCL: Setting parameter firsttimestep to 0
TCL: Setting parameter alchLambda to 0.7499999999999998
Info: NONBONDED TABLE R-SQUARED SPACING: 0.0625
Info: NONBONDED TABLE SIZE: 705 POINTS
TCL: Setting parameter alchLambda2 to 0.6999999999999997
Info: NONBONDED TABLE R-SQUARED SPACING: 0.0625
Info: NONBONDED TABLE SIZE: 705 POINTS
TCL: Running for 1500000 steps
ETITLE: TS BOND ANGLE DIHED IMPRP ELECT VDW BOUNDARY MISC KINETIC TOTAL TEMP POTENTIAL TOTALAVG TEMPAVG PRESSURE GPRESSURE VOLUME PRESSAVG GPRESSAVG
ENERGY: 0 1.0549 8.5812 3.7857 0.0000 -10628.7347 1423.0074 0.0000 0.0000 1747.6128 -7444.6925 300.0473 -9192.3054 -7444.6925 300.0473 -19.1952 68.4452 29890.4253 -19.1952 68.4452
ENERGY: 300000 0.1790 4.4208 3.8344 0.0000 -10500.8905 1388.9766 0.0000 0.0000 1710.6099 -7392.8699 293.6943 -9103.4797 -7396.3583 297.0326 -45.3973 20.6908 30019.9382 20.6393 108.6873
ENERGY: 600000 1.7246 13.8890 3.0855 0.0000 -10692.7910 1498.0499 0.0000 0.0000 1767.1786 -7408.8634 303.4066 -9176.0420 -7394.9069 299.6521 397.4525 475.8098 30113.6713 153.6444 232.2599
ENERGY: 900000 1.6552 9.5635 3.4339 0.0000 -10532.3568 1357.2511 0.0000 0.0000 1755.1297 -7405.3234 301.3379 -9160.4531 -7401.6571 300.1158 -616.4562 -502.6483 30280.7074 53.7957 133.5962
ENERGY: 1200000 0.8748 6.1672 3.7413 0.0000 -10635.6083 1514.7324 0.0000 0.0000 1707.9723 -7402.1203 293.2415 -9110.0926 -7397.7765 299.6790 845.5979 909.9241 30098.4831 170.4198 238.6489
ENERGY: 1500000 2.8458 4.3129 2.1646 0.0000 -10696.4801 1475.7445 0.0000 0.0000 1734.6329 -7476.7794 297.8188 -9211.4123 -7402.8571 298.9551 201.3143 279.5852 29697.0189 166.6050 228.7854
TCL: Running FEP window   7: Lambda1 0.6999999999999997 Lambda2 0.6499999999999997 [dLambda -0.050000000000000044]
TCL: Setting parameter firsttimestep to 0
TCL: Setting parameter alchLambda to 0.6999999999999997
Info: NONBONDED TABLE R-SQUARED SPACING: 0.0625
Info: NONBONDED TABLE SIZE: 705 POINTS
TCL: Setting parameter alchLambda2 to 0.6499999999999997
Info: NONBONDED TABLE R-SQUARED SPACING: 0.0625
Info: NONBONDED TABLE SIZE: 705 POINTS
TCL: Running for 1500000 steps
ETITLE: TS BOND ANGLE DIHED IMPRP ELECT VDW BOUNDARY MISC KINETIC TOTAL TEMP POTENTIAL TOTALAVG TEMPAVG PRESSURE GPRESSURE VOLUME PRESSAVG GPRESSAVG
ENERGY: 0 2.8458 4.3129 2.1646 0.0000 -10694.0692 1473.8152 0.0000 0.0000 1733.7807 -7477.1501 297.6725 -9210.9308 -7477.1501 297.6725 166.1155 260.2273 29697.0189 166.1155 260.2273
ENERGY: 300000 0.9191 7.8166 3.9098 0.0000 -10495.2939 1432.1672 0.0000 0.0000 1745.6979 -7304.7833 299.7186 -9050.4812 -7414.2348 301.5676 314.3828 351.7200 30126.4284 -39.7045 28.7004
ENERGY: 600000 2.6455 6.6494 3.0284 0.0000 -10682.7412 1474.3348 0.0000 0.0000 1756.8808 -7439.2023 301.6386 -9196.0832 -7421.4118 301.8980 360.9749 489.3626 29878.6805 -95.1804 -37.4994
ENERGY: 900000 2.9964 8.8220 3.5516 0.0000 -10603.7902 1430.7713 0.0000 0.0000 1766.5154 -7391.1336 303.2927 -9157.6490 -7399.3662 302.6462 -87.7733 -64.3128 30266.8456 -12.8531 49.6198
ENERGY: 1200000 1.5984 6.3072 3.9897 0.0000 -10654.1526 1495.7065 0.0000 0.0000 1775.2334 -7371.3174 304.7895 -9146.5508 -7398.0495 302.6581 727.5207 802.5506 29895.3901 49.0168 115.4546
ENERGY: 1500000 2.3426 5.0519 1.7137 0.0000 -10534.3005 1358.1098 0.0000 0.0000 1813.1907 -7353.8917 311.3064 -9167.0824 -7387.2032 302.6457 -487.2057 -443.3465 30180.1685 -94.2394 -25.7461
TCL: Running FEP window   8: Lambda1 0.6499999999999997 Lambda2 0.5999999999999996 [dLambda -0.050000000000000044]
TCL: Setting parameter firsttimestep to 0
TCL: Setting parameter alchLambda to 0.6499999999999997
Info: NONBONDED TABLE R-SQUARED SPACING: 0.0625
Info: NONBONDED TABLE SIZE: 705 POINTS
TCL: Setting parameter alchLambda2 to 0.5999999999999996
Info: NONBONDED TABLE R-SQUARED SPACING: 0.0625
Info: NONBONDED TABLE SIZE: 705 POINTS
TCL: Running for 1500000 steps
ETITLE: TS BOND ANGLE DIHED IMPRP ELECT VDW BOUNDARY MISC KINETIC TOTAL TEMP POTENTIAL TOTALAVG TEMPAVG PRESSURE GPRESSURE VOLUME PRESSAVG GPRESSAVG
ENERGY: 0 2.3426 5.0519 1.7137 0.0000 -10534.1041 1358.4385 0.0000 0.0000 1812.3328 -7354.2246 311.1591 -9166.5574 -7354.2246 311.1591 -517.2187 -445.6341 30180.1685 -517.2187 -445.6341
ENERGY: 300000 0.4157 7.0460 2.4217 0.0000 -10518.5587 1382.2717 0.0000 0.0000 1742.6187 -7383.7850 299.1899 -9126.4037 -7373.1343 301.3529 -158.0899 -122.4912 29941.5530 -37.3625 23.6843
ENERGY: 600000 0.4601 5.5504 3.0640 0.0000 -10589.4035 1408.7960 0.0000 0.0000 1719.4825 -7452.0506 295.2177 -9171.5331 -7397.3922 299.1925 -120.3781 -6.1358 29887.9536 -81.1113 -15.5573
ENERGY: 900000 1.8537 7.9042 1.2127 0.0000 -10457.9354 1338.9719 0.0000 0.0000 1741.9042 -7366.0886 299.0672 -9107.9928 -7384.0989 299.3342 -376.5579 -329.0841 29807.1793 -251.0071 -189.4139
ENERGY: 1200000 1.4691 12.1731 3.6954 0.0000 -10557.9245 1422.5589 0.0000 0.0000 1804.4531 -7313.5749 309.8062 -9118.0279 -7390.4425 299.6170 192.5667 239.6901 30248.7667 -177.9256 -121.8315
ENERGY: 1500000 0.6672 10.8617 2.7430 0.0000 -10658.1679 1466.9327 0.0000 0.0000 1772.8379 -7404.1255 304.3782 -9176.9633 -7390.8528 299.8599 489.4407 505.9301 29836.6250 -128.9262 -77.3671
TCL: Running FEP window   9: Lambda1 0.5999999999999996 Lambda2 0.5499999999999996 [dLambda -0.050000000000000044]
TCL: Setting parameter firsttimestep to 0
TCL: Setting parameter alchLambda to 0.5999999999999996
Info: NONBONDED TABLE R-SQUARED SPACING: 0.0625
Info: NONBONDED TABLE SIZE: 705 POINTS
TCL: Setting parameter alchLambda2 to 0.5499999999999996
Info: NONBONDED TABLE R-SQUARED SPACING: 0.0625
Info: NONBONDED TABLE SIZE: 705 POINTS
TCL: Running for 1500000 steps
ETITLE: TS BOND ANGLE DIHED IMPRP ELECT VDW BOUNDARY MISC KINETIC TOTAL TEMP POTENTIAL TOTALAVG TEMPAVG PRESSURE GPRESSURE VOLUME PRESSAVG GPRESSAVG
ENERGY: 0 0.6672 10.8617 2.7430 0.0000 -10657.3847 1466.6823 0.0000 0.0000 1771.8951 -7404.5353 304.2164 -9176.4305 -7404.5353 304.2164 435.3793 500.8122 29836.6250 435.3793 500.8122
ENERGY: 300000 2.2494 9.0006 2.9424 0.0000 -10598.3861 1492.1186 0.0000 0.0000 1740.8363 -7351.2388 298.8839 -9092.0751 -7412.6198 300.9444 630.4646 677.8080 30203.0545 225.2824 282.1493
ENERGY: 600000 0.2395 13.8731 4.4869 0.0000 -10553.0412 1426.3840 0.0000 0.0000 1779.9917 -7328.0660 305.6065 -9108.0578 -7399.5399 301.2442 189.9983 245.4482 30007.7978 -47.5243 19.5082
ENERGY: 900000 2.2020 8.0864 3.9071 0.0000 -10601.0343 1417.7882 0.0000 0.0000 1835.0510 -7333.9997 315.0596 -9169.0507 -7381.7035 303.2168 -245.5266 -211.6984 30124.3413 -136.9056 -66.1781
ENERGY: 1200000 3.5897 6.3560 2.8123 0.0000 -10624.6470 1422.6412 0.0000 0.0000 1744.2937 -7444.9541 299.4775 -9189.2478 -7392.7152 303.1642 -408.9273 -344.6694 30392.1037 -100.3972 -39.3013
ENERGY: 1500000 1.0823 9.5986 2.2651 0.0000 -10556.5847 1377.8224 0.0000 0.0000 1780.3825 -7385.4338 305.6736 -9165.8163 -7395.6296 302.8453 -511.1917 -396.4307 30056.2968 -78.5114 -9.5215
TCL: Running FEP window  10: Lambda1 0.5499999999999996 Lambda2 0.4999999999999996 [dLambda -0.04999999999999999]
TCL: Setting parameter firsttimestep to 0
TCL: Setting parameter alchLambda to 0.5499999999999996
Info: NONBONDED TABLE R-SQUARED SPACING: 0.0625
Info: NONBONDED TABLE SIZE: 705 POINTS
TCL: Setting parameter alchLambda2 to 0.4999999999999996
Info: NONBONDED TABLE R-SQUARED SPACING: 0.0625
Info: NONBONDED TABLE SIZE: 705 POINTS
TCL: Running for 1500000 steps
ETITLE: TS BOND ANGLE DIHED IMPRP ELECT VDW BOUNDARY MISC KINETIC TOTAL TEMP POTENTIAL TOTALAVG TEMPAVG PRESSURE GPRESSURE VOLUME PRESSAVG GPRESSAVG
ENERGY: 0 1.0823 9.5986 2.2651 0.0000 -10556.5795 1377.7640 0.0000 0.0000 1779.5020 -7386.3675 305.5224 -9165.8695 -7386.3675 305.5224 -497.8230 -404.0023 30056.2968 -497.8230 -404.0023
ENERGY: 300000 1.8907 9.5525 1.8271 0.0000 -10570.1774 1433.3754 0.0000 0.0000 1765.9866 -7357.5451 303.2019 -9123.5317 -7369.9753 303.7090 195.5887 227.9414 30396.9823 125.0153 193.1328
ENERGY: 600000 1.1798 7.9213 3.4435 0.0000 -10547.3804 1410.1888 0.0000 0.0000 1760.8088 -7363.8382 302.3130 -9124.6470 -7379.9823 303.1321 189.1356 214.5318 29729.0750 133.5878 199.3917
ENERGY: 900000 0.4652 6.2486 3.7455 0.0000 -10640.4265 1486.0367 0.0000 0.0000 1736.2081 -7407.7224 298.0893 -9143.9305 -7371.3826 304.3372 181.1314 205.5006 30781.7606 141.4193 196.4648
ENERGY: 1200000 0.7460 3.8714 3.4783 0.0000 -10681.1332 1485.8585 0.0000 0.0000 1732.9970 -7454.1820 297.5380 -9187.1790 -7381.8164 302.9370 562.6360 583.6109 29789.7556 148.4694 204.4194
ENERGY: 1500000 1.1617 6.7671 2.7769 0.0000 -10635.5194 1405.8168 0.0000 0.0000 1710.5197 -7508.4772 293.6788 -9218.9969 -7390.9813 301.4215 -351.6818 -282.2038 29819.4826 48.5782 109.9552
TCL: Running FEP window  11: Lambda1 0.4999999999999996 Lambda2 0.4499999999999996 [dLambda -0.04999999999999999]
TCL: Setting parameter firsttimestep to 0
TCL: Setting parameter alchLambda to 0.4999999999999996
Info: NONBONDED TABLE R-SQUARED SPACING: 0.0625
Info: NONBONDED TABLE SIZE: 705 POINTS
TCL: Setting parameter alchLambda2 to 0.4499999999999996
Info: NONBONDED TABLE R-SQUARED SPACING: 0.0625
Info: NONBONDED TABLE SIZE: 705 POINTS
TCL: Running for 1500000 steps
ETITLE: TS BOND ANGLE DIHED IMPRP ELECT VDW BOUNDARY MISC KINETIC TOTAL TEMP POTENTIAL TOTALAVG TEMPAVG PRESSURE GPRESSURE VOLUME PRESSAVG GPRESSAVG
ENERGY: 0 1.1617 6.7671 2.7769 0.0000 -10635.5703 1405.9968 0.0000 0.0000 1709.6269 -7509.2409 293.5255 -9218.8678 -7509.2409 293.5255 -370.5529 -286.1900 29819.4826 -370.5529 -286.1900
ENERGY: 300000 0.8868 5.5164 1.9689 0.0000 -10515.7439 1412.4446 0.0000 0.0000 1745.8902 -7349.0369 299.7516 -9094.9272 -7403.6213 300.1545 128.5762 173.9681 30088.9469 -346.4396 -288.0117
ENERGY: 600000 0.6491 7.4881 2.6111 0.0000 -10489.9247 1370.5172 0.0000 0.0000 1782.6209 -7326.0383 306.0579 -9108.6592 -7398.9977 299.3747 -408.4140 -277.4917 30222.2514 -98.2539 -32.6932
ENERGY: 900000 3.0327 6.3838 2.2252 0.0000 -10635.3330 1402.7325 0.0000 0.0000 1761.9888 -7458.9700 302.5156 -9220.9588 -7408.1043 299.5652 -558.4961 -552.9709 30436.9742 -120.1289 -56.9759
ENERGY: 1200000 2.1661 8.1487 3.3468 0.0000 -10666.6852 1529.9485 0.0000 0.0000 1793.3268 -7329.7484 307.8960 -9123.0752 -7402.7491 300.3644 877.6202 998.7406 30014.6320 -22.1722 40.8956
ENERGY: 1500000 0.8347 11.6791 2.0568 0.0000 -10498.4798 1378.9662 0.0000 0.0000 1778.9047 -7326.0383 305.4198 -9104.9430 -7391.2700 301.0139 -222.1254 -134.6250 30160.0471 -63.8486 7.3264
TCL: Running FEP window  12: Lambda1 0.4499999999999996 Lambda2 0.39999999999999963 [dLambda -0.04999999999999999]
TCL: Setting parameter firsttimestep to 0
TCL: Setting parameter alchLambda to 0.4499999999999996
Info: NONBONDED TABLE R-SQUARED SPACING: 0.0625
Info: NONBONDED TABLE SIZE: 705 POINTS
TCL: Setting parameter alchLambda2 to 0.39999999999999963
Info: NONBONDED TABLE R-SQUARED SPACING: 0.0625
Info: NONBONDED TABLE SIZE: 705 POINTS
TCL: Running for 1500000 steps
ETITLE: TS BOND ANGLE DIHED IMPRP ELECT VDW BOUNDARY MISC KINETIC TOTAL TEMP POTENTIAL TOTALAVG TEMPAVG PRESSURE GPRESSURE VOLUME PRESSAVG GPRESSAVG
ENERGY: 0 0.8347 11.6791 2.0568 0.0000 -10498.4803 1379.2094 0.0000 0.0000 1778.0576 -7326.6427 305.2744 -9104.7003 -7326.6427 305.2744 -218.4617 -140.5237 30160.0471 -218.4617 -140.5237
ENERGY: 300000 0.1007 8.0135 2.6708 0.0000 -10487.2965 1327.5413 0.0000 0.0000 1720.6934 -7428.2768 295.4256 -9148.9701 -7418.6459 296.6913 -895.9960 -855.3105 30360.7252 -288.7117 -221.2425
ENERGY: 600000 2.6532 9.4899 1.6991 0.0000 -10580.4152 1395.8094 0.0000 0.0000 1776.1031 -7394.6607 304.9388 -9170.7637 -7401.7530 298.7679 -194.4173 -144.7932 29872.3898 -130.0408 -76.9832
ENERGY: 900000 0.9527 8.1187 3.0811 0.0000 -10631.2402 1421.6601 0.0000 0.0000 1778.0460 -7419.3816 305.2724 -9197.4276 -7422.3754 298.8641 -148.0907 -63.9886 29980.3157 -270.6057 -217.8078
ENERGY: 1200000 0.2548 7.0598 2.4662 0.0000 -10527.9743 1435.9993 0.0000 0.0000 1740.0520 -7342.1422 298.7492 -9082.1942 -7415.3432 298.9852 183.0368 218.2718 30436.3662 -222.4398 -168.9149
ENERGY: 1500000 2.2857 10.8157 2.8827 0.0000 -10576.0071 1413.9744 0.0000 0.0000 1756.6449 -7389.4036 301.5981 -9146.0485 -7415.6814 299.4167 -139.5610 -14.5621 30083.9656 -228.3381 -168.2940
TCL: Running FEP window  13: Lambda1 0.39999999999999963 Lambda2 0.34999999999999964 [dLambda -0.04999999999999999]
TCL: Setting parameter firsttimestep to 0
TCL: Setting parameter alchLambda to 0.39999999999999963
Info: NONBONDED TABLE R-SQUARED SPACING: 0.0625
Info: NONBONDED TABLE SIZE: 705 POINTS
TCL: Setting parameter alchLambda2 to 0.34999999999999964
Info: NONBONDED TABLE R-SQUARED SPACING: 0.0625
Info: NONBONDED TABLE SIZE: 705 POINTS
TCL: Running for 1500000 steps
ETITLE: TS BOND ANGLE DIHED IMPRP ELECT VDW BOUNDARY MISC KINETIC TOTAL TEMP POTENTIAL TOTALAVG TEMPAVG PRESSURE GPRESSURE VOLUME PRESSAVG GPRESSAVG
ENERGY: 0 2.2857 10.8157 2.8827 0.0000 -10576.0070 1414.1673 0.0000 0.0000 1755.7932 -7390.0623 301.4518 -9145.8556 -7390.0623 301.4518 -94.8504 -16.2595 30083.9656 -94.8504 -16.2595
ENERGY: 300000 2.9454 10.3457 3.0586 0.0000 -10516.7867 1403.5723 0.0000 0.0000 1761.9732 -7334.8915 302.5129 -9096.8647 -7418.2372 299.3356 24.5296 28.6171 30099.7972 150.5598 206.2610
ENERGY: 600000 0.6294 11.7143 3.4912 0.0000 -10568.6520 1415.6860 0.0000 0.0000 1743.7288 -7393.4023 299.3805 -9137.1311 -7412.2780 300.2783 -98.3045 -2.2507 29994.8930 94.3145 159.2265
ENERGY: 900000 1.8270 13.0084 2.8799 0.0000 -10639.2197 1386.1747 0.0000 0.0000 1758.5129 -7476.8169 301.9188 -9235.3297 -7410.2944 300.2445 -196.8655 -158.1559 29543.4750 -63.0264 -1.8831
ENERGY: 1200000 2.5655 7.8017 2.8554 0.0000 -10650.0584 1417.1911 0.0000 0.0000 1755.8695 -7463.7752 301.4649 -9219.6447 -7415.1224 299.7880 -292.3493 -183.3368 29830.8966 -146.3152 -80.9184
ENERGY: 1500000 1.8145 6.3972 1.5416 0.0000 -10632.2101 1452.4326 0.0000 0.0000 1685.3451 -7484.6790 289.3566 -9170.0241 -7417.6464 299.0750 266.8310 309.0610 29911.0706 -114.0518 -45.7787
TCL: Running FEP window  14: Lambda1 0.34999999999999964 Lambda2 0.29999999999999966 [dLambda -0.04999999999999999]
TCL: Setting parameter firsttimestep to 0
TCL: Setting parameter alchLambda to 0.34999999999999964
Info: NONBONDED TABLE R-SQUARED SPACING: 0.0625
Info: NONBONDED TABLE SIZE: 705 POINTS
TCL: Setting parameter alchLambda2 to 0.29999999999999966
Info: NONBONDED TABLE R-SQUARED SPACING: 0.0625
Info: NONBONDED TABLE SIZE: 705 POINTS
TCL: Running for 1500000 steps
ETITLE: TS BOND ANGLE DIHED IMPRP ELECT VDW BOUNDARY MISC KINETIC TOTAL TEMP POTENTIAL TOTALAVG TEMPAVG PRESSURE GPRESSURE VOLUME PRESSAVG GPRESSAVG
ENERGY: 0 1.8145 6.3972 1.5416 0.0000 -10632.2104 1452.7745 0.0000 0.0000 1684.4497 -7485.2330 289.2029 -9169.6826 -7485.2330 289.2029 226.0195 305.8447 29911.0706 226.0195 305.8447
ENERGY: 300000 1.1216 6.4942 2.2570 0.0000 -10605.2165 1411.9230 0.0000 0.0000 1795.4563 -7387.9644 308.2616 -9183.4206 -7406.0425 300.2705 -250.2610 -219.5116 30013.8857 65.0826 138.3722
ENERGY: 600000 1.6431 4.7559 3.3807 0.0000 -10408.9775 1297.2177 0.0000 0.0000 1759.2287 -7342.7513 302.0417 -9101.9800 -7388.7569 300.8652 -891.0151 -856.4079 30241.1317 -8.5105 53.3312
ENERGY: 900000 1.3238 9.6357 2.1828 0.0000 -10647.8146 1494.5054 0.0000 0.0000 1761.8485 -7378.3184 302.4915 -9140.1669 -7385.1029 301.1764 569.6954 619.1866 30007.6844 81.2970 139.8902
ENERGY: 1200000 0.9333 9.2899 2.5656 0.0000 -10638.8989 1436.6797 0.0000 0.0000 1735.8869 -7453.5434 298.0341 -9189.4303 -7393.4945 300.9716 72.8438 164.8071 29710.5820 -62.4315 1.2091
ENERGY: 1500000 1.2160 9.5043 3.7434 0.0000 -10613.9590 1467.6195 0.0000 0.0000 1734.8188 -7397.0569 297.8508 -9131.8757 -7385.9796 301.8747 475.8024 599.2808 29971.0651 59.4435 123.8961
TCL: Running FEP window  15: Lambda1 0.29999999999999966 Lambda2 0.24999999999999967 [dLambda -0.04999999999999999]
TCL: Setting parameter firsttimestep to 0
TCL: Setting parameter alchLambda to 0.29999999999999966
Info: NONBONDED TABLE R-SQUARED SPACING: 0.0625
Info: NONBONDED TABLE SIZE: 705 POINTS
TCL: Setting parameter alchLambda2 to 0.24999999999999967
Info: NONBONDED TABLE R-SQUARED SPACING: 0.0625
Info: NONBONDED TABLE SIZE: 705 POINTS
TCL: Running for 1500000 steps
ETITLE: TS BOND ANGLE DIHED IMPRP ELECT VDW BOUNDARY MISC KINETIC TOTAL TEMP POTENTIAL TOTALAVG TEMPAVG PRESSURE GPRESSURE VOLUME PRESSAVG GPRESSAVG
ENERGY: 0 1.2160 9.5043 3.7434 0.0000 -10613.9605 1467.7359 0.0000 0.0000 1733.9571 -7397.8037 297.7028 -9131.7608 -7397.8037 297.7028 499.5103 594.9526 29971.0651 499.5103 594.9526
ENERGY: 300000 1.5489 8.1210 2.4892 0.0000 -10703.1258 1493.8991 0.0000 0.0000 1733.8521 -7463.2156 297.6848 -9197.0676 -7430.0396 296.2217 640.1045 783.1536 29396.8351 358.0497 460.2350
ENERGY: 600000 0.4870 6.6716 1.6400 0.0000 -10671.6527 1460.1950 0.0000 0.0000 1692.3532 -7510.3058 290.5598 -9202.6591 -7429.7053 295.9379 -18.2098 42.1853 30069.8143 210.8153 289.3905
ENERGY: 900000 1.4675 8.3363 2.8158 0.0000 -10550.2387 1360.4869 0.0000 0.0000 1724.0231 -7453.1089 295.9972 -9177.1321 -7422.4122 296.6973 -765.9804 -757.7294 30290.5257 94.2249 164.6889
ENERGY: 1200000 1.7142 9.0640 2.9494 0.0000 -10599.0137 1480.4920 0.0000 0.0000 1754.9194 -7349.8747 301.3018 -9104.7941 -7425.1642 296.5875 185.9362 223.6627 30578.7593 -38.0174 35.2281
ENERGY: 1500000 2.9664 7.6726 3.4340 0.0000 -10559.2357 1399.9755 0.0000 0.0000 1717.0179 -7428.1694 294.7945 -9145.1873 -7429.9826 296.1754 -243.0772 -214.7048 29728.6667 -56.7407 15.4908
TCL: Running FEP window  16: Lambda1 0.24999999999999967 Lambda2 0.19999999999999968 [dLambda -0.04999999999999999]
TCL: Setting parameter firsttimestep to 0
TCL: Setting parameter alchLambda to 0.24999999999999967
Info: NONBONDED TABLE R-SQUARED SPACING: 0.0625
Info: NONBONDED TABLE SIZE: 705 POINTS
TCL: Setting parameter alchLambda2 to 0.19999999999999968
Info: NONBONDED TABLE R-SQUARED SPACING: 0.0625
Info: NONBONDED TABLE SIZE: 705 POINTS
TCL: Running for 1500000 steps
ETITLE: TS BOND ANGLE DIHED IMPRP ELECT VDW BOUNDARY MISC KINETIC TOTAL TEMP POTENTIAL TOTALAVG TEMPAVG PRESSURE GPRESSURE VOLUME PRESSAVG GPRESSAVG
ENERGY: 0 2.9664 7.6726 3.4340 0.0000 -10559.2367 1399.8389 0.0000 0.0000 1716.1214 -7429.2035 294.6406 -9145.3249 -7429.2035 294.6406 -300.8950 -220.4836 29728.6667 -300.8950 -220.4836
ENERGY: 300000 1.2632 8.8880 2.4659 0.0000 -10638.5210 1440.2191 0.0000 0.0000 1772.4697 -7413.2152 304.3150 -9185.6849 -7402.4900 299.3072 211.6787 224.4661 29762.6278 101.4126 145.9987
ENERGY: 600000 4.0899 6.3326 2.2090 0.0000 -10637.0337 1506.2998 0.0000 0.0000 1723.7712 -7394.3312 295.9540 -9118.1023 -7403.4698 298.5582 701.0350 770.2629 29908.2865 165.8209 214.7014
ENERGY: 900000 3.1856 9.4730 2.1568 0.0000 -10644.6601 1415.3413 0.0000 0.0000 1759.2479 -7455.2555 302.0450 -9214.5034 -7400.8278 299.6176 -266.3449 -259.1424 30044.2420 42.8878 88.2589
ENERGY: 1200000 2.1947 11.1244 2.4465 0.0000 -10639.0542 1468.1858 0.0000 0.0000 1753.2452 -7401.8576 301.0144 -9155.1028 -7404.1553 299.7181 359.4288 369.7871 29749.4518 119.1028 160.5297
ENERGY: 1500000 1.4100 5.9808 2.8985 0.0000 -10537.6366 1461.3701 0.0000 0.0000 1792.9810 -7272.9962 307.8366 -9065.9773 -7402.7211 299.9393 434.1848 491.1313 30177.3673 137.7376 183.3286
TCL: Running FEP window  17: Lambda1 0.19999999999999968 Lambda2 0.1499999999999997 [dLambda -0.04999999999999999]
TCL: Setting parameter firsttimestep to 0
TCL: Setting parameter alchLambda to 0.19999999999999968
Info: NONBONDED TABLE R-SQUARED SPACING: 0.0625
Info: NONBONDED TABLE SIZE: 705 POINTS
TCL: Setting parameter alchLambda2 to 0.1499999999999997
Info: NONBONDED TABLE R-SQUARED SPACING: 0.0625
Info: NONBONDED TABLE SIZE: 705 POINTS
TCL: Running for 1500000 steps
ETITLE: TS BOND ANGLE DIHED IMPRP ELECT VDW BOUNDARY MISC KINETIC TOTAL TEMP POTENTIAL TOTALAVG TEMPAVG PRESSURE GPRESSURE VOLUME PRESSAVG GPRESSAVG
ENERGY: 0 1.4100 5.9808 2.8985 0.0000 -10537.6364 1461.8202 0.0000 0.0000 1792.0895 -7273.4374 307.6835 -9065.5270 -7273.4374 307.6835 412.7295 492.7657 30177.3673 412.7295 492.7657
ENERGY: 300000 0.4411 9.3848 2.5628 0.0000 -10581.2444 1448.6671 0.0000 0.0000 1730.2362 -7389.9524 297.0640 -9120.1886 -7342.0045 302.9001 71.8844 173.0713 30300.8790 -79.5662 -4.2385
ENERGY: 600000 1.7359 8.7610 3.1312 0.0000 -10512.2896 1396.0879 0.0000 0.0000 1785.1934 -7317.3802 306.4996 -9102.5736 -7362.2700 301.8628 26.6556 162.0973 29625.3189 -175.4402 -90.2354
ENERGY: 900000 1.4764 8.6283 2.9736 0.0000 -10501.5873 1346.1859 0.0000 0.0000 1717.7431 -7424.5799 294.9190 -9142.3230 -7373.4188 301.5969 -573.4748 -551.4277 30184.7312 -63.6597 9.2705
ENERGY: 1200000 0.6357 9.0918 4.0260 0.0000 -10588.4754 1462.4403 0.0000 0.0000 1732.2254 -7380.0561 297.4055 -9112.2815 -7386.2010 300.8652 351.4952 416.2012 29911.1797 -110.6035 -44.6617
ENERGY: 1500000 0.6589 5.6359 2.2812 0.0000 -10769.9888 1517.2381 0.0000 0.0000 1808.4590 -7435.7157 310.4940 -9244.1747 -7393.9196 301.5209 473.2048 582.4766 29602.1448 -30.2381 40.3322
TCL: Running FEP window  18: Lambda1 0.1499999999999997 Lambda2 0.09999999999999969 [dLambda -0.05 ]
TCL: Setting parameter firsttimestep to 0
TCL: Setting parameter alchLambda to 0.1499999999999997
Info: NONBONDED TABLE R-SQUARED SPACING: 0.0625
Info: NONBONDED TABLE SIZE: 705 POINTS
TCL: Setting parameter alchLambda2 to 0.09999999999999969
Info: NONBONDED TABLE R-SQUARED SPACING: 0.0625
Info: NONBONDED TABLE SIZE: 705 POINTS
TCL: Running for 1500000 steps
ETITLE: TS BOND ANGLE DIHED IMPRP ELECT VDW BOUNDARY MISC KINETIC TOTAL TEMP POTENTIAL TOTALAVG TEMPAVG PRESSURE GPRESSURE VOLUME PRESSAVG GPRESSAVG
ENERGY: 0 0.6589 5.6359 2.2812 0.0000 -10769.9878 1517.0344 0.0000 0.0000 1807.6008 -7436.7766 310.3467 -9244.3774 -7436.7766 310.3467 493.2484 578.4635 29602.1448 493.2484 578.4635
ENERGY: 300000 1.2199 10.0814 2.0428 0.0000 -10504.4806 1389.7826 0.0000 0.0000 1717.4398 -7383.9141 294.8669 -9101.3539 -7397.2261 302.8865 -208.7045 -207.4532 30150.8924 -10.2807 57.7915
ENERGY: 600000 0.8643 10.7851 2.6224 0.0000 -10576.3931 1431.8491 0.0000 0.0000 1766.9260 -7363.3462 303.3632 -9130.2722 -7386.9508 301.8677 69.8884 187.3600 30062.1976 -5.2816 64.9168
ENERGY: 900000 1.4521 16.1970 2.5401 0.0000 -10597.1761 1416.9683 0.0000 0.0000 1713.0059 -7447.0126 294.1057 -9160.0186 -7399.7585 301.3015 -344.3526 -246.7107 30070.8446 104.4602 172.9004
ENERGY: 1200000 6.1188 7.0304 3.1332 0.0000 -10514.7737 1408.6145 0.0000 0.0000 1707.0248 -7382.8521 293.0788 -9089.8769 -7400.9919 300.1489 -201.5609 -82.4782 30166.3429 69.2383 145.8381
ENERGY: 1500000 3.3570 9.3657 1.6415 0.0000 -10514.8099 1421.5294 0.0000 0.0000 1722.6273 -7356.2890 295.7576 -9078.9163 -7405.6961 300.2711 -52.8898 12.1947 30148.4169 74.6589 151.3440
TCL: Running FEP window  19: Lambda1 0.09999999999999969 Lambda2 0.049999999999999684 [dLambda -0.05 ]
TCL: Setting parameter firsttimestep to 0
TCL: Setting parameter alchLambda to 0.09999999999999969
Info: NONBONDED TABLE R-SQUARED SPACING: 0.0625
Info: NONBONDED TABLE SIZE: 705 POINTS
TCL: Setting parameter alchLambda2 to 0.049999999999999684
Info: NONBONDED TABLE R-SQUARED SPACING: 0.0625
Info: NONBONDED TABLE SIZE: 705 POINTS
TCL: Running for 1500000 steps
ETITLE: TS BOND ANGLE DIHED IMPRP ELECT VDW BOUNDARY MISC KINETIC TOTAL TEMP POTENTIAL TOTALAVG TEMPAVG PRESSURE GPRESSURE VOLUME PRESSAVG GPRESSAVG
ENERGY: 0 3.3570 9.3657 1.6415 0.0000 -10514.8098 1421.6161 0.0000 0.0000 1721.7502 -7357.0793 295.6070 -9078.8295 -7357.0793 295.6070 -65.3125 13.3521 30148.4169 -65.3125 13.3521
ENERGY: 300000 1.4637 8.3528 4.4164 0.0000 -10677.4895 1477.2746 0.0000 0.0000 1710.4818 -7475.5002 293.6723 -9185.9819 -7400.5962 301.6964 161.1313 160.8302 30114.0836 -96.1649 -36.6872
ENERGY: 600000 0.3943 7.0945 2.0362 0.0000 -10545.1584 1418.5034 0.0000 0.0000 1716.9535 -7400.1766 294.7835 -9117.1301 -7412.2662 300.5448 -83.6465 11.6206 30111.2692 -132.3047 -68.4931
ENERGY: 900000 1.0152 9.4719 4.6548 0.0000 -10641.4442 1478.1115 0.0000 0.0000 1745.6889 -7402.5019 299.7170 -9148.1908 -7407.5584 300.7160 330.7187 385.3274 30082.6854 -160.5195 -102.8003
ENERGY: 1200000 0.3940 8.6794 4.8848 0.0000 -10753.2296 1503.0862 0.0000 0.0000 1751.2276 -7484.9576 300.6680 -9236.1852 -7411.9197 300.2816 259.9666 300.9104 30040.1442 -126.5092 -76.3250
ENERGY: 1500000 1.0259 7.7862 4.0842 0.0000 -10384.8217 1333.9547 0.0000 0.0000 1715.6663 -7322.3045 294.5625 -9037.9708 -7403.8937 300.3235 -529.4122 -476.9221 30149.2656 -169.1231 -116.6522
TCL: Running FEP window  20: Lambda1 0.049999999999999684 Lambda2 0.0    [dLambda -0.049999999999999684]
TCL: Setting parameter firsttimestep to 0
TCL: Setting parameter alchLambda to 0.049999999999999684
Info: NONBONDED TABLE R-SQUARED SPACING: 0.0625
Info: NONBONDED TABLE SIZE: 705 POINTS
TCL: Setting parameter alchLambda2 to 0.0
Info: NONBONDED TABLE R-SQUARED SPACING: 0.0625
Info: NONBONDED TABLE SIZE: 705 POINTS
TCL: Running for 1500000 steps
ETITLE: TS BOND ANGLE DIHED IMPRP ELECT VDW BOUNDARY MISC KINETIC TOTAL TEMP POTENTIAL TOTALAVG TEMPAVG PRESSURE GPRESSURE VOLUME PRESSAVG GPRESSAVG
ENERGY: 0 1.0259 7.7862 4.0842 0.0000 -10384.8228 1333.9903 0.0000 0.0000 1714.7644 -7323.1719 294.4076 -9037.9363 -7323.1719 294.4076 -562.9526 -479.4937 30149.2656 -562.9526 -479.4937
ENERGY: 300000 0.9505 8.1695 3.5507 0.0000 -10558.4291 1347.5799 0.0000 0.0000 1697.2631 -7500.9153 291.4028 -9198.1784 -7403.4133 297.6229 -1189.6268 -1024.8953 30475.3145 -483.5858 -400.4565
ENERGY: 600000 1.0539 6.1418 2.1534 0.0000 -10524.1650 1422.2290 0.0000 0.0000 1688.2357 -7404.3512 289.8529 -9092.5869 -7418.7844 297.8726 16.6845 52.5743 30182.5449 -386.9445 -330.8645
ENERGY: 900000 2.2430 5.9439 2.1260 0.0000 -10637.8121 1488.9230 0.0000 0.0000 1705.8165 -7432.7597 292.8713 -9138.5762 -7388.1311 299.2443 482.7432 506.0109 29944.5133 -346.6250 -289.5841
ENERGY: 1200000 3.0908 6.0108 2.7566 0.0000 -10643.6425 1388.7773 0.0000 0.0000 1722.1358 -7520.8712 295.6732 -9243.0070 -7410.5103 297.8033 -531.6828 -450.0321 29858.9403 -273.9348 -212.6507
ENERGY: 1500000 3.4088 7.5109 1.5928 0.0000 -10583.7648 1406.5459 0.0000 0.0000 1756.2633 -7408.4431 301.5325 -9164.7063 -7411.2529 298.4319 -18.2630 27.3521 29873.1425 -234.3258 -176.3921
TCL: Exiting due to exit command.
