Info: SIMULATION PARAMETERS:
Info: TIMESTEP               2
Info: NUMBER OF STEPS        0
Info: STEPS PER CYCLE        10
Info: PERIODIC CELL BASIS 1  30.8922 0 0
Info: PERIODIC CELL BASIS 2  0 31.246 0
Info: PERIODIC CELL BASIS 3  0 0 31.5213
Info: PERIODIC CELL CENTER   0 0 0
Info: WRAPPING WATERS AROUND PERIODIC BOUNDARIES ON OUTPUT.
Info: WRAPPING ALL CLUSTERS AROUND PERIODIC BOUNDARIES ON OUTPUT.
Info: FIRST LDB TIMESTEP     50
Info: LAST LDB TIMESTEP     -1
Info: HOM BACKGROUND SCALING 1
Info: PME BACKGROUND SCALING 1
Info: MIN ATOMS PER PATCH    40
Info: EMPTY PATCH LOAD       40 ATOMS
Info: VELOCITY FILE          mobley_3738859_equil.vel
Info: CENTER OF MASS MOVING INITIALLY? NO
Info: DIELECTRIC             1
Info: EXCLUDE                SCALED ONE-FOUR
Info: 1-4 ELECTROSTATICS SCALED BY 0.833333
Info: MODIFIED 1-4 VDW PARAMETERS WILL BE USED
Info: DCD FILENAME           mobley_3738859_prod.dcd
Info: DCD FREQUENCY          100000
Info: DCD FIRST STEP         100000
Info: DCD FILE WILL CONTAIN UNIT CELL DATA
Info: XST FILENAME           mobley_3738859_prod.xst
Info: XST FREQUENCY          100000
Info: NO VELOCITY DCD OUTPUT
Info: NO FORCE DCD OUTPUT
Info: OUTPUT FILENAME        mobley_3738859_prod
Info: BINARY OUTPUT FILES WILL BE USED
Info: RESTART FILENAME       mobley_3738859_prod.restart
Info: RESTART FREQUENCY      100000
Info: BINARY RESTART FILES WILL BE USED
Info: CUTOFF                 9
Info: PAIRLIST DISTANCE      11
Info: PAIRLIST SHRINK RATE   0.01
Info: PAIRLIST GROW RATE     0.01
Info: PAIRLIST TRIGGER       0.3
Info: PAIRLISTS PER CYCLE    2
Info: PAIRLISTS ENABLED
Info: MARGIN                 2
Info: HYDROGEN GROUP CUTOFF  2.5
Info: PATCH DIMENSION        15.5
Info: ENERGY OUTPUT STEPS    100000
Info: ENERGY EVALUATION STEPS    100000
Info: OUTPUT ENERGY PRECISION 4
Info: CROSSTERM ENERGY INCLUDED IN DIHEDRAL
Info: TIMING OUTPUT STEPS    1000000
Info: PRESSURE OUTPUT STEPS  100000
Info: ALCHEMICAL FEP ON
Info: FEP CURRENT LAMBDA VALUE     1
Info: FEP COMPARISON LAMBDA VALUE  0.95
Info: FEP INTRA-ALCHEMICAL NON-BONDED INTERACTIONS WILL BE RETAINED
Info: FEP INTRA-ALCHEMICAL BONDED INTERACTIONS WILL BE RETAINED
Info: FEP VDW SHIFTING COEFFICIENT 5
Info: FEP ELEC. ACTIVE FOR ANNIHILATED PARTICLES BETWEEN LAMBDA = 0 AND LAMBDA = 0.5
Info: FEP ELEC. ACTIVE FOR EXNIHILATED PARTICLES BETWEEN LAMBDA = 0.5 AND LAMBDA = 1
Info: FEP VDW ACTIVE FOR ANNIHILATED PARTICLES BETWEEN LAMBDA = 0 AND LAMBDA = 1
Info: FEP VDW ACTIVE FOR EXNIHILATED PARTICLES BETWEEN LAMBDA = 0 AND LAMBDA = 1
Info: FEP BOND ACTIVE FOR ANNIHILATED PARTICLES BETWEEN LAMBDA = 1 AND LAMBDA = 1
Info: FEP BOND ACTIVE FOR EXNIHILATED PARTICLES BETWEEN LAMBDA = 0 AND LAMBDA = 0
Info: LANGEVIN DYNAMICS ACTIVE
Info: LANGEVIN TEMPERATURE   300
Info: LANGEVIN USING BBK INTEGRATOR
Info: LANGEVIN DAMPING COEFFICIENT IS 1 INVERSE PS
Info: LANGEVIN DYNAMICS APPLIED TO HYDROGENS
Info: LANGEVIN PISTON PRESSURE CONTROL ACTIVE
Info:        TARGET PRESSURE IS 1.01325 BAR
Info:     OSCILLATION PERIOD IS 50 FS
Info:             DECAY TIME IS 25 FS
Info:     PISTON TEMPERATURE IS 300 K
Info:       PRESSURE CONTROL IS GROUP-BASED
Info:    INITIAL STRAIN RATE IS -1.00138e-05 -1.00138e-05 -1.00138e-05
Info:       CELL FLUCTUATION IS ISOTROPIC
Info: PARTICLE MESH EWALD (PME) ACTIVE
Info: PME TOLERANCE               1e-06
Info: PME EWALD COEFFICIENT       0.348832
Info: PME INTERPOLATION ORDER     4
Info: PME GRID DIMENSIONS         32 32 32
Info: PME MAXIMUM GRID SPACING    1
Info: PME CALCULATION WILL BE PERFORMED ON GPU
Info: FULL ELECTROSTATIC EVALUATION FREQUENCY      2
Info: USING VERLET I (r-RESPA) MTS SCHEME.
Info: C1 SPLITTING OF LONG RANGE ELECTROSTATICS
Info: PLACING ATOMS IN PATCHES BY HYDROGEN GROUPS
Info: RIGID BONDS TO HYDROGEN : ALL
Info:         ERROR TOLERANCE : 1e-08
Info:          MAX ITERATIONS : 100
Info: RIGID WATER USING SETTLE ALGORITHM
Info: RANDOM NUMBER SEED     1743911925
Info: USE HYDROGEN BONDS?    NO
Info: Using AMBER format force field!
Info: AMBER PARM FILE        mobley_3738859.prmtop
Info: COORDINATE PDB         mobley_3738859.pdb
Info: Exclusions will be read from PARM file!
Info: SCNB (VDW SCALING)     2
Info: USING ARITHMETIC MEAN TO COMBINE L-J SIGMA PARAMETERS
Info: BINARY COORDINATES     mobley_3738859_equil.coor
Info: SUMMARY OF PARAMETERS:
Info: 6 BONDS
Info: 7 ANGLES
Info:   7 HARMONIC
Info:   0 COSINE-BASED
Info: 8 DIHEDRAL
Info: 0 IMPROPER
Info: 0 CROSSTERM
Info: 0 VDW
Info: 21 VDW_PAIRS
Info: 0 NBTHOLE_PAIRS
Info: To read alchdata from file: mobley_3738859.pdb
Info: To read alchflag data from column: 5
Info: STRUCTURE SUMMARY:
Info: 2960 ATOMS
Info: 2959 BONDS
Info: 30 ANGLES
Info: 42 DIHEDRALS
Info: 0 IMPROPERS
Info: 0 CROSSTERMS
Info: 3025 EXCLUSIONS
Info: 2954 RIGID BONDS
Info: ALCH: 0 ATOMS TO DISAPPEAR IN FINAL STATE
Info: ALCH: 17 ATOMS TO APPEAR IN FINAL STATE
Info: 5926 DEGREES OF FREEDOM
Info: 987 HYDROGEN GROUPS
Info: 4 ATOMS IN LARGEST HYDROGEN GROUP
Info: 987 MIGRATION GROUPS
Info: 4 ATOMS IN LARGEST MIGRATION GROUP
Info: TOTAL MASS = 17824.7 amu
Info: TOTAL CHARGE = -0.000100002 e
Info: MASS DENSITY = 0.972826 g/cm^3
Info: ATOM DENSITY = 0.0972847 atoms/A^3
Info: ADDED 0 IMPLICIT EXCLUSIONS
Info: NONBONDED TABLE R-SQUARED SPACING: 0.0625
Info: NONBONDED TABLE SIZE: 705 POINTS
Info: REMOVING COM VELOCITY 0.075269 0.198738 0.108635
Info: Use 3D box decompostion in PME FFT.
Info: Updated CUDA force table with 4096 elements.
Info: Updated CUDA LJ table with 6 x 6 elements.
Info: Found 20 unique exclusion lists needing 52 bytes
TCL: Running for 1500000 steps
ETITLE: TS BOND ANGLE DIHED IMPRP ELECT VDW BOUNDARY MISC KINETIC TOTAL TEMP POTENTIAL TOTALAVG TEMPAVG PRESSURE GPRESSURE VOLUME PRESSAVG GPRESSAVG
ENERGY: 0 1.4607 9.5728 4.5703 0.0000 -10754.2113 1497.6662 0.0000 0.0000 1738.8187 -7502.1226 295.3133 -9240.9413 -7502.1226 295.3133 471.6970 556.9589 30426.1554 471.6970 556.9589
ENERGY: 300000 2.8273 6.9753 4.0108 0.0000 -10634.1787 1433.1958 0.0000 0.0000 1797.3494 -7389.8201 305.2539 -9187.1694 -7450.1858 300.2128 163.2918 134.3139 30762.3199 20.8413 105.6365
ENERGY: 600000 1.1285 8.1123 1.7642 0.0000 -10805.2147 1486.9327 0.0000 0.0000 1711.3309 -7595.9460 290.6449 -9307.2769 -7484.1158 300.3440 373.2416 385.9307 30234.1976 59.1969 118.7036
ENERGY: 900000 0.8166 7.6727 2.3251 0.0000 -10676.5859 1418.3552 0.0000 0.0000 1748.4396 -7498.9768 296.9473 -9247.4163 -7495.7406 300.0031 -224.8950 -133.3950 30666.7219 -18.7224 34.8906
ENERGY: 1200000 1.5949 7.7424 2.1336 0.0000 -10730.3557 1439.4618 0.0000 0.0000 1762.8540 -7516.5690 299.3954 -9279.4230 -7500.9362 299.7124 -187.9758 -147.7164 30845.7871 -3.8635 49.3683
ENERGY: 1500000 2.0750 6.7146 4.3336 0.0000 -10504.5538 1302.5191 0.0000 0.0000 1705.9451 -7482.9664 289.7302 -9188.9115 -7506.3405 298.8969 -1222.6656 -1247.6791 31282.9731 -138.3640 -89.6520
TCL: Running FEP window   2: Lambda1 0.95   Lambda2 0.8999999999999999 [dLambda -0.050000000000000044]
TCL: Setting parameter firsttimestep to 0
TCL: Setting parameter alchLambda to 0.95
Info: NONBONDED TABLE R-SQUARED SPACING: 0.0625
Info: NONBONDED TABLE SIZE: 705 POINTS
TCL: Setting parameter alchLambda2 to 0.8999999999999999
Info: NONBONDED TABLE R-SQUARED SPACING: 0.0625
Info: NONBONDED TABLE SIZE: 705 POINTS
TCL: Running for 1500000 steps
ETITLE: TS BOND ANGLE DIHED IMPRP ELECT VDW BOUNDARY MISC KINETIC TOTAL TEMP POTENTIAL TOTALAVG TEMPAVG PRESSURE GPRESSURE VOLUME PRESSAVG GPRESSAVG
ENERGY: 0 2.0750 6.7146 4.3336 0.0000 -10504.1597 1302.7526 0.0000 0.0000 1705.0604 -7483.2235 289.5800 -9188.2839 -7483.2235 289.5800 -1320.7181 -1258.5719 31282.9731 -1320.7181 -1258.5719
ENERGY: 300000 2.7427 7.8214 4.9160 0.0000 -10536.4164 1357.8231 0.0000 0.0000 1742.1673 -7420.9459 295.8820 -9163.1132 -7417.3673 298.8228 -469.5215 -413.9138 30597.0386 -564.0526 -509.0160
ENERGY: 600000 1.5167 11.3114 3.2167 0.0000 -10757.5994 1423.3448 0.0000 0.0000 1783.8902 -7534.3197 302.9681 -9318.2099 -7481.7641 299.3121 -343.8662 -300.7813 30633.9784 -287.6454 -232.6717
ENERGY: 900000 0.7010 11.0192 6.1125 0.0000 -10692.2207 1465.9116 0.0000 0.0000 1749.6308 -7458.8456 297.1496 -9208.4764 -7489.3802 299.1637 457.4094 603.1255 30064.5129 -142.8587 -70.2786
ENERGY: 1200000 1.1170 8.6535 2.3386 0.0000 -10630.7784 1351.6157 0.0000 0.0000 1761.8985 -7505.1550 299.2331 -9267.0535 -7503.1320 298.7752 -698.3715 -655.8089 30589.6003 -205.1985 -131.4916
ENERGY: 1500000 1.3474 6.8765 3.8402 0.0000 -10885.8363 1627.1587 0.0000 0.0000 1816.0263 -7430.5873 308.4259 -9246.6136 -7496.3475 299.6134 1740.5165 1808.4063 30124.8645 1.6356 69.8699
TCL: Running FEP window   3: Lambda1 0.8999999999999999 Lambda2 0.8499999999999999 [dLambda -0.050000000000000044]
TCL: Setting parameter firsttimestep to 0
TCL: Setting parameter alchLambda to 0.8999999999999999
Info: NONBONDED TABLE R-SQUARED SPACING: 0.0625
Info: NONBONDED TABLE SIZE: 705 POINTS
TCL: Setting parameter alchLambda2 to 0.8499999999999999
Info: NONBONDED TABLE R-SQUARED SPACING: 0.0625
Info: NONBONDED TABLE SIZE: 705 POINTS
TCL: Running for 1500000 steps
ETITLE: TS BOND ANGLE DIHED IMPRP ELECT VDW BOUNDARY MISC KINETIC TOTAL TEMP POTENTIAL TOTALAVG TEMPAVG PRESSURE GPRESSURE VOLUME PRESSAVG GPRESSAVG
ENERGY: 0 1.3474 6.8765 3.8402 0.0000 -10885.5774 1627.5443 0.0000 0.0000 1815.2065 -7430.7626 308.2867 -9245.9691 -7430.7626 308.2867 1715.8383 1798.8978 30124.8645 1715.8383 1798.8978
ENERGY: 300000 0.9382 4.9357 1.9300 0.0000 -10767.7566 1398.6977 0.0000 0.0000 1829.2491 -7532.0059 310.6716 -9361.2551 -7505.7733 305.3823 -649.9910 -538.7203 30431.8635 468.6680 565.3859
ENERGY: 600000 1.8886 7.5566 3.2578 0.0000 -10711.8285 1420.3525 0.0000 0.0000 1713.7320 -7565.0410 291.0527 -9278.7730 -7506.2002 301.6509 -238.3971 -201.2434 30353.7944 -47.2090 43.0721
ENERGY: 900000 1.0577 6.4710 2.3775 0.0000 -10716.3278 1437.0753 0.0000 0.0000 1779.4491 -7489.8973 302.2138 -9269.3464 -7508.6734 301.7853 -133.3097 -116.2393 30912.9337 -61.1305 13.4695
ENERGY: 1200000 1.0801 9.7741 3.1603 0.0000 -10673.0791 1429.6786 0.0000 0.0000 1758.9765 -7470.4095 298.7368 -9229.3860 -7494.8665 301.5312 -24.1624 20.9284 30789.6043 -21.0187 44.4615
ENERGY: 1500000 1.1866 10.6974 3.7202 0.0000 -10694.9248 1448.9799 0.0000 0.0000 1755.1458 -7475.1948 298.0863 -9230.3407 -7491.3120 301.7222 126.4904 171.5675 30601.3113 19.8209 81.1754
TCL: Running FEP window   4: Lambda1 0.8499999999999999 Lambda2 0.7999999999999998 [dLambda -0.050000000000000044]
TCL: Setting parameter firsttimestep to 0
TCL: Setting parameter alchLambda to 0.8499999999999999
Info: NONBONDED TABLE R-SQUARED SPACING: 0.0625
Info: NONBONDED TABLE SIZE: 705 POINTS
TCL: Setting parameter alchLambda2 to 0.7999999999999998
Info: NONBONDED TABLE R-SQUARED SPACING: 0.0625
Info: NONBONDED TABLE SIZE: 705 POINTS
TCL: Running for 1500000 steps
ETITLE: TS BOND ANGLE DIHED IMPRP ELECT VDW BOUNDARY MISC KINETIC TOTAL TEMP POTENTIAL TOTALAVG TEMPAVG PRESSURE GPRESSURE VOLUME PRESSAVG GPRESSAVG
ENERGY: 0 1.1866 10.6974 3.7202 0.0000 -10694.4007 1448.8708 0.0000 0.0000 1754.2742 -7475.6514 297.9382 -9229.9256 -7475.6514 297.9382 83.6843 161.7560 30601.3113 83.6843 161.7560
ENERGY: 300000 0.8851 9.8799 3.2298 0.0000 -10672.8276 1442.8018 0.0000 0.0000 1748.8992 -7467.1318 297.0253 -9216.0310 -7493.1222 296.5037 228.2058 230.6261 30617.3849 209.1438 252.2284
ENERGY: 600000 0.6107 8.5762 2.9046 0.0000 -10613.6586 1348.4834 0.0000 0.0000 1723.7998 -7529.2839 292.7626 -9253.0838 -7503.6200 295.5963 -697.9793 -622.9734 30432.1936 -53.5360 -10.0791
ENERGY: 900000 1.4702 6.6386 2.7328 0.0000 -10635.5756 1401.5359 0.0000 0.0000 1756.4215 -7466.7766 298.3029 -9223.1981 -7513.2987 295.3324 -247.8995 -178.9359 30751.4471 -40.7288 1.6252
ENERGY: 1200000 1.5897 8.2341 2.3037 0.0000 -10746.3229 1512.3315 0.0000 0.0000 1744.0704 -7477.7935 296.2052 -9221.8639 -7514.9277 296.2778 877.2159 1010.3085 30135.6961 24.5740 76.3194
ENERGY: 1500000 1.3968 10.0776 3.4972 0.0000 -10789.5916 1525.8920 0.0000 0.0000 1806.0368 -7442.6913 306.7293 -9248.7280 -7506.4010 297.4330 668.4654 710.4024 30403.6123 73.8943 128.1460
TCL: Running FEP window   5: Lambda1 0.7999999999999998 Lambda2 0.7499999999999998 [dLambda -0.050000000000000044]
TCL: Setting parameter firsttimestep to 0
TCL: Setting parameter alchLambda to 0.7999999999999998
Info: NONBONDED TABLE R-SQUARED SPACING: 0.0625
Info: NONBONDED TABLE SIZE: 705 POINTS
TCL: Setting parameter alchLambda2 to 0.7499999999999998
Info: NONBONDED TABLE R-SQUARED SPACING: 0.0625
Info: NONBONDED TABLE SIZE: 705 POINTS
TCL: Running for 1500000 steps
ETITLE: TS BOND ANGLE DIHED IMPRP ELECT VDW BOUNDARY MISC KINETIC TOTAL TEMP POTENTIAL TOTALAVG TEMPAVG PRESSURE GPRESSURE VOLUME PRESSAVG GPRESSAVG
ENERGY: 0 1.3968 10.0776 3.4972 0.0000 -10789.6702 1526.1323 0.0000 0.0000 1805.1401 -7443.4261 306.5771 -9248.5663 -7443.4261 306.5771 624.1566 703.1644 30403.6123 624.1566 703.1644
ENERGY: 300000 2.6539 11.5238 3.1050 0.0000 -10600.9684 1432.7951 0.0000 0.0000 1769.9712 -7380.9194 300.6041 -9150.8906 -7424.6856 305.6288 82.3949 154.9221 30614.8593 159.0161 260.9883
ENERGY: 600000 0.8123 7.1671 4.2995 0.0000 -10726.5104 1463.6762 0.0000 0.0000 1800.1298 -7450.4254 305.7261 -9250.5552 -7441.7384 304.1723 659.9895 675.3706 30054.3534 235.5285 297.3562
ENERGY: 900000 3.7556 7.2382 1.9633 0.0000 -10586.5330 1362.3727 0.0000 0.0000 1775.2863 -7435.9169 301.5068 -9211.2032 -7459.3595 303.3472 -269.8121 -179.1756 30488.7255 215.6363 271.9927
ENERGY: 1200000 1.2523 4.4768 1.9828 0.0000 -10723.3179 1376.8088 0.0000 0.0000 1779.9075 -7558.8896 302.2917 -9338.7971 -7470.1571 303.7078 -821.3070 -703.8294 30246.3408 127.2050 183.9585
ENERGY: 1500000 0.8835 7.4092 7.2152 0.0000 -10690.6682 1404.3524 0.0000 0.0000 1778.5074 -7492.3006 302.0539 -9270.8080 -7462.4634 303.8886 -241.0999 -191.1592 30475.0854 150.5757 204.6384
TCL: Running FEP window   6: Lambda1 0.7499999999999998 Lambda2 0.6999999999999997 [dLambda -0.050000000000000044]
TCL: Setting parameter firsttimestep to 0
TCL: Setting parameter alchLambda to 0.7499999999999998
Info: NONBONDED TABLE R-SQUARED SPACING: 0.0625
Info: NONBONDED TABLE SIZE: 705 POINTS
TCL: Setting parameter alchLambda2 to 0.6999999999999997
Info: NONBONDED TABLE R-SQUARED SPACING: 0.0625
Info: NONBONDED TABLE SIZE: 705 POINTS
TCL: Running for 1500000 steps
ETITLE: TS BOND ANGLE DIHED IMPRP ELECT VDW BOUNDARY MISC KINETIC TOTAL TEMP POTENTIAL TOTALAVG TEMPAVG PRESSURE GPRESSURE VOLUME PRESSAVG GPRESSAVG
ENERGY: 0 0.8835 7.4092 7.2152 0.0000 -10690.6455 1404.7215 0.0000 0.0000 1777.6248 -7492.7914 301.9040 -9270.4162 -7492.7914 301.9040 -288.4819 -194.1011 30475.0854 -288.4819 -194.1011
ENERGY: 300000 4.9644 6.6720 2.2247 0.0000 -10660.2437 1415.6143 0.0000 0.0000 1740.5184 -7490.2500 295.6020 -9230.7684 -7477.8211 295.0172 -252.1857 -175.2296 30484.5462 109.7650 174.7226
ENERGY: 600000 0.7018 7.3158 2.3441 0.0000 -10682.1431 1486.4014 0.0000 0.0000 1749.9455 -7435.4346 297.2030 -9185.3801 -7464.3333 295.0708 314.0551 361.9951 30970.5212 92.3651 167.1039
ENERGY: 900000 1.1985 13.1340 3.5922 0.0000 -10631.6198 1356.9084 0.0000 0.0000 1800.8349 -7455.9518 305.8459 -9256.7867 -7469.6211 296.3787 -560.9487 -454.8613 30104.2424 30.9254 102.2544
ENERGY: 1200000 2.7718 4.5586 3.1762 0.0000 -10772.0710 1423.1064 0.0000 0.0000 1752.4760 -7585.9820 297.6328 -9338.4580 -7492.7589 296.8337 -87.4861 -26.3391 30048.6208 54.1861 123.8902
ENERGY: 1500000 1.2470 5.9928 4.3828 0.0000 -10670.4496 1415.9525 0.0000 0.0000 1750.3353 -7492.5392 297.2692 -9242.8745 -7498.6638 296.9776 -346.2156 -281.3665 30881.4237 54.6664 120.3982
TCL: Running FEP window   7: Lambda1 0.6999999999999997 Lambda2 0.6499999999999997 [dLambda -0.050000000000000044]
TCL: Setting parameter firsttimestep to 0
TCL: Setting parameter alchLambda to 0.6999999999999997
Info: NONBONDED TABLE R-SQUARED SPACING: 0.0625
Info: NONBONDED TABLE SIZE: 705 POINTS
TCL: Setting parameter alchLambda2 to 0.6499999999999997
Info: NONBONDED TABLE R-SQUARED SPACING: 0.0625
Info: NONBONDED TABLE SIZE: 705 POINTS
TCL: Running for 1500000 steps
ETITLE: TS BOND ANGLE DIHED IMPRP ELECT VDW BOUNDARY MISC KINETIC TOTAL TEMP POTENTIAL TOTALAVG TEMPAVG PRESSURE GPRESSURE VOLUME PRESSAVG GPRESSAVG
ENERGY: 0 1.2470 5.9928 4.3828 0.0000 -10670.2553 1415.6821 0.0000 0.0000 1749.4093 -7493.5413 297.1120 -9242.9506 -7493.5413 297.1120 -385.3349 -293.2927 30881.4237 -385.3349 -293.2927
ENERGY: 300000 1.3835 8.3634 3.3471 0.0000 -10623.8523 1358.5498 0.0000 0.0000 1758.6722 -7493.5363 298.6852 -9252.2085 -7494.7788 298.4328 -289.3191 -285.9165 30072.2054 -337.3565 -290.4999
ENERGY: 600000 0.7028 5.8200 4.8327 0.0000 -10790.7080 1485.3061 0.0000 0.0000 1778.5478 -7515.4987 302.0607 -9294.0464 -7481.3547 300.8074 504.9781 596.7143 30007.7746 -222.7725 -172.9192
ENERGY: 900000 1.3794 10.6009 2.0472 0.0000 -10766.1616 1494.5383 0.0000 0.0000 1801.4175 -7456.1784 305.9448 -9257.5958 -7481.3305 300.5036 319.3508 431.1089 30514.2150 -111.9509 -50.7755
ENERGY: 1200000 0.9228 8.0470 5.5970 0.0000 -10687.9427 1404.8961 0.0000 0.0000 1775.6942 -7492.7857 301.5761 -9268.4799 -7491.6514 300.3941 -388.1056 -346.0291 30770.9614 -159.3003 -106.0125
ENERGY: 1500000 0.3130 11.2773 2.5327 0.0000 -10774.0766 1470.1220 0.0000 0.0000 1766.3319 -7523.4998 299.9860 -9289.8317 -7483.9997 300.3612 263.8554 329.0312 30229.5332 -89.5194 -36.7946
TCL: Running FEP window   8: Lambda1 0.6499999999999997 Lambda2 0.5999999999999996 [dLambda -0.050000000000000044]
TCL: Setting parameter firsttimestep to 0
TCL: Setting parameter alchLambda to 0.6499999999999997
Info: NONBONDED TABLE R-SQUARED SPACING: 0.0625
Info: NONBONDED TABLE SIZE: 705 POINTS
TCL: Setting parameter alchLambda2 to 0.5999999999999996
Info: NONBONDED TABLE R-SQUARED SPACING: 0.0625
Info: NONBONDED TABLE SIZE: 705 POINTS
TCL: Running for 1500000 steps
ETITLE: TS BOND ANGLE DIHED IMPRP ELECT VDW BOUNDARY MISC KINETIC TOTAL TEMP POTENTIAL TOTALAVG TEMPAVG PRESSURE GPRESSURE VOLUME PRESSAVG GPRESSAVG
ENERGY: 0 0.3130 11.2773 2.5327 0.0000 -10773.9058 1470.1820 0.0000 0.0000 1765.4467 -7524.1543 299.8357 -9289.6009 -7524.1543 299.8357 240.9728 321.3577 30229.5332 240.9728 321.3577
ENERGY: 300000 3.1680 8.3345 4.1750 0.0000 -10770.7965 1453.8287 0.0000 0.0000 1819.4908 -7481.7997 309.0143 -9301.2904 -7537.0791 300.2265 107.1196 130.4738 30144.2008 -49.4814 -24.9237
ENERGY: 600000 2.8118 6.8764 4.1071 0.0000 -10938.8646 1587.3857 0.0000 0.0000 1736.1633 -7601.5203 294.8623 -9337.6836 -7529.5485 297.2069 942.9046 1019.6080 30117.7662 178.8694 222.1109
ENERGY: 900000 1.1875 6.4327 3.9169 0.0000 -10873.6757 1493.3404 0.0000 0.0000 1766.3114 -7602.4868 299.9826 -9368.7982 -7533.4482 297.5226 -3.6588 89.0388 30285.1757 96.2378 145.9562
ENERGY: 1200000 0.6467 8.0247 2.9310 0.0000 -10661.8800 1379.1631 0.0000 0.0000 1765.7985 -7505.3159 299.8954 -9271.1144 -7525.0281 298.5182 -731.2347 -623.5340 30611.8534 -44.2620 15.0603
ENERGY: 1500000 2.3111 11.1680 3.4982 0.0000 -10601.0700 1364.8022 0.0000 0.0000 1744.5739 -7474.7166 296.2908 -9219.2905 -7528.6188 298.1215 -735.3730 -654.7045 30998.3342 -62.9388 -6.1474
TCL: Running FEP window   9: Lambda1 0.5999999999999996 Lambda2 0.5499999999999996 [dLambda -0.050000000000000044]
TCL: Setting parameter firsttimestep to 0
TCL: Setting parameter alchLambda to 0.5999999999999996
Info: NONBONDED TABLE R-SQUARED SPACING: 0.0625
Info: NONBONDED TABLE SIZE: 705 POINTS
TCL: Setting parameter alchLambda2 to 0.5499999999999996
Info: NONBONDED TABLE R-SQUARED SPACING: 0.0625
Info: NONBONDED TABLE SIZE: 705 POINTS
TCL: Running for 1500000 steps
ETITLE: TS BOND ANGLE DIHED IMPRP ELECT VDW BOUNDARY MISC KINETIC TOTAL TEMP POTENTIAL TOTALAVG TEMPAVG PRESSURE GPRESSURE VOLUME PRESSAVG GPRESSAVG
ENERGY: 0 2.3111 11.1680 3.4982 0.0000 -10600.9138 1364.8534 0.0000 0.0000 1743.7203 -7475.3628 296.1458 -9219.0831 -7475.3628 296.1458 -734.2355 -659.8379 30998.3342 -734.2355 -659.8379
ENERGY: 300000 1.0011 11.2258 4.2340 0.0000 -10782.8366 1470.3246 0.0000 0.0000 1779.2047 -7516.8463 302.1723 -9296.0510 -7463.9353 301.2710 206.3878 283.0023 30386.7284 -366.0872 -299.2543
ENERGY: 600000 2.1621 12.4685 2.4431 0.0000 -10687.7797 1407.7128 0.0000 0.0000 1741.7126 -7521.2805 295.8048 -9262.9932 -7472.1770 301.9745 -224.2289 -160.5587 30490.5487 -350.9180 -299.5066
ENERGY: 900000 2.2107 5.5051 3.4976 0.0000 -10610.9100 1354.9668 0.0000 0.0000 1759.0854 -7485.6444 298.7553 -9244.7298 -7493.3755 300.2617 -560.0255 -489.3474 30681.3191 -241.8242 -186.7423
ENERGY: 1200000 1.0740 11.8896 2.6497 0.0000 -10783.9147 1452.2492 0.0000 0.0000 1818.6982 -7497.3540 308.8797 -9316.0522 -7492.5069 301.1934 33.7421 68.4397 30106.0074 -158.5789 -112.6001
ENERGY: 1500000 1.4766 7.1387 2.9928 0.0000 -10720.2429 1377.9545 0.0000 0.0000 1742.8888 -7587.7915 296.0046 -9330.6803 -7503.0270 300.9828 -722.7974 -618.0013 30296.8805 -169.0620 -116.4166
TCL: Running FEP window  10: Lambda1 0.5499999999999996 Lambda2 0.4999999999999996 [dLambda -0.04999999999999999]
TCL: Setting parameter firsttimestep to 0
TCL: Setting parameter alchLambda to 0.5499999999999996
Info: NONBONDED TABLE R-SQUARED SPACING: 0.0625
Info: NONBONDED TABLE SIZE: 705 POINTS
TCL: Setting parameter alchLambda2 to 0.4999999999999996
Info: NONBONDED TABLE R-SQUARED SPACING: 0.0625
Info: NONBONDED TABLE SIZE: 705 POINTS
TCL: Running for 1500000 steps
ETITLE: TS BOND ANGLE DIHED IMPRP ELECT VDW BOUNDARY MISC KINETIC TOTAL TEMP POTENTIAL TOTALAVG TEMPAVG PRESSURE GPRESSURE VOLUME PRESSAVG GPRESSAVG
ENERGY: 0 1.4766 7.1387 2.9928 0.0000 -10720.0745 1378.4584 0.0000 0.0000 1742.0404 -7587.9676 295.8605 -9330.0080 -7587.9676 295.8605 -717.8393 -619.2338 30296.8805 -717.8393 -619.2338
ENERGY: 300000 0.3367 7.4918 2.9283 0.0000 -10793.4748 1486.4410 0.0000 0.0000 1786.3259 -7509.9511 303.3817 -9296.2770 -7541.3821 298.1795 301.5800 337.4428 30207.7681 21.3928 88.9027
ENERGY: 600000 1.1547 8.9076 4.3022 0.0000 -10746.4336 1462.1369 0.0000 0.0000 1749.5728 -7520.3596 297.1397 -9269.9324 -7529.1151 297.4672 64.3111 158.4159 30603.7711 -29.9754 37.3694
ENERGY: 900000 2.1400 5.6402 3.4560 0.0000 -10613.8676 1394.9415 0.0000 0.0000 1739.8410 -7467.8489 295.4869 -9207.6898 -7522.5697 297.8238 -364.2443 -354.2257 30595.0982 -139.2400 -69.8855
ENERGY: 1200000 1.7512 6.9986 5.3015 0.0000 -10814.9907 1504.9412 0.0000 0.0000 1756.3582 -7539.6400 298.2921 -9295.9982 -7523.7143 297.4654 410.5657 465.2007 30302.1953 -62.0359 11.2626
ENERGY: 1500000 1.3284 8.3229 1.8215 0.0000 -10680.7939 1394.4991 0.0000 0.0000 1775.3924 -7499.4296 301.5248 -9274.8220 -7522.9260 297.8838 -366.0119 -296.5351 30339.8821 -55.4670 17.8148
TCL: Running FEP window  11: Lambda1 0.4999999999999996 Lambda2 0.4499999999999996 [dLambda -0.04999999999999999]
TCL: Setting parameter firsttimestep to 0
TCL: Setting parameter alchLambda to 0.4999999999999996
Info: NONBONDED TABLE R-SQUARED SPACING: 0.0625
Info: NONBONDED TABLE SIZE: 705 POINTS
TCL: Setting parameter alchLambda2 to 0.4499999999999996
Info: NONBONDED TABLE R-SQUARED SPACING: 0.0625
Info: NONBONDED TABLE SIZE: 705 POINTS
TCL: Running for 1500000 steps
ETITLE: TS BOND ANGLE DIHED IMPRP ELECT VDW BOUNDARY MISC KINETIC TOTAL TEMP POTENTIAL TOTALAVG TEMPAVG PRESSURE GPRESSURE VOLUME PRESSAVG GPRESSAVG
ENERGY: 0 1.3284 8.3229 1.8215 0.0000 -10680.5934 1394.9620 0.0000 0.0000 1774.5034 -7499.6552 301.3739 -9274.1586 -7499.6552 301.3739 -383.1613 -298.5733 30339.8821 -383.1613 -298.5733
ENERGY: 300000 2.6604 10.3527 3.9066 0.0000 -10795.3138 1473.9726 0.0000 0.0000 1800.3968 -7504.0248 305.7715 -9304.4216 -7486.4093 300.3582 -131.2028 -53.9957 30627.5425 -88.4500 -26.5714
ENERGY: 600000 2.1254 9.3402 2.8179 0.0000 -10836.5862 1499.6884 0.0000 0.0000 1738.0080 -7584.6063 295.1756 -9322.6143 -7503.2495 299.4063 135.7319 229.9391 30270.6517 -53.4263 8.1424
ENERGY: 900000 1.1077 8.4528 4.5079 0.0000 -10730.6809 1414.7094 0.0000 0.0000 1831.5678 -7470.3353 311.0654 -9301.9031 -7485.2389 300.9311 -91.9132 -61.5989 30099.1323 -125.1179 -72.8106
ENERGY: 1200000 0.2670 4.6640 2.7001 0.0000 -10597.0875 1399.8854 0.0000 0.0000 1708.3426 -7481.2284 290.1374 -9189.5710 -7486.6291 299.3701 -65.3399 16.9044 30254.7768 -103.8255 -50.8493
ENERGY: 1500000 1.7500 12.2441 4.5533 0.0000 -10811.6089 1472.7182 0.0000 0.0000 1760.4483 -7559.8950 298.9868 -9320.3433 -7482.5730 299.5132 -6.4512 108.1770 30318.9467 -58.6884 3.6080
TCL: Running FEP window  12: Lambda1 0.4499999999999996 Lambda2 0.39999999999999963 [dLambda -0.04999999999999999]
TCL: Setting parameter firsttimestep to 0
TCL: Setting parameter alchLambda to 0.4499999999999996
Info: NONBONDED TABLE R-SQUARED SPACING: 0.0625
Info: NONBONDED TABLE SIZE: 705 POINTS
TCL: Setting parameter alchLambda2 to 0.39999999999999963
Info: NONBONDED TABLE R-SQUARED SPACING: 0.0625
Info: NONBONDED TABLE SIZE: 705 POINTS
TCL: Running for 1500000 steps
ETITLE: TS BOND ANGLE DIHED IMPRP ELECT VDW BOUNDARY MISC KINETIC TOTAL TEMP POTENTIAL TOTALAVG TEMPAVG PRESSURE GPRESSURE VOLUME PRESSAVG GPRESSAVG
ENERGY: 0 1.7500 12.2441 4.5533 0.0000 -10811.6076 1472.9552 0.0000 0.0000 1759.5949 -7560.5100 298.8419 -9320.1049 -7560.5100 298.8419 17.1550 103.8215 30318.9467 17.1550 103.8215
ENERGY: 300000 0.8479 6.5554 3.0295 0.0000 -10905.1873 1531.3672 0.0000 0.0000 1768.1599 -7595.2274 300.2965 -9363.3873 -7545.0722 299.4269 719.0357 773.3672 29754.6893 284.3232 342.9254
ENERGY: 600000 2.7935 8.3267 2.9330 0.0000 -10708.3885 1439.1192 0.0000 0.0000 1751.6925 -7503.5237 297.4997 -9255.2162 -7520.3712 299.4886 -70.2726 -0.1404 30410.1636 150.4198 222.5672
ENERGY: 900000 1.3057 7.6622 4.7875 0.0000 -10677.9837 1420.5406 0.0000 0.0000 1765.0956 -7478.5921 299.7761 -9243.6877 -7508.6162 298.5328 -399.0273 -349.6429 30780.4484 59.8492 123.2096
ENERGY: 1200000 4.7971 2.9825 3.5127 0.0000 -10681.7749 1376.7350 0.0000 0.0000 1752.3811 -7541.3665 297.6167 -9293.7476 -7508.5492 298.6476 -633.5201 -530.3821 30221.6733 32.5777 96.7786
ENERGY: 1500000 3.2067 6.5037 2.3749 0.0000 -10711.6889 1421.6392 0.0000 0.0000 1831.6417 -7446.3227 311.0780 -9277.9644 -7505.7884 298.8036 184.6105 185.4640 29867.0940 -32.0909 19.8709
TCL: Running FEP window  13: Lambda1 0.39999999999999963 Lambda2 0.34999999999999964 [dLambda -0.04999999999999999]
TCL: Setting parameter firsttimestep to 0
TCL: Setting parameter alchLambda to 0.39999999999999963
Info: NONBONDED TABLE R-SQUARED SPACING: 0.0625
Info: NONBONDED TABLE SIZE: 705 POINTS
TCL: Setting parameter alchLambda2 to 0.34999999999999964
Info: NONBONDED TABLE R-SQUARED SPACING: 0.0625
Info: NONBONDED TABLE SIZE: 705 POINTS
TCL: Running for 1500000 steps
ETITLE: TS BOND ANGLE DIHED IMPRP ELECT VDW BOUNDARY MISC KINETIC TOTAL TEMP POTENTIAL TOTALAVG TEMPAVG PRESSURE GPRESSURE VOLUME PRESSAVG GPRESSAVG
ENERGY: 0 3.2067 6.5037 2.3749 0.0000 -10711.6894 1421.4344 0.0000 0.0000 1830.7531 -7447.4166 310.9271 -9278.1697 -7447.4166 310.9271 104.6626 179.4623 29867.0940 104.6626 179.4623
ENERGY: 300000 2.3501 7.7571 4.0176 0.0000 -10555.1889 1392.2078 0.0000 0.0000 1791.6329 -7357.2233 304.2831 -9148.8563 -7430.0851 305.6529 -372.2821 -291.9768 30998.7968 -351.5730 -274.9222
ENERGY: 600000 0.8908 6.2668 4.1741 0.0000 -10643.1248 1410.3843 0.0000 0.0000 1785.1294 -7436.2795 303.1785 -9221.4089 -7442.9091 304.7725 -122.1376 -96.9282 30495.6722 -88.8028 -16.5608
ENERGY: 900000 1.1580 6.8280 2.6548 0.0000 -10689.9599 1471.9932 0.0000 0.0000 1778.1241 -7429.2019 301.9888 -9207.3260 -7449.4864 303.0870 412.1571 429.6937 30432.5801 56.1897 116.0201
ENERGY: 1200000 2.1399 8.9613 3.6667 0.0000 -10813.6667 1443.9520 0.0000 0.0000 1746.7593 -7608.1875 296.6619 -9354.9468 -7470.3236 301.0010 -272.9359 -197.8773 30304.4126 -38.9473 15.9239
ENERGY: 1500000 1.1241 8.2985 4.0654 0.0000 -10691.4765 1444.9606 0.0000 0.0000 1719.4004 -7513.6274 292.0154 -9233.0278 -7475.4216 300.0821 -33.9578 33.5472 30644.5659 12.9853 69.9110
TCL: Running FEP window  14: Lambda1 0.34999999999999964 Lambda2 0.29999999999999966 [dLambda -0.04999999999999999]
TCL: Setting parameter firsttimestep to 0
TCL: Setting parameter alchLambda to 0.34999999999999964
Info: NONBONDED TABLE R-SQUARED SPACING: 0.0625
Info: NONBONDED TABLE SIZE: 705 POINTS
TCL: Setting parameter alchLambda2 to 0.29999999999999966
Info: NONBONDED TABLE R-SQUARED SPACING: 0.0625
Info: NONBONDED TABLE SIZE: 705 POINTS
TCL: Running for 1500000 steps
ETITLE: TS BOND ANGLE DIHED IMPRP ELECT VDW BOUNDARY MISC KINETIC TOTAL TEMP POTENTIAL TOTALAVG TEMPAVG PRESSURE GPRESSURE VOLUME PRESSAVG GPRESSAVG
ENERGY: 0 1.1241 8.2985 4.0654 0.0000 -10691.4790 1445.2202 0.0000 0.0000 1718.5838 -7514.1869 291.8767 -9232.7708 -7514.1869 291.8767 -53.0366 29.8617 30644.5659 -53.0366 29.8617
ENERGY: 300000 2.0026 8.6304 3.0613 0.0000 -10748.0524 1451.1053 0.0000 0.0000 1821.3041 -7461.9487 309.3223 -9283.2528 -7494.1975 299.8227 70.0074 145.0203 30332.9802 7.3553 83.1774
ENERGY: 600000 1.0517 4.0329 2.7516 0.0000 -10695.6382 1443.2591 0.0000 0.0000 1715.1774 -7529.3656 291.2982 -9244.5430 -7508.5166 296.5647 -81.6929 -32.0998 30878.6878 -60.1329 3.6809
ENERGY: 900000 3.5603 11.1363 2.1339 0.0000 -10832.9945 1495.3141 0.0000 0.0000 1713.6974 -7607.1525 291.0468 -9320.8499 -7515.6821 295.8412 -179.4711 -97.5197 30785.4440 -95.0068 -25.8568
ENERGY: 1200000 0.9805 7.8940 3.0883 0.0000 -10811.1456 1520.7263 0.0000 0.0000 1775.9824 -7502.4740 301.6250 -9278.4564 -7511.3386 297.6535 469.4282 528.3298 30382.7179 -43.5118 22.2464
ENERGY: 1500000 1.1270 6.2421 3.6328 0.0000 -10685.9152 1414.1569 0.0000 0.0000 1736.8311 -7523.9252 294.9758 -9260.7563 -7516.7787 296.7741 -38.0504 39.5373 30169.3671 -69.8407 -7.9495
TCL: Running FEP window  15: Lambda1 0.29999999999999966 Lambda2 0.24999999999999967 [dLambda -0.04999999999999999]
TCL: Setting parameter firsttimestep to 0
TCL: Setting parameter alchLambda to 0.29999999999999966
Info: NONBONDED TABLE R-SQUARED SPACING: 0.0625
Info: NONBONDED TABLE SIZE: 705 POINTS
TCL: Setting parameter alchLambda2 to 0.24999999999999967
Info: NONBONDED TABLE R-SQUARED SPACING: 0.0625
Info: NONBONDED TABLE SIZE: 705 POINTS
TCL: Running for 1500000 steps
ETITLE: TS BOND ANGLE DIHED IMPRP ELECT VDW BOUNDARY MISC KINETIC TOTAL TEMP POTENTIAL TOTALAVG TEMPAVG PRESSURE GPRESSURE VOLUME PRESSAVG GPRESSAVG
ENERGY: 0 1.1270 6.2421 3.6328 0.0000 -10685.9171 1414.3241 0.0000 0.0000 1735.9366 -7524.6544 294.8238 -9260.5910 -7524.6544 294.8238 -57.2040 35.5383 30169.3671 -57.2040 35.5383
ENERGY: 300000 0.6797 6.9596 2.8294 0.0000 -10720.6398 1452.2577 0.0000 0.0000 1768.4181 -7489.4952 300.3404 -9257.9133 -7487.7273 297.2338 124.9803 192.6578 30362.1879 87.8226 146.6422
ENERGY: 600000 1.2030 6.1363 2.8344 0.0000 -10635.5495 1376.2712 0.0000 0.0000 1778.9618 -7470.1428 302.1310 -9249.1046 -7478.6568 299.7711 -872.9974 -817.0583 30936.6858 -81.6713 -10.8139
ENERGY: 900000 0.3890 11.6713 3.1064 0.0000 -10732.7623 1498.6747 0.0000 0.0000 1743.2661 -7475.6548 296.0687 -9218.9209 -7477.0601 299.5332 876.3425 930.8394 29736.9296 102.4275 162.9425
ENERGY: 1200000 1.3741 5.7386 3.5680 0.0000 -10828.8760 1537.7526 0.0000 0.0000 1726.2346 -7554.2082 293.1761 -9280.4427 -7484.8612 299.2776 827.6673 860.2296 30244.2783 46.0389 108.3277
ENERGY: 1500000 0.4331 8.1721 2.2181 0.0000 -10780.0601 1453.0514 0.0000 0.0000 1709.6137 -7606.5717 290.3533 -9316.1854 -7495.3073 299.4971 -134.6236 -96.8875 30422.9367 157.8242 213.8731
TCL: Running FEP window  16: Lambda1 0.24999999999999967 Lambda2 0.19999999999999968 [dLambda -0.04999999999999999]
TCL: Setting parameter firsttimestep to 0
TCL: Setting parameter alchLambda to 0.24999999999999967
Info: NONBONDED TABLE R-SQUARED SPACING: 0.0625
Info: NONBONDED TABLE SIZE: 705 POINTS
TCL: Setting parameter alchLambda2 to 0.19999999999999968
Info: NONBONDED TABLE R-SQUARED SPACING: 0.0625
Info: NONBONDED TABLE SIZE: 705 POINTS
TCL: Running for 1500000 steps
ETITLE: TS BOND ANGLE DIHED IMPRP ELECT VDW BOUNDARY MISC KINETIC TOTAL TEMP POTENTIAL TOTALAVG TEMPAVG PRESSURE GPRESSURE VOLUME PRESSAVG GPRESSAVG
ENERGY: 0 0.4331 8.1721 2.2181 0.0000 -10780.0600 1453.5248 0.0000 0.0000 1708.7581 -7606.9538 290.2080 -9315.7119 -7606.9538 290.2080 -193.3671 -100.6980 30422.9367 -193.3671 -100.6980
ENERGY: 300000 2.0160 6.3472 3.0853 0.0000 -10757.0971 1424.1528 0.0000 0.0000 1808.2817 -7513.2141 307.1106 -9321.4958 -7513.0266 299.9497 -125.5997 -100.1375 30120.8181 62.6094 112.9920
ENERGY: 600000 1.7070 11.2272 3.5721 0.0000 -10697.5702 1423.6767 0.0000 0.0000 1743.7617 -7513.6255 296.1528 -9257.3872 -7501.9674 300.6903 -44.0931 62.3098 30125.9333 -22.8399 25.1698
ENERGY: 900000 0.6859 13.7912 2.5574 0.0000 -10681.5617 1468.2662 0.0000 0.0000 1792.9285 -7403.3324 304.5031 -9196.2609 -7491.3204 301.3717 402.8262 467.1555 30488.9111 -4.9552 50.5070
ENERGY: 1200000 2.6796 4.0452 1.7840 0.0000 -10798.7042 1436.9675 0.0000 0.0000 1790.8544 -7562.3735 304.1508 -9353.2279 -7501.6029 301.0746 -47.0935 -81.0524 30046.5592 72.2578 114.8444
ENERGY: 1500000 0.5209 7.4251 4.7355 0.0000 -10630.8166 1377.3238 0.0000 0.0000 1757.6023 -7483.2090 298.5035 -9240.8114 -7494.1143 300.6539 -563.6932 -533.4837 30629.9357 10.6496 52.5632
TCL: Running FEP window  17: Lambda1 0.19999999999999968 Lambda2 0.1499999999999997 [dLambda -0.04999999999999999]
TCL: Setting parameter firsttimestep to 0
TCL: Setting parameter alchLambda to 0.19999999999999968
Info: NONBONDED TABLE R-SQUARED SPACING: 0.0625
Info: NONBONDED TABLE SIZE: 705 POINTS
TCL: Setting parameter alchLambda2 to 0.1499999999999997
Info: NONBONDED TABLE R-SQUARED SPACING: 0.0625
Info: NONBONDED TABLE SIZE: 705 POINTS
TCL: Running for 1500000 steps
ETITLE: TS BOND ANGLE DIHED IMPRP ELECT VDW BOUNDARY MISC KINETIC TOTAL TEMP POTENTIAL TOTALAVG TEMPAVG PRESSURE GPRESSURE VOLUME PRESSAVG GPRESSAVG
ENERGY: 0 0.5209 7.4251 4.7355 0.0000 -10630.8159 1377.2180 0.0000 0.0000 1756.7065 -7484.2100 298.3513 -9240.9165 -7484.2100 298.3513 -622.7283 -538.6809 30629.9357 -622.7283 -538.6809
ENERGY: 300000 0.4817 6.7092 3.9102 0.0000 -10675.2991 1380.7540 0.0000 0.0000 1835.1156 -7448.3286 311.6680 -9283.4442 -7494.1265 302.3532 -390.5070 -335.2499 30152.6439 -134.3835 -62.7941
ENERGY: 600000 0.6312 9.8132 2.7380 0.0000 -10617.4059 1394.1367 0.0000 0.0000 1784.1610 -7425.9258 303.0141 -9210.0868 -7475.1783 302.3307 -208.7798 -140.9759 30580.6379 -58.1519 0.6853
ENERGY: 900000 1.6250 6.1838 3.2009 0.0000 -10712.9837 1447.8183 0.0000 0.0000 1749.4312 -7504.7245 297.1157 -9254.1557 -7484.7132 300.3593 -33.9887 17.5206 30546.4360 -59.0859 -10.2217
ENERGY: 1200000 2.9376 8.2302 2.9492 0.0000 -10653.2428 1369.1831 0.0000 0.0000 1794.2071 -7475.7357 304.7202 -9269.9427 -7485.6529 300.3703 -547.4214 -540.5590 30430.0641 -178.4495 -128.0635
ENERGY: 1500000 1.8117 5.5810 3.8922 0.0000 -10631.0033 1393.2772 0.0000 0.0000 1788.3612 -7438.0801 303.7274 -9226.4412 -7481.9475 300.2087 -610.6532 -552.0576 31026.1650 -226.7142 -181.2015
TCL: Running FEP window  18: Lambda1 0.1499999999999997 Lambda2 0.09999999999999969 [dLambda -0.05 ]
TCL: Setting parameter firsttimestep to 0
TCL: Setting parameter alchLambda to 0.1499999999999997
Info: NONBONDED TABLE R-SQUARED SPACING: 0.0625
Info: NONBONDED TABLE SIZE: 705 POINTS
TCL: Setting parameter alchLambda2 to 0.09999999999999969
Info: NONBONDED TABLE R-SQUARED SPACING: 0.0625
Info: NONBONDED TABLE SIZE: 705 POINTS
TCL: Running for 1500000 steps
ETITLE: TS BOND ANGLE DIHED IMPRP ELECT VDW BOUNDARY MISC KINETIC TOTAL TEMP POTENTIAL TOTALAVG TEMPAVG PRESSURE GPRESSURE VOLUME PRESSAVG GPRESSAVG
ENERGY: 0 1.8117 5.5810 3.8922 0.0000 -10631.0038 1393.6859 0.0000 0.0000 1787.5015 -7438.5315 303.5814 -9226.0330 -7438.5315 303.5814 -633.1644 -552.9659 31026.1650 -633.1644 -552.9659
ENERGY: 300000 1.0014 9.5413 2.5620 0.0000 -10778.0975 1464.4993 0.0000 0.0000 1745.3849 -7555.1086 296.4285 -9300.4935 -7537.1111 298.2608 132.9464 151.5680 29873.8165 -517.5870 -459.4959
ENERGY: 600000 0.1777 5.9550 3.3281 0.0000 -10783.5584 1435.9433 0.0000 0.0000 1744.5958 -7593.5584 296.2945 -9338.1542 -7530.1620 297.1294 -275.7581 -192.1223 30385.8169 -303.9677 -248.1132
ENERGY: 900000 1.7969 9.0181 3.3375 0.0000 -10760.9237 1419.7128 0.0000 0.0000 1753.7936 -7573.2648 297.8566 -9327.0584 -7534.2444 296.4245 -337.6587 -329.4618 30247.3383 -392.9245 -350.3321
ENERGY: 1200000 1.5955 11.0152 4.6775 0.0000 -10747.6086 1508.2808 0.0000 0.0000 1764.0735 -7457.9662 299.6025 -9222.0397 -7525.7956 296.6270 543.6948 619.5935 30366.3830 -287.0591 -241.1506
ENERGY: 1500000 1.6939 7.8838 2.5978 0.0000 -10751.5738 1418.9701 0.0000 0.0000 1790.1343 -7530.2940 304.0285 -9320.4282 -7515.8602 297.7270 -507.4854 -375.6039 30350.4955 -359.9124 -306.3114
TCL: Running FEP window  19: Lambda1 0.09999999999999969 Lambda2 0.049999999999999684 [dLambda -0.05 ]
TCL: Setting parameter firsttimestep to 0
TCL: Setting parameter alchLambda to 0.09999999999999969
Info: NONBONDED TABLE R-SQUARED SPACING: 0.0625
Info: NONBONDED TABLE SIZE: 705 POINTS
TCL: Setting parameter alchLambda2 to 0.049999999999999684
Info: NONBONDED TABLE R-SQUARED SPACING: 0.0625
Info: NONBONDED TABLE SIZE: 705 POINTS
TCL: Running for 1500000 steps
ETITLE: TS BOND ANGLE DIHED IMPRP ELECT VDW BOUNDARY MISC KINETIC TOTAL TEMP POTENTIAL TOTALAVG TEMPAVG PRESSURE GPRESSURE VOLUME PRESSAVG GPRESSAVG
ENERGY: 0 1.6939 7.8838 2.5978 0.0000 -10751.5739 1418.6509 0.0000 0.0000 1789.2580 -7531.4896 303.8797 -9320.7475 -7531.4896 303.8797 -469.4598 -380.0245 30350.4955 -469.4598 -380.0245
ENERGY: 300000 2.0201 8.3950 2.9589 0.0000 -10714.5676 1426.4530 0.0000 0.0000 1766.3789 -7508.3617 299.9940 -9274.7406 -7538.2656 298.5978 -41.4399 -55.3298 29881.4511 92.0394 122.5254
ENERGY: 600000 2.4128 5.7223 5.4728 0.0000 -10578.3060 1349.1947 0.0000 0.0000 1764.8924 -7450.6109 299.7416 -9215.5033 -7515.2555 299.3363 -735.4399 -709.9125 30773.7146 -139.9934 -93.7928
ENERGY: 900000 0.5603 11.5767 2.5684 0.0000 -10456.4453 1314.9047 0.0000 0.0000 1776.1748 -7350.6604 301.6577 -9126.8352 -7490.7487 299.3746 -763.4499 -625.2384 30658.0312 -252.7882 -189.6864
ENERGY: 1200000 0.5296 7.4200 4.3478 0.0000 -10748.3689 1505.4012 0.0000 0.0000 1809.1690 -7421.5013 307.2613 -9230.6703 -7482.9610 300.5864 367.3780 430.2289 30581.8545 -171.7539 -109.2851
ENERGY: 1500000 1.4726 8.6063 4.1683 0.0000 -10839.3908 1490.4500 0.0000 0.0000 1781.3054 -7553.3881 302.5291 -9334.6935 -7484.5925 300.7958 112.1776 170.1560 30088.0461 -45.7349 15.5560
TCL: Running FEP window  20: Lambda1 0.049999999999999684 Lambda2 0.0    [dLambda -0.049999999999999684]
TCL: Setting parameter firsttimestep to 0
TCL: Setting parameter alchLambda to 0.049999999999999684
Info: NONBONDED TABLE R-SQUARED SPACING: 0.0625
Info: NONBONDED TABLE SIZE: 705 POINTS
TCL: Setting parameter alchLambda2 to 0.0
Info: NONBONDED TABLE R-SQUARED SPACING: 0.0625
Info: NONBONDED TABLE SIZE: 705 POINTS
TCL: Running for 1500000 steps
ETITLE: TS BOND ANGLE DIHED IMPRP ELECT VDW BOUNDARY MISC KINETIC TOTAL TEMP POTENTIAL TOTALAVG TEMPAVG PRESSURE GPRESSURE VOLUME PRESSAVG GPRESSAVG
ENERGY: 0 1.4726 8.6063 4.1683 0.0000 -10839.3921 1489.8559 0.0000 0.0000 1780.4505 -7554.8383 302.3839 -9335.2888 -7554.8383 302.3839 61.4438 168.9796 30088.0461 61.4438 168.9796
ENERGY: 300000 1.3589 2.5510 4.3122 0.0000 -10738.6332 1421.0192 0.0000 0.0000 1815.2619 -7494.1300 308.2961 -9309.3919 -7493.5360 300.9632 -195.1404 -184.2782 30311.7900 214.3789 267.2962
ENERGY: 600000 3.6287 8.8068 3.0188 0.0000 -10795.7292 1484.8859 0.0000 0.0000 1728.6824 -7566.7067 293.5918 -9295.3890 -7501.1942 300.6942 252.6947 307.9923 30345.8776 240.0623 293.9622
ENERGY: 900000 0.6589 13.2120 3.0300 0.0000 -10724.5655 1441.8498 0.0000 0.0000 1765.3674 -7500.4475 299.8222 -9265.8149 -7512.0970 300.5602 190.3520 175.8712 30172.7022 282.0440 331.5733
ENERGY: 1200000 3.6240 6.7660 2.6611 0.0000 -10639.7638 1364.5278 0.0000 0.0000 1785.8902 -7476.2948 303.3077 -9262.1849 -7504.9004 299.7732 -590.6595 -567.1052 30066.6656 180.8369 226.3179
ENERGY: 1500000 0.7083 6.3422 4.7927 0.0000 -10827.7368 1463.6895 0.0000 0.0000 1753.2433 -7598.9610 297.7631 -9352.2042 -7514.0878 299.5663 -164.6433 -49.4852 30490.0374 178.0014 229.0126
TCL: Exiting due to exit command.
