Info: SIMULATION PARAMETERS:
Info: TIMESTEP               2
Info: NUMBER OF STEPS        0
Info: STEPS PER CYCLE        10
Info: PERIODIC CELL BASIS 1  30.7579 0 0
Info: PERIODIC CELL BASIS 2  0 31.1315 0
Info: PERIODIC CELL BASIS 3  0 0 31.4058
Info: PERIODIC CELL CENTER   0 0 0
Info: WRAPPING WATERS AROUND PERIODIC BOUNDARIES ON OUTPUT.
Info: WRAPPING ALL CLUSTERS AROUND PERIODIC BOUNDARIES ON OUTPUT.
Info: FIRST LDB TIMESTEP     50
Info: LAST LDB TIMESTEP     -1
Info: HOM BACKGROUND SCALING 1
Info: PME BACKGROUND SCALING 1
Info: MIN ATOMS PER PATCH    40
Info: EMPTY PATCH LOAD       40 ATOMS
Info: VELOCITY FILE          mobley_7360181_equil.vel
Info: CENTER OF MASS MOVING INITIALLY? NO
Info: DIELECTRIC             1
Info: EXCLUDE                SCALED ONE-FOUR
Info: 1-4 ELECTROSTATICS SCALED BY 0.833333
Info: MODIFIED 1-4 VDW PARAMETERS WILL BE USED
Info: DCD FILENAME           mobley_7360181_prod.dcd
Info: DCD FREQUENCY          100000
Info: DCD FIRST STEP         100000
Info: DCD FILE WILL CONTAIN UNIT CELL DATA
Info: XST FILENAME           mobley_7360181_prod.xst
Info: XST FREQUENCY          100000
Info: NO VELOCITY DCD OUTPUT
Info: NO FORCE DCD OUTPUT
Info: OUTPUT FILENAME        mobley_7360181_prod
Info: BINARY OUTPUT FILES WILL BE USED
Info: RESTART FILENAME       mobley_7360181_prod.restart
Info: RESTART FREQUENCY      100000
Info: BINARY RESTART FILES WILL BE USED
Info: CUTOFF                 9
Info: PAIRLIST DISTANCE      11
Info: PAIRLIST SHRINK RATE   0.01
Info: PAIRLIST GROW RATE     0.01
Info: PAIRLIST TRIGGER       0.3
Info: PAIRLISTS PER CYCLE    2
Info: PAIRLISTS ENABLED
Info: MARGIN                 2
Info: HYDROGEN GROUP CUTOFF  2.5
Info: PATCH DIMENSION        15.5
Info: ENERGY OUTPUT STEPS    100000
Info: ENERGY EVALUATION STEPS    100000
Info: OUTPUT ENERGY PRECISION 4
Info: CROSSTERM ENERGY INCLUDED IN DIHEDRAL
Info: TIMING OUTPUT STEPS    1000000
Info: PRESSURE OUTPUT STEPS  100000
Info: ALCHEMICAL FEP ON
Info: FEP CURRENT LAMBDA VALUE     0
Info: FEP COMPARISON LAMBDA VALUE  0.05
Info: FEP INTRA-ALCHEMICAL NON-BONDED INTERACTIONS WILL BE RETAINED
Info: FEP INTRA-ALCHEMICAL BONDED INTERACTIONS WILL BE RETAINED
Info: FEP VDW SHIFTING COEFFICIENT 5
Info: FEP ELEC. ACTIVE FOR ANNIHILATED PARTICLES BETWEEN LAMBDA = 0 AND LAMBDA = 0.5
Info: FEP ELEC. ACTIVE FOR EXNIHILATED PARTICLES BETWEEN LAMBDA = 0.5 AND LAMBDA = 1
Info: FEP VDW ACTIVE FOR ANNIHILATED PARTICLES BETWEEN LAMBDA = 0 AND LAMBDA = 1
Info: FEP VDW ACTIVE FOR EXNIHILATED PARTICLES BETWEEN LAMBDA = 0 AND LAMBDA = 1
Info: FEP BOND ACTIVE FOR ANNIHILATED PARTICLES BETWEEN LAMBDA = 1 AND LAMBDA = 1
Info: FEP BOND ACTIVE FOR EXNIHILATED PARTICLES BETWEEN LAMBDA = 0 AND LAMBDA = 0
Info: LANGEVIN DYNAMICS ACTIVE
Info: LANGEVIN TEMPERATURE   300
Info: LANGEVIN USING BBK INTEGRATOR
Info: LANGEVIN DAMPING COEFFICIENT IS 1 INVERSE PS
Info: LANGEVIN DYNAMICS APPLIED TO HYDROGENS
Info: LANGEVIN PISTON PRESSURE CONTROL ACTIVE
Info:        TARGET PRESSURE IS 1.01325 BAR
Info:     OSCILLATION PERIOD IS 50 FS
Info:             DECAY TIME IS 25 FS
Info:     PISTON TEMPERATURE IS 300 K
Info:       PRESSURE CONTROL IS GROUP-BASED
Info:    INITIAL STRAIN RATE IS 0.000204596 0.000204596 0.000204596
Info:       CELL FLUCTUATION IS ISOTROPIC
Info: PARTICLE MESH EWALD (PME) ACTIVE
Info: PME TOLERANCE               1e-06
Info: PME EWALD COEFFICIENT       0.348832
Info: PME INTERPOLATION ORDER     4
Info: PME GRID DIMENSIONS         32 32 32
Info: PME MAXIMUM GRID SPACING    1
Info: PME CALCULATION WILL BE PERFORMED ON GPU
Info: FULL ELECTROSTATIC EVALUATION FREQUENCY      2
Info: USING VERLET I (r-RESPA) MTS SCHEME.
Info: C1 SPLITTING OF LONG RANGE ELECTROSTATICS
Info: PLACING ATOMS IN PATCHES BY HYDROGEN GROUPS
Info: RIGID BONDS TO HYDROGEN : ALL
Info:         ERROR TOLERANCE : 1e-08
Info:          MAX ITERATIONS : 100
Info: RIGID WATER USING SETTLE ALGORITHM
Info: RANDOM NUMBER SEED     1743932644
Info: USE HYDROGEN BONDS?    NO
Info: Using AMBER format force field!
Info: AMBER PARM FILE        mobley_7360181.prmtop
Info: COORDINATE PDB         mobley_7360181.pdb
Info: Exclusions will be read from PARM file!
Info: SCNB (VDW SCALING)     2
Info: USING ARITHMETIC MEAN TO COMBINE L-J SIGMA PARAMETERS
Info: BINARY COORDINATES     mobley_7360181_equil.coor
Info: SUMMARY OF PARAMETERS:
Info: 6 BONDS
Info: 7 ANGLES
Info:   7 HARMONIC
Info:   0 COSINE-BASED
Info: 7 DIHEDRAL
Info: 0 IMPROPER
Info: 0 CROSSTERM
Info: 0 VDW
Info: 21 VDW_PAIRS
Info: 0 NBTHOLE_PAIRS
Info: To read alchdata from file: mobley_7360181.pdb
Info: To read alchflag data from column: 5
Info: STRUCTURE SUMMARY:
Info: 2939 ATOMS
Info: 2938 BONDS
Info: 33 ANGLES
Info: 42 DIHEDRALS
Info: 0 IMPROPERS
Info: 0 CROSSTERMS
Info: 2998 EXCLUSIONS
Info: 2928 RIGID BONDS
Info: ALCH: 0 ATOMS TO DISAPPEAR IN FINAL STATE
Info: ALCH: 20 ATOMS TO APPEAR IN FINAL STATE
Info: 5889 DEGREES OF FREEDOM
Info: 984 HYDROGEN GROUPS
Info: 4 ATOMS IN LARGEST HYDROGEN GROUP
Info: 984 MIGRATION GROUPS
Info: 4 ATOMS IN LARGEST MIGRATION GROUP
Info: TOTAL MASS = 17703.7 amu
Info: TOTAL CHARGE = -9.99905e-05 e
Info: MASS DENSITY = 0.977589 g/cm^3
Info: ATOM DENSITY = 0.0977311 atoms/A^3
Info: ADDED 0 IMPLICIT EXCLUSIONS
Info: NONBONDED TABLE R-SQUARED SPACING: 0.0625
Info: NONBONDED TABLE SIZE: 705 POINTS
Info: REMOVING COM VELOCITY -0.0993608 0.0139296 0.0697906
Info: Use 3D box decompostion in PME FFT.
Info: Updated CUDA force table with 4096 elements.
Info: Updated CUDA LJ table with 6 x 6 elements.
Info: Found 23 unique exclusion lists needing 48 bytes
TCL: Running for 1500000 steps
ETITLE: TS BOND ANGLE DIHED IMPRP ELECT VDW BOUNDARY MISC KINETIC TOTAL TEMP POTENTIAL TOTALAVG TEMPAVG PRESSURE GPRESSURE VOLUME PRESSAVG GPRESSAVG
ENERGY: 0 2.7905 11.2384 14.0506 0.0000 -10579.3815 1448.2516 0.0000 0.0000 1777.1373 -7325.9130 303.7175 -9103.0503 -7325.9130 303.7175 274.5424 342.5575 30072.3169 274.5424 342.5575
ENERGY: 300000 2.2672 12.7475 15.2049 0.0000 -10609.0277 1472.7172 0.0000 0.0000 1726.4500 -7379.6409 295.0549 -9106.0909 -7377.5231 297.9645 276.0692 375.4115 30237.4928 -117.9773 -28.6005
ENERGY: 600000 8.9504 7.9062 15.5594 0.0000 -10462.1332 1330.9763 0.0000 0.0000 1697.0398 -7401.7011 290.0286 -9098.7409 -7355.3796 299.9390 -1152.9900 -1100.2512 30483.4639 -272.7174 -199.5066
ENERGY: 900000 5.1132 11.6513 14.4024 0.0000 -10705.3206 1546.3717 0.0000 0.0000 1774.5447 -7353.2374 303.2744 -9127.7821 -7352.7440 300.0790 869.3653 888.0880 29745.8882 -181.4569 -111.3513
ENERGY: 1200000 3.4512 10.0387 13.4511 0.0000 -10566.9918 1429.9531 0.0000 0.0000 1735.8926 -7374.2051 296.6687 -9110.0977 -7351.1783 299.7522 -154.3046 -40.5262 30392.8799 -129.9728 -56.6111
ENERGY: 1500000 7.9232 11.2218 15.1606 0.0000 -10463.5869 1381.8723 0.0000 0.0000 1770.2641 -7277.1450 302.5429 -9047.4091 -7342.6880 300.9344 -651.2513 -562.1690 30484.0680 -181.0172 -110.4211
TCL: Running FEP window   2: Lambda1 0.05   Lambda2 0.1    [dLambda 0.05  ]
TCL: Setting parameter firsttimestep to 0
TCL: Setting parameter alchLambda to 0.05
Info: NONBONDED TABLE R-SQUARED SPACING: 0.0625
Info: NONBONDED TABLE SIZE: 705 POINTS
TCL: Setting parameter alchLambda2 to 0.1
Info: NONBONDED TABLE R-SQUARED SPACING: 0.0625
Info: NONBONDED TABLE SIZE: 705 POINTS
TCL: Running for 1500000 steps
ETITLE: TS BOND ANGLE DIHED IMPRP ELECT VDW BOUNDARY MISC KINETIC TOTAL TEMP POTENTIAL TOTALAVG TEMPAVG PRESSURE GPRESSURE VOLUME PRESSAVG GPRESSAVG
ENERGY: 0 7.9232 11.2218 15.1606 0.0000 -10463.5847 1386.2544 0.0000 0.0000 1769.3842 -7273.6406 302.3925 -9043.0247 -7273.6406 302.3925 -649.4026 -555.2348 30484.0680 -649.4026 -555.2348
ENERGY: 300000 3.6590 10.8840 14.6596 0.0000 -10601.2702 1451.9633 0.0000 0.0000 1737.4070 -7382.6973 296.9275 -9120.1043 -7341.5585 301.4962 336.1706 358.7141 29866.3659 -166.2708 -121.9397
ENERGY: 600000 6.1665 7.7315 14.9959 0.0000 -10535.2361 1380.7277 0.0000 0.0000 1730.5354 -7395.0791 295.7531 -9125.6145 -7344.3992 300.1409 -371.0168 -336.4556 29890.1000 -37.3166 17.2316
ENERGY: 900000 7.5861 10.7486 13.5687 0.0000 -10641.2253 1508.2799 0.0000 0.0000 1779.3298 -7321.7121 304.0922 -9101.0420 -7344.1500 302.1124 275.3841 296.3984 30535.6850 -30.6351 30.1711
ENERGY: 1200000 2.4688 9.7160 16.0146 0.0000 -10582.7932 1389.1624 0.0000 0.0000 1733.2187 -7432.2127 296.2117 -9165.4315 -7352.9773 300.9524 -530.1958 -519.9869 30111.0250 -41.4933 18.8735
ENERGY: 1500000 4.9690 10.2561 13.8032 0.0000 -10637.6443 1458.1606 0.0000 0.0000 1744.5790 -7405.8763 298.1532 -9150.4553 -7356.4388 300.4344 273.1938 280.6854 29749.0570 -35.3529 21.7083
TCL: Running FEP window   3: Lambda1 0.1    Lambda2 0.15000000000000002 [dLambda 0.05000000000000002]
TCL: Setting parameter firsttimestep to 0
TCL: Setting parameter alchLambda to 0.1
Info: NONBONDED TABLE R-SQUARED SPACING: 0.0625
Info: NONBONDED TABLE SIZE: 705 POINTS
TCL: Setting parameter alchLambda2 to 0.15000000000000002
Info: NONBONDED TABLE R-SQUARED SPACING: 0.0625
Info: NONBONDED TABLE SIZE: 705 POINTS
TCL: Running for 1500000 steps
ETITLE: TS BOND ANGLE DIHED IMPRP ELECT VDW BOUNDARY MISC KINETIC TOTAL TEMP POTENTIAL TOTALAVG TEMPAVG PRESSURE GPRESSURE VOLUME PRESSAVG GPRESSAVG
ENERGY: 0 4.9690 10.2561 13.8032 0.0000 -10637.6455 1460.5034 0.0000 0.0000 1743.7426 -7404.3711 298.0103 -9148.1138 -7404.3711 298.0103 208.9623 291.2164 29749.0570 208.9623 291.2164
ENERGY: 300000 2.7303 8.9438 15.5631 0.0000 -10554.7924 1401.3193 0.0000 0.0000 1744.5172 -7381.7186 298.1426 -9126.2359 -7374.3687 298.5749 -420.5589 -342.9125 30132.1439 -400.5539 -342.2971
ENERGY: 600000 1.2178 7.3864 15.5459 0.0000 -10677.1822 1458.9579 0.0000 0.0000 1766.6991 -7427.3750 301.9336 -9194.0741 -7382.6785 299.8983 96.8062 140.3735 30022.0034 -188.5412 -137.4481
ENERGY: 900000 5.3725 10.0979 15.1971 0.0000 -10580.0099 1451.4716 0.0000 0.0000 1731.5726 -7366.2982 295.9304 -9097.8708 -7373.9494 300.0492 51.1916 130.0931 30399.9791 -209.5719 -147.0144
ENERGY: 1200000 3.1470 12.6539 13.5052 0.0000 -10614.8576 1409.1694 0.0000 0.0000 1716.6507 -7459.7314 293.3802 -9176.3821 -7377.9108 299.9584 -270.0362 -202.5671 29796.3153 -172.0229 -113.5515
ENERGY: 1500000 1.2992 8.7466 14.0305 0.0000 -10582.8563 1437.4424 0.0000 0.0000 1796.9920 -7324.3456 307.1107 -9121.3376 -7368.4548 300.7029 -158.2473 -93.0656 30438.5025 -212.0700 -150.8985
TCL: Running FEP window   4: Lambda1 0.15000000000000002 Lambda2 0.2    [dLambda 0.04999999999999999]
TCL: Setting parameter firsttimestep to 0
TCL: Setting parameter alchLambda to 0.15000000000000002
Info: NONBONDED TABLE R-SQUARED SPACING: 0.0625
Info: NONBONDED TABLE SIZE: 705 POINTS
TCL: Setting parameter alchLambda2 to 0.2
Info: NONBONDED TABLE R-SQUARED SPACING: 0.0625
Info: NONBONDED TABLE SIZE: 705 POINTS
TCL: Running for 1500000 steps
ETITLE: TS BOND ANGLE DIHED IMPRP ELECT VDW BOUNDARY MISC KINETIC TOTAL TEMP POTENTIAL TOTALAVG TEMPAVG PRESSURE GPRESSURE VOLUME PRESSAVG GPRESSAVG
ENERGY: 0 1.2992 8.7466 14.0305 0.0000 -10582.8581 1437.8849 0.0000 0.0000 1796.1392 -7324.7576 306.9650 -9120.8968 -7324.7576 306.9650 -153.9260 -86.6451 30438.5025 -153.9260 -86.6451
ENERGY: 300000 2.5761 16.0124 14.0412 0.0000 -10696.7928 1492.4568 0.0000 0.0000 1733.4967 -7438.2097 296.2592 -9171.7064 -7353.8230 304.2578 374.4281 391.1261 29982.8409 -267.9679 -231.1313
ENERGY: 600000 5.2588 12.2327 15.9283 0.0000 -10605.4569 1479.7757 0.0000 0.0000 1792.0361 -7300.2252 306.2637 -9092.2614 -7369.2496 303.6388 657.3272 745.0361 30119.3378 66.9176 125.3860
ENERGY: 900000 5.9538 12.1549 13.8033 0.0000 -10649.3580 1474.9992 0.0000 0.0000 1740.8941 -7401.5528 297.5234 -9142.4469 -7375.5836 302.0955 352.3195 323.2827 29750.8536 49.6201 101.4562
ENERGY: 1200000 6.2267 9.8141 15.2420 0.0000 -10600.9338 1430.0161 0.0000 0.0000 1751.1523 -7388.4826 299.2766 -9139.6349 -7371.7110 302.5735 64.7955 90.8577 29702.5733 -16.8680 34.3886
ENERGY: 1500000 5.0251 6.2352 13.6633 0.0000 -10541.4948 1407.4247 0.0000 0.0000 1725.0728 -7384.0738 294.8195 -9109.1466 -7373.4703 301.7223 -239.9100 -160.8959 30189.7271 -25.9063 25.5777
TCL: Running FEP window   5: Lambda1 0.2    Lambda2 0.25   [dLambda 0.04999999999999999]
TCL: Setting parameter firsttimestep to 0
TCL: Setting parameter alchLambda to 0.2
Info: NONBONDED TABLE R-SQUARED SPACING: 0.0625
Info: NONBONDED TABLE SIZE: 705 POINTS
TCL: Setting parameter alchLambda2 to 0.25
Info: NONBONDED TABLE R-SQUARED SPACING: 0.0625
Info: NONBONDED TABLE SIZE: 705 POINTS
TCL: Running for 1500000 steps
ETITLE: TS BOND ANGLE DIHED IMPRP ELECT VDW BOUNDARY MISC KINETIC TOTAL TEMP POTENTIAL TOTALAVG TEMPAVG PRESSURE GPRESSURE VOLUME PRESSAVG GPRESSAVG
ENERGY: 0 5.0251 6.2352 13.6633 0.0000 -10541.4940 1408.2671 0.0000 0.0000 1724.2301 -7384.0733 294.6755 -9108.3034 -7384.0733 294.6755 -227.4023 -151.0335 30189.7271 -227.4023 -151.0335
ENERGY: 300000 6.5816 11.6714 14.1681 0.0000 -10454.8533 1392.0666 0.0000 0.0000 1768.9968 -7261.3689 302.3263 -9030.3657 -7359.6432 296.1387 -49.9577 72.3146 29816.3753 -12.2446 65.1674
ENERGY: 600000 7.9204 11.4439 15.0228 0.0000 -10535.8930 1420.0868 0.0000 0.0000 1785.4167 -7296.0024 305.1325 -9081.4191 -7353.7461 298.9231 159.9697 231.8440 29576.4728 66.3461 133.2925
ENERGY: 900000 6.9154 11.6024 14.0184 0.0000 -10684.2427 1471.3675 0.0000 0.0000 1746.2371 -7434.1019 298.4366 -9180.3391 -7364.4412 298.9054 -258.8623 -171.1524 30644.3211 25.0817 83.7937
ENERGY: 1200000 6.1593 10.6244 14.0275 0.0000 -10513.1334 1402.1923 0.0000 0.0000 1760.2919 -7319.8381 300.8386 -9080.1299 -7353.5731 299.9582 -355.4115 -286.2136 30416.5778 -47.1488 17.1081
ENERGY: 1500000 5.7634 10.3465 14.0106 0.0000 -10478.7719 1416.9756 0.0000 0.0000 1698.0527 -7333.6231 290.2017 -9031.6758 -7356.6586 298.8140 -272.7534 -108.5220 30282.0823 -19.7359 48.7872
TCL: Running FEP window   6: Lambda1 0.25   Lambda2 0.3    [dLambda 0.04999999999999999]
TCL: Setting parameter firsttimestep to 0
TCL: Setting parameter alchLambda to 0.25
Info: NONBONDED TABLE R-SQUARED SPACING: 0.0625
Info: NONBONDED TABLE SIZE: 705 POINTS
TCL: Setting parameter alchLambda2 to 0.3
Info: NONBONDED TABLE R-SQUARED SPACING: 0.0625
Info: NONBONDED TABLE SIZE: 705 POINTS
TCL: Running for 1500000 steps
ETITLE: TS BOND ANGLE DIHED IMPRP ELECT VDW BOUNDARY MISC KINETIC TOTAL TEMP POTENTIAL TOTALAVG TEMPAVG PRESSURE GPRESSURE VOLUME PRESSAVG GPRESSAVG
ENERGY: 0 5.7634 10.3465 14.0106 0.0000 -10478.7728 1417.0386 0.0000 0.0000 1697.2081 -7334.4056 290.0574 -9031.6137 -7334.4056 290.0574 -183.9092 -101.1443 30282.0823 -183.9092 -101.1443
ENERGY: 300000 2.8334 12.6377 14.5285 0.0000 -10618.8150 1516.8126 0.0000 0.0000 1748.3287 -7323.6742 298.7940 -9072.0029 -7329.0662 298.6557 716.8571 814.7232 30231.1151 103.1265 150.0060
ENERGY: 600000 3.5443 10.5186 13.4163 0.0000 -10586.2108 1365.4328 0.0000 0.0000 1712.3534 -7480.9455 292.6458 -9193.2989 -7350.0251 298.3798 -837.4002 -741.5162 30340.4125 -92.5669 -25.3879
ENERGY: 900000 4.9050 15.9708 13.4806 0.0000 -10682.4563 1541.1548 0.0000 0.0000 1726.1542 -7380.7909 295.0043 -9106.9451 -7356.6164 298.4739 949.8537 1024.3729 29644.5359 -89.2931 -19.5898
ENERGY: 1200000 7.6764 16.0888 13.8372 0.0000 -10554.0986 1369.1576 0.0000 0.0000 1733.2155 -7414.1231 296.2111 -9147.3386 -7347.0457 300.0042 -568.5144 -528.9703 30070.6522 -136.6290 -72.4748
ENERGY: 1500000 3.8988 10.3683 14.7423 0.0000 -10471.9697 1382.4247 0.0000 0.0000 1776.9680 -7283.5677 303.6886 -9060.5357 -7346.9739 299.9264 -289.2598 -224.3776 30617.8329 -85.3473 -20.1482
TCL: Running FEP window   7: Lambda1 0.3    Lambda2 0.35   [dLambda 0.04999999999999999]
TCL: Setting parameter firsttimestep to 0
TCL: Setting parameter alchLambda to 0.3
Info: NONBONDED TABLE R-SQUARED SPACING: 0.0625
Info: NONBONDED TABLE SIZE: 705 POINTS
TCL: Setting parameter alchLambda2 to 0.35
Info: NONBONDED TABLE R-SQUARED SPACING: 0.0625
Info: NONBONDED TABLE SIZE: 705 POINTS
TCL: Running for 1500000 steps
ETITLE: TS BOND ANGLE DIHED IMPRP ELECT VDW BOUNDARY MISC KINETIC TOTAL TEMP POTENTIAL TOTALAVG TEMPAVG PRESSURE GPRESSURE VOLUME PRESSAVG GPRESSAVG
ENERGY: 0 3.8988 10.3683 14.7423 0.0000 -10471.9691 1382.1444 0.0000 0.0000 1776.1162 -7284.6991 303.5430 -9060.8153 -7284.6991 303.5430 -318.0230 -223.9557 30617.8329 -318.0230 -223.9557
ENERGY: 300000 6.8499 10.9925 15.2469 0.0000 -10589.6790 1486.9696 0.0000 0.0000 1728.4757 -7341.1445 295.4011 -9069.6202 -7331.1716 300.1089 554.8523 621.1120 30003.1170 62.4094 128.8527
ENERGY: 600000 2.0052 10.1267 14.2817 0.0000 -10619.4430 1429.3054 0.0000 0.0000 1811.5915 -7352.1325 309.6058 -9163.7240 -7325.5349 302.9128 -196.0577 -118.8508 30254.9179 17.7694 85.0309
ENERGY: 900000 4.3607 9.6524 13.8135 0.0000 -10459.2053 1379.7929 0.0000 0.0000 1792.7580 -7258.8279 306.3871 -9051.5859 -7328.2291 303.0569 -202.1001 -190.0647 30247.3898 -28.5947 34.4399
ENERGY: 1200000 3.2223 10.8718 15.5948 0.0000 -10657.3765 1484.0349 0.0000 0.0000 1763.7032 -7379.9495 301.4216 -9143.6527 -7343.1657 302.8147 528.1073 666.4495 29738.4458 -1.9890 66.6028
ENERGY: 1500000 2.0583 15.3276 13.9461 0.0000 -10638.1766 1486.4988 0.0000 0.0000 1814.4597 -7305.8860 310.0960 -9120.3458 -7358.7650 302.3061 454.5223 464.3406 30163.2159 -0.0893 60.9638
TCL: Running FEP window   8: Lambda1 0.35   Lambda2 0.39999999999999997 [dLambda 0.04999999999999999]
TCL: Setting parameter firsttimestep to 0
TCL: Setting parameter alchLambda to 0.35
Info: NONBONDED TABLE R-SQUARED SPACING: 0.0625
Info: NONBONDED TABLE SIZE: 705 POINTS
TCL: Setting parameter alchLambda2 to 0.39999999999999997
Info: NONBONDED TABLE R-SQUARED SPACING: 0.0625
Info: NONBONDED TABLE SIZE: 705 POINTS
TCL: Running for 1500000 steps
ETITLE: TS BOND ANGLE DIHED IMPRP ELECT VDW BOUNDARY MISC KINETIC TOTAL TEMP POTENTIAL TOTALAVG TEMPAVG PRESSURE GPRESSURE VOLUME PRESSAVG GPRESSAVG
ENERGY: 0 2.0583 15.3276 13.9461 0.0000 -10638.1750 1485.9778 0.0000 0.0000 1813.5785 -7307.2866 309.9454 -9120.8651 -7307.2866 309.9454 397.3108 464.4265 30163.2159 397.3108 464.4265
ENERGY: 300000 3.8539 13.4008 17.5369 0.0000 -10555.0920 1387.9163 0.0000 0.0000 1760.4396 -7371.9445 300.8638 -9132.3840 -7358.6646 303.2439 -756.4427 -644.1783 30298.3547 -198.0393 -134.7691
ENERGY: 600000 6.5403 8.9893 14.8288 0.0000 -10510.2950 1520.1297 0.0000 0.0000 1781.4045 -7178.4022 304.4468 -8959.8068 -7339.3307 303.8699 845.7144 904.5288 30942.3955 34.6591 85.6873
ENERGY: 900000 5.3290 11.7496 16.1128 0.0000 -10555.8275 1381.2436 0.0000 0.0000 1809.5541 -7331.8383 309.2576 -9141.3924 -7340.8006 303.7903 -541.0284 -402.2645 30130.4013 -104.0037 -32.3886
ENERGY: 1200000 7.5484 8.2565 13.4881 0.0000 -10678.6289 1436.8398 0.0000 0.0000 1741.9671 -7470.5290 297.7068 -9212.4961 -7363.8381 302.8074 -301.6746 -215.4053 29794.6321 -35.9992 28.5805
ENERGY: 1500000 6.7428 16.2949 13.0990 0.0000 -10580.5244 1406.9032 0.0000 0.0000 1790.0588 -7347.4259 305.9258 -9137.4846 -7365.5375 302.7295 -62.5673 49.5940 29690.3494 -45.1391 23.1629
TCL: Running FEP window   9: Lambda1 0.39999999999999997 Lambda2 0.44999999999999996 [dLambda 0.04999999999999999]
TCL: Setting parameter firsttimestep to 0
TCL: Setting parameter alchLambda to 0.39999999999999997
Info: NONBONDED TABLE R-SQUARED SPACING: 0.0625
Info: NONBONDED TABLE SIZE: 705 POINTS
TCL: Setting parameter alchLambda2 to 0.44999999999999996
Info: NONBONDED TABLE R-SQUARED SPACING: 0.0625
Info: NONBONDED TABLE SIZE: 705 POINTS
TCL: Running for 1500000 steps
ETITLE: TS BOND ANGLE DIHED IMPRP ELECT VDW BOUNDARY MISC KINETIC TOTAL TEMP POTENTIAL TOTALAVG TEMPAVG PRESSURE GPRESSURE VOLUME PRESSAVG GPRESSAVG
ENERGY: 0 6.7427 16.2949 13.0990 0.0000 -10580.5247 1407.6693 0.0000 0.0000 1789.1845 -7347.5343 305.7764 -9136.7187 -7347.5343 305.7764 -38.9885 59.4909 29690.3494 -38.9885 59.4909
ENERGY: 300000 4.4962 8.9061 14.2962 0.0000 -10511.2612 1412.1801 0.0000 0.0000 1742.5821 -7328.8005 297.8119 -9071.3826 -7340.7357 301.8708 -395.1756 -296.7237 30668.1516 -190.8976 -111.5073
ENERGY: 600000 3.0472 9.0270 13.4530 0.0000 -10735.7762 1505.1085 0.0000 0.0000 1811.5555 -7393.5850 309.5997 -9205.1405 -7360.4408 302.2750 398.3951 443.3334 30104.0356 -122.3706 -53.0434
ENERGY: 900000 6.2128 9.8765 14.5627 0.0000 -10548.0903 1402.5851 0.0000 0.0000 1780.0931 -7334.7600 304.2227 -9114.8532 -7351.8018 301.9848 -307.0348 -254.2487 30074.5270 -283.8152 -216.2497
ENERGY: 1200000 2.1727 11.0500 15.4335 0.0000 -10677.7418 1492.2614 0.0000 0.0000 1765.6253 -7391.1990 301.7501 -9156.8243 -7358.6025 302.2435 466.4455 498.9017 29963.0844 -242.1425 -178.8119
ENERGY: 1500000 3.3146 10.2576 14.2719 0.0000 -10571.1706 1439.9081 0.0000 0.0000 1825.7175 -7277.7010 312.0200 -9103.4185 -7343.6812 303.3166 372.3814 407.0895 29774.9202 -162.9481 -104.9476
TCL: Running FEP window  10: Lambda1 0.44999999999999996 Lambda2 0.49999999999999994 [dLambda 0.04999999999999999]
TCL: Setting parameter firsttimestep to 0
TCL: Setting parameter alchLambda to 0.44999999999999996
Info: NONBONDED TABLE R-SQUARED SPACING: 0.0625
Info: NONBONDED TABLE SIZE: 705 POINTS
TCL: Setting parameter alchLambda2 to 0.49999999999999994
Info: NONBONDED TABLE R-SQUARED SPACING: 0.0625
Info: NONBONDED TABLE SIZE: 705 POINTS
TCL: Running for 1500000 steps
ETITLE: TS BOND ANGLE DIHED IMPRP ELECT VDW BOUNDARY MISC KINETIC TOTAL TEMP POTENTIAL TOTALAVG TEMPAVG PRESSURE GPRESSURE VOLUME PRESSAVG GPRESSAVG
ENERGY: 0 3.3146 10.2576 14.2719 0.0000 -10571.1709 1440.1936 0.0000 0.0000 1824.8721 -7278.2611 311.8755 -9103.1333 -7278.2611 311.8755 327.0099 417.3967 29774.9202 327.0099 417.3967
ENERGY: 300000 4.6714 10.4333 14.9069 0.0000 -10560.8457 1444.8880 0.0000 0.0000 1752.1213 -7333.8248 299.4422 -9085.9460 -7322.3113 304.6822 231.2729 265.0945 30258.9864 151.5509 188.3087
ENERGY: 600000 1.5687 16.9177 16.1698 0.0000 -10567.9072 1492.0565 0.0000 0.0000 1727.6466 -7313.5480 295.2594 -9041.1946 -7337.6293 301.8853 514.5422 640.0061 30184.0400 90.3975 145.3715
ENERGY: 900000 5.7309 9.1731 13.9864 0.0000 -10657.1805 1452.9495 0.0000 0.0000 1713.6878 -7461.6529 292.8738 -9175.3407 -7360.2546 300.5344 -65.5709 -22.3648 30026.2496 -26.0605 20.6901
ENERGY: 1200000 4.5478 8.8859 12.9064 0.0000 -10711.9145 1500.1892 0.0000 0.0000 1784.3573 -7401.0279 304.9514 -9185.3852 -7360.7806 300.8638 805.0020 797.7843 29675.0095 35.0499 86.7832
ENERGY: 1500000 2.4277 10.9795 13.5462 0.0000 -10690.1211 1452.5768 0.0000 0.0000 1740.6685 -7469.9223 297.4849 -9210.5909 -7367.8634 300.0878 -59.5360 33.7311 30112.0351 -14.8834 44.9458
TCL: Running FEP window  11: Lambda1 0.49999999999999994 Lambda2 0.5499999999999999 [dLambda 0.04999999999999999]
TCL: Setting parameter firsttimestep to 0
TCL: Setting parameter alchLambda to 0.49999999999999994
Info: NONBONDED TABLE R-SQUARED SPACING: 0.0625
Info: NONBONDED TABLE SIZE: 705 POINTS
TCL: Setting parameter alchLambda2 to 0.5499999999999999
Info: NONBONDED TABLE R-SQUARED SPACING: 0.0625
Info: NONBONDED TABLE SIZE: 705 POINTS
TCL: Running for 1500000 steps
ETITLE: TS BOND ANGLE DIHED IMPRP ELECT VDW BOUNDARY MISC KINETIC TOTAL TEMP POTENTIAL TOTALAVG TEMPAVG PRESSURE GPRESSURE VOLUME PRESSAVG GPRESSAVG
ENERGY: 0 2.4277 10.9795 13.5461 0.0000 -10690.1203 1452.8887 0.0000 0.0000 1739.7769 -7470.5014 297.3325 -9210.2783 -7470.5014 297.3325 -44.1609 45.7346 30112.0351 -44.1609 45.7346
ENERGY: 300000 3.6319 11.7704 14.5114 0.0000 -10512.0127 1384.5813 0.0000 0.0000 1767.0404 -7330.4773 301.9919 -9097.5177 -7357.8445 301.4259 -346.1981 -330.7176 30583.9400 -30.4385 33.8679
ENERGY: 600000 6.1066 8.6033 14.3636 0.0000 -10637.8267 1470.2308 0.0000 0.0000 1795.3453 -7343.1771 306.8293 -9138.5223 -7363.0517 301.6821 100.9717 257.7195 30059.9025 -98.1447 -31.9497
ENERGY: 900000 4.9842 5.3097 14.6852 0.0000 -10516.3200 1402.6575 0.0000 0.0000 1757.4954 -7331.1880 300.3606 -9088.6834 -7362.8460 301.2910 -200.0516 -189.2844 30424.9732 -66.0889 -3.6542
ENERGY: 1200000 3.4019 11.6179 13.7724 0.0000 -10676.6678 1431.0683 0.0000 0.0000 1707.5667 -7509.2407 291.8277 -9216.8074 -7367.8910 301.1628 -263.9110 -168.2696 29667.7775 -1.4417 64.9917
ENERGY: 1500000 6.3372 8.4712 13.8877 0.0000 -10795.9340 1533.2805 0.0000 0.0000 1739.5899 -7494.3674 297.3005 -9233.9573 -7371.4854 301.3900 514.5072 555.5779 29949.0964 100.8149 165.5818
TCL: Running FEP window  12: Lambda1 0.5499999999999999 Lambda2 0.6    [dLambda 0.050000000000000044]
TCL: Setting parameter firsttimestep to 0
TCL: Setting parameter alchLambda to 0.5499999999999999
Info: NONBONDED TABLE R-SQUARED SPACING: 0.0625
Info: NONBONDED TABLE SIZE: 705 POINTS
TCL: Setting parameter alchLambda2 to 0.6
Info: NONBONDED TABLE R-SQUARED SPACING: 0.0625
Info: NONBONDED TABLE SIZE: 705 POINTS
TCL: Running for 1500000 steps
ETITLE: TS BOND ANGLE DIHED IMPRP ELECT VDW BOUNDARY MISC KINETIC TOTAL TEMP POTENTIAL TOTALAVG TEMPAVG PRESSURE GPRESSURE VOLUME PRESSAVG GPRESSAVG
ENERGY: 0 6.3372 8.4712 13.8877 0.0000 -10796.3846 1533.6504 0.0000 0.0000 1738.6866 -7495.3513 297.1462 -9234.0379 -7495.3513 297.1462 491.5112 565.6265 29949.0964 491.5112 565.6265
ENERGY: 300000 4.0992 9.3947 14.0509 0.0000 -10528.7195 1466.5201 0.0000 0.0000 1781.2563 -7253.3983 304.4214 -9034.6546 -7390.7031 300.6259 852.4988 846.2240 29641.7656 367.7697 413.3442
ENERGY: 600000 5.2582 9.7523 14.3408 0.0000 -10629.7955 1516.1404 0.0000 0.0000 1751.7836 -7332.5201 299.3845 -9084.3037 -7347.2094 300.9988 890.6414 898.9691 30088.7574 192.7316 227.5346
ENERGY: 900000 4.3062 11.4781 14.0340 0.0000 -10697.6574 1535.5922 0.0000 0.0000 1783.9077 -7348.3392 304.8746 -9132.2470 -7355.0979 301.2423 920.2585 909.1535 30212.9774 212.7732 241.6729
ENERGY: 1200000 2.8388 11.6639 13.9998 0.0000 -10557.5358 1405.0334 0.0000 0.0000 1780.6828 -7343.3170 304.3234 -9123.9998 -7363.4874 300.1961 -176.2336 -185.6761 30469.0552 143.4193 177.7139
ENERGY: 1500000 2.5023 6.9099 14.9031 0.0000 -10672.7160 1536.9579 0.0000 0.0000 1769.4761 -7341.9666 302.4082 -9111.4427 -7365.0804 299.2450 963.9161 1007.4109 30092.7373 204.9339 245.1619
TCL: Running FEP window  13: Lambda1 0.6    Lambda2 0.65   [dLambda 0.050000000000000044]
TCL: Setting parameter firsttimestep to 0
TCL: Setting parameter alchLambda to 0.6
Info: NONBONDED TABLE R-SQUARED SPACING: 0.0625
Info: NONBONDED TABLE SIZE: 705 POINTS
TCL: Setting parameter alchLambda2 to 0.65
Info: NONBONDED TABLE R-SQUARED SPACING: 0.0625
Info: NONBONDED TABLE SIZE: 705 POINTS
TCL: Running for 1500000 steps
ETITLE: TS BOND ANGLE DIHED IMPRP ELECT VDW BOUNDARY MISC KINETIC TOTAL TEMP POTENTIAL TOTALAVG TEMPAVG PRESSURE GPRESSURE VOLUME PRESSAVG GPRESSAVG
ENERGY: 0 2.5023 6.9099 14.9031 0.0000 -10673.0984 1537.4120 0.0000 0.0000 1768.6101 -7342.7608 302.2602 -9111.3710 -7342.7608 302.2602 936.3964 1022.3964 30092.7373 936.3964 1022.3964
ENERGY: 300000 4.1045 7.9365 14.1653 0.0000 -10656.8879 1510.4341 0.0000 0.0000 1758.8412 -7361.4064 300.5906 -9120.2476 -7300.4432 300.7589 556.7321 580.6124 30246.3820 301.2972 351.8344
ENERGY: 600000 4.4718 11.5788 14.9070 0.0000 -10636.0495 1491.6797 0.0000 0.0000 1789.6238 -7323.7885 305.8515 -9113.4123 -7319.7764 300.6763 553.4429 699.7835 29869.3809 219.9182 295.0655
ENERGY: 900000 7.0548 11.7222 14.1603 0.0000 -10650.4064 1465.0782 0.0000 0.0000 1747.1183 -7405.2727 298.5872 -9152.3910 -7332.9362 300.7919 320.9242 375.9073 30149.5889 241.8111 318.6977
ENERGY: 1200000 2.9407 10.1609 14.8689 0.0000 -10601.7119 1428.4336 0.0000 0.0000 1795.0537 -7350.2541 306.7795 -9145.3078 -7338.2347 301.6347 -25.8003 45.7771 30185.8481 159.0289 231.6728
ENERGY: 1500000 6.6187 11.3025 14.2298 0.0000 -10568.5059 1402.3201 0.0000 0.0000 1735.3243 -7398.7105 296.5715 -9134.0348 -7344.2862 301.1554 -682.8751 -559.4312 30539.2544 86.1556 154.0164
TCL: Running FEP window  14: Lambda1 0.65   Lambda2 0.7000000000000001 [dLambda 0.050000000000000044]
TCL: Setting parameter firsttimestep to 0
TCL: Setting parameter alchLambda to 0.65
Info: NONBONDED TABLE R-SQUARED SPACING: 0.0625
Info: NONBONDED TABLE SIZE: 705 POINTS
TCL: Setting parameter alchLambda2 to 0.7000000000000001
Info: NONBONDED TABLE R-SQUARED SPACING: 0.0625
Info: NONBONDED TABLE SIZE: 705 POINTS
TCL: Running for 1500000 steps
ETITLE: TS BOND ANGLE DIHED IMPRP ELECT VDW BOUNDARY MISC KINETIC TOTAL TEMP POTENTIAL TOTALAVG TEMPAVG PRESSURE GPRESSURE VOLUME PRESSAVG GPRESSAVG
ENERGY: 0 6.6187 11.3025 14.2298 0.0000 -10568.9467 1402.2900 0.0000 0.0000 1734.4120 -7400.0937 296.4156 -9134.5057 -7400.0937 296.4156 -641.6535 -552.6816 30539.2544 -641.6535 -552.6816
ENERGY: 300000 1.5054 12.3668 14.4034 0.0000 -10673.6757 1507.2520 0.0000 0.0000 1784.8784 -7353.2697 305.0405 -9138.1482 -7381.0566 299.3921 918.1290 931.5668 29593.3938 147.8150 191.0373
ENERGY: 600000 4.4277 10.7573 14.7247 0.0000 -10615.4855 1488.7983 0.0000 0.0000 1787.6953 -7309.0820 305.5219 -9096.7774 -7350.2109 301.4053 289.4775 381.5064 30332.4862 41.9538 105.7655
ENERGY: 900000 5.9432 10.1511 13.7652 0.0000 -10600.2349 1490.7796 0.0000 0.0000 1763.3228 -7316.2730 301.3566 -9079.5958 -7362.0288 300.6237 726.6591 739.5415 30231.0087 44.9616 104.7021
ENERGY: 1200000 4.7081 17.5875 14.8805 0.0000 -10456.8416 1362.6170 0.0000 0.0000 1761.9592 -7295.0892 301.1235 -9057.0484 -7349.4160 300.9697 -407.6150 -391.8832 30556.4657 84.5010 133.2916
ENERGY: 1500000 6.4523 13.4769 13.0997 0.0000 -10567.8035 1429.5745 0.0000 0.0000 1801.6289 -7303.5712 307.9032 -9105.2001 -7359.2980 301.5608 2.5898 105.2866 30263.2283 79.0982 129.1103
TCL: Running FEP window  15: Lambda1 0.7000000000000001 Lambda2 0.7500000000000001 [dLambda 0.050000000000000044]
TCL: Setting parameter firsttimestep to 0
TCL: Setting parameter alchLambda to 0.7000000000000001
Info: NONBONDED TABLE R-SQUARED SPACING: 0.0625
Info: NONBONDED TABLE SIZE: 705 POINTS
TCL: Setting parameter alchLambda2 to 0.7500000000000001
Info: NONBONDED TABLE R-SQUARED SPACING: 0.0625
Info: NONBONDED TABLE SIZE: 705 POINTS
TCL: Running for 1500000 steps
ETITLE: TS BOND ANGLE DIHED IMPRP ELECT VDW BOUNDARY MISC KINETIC TOTAL TEMP POTENTIAL TOTALAVG TEMPAVG PRESSURE GPRESSURE VOLUME PRESSAVG GPRESSAVG
ENERGY: 0 6.4523 13.4769 13.0997 0.0000 -10568.1391 1429.1206 0.0000 0.0000 1800.7429 -7305.2468 307.7518 -9105.9897 -7305.2468 307.7518 18.3721 109.0512 30263.2283 18.3721 109.0512
ENERGY: 300000 1.0841 10.1550 15.9124 0.0000 -10541.1077 1484.1169 0.0000 0.0000 1702.6733 -7327.1660 290.9914 -9029.8394 -7316.6176 300.6379 633.0317 723.0980 30243.3821 278.4953 357.4379
ENERGY: 600000 2.6402 14.3305 15.4783 0.0000 -10493.3908 1391.2303 0.0000 0.0000 1773.0426 -7296.6689 303.0177 -9069.7115 -7312.4916 302.0183 -333.2471 -266.0409 30788.8850 117.6414 184.8928
ENERGY: 900000 5.1084 11.1980 13.7791 0.0000 -10575.0492 1454.4496 0.0000 0.0000 1694.9872 -7395.5270 289.6778 -9090.5141 -7322.5571 300.6440 92.1498 181.2296 30300.9322 39.0253 110.1437
ENERGY: 1200000 6.4321 12.5204 14.6209 0.0000 -10649.9553 1488.9808 0.0000 0.0000 1692.7775 -7434.6234 289.3002 -9127.4010 -7340.8357 299.5462 389.3707 448.2576 30049.3684 24.6476 93.7826
ENERGY: 1500000 3.1758 16.0722 13.5096 0.0000 -10482.5884 1390.2464 0.0000 0.0000 1762.8300 -7296.7543 301.2723 -9059.5843 -7332.0245 299.5520 6.2454 -12.4986 30307.2691 -66.8428 -0.8863
TCL: Running FEP window  16: Lambda1 0.7500000000000001 Lambda2 0.8000000000000002 [dLambda 0.050000000000000044]
TCL: Setting parameter firsttimestep to 0
TCL: Setting parameter alchLambda to 0.7500000000000001
Info: NONBONDED TABLE R-SQUARED SPACING: 0.0625
Info: NONBONDED TABLE SIZE: 705 POINTS
TCL: Setting parameter alchLambda2 to 0.8000000000000002
Info: NONBONDED TABLE R-SQUARED SPACING: 0.0625
Info: NONBONDED TABLE SIZE: 705 POINTS
TCL: Running for 1500000 steps
ETITLE: TS BOND ANGLE DIHED IMPRP ELECT VDW BOUNDARY MISC KINETIC TOTAL TEMP POTENTIAL TOTALAVG TEMPAVG PRESSURE GPRESSURE VOLUME PRESSAVG GPRESSAVG
ENERGY: 0 3.1758 16.0722 13.5096 0.0000 -10483.4933 1391.1824 0.0000 0.0000 1761.9374 -7297.6159 301.1198 -9059.5533 -7297.6159 301.1198 -84.4351 4.6226 30307.2691 -84.4351 4.6226
ENERGY: 300000 8.2931 16.1445 15.3757 0.0000 -10695.6964 1464.1705 0.0000 0.0000 1760.1879 -7431.5248 300.8208 -9191.7127 -7348.7288 298.9941 -176.3018 -108.9255 30398.6584 49.7372 135.7555
ENERGY: 600000 2.0916 17.0264 14.2297 0.0000 -10667.3958 1466.2379 0.0000 0.0000 1796.3710 -7371.4392 307.0046 -9167.8102 -7344.0135 300.9219 212.8666 284.2831 30184.9536 128.4600 200.3666
ENERGY: 900000 3.9969 13.8669 14.7662 0.0000 -10374.4951 1295.7938 0.0000 0.0000 1756.5863 -7289.4849 300.2053 -9046.0713 -7338.3091 300.6481 -973.6356 -894.3140 30507.0173 6.9490 80.1244
ENERGY: 1200000 4.6376 9.8628 15.5543 0.0000 -10523.1828 1393.2450 0.0000 0.0000 1779.3514 -7320.5316 304.0959 -9099.8830 -7337.0447 301.3295 -513.2076 -430.8866 30970.9903 -60.2294 10.5941
ENERGY: 1500000 3.6494 12.0889 14.0732 0.0000 -10667.6394 1472.2065 0.0000 0.0000 1854.5343 -7311.0871 316.9449 -9165.6214 -7333.6901 302.3798 160.7704 232.5648 30226.9889 -13.8905 54.9767
TCL: Running FEP window  17: Lambda1 0.8000000000000002 Lambda2 0.8500000000000002 [dLambda 0.050000000000000044]
TCL: Setting parameter firsttimestep to 0
TCL: Setting parameter alchLambda to 0.8000000000000002
Info: NONBONDED TABLE R-SQUARED SPACING: 0.0625
Info: NONBONDED TABLE SIZE: 705 POINTS
TCL: Setting parameter alchLambda2 to 0.8500000000000002
Info: NONBONDED TABLE R-SQUARED SPACING: 0.0625
Info: NONBONDED TABLE SIZE: 705 POINTS
TCL: Running for 1500000 steps
ETITLE: TS BOND ANGLE DIHED IMPRP ELECT VDW BOUNDARY MISC KINETIC TOTAL TEMP POTENTIAL TOTALAVG TEMPAVG PRESSURE GPRESSURE VOLUME PRESSAVG GPRESSAVG
ENERGY: 0 3.6494 12.0889 14.0732 0.0000 -10668.1522 1471.5636 0.0000 0.0000 1853.6856 -7313.0915 316.7998 -9166.7771 -7313.0915 316.7998 155.0796 234.1273 30226.9889 155.0796 234.1273
ENERGY: 300000 2.6921 9.2004 15.1452 0.0000 -10523.0440 1384.3281 0.0000 0.0000 1765.6700 -7346.0082 301.7577 -9111.6782 -7366.5359 306.1868 -250.4915 -271.8731 30447.9341 40.6533 109.4841
ENERGY: 600000 8.3644 11.5810 14.5103 0.0000 -10603.8683 1402.0205 0.0000 0.0000 1796.6388 -7370.7532 307.0503 -9167.3920 -7352.9668 304.6821 -261.5514 -167.3172 30033.7309 -39.7922 26.2414
ENERGY: 900000 5.2428 8.1626 13.5310 0.0000 -10622.9033 1461.8144 0.0000 0.0000 1736.4478 -7397.7047 296.7636 -9134.1526 -7364.1825 302.1553 12.7321 99.1090 30353.7588 -83.6798 -25.9991
ENERGY: 1200000 3.6105 9.1041 15.2825 0.0000 -10522.8095 1394.1765 0.0000 0.0000 1729.9181 -7370.7178 295.6476 -9100.6360 -7369.3598 300.3418 -102.1410 -12.6566 29848.3954 -81.6921 -20.5775
ENERGY: 1500000 6.5147 10.3974 13.3503 0.0000 -10643.9581 1480.6306 0.0000 0.0000 1773.8071 -7359.2582 303.1484 -9133.0652 -7359.5234 301.3815 28.5628 180.3834 30331.3523 -63.9543 -0.8144
TCL: Running FEP window  18: Lambda1 0.8500000000000002 Lambda2 0.9000000000000002 [dLambda 0.050000000000000044]
TCL: Setting parameter firsttimestep to 0
TCL: Setting parameter alchLambda to 0.8500000000000002
Info: NONBONDED TABLE R-SQUARED SPACING: 0.0625
Info: NONBONDED TABLE SIZE: 705 POINTS
TCL: Setting parameter alchLambda2 to 0.9000000000000002
Info: NONBONDED TABLE R-SQUARED SPACING: 0.0625
Info: NONBONDED TABLE SIZE: 705 POINTS
TCL: Running for 1500000 steps
ETITLE: TS BOND ANGLE DIHED IMPRP ELECT VDW BOUNDARY MISC KINETIC TOTAL TEMP POTENTIAL TOTALAVG TEMPAVG PRESSURE GPRESSURE VOLUME PRESSAVG GPRESSAVG
ENERGY: 0 6.5147 10.3974 13.3503 0.0000 -10644.8195 1480.4870 0.0000 0.0000 1772.9041 -7361.1661 302.9940 -9134.0702 -7361.1661 302.9940 107.7111 190.4169 30331.3523 107.7111 190.4169
ENERGY: 300000 6.1213 8.8764 13.6547 0.0000 -10616.4666 1442.9776 0.0000 0.0000 1791.3657 -7353.4709 306.1492 -9144.8366 -7379.1561 298.5656 42.1218 34.5672 30235.9340 -191.3613 -125.1997
ENERGY: 600000 6.0838 9.3798 14.2858 0.0000 -10568.5573 1441.3111 0.0000 0.0000 1762.5235 -7334.9733 301.2200 -9097.4968 -7361.4490 300.5826 109.5701 142.8667 30241.0009 -53.4819 16.2095
ENERGY: 900000 3.8112 12.6252 14.5047 0.0000 -10693.5164 1491.6339 0.0000 0.0000 1694.0331 -7476.9082 289.5148 -9170.9413 -7390.8925 299.6312 785.4734 855.2799 29569.1845 57.8197 131.8881
ENERGY: 1200000 3.0837 9.0770 14.8582 0.0000 -10522.2466 1361.0854 0.0000 0.0000 1747.4220 -7386.7202 298.6391 -9134.1423 -7370.2338 299.8120 -457.6060 -433.3574 30096.7211 47.4626 126.4558
ENERGY: 1500000 3.3153 12.8465 13.5940 0.0000 -10547.4287 1365.3039 0.0000 0.0000 1782.6815 -7369.6875 304.6650 -9152.3690 -7378.5804 299.7390 -476.5595 -419.0754 30032.7477 -21.0648 51.4831
TCL: Running FEP window  19: Lambda1 0.9000000000000002 Lambda2 0.9500000000000003 [dLambda 0.050000000000000044]
TCL: Setting parameter firsttimestep to 0
TCL: Setting parameter alchLambda to 0.9000000000000002
Info: NONBONDED TABLE R-SQUARED SPACING: 0.0625
Info: NONBONDED TABLE SIZE: 705 POINTS
TCL: Setting parameter alchLambda2 to 0.9500000000000003
Info: NONBONDED TABLE R-SQUARED SPACING: 0.0625
Info: NONBONDED TABLE SIZE: 705 POINTS
TCL: Running for 1500000 steps
ETITLE: TS BOND ANGLE DIHED IMPRP ELECT VDW BOUNDARY MISC KINETIC TOTAL TEMP POTENTIAL TOTALAVG TEMPAVG PRESSURE GPRESSURE VOLUME PRESSAVG GPRESSAVG
ENERGY: 0 3.3153 12.8465 13.5940 0.0000 -10548.6059 1366.3124 0.0000 0.0000 1781.7896 -7370.7480 304.5126 -9152.5376 -7370.7480 304.5126 -483.0153 -395.8362 30032.7477 -483.0153 -395.8362
ENERGY: 300000 9.8524 5.0660 14.6781 0.0000 -10463.2354 1331.0629 0.0000 0.0000 1776.6404 -7325.9358 303.6326 -9102.5761 -7364.6396 302.1053 -902.2573 -840.5977 30492.3571 -265.1341 -202.6943
ENERGY: 600000 7.3959 11.5075 14.2232 0.0000 -10544.3887 1371.3730 0.0000 0.0000 1799.2848 -7340.6045 307.5026 -9139.8892 -7362.0406 302.3488 -613.6879 -554.5983 30341.7128 -152.4906 -90.3752
ENERGY: 900000 7.7231 14.6362 14.8749 0.0000 -10540.2069 1437.0042 0.0000 0.0000 1733.0233 -7332.9451 296.1783 -9065.9685 -7352.3105 302.1729 83.3093 191.6331 30360.3429 -17.2091 42.0111
ENERGY: 1200000 8.6527 14.3174 14.2108 0.0000 -10497.8935 1362.0603 0.0000 0.0000 1682.3037 -7416.3486 287.5102 -9098.6523 -7361.5654 300.5425 -461.9450 -426.7809 30359.3483 -135.7945 -75.8415
ENERGY: 1500000 2.2524 11.4887 15.1960 0.0000 -10691.5139 1477.8373 0.0000 0.0000 1737.1871 -7447.5523 296.8899 -9184.7394 -7358.2418 300.7845 307.4833 387.3883 29918.5337 -110.2623 -53.3272
TCL: Running FEP window  20: Lambda1 0.9500000000000003 Lambda2 1.0    [dLambda 0.04999999999999971]
TCL: Setting parameter firsttimestep to 0
TCL: Setting parameter alchLambda to 0.9500000000000003
Info: NONBONDED TABLE R-SQUARED SPACING: 0.0625
Info: NONBONDED TABLE SIZE: 705 POINTS
TCL: Setting parameter alchLambda2 to 1.0
Info: NONBONDED TABLE R-SQUARED SPACING: 0.0625
Info: NONBONDED TABLE SIZE: 705 POINTS
TCL: Running for 1500000 steps
ETITLE: TS BOND ANGLE DIHED IMPRP ELECT VDW BOUNDARY MISC KINETIC TOTAL TEMP POTENTIAL TOTALAVG TEMPAVG PRESSURE GPRESSURE VOLUME PRESSAVG GPRESSAVG
ENERGY: 0 2.2524 11.4887 15.1960 0.0000 -10692.3057 1478.0227 0.0000 0.0000 1736.2939 -7449.0520 296.7372 -9185.3458 -7449.0520 296.7372 327.3557 402.2131 29918.5337 327.3557 402.2131
ENERGY: 300000 5.0822 15.2354 13.9144 0.0000 -10710.1346 1486.6867 0.0000 0.0000 1752.6926 -7436.5234 299.5398 -9189.2159 -7400.4592 300.0233 141.4027 86.6761 30464.0777 -205.3222 -161.4623
ENERGY: 600000 5.8099 12.7462 14.4490 0.0000 -10656.0250 1478.6350 0.0000 0.0000 1770.6536 -7373.7314 302.6094 -9144.3850 -7375.2403 300.9117 341.2688 430.6621 30110.6424 -107.2831 -46.2314
ENERGY: 900000 3.5108 7.8930 14.3887 0.0000 -10654.2172 1428.5449 0.0000 0.0000 1789.9463 -7409.9335 305.9066 -9199.8798 -7386.4527 301.2927 53.7084 118.4378 29604.2409 -39.3854 24.9781
ENERGY: 1200000 6.5500 6.6046 13.8530 0.0000 -10595.5502 1425.7770 0.0000 0.0000 1741.6938 -7401.0718 297.6601 -9142.7656 -7389.3919 300.3154 84.7228 189.5844 29824.9721 -36.5258 27.2819
ENERGY: 1500000 3.6592 8.4047 13.7483 0.0000 -10557.6366 1461.4924 0.0000 0.0000 1777.7059 -7292.6259 303.8147 -9070.3318 -7377.9626 301.4039 582.2161 614.5075 30386.5131 -24.4869 35.3853
TCL: Exiting due to exit command.
