Info: SIMULATION PARAMETERS:
Info: TIMESTEP               2
Info: NUMBER OF STEPS        0
Info: STEPS PER CYCLE        10
Info: PERIODIC CELL BASIS 1  31.8378 0 0
Info: PERIODIC CELL BASIS 2  0 31.3973 0
Info: PERIODIC CELL BASIS 3  0 0 30.4329
Info: PERIODIC CELL CENTER   0 0 0
Info: WRAPPING WATERS AROUND PERIODIC BOUNDARIES ON OUTPUT.
Info: WRAPPING ALL CLUSTERS AROUND PERIODIC BOUNDARIES ON OUTPUT.
Info: FIRST LDB TIMESTEP     50
Info: LAST LDB TIMESTEP     -1
Info: HOM BACKGROUND SCALING 1
Info: PME BACKGROUND SCALING 1
Info: MIN ATOMS PER PATCH    40
Info: EMPTY PATCH LOAD       40 ATOMS
Info: VELOCITY FILE          mobley_430089_equil.vel
Info: CENTER OF MASS MOVING INITIALLY? NO
Info: DIELECTRIC             1
Info: EXCLUDE                SCALED ONE-FOUR
Info: 1-4 ELECTROSTATICS SCALED BY 0.833333
Info: MODIFIED 1-4 VDW PARAMETERS WILL BE USED
Info: DCD FILENAME           mobley_430089_prod.dcd
Info: DCD FREQUENCY          100000
Info: DCD FIRST STEP         100000
Info: DCD FILE WILL CONTAIN UNIT CELL DATA
Info: XST FILENAME           mobley_430089_prod.xst
Info: XST FREQUENCY          100000
Info: NO VELOCITY DCD OUTPUT
Info: NO FORCE DCD OUTPUT
Info: OUTPUT FILENAME        mobley_430089_prod
Info: BINARY OUTPUT FILES WILL BE USED
Info: RESTART FILENAME       mobley_430089_prod.restart
Info: RESTART FREQUENCY      100000
Info: BINARY RESTART FILES WILL BE USED
Info: CUTOFF                 9
Info: PAIRLIST DISTANCE      11
Info: PAIRLIST SHRINK RATE   0.01
Info: PAIRLIST GROW RATE     0.01
Info: PAIRLIST TRIGGER       0.3
Info: PAIRLISTS PER CYCLE    2
Info: PAIRLISTS ENABLED
Info: MARGIN                 2
Info: HYDROGEN GROUP CUTOFF  2.5
Info: PATCH DIMENSION        15.5
Info: ENERGY OUTPUT STEPS    100000
Info: ENERGY EVALUATION STEPS    100000
Info: OUTPUT ENERGY PRECISION 4
Info: CROSSTERM ENERGY INCLUDED IN DIHEDRAL
Info: TIMING OUTPUT STEPS    1000000
Info: PRESSURE OUTPUT STEPS  100000
Info: ALCHEMICAL FEP ON
Info: FEP CURRENT LAMBDA VALUE     1
Info: FEP COMPARISON LAMBDA VALUE  0.95
Info: FEP INTRA-ALCHEMICAL NON-BONDED INTERACTIONS WILL BE RETAINED
Info: FEP INTRA-ALCHEMICAL BONDED INTERACTIONS WILL BE RETAINED
Info: FEP VDW SHIFTING COEFFICIENT 5
Info: FEP ELEC. ACTIVE FOR ANNIHILATED PARTICLES BETWEEN LAMBDA = 0 AND LAMBDA = 0.5
Info: FEP ELEC. ACTIVE FOR EXNIHILATED PARTICLES BETWEEN LAMBDA = 0.5 AND LAMBDA = 1
Info: FEP VDW ACTIVE FOR ANNIHILATED PARTICLES BETWEEN LAMBDA = 0 AND LAMBDA = 1
Info: FEP VDW ACTIVE FOR EXNIHILATED PARTICLES BETWEEN LAMBDA = 0 AND LAMBDA = 1
Info: FEP BOND ACTIVE FOR ANNIHILATED PARTICLES BETWEEN LAMBDA = 1 AND LAMBDA = 1
Info: FEP BOND ACTIVE FOR EXNIHILATED PARTICLES BETWEEN LAMBDA = 0 AND LAMBDA = 0
Info: LANGEVIN DYNAMICS ACTIVE
Info: LANGEVIN TEMPERATURE   300
Info: LANGEVIN USING BBK INTEGRATOR
Info: LANGEVIN DAMPING COEFFICIENT IS 1 INVERSE PS
Info: LANGEVIN DYNAMICS APPLIED TO HYDROGENS
Info: LANGEVIN PISTON PRESSURE CONTROL ACTIVE
Info:        TARGET PRESSURE IS 1.01325 BAR
Info:     OSCILLATION PERIOD IS 50 FS
Info:             DECAY TIME IS 25 FS
Info:     PISTON TEMPERATURE IS 300 K
Info:       PRESSURE CONTROL IS GROUP-BASED
Info:    INITIAL STRAIN RATE IS -0.000111458 -0.000111458 -0.000111458
Info:       CELL FLUCTUATION IS ISOTROPIC
Info: PARTICLE MESH EWALD (PME) ACTIVE
Info: PME TOLERANCE               1e-06
Info: PME EWALD COEFFICIENT       0.348832
Info: PME INTERPOLATION ORDER     4
Info: PME GRID DIMENSIONS         32 32 32
Info: PME MAXIMUM GRID SPACING    1
Info: PME CALCULATION WILL BE PERFORMED ON GPU
Info: FULL ELECTROSTATIC EVALUATION FREQUENCY      2
Info: USING VERLET I (r-RESPA) MTS SCHEME.
Info: C1 SPLITTING OF LONG RANGE ELECTROSTATICS
Info: PLACING ATOMS IN PATCHES BY HYDROGEN GROUPS
Info: RIGID BONDS TO HYDROGEN : ALL
Info:         ERROR TOLERANCE : 1e-08
Info:          MAX ITERATIONS : 100
Info: RIGID WATER USING SETTLE ALGORITHM
Info: RANDOM NUMBER SEED     1743730977
Info: USE HYDROGEN BONDS?    NO
Info: Using AMBER format force field!
Info: AMBER PARM FILE        mobley_430089.prmtop
Info: COORDINATE PDB         mobley_430089.pdb
Info: Exclusions will be read from PARM file!
Info: SCNB (VDW SCALING)     2
Info: USING ARITHMETIC MEAN TO COMBINE L-J SIGMA PARAMETERS
Info: BINARY COORDINATES     mobley_430089_equil.coor
Info: SUMMARY OF PARAMETERS:
Info: 7 BONDS
Info: 7 ANGLES
Info:   7 HARMONIC
Info:   0 COSINE-BASED
Info: 4 DIHEDRAL
Info: 0 IMPROPER
Info: 0 CROSSTERM
Info: 0 VDW
Info: 21 VDW_PAIRS
Info: 0 NBTHOLE_PAIRS
Info: To read alchdata from file: mobley_430089.pdb
Info: To read alchflag data from column: 5
Info: STRUCTURE SUMMARY:
Info: 2944 ATOMS
Info: 2943 BONDS
Info: 20 ANGLES
Info: 22 DIHEDRALS
Info: 0 IMPROPERS
Info: 0 CROSSTERMS
Info: 2985 EXCLUSIONS
Info: 2939 RIGID BONDS
Info: ALCH: 0 ATOMS TO DISAPPEAR IN FINAL STATE
Info: ALCH: 13 ATOMS TO APPEAR IN FINAL STATE
Info: 5893 DEGREES OF FREEDOM
Info: 982 HYDROGEN GROUPS
Info: 4 ATOMS IN LARGEST HYDROGEN GROUP
Info: 982 MIGRATION GROUPS
Info: 4 ATOMS IN LARGEST MIGRATION GROUP
Info: TOTAL MASS = 17669.7 amu
Info: TOTAL CHARGE = 9.99928e-05 e
Info: MASS DENSITY = 0.964519 g/cm^3
Info: ATOM DENSITY = 0.096774 atoms/A^3
Info: ADDED 0 IMPLICIT EXCLUSIONS
Info: NONBONDED TABLE R-SQUARED SPACING: 0.0625
Info: NONBONDED TABLE SIZE: 705 POINTS
Info: REDUCING NUMBER OF PATCHES TO IMPROVE LOAD BALANCE
Info: REMOVING COM VELOCITY -0.144308 0.0312406 -0.0236093
Info: Use 3D box decompostion in PME FFT.
Info: Updated CUDA force table with 4096 elements.
Info: Updated CUDA LJ table with 6 x 6 elements.
Info: Found 16 unique exclusion lists needing 32 bytes
TCL: Running for 1500000 steps
ETITLE: TS BOND ANGLE DIHED IMPRP ELECT VDW BOUNDARY MISC KINETIC TOTAL TEMP POTENTIAL TOTALAVG TEMPAVG PRESSURE GPRESSURE VOLUME PRESSAVG GPRESSAVG
ENERGY: 0 1.8057 4.7669 0.6067 0.0000 -10766.6740 1522.8581 0.0000 0.0000 1743.1139 -7493.5227 297.7006 -9236.6366 -7493.5227 297.7006 542.6375 619.5663 30421.3836 542.6375 619.5663
ENERGY: 300000 1.5723 3.0023 0.0499 0.0000 -10493.0640 1286.1967 0.0000 0.0000 1745.3192 -7456.9235 298.0772 -9202.2427 -7465.9932 298.2916 -1090.6752 -1039.5658 30450.9058 -258.1282 -176.1610
ENERGY: 600000 1.2789 6.7367 0.8560 0.0000 -10727.6122 1486.4470 0.0000 0.0000 1781.8409 -7450.4527 304.3146 -9232.2936 -7465.6380 300.5079 471.5397 464.0254 30288.4969 -183.3855 -118.6193
ENERGY: 900000 4.1102 7.1411 0.3814 0.0000 -10530.7569 1317.1979 0.0000 0.0000 1747.7249 -7454.2014 298.4881 -9201.9263 -7451.8143 301.7096 -1039.9378 -984.3574 30498.0340 -290.3179 -228.9335
ENERGY: 1200000 1.6941 8.6012 0.1405 0.0000 -10822.1103 1512.0032 0.0000 0.0000 1756.9534 -7542.7180 300.0642 -9299.6714 -7459.4065 302.3316 454.9790 530.7444 30252.3263 -249.2650 -183.8030
ENERGY: 1500000 0.2716 5.3554 0.3178 0.0000 -10563.4454 1404.5658 0.0000 0.0000 1734.3905 -7418.5444 296.2108 -9152.9349 -7459.6223 301.0540 -94.9787 -72.0991 30685.9064 -235.2736 -169.8684
TCL: Running FEP window   2: Lambda1 0.95   Lambda2 0.8999999999999999 [dLambda -0.050000000000000044]
TCL: Setting parameter firsttimestep to 0
TCL: Setting parameter alchLambda to 0.95
Info: NONBONDED TABLE R-SQUARED SPACING: 0.0625
Info: NONBONDED TABLE SIZE: 705 POINTS
TCL: Setting parameter alchLambda2 to 0.8999999999999999
Info: NONBONDED TABLE R-SQUARED SPACING: 0.0625
Info: NONBONDED TABLE SIZE: 705 POINTS
TCL: Running for 1500000 steps
ETITLE: TS BOND ANGLE DIHED IMPRP ELECT VDW BOUNDARY MISC KINETIC TOTAL TEMP POTENTIAL TOTALAVG TEMPAVG PRESSURE GPRESSURE VOLUME PRESSAVG GPRESSAVG
ENERGY: 0 0.2716 5.3554 0.3178 0.0000 -10563.4852 1404.5878 0.0000 0.0000 1733.5452 -7419.4074 296.0664 -9152.9526 -7419.4074 296.0664 -182.9436 -81.9775 30685.9064 -182.9436 -81.9775
ENERGY: 300000 2.5540 7.7991 0.2317 0.0000 -10468.8587 1326.3338 0.0000 0.0000 1778.6470 -7353.2930 303.7692 -9131.9400 -7405.5190 300.4207 -724.3280 -669.5787 30746.1736 -319.5242 -248.4553
ENERGY: 600000 1.8981 4.3115 0.0638 0.0000 -10433.9119 1295.0228 0.0000 0.0000 1769.9641 -7362.6517 302.2863 -9132.6158 -7416.7814 299.7778 -1030.7288 -923.1789 31024.1581 -311.4333 -244.1019
ENERGY: 900000 0.2789 5.8546 0.6183 0.0000 -10617.5869 1341.8108 0.0000 0.0000 1769.0804 -7499.9438 302.1353 -9269.0242 -7428.1606 300.7964 -775.9031 -763.2953 30514.8264 -339.7080 -274.3485
ENERGY: 1200000 1.0082 5.8901 0.1771 0.0000 -10790.3033 1561.8897 0.0000 0.0000 1771.9009 -7449.4373 302.6170 -9221.3382 -7441.9495 300.3933 1061.7501 1136.5318 30096.7578 -253.7632 -197.6136
ENERGY: 1500000 2.2485 7.5716 0.1063 0.0000 -10580.6640 1413.0759 0.0000 0.0000 1734.8924 -7422.7693 296.2965 -9157.6617 -7441.9322 299.9181 211.5873 181.6654 29845.1685 -243.0077 -193.4140
TCL: Running FEP window   3: Lambda1 0.8999999999999999 Lambda2 0.8499999999999999 [dLambda -0.050000000000000044]
TCL: Setting parameter firsttimestep to 0
TCL: Setting parameter alchLambda to 0.8999999999999999
Info: NONBONDED TABLE R-SQUARED SPACING: 0.0625
Info: NONBONDED TABLE SIZE: 705 POINTS
TCL: Setting parameter alchLambda2 to 0.8499999999999999
Info: NONBONDED TABLE R-SQUARED SPACING: 0.0625
Info: NONBONDED TABLE SIZE: 705 POINTS
TCL: Running for 1500000 steps
ETITLE: TS BOND ANGLE DIHED IMPRP ELECT VDW BOUNDARY MISC KINETIC TOTAL TEMP POTENTIAL TOTALAVG TEMPAVG PRESSURE GPRESSURE VOLUME PRESSAVG GPRESSAVG
ENERGY: 0 2.2485 7.5716 0.1063 0.0000 -10580.4245 1412.9034 0.0000 0.0000 1733.9944 -7423.6003 296.1431 -9157.5947 -7423.6003 296.1431 93.4207 167.2492 29845.1685 93.4207 167.2492
ENERGY: 300000 2.9805 2.8590 0.2683 0.0000 -10498.0325 1314.7796 0.0000 0.0000 1770.6037 -7406.5414 302.3955 -9177.1451 -7421.9173 302.2200 -642.7811 -559.3342 30196.4631 -389.9781 -310.5701
ENERGY: 600000 0.3609 4.7477 0.8934 0.0000 -10590.6966 1329.1242 0.0000 0.0000 1783.5160 -7472.0545 304.6007 -9255.5704 -7449.7108 301.5147 -779.8409 -760.5536 30367.5783 -406.9566 -337.9983
ENERGY: 900000 2.2349 7.1088 0.5084 0.0000 -10593.2124 1371.4266 0.0000 0.0000 1736.5352 -7475.3985 296.5770 -9211.9337 -7443.1878 301.3936 -421.6918 -386.8918 30416.8017 -314.3437 -246.2617
ENERGY: 1200000 1.0986 6.0609 0.4997 0.0000 -10566.0185 1311.5548 0.0000 0.0000 1763.7049 -7483.0996 301.2173 -9246.8045 -7442.0868 300.4783 -925.3911 -842.2311 30273.6341 -352.3478 -282.9124
ENERGY: 1500000 0.9624 3.1893 0.3150 0.0000 -10728.4767 1532.3674 0.0000 0.0000 1801.5782 -7390.0644 307.6855 -9191.6425 -7440.4838 301.7522 784.2246 847.2935 30750.4182 -211.5017 -142.9334
TCL: Running FEP window   4: Lambda1 0.8499999999999999 Lambda2 0.7999999999999998 [dLambda -0.050000000000000044]
TCL: Setting parameter firsttimestep to 0
TCL: Setting parameter alchLambda to 0.8499999999999999
Info: NONBONDED TABLE R-SQUARED SPACING: 0.0625
Info: NONBONDED TABLE SIZE: 705 POINTS
TCL: Setting parameter alchLambda2 to 0.7999999999999998
Info: NONBONDED TABLE R-SQUARED SPACING: 0.0625
Info: NONBONDED TABLE SIZE: 705 POINTS
TCL: Running for 1500000 steps
ETITLE: TS BOND ANGLE DIHED IMPRP ELECT VDW BOUNDARY MISC KINETIC TOTAL TEMP POTENTIAL TOTALAVG TEMPAVG PRESSURE GPRESSURE VOLUME PRESSAVG GPRESSAVG
ENERGY: 0 0.9624 3.1893 0.3150 0.0000 -10728.2073 1532.9385 0.0000 0.0000 1800.6870 -7390.1149 307.5333 -9190.8020 -7390.1149 307.5333 765.2274 845.6018 30750.4182 765.2274 845.6018
ENERGY: 300000 1.0672 5.2642 0.2795 0.0000 -10555.5967 1327.0778 0.0000 0.0000 1750.7963 -7471.1116 299.0126 -9221.9079 -7486.3913 301.2180 -893.5680 -813.8746 30378.5144 -427.7235 -350.3947
ENERGY: 600000 1.0563 5.4637 0.6939 0.0000 -10609.5779 1396.5586 0.0000 0.0000 1779.8936 -7425.9118 303.9821 -9205.8054 -7479.0649 300.6501 -162.2619 -89.7041 30172.2196 -289.5723 -232.4258
ENERGY: 900000 1.6504 7.6819 0.8011 0.0000 -10648.7532 1410.8639 0.0000 0.0000 1761.2051 -7466.5508 300.7903 -9227.7559 -7457.2698 301.4523 -342.5891 -298.2499 30733.6434 -165.6123 -109.4192
ENERGY: 1200000 0.6549 3.8756 0.4390 0.0000 -10698.6655 1487.1977 0.0000 0.0000 1741.8552 -7464.6431 297.4856 -9206.4983 -7458.7415 300.5776 468.0261 566.3691 30169.8314 -102.3330 -40.4565
ENERGY: 1500000 0.4374 9.3039 0.3776 0.0000 -10649.6178 1437.1602 0.0000 0.0000 1740.6104 -7461.7282 297.2730 -9202.3386 -7456.0261 300.6779 8.3019 101.9417 30420.5318 -53.0463 12.4993
TCL: Running FEP window   5: Lambda1 0.7999999999999998 Lambda2 0.7499999999999998 [dLambda -0.050000000000000044]
TCL: Setting parameter firsttimestep to 0
TCL: Setting parameter alchLambda to 0.7999999999999998
Info: NONBONDED TABLE R-SQUARED SPACING: 0.0625
Info: NONBONDED TABLE SIZE: 705 POINTS
TCL: Setting parameter alchLambda2 to 0.7499999999999998
Info: NONBONDED TABLE R-SQUARED SPACING: 0.0625
Info: NONBONDED TABLE SIZE: 705 POINTS
TCL: Running for 1500000 steps
ETITLE: TS BOND ANGLE DIHED IMPRP ELECT VDW BOUNDARY MISC KINETIC TOTAL TEMP POTENTIAL TOTALAVG TEMPAVG PRESSURE GPRESSURE VOLUME PRESSAVG GPRESSAVG
ENERGY: 0 0.4374 9.3039 0.3776 0.0000 -10649.3770 1436.0614 0.0000 0.0000 1739.7293 -7463.4674 297.1226 -9203.1967 -7463.4674 297.1226 -6.8477 80.8835 30420.5318 -6.8477 80.8835
ENERGY: 300000 2.8835 8.5239 0.1314 0.0000 -10697.0483 1424.7654 0.0000 0.0000 1738.4526 -7522.2914 296.9045 -9260.7441 -7435.1553 302.8477 -307.4453 -246.1841 30644.1113 -15.7619 59.4329
ENERGY: 600000 1.6137 5.1620 0.4728 0.0000 -10723.1298 1470.9306 0.0000 0.0000 1771.2606 -7473.6901 302.5077 -9244.9507 -7425.4465 304.5223 205.5756 300.9372 29873.0263 87.8781 172.1340
ENERGY: 900000 2.4358 5.2613 1.2447 0.0000 -10508.3846 1353.4692 0.0000 0.0000 1732.1419 -7413.8318 295.8267 -9145.9737 -7423.0368 303.2325 -601.0566 -501.9531 30721.0715 49.4801 128.9456
ENERGY: 1200000 1.6187 5.2120 1.1923 0.0000 -10508.6699 1317.0300 0.0000 0.0000 1801.0028 -7382.6141 307.5872 -9183.6169 -7431.8308 302.6897 -694.8243 -662.9332 30324.1398 -9.1830 57.2576
ENERGY: 1500000 0.4362 7.7468 0.4759 0.0000 -10692.5729 1402.8372 0.0000 0.0000 1708.0837 -7572.9930 291.7179 -9281.0767 -7435.4377 302.2162 -505.5423 -450.2867 30520.1213 9.4124 71.1058
TCL: Running FEP window   6: Lambda1 0.7499999999999998 Lambda2 0.6999999999999997 [dLambda -0.050000000000000044]
TCL: Setting parameter firsttimestep to 0
TCL: Setting parameter alchLambda to 0.7499999999999998
Info: NONBONDED TABLE R-SQUARED SPACING: 0.0625
Info: NONBONDED TABLE SIZE: 705 POINTS
TCL: Setting parameter alchLambda2 to 0.6999999999999997
Info: NONBONDED TABLE R-SQUARED SPACING: 0.0625
Info: NONBONDED TABLE SIZE: 705 POINTS
TCL: Running for 1500000 steps
ETITLE: TS BOND ANGLE DIHED IMPRP ELECT VDW BOUNDARY MISC KINETIC TOTAL TEMP POTENTIAL TOTALAVG TEMPAVG PRESSURE GPRESSURE VOLUME PRESSAVG GPRESSAVG
ENERGY: 0 0.4362 7.7468 0.4759 0.0000 -10692.4917 1403.4056 0.0000 0.0000 1707.2132 -7573.2139 291.5692 -9280.4272 -7573.2139 291.5692 -534.7967 -453.3267 30520.1213 -534.7967 -453.3267
ENERGY: 300000 0.6564 4.0649 0.7431 0.0000 -10737.1881 1453.6409 0.0000 0.0000 1775.0926 -7502.9902 303.1621 -9278.0828 -7505.0910 296.4138 96.0820 185.2532 30185.3563 -214.9978 -130.5852
ENERGY: 600000 0.5983 4.8895 0.7595 0.0000 -10663.7622 1475.9513 0.0000 0.0000 1790.6817 -7390.8818 305.8246 -9181.5636 -7480.5885 299.4212 554.3064 659.1831 30358.7058 84.8505 174.0665
ENERGY: 900000 1.0959 6.7582 0.5299 0.0000 -10654.7995 1399.6463 0.0000 0.0000 1766.4882 -7480.2811 301.6926 -9246.7693 -7475.9092 300.1715 -324.3787 -223.8164 30205.9953 -69.5038 12.5133
ENERGY: 1200000 0.6941 3.5752 0.1505 0.0000 -10696.1388 1479.8377 0.0000 0.0000 1728.2278 -7483.6536 295.1583 -9211.8815 -7484.9906 299.0955 323.1788 325.2733 30516.2706 -57.7365 11.9790
ENERGY: 1500000 0.1391 3.2464 0.6595 0.0000 -10610.0573 1394.3204 0.0000 0.0000 1779.1539 -7432.5379 303.8558 -9211.6918 -7472.0417 299.8385 -300.5378 -279.2287 30548.5408 -55.9854 10.8441
TCL: Running FEP window   7: Lambda1 0.6999999999999997 Lambda2 0.6499999999999997 [dLambda -0.050000000000000044]
TCL: Setting parameter firsttimestep to 0
TCL: Setting parameter alchLambda to 0.6999999999999997
Info: NONBONDED TABLE R-SQUARED SPACING: 0.0625
Info: NONBONDED TABLE SIZE: 705 POINTS
TCL: Setting parameter alchLambda2 to 0.6499999999999997
Info: NONBONDED TABLE R-SQUARED SPACING: 0.0625
Info: NONBONDED TABLE SIZE: 705 POINTS
TCL: Running for 1500000 steps
ETITLE: TS BOND ANGLE DIHED IMPRP ELECT VDW BOUNDARY MISC KINETIC TOTAL TEMP POTENTIAL TOTALAVG TEMPAVG PRESSURE GPRESSURE VOLUME PRESSAVG GPRESSAVG
ENERGY: 0 0.1391 3.2464 0.6595 0.0000 -10610.0352 1394.8732 0.0000 0.0000 1778.2565 -7432.8604 303.7025 -9211.1169 -7432.8604 303.7025 -366.0853 -277.0206 30548.5408 -366.0853 -277.0206
ENERGY: 300000 0.8596 12.0342 0.1507 0.0000 -10720.9734 1444.8371 0.0000 0.0000 1713.3654 -7549.7264 292.6199 -9263.0918 -7462.9031 301.3488 -133.3095 -92.5692 30414.9207 -211.6741 -148.8760
ENERGY: 600000 0.2226 2.7840 1.5224 0.0000 -10629.3959 1386.7234 0.0000 0.0000 1744.7595 -7493.3840 297.9816 -9238.1435 -7463.7410 302.1556 -482.6037 -364.7580 30099.4349 -184.4542 -116.0879
ENERGY: 900000 1.1770 6.5277 1.0435 0.0000 -10586.6761 1373.5089 0.0000 0.0000 1800.1796 -7404.2393 307.4467 -9204.4189 -7444.5348 302.5564 -80.9408 -62.4272 30175.8875 -27.0340 30.4575
ENERGY: 1200000 1.9854 7.1834 0.7594 0.0000 -10611.1498 1400.8949 0.0000 0.0000 1737.0435 -7463.2833 296.6639 -9200.3268 -7454.9438 300.9659 -495.3430 -411.5990 31095.1734 -58.0043 2.4507
ENERGY: 1500000 0.1565 4.9992 0.7314 0.0000 -10592.6448 1386.3855 0.0000 0.0000 1730.9007 -7469.4715 295.6147 -9200.3723 -7448.2222 300.5658 -435.7982 -416.9784 30841.2923 -69.1838 -10.6568
TCL: Running FEP window   8: Lambda1 0.6499999999999997 Lambda2 0.5999999999999996 [dLambda -0.050000000000000044]
TCL: Setting parameter firsttimestep to 0
TCL: Setting parameter alchLambda to 0.6499999999999997
Info: NONBONDED TABLE R-SQUARED SPACING: 0.0625
Info: NONBONDED TABLE SIZE: 705 POINTS
TCL: Setting parameter alchLambda2 to 0.5999999999999996
Info: NONBONDED TABLE R-SQUARED SPACING: 0.0625
Info: NONBONDED TABLE SIZE: 705 POINTS
TCL: Running for 1500000 steps
ETITLE: TS BOND ANGLE DIHED IMPRP ELECT VDW BOUNDARY MISC KINETIC TOTAL TEMP POTENTIAL TOTALAVG TEMPAVG PRESSURE GPRESSURE VOLUME PRESSAVG GPRESSAVG
ENERGY: 0 0.1565 4.9992 0.7314 0.0000 -10592.7683 1386.8564 0.0000 0.0000 1730.0195 -7470.0053 295.4643 -9200.0248 -7470.0053 295.4643 -503.3710 -421.9247 30841.2923 -503.3710 -421.9247
ENERGY: 300000 1.2419 4.7022 0.3458 0.0000 -10626.1684 1374.4771 0.0000 0.0000 1805.6934 -7439.7080 308.3884 -9245.4014 -7454.5892 300.2500 -585.2222 -527.6473 30757.7382 -107.4557 -61.9220
ENERGY: 600000 1.1475 4.6437 0.2485 0.0000 -10626.4685 1499.9655 0.0000 0.0000 1757.1101 -7363.3532 300.0910 -9120.4633 -7462.5909 299.5161 972.2138 998.2834 30109.9718 81.4097 121.7381
ENERGY: 900000 1.1542 6.7548 0.1311 0.0000 -10728.2307 1461.8503 0.0000 0.0000 1739.1953 -7519.1449 297.0314 -9258.3402 -7473.3922 298.6919 388.2647 441.3616 29804.0832 152.9903 200.7370
ENERGY: 1200000 0.7280 6.4829 1.2580 0.0000 -10667.5166 1393.2712 0.0000 0.0000 1750.4671 -7515.3093 298.9564 -9265.7764 -7464.3142 300.4011 -432.2538 -376.8833 30343.8945 101.1993 154.9320
ENERGY: 1500000 2.5205 3.0293 1.3904 0.0000 -10640.6637 1430.4469 0.0000 0.0000 1713.9990 -7489.2776 292.7282 -9203.2766 -7465.4065 300.1092 361.2865 404.7661 29800.3464 123.2955 180.5154
TCL: Running FEP window   9: Lambda1 0.5999999999999996 Lambda2 0.5499999999999996 [dLambda -0.050000000000000044]
TCL: Setting parameter firsttimestep to 0
TCL: Setting parameter alchLambda to 0.5999999999999996
Info: NONBONDED TABLE R-SQUARED SPACING: 0.0625
Info: NONBONDED TABLE SIZE: 705 POINTS
TCL: Setting parameter alchLambda2 to 0.5499999999999996
Info: NONBONDED TABLE R-SQUARED SPACING: 0.0625
Info: NONBONDED TABLE SIZE: 705 POINTS
TCL: Running for 1500000 steps
ETITLE: TS BOND ANGLE DIHED IMPRP ELECT VDW BOUNDARY MISC KINETIC TOTAL TEMP POTENTIAL TOTALAVG TEMPAVG PRESSURE GPRESSURE VOLUME PRESSAVG GPRESSAVG
ENERGY: 0 2.5205 3.0293 1.3904 0.0000 -10640.6080 1430.6872 0.0000 0.0000 1713.1383 -7489.8423 292.5812 -9202.9806 -7489.8423 292.5812 324.0294 401.0743 29800.3464 324.0294 401.0743
ENERGY: 300000 1.3101 4.3216 0.3194 0.0000 -10724.2373 1452.8034 0.0000 0.0000 1762.6945 -7502.7884 301.0447 -9265.4829 -7480.9909 299.5006 0.3106 107.9749 30386.4632 1.4237 68.7112
ENERGY: 600000 1.0211 5.2990 0.5219 0.0000 -10793.9677 1551.1630 0.0000 0.0000 1747.8872 -7488.0755 298.5158 -9235.9626 -7480.9436 300.2356 1287.0441 1273.3663 29677.2873 19.9985 72.9794
ENERGY: 900000 1.9838 4.7091 0.1146 0.0000 -10655.0704 1469.5937 0.0000 0.0000 1756.7103 -7421.9587 300.0227 -9178.6690 -7486.9748 299.8267 339.9978 429.7302 30466.6630 -19.1521 43.2587
ENERGY: 1200000 3.0315 1.1310 1.6900 0.0000 -10620.8160 1388.8518 0.0000 0.0000 1727.1417 -7498.9699 294.9728 -9226.1116 -7486.2129 300.3481 -326.9135 -211.9410 30129.8117 25.1323 85.1802
ENERGY: 1500000 3.3466 6.5303 0.5436 0.0000 -10640.3202 1486.9380 0.0000 0.0000 1758.6314 -7384.3304 300.3508 -9142.9617 -7481.5594 299.8939 959.6942 1018.9721 29607.2732 120.2265 180.4669
TCL: Running FEP window  10: Lambda1 0.5499999999999996 Lambda2 0.4999999999999996 [dLambda -0.04999999999999999]
TCL: Setting parameter firsttimestep to 0
TCL: Setting parameter alchLambda to 0.5499999999999996
Info: NONBONDED TABLE R-SQUARED SPACING: 0.0625
Info: NONBONDED TABLE SIZE: 705 POINTS
TCL: Setting parameter alchLambda2 to 0.4999999999999996
Info: NONBONDED TABLE R-SQUARED SPACING: 0.0625
Info: NONBONDED TABLE SIZE: 705 POINTS
TCL: Running for 1500000 steps
ETITLE: TS BOND ANGLE DIHED IMPRP ELECT VDW BOUNDARY MISC KINETIC TOTAL TEMP POTENTIAL TOTALAVG TEMPAVG PRESSURE GPRESSURE VOLUME PRESSAVG GPRESSAVG
ENERGY: 0 3.3466 6.5303 0.5436 0.0000 -10640.4082 1486.6312 0.0000 0.0000 1757.7739 -7385.5826 300.2043 -9143.3566 -7385.5826 300.2043 934.9224 1008.2094 29607.2732 934.9224 1008.2094
ENERGY: 300000 3.0950 7.9075 1.7856 0.0000 -10609.5724 1405.8864 0.0000 0.0000 1764.3393 -7426.5586 301.3256 -9190.8979 -7431.7037 302.9474 -85.5415 -83.3730 30456.8380 198.5026 256.1917
ENERGY: 600000 2.0085 6.0431 0.5319 0.0000 -10680.5953 1460.6002 0.0000 0.0000 1729.6228 -7481.7889 295.3965 -9211.4117 -7462.6846 302.0876 247.4845 355.9136 30097.8000 141.1320 200.7596
ENERGY: 900000 2.9197 4.6473 0.2746 0.0000 -10773.5382 1552.4383 0.0000 0.0000 1718.9993 -7494.2591 293.5821 -9213.2584 -7455.3506 302.5888 1136.3211 1194.6238 29669.9044 225.5260 285.3951
ENERGY: 1200000 0.2628 6.6089 0.5312 0.0000 -10632.6193 1396.6663 0.0000 0.0000 1757.2723 -7471.2777 300.1187 -9228.5500 -7466.1360 301.0601 -318.6936 -226.1742 30175.4395 226.8965 281.3820
ENERGY: 1500000 0.9614 4.3542 0.9317 0.0000 -10437.1504 1302.9975 0.0000 0.0000 1742.1884 -7385.7172 297.5425 -9127.9056 -7462.0017 300.7913 -976.1829 -859.6519 30623.3634 119.0293 174.5168
TCL: Running FEP window  11: Lambda1 0.4999999999999996 Lambda2 0.4499999999999996 [dLambda -0.04999999999999999]
TCL: Setting parameter firsttimestep to 0
TCL: Setting parameter alchLambda to 0.4999999999999996
Info: NONBONDED TABLE R-SQUARED SPACING: 0.0625
Info: NONBONDED TABLE SIZE: 705 POINTS
TCL: Setting parameter alchLambda2 to 0.4499999999999996
Info: NONBONDED TABLE R-SQUARED SPACING: 0.0625
Info: NONBONDED TABLE SIZE: 705 POINTS
TCL: Running for 1500000 steps
ETITLE: TS BOND ANGLE DIHED IMPRP ELECT VDW BOUNDARY MISC KINETIC TOTAL TEMP POTENTIAL TOTALAVG TEMPAVG PRESSURE GPRESSURE VOLUME PRESSAVG GPRESSAVG
ENERGY: 0 0.9614 4.3542 0.9317 0.0000 -10436.9728 1303.5389 0.0000 0.0000 1741.3149 -7385.8717 297.3934 -9127.1866 -7385.8717 297.3934 -937.0387 -859.3028 30623.3634 -937.0387 -859.3028
ENERGY: 300000 0.8242 10.1149 0.3802 0.0000 -10717.7766 1458.1590 0.0000 0.0000 1762.3335 -7485.9648 300.9831 -9248.2983 -7470.5757 300.3336 45.6668 58.3281 30360.3367 -419.3336 -366.6025
ENERGY: 600000 0.1125 6.6435 0.2292 0.0000 -10662.4802 1462.7493 0.0000 0.0000 1742.7529 -7449.9928 297.6389 -9192.7457 -7448.5875 301.2751 184.4943 251.0613 30670.4676 -262.3281 -192.4995
ENERGY: 900000 0.7627 6.3841 0.3193 0.0000 -10726.3737 1422.2384 0.0000 0.0000 1736.7233 -7559.9459 296.6092 -9296.6692 -7473.6119 299.5149 -278.2171 -244.8164 30204.0818 -278.5958 -219.4336
ENERGY: 1200000 0.8245 2.1238 0.5508 0.0000 -10634.9262 1422.1898 0.0000 0.0000 1746.9904 -7462.2469 298.3626 -9209.2373 -7458.9928 300.0129 -169.6285 -60.4953 30549.1306 -187.9938 -118.9984
ENERGY: 1500000 0.8930 4.8549 0.6209 0.0000 -10686.9142 1480.9949 0.0000 0.0000 1721.1172 -7478.4334 293.9438 -9199.5506 -7456.9361 299.7466 662.3723 691.8769 29931.1045 -125.2018 -60.8453
TCL: Running FEP window  12: Lambda1 0.4499999999999996 Lambda2 0.39999999999999963 [dLambda -0.04999999999999999]
TCL: Setting parameter firsttimestep to 0
TCL: Setting parameter alchLambda to 0.4499999999999996
Info: NONBONDED TABLE R-SQUARED SPACING: 0.0625
Info: NONBONDED TABLE SIZE: 705 POINTS
TCL: Setting parameter alchLambda2 to 0.39999999999999963
Info: NONBONDED TABLE R-SQUARED SPACING: 0.0625
Info: NONBONDED TABLE SIZE: 705 POINTS
TCL: Running for 1500000 steps
ETITLE: TS BOND ANGLE DIHED IMPRP ELECT VDW BOUNDARY MISC KINETIC TOTAL TEMP POTENTIAL TOTALAVG TEMPAVG PRESSURE GPRESSURE VOLUME PRESSAVG GPRESSAVG
ENERGY: 0 0.8929 4.8548 0.6209 0.0000 -10686.9149 1481.4531 0.0000 0.0000 1720.2517 -7478.8414 293.7960 -9199.0931 -7478.8414 293.7960 604.6072 690.3773 29931.1045 604.6072 690.3773
ENERGY: 300000 1.3562 7.3824 2.2827 0.0000 -10629.4516 1411.3242 0.0000 0.0000 1777.3339 -7429.7721 303.5449 -9207.1061 -7471.9144 298.1988 -334.7661 -234.2877 30620.6224 -146.9134 -76.1569
ENERGY: 600000 0.8045 3.7914 0.7396 0.0000 -10579.9468 1404.1756 0.0000 0.0000 1751.8910 -7418.5447 299.1996 -9170.4357 -7464.2554 298.9461 -236.6436 -162.9843 30497.0109 -214.4063 -155.7631
ENERGY: 900000 0.7434 2.9007 0.3046 0.0000 -10768.4943 1507.4536 0.0000 0.0000 1762.4252 -7494.6668 300.9987 -9257.0920 -7459.8778 299.6599 760.5625 869.0384 29763.7619 -146.1624 -76.4030
ENERGY: 1200000 0.2183 6.2630 0.4958 0.0000 -10540.0767 1415.4642 0.0000 0.0000 1751.1535 -7366.4820 299.0737 -9117.6354 -7461.8997 299.2479 193.6055 225.4238 30308.7132 -42.8110 29.7840
ENERGY: 1500000 3.6465 5.5392 0.1291 0.0000 -10519.8415 1389.7869 0.0000 0.0000 1776.0307 -7344.7091 303.3223 -9120.7398 -7457.0209 299.5030 -177.8180 -135.2735 30635.0526 -33.8747 36.2454
TCL: Running FEP window  13: Lambda1 0.39999999999999963 Lambda2 0.34999999999999964 [dLambda -0.04999999999999999]
TCL: Setting parameter firsttimestep to 0
TCL: Setting parameter alchLambda to 0.39999999999999963
Info: NONBONDED TABLE R-SQUARED SPACING: 0.0625
Info: NONBONDED TABLE SIZE: 705 POINTS
TCL: Setting parameter alchLambda2 to 0.34999999999999964
Info: NONBONDED TABLE R-SQUARED SPACING: 0.0625
Info: NONBONDED TABLE SIZE: 705 POINTS
TCL: Running for 1500000 steps
ETITLE: TS BOND ANGLE DIHED IMPRP ELECT VDW BOUNDARY MISC KINETIC TOTAL TEMP POTENTIAL TOTALAVG TEMPAVG PRESSURE GPRESSURE VOLUME PRESSAVG GPRESSAVG
ENERGY: 0 3.6465 5.5392 0.1291 0.0000 -10519.8416 1390.1065 0.0000 0.0000 1775.1286 -7345.2918 303.1683 -9120.4204 -7345.2918 303.1683 -220.4364 -134.4836 30635.0526 -220.4364 -134.4836
ENERGY: 300000 1.3984 3.8720 1.0049 0.0000 -10543.6593 1381.5233 0.0000 0.0000 1776.5196 -7379.3411 303.4059 -9155.8608 -7408.2668 299.9896 -242.1186 -171.5231 30296.8121 -89.7129 -18.4530
ENERGY: 600000 0.3262 4.6343 0.5349 0.0000 -10727.0452 1451.4383 0.0000 0.0000 1714.7367 -7555.3749 292.8541 -9270.1116 -7457.2553 296.9795 50.7892 90.2986 29983.6758 -117.0681 -48.9643
ENERGY: 900000 1.1397 5.8136 0.9791 0.0000 -10681.6752 1418.8714 0.0000 0.0000 1760.4736 -7494.3979 300.6654 -9254.8715 -7472.5695 297.4238 -61.7012 53.0302 29932.6524 -146.9877 -64.7394
ENERGY: 1200000 0.7174 6.0555 1.5052 0.0000 -10840.5768 1590.8439 0.0000 0.0000 1795.6230 -7445.8318 306.6685 -9241.4548 -7477.4695 298.2370 1246.4826 1371.3414 29985.2224 -43.9960 38.7117
ENERGY: 1500000 5.3988 3.3239 0.5733 0.0000 -10747.8640 1428.3542 0.0000 0.0000 1773.8417 -7536.3721 302.9485 -9310.2138 -7481.1612 298.8353 -351.0355 -299.8049 30167.5636 18.5470 93.2731
TCL: Running FEP window  14: Lambda1 0.34999999999999964 Lambda2 0.29999999999999966 [dLambda -0.04999999999999999]
TCL: Setting parameter firsttimestep to 0
TCL: Setting parameter alchLambda to 0.34999999999999964
Info: NONBONDED TABLE R-SQUARED SPACING: 0.0625
Info: NONBONDED TABLE SIZE: 705 POINTS
TCL: Setting parameter alchLambda2 to 0.29999999999999966
Info: NONBONDED TABLE R-SQUARED SPACING: 0.0625
Info: NONBONDED TABLE SIZE: 705 POINTS
TCL: Running for 1500000 steps
ETITLE: TS BOND ANGLE DIHED IMPRP ELECT VDW BOUNDARY MISC KINETIC TOTAL TEMP POTENTIAL TOTALAVG TEMPAVG PRESSURE GPRESSURE VOLUME PRESSAVG GPRESSAVG
ENERGY: 0 5.3988 3.3239 0.5733 0.0000 -10747.8651 1428.3385 0.0000 0.0000 1772.9845 -7537.2460 302.8021 -9310.2305 -7537.2460 302.8021 -391.0475 -304.5039 30167.5636 -391.0475 -304.5039
ENERGY: 300000 0.6114 4.6941 0.3116 0.0000 -10805.3903 1503.2207 0.0000 0.0000 1759.5764 -7536.9760 300.5122 -9296.5524 -7516.7655 299.7132 482.3107 528.1717 29926.8642 161.3944 210.9617
ENERGY: 600000 1.5369 4.6193 0.6124 0.0000 -10813.6107 1532.5469 0.0000 0.0000 1762.6868 -7511.6084 301.0434 -9274.2952 -7511.2610 299.7498 486.0050 550.5025 30090.7800 160.4622 217.5163
ENERGY: 900000 1.4392 5.3354 0.5276 0.0000 -10571.7723 1340.8834 0.0000 0.0000 1683.1938 -7540.3930 287.4670 -9223.5867 -7506.0361 298.9073 -788.2164 -741.1561 30258.2517 0.8042 64.6885
ENERGY: 1200000 1.7717 5.6760 0.3051 0.0000 -10704.1272 1510.5194 0.0000 0.0000 1737.4613 -7448.3936 296.7352 -9185.8549 -7500.3526 299.2858 843.3722 948.6338 29751.5474 29.1580 88.8884
ENERGY: 1500000 0.7630 3.7457 0.1170 0.0000 -10701.2582 1480.8974 0.0000 0.0000 1718.7145 -7497.0207 293.5335 -9215.7351 -7499.7017 298.6612 607.2912 626.8023 29790.4758 63.6863 119.1886
TCL: Running FEP window  15: Lambda1 0.29999999999999966 Lambda2 0.24999999999999967 [dLambda -0.04999999999999999]
TCL: Setting parameter firsttimestep to 0
TCL: Setting parameter alchLambda to 0.29999999999999966
Info: NONBONDED TABLE R-SQUARED SPACING: 0.0625
Info: NONBONDED TABLE SIZE: 705 POINTS
TCL: Setting parameter alchLambda2 to 0.24999999999999967
Info: NONBONDED TABLE R-SQUARED SPACING: 0.0625
Info: NONBONDED TABLE SIZE: 705 POINTS
TCL: Running for 1500000 steps
ETITLE: TS BOND ANGLE DIHED IMPRP ELECT VDW BOUNDARY MISC KINETIC TOTAL TEMP POTENTIAL TOTALAVG TEMPAVG PRESSURE GPRESSURE VOLUME PRESSAVG GPRESSAVG
ENERGY: 0 0.7630 3.7457 0.1170 0.0000 -10701.2566 1480.9470 0.0000 0.0000 1717.8417 -7497.8421 293.3844 -9215.6838 -7497.8421 293.3844 546.1152 622.9522 29790.4758 546.1152 622.9522
ENERGY: 300000 2.3235 6.2230 0.5283 0.0000 -10651.8196 1444.4240 0.0000 0.0000 1810.5517 -7387.7692 309.2181 -9198.3208 -7446.7070 300.2345 55.8738 225.6128 30380.1223 58.0989 142.9768
ENERGY: 600000 0.9524 6.8720 0.9319 0.0000 -10679.6904 1442.3542 0.0000 0.0000 1816.4382 -7412.1417 310.2234 -9228.5799 -7451.5711 301.8233 14.6414 83.7915 30319.5510 72.8837 156.2855
ENERGY: 900000 0.7925 5.2805 0.8824 0.0000 -10525.1886 1333.4652 0.0000 0.0000 1800.7934 -7383.9745 307.5515 -9184.7679 -7448.0708 303.0919 -735.2950 -727.1182 30618.2010 -55.1727 11.0647
ENERGY: 1200000 1.1446 3.7414 0.3651 0.0000 -10581.6814 1377.6352 0.0000 0.0000 1712.1379 -7486.6571 292.4103 -9198.7950 -7459.2843 302.2712 -456.7186 -438.4365 30222.1402 -60.6548 0.5760
ENERGY: 1500000 0.2730 7.4930 1.5452 0.0000 -10648.8056 1437.0240 0.0000 0.0000 1755.7738 -7446.6964 299.8627 -9202.4703 -7456.1601 302.2555 -301.4169 -259.2203 30896.9595 -51.3630 10.0348
TCL: Running FEP window  16: Lambda1 0.24999999999999967 Lambda2 0.19999999999999968 [dLambda -0.04999999999999999]
TCL: Setting parameter firsttimestep to 0
TCL: Setting parameter alchLambda to 0.24999999999999967
Info: NONBONDED TABLE R-SQUARED SPACING: 0.0625
Info: NONBONDED TABLE SIZE: 705 POINTS
TCL: Setting parameter alchLambda2 to 0.19999999999999968
Info: NONBONDED TABLE R-SQUARED SPACING: 0.0625
Info: NONBONDED TABLE SIZE: 705 POINTS
TCL: Running for 1500000 steps
ETITLE: TS BOND ANGLE DIHED IMPRP ELECT VDW BOUNDARY MISC KINETIC TOTAL TEMP POTENTIAL TOTALAVG TEMPAVG PRESSURE GPRESSURE VOLUME PRESSAVG GPRESSAVG
ENERGY: 0 0.2730 7.4930 1.5452 0.0000 -10648.8049 1436.8282 0.0000 0.0000 1754.8948 -7447.7707 299.7126 -9202.6655 -7447.7707 299.7126 -338.6760 -264.1888 30896.9595 -338.6760 -264.1888
ENERGY: 300000 1.8646 2.6030 0.5300 0.0000 -10617.2416 1406.6812 0.0000 0.0000 1805.8887 -7399.6740 308.4217 -9205.5627 -7473.4011 301.9567 -224.4359 -150.1005 30367.1943 -217.3859 -166.5102
ENERGY: 600000 0.9219 5.3877 0.2319 0.0000 -10743.6766 1449.0512 0.0000 0.0000 1801.0180 -7487.0659 307.5898 -9288.0839 -7480.2038 302.6931 -275.1964 -199.0619 30509.0611 -78.9849 -7.8333
ENERGY: 900000 1.4689 5.0387 1.2281 0.0000 -10703.7618 1381.5204 0.0000 0.0000 1725.8167 -7588.6889 294.7465 -9314.5057 -7482.8416 301.5655 -826.3419 -754.0883 30444.4335 -135.0874 -58.3972
ENERGY: 1200000 1.3767 8.6227 0.4688 0.0000 -10622.2775 1434.6993 0.0000 0.0000 1734.6483 -7442.4617 296.2548 -9177.1100 -7475.3890 301.4114 -28.1620 76.2906 30202.1454 -72.9207 5.1479
ENERGY: 1500000 0.1361 6.8745 0.6651 0.0000 -10610.7408 1360.1063 0.0000 0.0000 1775.6924 -7467.2664 303.2646 -9242.9588 -7476.4012 300.8163 -481.6784 -412.9925 30168.0698 -124.8647 -48.2147
TCL: Running FEP window  17: Lambda1 0.19999999999999968 Lambda2 0.1499999999999997 [dLambda -0.04999999999999999]
TCL: Setting parameter firsttimestep to 0
TCL: Setting parameter alchLambda to 0.19999999999999968
Info: NONBONDED TABLE R-SQUARED SPACING: 0.0625
Info: NONBONDED TABLE SIZE: 705 POINTS
TCL: Setting parameter alchLambda2 to 0.1499999999999997
Info: NONBONDED TABLE R-SQUARED SPACING: 0.0625
Info: NONBONDED TABLE SIZE: 705 POINTS
TCL: Running for 1500000 steps
ETITLE: TS BOND ANGLE DIHED IMPRP ELECT VDW BOUNDARY MISC KINETIC TOTAL TEMP POTENTIAL TOTALAVG TEMPAVG PRESSURE GPRESSURE VOLUME PRESSAVG GPRESSAVG
ENERGY: 0 0.1361 6.8745 0.6651 0.0000 -10610.7401 1359.9748 0.0000 0.0000 1774.7921 -7468.2976 303.1108 -9243.0896 -7468.2976 303.1108 -506.4181 -417.5881 30168.0698 -506.4181 -417.5881
ENERGY: 300000 4.0188 5.2830 0.1928 0.0000 -10584.5312 1392.5519 0.0000 0.0000 1696.3788 -7486.1058 289.7189 -9182.4846 -7427.5896 300.8682 -3.2684 59.0653 29985.0400 -71.3594 -30.5078
ENERGY: 600000 0.7253 6.3636 0.1164 0.0000 -10638.5586 1441.3323 0.0000 0.0000 1708.7847 -7481.2363 291.8376 -9190.0210 -7437.1199 299.4898 -179.8975 -142.2288 30808.0708 -69.4932 -15.3042
ENERGY: 900000 1.2372 4.1861 0.3201 0.0000 -10562.8944 1424.7280 0.0000 0.0000 1769.1143 -7363.3088 302.1411 -9132.4231 -7429.4441 299.5939 -351.9296 -210.9526 30988.0858 -116.7121 -54.5775
ENERGY: 1200000 0.5139 8.1504 0.5389 0.0000 -10729.8087 1490.1576 0.0000 0.0000 1765.0421 -7465.4058 301.4456 -9230.4479 -7443.4066 300.6620 276.9646 325.0285 30359.6567 25.0654 96.3883
ENERGY: 1500000 1.4055 4.3299 1.0429 0.0000 -10631.2925 1396.7392 0.0000 0.0000 1738.5728 -7489.2023 296.9250 -9227.7750 -7455.1252 299.6157 -483.1250 -493.2152 30473.2650 -24.6061 48.5620
TCL: Running FEP window  18: Lambda1 0.1499999999999997 Lambda2 0.09999999999999969 [dLambda -0.05 ]
TCL: Setting parameter firsttimestep to 0
TCL: Setting parameter alchLambda to 0.1499999999999997
Info: NONBONDED TABLE R-SQUARED SPACING: 0.0625
Info: NONBONDED TABLE SIZE: 705 POINTS
TCL: Setting parameter alchLambda2 to 0.09999999999999969
Info: NONBONDED TABLE R-SQUARED SPACING: 0.0625
Info: NONBONDED TABLE SIZE: 705 POINTS
TCL: Running for 1500000 steps
ETITLE: TS BOND ANGLE DIHED IMPRP ELECT VDW BOUNDARY MISC KINETIC TOTAL TEMP POTENTIAL TOTALAVG TEMPAVG PRESSURE GPRESSURE VOLUME PRESSAVG GPRESSAVG
ENERGY: 0 1.4055 4.3299 1.0429 0.0000 -10631.2932 1396.6658 0.0000 0.0000 1737.6872 -7490.1619 296.7738 -9227.8491 -7490.1619 296.7738 -585.9044 -499.3018 30473.2650 -585.9044 -499.3018
ENERGY: 300000 0.1189 6.1759 1.2861 0.0000 -10575.3313 1408.8636 0.0000 0.0000 1764.0058 -7394.8811 301.2687 -9158.8869 -7458.6597 300.9940 -143.0198 -49.4906 30384.4643 -180.4606 -90.1330
ENERGY: 600000 2.5986 5.1868 0.3611 0.0000 -10701.5837 1416.0767 0.0000 0.0000 1734.3190 -7543.0415 296.1985 -9277.3605 -7487.1330 299.7326 -157.8642 -129.8605 30040.3458 -114.2487 -41.3430
ENERGY: 900000 1.3706 4.0771 0.8392 0.0000 -10615.8201 1378.8957 0.0000 0.0000 1781.6922 -7448.9454 304.2893 -9230.6376 -7479.4367 301.5939 -292.3692 -285.7920 29874.7250 -103.3998 -32.0231
ENERGY: 1200000 3.1686 5.9791 0.6592 0.0000 -10738.6012 1493.7738 0.0000 0.0000 1760.1609 -7474.8597 300.6120 -9235.0205 -7465.7833 301.3003 253.9471 314.7090 30357.4031 -82.3376 -6.6079
ENERGY: 1500000 0.6442 3.4486 0.4408 0.0000 -10729.2437 1490.6360 0.0000 0.0000 1786.6532 -7447.4209 305.1365 -9234.0741 -7462.3368 301.8978 677.7748 808.6395 29695.4031 -0.1697 79.3066
TCL: Running FEP window  19: Lambda1 0.09999999999999969 Lambda2 0.049999999999999684 [dLambda -0.05 ]
TCL: Setting parameter firsttimestep to 0
TCL: Setting parameter alchLambda to 0.09999999999999969
Info: NONBONDED TABLE R-SQUARED SPACING: 0.0625
Info: NONBONDED TABLE SIZE: 705 POINTS
TCL: Setting parameter alchLambda2 to 0.049999999999999684
Info: NONBONDED TABLE R-SQUARED SPACING: 0.0625
Info: NONBONDED TABLE SIZE: 705 POINTS
TCL: Running for 1500000 steps
ETITLE: TS BOND ANGLE DIHED IMPRP ELECT VDW BOUNDARY MISC KINETIC TOTAL TEMP POTENTIAL TOTALAVG TEMPAVG PRESSURE GPRESSURE VOLUME PRESSAVG GPRESSAVG
ENERGY: 0 0.6442 3.4486 0.4408 0.0000 -10729.2439 1490.7322 0.0000 0.0000 1785.7840 -7448.1942 304.9881 -9233.9782 -7448.1942 304.9881 725.6192 807.0574 29695.4031 725.6192 807.0574
ENERGY: 300000 0.4188 4.2536 0.2444 0.0000 -10691.2942 1425.7587 0.0000 0.0000 1785.9353 -7474.6835 305.0139 -9260.6187 -7482.9197 303.5662 -229.0056 -116.6761 30120.1918 204.6730 260.8364
ENERGY: 600000 0.5458 7.2051 0.1794 0.0000 -10639.5781 1409.1704 0.0000 0.0000 1776.4518 -7446.0255 303.3943 -9222.4774 -7497.5398 301.5969 -342.1452 -234.4518 30272.1751 43.7705 108.5533
ENERGY: 900000 0.8766 3.8621 1.4237 0.0000 -10528.9576 1354.7170 0.0000 0.0000 1763.3671 -7404.7111 301.1596 -9168.0782 -7478.5577 301.9161 -516.0406 -379.5699 30237.8674 -60.0107 19.1172
ENERGY: 1200000 0.5846 3.8260 0.8756 0.0000 -10638.3305 1407.0276 0.0000 0.0000 1756.1322 -7469.8845 299.9240 -9226.0167 -7483.4271 302.1237 -197.8897 -122.2521 29882.0922 -120.9249 -40.9386
ENERGY: 1500000 4.1693 5.2392 0.5203 0.0000 -10668.9371 1482.6910 0.0000 0.0000 1763.5784 -7412.7389 301.1957 -9176.3174 -7476.5390 302.1611 264.3342 335.7420 30518.9706 -107.9181 -28.9751
TCL: Running FEP window  20: Lambda1 0.049999999999999684 Lambda2 0.0    [dLambda -0.049999999999999684]
TCL: Setting parameter firsttimestep to 0
TCL: Setting parameter alchLambda to 0.049999999999999684
Info: NONBONDED TABLE R-SQUARED SPACING: 0.0625
Info: NONBONDED TABLE SIZE: 705 POINTS
TCL: Setting parameter alchLambda2 to 0.0
Info: NONBONDED TABLE R-SQUARED SPACING: 0.0625
Info: NONBONDED TABLE SIZE: 705 POINTS
TCL: Running for 1500000 steps
ETITLE: TS BOND ANGLE DIHED IMPRP ELECT VDW BOUNDARY MISC KINETIC TOTAL TEMP POTENTIAL TOTALAVG TEMPAVG PRESSURE GPRESSURE VOLUME PRESSAVG GPRESSAVG
ENERGY: 0 4.1693 5.2392 0.5203 0.0000 -10668.9376 1482.9736 0.0000 0.0000 1762.7060 -7413.3293 301.0467 -9176.0353 -7413.3293 301.0467 250.1743 335.9477 30518.9706 250.1743 335.9477
ENERGY: 300000 2.3326 4.3171 1.3842 0.0000 -10649.3877 1361.0994 0.0000 0.0000 1795.9904 -7484.2641 306.7312 -9280.2544 -7444.8435 302.0985 -504.7263 -493.6914 29924.6340 -84.7406 -39.2893
ENERGY: 600000 1.7558 7.7374 0.5304 0.0000 -10552.3923 1335.7630 0.0000 0.0000 1730.7246 -7475.8812 295.5847 -9206.6057 -7454.3037 300.8267 -822.0475 -752.6284 30298.7943 -38.1839 23.8225
ENERGY: 900000 0.5127 11.6863 0.9214 0.0000 -10599.9834 1407.5256 0.0000 0.0000 1785.4752 -7393.8622 304.9354 -9179.3375 -7454.7001 301.6905 190.3993 233.0122 29852.4990 63.3222 119.1701
ENERGY: 1200000 1.5486 5.2547 0.4331 0.0000 -10443.6007 1334.0810 0.0000 0.0000 1742.6709 -7359.6124 297.6249 -9102.2833 -7458.8878 300.5987 -793.5817 -695.3698 30806.9512 -104.9405 -41.7591
ENERGY: 1500000 1.2546 8.0420 0.1524 0.0000 -10690.9563 1478.9241 0.0000 0.0000 1703.0164 -7499.5668 290.8525 -9202.5832 -7456.2888 300.5256 151.3871 185.8570 30365.9416 -51.1395 6.9278
TCL: Exiting due to exit command.
