Info: SIMULATION PARAMETERS:
Info: TIMESTEP               2
Info: NUMBER OF STEPS        0
Info: STEPS PER CYCLE        10
Info: PERIODIC CELL BASIS 1  30.4168 0 0
Info: PERIODIC CELL BASIS 2  0 29.7027 0
Info: PERIODIC CELL BASIS 3  0 0 33.3013
Info: PERIODIC CELL CENTER   0 0 0
Info: WRAPPING WATERS AROUND PERIODIC BOUNDARIES ON OUTPUT.
Info: WRAPPING ALL CLUSTERS AROUND PERIODIC BOUNDARIES ON OUTPUT.
Info: FIRST LDB TIMESTEP     50
Info: LAST LDB TIMESTEP     -1
Info: HOM BACKGROUND SCALING 1
Info: PME BACKGROUND SCALING 1
Info: MIN ATOMS PER PATCH    40
Info: EMPTY PATCH LOAD       40 ATOMS
Info: VELOCITY FILE          mobley_8772587_equil.vel
Info: CENTER OF MASS MOVING INITIALLY? NO
Info: DIELECTRIC             1
Info: EXCLUDE                SCALED ONE-FOUR
Info: 1-4 ELECTROSTATICS SCALED BY 0.833333
Info: MODIFIED 1-4 VDW PARAMETERS WILL BE USED
Info: DCD FILENAME           mobley_8772587_prod.dcd
Info: DCD FREQUENCY          100000
Info: DCD FIRST STEP         100000
Info: DCD FILE WILL CONTAIN UNIT CELL DATA
Info: XST FILENAME           mobley_8772587_prod.xst
Info: XST FREQUENCY          100000
Info: NO VELOCITY DCD OUTPUT
Info: NO FORCE DCD OUTPUT
Info: OUTPUT FILENAME        mobley_8772587_prod
Info: BINARY OUTPUT FILES WILL BE USED
Info: RESTART FILENAME       mobley_8772587_prod.restart
Info: RESTART FREQUENCY      100000
Info: BINARY RESTART FILES WILL BE USED
Info: CUTOFF                 9
Info: PAIRLIST DISTANCE      11
Info: PAIRLIST SHRINK RATE   0.01
Info: PAIRLIST GROW RATE     0.01
Info: PAIRLIST TRIGGER       0.3
Info: PAIRLISTS PER CYCLE    2
Info: PAIRLISTS ENABLED
Info: MARGIN                 2
Info: HYDROGEN GROUP CUTOFF  2.5
Info: PATCH DIMENSION        15.5
Info: ENERGY OUTPUT STEPS    100000
Info: ENERGY EVALUATION STEPS    100000
Info: OUTPUT ENERGY PRECISION 4
Info: CROSSTERM ENERGY INCLUDED IN DIHEDRAL
Info: TIMING OUTPUT STEPS    1000000
Info: PRESSURE OUTPUT STEPS  100000
Info: ALCHEMICAL FEP ON
Info: FEP CURRENT LAMBDA VALUE     1
Info: FEP COMPARISON LAMBDA VALUE  0.95
Info: FEP INTRA-ALCHEMICAL NON-BONDED INTERACTIONS WILL BE RETAINED
Info: FEP INTRA-ALCHEMICAL BONDED INTERACTIONS WILL BE RETAINED
Info: FEP VDW SHIFTING COEFFICIENT 5
Info: FEP ELEC. ACTIVE FOR ANNIHILATED PARTICLES BETWEEN LAMBDA = 0 AND LAMBDA = 0.5
Info: FEP ELEC. ACTIVE FOR EXNIHILATED PARTICLES BETWEEN LAMBDA = 0.5 AND LAMBDA = 1
Info: FEP VDW ACTIVE FOR ANNIHILATED PARTICLES BETWEEN LAMBDA = 0 AND LAMBDA = 1
Info: FEP VDW ACTIVE FOR EXNIHILATED PARTICLES BETWEEN LAMBDA = 0 AND LAMBDA = 1
Info: FEP BOND ACTIVE FOR ANNIHILATED PARTICLES BETWEEN LAMBDA = 1 AND LAMBDA = 1
Info: FEP BOND ACTIVE FOR EXNIHILATED PARTICLES BETWEEN LAMBDA = 0 AND LAMBDA = 0
Info: LANGEVIN DYNAMICS ACTIVE
Info: LANGEVIN TEMPERATURE   300
Info: LANGEVIN USING BBK INTEGRATOR
Info: LANGEVIN DAMPING COEFFICIENT IS 1 INVERSE PS
Info: LANGEVIN DYNAMICS APPLIED TO HYDROGENS
Info: LANGEVIN PISTON PRESSURE CONTROL ACTIVE
Info:        TARGET PRESSURE IS 1.01325 BAR
Info:     OSCILLATION PERIOD IS 50 FS
Info:             DECAY TIME IS 25 FS
Info:     PISTON TEMPERATURE IS 300 K
Info:       PRESSURE CONTROL IS GROUP-BASED
Info:    INITIAL STRAIN RATE IS 0.00017152 0.00017152 0.00017152
Info:       CELL FLUCTUATION IS ISOTROPIC
Info: PARTICLE MESH EWALD (PME) ACTIVE
Info: PME TOLERANCE               1e-06
Info: PME EWALD COEFFICIENT       0.348832
Info: PME INTERPOLATION ORDER     4
Info: PME GRID DIMENSIONS         32 32 36
Info: PME MAXIMUM GRID SPACING    1
Info: PME CALCULATION WILL BE PERFORMED ON GPU
Info: FULL ELECTROSTATIC EVALUATION FREQUENCY      2
Info: USING VERLET I (r-RESPA) MTS SCHEME.
Info: C1 SPLITTING OF LONG RANGE ELECTROSTATICS
Info: PLACING ATOMS IN PATCHES BY HYDROGEN GROUPS
Info: RIGID BONDS TO HYDROGEN : ALL
Info:         ERROR TOLERANCE : 1e-08
Info:          MAX ITERATIONS : 100
Info: RIGID WATER USING SETTLE ALGORITHM
Info: RANDOM NUMBER SEED     1743840789
Info: USE HYDROGEN BONDS?    NO
Info: Using AMBER format force field!
Info: AMBER PARM FILE        mobley_8772587.prmtop
Info: COORDINATE PDB         mobley_8772587.pdb
Info: Exclusions will be read from PARM file!
Info: SCNB (VDW SCALING)     2
Info: USING ARITHMETIC MEAN TO COMBINE L-J SIGMA PARAMETERS
Info: BINARY COORDINATES     mobley_8772587_equil.coor
Info: SUMMARY OF PARAMETERS:
Info: 6 BONDS
Info: 7 ANGLES
Info:   7 HARMONIC
Info:   0 COSINE-BASED
Info: 6 DIHEDRAL
Info: 0 IMPROPER
Info: 0 CROSSTERM
Info: 0 VDW
Info: 21 VDW_PAIRS
Info: 0 NBTHOLE_PAIRS
Info: To read alchdata from file: mobley_8772587.pdb
Info: To read alchflag data from column: 5
Info: STRUCTURE SUMMARY:
Info: 2918 ATOMS
Info: 2917 BONDS
Info: 24 ANGLES
Info: 29 DIHEDRALS
Info: 0 IMPROPERS
Info: 0 CROSSTERMS
Info: 2968 EXCLUSIONS
Info: 2913 RIGID BONDS
Info: ALCH: 0 ATOMS TO DISAPPEAR IN FINAL STATE
Info: ALCH: 14 ATOMS TO APPEAR IN FINAL STATE
Info: 5841 DEGREES OF FREEDOM
Info: 973 HYDROGEN GROUPS
Info: 4 ATOMS IN LARGEST HYDROGEN GROUP
Info: 973 MIGRATION GROUPS
Info: 4 ATOMS IN LARGEST MIGRATION GROUP
Info: TOTAL MASS = 17623.5 amu
Info: TOTAL CHARGE = 0.000100031 e
Info: MASS DENSITY = 0.972703 g/cm^3
Info: ATOM DENSITY = 0.0969872 atoms/A^3
Info: ADDED 0 IMPLICIT EXCLUSIONS
Info: NONBONDED TABLE R-SQUARED SPACING: 0.0625
Info: NONBONDED TABLE SIZE: 705 POINTS
Info: REMOVING COM VELOCITY -0.0445617 -0.146786 0.059953
Info: Use 3D box decompostion in PME FFT.
Info: Updated CUDA force table with 4096 elements.
Info: Updated CUDA LJ table with 6 x 6 elements.
Info: Found 17 unique exclusion lists needing 36 bytes
TCL: Running for 1500000 steps
ETITLE: TS BOND ANGLE DIHED IMPRP ELECT VDW BOUNDARY MISC KINETIC TOTAL TEMP POTENTIAL TOTALAVG TEMPAVG PRESSURE GPRESSURE VOLUME PRESSAVG GPRESSAVG
ENERGY: 0 0.5026 9.4743 3.0414 0.0000 -10489.5442 1393.3705 0.0000 0.0000 1664.6225 -7418.5329 286.8263 -9083.1554 -7418.5329 286.8263 -32.7852 28.8782 30086.4497 -32.7852 28.8782
ENERGY: 300000 0.9530 2.8374 0.5920 0.0000 -10496.0950 1368.2851 0.0000 0.0000 1715.7614 -7407.6662 295.6379 -9123.4276 -7400.9883 294.7346 -320.1266 -236.9687 30177.6373 27.9933 87.1897
ENERGY: 600000 0.8494 5.9781 0.6969 0.0000 -10493.3527 1381.6426 0.0000 0.0000 1732.7793 -7371.4063 298.5702 -9104.1856 -7401.2139 296.1995 -228.7259 -93.2093 30102.5411 29.8193 103.1401
ENERGY: 900000 1.6223 4.3599 1.3787 0.0000 -10611.0603 1433.0359 0.0000 0.0000 1782.6399 -7388.0235 307.1615 -9170.6634 -7394.4699 298.3914 54.5713 116.4447 29946.8228 35.2626 108.9731
ENERGY: 1200000 2.8619 8.9490 1.2075 0.0000 -10613.8820 1426.1159 0.0000 0.0000 1768.3057 -7406.4420 304.6916 -9174.7477 -7407.8754 299.2328 7.0424 82.1919 29739.1251 -60.7076 13.8074
ENERGY: 1500000 3.6185 5.2662 1.1208 0.0000 -10537.7603 1356.5824 0.0000 0.0000 1722.8968 -7448.2756 296.8674 -9171.1724 -7407.6895 299.4979 -683.3244 -620.6438 30123.3051 -130.9365 -52.9419
TCL: Running FEP window   2: Lambda1 0.95   Lambda2 0.8999999999999999 [dLambda -0.050000000000000044]
TCL: Setting parameter firsttimestep to 0
TCL: Setting parameter alchLambda to 0.95
Info: NONBONDED TABLE R-SQUARED SPACING: 0.0625
Info: NONBONDED TABLE SIZE: 705 POINTS
TCL: Setting parameter alchLambda2 to 0.8999999999999999
Info: NONBONDED TABLE R-SQUARED SPACING: 0.0625
Info: NONBONDED TABLE SIZE: 705 POINTS
TCL: Running for 1500000 steps
ETITLE: TS BOND ANGLE DIHED IMPRP ELECT VDW BOUNDARY MISC KINETIC TOTAL TEMP POTENTIAL TOTALAVG TEMPAVG PRESSURE GPRESSURE VOLUME PRESSAVG GPRESSAVG
ENERGY: 0 3.6185 5.2662 1.1208 0.0000 -10537.3048 1357.1376 0.0000 0.0000 1722.0166 -7448.1451 296.7157 -9170.1617 -7448.1451 296.7157 -691.9259 -618.9815 30123.3051 -691.9259 -618.9815
ENERGY: 300000 0.7360 7.1145 2.5650 0.0000 -10649.8186 1478.6410 0.0000 0.0000 1778.2474 -7382.5147 306.4047 -9160.7621 -7390.2313 302.8165 401.3611 445.7867 30122.4140 -222.7316 -171.8245
ENERGY: 600000 1.2949 6.7143 1.2268 0.0000 -10634.4891 1426.2324 0.0000 0.0000 1692.5486 -7506.4721 291.6381 -9199.0207 -7409.4692 300.3196 -88.3844 -70.5042 30020.1688 -188.1571 -152.5199
ENERGY: 900000 1.7240 3.7802 2.6046 0.0000 -10654.8233 1480.6709 0.0000 0.0000 1741.9211 -7424.1225 300.1454 -9166.0436 -7419.0969 299.6685 648.6400 692.4072 29648.3204 -101.8199 -57.5169
ENERGY: 1200000 1.1440 12.5029 0.9651 0.0000 -10719.7549 1518.7909 0.0000 0.0000 1771.5419 -7414.8101 305.2493 -9186.3520 -7419.3811 299.7722 845.4434 928.7570 29858.6000 64.2982 108.4718
ENERGY: 1500000 0.9342 4.6267 1.3287 0.0000 -10528.8077 1365.6576 0.0000 0.0000 1731.6939 -7424.5665 298.3832 -9156.2605 -7412.8257 300.4694 -317.7724 -249.7944 29909.8588 -18.3629 27.3351
TCL: Running FEP window   3: Lambda1 0.8999999999999999 Lambda2 0.8499999999999999 [dLambda -0.050000000000000044]
TCL: Setting parameter firsttimestep to 0
TCL: Setting parameter alchLambda to 0.8999999999999999
Info: NONBONDED TABLE R-SQUARED SPACING: 0.0625
Info: NONBONDED TABLE SIZE: 705 POINTS
TCL: Setting parameter alchLambda2 to 0.8499999999999999
Info: NONBONDED TABLE R-SQUARED SPACING: 0.0625
Info: NONBONDED TABLE SIZE: 705 POINTS
TCL: Running for 1500000 steps
ETITLE: TS BOND ANGLE DIHED IMPRP ELECT VDW BOUNDARY MISC KINETIC TOTAL TEMP POTENTIAL TOTALAVG TEMPAVG PRESSURE GPRESSURE VOLUME PRESSAVG GPRESSAVG
ENERGY: 0 0.9342 4.6267 1.3287 0.0000 -10528.7249 1365.6535 0.0000 0.0000 1730.8174 -7425.3644 298.2321 -9156.1818 -7425.3644 298.2321 -340.9961 -260.0666 29909.8588 -340.9961 -260.0666
ENERGY: 300000 0.0907 7.3566 0.9918 0.0000 -10568.0464 1458.9023 0.0000 0.0000 1706.7188 -7393.9862 294.0798 -9100.7050 -7386.6745 296.3141 559.8632 605.7451 30000.2671 43.1767 122.7223
ENERGY: 600000 0.8994 6.1107 0.7981 0.0000 -10617.4946 1404.4556 0.0000 0.0000 1719.8446 -7485.3862 296.3414 -9205.2308 -7420.6505 294.7456 -117.6411 -153.8737 29832.4491 -70.2098 -10.4192
ENERGY: 900000 0.8422 4.8914 0.6881 0.0000 -10491.3372 1395.1221 0.0000 0.0000 1812.9084 -7276.8851 312.3770 -9089.7934 -7402.7795 297.2991 37.7423 155.3082 30056.6353 -96.0957 -26.5425
ENERGY: 1200000 2.0851 5.8495 0.9524 0.0000 -10445.4151 1333.9959 0.0000 0.0000 1726.1661 -7376.3660 297.4307 -9102.5321 -7398.7375 298.2551 -897.0178 -814.3147 30626.6100 -113.7426 -41.8301
ENERGY: 1500000 0.4950 5.7487 1.3814 0.0000 -10541.6629 1423.4881 0.0000 0.0000 1724.6474 -7385.9023 297.1690 -9110.5497 -7393.8140 298.7900 -82.4339 25.4668 30511.3893 -142.8597 -67.6337
TCL: Running FEP window   4: Lambda1 0.8499999999999999 Lambda2 0.7999999999999998 [dLambda -0.050000000000000044]
TCL: Setting parameter firsttimestep to 0
TCL: Setting parameter alchLambda to 0.8499999999999999
Info: NONBONDED TABLE R-SQUARED SPACING: 0.0625
Info: NONBONDED TABLE SIZE: 705 POINTS
TCL: Setting parameter alchLambda2 to 0.7999999999999998
Info: NONBONDED TABLE R-SQUARED SPACING: 0.0625
Info: NONBONDED TABLE SIZE: 705 POINTS
TCL: Running for 1500000 steps
ETITLE: TS BOND ANGLE DIHED IMPRP ELECT VDW BOUNDARY MISC KINETIC TOTAL TEMP POTENTIAL TOTALAVG TEMPAVG PRESSURE GPRESSURE VOLUME PRESSAVG GPRESSAVG
ENERGY: 0 0.4950 5.7487 1.3814 0.0000 -10541.5080 1423.1103 0.0000 0.0000 1723.7976 -7386.9749 297.0226 -9110.7725 -7386.9749 297.0226 -62.7617 5.7033 30511.3893 -62.7617 5.7033
ENERGY: 300000 0.2612 5.8439 0.9181 0.0000 -10523.5165 1387.0909 0.0000 0.0000 1700.9699 -7428.4324 293.0892 -9129.4023 -7440.2929 298.2481 -440.4580 -327.8721 30554.0904 198.5572 265.8502
ENERGY: 600000 1.8297 7.2567 0.8213 0.0000 -10535.4452 1389.1366 0.0000 0.0000 1764.1304 -7372.2706 303.9722 -9136.4009 -7429.6407 298.5305 -315.2562 -331.7387 30239.6481 -15.2339 27.8040
ENERGY: 900000 0.6723 8.2945 3.3298 0.0000 -10564.2301 1426.3977 0.0000 0.0000 1785.8184 -7339.7173 307.7092 -9125.5357 -7423.1876 299.1910 -73.2482 24.1836 30405.7185 -24.1058 29.1268
ENERGY: 1200000 1.2177 8.9802 2.0541 0.0000 -10457.6137 1317.3036 0.0000 0.0000 1763.5830 -7364.4751 303.8779 -9128.0581 -7410.0742 299.7455 -871.0135 -782.6819 30201.1301 -53.5943 1.5886
ENERGY: 1500000 1.1286 7.7351 0.9156 0.0000 -10452.9077 1349.4142 0.0000 0.0000 1754.3505 -7339.3638 302.2870 -9093.7143 -7406.8676 299.1370 -375.3709 -290.5761 30151.4362 -76.7386 -18.0588
TCL: Running FEP window   5: Lambda1 0.7999999999999998 Lambda2 0.7499999999999998 [dLambda -0.050000000000000044]
TCL: Setting parameter firsttimestep to 0
TCL: Setting parameter alchLambda to 0.7999999999999998
Info: NONBONDED TABLE R-SQUARED SPACING: 0.0625
Info: NONBONDED TABLE SIZE: 705 POINTS
TCL: Setting parameter alchLambda2 to 0.7499999999999998
Info: NONBONDED TABLE R-SQUARED SPACING: 0.0625
Info: NONBONDED TABLE SIZE: 705 POINTS
TCL: Running for 1500000 steps
ETITLE: TS BOND ANGLE DIHED IMPRP ELECT VDW BOUNDARY MISC KINETIC TOTAL TEMP POTENTIAL TOTALAVG TEMPAVG PRESSURE GPRESSURE VOLUME PRESSAVG GPRESSAVG
ENERGY: 0 1.1286 7.7351 0.9156 0.0000 -10452.5594 1349.6703 0.0000 0.0000 1753.5179 -7339.5920 302.1436 -9093.1098 -7339.5920 302.1436 -389.3232 -299.9975 30151.4362 -389.3232 -299.9975
ENERGY: 300000 0.3399 8.9805 0.9753 0.0000 -10708.5066 1517.2151 0.0000 0.0000 1827.8709 -7353.1249 314.9551 -9180.9958 -7346.8066 306.5167 728.8899 732.3170 30244.2515 128.2398 177.6030
ENERGY: 600000 0.6361 2.8249 0.9272 0.0000 -10613.5229 1430.4256 0.0000 0.0000 1752.5709 -7426.1381 301.9804 -9178.7090 -7371.3320 304.1875 -188.6236 -101.5442 30409.0373 -49.5932 8.6986
ENERGY: 900000 2.2259 5.2988 1.2326 0.0000 -10583.0609 1452.1522 0.0000 0.0000 1688.0218 -7434.1296 290.8581 -9122.1514 -7374.0194 302.9786 448.4914 542.4170 29849.4170 46.9183 105.3959
ENERGY: 1200000 2.3718 8.6915 1.9681 0.0000 -10459.0590 1393.1272 0.0000 0.0000 1753.3006 -7299.5998 302.1061 -9052.9004 -7365.4221 303.0065 -338.8712 -291.8180 30688.6126 27.3417 85.9993
ENERGY: 1500000 1.2748 5.8896 1.2837 0.0000 -10427.5117 1327.1364 0.0000 0.0000 1723.6322 -7368.2951 296.9941 -9091.9274 -7366.8400 301.7565 -817.8631 -711.7927 30487.0832 -68.3230 -8.4474
TCL: Running FEP window   6: Lambda1 0.7499999999999998 Lambda2 0.6999999999999997 [dLambda -0.050000000000000044]
TCL: Setting parameter firsttimestep to 0
TCL: Setting parameter alchLambda to 0.7499999999999998
Info: NONBONDED TABLE R-SQUARED SPACING: 0.0625
Info: NONBONDED TABLE SIZE: 705 POINTS
TCL: Setting parameter alchLambda2 to 0.6999999999999997
Info: NONBONDED TABLE R-SQUARED SPACING: 0.0625
Info: NONBONDED TABLE SIZE: 705 POINTS
TCL: Running for 1500000 steps
ETITLE: TS BOND ANGLE DIHED IMPRP ELECT VDW BOUNDARY MISC KINETIC TOTAL TEMP POTENTIAL TOTALAVG TEMPAVG PRESSURE GPRESSURE VOLUME PRESSAVG GPRESSAVG
ENERGY: 0 1.2748 5.8896 1.2837 0.0000 -10427.2589 1327.5030 0.0000 0.0000 1722.7629 -7368.5449 296.8443 -9091.3078 -7368.5449 296.8443 -798.9464 -716.5115 30487.0832 -798.9464 -716.5115
ENERGY: 300000 0.8007 4.8419 3.4716 0.0000 -10650.4997 1453.0715 0.0000 0.0000 1782.9555 -7405.3584 307.2159 -9188.3140 -7374.3610 302.1950 362.1087 404.3873 29693.9463 -137.5998 -72.7470
ENERGY: 600000 0.9797 6.3777 1.3941 0.0000 -10486.0231 1400.9813 0.0000 0.0000 1688.6801 -7387.6102 290.9716 -9076.2903 -7359.3429 301.4830 60.6392 113.5453 30123.9514 -137.3693 -79.0588
ENERGY: 900000 2.0949 6.0396 1.7146 0.0000 -10523.1148 1378.6849 0.0000 0.0000 1769.4123 -7365.1685 304.8823 -9134.5808 -7367.6948 302.0182 -373.5376 -375.8403 30196.6360 -235.7042 -186.2761
ENERGY: 1200000 1.2868 6.7539 2.2276 0.0000 -10449.1314 1333.7767 0.0000 0.0000 1707.8343 -7397.2521 294.2720 -9105.0864 -7371.9886 301.1415 -905.3499 -801.5723 30577.3216 -343.3529 -286.5996
ENERGY: 1500000 0.7024 5.5746 1.5752 0.0000 -10596.5413 1391.4271 0.0000 0.0000 1734.0412 -7463.2208 298.7876 -9197.2620 -7378.1656 300.3436 -32.2292 100.9885 29404.7645 -348.0473 -283.6377
TCL: Running FEP window   7: Lambda1 0.6999999999999997 Lambda2 0.6499999999999997 [dLambda -0.050000000000000044]
TCL: Setting parameter firsttimestep to 0
TCL: Setting parameter alchLambda to 0.6999999999999997
Info: NONBONDED TABLE R-SQUARED SPACING: 0.0625
Info: NONBONDED TABLE SIZE: 705 POINTS
TCL: Setting parameter alchLambda2 to 0.6499999999999997
Info: NONBONDED TABLE R-SQUARED SPACING: 0.0625
Info: NONBONDED TABLE SIZE: 705 POINTS
TCL: Running for 1500000 steps
ETITLE: TS BOND ANGLE DIHED IMPRP ELECT VDW BOUNDARY MISC KINETIC TOTAL TEMP POTENTIAL TOTALAVG TEMPAVG PRESSURE GPRESSURE VOLUME PRESSAVG GPRESSAVG
ENERGY: 0 0.7024 5.5746 1.5752 0.0000 -10596.0438 1391.3203 0.0000 0.0000 1733.1794 -7463.6919 298.6391 -9196.8712 -7463.6919 298.6391 2.8152 89.4403 29404.7645 2.8152 89.4403
ENERGY: 300000 0.7029 7.8544 0.6190 0.0000 -10673.6144 1416.2899 0.0000 0.0000 1777.3046 -7470.8436 306.2422 -9248.1482 -7428.4552 303.2437 -312.5616 -233.8153 30115.0781 -216.4042 -158.6038
ENERGY: 600000 0.4899 6.1916 1.0941 0.0000 -10596.9659 1406.8984 0.0000 0.0000 1714.2235 -7468.0685 295.3729 -9182.2920 -7405.5025 303.0907 -396.3724 -284.4279 30082.8163 -192.7360 -112.3786
ENERGY: 900000 1.7848 8.5405 1.2262 0.0000 -10462.1105 1335.6821 0.0000 0.0000 1794.4388 -7320.4381 309.1946 -9114.8770 -7391.9179 303.7213 -500.3185 -470.9184 30064.7137 -182.5842 -117.8956
ENERGY: 1200000 0.6752 6.5132 2.6876 0.0000 -10536.7511 1414.3967 0.0000 0.0000 1802.5820 -7309.8962 310.5977 -9112.4783 -7380.7918 303.7537 -48.3207 -5.1188 30190.6643 -222.9906 -160.6232
ENERGY: 1500000 0.8890 4.4081 2.2593 0.0000 -10507.0619 1372.3562 0.0000 0.0000 1750.2052 -7376.9440 301.5728 -9127.1493 -7383.0055 303.0110 -246.4207 -179.0126 29865.3428 -203.8438 -136.8438
TCL: Running FEP window   8: Lambda1 0.6499999999999997 Lambda2 0.5999999999999996 [dLambda -0.050000000000000044]
TCL: Setting parameter firsttimestep to 0
TCL: Setting parameter alchLambda to 0.6499999999999997
Info: NONBONDED TABLE R-SQUARED SPACING: 0.0625
Info: NONBONDED TABLE SIZE: 705 POINTS
TCL: Setting parameter alchLambda2 to 0.5999999999999996
Info: NONBONDED TABLE R-SQUARED SPACING: 0.0625
Info: NONBONDED TABLE SIZE: 705 POINTS
TCL: Running for 1500000 steps
ETITLE: TS BOND ANGLE DIHED IMPRP ELECT VDW BOUNDARY MISC KINETIC TOTAL TEMP POTENTIAL TOTALAVG TEMPAVG PRESSURE GPRESSURE VOLUME PRESSAVG GPRESSAVG
ENERGY: 0 0.8890 4.4082 2.2593 0.0000 -10506.6076 1372.6609 0.0000 0.0000 1749.3517 -7377.0386 301.4257 -9126.3903 -7377.0386 301.4257 -272.6178 -185.7044 29865.3428 -272.6178 -185.7044
ENERGY: 300000 2.6061 5.7676 1.6283 0.0000 -10316.2172 1340.0579 0.0000 0.0000 1779.4860 -7186.6714 306.6181 -8966.1574 -7325.4539 303.9177 -164.6446 -108.5800 30825.6208 -168.9873 -78.9681
ENERGY: 600000 0.9009 5.5644 0.9958 0.0000 -10522.3077 1330.2730 0.0000 0.0000 1760.1948 -7424.3788 303.2941 -9184.5736 -7356.8021 302.6346 -752.1472 -688.7823 30127.2918 -222.0811 -140.3525
ENERGY: 900000 0.3974 5.0988 4.7914 0.0000 -10563.8503 1522.1862 0.0000 0.0000 1754.0643 -7277.3122 302.2377 -9031.3765 -7365.6227 300.7175 1236.8893 1235.7807 30082.1914 -77.5410 -1.8822
ENERGY: 1200000 0.1907 5.8513 1.8681 0.0000 -10690.7243 1465.1533 0.0000 0.0000 1718.6084 -7499.0526 296.1284 -9217.6609 -7372.4878 301.3974 359.3855 443.9060 29592.8145 -24.5888 52.6340
ENERGY: 1500000 1.4968 7.9312 1.1350 0.0000 -10492.0241 1431.7975 0.0000 0.0000 1704.2808 -7345.3830 293.6597 -9049.6637 -7372.2497 300.8628 101.3040 181.6817 30277.0681 -26.5253 51.9003
TCL: Running FEP window   9: Lambda1 0.5999999999999996 Lambda2 0.5499999999999996 [dLambda -0.050000000000000044]
TCL: Setting parameter firsttimestep to 0
TCL: Setting parameter alchLambda to 0.5999999999999996
Info: NONBONDED TABLE R-SQUARED SPACING: 0.0625
Info: NONBONDED TABLE SIZE: 705 POINTS
TCL: Setting parameter alchLambda2 to 0.5499999999999996
Info: NONBONDED TABLE R-SQUARED SPACING: 0.0625
Info: NONBONDED TABLE SIZE: 705 POINTS
TCL: Running for 1500000 steps
ETITLE: TS BOND ANGLE DIHED IMPRP ELECT VDW BOUNDARY MISC KINETIC TOTAL TEMP POTENTIAL TOTALAVG TEMPAVG PRESSURE GPRESSURE VOLUME PRESSAVG GPRESSAVG
ENERGY: 0 1.4968 7.9312 1.1350 0.0000 -10491.7993 1431.7260 0.0000 0.0000 1703.4145 -7346.0959 293.5104 -9049.5104 -7346.0959 293.5104 101.3282 171.2462 30277.0681 101.3282 171.2462
ENERGY: 300000 1.5736 10.0603 1.6558 0.0000 -10567.3453 1374.9546 0.0000 0.0000 1808.8627 -7370.2382 311.6799 -9179.1010 -7390.6301 301.3933 -360.8497 -296.4661 29856.8152 51.7424 113.2657
ENERGY: 600000 0.2762 6.2317 2.4854 0.0000 -10650.1817 1483.6723 0.0000 0.0000 1773.7836 -7383.7325 305.6355 -9157.5161 -7388.7572 302.8263 668.2932 719.6985 29858.6524 16.3975 84.3451
ENERGY: 900000 0.3206 3.4147 1.2178 0.0000 -10625.7097 1446.6533 0.0000 0.0000 1785.8468 -7388.2564 307.7141 -9174.1033 -7393.9670 303.3931 394.9417 443.7742 29464.0927 14.4096 83.1894
ENERGY: 1200000 2.3344 3.2498 0.5815 0.0000 -10515.4866 1339.8831 0.0000 0.0000 1756.1394 -7413.2985 302.5953 -9169.4379 -7395.1097 302.3231 -860.3208 -741.6680 29959.2988 -94.7826 -28.3415
ENERGY: 1500000 0.1994 5.9832 0.9223 0.0000 -10573.2218 1437.7657 0.0000 0.0000 1752.2013 -7376.1500 301.9167 -9128.3513 -7392.6192 301.7766 156.7458 207.3841 30060.0680 -59.8569 5.1202
TCL: Running FEP window  10: Lambda1 0.5499999999999996 Lambda2 0.4999999999999996 [dLambda -0.04999999999999999]
TCL: Setting parameter firsttimestep to 0
TCL: Setting parameter alchLambda to 0.5499999999999996
Info: NONBONDED TABLE R-SQUARED SPACING: 0.0625
Info: NONBONDED TABLE SIZE: 705 POINTS
TCL: Setting parameter alchLambda2 to 0.4999999999999996
Info: NONBONDED TABLE R-SQUARED SPACING: 0.0625
Info: NONBONDED TABLE SIZE: 705 POINTS
TCL: Running for 1500000 steps
ETITLE: TS BOND ANGLE DIHED IMPRP ELECT VDW BOUNDARY MISC KINETIC TOTAL TEMP POTENTIAL TOTALAVG TEMPAVG PRESSURE GPRESSURE VOLUME PRESSAVG GPRESSAVG
ENERGY: 0 0.1994 5.9832 0.9223 0.0000 -10573.3494 1438.3158 0.0000 0.0000 1751.3130 -7376.6158 301.7637 -9127.9288 -7376.6158 301.7637 119.5866 203.3316 30060.0680 119.5866 203.3316
ENERGY: 300000 1.5639 6.6590 0.8038 0.0000 -10651.4981 1460.8416 0.0000 0.0000 1798.8980 -7382.7318 309.9629 -9181.6297 -7393.8488 301.6384 272.8791 237.2822 30059.4408 372.5011 399.0996
ENERGY: 600000 1.7271 4.5613 0.9024 0.0000 -10412.0477 1306.6184 0.0000 0.0000 1742.3897 -7355.8488 300.2261 -9098.2386 -7390.1519 301.1352 -957.4036 -902.8476 30189.4102 -61.6478 -15.9679
ENERGY: 900000 0.7182 5.2942 1.0887 0.0000 -10653.1824 1479.8833 0.0000 0.0000 1750.9535 -7415.2445 301.7017 -9166.1980 -7392.4985 300.9841 107.6495 149.8881 30291.1554 -7.0091 40.5191
ENERGY: 1200000 0.1391 4.6024 1.7852 0.0000 -10534.0630 1339.7777 0.0000 0.0000 1722.9992 -7464.7594 296.8850 -9187.7586 -7393.0621 300.0744 -629.8912 -592.9963 29892.2061 -99.4349 -52.5274
ENERGY: 1500000 0.3614 7.0341 1.0120 0.0000 -10513.4835 1388.5511 0.0000 0.0000 1771.1557 -7345.3692 305.1827 -9116.5249 -7401.3192 300.0029 -30.1219 51.4759 29965.0141 4.6135 48.7680
TCL: Running FEP window  11: Lambda1 0.4999999999999996 Lambda2 0.4499999999999996 [dLambda -0.04999999999999999]
TCL: Setting parameter firsttimestep to 0
TCL: Setting parameter alchLambda to 0.4999999999999996
Info: NONBONDED TABLE R-SQUARED SPACING: 0.0625
Info: NONBONDED TABLE SIZE: 705 POINTS
TCL: Setting parameter alchLambda2 to 0.4499999999999996
Info: NONBONDED TABLE R-SQUARED SPACING: 0.0625
Info: NONBONDED TABLE SIZE: 705 POINTS
TCL: Running for 1500000 steps
ETITLE: TS BOND ANGLE DIHED IMPRP ELECT VDW BOUNDARY MISC KINETIC TOTAL TEMP POTENTIAL TOTALAVG TEMPAVG PRESSURE GPRESSURE VOLUME PRESSAVG GPRESSAVG
ENERGY: 0 0.3614 7.0341 1.0120 0.0000 -10513.3766 1389.1012 0.0000 0.0000 1770.2963 -7345.5717 305.0346 -9115.8680 -7345.5717 305.0346 -25.4363 54.3226 29965.0141 -25.4363 54.3226
ENERGY: 300000 1.0496 11.8998 1.6036 0.0000 -10604.3359 1451.8716 0.0000 0.0000 1756.7684 -7381.1428 302.7037 -9137.9112 -7355.2095 301.4856 430.5601 522.9872 29752.2562 297.0175 370.8467
ENERGY: 600000 1.2092 6.2603 0.7775 0.0000 -10609.5887 1512.8494 0.0000 0.0000 1695.7375 -7392.7549 292.1876 -9088.4924 -7386.4995 300.3111 803.8418 897.6611 30031.8014 249.1668 328.4475
ENERGY: 900000 0.3070 5.7097 0.8884 0.0000 -10614.4252 1482.5170 0.0000 0.0000 1717.8037 -7407.1993 295.9898 -9125.0031 -7400.0736 298.9605 385.2142 418.6640 30433.5551 196.7691 272.9773
ENERGY: 1200000 0.5843 5.7025 0.7297 0.0000 -10686.9033 1453.6176 0.0000 0.0000 1767.4060 -7458.8632 304.5366 -9226.2692 -7403.8989 299.5931 238.4022 321.8870 29557.2499 213.8048 282.3151
ENERGY: 1500000 2.5672 4.1679 0.9537 0.0000 -10512.1846 1419.2071 0.0000 0.0000 1709.5725 -7375.7161 294.5715 -9085.2886 -7390.2757 299.8843 -5.2892 72.5519 30143.3373 149.9919 218.3094
TCL: Running FEP window  12: Lambda1 0.4499999999999996 Lambda2 0.39999999999999963 [dLambda -0.04999999999999999]
TCL: Setting parameter firsttimestep to 0
TCL: Setting parameter alchLambda to 0.4499999999999996
Info: NONBONDED TABLE R-SQUARED SPACING: 0.0625
Info: NONBONDED TABLE SIZE: 705 POINTS
TCL: Setting parameter alchLambda2 to 0.39999999999999963
Info: NONBONDED TABLE R-SQUARED SPACING: 0.0625
Info: NONBONDED TABLE SIZE: 705 POINTS
TCL: Running for 1500000 steps
ETITLE: TS BOND ANGLE DIHED IMPRP ELECT VDW BOUNDARY MISC KINETIC TOTAL TEMP POTENTIAL TOTALAVG TEMPAVG PRESSURE GPRESSURE VOLUME PRESSAVG GPRESSAVG
ENERGY: 0 2.5672 4.1679 0.9537 0.0000 -10512.1841 1419.4887 0.0000 0.0000 1708.6526 -7376.3539 294.4130 -9085.0065 -7376.3539 294.4130 -22.0466 69.6042 30143.3373 -22.0466 69.6042
ENERGY: 300000 0.3754 6.3151 2.1361 0.0000 -10650.2162 1466.5560 0.0000 0.0000 1693.0531 -7481.7804 291.7251 -9174.8335 -7391.4424 297.3868 -17.9907 80.2237 30222.9661 -149.3647 -101.6925
ENERGY: 600000 0.9212 3.7281 1.8829 0.0000 -10395.0751 1343.0991 0.0000 0.0000 1740.8709 -7304.5728 299.9644 -9045.4436 -7363.9492 299.0387 -260.4082 -237.3354 30013.8363 -180.0507 -137.9477
ENERGY: 900000 1.0721 6.5854 1.5675 0.0000 -10596.8497 1424.9641 0.0000 0.0000 1759.6284 -7403.0322 303.1965 -9162.6607 -7359.5559 299.6281 -52.3718 -36.9992 29880.5040 -210.3882 -158.2154
ENERGY: 1200000 0.1065 5.3887 1.0572 0.0000 -10520.9683 1395.2331 0.0000 0.0000 1772.7895 -7346.3933 305.4642 -9119.1828 -7366.7043 298.6403 -247.6691 -199.2795 30255.4874 -115.1350 -58.9158
ENERGY: 1500000 0.7081 5.8762 0.7181 0.0000 -10589.2424 1407.6376 0.0000 0.0000 1714.2805 -7460.0219 295.3827 -9174.3024 -7376.9592 298.5659 -439.2289 -356.3096 30358.5764 -111.7339 -49.8631
TCL: Running FEP window  13: Lambda1 0.39999999999999963 Lambda2 0.34999999999999964 [dLambda -0.04999999999999999]
TCL: Setting parameter firsttimestep to 0
TCL: Setting parameter alchLambda to 0.39999999999999963
Info: NONBONDED TABLE R-SQUARED SPACING: 0.0625
Info: NONBONDED TABLE SIZE: 705 POINTS
TCL: Setting parameter alchLambda2 to 0.34999999999999964
Info: NONBONDED TABLE R-SQUARED SPACING: 0.0625
Info: NONBONDED TABLE SIZE: 705 POINTS
TCL: Running for 1500000 steps
ETITLE: TS BOND ANGLE DIHED IMPRP ELECT VDW BOUNDARY MISC KINETIC TOTAL TEMP POTENTIAL TOTALAVG TEMPAVG PRESSURE GPRESSURE VOLUME PRESSAVG GPRESSAVG
ENERGY: 0 0.7081 5.8762 0.7181 0.0000 -10589.2437 1407.6110 0.0000 0.0000 1713.3905 -7460.9399 295.2293 -9174.3303 -7460.9399 295.2293 -444.7323 -362.6715 30358.5764 -444.7323 -362.6715
ENERGY: 300000 1.7007 6.1996 1.2927 0.0000 -10552.7571 1410.9390 0.0000 0.0000 1738.2473 -7394.3778 299.5124 -9132.6251 -7453.1307 298.7189 -1.9627 94.7313 29799.9131 -111.7725 -6.0648
ENERGY: 600000 0.1469 4.8895 0.8980 0.0000 -10584.0234 1425.3265 0.0000 0.0000 1728.2400 -7424.5225 297.7880 -9152.7625 -7422.0227 298.3669 -194.5335 -122.2266 30074.1200 15.5448 112.3517
ENERGY: 900000 2.7671 4.0207 0.9140 0.0000 -10543.8897 1446.4011 0.0000 0.0000 1764.1050 -7325.6818 303.9678 -9089.7869 -7398.0259 299.5641 392.7376 446.1189 29696.3120 12.3036 104.7314
ENERGY: 1200000 2.5196 5.4004 1.4052 0.0000 -10456.9318 1325.8678 0.0000 0.0000 1782.1579 -7339.5809 307.0785 -9121.7387 -7404.5030 299.2962 -574.2386 -503.2304 29709.9433 75.5658 167.4473
ENERGY: 1500000 2.6083 4.2198 0.7423 0.0000 -10448.9764 1372.8599 0.0000 0.0000 1756.5759 -7311.9702 302.6705 -9068.5461 -7396.4966 299.5715 -132.5695 -49.5521 30111.3321 21.0315 112.8375
TCL: Running FEP window  14: Lambda1 0.34999999999999964 Lambda2 0.29999999999999966 [dLambda -0.04999999999999999]
TCL: Setting parameter firsttimestep to 0
TCL: Setting parameter alchLambda to 0.34999999999999964
Info: NONBONDED TABLE R-SQUARED SPACING: 0.0625
Info: NONBONDED TABLE SIZE: 705 POINTS
TCL: Setting parameter alchLambda2 to 0.29999999999999966
Info: NONBONDED TABLE R-SQUARED SPACING: 0.0625
Info: NONBONDED TABLE SIZE: 705 POINTS
TCL: Running for 1500000 steps
ETITLE: TS BOND ANGLE DIHED IMPRP ELECT VDW BOUNDARY MISC KINETIC TOTAL TEMP POTENTIAL TOTALAVG TEMPAVG PRESSURE GPRESSURE VOLUME PRESSAVG GPRESSAVG
ENERGY: 0 2.6083 4.2198 0.7423 0.0000 -10448.9752 1373.2176 0.0000 0.0000 1755.7223 -7312.4649 302.5234 -9068.1872 -7312.4649 302.5234 -132.2596 -54.6683 30111.3321 -132.2596 -54.6683
ENERGY: 300000 0.7003 6.2901 1.4976 0.0000 -10444.1958 1352.3845 0.0000 0.0000 1704.0777 -7379.2456 293.6247 -9083.3233 -7376.5276 299.5133 -245.9195 -236.6250 29895.5558 72.3025 133.5490
ENERGY: 600000 1.4895 7.1944 1.8984 0.0000 -10651.8498 1452.8993 0.0000 0.0000 1691.7803 -7496.5879 291.5058 -9188.3681 -7399.1499 297.1772 110.2239 166.3602 29689.5906 101.7126 163.0043
ENERGY: 900000 0.2226 5.2295 0.9049 0.0000 -10577.6151 1413.5131 0.0000 0.0000 1785.3377 -7372.4073 307.6264 -9157.7450 -7385.6479 299.4343 -169.8564 -74.3077 30254.5975 102.6046 154.5542
ENERGY: 1200000 1.5721 3.7955 0.8655 0.0000 -10645.0805 1484.9807 0.0000 0.0000 1713.3885 -7440.4781 295.2290 -9153.8667 -7399.4410 298.8971 399.0249 495.4999 29849.6627 123.9256 176.1018
ENERGY: 1500000 0.8739 4.9309 2.0381 0.0000 -10743.2933 1520.8668 0.0000 0.0000 1755.3498 -7459.2338 302.4592 -9214.5836 -7398.8427 299.9152 547.8465 640.5322 29968.0648 103.8192 163.1590
TCL: Running FEP window  15: Lambda1 0.29999999999999966 Lambda2 0.24999999999999967 [dLambda -0.04999999999999999]
TCL: Setting parameter firsttimestep to 0
TCL: Setting parameter alchLambda to 0.29999999999999966
Info: NONBONDED TABLE R-SQUARED SPACING: 0.0625
Info: NONBONDED TABLE SIZE: 705 POINTS
TCL: Setting parameter alchLambda2 to 0.24999999999999967
Info: NONBONDED TABLE R-SQUARED SPACING: 0.0625
Info: NONBONDED TABLE SIZE: 705 POINTS
TCL: Running for 1500000 steps
ETITLE: TS BOND ANGLE DIHED IMPRP ELECT VDW BOUNDARY MISC KINETIC TOTAL TEMP POTENTIAL TOTALAVG TEMPAVG PRESSURE GPRESSURE VOLUME PRESSAVG GPRESSAVG
ENERGY: 0 0.8739 4.9309 2.0381 0.0000 -10743.2939 1520.8517 0.0000 0.0000 1754.4794 -7460.1197 302.3093 -9214.5992 -7460.1197 302.3093 546.4543 637.7654 29968.0648 546.4543 637.7654
ENERGY: 300000 0.3042 6.4432 1.6645 0.0000 -10580.6376 1442.1663 0.0000 0.0000 1767.5005 -7362.5589 304.5529 -9130.0594 -7410.0633 300.3110 218.2572 205.7412 30080.9752 -109.6790 -52.2239
ENERGY: 600000 1.4298 8.6012 0.9664 0.0000 -10493.3228 1335.0634 0.0000 0.0000 1742.0368 -7405.2252 300.1653 -9147.2619 -7395.5432 300.1314 -773.7172 -648.8674 29889.4971 -245.1435 -186.9500
ENERGY: 900000 1.0429 5.1584 1.3334 0.0000 -10466.2639 1347.4661 0.0000 0.0000 1736.3046 -7374.9584 299.1776 -9111.2630 -7386.1301 300.5327 -408.7338 -371.7974 30045.2017 -238.1778 -170.4379
ENERGY: 1200000 1.2864 4.9673 1.5174 0.0000 -10557.8451 1433.9364 0.0000 0.0000 1723.0417 -7393.0960 296.8923 -9116.1376 -7384.5139 299.9794 223.7545 287.3795 29852.6162 -267.5196 -198.5098
ENERGY: 1500000 0.8157 5.9739 1.3000 0.0000 -10642.2578 1492.3114 0.0000 0.0000 1733.5439 -7408.3129 298.7019 -9141.8568 -7392.4889 299.5315 328.3971 410.3211 30031.9055 -171.0203 -102.1253
TCL: Running FEP window  16: Lambda1 0.24999999999999967 Lambda2 0.19999999999999968 [dLambda -0.04999999999999999]
TCL: Setting parameter firsttimestep to 0
TCL: Setting parameter alchLambda to 0.24999999999999967
Info: NONBONDED TABLE R-SQUARED SPACING: 0.0625
Info: NONBONDED TABLE SIZE: 705 POINTS
TCL: Setting parameter alchLambda2 to 0.19999999999999968
Info: NONBONDED TABLE R-SQUARED SPACING: 0.0625
Info: NONBONDED TABLE SIZE: 705 POINTS
TCL: Running for 1500000 steps
ETITLE: TS BOND ANGLE DIHED IMPRP ELECT VDW BOUNDARY MISC KINETIC TOTAL TEMP POTENTIAL TOTALAVG TEMPAVG PRESSURE GPRESSURE VOLUME PRESSAVG GPRESSAVG
ENERGY: 0 0.8157 5.9739 1.3000 0.0000 -10642.2553 1492.6901 0.0000 0.0000 1732.6363 -7408.8394 298.5455 -9141.4757 -7408.8394 298.5455 312.9772 409.4099 30031.9055 312.9772 409.4099
ENERGY: 300000 2.4417 3.5865 0.9335 0.0000 -10591.1585 1484.8638 0.0000 0.0000 1780.5020 -7318.8310 306.7931 -9099.3330 -7414.0729 298.0737 599.2208 682.8264 29812.9280 80.1652 138.7059
ENERGY: 600000 1.4205 6.0319 1.2916 0.0000 -10598.1228 1459.5383 0.0000 0.0000 1779.0838 -7350.7567 306.5488 -9129.8405 -7410.6885 298.9097 487.9492 573.0194 29585.9486 14.3758 76.1951
ENERGY: 900000 1.3443 5.7187 1.8248 0.0000 -10633.5707 1498.9408 0.0000 0.0000 1699.0727 -7426.6695 292.7623 -9125.7422 -7403.3364 298.4030 341.9237 377.6321 30397.5419 -8.7630 51.9163
ENERGY: 1200000 1.3781 5.8397 1.3905 0.0000 -10461.4876 1371.6445 0.0000 0.0000 1707.4898 -7373.7451 294.2126 -9081.2348 -7403.1530 298.4549 -445.7457 -375.3006 30341.0626 -21.7883 37.0970
ENERGY: 1500000 0.6899 5.5081 1.1771 0.0000 -10582.7381 1479.0749 0.0000 0.0000 1711.4412 -7384.8469 294.8935 -9096.2882 -7403.3649 298.5061 170.0527 237.8125 30284.5468 -20.2798 38.5037
TCL: Running FEP window  17: Lambda1 0.19999999999999968 Lambda2 0.1499999999999997 [dLambda -0.04999999999999999]
TCL: Setting parameter firsttimestep to 0
TCL: Setting parameter alchLambda to 0.19999999999999968
Info: NONBONDED TABLE R-SQUARED SPACING: 0.0625
Info: NONBONDED TABLE SIZE: 705 POINTS
TCL: Setting parameter alchLambda2 to 0.1499999999999997
Info: NONBONDED TABLE R-SQUARED SPACING: 0.0625
Info: NONBONDED TABLE SIZE: 705 POINTS
TCL: Running for 1500000 steps
ETITLE: TS BOND ANGLE DIHED IMPRP ELECT VDW BOUNDARY MISC KINETIC TOTAL TEMP POTENTIAL TOTALAVG TEMPAVG PRESSURE GPRESSURE VOLUME PRESSAVG GPRESSAVG
ENERGY: 0 0.6899 5.5081 1.1771 0.0000 -10582.7387 1479.4834 0.0000 0.0000 1710.5768 -7385.3034 294.7445 -9095.8802 -7385.3034 294.7445 160.6692 236.2244 30284.5468 160.6692 236.2244
ENERGY: 300000 2.2637 3.9825 1.6190 0.0000 -10604.2945 1441.2986 0.0000 0.0000 1759.2653 -7395.8654 303.1339 -9155.1308 -7403.3514 299.0283 215.2422 199.9395 29837.4336 -25.4901 9.3659
ENERGY: 600000 1.4646 9.7570 2.1769 0.0000 -10603.4519 1413.6228 0.0000 0.0000 1727.5231 -7448.9073 297.6645 -9176.4305 -7410.5173 298.8628 -445.7289 -376.9739 30120.6379 -204.7899 -158.7844
ENERGY: 900000 1.1085 4.4749 1.1185 0.0000 -10751.8628 1495.2242 0.0000 0.0000 1778.0448 -7471.8918 306.3698 -9249.9366 -7405.6197 300.5747 237.9163 314.1362 29853.3642 -90.4240 -36.1610
ENERGY: 1200000 2.3370 4.6255 1.2637 0.0000 -10498.8018 1359.1488 0.0000 0.0000 1727.4625 -7403.9643 297.6541 -9131.4269 -7399.5385 300.2049 -287.2285 -262.1810 29756.8229 -51.1708 6.0088
ENERGY: 1500000 2.2211 6.1036 1.2183 0.0000 -10556.8381 1405.8680 0.0000 0.0000 1770.6965 -7370.7306 305.1036 -9141.4270 -7403.6493 300.0436 -82.6179 -15.7029 29711.6439 -118.7409 -59.7773
TCL: Running FEP window  18: Lambda1 0.1499999999999997 Lambda2 0.09999999999999969 [dLambda -0.05 ]
TCL: Setting parameter firsttimestep to 0
TCL: Setting parameter alchLambda to 0.1499999999999997
Info: NONBONDED TABLE R-SQUARED SPACING: 0.0625
Info: NONBONDED TABLE SIZE: 705 POINTS
TCL: Setting parameter alchLambda2 to 0.09999999999999969
Info: NONBONDED TABLE R-SQUARED SPACING: 0.0625
Info: NONBONDED TABLE SIZE: 705 POINTS
TCL: Running for 1500000 steps
ETITLE: TS BOND ANGLE DIHED IMPRP ELECT VDW BOUNDARY MISC KINETIC TOTAL TEMP POTENTIAL TOTALAVG TEMPAVG PRESSURE GPRESSURE VOLUME PRESSAVG GPRESSAVG
ENERGY: 0 2.2211 6.1036 1.2183 0.0000 -10556.8366 1405.9659 0.0000 0.0000 1769.8118 -7371.5159 304.9511 -9141.3276 -7371.5159 304.9511 -115.8310 -20.9110 29711.6439 -115.8310 -20.9110
ENERGY: 300000 3.7628 6.2591 1.0992 0.0000 -10555.5886 1479.3989 0.0000 0.0000 1726.4705 -7338.5982 297.4831 -9065.0687 -7387.6852 299.4931 727.1506 658.6887 29916.5495 77.3117 120.4021
ENERGY: 600000 1.9610 5.6474 0.8867 0.0000 -10767.4606 1518.5810 0.0000 0.0000 1737.2043 -7503.1801 299.3326 -9240.3844 -7396.0462 300.4082 474.8414 574.7989 29631.9262 108.5263 136.0455
ENERGY: 900000 0.4921 3.5689 1.1515 0.0000 -10695.7786 1512.9563 0.0000 0.0000 1719.0635 -7458.5462 296.2069 -9177.6097 -7393.6524 300.4907 563.6829 621.6275 29877.9431 121.8981 161.6314
ENERGY: 1200000 1.9711 4.6531 0.8618 0.0000 -10703.7281 1475.2984 0.0000 0.0000 1711.5245 -7509.4192 294.9078 -9220.9437 -7407.8662 300.5019 110.4983 253.3751 29632.5551 136.0872 184.7357
ENERGY: 1500000 2.3369 3.9597 2.1497 0.0000 -10662.0703 1522.6451 0.0000 0.0000 1804.0943 -7326.8846 310.8583 -9130.9789 -7404.3414 301.9278 1063.9487 1070.4827 29518.7725 133.6332 179.6089
TCL: Running FEP window  19: Lambda1 0.09999999999999969 Lambda2 0.049999999999999684 [dLambda -0.05 ]
TCL: Setting parameter firsttimestep to 0
TCL: Setting parameter alchLambda to 0.09999999999999969
Info: NONBONDED TABLE R-SQUARED SPACING: 0.0625
Info: NONBONDED TABLE SIZE: 705 POINTS
TCL: Setting parameter alchLambda2 to 0.049999999999999684
Info: NONBONDED TABLE R-SQUARED SPACING: 0.0625
Info: NONBONDED TABLE SIZE: 705 POINTS
TCL: Running for 1500000 steps
ETITLE: TS BOND ANGLE DIHED IMPRP ELECT VDW BOUNDARY MISC KINETIC TOTAL TEMP POTENTIAL TOTALAVG TEMPAVG PRESSURE GPRESSURE VOLUME PRESSAVG GPRESSAVG
ENERGY: 0 2.3369 3.9597 2.1497 0.0000 -10662.0716 1522.6808 0.0000 0.0000 1803.2257 -7327.7188 310.7086 -9130.9445 -7327.7188 310.7086 981.6828 1066.9463 29518.7725 981.6828 1066.9463
ENERGY: 300000 1.2283 4.2156 1.0990 0.0000 -10648.1374 1488.3696 0.0000 0.0000 1750.3148 -7402.9101 301.5917 -9153.2249 -7377.3218 307.0133 339.9557 390.6387 30078.3114 492.9806 541.1094
ENERGY: 600000 0.1576 5.8822 1.1057 0.0000 -10563.8123 1395.1696 0.0000 0.0000 1716.9194 -7444.5778 295.8374 -9161.4972 -7383.3417 304.7132 -409.2111 -354.1108 30125.7902 290.1846 351.2492
ENERGY: 900000 2.0283 4.0974 3.0379 0.0000 -10691.3094 1526.1419 0.0000 0.0000 1720.7066 -7435.2972 296.4900 -9156.0038 -7399.9042 302.7112 621.1197 694.6171 29813.7024 298.0865 369.4796
ENERGY: 1200000 1.3049 6.6400 0.9146 0.0000 -10702.5162 1505.3800 0.0000 0.0000 1782.2671 -7406.0096 307.0973 -9188.2767 -7401.2859 302.6446 740.7562 817.9781 29715.2840 315.4268 385.1199
ENERGY: 1500000 1.0267 6.8691 1.6832 0.0000 -10409.1981 1311.0316 0.0000 0.0000 1768.8950 -7319.6925 304.7932 -9088.5874 -7390.6316 302.6179 -766.9781 -761.0271 30008.1644 175.6422 238.4892
TCL: Running FEP window  20: Lambda1 0.049999999999999684 Lambda2 0.0    [dLambda -0.049999999999999684]
TCL: Setting parameter firsttimestep to 0
TCL: Setting parameter alchLambda to 0.049999999999999684
Info: NONBONDED TABLE R-SQUARED SPACING: 0.0625
Info: NONBONDED TABLE SIZE: 705 POINTS
TCL: Setting parameter alchLambda2 to 0.0
Info: NONBONDED TABLE R-SQUARED SPACING: 0.0625
Info: NONBONDED TABLE SIZE: 705 POINTS
TCL: Running for 1500000 steps
ETITLE: TS BOND ANGLE DIHED IMPRP ELECT VDW BOUNDARY MISC KINETIC TOTAL TEMP POTENTIAL TOTALAVG TEMPAVG PRESSURE GPRESSURE VOLUME PRESSAVG GPRESSAVG
ENERGY: 0 1.0267 6.8691 1.6832 0.0000 -10409.1974 1310.0381 0.0000 0.0000 1768.0267 -7321.5535 304.6435 -9089.5802 -7321.5535 304.6435 -844.6890 -771.0182 30008.1644 -844.6890 -771.0182
ENERGY: 300000 0.9146 9.9516 1.2587 0.0000 -10586.7682 1409.7598 0.0000 0.0000 1747.9862 -7416.8974 301.1904 -9164.8835 -7358.4583 300.7184 -280.7558 -212.0861 29853.6028 -488.9499 -421.5115
ENERGY: 600000 3.6895 4.4218 0.7927 0.0000 -10635.9825 1450.1708 0.0000 0.0000 1750.3523 -7426.5553 301.5981 -9176.9076 -7378.1428 300.1606 242.9357 355.5441 29688.8654 -303.5734 -231.8409
ENERGY: 900000 1.7866 2.9884 1.6611 0.0000 -10555.6576 1456.9909 0.0000 0.0000 1750.8817 -7341.3489 301.6894 -9092.2306 -7383.8870 300.3752 95.4376 163.0909 30035.9315 -176.6260 -104.6916
ENERGY: 1200000 1.1094 4.7901 1.8660 0.0000 -10652.9422 1500.1958 0.0000 0.0000 1785.2489 -7359.7321 307.6111 -9144.9810 -7383.1451 300.0616 980.7760 935.9151 29546.9023 -112.5864 -57.6070
ENERGY: 1500000 3.6356 5.2707 1.9183 0.0000 -10460.5941 1395.1207 0.0000 0.0000 1729.6567 -7324.9921 298.0321 -9054.6487 -7378.3723 300.2327 -325.7370 -202.3189 30284.8168 -77.3365 -19.9037
TCL: Exiting due to exit command.
