Info: SIMULATION PARAMETERS:
Info: TIMESTEP               2
Info: NUMBER OF STEPS        0
Info: STEPS PER CYCLE        10
Info: PERIODIC CELL BASIS 1  30.2397 0 0
Info: PERIODIC CELL BASIS 2  0 29.4502 0
Info: PERIODIC CELL BASIS 3  0 0 33.9278
Info: PERIODIC CELL CENTER   0 0 0
Info: WRAPPING WATERS AROUND PERIODIC BOUNDARIES ON OUTPUT.
Info: WRAPPING ALL CLUSTERS AROUND PERIODIC BOUNDARIES ON OUTPUT.
Info: FIRST LDB TIMESTEP     50
Info: LAST LDB TIMESTEP     -1
Info: HOM BACKGROUND SCALING 1
Info: PME BACKGROUND SCALING 1
Info: MIN ATOMS PER PATCH    40
Info: EMPTY PATCH LOAD       40 ATOMS
Info: VELOCITY FILE          mobley_9942801_equil.vel
Info: CENTER OF MASS MOVING INITIALLY? NO
Info: DIELECTRIC             1
Info: EXCLUDE                SCALED ONE-FOUR
Info: 1-4 ELECTROSTATICS SCALED BY 0.833333
Info: MODIFIED 1-4 VDW PARAMETERS WILL BE USED
Info: DCD FILENAME           mobley_9942801_prod.dcd
Info: DCD FREQUENCY          100000
Info: DCD FIRST STEP         100000
Info: DCD FILE WILL CONTAIN UNIT CELL DATA
Info: XST FILENAME           mobley_9942801_prod.xst
Info: XST FREQUENCY          100000
Info: NO VELOCITY DCD OUTPUT
Info: NO FORCE DCD OUTPUT
Info: OUTPUT FILENAME        mobley_9942801_prod
Info: BINARY OUTPUT FILES WILL BE USED
Info: RESTART FILENAME       mobley_9942801_prod.restart
Info: RESTART FREQUENCY      100000
Info: BINARY RESTART FILES WILL BE USED
Info: CUTOFF                 9
Info: PAIRLIST DISTANCE      11
Info: PAIRLIST SHRINK RATE   0.01
Info: PAIRLIST GROW RATE     0.01
Info: PAIRLIST TRIGGER       0.3
Info: PAIRLISTS PER CYCLE    2
Info: PAIRLISTS ENABLED
Info: MARGIN                 2
Info: HYDROGEN GROUP CUTOFF  2.5
Info: PATCH DIMENSION        15.5
Info: ENERGY OUTPUT STEPS    100000
Info: ENERGY EVALUATION STEPS    100000
Info: OUTPUT ENERGY PRECISION 4
Info: CROSSTERM ENERGY INCLUDED IN DIHEDRAL
Info: TIMING OUTPUT STEPS    1000000
Info: PRESSURE OUTPUT STEPS  100000
Info: ALCHEMICAL FEP ON
Info: FEP CURRENT LAMBDA VALUE     1
Info: FEP COMPARISON LAMBDA VALUE  0.95
Info: FEP INTRA-ALCHEMICAL NON-BONDED INTERACTIONS WILL BE RETAINED
Info: FEP INTRA-ALCHEMICAL BONDED INTERACTIONS WILL BE RETAINED
Info: FEP VDW SHIFTING COEFFICIENT 5
Info: FEP ELEC. ACTIVE FOR ANNIHILATED PARTICLES BETWEEN LAMBDA = 0 AND LAMBDA = 0.5
Info: FEP ELEC. ACTIVE FOR EXNIHILATED PARTICLES BETWEEN LAMBDA = 0.5 AND LAMBDA = 1
Info: FEP VDW ACTIVE FOR ANNIHILATED PARTICLES BETWEEN LAMBDA = 0 AND LAMBDA = 1
Info: FEP VDW ACTIVE FOR EXNIHILATED PARTICLES BETWEEN LAMBDA = 0 AND LAMBDA = 1
Info: FEP BOND ACTIVE FOR ANNIHILATED PARTICLES BETWEEN LAMBDA = 1 AND LAMBDA = 1
Info: FEP BOND ACTIVE FOR EXNIHILATED PARTICLES BETWEEN LAMBDA = 0 AND LAMBDA = 0
Info: LANGEVIN DYNAMICS ACTIVE
Info: LANGEVIN TEMPERATURE   300
Info: LANGEVIN USING BBK INTEGRATOR
Info: LANGEVIN DAMPING COEFFICIENT IS 1 INVERSE PS
Info: LANGEVIN DYNAMICS APPLIED TO HYDROGENS
Info: LANGEVIN PISTON PRESSURE CONTROL ACTIVE
Info:        TARGET PRESSURE IS 1.01325 BAR
Info:     OSCILLATION PERIOD IS 50 FS
Info:             DECAY TIME IS 25 FS
Info:     PISTON TEMPERATURE IS 300 K
Info:       PRESSURE CONTROL IS GROUP-BASED
Info:    INITIAL STRAIN RATE IS 0.000333819 0.000333819 0.000333819
Info:       CELL FLUCTUATION IS ISOTROPIC
Info: PARTICLE MESH EWALD (PME) ACTIVE
Info: PME TOLERANCE               1e-06
Info: PME EWALD COEFFICIENT       0.348832
Info: PME INTERPOLATION ORDER     4
Info: PME GRID DIMENSIONS         32 32 36
Info: PME MAXIMUM GRID SPACING    1
Info: PME CALCULATION WILL BE PERFORMED ON GPU
Info: FULL ELECTROSTATIC EVALUATION FREQUENCY      2
Info: USING VERLET I (r-RESPA) MTS SCHEME.
Info: C1 SPLITTING OF LONG RANGE ELECTROSTATICS
Info: PLACING ATOMS IN PATCHES BY HYDROGEN GROUPS
Info: RIGID BONDS TO HYDROGEN : ALL
Info:         ERROR TOLERANCE : 1e-08
Info:          MAX ITERATIONS : 100
Info: RIGID WATER USING SETTLE ALGORITHM
Info: RANDOM NUMBER SEED     1743793152
Info: USE HYDROGEN BONDS?    NO
Info: Using AMBER format force field!
Info: AMBER PARM FILE        mobley_9942801.prmtop
Info: COORDINATE PDB         mobley_9942801.pdb
Info: Exclusions will be read from PARM file!
Info: SCNB (VDW SCALING)     2
Info: USING ARITHMETIC MEAN TO COMBINE L-J SIGMA PARAMETERS
Info: BINARY COORDINATES     mobley_9942801_equil.coor
Info: SUMMARY OF PARAMETERS:
Info: 7 BONDS
Info: 7 ANGLES
Info:   7 HARMONIC
Info:   0 COSINE-BASED
Info: 5 DIHEDRAL
Info: 0 IMPROPER
Info: 0 CROSSTERM
Info: 0 VDW
Info: 21 VDW_PAIRS
Info: 0 NBTHOLE_PAIRS
Info: To read alchdata from file: mobley_9942801.pdb
Info: To read alchflag data from column: 5
Info: STRUCTURE SUMMARY:
Info: 2916 ATOMS
Info: 2916 BONDS
Info: 36 ANGLES
Info: 51 DIHEDRALS
Info: 0 IMPROPERS
Info: 0 CROSSTERMS
Info: 2994 EXCLUSIONS
Info: 2907 RIGID BONDS
Info: ALCH: 0 ATOMS TO DISAPPEAR IN FINAL STATE
Info: ALCH: 21 ATOMS TO APPEAR IN FINAL STATE
Info: 5841 DEGREES OF FREEDOM
Info: 974 HYDROGEN GROUPS
Info: 4 ATOMS IN LARGEST HYDROGEN GROUP
Info: 974 MIGRATION GROUPS
Info: 4 ATOMS IN LARGEST MIGRATION GROUP
Info: TOTAL MASS = 17505.6 amu
Info: TOTAL CHARGE = 0.000200041 e
Info: MASS DENSITY = 0.96209 g/cm^3
Info: ATOM DENSITY = 0.0965087 atoms/A^3
Info: ADDED 0 IMPLICIT EXCLUSIONS
Info: NONBONDED TABLE R-SQUARED SPACING: 0.0625
Info: NONBONDED TABLE SIZE: 705 POINTS
Info: REMOVING COM VELOCITY -0.0100402 0.0844363 0.235052
Info: Use 3D box decompostion in PME FFT.
Info: Updated CUDA force table with 4096 elements.
Info: Updated CUDA LJ table with 6 x 6 elements.
Info: Found 23 unique exclusion lists needing 68 bytes
TCL: Running for 1500000 steps
ETITLE: TS BOND ANGLE DIHED IMPRP ELECT VDW BOUNDARY MISC KINETIC TOTAL TEMP POTENTIAL TOTALAVG TEMPAVG PRESSURE GPRESSURE VOLUME PRESSAVG GPRESSAVG
ENERGY: 0 3.0884 6.7459 3.6554 0.0000 -10591.9833 1407.5038 0.0000 0.0000 1737.0281 -7433.9617 299.3023 -9170.9898 -7433.9617 299.3023 -342.3246 -270.4282 30214.9031 -342.3246 -270.4282
ENERGY: 300000 3.2497 9.0394 2.2672 0.0000 -10410.4028 1381.3179 0.0000 0.0000 1799.4008 -7215.1277 310.0495 -9014.5286 -7370.9915 300.2880 151.9814 233.9066 29992.0776 -417.8354 -341.7240
ENERGY: 600000 4.9630 5.1354 1.6341 0.0000 -10519.2623 1358.5653 0.0000 0.0000 1750.2068 -7398.7578 301.5731 -9148.9645 -7385.9303 299.0980 -694.4988 -628.7652 30171.4179 -496.7736 -421.8571
ENERGY: 900000 5.7370 5.8285 3.2481 0.0000 -10494.3797 1338.2417 0.0000 0.0000 1718.4779 -7422.8466 296.1059 -9141.3244 -7392.6273 298.6427 -665.5749 -579.1208 29860.0242 -370.7379 -296.9349
ENERGY: 1200000 2.8288 4.1316 2.5873 0.0000 -10420.4554 1365.1609 0.0000 0.0000 1751.3133 -7294.4335 301.7637 -9045.7469 -7374.2970 300.6137 -70.0273 -20.5062 29946.0660 -371.4316 -300.1049
ENERGY: 1500000 1.7272 6.8649 1.3240 0.0000 -10527.4468 1399.4804 0.0000 0.0000 1709.6924 -7408.3578 294.5921 -9118.0502 -7371.9959 300.3560 -154.7337 -69.3928 30055.9205 -288.9908 -216.3864
TCL: Running FEP window   2: Lambda1 0.95   Lambda2 0.8999999999999999 [dLambda -0.050000000000000044]
TCL: Setting parameter firsttimestep to 0
TCL: Setting parameter alchLambda to 0.95
Info: NONBONDED TABLE R-SQUARED SPACING: 0.0625
Info: NONBONDED TABLE SIZE: 705 POINTS
TCL: Setting parameter alchLambda2 to 0.8999999999999999
Info: NONBONDED TABLE R-SQUARED SPACING: 0.0625
Info: NONBONDED TABLE SIZE: 705 POINTS
TCL: Running for 1500000 steps
ETITLE: TS BOND ANGLE DIHED IMPRP ELECT VDW BOUNDARY MISC KINETIC TOTAL TEMP POTENTIAL TOTALAVG TEMPAVG PRESSURE GPRESSURE VOLUME PRESSAVG GPRESSAVG
ENERGY: 0 1.7272 6.8649 1.3240 0.0000 -10526.8052 1399.6102 0.0000 0.0000 1708.8369 -7408.4419 294.4447 -9117.2788 -7408.4419 294.4447 -174.3356 -81.2728 30055.9205 -174.3356 -81.2728
ENERGY: 300000 1.5650 5.2069 3.7530 0.0000 -10621.3627 1403.6438 0.0000 0.0000 1767.3190 -7439.8750 304.5216 -9207.1940 -7400.9830 299.0606 -158.4506 -74.3037 29696.0073 -187.9279 -109.9525
ENERGY: 600000 2.2853 7.6246 2.3750 0.0000 -10516.8847 1395.3904 0.0000 0.0000 1805.0328 -7304.1767 311.0200 -9109.2094 -7386.4109 302.8830 -7.8452 32.0194 30008.8965 -62.6177 -3.3785
ENERGY: 900000 5.7301 8.1399 7.7311 0.0000 -10582.3261 1430.2318 0.0000 0.0000 1725.2320 -7405.2612 297.2697 -9130.4932 -7393.9222 299.6936 78.5965 104.2331 29969.3375 -104.8042 -38.0957
ENERGY: 1200000 2.1984 9.8977 2.9338 0.0000 -10637.6283 1497.4963 0.0000 0.0000 1724.9421 -7400.1600 297.2198 -9125.1021 -7392.0229 299.3797 870.3493 945.9551 29600.8825 -49.6713 19.6695
ENERGY: 1500000 1.4322 4.9150 3.4894 0.0000 -10589.2036 1399.1264 0.0000 0.0000 1740.8746 -7439.3660 299.9651 -9180.2407 -7396.2071 299.7282 -259.2122 -230.4237 29893.4242 -62.3174 2.6634
TCL: Running FEP window   3: Lambda1 0.8999999999999999 Lambda2 0.8499999999999999 [dLambda -0.050000000000000044]
TCL: Setting parameter firsttimestep to 0
TCL: Setting parameter alchLambda to 0.8999999999999999
Info: NONBONDED TABLE R-SQUARED SPACING: 0.0625
Info: NONBONDED TABLE SIZE: 705 POINTS
TCL: Setting parameter alchLambda2 to 0.8499999999999999
Info: NONBONDED TABLE R-SQUARED SPACING: 0.0625
Info: NONBONDED TABLE SIZE: 705 POINTS
TCL: Running for 1500000 steps
ETITLE: TS BOND ANGLE DIHED IMPRP ELECT VDW BOUNDARY MISC KINETIC TOTAL TEMP POTENTIAL TOTALAVG TEMPAVG PRESSURE GPRESSURE VOLUME PRESSAVG GPRESSAVG
ENERGY: 0 1.4322 4.9150 3.4894 0.0000 -10588.7104 1399.8148 0.0000 0.0000 1740.0217 -7439.0373 299.8181 -9179.0590 -7439.0373 299.8181 -319.1396 -233.5708 29893.4242 -319.1396 -233.5708
ENERGY: 300000 1.8977 6.3099 2.5597 0.0000 -10382.1621 1371.8333 0.0000 0.0000 1725.1509 -7274.4106 297.2558 -8999.5616 -7378.1625 297.6815 -219.1960 -208.2173 30746.0922 -44.0952 16.1138
ENERGY: 600000 2.9332 5.7554 1.9075 0.0000 -10702.8115 1453.2487 0.0000 0.0000 1753.9816 -7484.9852 302.2235 -9238.9668 -7383.1123 299.1437 40.2172 104.5819 29614.4874 -34.5669 29.0521
ENERGY: 900000 2.1744 5.7266 4.9262 0.0000 -10495.4500 1391.4329 0.0000 0.0000 1745.4484 -7345.7414 300.7532 -9091.1898 -7376.0330 299.3731 30.7528 101.2499 29845.1154 73.2323 128.2050
ENERGY: 1200000 1.6782 6.8077 1.4277 0.0000 -10470.6497 1347.1171 0.0000 0.0000 1790.3655 -7323.2536 308.4927 -9113.6190 -7374.5987 299.9781 53.5365 39.2273 29720.3882 43.2141 93.7248
ENERGY: 1500000 2.6755 8.4569 3.5366 0.0000 -10507.1197 1335.7294 0.0000 0.0000 1778.0127 -7378.7085 306.3642 -9156.7213 -7367.0022 301.1793 -572.4393 -581.2380 29837.4140 -12.2326 36.1183
TCL: Running FEP window   4: Lambda1 0.8499999999999999 Lambda2 0.7999999999999998 [dLambda -0.050000000000000044]
TCL: Setting parameter firsttimestep to 0
TCL: Setting parameter alchLambda to 0.8499999999999999
Info: NONBONDED TABLE R-SQUARED SPACING: 0.0625
Info: NONBONDED TABLE SIZE: 705 POINTS
TCL: Setting parameter alchLambda2 to 0.7999999999999998
Info: NONBONDED TABLE R-SQUARED SPACING: 0.0625
Info: NONBONDED TABLE SIZE: 705 POINTS
TCL: Running for 1500000 steps
ETITLE: TS BOND ANGLE DIHED IMPRP ELECT VDW BOUNDARY MISC KINETIC TOTAL TEMP POTENTIAL TOTALAVG TEMPAVG PRESSURE GPRESSURE VOLUME PRESSAVG GPRESSAVG
ENERGY: 0 2.6755 8.4569 3.5366 0.0000 -10506.5047 1336.1925 0.0000 0.0000 1777.1598 -7378.4833 306.2172 -9155.6431 -7378.4833 306.2172 -657.9106 -589.4441 29837.4140 -657.9106 -589.4441
ENERGY: 300000 2.5165 6.9191 3.7274 0.0000 -10693.2476 1536.5810 0.0000 0.0000 1778.1907 -7365.3130 306.3949 -9143.5036 -7337.7470 303.6845 1041.6687 1094.8450 29630.7809 69.3475 134.1279
ENERGY: 600000 1.5285 8.5073 4.2637 0.0000 -10469.1587 1366.3356 0.0000 0.0000 1798.8922 -7289.6315 309.9619 -9088.5237 -7337.7066 303.8266 -304.4599 -286.3814 30130.0754 96.2871 147.8834
ENERGY: 900000 4.3185 6.4678 3.3346 0.0000 -10448.6075 1371.2530 0.0000 0.0000 1740.4919 -7322.7417 299.8991 -9063.2336 -7335.9900 303.9925 -475.7585 -431.0705 30408.2948 200.6776 254.7371
ENERGY: 1200000 1.0044 5.3385 2.4907 0.0000 -10692.3463 1471.8075 0.0000 0.0000 1720.4580 -7491.2472 296.4471 -9211.7052 -7352.6386 303.0137 226.1204 296.1377 29843.0594 132.6007 193.2759
ENERGY: 1500000 2.5619 9.3226 3.3841 0.0000 -10570.6898 1447.4730 0.0000 0.0000 1797.6621 -7310.2862 309.7499 -9107.9482 -7348.6441 303.4699 506.6336 565.3048 30068.5090 164.4614 223.8105
TCL: Running FEP window   5: Lambda1 0.7999999999999998 Lambda2 0.7499999999999998 [dLambda -0.050000000000000044]
TCL: Setting parameter firsttimestep to 0
TCL: Setting parameter alchLambda to 0.7999999999999998
Info: NONBONDED TABLE R-SQUARED SPACING: 0.0625
Info: NONBONDED TABLE SIZE: 705 POINTS
TCL: Setting parameter alchLambda2 to 0.7499999999999998
Info: NONBONDED TABLE R-SQUARED SPACING: 0.0625
Info: NONBONDED TABLE SIZE: 705 POINTS
TCL: Running for 1500000 steps
ETITLE: TS BOND ANGLE DIHED IMPRP ELECT VDW BOUNDARY MISC KINETIC TOTAL TEMP POTENTIAL TOTALAVG TEMPAVG PRESSURE GPRESSURE VOLUME PRESSAVG GPRESSAVG
ENERGY: 0 2.5619 9.3226 3.3841 0.0000 -10569.9659 1447.1222 0.0000 0.0000 1796.7794 -7310.7958 309.5978 -9107.5751 -7310.7958 309.5978 464.0863 549.0816 30068.5090 464.0863 549.0816
ENERGY: 300000 2.1184 8.1597 5.6700 0.0000 -10386.9180 1370.1463 0.0000 0.0000 1728.5067 -7272.3169 297.8340 -9000.8236 -7346.2467 299.9207 -177.2902 -100.4668 30288.0901 -75.8937 8.9647
ENERGY: 600000 2.1142 7.4279 1.2375 0.0000 -10600.2482 1441.0983 0.0000 0.0000 1730.5582 -7417.8122 298.1875 -9148.3704 -7381.5103 298.2379 188.6459 238.6101 29804.4213 -76.9301 5.1906
ENERGY: 900000 2.9599 6.5492 3.0134 0.0000 -10598.5693 1432.1472 0.0000 0.0000 1777.0664 -7376.8332 306.2012 -9153.8997 -7379.8223 298.6476 -186.6303 -138.5859 30410.3272 -190.9131 -127.8122
ENERGY: 1200000 2.6134 5.5562 6.1830 0.0000 -10597.3319 1469.0865 0.0000 0.0000 1750.4478 -7363.4451 301.6146 -9113.8929 -7376.6077 298.5749 342.4986 407.0073 29657.3347 -116.2303 -55.1163
ENERGY: 1500000 3.1881 8.9538 2.1179 0.0000 -10525.8287 1345.7349 0.0000 0.0000 1759.3410 -7406.4931 303.1469 -9165.8340 -7382.1705 299.4113 -898.1531 -831.5913 30646.0227 -120.9850 -65.9284
TCL: Running FEP window   6: Lambda1 0.7499999999999998 Lambda2 0.6999999999999997 [dLambda -0.050000000000000044]
TCL: Setting parameter firsttimestep to 0
TCL: Setting parameter alchLambda to 0.7499999999999998
Info: NONBONDED TABLE R-SQUARED SPACING: 0.0625
Info: NONBONDED TABLE SIZE: 705 POINTS
TCL: Setting parameter alchLambda2 to 0.6999999999999997
Info: NONBONDED TABLE R-SQUARED SPACING: 0.0625
Info: NONBONDED TABLE SIZE: 705 POINTS
TCL: Running for 1500000 steps
ETITLE: TS BOND ANGLE DIHED IMPRP ELECT VDW BOUNDARY MISC KINETIC TOTAL TEMP POTENTIAL TOTALAVG TEMPAVG PRESSURE GPRESSURE VOLUME PRESSAVG GPRESSAVG
ENERGY: 0 3.1881 8.9538 2.1179 0.0000 -10525.4346 1345.6936 0.0000 0.0000 1758.4760 -7407.0052 302.9979 -9165.4812 -7407.0052 302.9979 -918.7321 -841.2854 30646.0227 -918.7321 -841.2854
ENERGY: 300000 1.0104 4.8423 5.1958 0.0000 -10546.3844 1438.3813 0.0000 0.0000 1721.0243 -7375.9303 296.5447 -9096.9546 -7386.2825 299.7998 266.5709 317.9821 29860.6169 -123.0753 -64.8475
ENERGY: 600000 2.0782 5.6969 1.7770 0.0000 -10563.9624 1433.9079 0.0000 0.0000 1742.6605 -7377.8419 300.2728 -9120.5024 -7384.9582 300.5248 -13.2256 102.5837 30047.1377 -196.6827 -118.6118
ENERGY: 900000 4.5467 8.4075 1.5715 0.0000 -10574.6951 1465.9357 0.0000 0.0000 1750.0391 -7344.1946 301.5442 -9094.2337 -7385.6163 301.2866 368.6208 358.9014 29808.7603 -163.6731 -107.1723
ENERGY: 1200000 4.8381 8.3686 2.8318 0.0000 -10535.1034 1377.9024 0.0000 0.0000 1750.1646 -7390.9979 301.5658 -9141.1626 -7370.9716 303.3287 -667.2651 -572.0887 30310.5276 -271.6296 -211.2218
ENERGY: 1500000 4.1391 8.7841 7.7998 0.0000 -10581.5901 1390.9947 0.0000 0.0000 1726.3075 -7443.5649 297.4550 -9169.8724 -7377.8439 302.4233 -632.9547 -535.8384 30029.9266 -305.0656 -239.8699
TCL: Running FEP window   7: Lambda1 0.6999999999999997 Lambda2 0.6499999999999997 [dLambda -0.050000000000000044]
TCL: Setting parameter firsttimestep to 0
TCL: Setting parameter alchLambda to 0.6999999999999997
Info: NONBONDED TABLE R-SQUARED SPACING: 0.0625
Info: NONBONDED TABLE SIZE: 705 POINTS
TCL: Setting parameter alchLambda2 to 0.6499999999999997
Info: NONBONDED TABLE R-SQUARED SPACING: 0.0625
Info: NONBONDED TABLE SIZE: 705 POINTS
TCL: Running for 1500000 steps
ETITLE: TS BOND ANGLE DIHED IMPRP ELECT VDW BOUNDARY MISC KINETIC TOTAL TEMP POTENTIAL TOTALAVG TEMPAVG PRESSURE GPRESSURE VOLUME PRESSAVG GPRESSAVG
ENERGY: 0 4.1391 8.7841 7.7998 0.0000 -10581.4320 1391.4345 0.0000 0.0000 1725.4247 -7443.8498 297.3029 -9169.2745 -7443.8498 297.3029 -620.6731 -540.2253 30029.9266 -620.6731 -540.2253
ENERGY: 300000 3.9867 6.7867 0.6890 0.0000 -10504.5199 1410.4490 0.0000 0.0000 1794.1272 -7288.4814 309.1409 -9082.6085 -7375.6107 301.0207 9.3250 78.5820 30338.6428 -234.6170 -172.2502
ENERGY: 600000 2.6931 8.5727 3.6860 0.0000 -10574.8936 1409.0102 0.0000 0.0000 1766.2859 -7384.6457 304.3436 -9150.9315 -7370.8043 300.9790 17.1547 71.5656 29812.9996 -273.8531 -225.7696
ENERGY: 900000 3.1754 8.0000 3.6531 0.0000 -10628.0418 1501.2685 0.0000 0.0000 1678.0594 -7433.8852 289.1416 -9111.9447 -7373.3717 299.1066 369.0324 455.2130 30171.1063 -168.0656 -117.9623
ENERGY: 1200000 3.7776 12.0662 3.8976 0.0000 -10575.5341 1432.0770 0.0000 0.0000 1795.5786 -7328.1371 309.3909 -9123.7157 -7371.8160 300.3322 -161.1170 -82.0846 30241.0673 -55.0410 0.7093
ENERGY: 1500000 2.0671 4.1587 2.0942 0.0000 -10537.7176 1408.0877 0.0000 0.0000 1783.3206 -7337.9894 307.2788 -9121.3099 -7366.2563 301.3341 -280.9425 -164.7593 30248.2333 -51.4004 5.0774
TCL: Running FEP window   8: Lambda1 0.6499999999999997 Lambda2 0.5999999999999996 [dLambda -0.050000000000000044]
TCL: Setting parameter firsttimestep to 0
TCL: Setting parameter alchLambda to 0.6499999999999997
Info: NONBONDED TABLE R-SQUARED SPACING: 0.0625
Info: NONBONDED TABLE SIZE: 705 POINTS
TCL: Setting parameter alchLambda2 to 0.5999999999999996
Info: NONBONDED TABLE R-SQUARED SPACING: 0.0625
Info: NONBONDED TABLE SIZE: 705 POINTS
TCL: Running for 1500000 steps
ETITLE: TS BOND ANGLE DIHED IMPRP ELECT VDW BOUNDARY MISC KINETIC TOTAL TEMP POTENTIAL TOTALAVG TEMPAVG PRESSURE GPRESSURE VOLUME PRESSAVG GPRESSAVG
ENERGY: 0 2.0671 4.1587 2.0942 0.0000 -10537.4711 1408.8899 0.0000 0.0000 1782.4711 -7337.7902 307.1324 -9120.2613 -7337.7902 307.1324 -255.9558 -166.9183 30248.2333 -255.9558 -166.9183
ENERGY: 300000 2.4072 9.3283 1.6716 0.0000 -10451.3493 1348.7688 0.0000 0.0000 1707.6124 -7381.5610 294.2337 -9089.1734 -7386.0375 299.9274 -513.1260 -510.9367 30348.8885 163.9823 220.8233
ENERGY: 600000 2.1428 5.9176 3.5634 0.0000 -10580.2870 1426.3915 0.0000 0.0000 1727.0125 -7415.2593 297.5765 -9142.2718 -7386.5293 300.8683 130.3383 148.7121 29698.6209 18.8665 76.6748
ENERGY: 900000 2.4419 7.4498 2.3989 0.0000 -10406.5311 1322.3133 0.0000 0.0000 1761.8870 -7310.0402 303.5856 -9071.9272 -7369.7448 302.0802 -552.6824 -512.2244 30180.7176 -15.5927 39.4215
ENERGY: 1200000 1.3836 6.1936 4.1987 0.0000 -10571.1758 1396.4314 0.0000 0.0000 1711.9771 -7450.9914 294.9858 -9162.9685 -7366.4402 301.7539 -187.3486 -138.9591 29812.8555 44.4179 100.1755
ENERGY: 1500000 2.2538 9.7277 2.3505 0.0000 -10568.6910 1485.9136 0.0000 0.0000 1742.4967 -7325.9488 300.2446 -9068.4454 -7360.7784 301.7962 613.9911 665.0000 30110.4599 8.7339 64.4535
TCL: Running FEP window   9: Lambda1 0.5999999999999996 Lambda2 0.5499999999999996 [dLambda -0.050000000000000044]
TCL: Setting parameter firsttimestep to 0
TCL: Setting parameter alchLambda to 0.5999999999999996
Info: NONBONDED TABLE R-SQUARED SPACING: 0.0625
Info: NONBONDED TABLE SIZE: 705 POINTS
TCL: Setting parameter alchLambda2 to 0.5499999999999996
Info: NONBONDED TABLE R-SQUARED SPACING: 0.0625
Info: NONBONDED TABLE SIZE: 705 POINTS
TCL: Running for 1500000 steps
ETITLE: TS BOND ANGLE DIHED IMPRP ELECT VDW BOUNDARY MISC KINETIC TOTAL TEMP POTENTIAL TOTALAVG TEMPAVG PRESSURE GPRESSURE VOLUME PRESSAVG GPRESSAVG
ENERGY: 0 2.2538 9.7277 2.3505 0.0000 -10568.4147 1485.3994 0.0000 0.0000 1741.6785 -7327.0048 300.1036 -9068.6833 -7327.0048 300.1036 582.9653 651.7006 30110.4599 582.9653 651.7006
ENERGY: 300000 2.2905 6.8700 4.9434 0.0000 -10525.1317 1442.1566 0.0000 0.0000 1730.4972 -7338.3741 298.1770 -9068.8713 -7355.7324 302.3603 96.0566 178.2894 30219.6817 143.1426 213.7706
ENERGY: 600000 0.9311 6.9896 4.7894 0.0000 -10622.1203 1380.1663 0.0000 0.0000 1751.4814 -7477.7625 301.7927 -9229.2439 -7379.3289 302.2926 -402.2282 -398.3561 29923.6817 125.9362 174.7751
ENERGY: 900000 1.7133 7.8195 2.2201 0.0000 -10412.5454 1343.9443 0.0000 0.0000 1761.6115 -7295.2366 303.5382 -9056.8481 -7392.8844 301.0795 -663.8070 -665.5522 30705.4047 125.2613 181.1433
ENERGY: 1200000 2.4397 3.8034 1.5473 0.0000 -10471.2203 1347.8780 0.0000 0.0000 1728.5796 -7386.9724 297.8465 -9115.5519 -7387.1556 299.7274 -500.0847 -397.7168 30105.4268 59.0745 113.9409
ENERGY: 1500000 2.9609 6.8304 1.4408 0.0000 -10500.4163 1343.2332 0.0000 0.0000 1804.2791 -7341.6718 310.8901 -9145.9510 -7373.7547 301.1763 -542.1903 -494.9947 29651.2015 -18.6276 34.9098
TCL: Running FEP window  10: Lambda1 0.5499999999999996 Lambda2 0.4999999999999996 [dLambda -0.04999999999999999]
TCL: Setting parameter firsttimestep to 0
TCL: Setting parameter alchLambda to 0.5499999999999996
Info: NONBONDED TABLE R-SQUARED SPACING: 0.0625
Info: NONBONDED TABLE SIZE: 705 POINTS
TCL: Setting parameter alchLambda2 to 0.4999999999999996
Info: NONBONDED TABLE R-SQUARED SPACING: 0.0625
Info: NONBONDED TABLE SIZE: 705 POINTS
TCL: Running for 1500000 steps
ETITLE: TS BOND ANGLE DIHED IMPRP ELECT VDW BOUNDARY MISC KINETIC TOTAL TEMP POTENTIAL TOTALAVG TEMPAVG PRESSURE GPRESSURE VOLUME PRESSAVG GPRESSAVG
ENERGY: 0 2.9609 6.8304 1.4408 0.0000 -10499.7557 1343.3100 0.0000 0.0000 1803.4279 -7341.7857 310.7434 -9145.2136 -7341.7857 310.7434 -585.5042 -500.9121 29651.2015 -585.5042 -500.9121
ENERGY: 300000 2.1892 9.5118 1.6833 0.0000 -10663.9570 1402.2959 0.0000 0.0000 1741.6054 -7506.6714 300.0910 -9248.2768 -7404.7193 300.5582 -425.2609 -391.6203 29604.6611 -289.8358 -227.2668
ENERGY: 600000 3.3185 6.9854 3.3662 0.0000 -10501.8177 1368.9191 0.0000 0.0000 1712.6267 -7406.6020 295.0977 -9119.2287 -7387.7965 299.1573 -797.5924 -740.0781 30459.8197 -335.3346 -269.9189
ENERGY: 900000 6.1570 7.4526 2.4279 0.0000 -10434.8538 1363.0716 0.0000 0.0000 1679.1371 -7376.6076 289.3272 -9055.7446 -7378.1160 297.9791 -855.4244 -769.9169 30694.0313 -461.3165 -391.3071
ENERGY: 1200000 2.5972 4.6975 1.9849 0.0000 -10505.1906 1358.0871 0.0000 0.0000 1728.6955 -7409.1284 297.8665 -9137.8239 -7374.3821 298.4840 -469.5466 -465.8184 29741.5804 -464.0520 -401.6433
ENERGY: 1500000 5.5160 8.0836 1.9934 0.0000 -10367.8477 1315.2670 0.0000 0.0000 1691.4883 -7345.4994 291.4554 -9036.9877 -7372.9050 298.2227 -648.2280 -558.7738 30023.0695 -406.4950 -342.6577
TCL: Running FEP window  11: Lambda1 0.4999999999999996 Lambda2 0.4499999999999996 [dLambda -0.04999999999999999]
TCL: Setting parameter firsttimestep to 0
TCL: Setting parameter alchLambda to 0.4999999999999996
Info: NONBONDED TABLE R-SQUARED SPACING: 0.0625
Info: NONBONDED TABLE SIZE: 705 POINTS
TCL: Setting parameter alchLambda2 to 0.4499999999999996
Info: NONBONDED TABLE R-SQUARED SPACING: 0.0625
Info: NONBONDED TABLE SIZE: 705 POINTS
TCL: Running for 1500000 steps
ETITLE: TS BOND ANGLE DIHED IMPRP ELECT VDW BOUNDARY MISC KINETIC TOTAL TEMP POTENTIAL TOTALAVG TEMPAVG PRESSURE GPRESSURE VOLUME PRESSAVG GPRESSAVG
ENERGY: 0 5.5160 8.0836 1.9934 0.0000 -10368.2937 1315.7970 0.0000 0.0000 1690.5927 -7346.3111 291.3011 -9036.9038 -7346.3111 291.3011 -647.0366 -561.1144 30023.0695 -647.0366 -561.1144
ENERGY: 300000 3.3310 8.8213 2.4419 0.0000 -10533.4562 1397.6915 0.0000 0.0000 1718.5804 -7402.5900 296.1236 -9121.1705 -7393.9875 293.8006 -384.0289 -297.2406 30013.3940 -275.1769 -199.6030
ENERGY: 600000 4.7195 6.4452 2.1889 0.0000 -10577.0637 1456.2837 0.0000 0.0000 1733.5753 -7373.8511 298.7073 -9107.4264 -7387.4938 296.9461 288.0994 327.8802 29934.9899 -117.8644 -42.1383
ENERGY: 900000 5.6699 8.0725 1.2507 0.0000 -10571.2865 1452.3684 0.0000 0.0000 1687.5965 -7416.3285 290.7849 -9103.9250 -7386.8602 295.9945 19.5447 113.6117 29807.3873 36.3447 107.2372
ENERGY: 1200000 1.1853 4.5599 3.4677 0.0000 -10586.2371 1459.3293 0.0000 0.0000 1785.8360 -7331.8590 307.7122 -9117.6949 -7374.6632 297.2454 228.7215 262.5193 30110.2662 22.5139 92.0382
ENERGY: 1500000 3.4537 4.3712 1.4336 0.0000 -10569.3646 1451.0508 0.0000 0.0000 1756.2577 -7352.7976 302.6157 -9109.0554 -7376.7044 297.8609 267.7585 332.4682 30037.0117 28.4856 90.5386
TCL: Running FEP window  12: Lambda1 0.4499999999999996 Lambda2 0.39999999999999963 [dLambda -0.04999999999999999]
TCL: Setting parameter firsttimestep to 0
TCL: Setting parameter alchLambda to 0.4499999999999996
Info: NONBONDED TABLE R-SQUARED SPACING: 0.0625
Info: NONBONDED TABLE SIZE: 705 POINTS
TCL: Setting parameter alchLambda2 to 0.39999999999999963
Info: NONBONDED TABLE R-SQUARED SPACING: 0.0625
Info: NONBONDED TABLE SIZE: 705 POINTS
TCL: Running for 1500000 steps
ETITLE: TS BOND ANGLE DIHED IMPRP ELECT VDW BOUNDARY MISC KINETIC TOTAL TEMP POTENTIAL TOTALAVG TEMPAVG PRESSURE GPRESSURE VOLUME PRESSAVG GPRESSAVG
ENERGY: 0 3.4537 4.3711 1.4336 0.0000 -10569.3639 1451.4432 0.0000 0.0000 1755.3835 -7353.2788 302.4650 -9108.6622 -7353.2788 302.4650 253.6364 326.3058 30037.0117 253.6364 326.3058
ENERGY: 300000 2.1978 5.8837 2.3287 0.0000 -10359.4465 1326.6250 0.0000 0.0000 1767.9175 -7254.4937 304.6247 -9022.4112 -7313.5796 302.3502 -518.1374 -470.0504 30365.2462 -112.5849 -93.7950
ENERGY: 600000 1.3891 7.9629 3.1681 0.0000 -10533.0614 1378.0015 0.0000 0.0000 1726.4393 -7416.1006 297.4777 -9142.5398 -7339.6850 300.7856 -332.9640 -308.3186 29844.6177 -42.7492 -10.6956
ENERGY: 900000 3.5228 9.0531 6.4268 0.0000 -10618.8832 1470.8214 0.0000 0.0000 1723.4084 -7405.6508 296.9555 -9129.0592 -7369.5414 299.4941 668.5258 643.3944 29502.3155 77.4326 113.1758
ENERGY: 1200000 6.7273 4.1253 2.5257 0.0000 -10456.9711 1329.7549 0.0000 0.0000 1756.2818 -7357.5562 302.6198 -9113.8380 -7375.6642 299.3822 -1166.0400 -1084.2053 30391.8575 3.0800 45.3944
ENERGY: 1500000 4.2230 7.4503 0.8822 0.0000 -10499.0255 1430.4128 0.0000 0.0000 1725.9164 -7330.1409 297.3877 -9056.0573 -7372.7119 298.5054 156.5817 243.4998 29754.1483 -16.5494 30.6693
TCL: Running FEP window  13: Lambda1 0.39999999999999963 Lambda2 0.34999999999999964 [dLambda -0.04999999999999999]
TCL: Setting parameter firsttimestep to 0
TCL: Setting parameter alchLambda to 0.39999999999999963
Info: NONBONDED TABLE R-SQUARED SPACING: 0.0625
Info: NONBONDED TABLE SIZE: 705 POINTS
TCL: Setting parameter alchLambda2 to 0.34999999999999964
Info: NONBONDED TABLE R-SQUARED SPACING: 0.0625
Info: NONBONDED TABLE SIZE: 705 POINTS
TCL: Running for 1500000 steps
ETITLE: TS BOND ANGLE DIHED IMPRP ELECT VDW BOUNDARY MISC KINETIC TOTAL TEMP POTENTIAL TOTALAVG TEMPAVG PRESSURE GPRESSURE VOLUME PRESSAVG GPRESSAVG
ENERGY: 0 4.2230 7.4503 0.8822 0.0000 -10499.0249 1430.4066 0.0000 0.0000 1725.0222 -7331.0407 297.2336 -9056.0629 -7331.0407 297.2336 145.8590 235.9353 29754.1483 145.8590 235.9353
ENERGY: 300000 1.7339 9.2895 4.0562 0.0000 -10557.9017 1493.3848 0.0000 0.0000 1764.2085 -7285.2288 303.9856 -9049.4373 -7374.8812 298.4989 776.6821 890.1994 29670.0636 401.1451 476.8073
ENERGY: 600000 1.6674 8.3566 1.4977 0.0000 -10549.4606 1447.7657 0.0000 0.0000 1739.3489 -7350.8243 299.7022 -9090.1732 -7388.3985 298.3106 337.6525 372.6910 29725.1546 232.9787 298.8972
ENERGY: 900000 2.2588 6.3888 4.0801 0.0000 -10440.2288 1337.9272 0.0000 0.0000 1742.0787 -7347.4953 300.1725 -9089.5739 -7384.8691 298.4959 -698.9911 -632.7884 30109.8994 28.5939 101.2919
ENERGY: 1200000 3.8364 11.7536 6.0923 0.0000 -10627.9734 1424.9387 0.0000 0.0000 1760.3187 -7421.0337 303.3154 -9181.3524 -7382.1519 299.1268 -21.1522 55.8828 29308.2516 -91.6663 -24.0069
ENERGY: 1500000 0.8460 5.7049 3.1086 0.0000 -10504.9176 1417.3366 0.0000 0.0000 1762.8891 -7315.0323 303.7583 -9077.9214 -7372.5764 299.6536 -59.5662 23.2459 30144.8129 -36.5720 29.1924
TCL: Running FEP window  14: Lambda1 0.34999999999999964 Lambda2 0.29999999999999966 [dLambda -0.04999999999999999]
TCL: Setting parameter firsttimestep to 0
TCL: Setting parameter alchLambda to 0.34999999999999964
Info: NONBONDED TABLE R-SQUARED SPACING: 0.0625
Info: NONBONDED TABLE SIZE: 705 POINTS
TCL: Setting parameter alchLambda2 to 0.29999999999999966
Info: NONBONDED TABLE R-SQUARED SPACING: 0.0625
Info: NONBONDED TABLE SIZE: 705 POINTS
TCL: Running for 1500000 steps
ETITLE: TS BOND ANGLE DIHED IMPRP ELECT VDW BOUNDARY MISC KINETIC TOTAL TEMP POTENTIAL TOTALAVG TEMPAVG PRESSURE GPRESSURE VOLUME PRESSAVG GPRESSAVG
ENERGY: 0 0.8460 5.7049 3.1086 0.0000 -10504.9174 1417.7079 0.0000 0.0000 1762.0529 -7315.4970 303.6142 -9077.5499 -7315.4970 303.6142 -70.7650 20.1319 30144.8129 -70.7650 20.1319
ENERGY: 300000 3.4249 8.0374 1.4773 0.0000 -10381.3654 1344.6013 0.0000 0.0000 1705.6908 -7318.1337 293.9026 -9023.8245 -7344.5717 298.4442 -737.0695 -683.3167 30684.7317 -400.8686 -334.2920
ENERGY: 600000 2.9110 8.3930 1.9747 0.0000 -10523.7657 1466.9977 0.0000 0.0000 1808.1985 -7235.2907 311.5654 -9043.4892 -7327.6096 299.4469 786.7916 858.3180 29767.4589 -169.4476 -106.7412
ENERGY: 900000 2.2668 8.1109 1.9520 0.0000 -10710.6833 1475.0770 0.0000 0.0000 1813.8314 -7409.4451 312.5360 -9223.2765 -7334.7311 301.0463 102.7015 165.8273 29639.3727 -172.8182 -112.1236
ENERGY: 1200000 1.8519 9.9244 3.1778 0.0000 -10435.0948 1303.8504 0.0000 0.0000 1719.2641 -7397.0262 296.2414 -9116.2903 -7346.7753 300.4763 -1335.7438 -1234.3469 30467.0979 -339.2163 -274.2775
ENERGY: 1500000 2.0382 7.8904 4.3016 0.0000 -10447.0245 1404.7694 0.0000 0.0000 1730.4197 -7297.6053 298.1636 -9028.0250 -7340.6085 300.3992 -85.4258 43.4357 30109.0569 -252.0554 -178.4508
TCL: Running FEP window  15: Lambda1 0.29999999999999966 Lambda2 0.24999999999999967 [dLambda -0.04999999999999999]
TCL: Setting parameter firsttimestep to 0
TCL: Setting parameter alchLambda to 0.29999999999999966
Info: NONBONDED TABLE R-SQUARED SPACING: 0.0625
Info: NONBONDED TABLE SIZE: 705 POINTS
TCL: Setting parameter alchLambda2 to 0.24999999999999967
Info: NONBONDED TABLE R-SQUARED SPACING: 0.0625
Info: NONBONDED TABLE SIZE: 705 POINTS
TCL: Running for 1500000 steps
ETITLE: TS BOND ANGLE DIHED IMPRP ELECT VDW BOUNDARY MISC KINETIC TOTAL TEMP POTENTIAL TOTALAVG TEMPAVG PRESSURE GPRESSURE VOLUME PRESSAVG GPRESSAVG
ENERGY: 0 2.0382 7.8904 4.3016 0.0000 -10447.0248 1404.5104 0.0000 0.0000 1729.5709 -7298.7133 298.0174 -9028.2842 -7298.7133 298.0174 -52.4023 35.5083 30109.0569 -52.4023 35.5083
ENERGY: 300000 2.2810 6.7284 2.4740 0.0000 -10592.3808 1494.3113 0.0000 0.0000 1779.8465 -7306.7396 306.6802 -9086.5861 -7343.9671 297.3605 861.6517 968.8961 29575.9528 309.7710 394.4673
ENERGY: 600000 2.7160 7.8532 3.1417 0.0000 -10544.6025 1452.5619 0.0000 0.0000 1775.6276 -7302.7020 305.9533 -9078.3296 -7349.6196 297.9040 198.6884 228.7059 30277.7321 90.2747 153.1827
ENERGY: 900000 6.5357 8.0426 2.8247 0.0000 -10449.3030 1371.0323 0.0000 0.0000 1829.2364 -7231.6312 315.1904 -9060.8677 -7338.0422 300.3764 -454.2430 -336.8801 30211.9981 10.0709 81.1162
ENERGY: 1200000 1.5451 6.1403 1.5180 0.0000 -10573.6094 1455.4424 0.0000 0.0000 1735.5323 -7373.4314 299.0445 -9108.9636 -7340.9460 300.1274 525.4836 582.5231 29636.9661 9.5194 70.8053
ENERGY: 1500000 2.4024 10.0789 3.9919 0.0000 -10437.3845 1312.3022 0.0000 0.0000 1746.9573 -7361.6519 301.0131 -9108.6092 -7341.3833 300.0749 -887.9270 -812.9639 30057.0589 -20.6445 44.0798
TCL: Running FEP window  16: Lambda1 0.24999999999999967 Lambda2 0.19999999999999968 [dLambda -0.04999999999999999]
TCL: Setting parameter firsttimestep to 0
TCL: Setting parameter alchLambda to 0.24999999999999967
Info: NONBONDED TABLE R-SQUARED SPACING: 0.0625
Info: NONBONDED TABLE SIZE: 705 POINTS
TCL: Setting parameter alchLambda2 to 0.19999999999999968
Info: NONBONDED TABLE R-SQUARED SPACING: 0.0625
Info: NONBONDED TABLE SIZE: 705 POINTS
TCL: Running for 1500000 steps
ETITLE: TS BOND ANGLE DIHED IMPRP ELECT VDW BOUNDARY MISC KINETIC TOTAL TEMP POTENTIAL TOTALAVG TEMPAVG PRESSURE GPRESSURE VOLUME PRESSAVG GPRESSAVG
ENERGY: 0 2.4024 10.0789 3.9919 0.0000 -10437.3859 1312.7307 0.0000 0.0000 1746.0349 -7362.1471 300.8542 -9108.1820 -7362.1471 300.8542 -897.4649 -816.2565 30057.0589 -897.4649 -816.2565
ENERGY: 300000 2.0548 5.9383 3.8673 0.0000 -10578.8389 1451.5264 0.0000 0.0000 1761.8337 -7353.6183 303.5765 -9115.4520 -7366.4965 300.4463 405.6311 438.9868 29661.3213 -123.0687 -48.0616
ENERGY: 600000 1.2800 7.7402 1.4631 0.0000 -10486.9270 1375.7246 0.0000 0.0000 1742.0757 -7358.6435 300.1720 -9100.7191 -7359.9756 299.5145 -269.4265 -277.5913 29836.2735 -66.5127 -21.9316
ENERGY: 900000 2.8742 8.7741 3.1164 0.0000 -10617.2639 1441.8669 0.0000 0.0000 1738.9965 -7421.6357 299.6415 -9160.6323 -7374.5875 299.7050 306.4427 418.6703 29424.8103 -109.7138 -56.6889
ENERGY: 1200000 1.6457 6.4501 3.5873 0.0000 -10416.4294 1358.3984 0.0000 0.0000 1763.5562 -7282.7918 303.8733 -9046.3481 -7358.7547 300.8786 -687.3973 -619.6626 30633.9020 -157.4629 -104.4133
ENERGY: 1500000 1.4105 3.3934 2.3411 0.0000 -10466.0201 1326.5953 0.0000 0.0000 1763.2360 -7369.0437 303.8181 -9132.2797 -7362.7842 300.0933 -795.9194 -780.3722 30139.2130 -163.9264 -106.6331
TCL: Running FEP window  17: Lambda1 0.19999999999999968 Lambda2 0.1499999999999997 [dLambda -0.04999999999999999]
TCL: Setting parameter firsttimestep to 0
TCL: Setting parameter alchLambda to 0.19999999999999968
Info: NONBONDED TABLE R-SQUARED SPACING: 0.0625
Info: NONBONDED TABLE SIZE: 705 POINTS
TCL: Setting parameter alchLambda2 to 0.1499999999999997
Info: NONBONDED TABLE R-SQUARED SPACING: 0.0625
Info: NONBONDED TABLE SIZE: 705 POINTS
TCL: Running for 1500000 steps
ETITLE: TS BOND ANGLE DIHED IMPRP ELECT VDW BOUNDARY MISC KINETIC TOTAL TEMP POTENTIAL TOTALAVG TEMPAVG PRESSURE GPRESSURE VOLUME PRESSAVG GPRESSAVG
ENERGY: 0 1.4105 3.3934 2.3411 0.0000 -10466.0202 1326.0458 0.0000 0.0000 1762.3601 -7370.4693 303.6672 -9132.8294 -7370.4693 303.6672 -868.6069 -791.3085 30139.2130 -868.6069 -791.3085
ENERGY: 300000 1.4256 5.7762 1.9863 0.0000 -10443.3924 1407.9448 0.0000 0.0000 1815.0325 -7211.2271 312.7430 -9026.2596 -7370.4005 300.1933 148.4097 206.0606 30153.6718 -476.6574 -417.1973
ENERGY: 600000 1.4497 6.2181 1.7754 0.0000 -10518.5535 1356.8862 0.0000 0.0000 1751.9068 -7400.3173 301.8660 -9152.2241 -7378.8590 300.4186 -564.1257 -517.4454 29788.8733 -502.6358 -444.1850
ENERGY: 900000 3.8046 7.1414 3.5709 0.0000 -10485.5621 1379.1350 0.0000 0.0000 1720.6673 -7371.2428 296.4832 -9091.9101 -7380.1883 299.5738 -431.9163 -332.8108 29966.7812 -414.4022 -356.5910
ENERGY: 1200000 2.2606 4.7512 2.3653 0.0000 -10617.7287 1418.4232 0.0000 0.0000 1750.1328 -7439.7956 301.5603 -9189.9285 -7375.2816 300.5852 -140.6871 -0.4026 29427.3182 -365.6532 -301.2542
ENERGY: 1500000 1.4415 5.7577 4.0771 0.0000 -10546.9104 1422.2256 0.0000 0.0000 1726.4062 -7387.0023 297.4720 -9113.4085 -7376.6966 299.8422 -26.3665 60.7491 30089.1695 -384.2707 -317.7490
TCL: Running FEP window  18: Lambda1 0.1499999999999997 Lambda2 0.09999999999999969 [dLambda -0.05 ]
TCL: Setting parameter firsttimestep to 0
TCL: Setting parameter alchLambda to 0.1499999999999997
Info: NONBONDED TABLE R-SQUARED SPACING: 0.0625
Info: NONBONDED TABLE SIZE: 705 POINTS
TCL: Setting parameter alchLambda2 to 0.09999999999999969
Info: NONBONDED TABLE R-SQUARED SPACING: 0.0625
Info: NONBONDED TABLE SIZE: 705 POINTS
TCL: Running for 1500000 steps
ETITLE: TS BOND ANGLE DIHED IMPRP ELECT VDW BOUNDARY MISC KINETIC TOTAL TEMP POTENTIAL TOTALAVG TEMPAVG PRESSURE GPRESSURE VOLUME PRESSAVG GPRESSAVG
ENERGY: 0 1.4415 5.7577 4.0771 0.0000 -10546.9094 1422.2112 0.0000 0.0000 1725.5245 -7387.8974 297.3201 -9113.4219 -7387.8974 297.3201 -34.7758 59.7218 30089.1695 -34.7758 59.7218
ENERGY: 300000 2.7850 9.2252 1.3184 0.0000 -10608.1813 1453.3899 0.0000 0.0000 1730.0604 -7411.4025 298.1017 -9141.4629 -7402.8126 297.9062 11.4832 96.7690 29652.8549 -150.4069 -81.4045
ENERGY: 600000 1.8706 7.0974 3.0961 0.0000 -10472.0716 1397.2150 0.0000 0.0000 1767.4406 -7295.3519 304.5426 -9062.7925 -7384.9089 298.4249 60.4280 121.9028 29787.6619 -147.2795 -94.8872
ENERGY: 900000 3.2751 8.4494 3.5722 0.0000 -10459.3706 1400.6038 0.0000 0.0000 1802.3134 -7241.1568 310.5514 -9043.4702 -7365.9310 299.8432 104.8442 184.8160 29596.0858 -113.3731 -63.2545
ENERGY: 1200000 2.9417 4.2196 1.4927 0.0000 -10404.9691 1340.0355 0.0000 0.0000 1731.7179 -7324.5617 298.3873 -9056.2796 -7357.4840 300.0485 -528.8371 -475.8575 29691.0336 -146.4009 -95.0789
ENERGY: 1500000 5.0201 5.0965 3.2036 0.0000 -10579.2092 1419.8781 0.0000 0.0000 1734.7073 -7411.3036 298.9024 -9146.0109 -7363.3942 299.7050 -530.1905 -365.8081 30094.7889 -164.6444 -100.5076
TCL: Running FEP window  19: Lambda1 0.09999999999999969 Lambda2 0.049999999999999684 [dLambda -0.05 ]
TCL: Setting parameter firsttimestep to 0
TCL: Setting parameter alchLambda to 0.09999999999999969
Info: NONBONDED TABLE R-SQUARED SPACING: 0.0625
Info: NONBONDED TABLE SIZE: 705 POINTS
TCL: Setting parameter alchLambda2 to 0.049999999999999684
Info: NONBONDED TABLE R-SQUARED SPACING: 0.0625
Info: NONBONDED TABLE SIZE: 705 POINTS
TCL: Running for 1500000 steps
ETITLE: TS BOND ANGLE DIHED IMPRP ELECT VDW BOUNDARY MISC KINETIC TOTAL TEMP POTENTIAL TOTALAVG TEMPAVG PRESSURE GPRESSURE VOLUME PRESSAVG GPRESSAVG
ENERGY: 0 5.0201 5.0965 3.2036 0.0000 -10579.2085 1420.0803 0.0000 0.0000 1733.8593 -7411.9486 298.7563 -9145.8079 -7411.9486 298.7563 -465.2016 -367.0783 30094.7889 -465.2016 -367.0783
ENERGY: 300000 3.0440 7.7461 1.8976 0.0000 -10404.1483 1335.0264 0.0000 0.0000 1820.0851 -7236.3490 313.6136 -9056.4342 -7364.6290 303.2872 -515.1913 -482.3349 29712.3682 300.5752 352.1738
ENERGY: 600000 4.7517 4.8098 4.7388 0.0000 -10558.6792 1427.7645 0.0000 0.0000 1793.0281 -7323.5864 308.9515 -9116.6144 -7350.1213 302.2295 23.3956 101.6124 29674.6674 329.5486 388.4111
ENERGY: 900000 2.2455 5.2248 3.0397 0.0000 -10428.4882 1370.7717 0.0000 0.0000 1737.1843 -7310.0221 299.3292 -9047.2064 -7351.4940 300.0439 -243.4164 -188.8114 30109.8091 230.7623 284.6790
ENERGY: 1200000 2.0350 3.6977 4.1927 0.0000 -10532.7866 1459.6604 0.0000 0.0000 1750.0549 -7313.1458 301.5469 -9063.2007 -7356.2005 299.2419 412.8715 458.1061 29990.1162 209.0114 264.5923
ENERGY: 1500000 3.7109 3.8834 4.5959 0.0000 -10675.3294 1503.6706 0.0000 0.0000 1742.4509 -7417.0178 300.2367 -9159.4687 -7365.6047 299.4699 407.8499 491.7704 29741.9204 224.4999 283.4985
TCL: Running FEP window  20: Lambda1 0.049999999999999684 Lambda2 0.0    [dLambda -0.049999999999999684]
TCL: Setting parameter firsttimestep to 0
TCL: Setting parameter alchLambda to 0.049999999999999684
Info: NONBONDED TABLE R-SQUARED SPACING: 0.0625
Info: NONBONDED TABLE SIZE: 705 POINTS
TCL: Setting parameter alchLambda2 to 0.0
Info: NONBONDED TABLE R-SQUARED SPACING: 0.0625
Info: NONBONDED TABLE SIZE: 705 POINTS
TCL: Running for 1500000 steps
ETITLE: TS BOND ANGLE DIHED IMPRP ELECT VDW BOUNDARY MISC KINETIC TOTAL TEMP POTENTIAL TOTALAVG TEMPAVG PRESSURE GPRESSURE VOLUME PRESSAVG GPRESSAVG
ENERGY: 0 3.7109 3.8834 4.5959 0.0000 -10675.3276 1502.7654 0.0000 0.0000 1741.5614 -7418.8106 300.0834 -9160.3720 -7418.8106 300.0834 397.4014 484.6457 29741.9204 397.4014 484.6457
ENERGY: 300000 3.8152 9.9384 4.9371 0.0000 -10537.3927 1429.2394 0.0000 0.0000 1728.3703 -7361.0924 297.8105 -9089.4627 -7381.8400 300.6568 351.7783 378.7791 29417.8072 26.5831 82.0624
ENERGY: 600000 2.3685 5.8896 2.5154 0.0000 -10705.4100 1507.2460 0.0000 0.0000 1777.2022 -7410.1882 306.2246 -9187.3905 -7371.7948 302.8021 318.8674 397.4667 29731.8665 99.8316 156.9987
ENERGY: 900000 1.7155 5.9296 2.6982 0.0000 -10468.8127 1384.5298 0.0000 0.0000 1725.0818 -7348.8577 297.2439 -9073.9395 -7364.9005 301.7555 34.3048 126.5787 29621.6230 83.8152 132.6346
ENERGY: 1200000 3.8308 7.9748 1.0775 0.0000 -10567.2626 1426.3615 0.0000 0.0000 1758.5587 -7369.4592 303.0122 -9128.0179 -7363.5048 301.6014 40.9643 104.4750 29676.7738 5.3165 59.1430
ENERGY: 1500000 1.6490 5.7989 2.2347 0.0000 -10608.6129 1446.9524 0.0000 0.0000 1720.9967 -7430.9812 296.5400 -9151.9779 -7366.4978 301.9971 55.3154 184.3554 29702.8498 -13.0329 39.7701
TCL: Exiting due to exit command.
