Info: SIMULATION PARAMETERS:
Info: TIMESTEP               2
Info: NUMBER OF STEPS        0
Info: STEPS PER CYCLE        10
Info: PERIODIC CELL BASIS 1  31.9644 0 0
Info: PERIODIC CELL BASIS 2  0 31.8412 0
Info: PERIODIC CELL BASIS 3  0 0 29.9002
Info: PERIODIC CELL CENTER   0 0 0
Info: WRAPPING WATERS AROUND PERIODIC BOUNDARIES ON OUTPUT.
Info: WRAPPING ALL CLUSTERS AROUND PERIODIC BOUNDARIES ON OUTPUT.
Info: FIRST LDB TIMESTEP     50
Info: LAST LDB TIMESTEP     -1
Info: HOM BACKGROUND SCALING 1
Info: PME BACKGROUND SCALING 1
Info: MIN ATOMS PER PATCH    40
Info: EMPTY PATCH LOAD       40 ATOMS
Info: VELOCITY FILE          mobley_8492526_equil.vel
Info: CENTER OF MASS MOVING INITIALLY? NO
Info: DIELECTRIC             1
Info: EXCLUDE                SCALED ONE-FOUR
Info: 1-4 ELECTROSTATICS SCALED BY 0.833333
Info: MODIFIED 1-4 VDW PARAMETERS WILL BE USED
Info: DCD FILENAME           mobley_8492526_prod.dcd
Info: DCD FREQUENCY          100000
Info: DCD FIRST STEP         100000
Info: DCD FILE WILL CONTAIN UNIT CELL DATA
Info: XST FILENAME           mobley_8492526_prod.xst
Info: XST FREQUENCY          100000
Info: NO VELOCITY DCD OUTPUT
Info: NO FORCE DCD OUTPUT
Info: OUTPUT FILENAME        mobley_8492526_prod
Info: BINARY OUTPUT FILES WILL BE USED
Info: RESTART FILENAME       mobley_8492526_prod.restart
Info: RESTART FREQUENCY      100000
Info: BINARY RESTART FILES WILL BE USED
Info: CUTOFF                 9
Info: PAIRLIST DISTANCE      11
Info: PAIRLIST SHRINK RATE   0.01
Info: PAIRLIST GROW RATE     0.01
Info: PAIRLIST TRIGGER       0.3
Info: PAIRLISTS PER CYCLE    2
Info: PAIRLISTS ENABLED
Info: MARGIN                 2
Info: HYDROGEN GROUP CUTOFF  2.5
Info: PATCH DIMENSION        15.5
Info: ENERGY OUTPUT STEPS    100000
Info: ENERGY EVALUATION STEPS    100000
Info: OUTPUT ENERGY PRECISION 4
Info: CROSSTERM ENERGY INCLUDED IN DIHEDRAL
Info: TIMING OUTPUT STEPS    1000000
Info: PRESSURE OUTPUT STEPS  100000
Info: ALCHEMICAL FEP ON
Info: FEP CURRENT LAMBDA VALUE     1
Info: FEP COMPARISON LAMBDA VALUE  0.95
Info: FEP INTRA-ALCHEMICAL NON-BONDED INTERACTIONS WILL BE RETAINED
Info: FEP INTRA-ALCHEMICAL BONDED INTERACTIONS WILL BE RETAINED
Info: FEP VDW SHIFTING COEFFICIENT 5
Info: FEP ELEC. ACTIVE FOR ANNIHILATED PARTICLES BETWEEN LAMBDA = 0 AND LAMBDA = 0.5
Info: FEP ELEC. ACTIVE FOR EXNIHILATED PARTICLES BETWEEN LAMBDA = 0.5 AND LAMBDA = 1
Info: FEP VDW ACTIVE FOR ANNIHILATED PARTICLES BETWEEN LAMBDA = 0 AND LAMBDA = 1
Info: FEP VDW ACTIVE FOR EXNIHILATED PARTICLES BETWEEN LAMBDA = 0 AND LAMBDA = 1
Info: FEP BOND ACTIVE FOR ANNIHILATED PARTICLES BETWEEN LAMBDA = 1 AND LAMBDA = 1
Info: FEP BOND ACTIVE FOR EXNIHILATED PARTICLES BETWEEN LAMBDA = 0 AND LAMBDA = 0
Info: LANGEVIN DYNAMICS ACTIVE
Info: LANGEVIN TEMPERATURE   300
Info: LANGEVIN USING BBK INTEGRATOR
Info: LANGEVIN DAMPING COEFFICIENT IS 1 INVERSE PS
Info: LANGEVIN DYNAMICS APPLIED TO HYDROGENS
Info: LANGEVIN PISTON PRESSURE CONTROL ACTIVE
Info:        TARGET PRESSURE IS 1.01325 BAR
Info:     OSCILLATION PERIOD IS 50 FS
Info:             DECAY TIME IS 25 FS
Info:     PISTON TEMPERATURE IS 300 K
Info:       PRESSURE CONTROL IS GROUP-BASED
Info:    INITIAL STRAIN RATE IS -0.000391867 -0.000391867 -0.000391867
Info:       CELL FLUCTUATION IS ISOTROPIC
Info: PARTICLE MESH EWALD (PME) ACTIVE
Info: PME TOLERANCE               1e-06
Info: PME EWALD COEFFICIENT       0.348832
Info: PME INTERPOLATION ORDER     4
Info: PME GRID DIMENSIONS         32 32 32
Info: PME MAXIMUM GRID SPACING    1
Info: PME CALCULATION WILL BE PERFORMED ON GPU
Info: FULL ELECTROSTATIC EVALUATION FREQUENCY      2
Info: USING VERLET I (r-RESPA) MTS SCHEME.
Info: C1 SPLITTING OF LONG RANGE ELECTROSTATICS
Info: PLACING ATOMS IN PATCHES BY HYDROGEN GROUPS
Info: RIGID BONDS TO HYDROGEN : ALL
Info:         ERROR TOLERANCE : 1e-08
Info:          MAX ITERATIONS : 100
Info: RIGID WATER USING SETTLE ALGORITHM
Info: RANDOM NUMBER SEED     1743904172
Info: USE HYDROGEN BONDS?    NO
Info: Using AMBER format force field!
Info: AMBER PARM FILE        mobley_8492526.prmtop
Info: COORDINATE PDB         mobley_8492526.pdb
Info: Exclusions will be read from PARM file!
Info: SCNB (VDW SCALING)     2
Info: USING ARITHMETIC MEAN TO COMBINE L-J SIGMA PARAMETERS
Info: BINARY COORDINATES     mobley_8492526_equil.coor
Info: SUMMARY OF PARAMETERS:
Info: 7 BONDS
Info: 8 ANGLES
Info:   8 HARMONIC
Info:   0 COSINE-BASED
Info: 11 DIHEDRAL
Info: 0 IMPROPER
Info: 0 CROSSTERM
Info: 0 VDW
Info: 28 VDW_PAIRS
Info: 0 NBTHOLE_PAIRS
Info: To read alchdata from file: mobley_8492526.pdb
Info: To read alchflag data from column: 5
Info: STRUCTURE SUMMARY:
Info: 2956 ATOMS
Info: 2955 BONDS
Info: 27 ANGLES
Info: 40 DIHEDRALS
Info: 0 IMPROPERS
Info: 0 CROSSTERMS
Info: 3015 EXCLUSIONS
Info: 2950 RIGID BONDS
Info: ALCH: 0 ATOMS TO DISAPPEAR IN FINAL STATE
Info: ALCH: 16 ATOMS TO APPEAR IN FINAL STATE
Info: 5918 DEGREES OF FREEDOM
Info: 986 HYDROGEN GROUPS
Info: 4 ATOMS IN LARGEST HYDROGEN GROUP
Info: 986 MIGRATION GROUPS
Info: 4 ATOMS IN LARGEST MIGRATION GROUP
Info: TOTAL MASS = 17741.8 amu
Info: TOTAL CHARGE = 9.9929e-05 e
Info: MASS DENSITY = 0.968115 g/cm^3
Info: ATOM DENSITY = 0.0971347 atoms/A^3
Info: ADDED 0 IMPLICIT EXCLUSIONS
Info: NONBONDED TABLE R-SQUARED SPACING: 0.0625
Info: NONBONDED TABLE SIZE: 705 POINTS
Info: REDUCING NUMBER OF PATCHES TO IMPROVE LOAD BALANCE
Info: REMOVING COM VELOCITY 0.0478813 0.245486 0.00953221
Info: Use 3D box decompostion in PME FFT.
Info: Updated CUDA force table with 4096 elements.
Info: Updated CUDA LJ table with 7 x 7 elements.
Info: Found 19 unique exclusion lists needing 48 bytes
TCL: Running for 1500000 steps
ETITLE: TS BOND ANGLE DIHED IMPRP ELECT VDW BOUNDARY MISC KINETIC TOTAL TEMP POTENTIAL TOTALAVG TEMPAVG PRESSURE GPRESSURE VOLUME PRESSAVG GPRESSAVG
ENERGY: 0 0.4606 2.0501 2.6823 0.0000 -10740.5565 1431.1634 0.0000 0.0000 1721.4587 -7582.7414 292.7602 -9304.2001 -7582.7414 292.7602 -301.9157 -220.4826 30431.9705 -301.9157 -220.4826
ENERGY: 300000 1.7872 10.1736 2.5350 0.0000 -10753.6249 1490.1994 0.0000 0.0000 1763.1377 -7485.7920 299.8483 -9248.9297 -7505.2374 300.9683 323.0263 384.2291 30780.0595 -222.6503 -148.2328
ENERGY: 600000 3.0548 6.3540 4.7820 0.0000 -10709.5587 1428.4828 0.0000 0.0000 1783.4419 -7483.4433 303.3014 -9266.8852 -7500.7299 301.9102 -292.5483 -176.1453 30540.8950 -167.9826 -90.7312
ENERGY: 900000 1.0175 8.0270 2.0860 0.0000 -10666.9428 1403.4873 0.0000 0.0000 1753.6932 -7498.6319 298.2422 -9252.3250 -7504.4271 300.6373 -486.3016 -444.5892 30805.2800 -335.2962 -262.7617
ENERGY: 1200000 1.7858 8.6102 2.1922 0.0000 -10721.7271 1444.1384 0.0000 0.0000 1760.5250 -7504.4754 299.4040 -9265.0005 -7493.4881 300.7531 11.6056 34.0461 30554.6552 -371.7498 -309.9355
ENERGY: 1500000 2.3772 6.2183 2.2083 0.0000 -10720.2725 1503.8168 0.0000 0.0000 1720.4521 -7485.1998 292.5890 -9205.6519 -7492.7457 300.1039 437.3255 513.7236 30677.4470 -323.1284 -256.1499
TCL: Running FEP window   2: Lambda1 0.95   Lambda2 0.8999999999999999 [dLambda -0.050000000000000044]
TCL: Setting parameter firsttimestep to 0
TCL: Setting parameter alchLambda to 0.95
Info: NONBONDED TABLE R-SQUARED SPACING: 0.0625
Info: NONBONDED TABLE SIZE: 705 POINTS
TCL: Setting parameter alchLambda2 to 0.8999999999999999
Info: NONBONDED TABLE R-SQUARED SPACING: 0.0625
Info: NONBONDED TABLE SIZE: 705 POINTS
TCL: Running for 1500000 steps
ETITLE: TS BOND ANGLE DIHED IMPRP ELECT VDW BOUNDARY MISC KINETIC TOTAL TEMP POTENTIAL TOTALAVG TEMPAVG PRESSURE GPRESSURE VOLUME PRESSAVG GPRESSAVG
ENERGY: 0 2.3772 6.2183 2.2083 0.0000 -10719.2032 1502.5669 0.0000 0.0000 1719.5550 -7486.2776 292.4364 -9205.8326 -7486.2776 292.4364 400.2644 487.4820 30677.4470 400.2644 487.4820
ENERGY: 300000 1.6427 8.3073 2.1264 0.0000 -10856.5680 1505.0815 0.0000 0.0000 1719.1981 -7620.2120 292.3758 -9339.4101 -7536.8265 294.4440 -14.8158 -36.6497 30770.9305 18.1508 55.8279
ENERGY: 600000 0.6156 10.7926 2.0082 0.0000 -10794.9901 1440.0381 0.0000 0.0000 1744.8661 -7596.6696 296.7410 -9341.5357 -7542.7557 295.5323 -67.3811 -33.0742 30391.0160 -32.6567 7.5285
ENERGY: 900000 1.8049 9.8157 2.4312 0.0000 -10752.0036 1462.9659 0.0000 0.0000 1727.5768 -7547.4090 293.8007 -9274.9858 -7533.6685 296.6929 63.3157 150.1216 30402.5641 -39.6162 13.2434
ENERGY: 1200000 1.1021 7.3283 3.2133 0.0000 -10710.6330 1450.7990 0.0000 0.0000 1802.3603 -7445.8300 306.5187 -9248.1903 -7516.4965 299.8057 163.8732 265.1441 30341.2397 -44.1197 15.6152
ENERGY: 1500000 1.0026 10.7364 3.3856 0.0000 -10624.0501 1385.1230 0.0000 0.0000 1751.2951 -7472.5074 297.8343 -9223.8025 -7503.3727 300.2980 -220.9216 -241.8964 30426.9436 -90.8400 -37.7506
TCL: Running FEP window   3: Lambda1 0.8999999999999999 Lambda2 0.8499999999999999 [dLambda -0.050000000000000044]
TCL: Setting parameter firsttimestep to 0
TCL: Setting parameter alchLambda to 0.8999999999999999
Info: NONBONDED TABLE R-SQUARED SPACING: 0.0625
Info: NONBONDED TABLE SIZE: 705 POINTS
TCL: Setting parameter alchLambda2 to 0.8499999999999999
Info: NONBONDED TABLE R-SQUARED SPACING: 0.0625
Info: NONBONDED TABLE SIZE: 705 POINTS
TCL: Running for 1500000 steps
ETITLE: TS BOND ANGLE DIHED IMPRP ELECT VDW BOUNDARY MISC KINETIC TOTAL TEMP POTENTIAL TOTALAVG TEMPAVG PRESSURE GPRESSURE VOLUME PRESSAVG GPRESSAVG
ENERGY: 0 1.0026 10.7364 3.3856 0.0000 -10623.2806 1385.3301 0.0000 0.0000 1750.4257 -7472.4003 297.6865 -9222.8260 -7472.4003 297.6865 -322.8424 -247.9677 30426.9436 -322.8424 -247.9677
ENERGY: 300000 1.7683 7.3630 1.9357 0.0000 -10579.9716 1350.8018 0.0000 0.0000 1794.1784 -7423.9244 305.1273 -9218.1028 -7484.4197 302.6455 -557.8646 -519.6688 30636.2365 -99.2452 -66.3219
ENERGY: 600000 1.5300 8.9193 3.8625 0.0000 -10673.7152 1434.7940 0.0000 0.0000 1684.9434 -7539.6660 286.5502 -9224.6094 -7514.1260 299.2088 216.6402 264.1645 29986.0143 184.2163 230.5397
ENERGY: 900000 1.4652 7.4603 3.6623 0.0000 -10581.8000 1384.2374 0.0000 0.0000 1728.4825 -7456.4923 293.9547 -9184.9748 -7519.4519 297.5515 -414.1202 -293.8617 30639.6682 59.6614 122.2004
ENERGY: 1200000 1.3147 7.3129 4.3736 0.0000 -10615.6954 1346.1527 0.0000 0.0000 1764.4342 -7492.1073 300.0688 -9256.5415 -7516.2827 298.3255 -541.3986 -527.9733 30068.6743 90.6092 147.6424
ENERGY: 1500000 1.1619 5.4265 2.3431 0.0000 -10795.2784 1570.2085 0.0000 0.0000 1781.9040 -7434.2344 303.0398 -9216.1384 -7512.4191 298.1876 1263.7732 1259.2580 30393.2713 113.8506 173.2225
TCL: Running FEP window   4: Lambda1 0.8499999999999999 Lambda2 0.7999999999999998 [dLambda -0.050000000000000044]
TCL: Setting parameter firsttimestep to 0
TCL: Setting parameter alchLambda to 0.8499999999999999
Info: NONBONDED TABLE R-SQUARED SPACING: 0.0625
Info: NONBONDED TABLE SIZE: 705 POINTS
TCL: Setting parameter alchLambda2 to 0.7999999999999998
Info: NONBONDED TABLE R-SQUARED SPACING: 0.0625
Info: NONBONDED TABLE SIZE: 705 POINTS
TCL: Running for 1500000 steps
ETITLE: TS BOND ANGLE DIHED IMPRP ELECT VDW BOUNDARY MISC KINETIC TOTAL TEMP POTENTIAL TOTALAVG TEMPAVG PRESSURE GPRESSURE VOLUME PRESSAVG GPRESSAVG
ENERGY: 0 1.1619 5.4265 2.3431 0.0000 -10794.2503 1570.0587 0.0000 0.0000 1781.0132 -7434.2469 302.8883 -9215.2600 -7434.2469 302.8883 1160.5609 1248.5270 30393.2713 1160.5609 1248.5270
ENERGY: 300000 1.5419 6.6653 3.6292 0.0000 -10757.2074 1439.9253 0.0000 0.0000 1733.6268 -7571.8189 294.8296 -9305.4458 -7465.5840 301.6334 -272.8267 -267.5017 30621.3183 142.4716 206.9664
ENERGY: 600000 0.8709 6.9136 2.6643 0.0000 -10588.7817 1393.8084 0.0000 0.0000 1761.9149 -7422.6095 299.6404 -9184.5244 -7449.8277 303.3563 -97.9262 -56.8963 30504.0636 32.4588 89.0830
ENERGY: 900000 1.1655 6.6144 4.5773 0.0000 -10612.8513 1334.4022 0.0000 0.0000 1765.3037 -7500.7882 300.2167 -9266.0919 -7462.1378 302.0656 -546.8700 -484.8283 29894.1051 -132.1284 -77.0742
ENERGY: 1200000 2.5735 9.6336 5.2446 0.0000 -10725.8224 1469.6285 0.0000 0.0000 1740.4013 -7498.3409 295.9817 -9238.7422 -7478.5066 301.2977 484.2296 589.3664 29999.4394 -33.1443 24.7976
ENERGY: 1500000 0.4293 14.3161 4.9613 0.0000 -10794.1830 1487.9145 0.0000 0.0000 1764.5436 -7522.0181 300.0874 -9286.5617 -7487.9265 300.7625 714.0636 817.4536 29746.6848 -60.4959 -1.5525
TCL: Running FEP window   5: Lambda1 0.7999999999999998 Lambda2 0.7499999999999998 [dLambda -0.050000000000000044]
TCL: Setting parameter firsttimestep to 0
TCL: Setting parameter alchLambda to 0.7999999999999998
Info: NONBONDED TABLE R-SQUARED SPACING: 0.0625
Info: NONBONDED TABLE SIZE: 705 POINTS
TCL: Setting parameter alchLambda2 to 0.7499999999999998
Info: NONBONDED TABLE R-SQUARED SPACING: 0.0625
Info: NONBONDED TABLE SIZE: 705 POINTS
TCL: Running for 1500000 steps
ETITLE: TS BOND ANGLE DIHED IMPRP ELECT VDW BOUNDARY MISC KINETIC TOTAL TEMP POTENTIAL TOTALAVG TEMPAVG PRESSURE GPRESSURE VOLUME PRESSAVG GPRESSAVG
ENERGY: 0 0.4293 14.3161 4.9613 0.0000 -10793.3810 1487.1115 0.0000 0.0000 1763.6549 -7522.9078 299.9363 -9286.5628 -7522.9078 299.9363 715.5042 798.8725 29746.6848 715.5042 798.8725
ENERGY: 300000 0.9225 9.5116 3.9222 0.0000 -10721.6870 1408.8296 0.0000 0.0000 1753.8421 -7544.6590 298.2675 -9298.5011 -7515.9201 298.6178 -343.5562 -277.4819 30427.1837 60.2357 121.9969
ENERGY: 600000 1.8491 5.5180 2.9017 0.0000 -10607.2214 1333.6191 0.0000 0.0000 1789.5536 -7473.7800 304.3408 -9263.3335 -7501.7172 300.3620 -743.8768 -694.4713 30511.1727 59.0748 118.4908
ENERGY: 900000 3.6624 4.8059 2.6024 0.0000 -10773.8452 1432.1008 0.0000 0.0000 1814.9173 -7515.7564 308.6543 -9330.6737 -7500.1159 300.9661 -449.5718 -433.5690 30801.8811 7.7619 65.1827
ENERGY: 1200000 0.6660 7.1840 4.3673 0.0000 -10695.1606 1515.6410 0.0000 0.0000 1813.6072 -7353.6950 308.4315 -9167.3023 -7490.0042 301.8383 829.9552 857.6478 30327.7117 65.6745 124.9643
ENERGY: 1500000 0.5706 6.2044 3.4372 0.0000 -10539.2327 1345.6426 0.0000 0.0000 1767.8960 -7415.4819 300.6576 -9183.3778 -7483.4704 301.2574 -877.9310 -778.2988 31159.9666 -14.5849 56.4607
TCL: Running FEP window   6: Lambda1 0.7499999999999998 Lambda2 0.6999999999999997 [dLambda -0.050000000000000044]
TCL: Setting parameter firsttimestep to 0
TCL: Setting parameter alchLambda to 0.7499999999999998
Info: NONBONDED TABLE R-SQUARED SPACING: 0.0625
Info: NONBONDED TABLE SIZE: 705 POINTS
TCL: Setting parameter alchLambda2 to 0.6999999999999997
Info: NONBONDED TABLE R-SQUARED SPACING: 0.0625
Info: NONBONDED TABLE SIZE: 705 POINTS
TCL: Running for 1500000 steps
ETITLE: TS BOND ANGLE DIHED IMPRP ELECT VDW BOUNDARY MISC KINETIC TOTAL TEMP POTENTIAL TOTALAVG TEMPAVG PRESSURE GPRESSURE VOLUME PRESSAVG GPRESSAVG
ENERGY: 0 0.5706 6.2044 3.4372 0.0000 -10538.2609 1345.5719 0.0000 0.0000 1766.9882 -7415.4885 300.5032 -9182.4767 -7415.4885 300.5032 -878.0452 -786.2973 31159.9666 -878.0452 -786.2973
ENERGY: 300000 2.8223 6.1896 1.9864 0.0000 -10808.2735 1499.3773 0.0000 0.0000 1777.3483 -7520.5496 302.2651 -9297.8978 -7478.4680 298.8319 503.4706 540.5609 30077.3780 -115.0057 -50.5683
ENERGY: 600000 1.5715 8.6990 2.7043 0.0000 -10840.6055 1481.9333 0.0000 0.0000 1793.3870 -7552.3104 304.9927 -9345.6975 -7466.0298 300.7852 157.1053 240.7084 30113.7576 -211.0395 -139.8716
ENERGY: 900000 1.4841 5.7695 2.1651 0.0000 -10543.2712 1330.9540 0.0000 0.0000 1770.1289 -7432.7696 301.0373 -9202.8985 -7460.6529 301.4466 -759.0168 -785.2611 30923.9450 -147.0775 -86.5714
ENERGY: 1200000 1.7395 9.8316 3.4642 0.0000 -10658.4391 1353.2026 0.0000 0.0000 1809.8327 -7480.3685 307.7895 -9290.2013 -7469.1569 302.4198 -1070.3588 -976.0789 30936.8674 -255.4188 -183.8834
ENERGY: 1500000 0.3465 9.2084 2.2928 0.0000 -10835.7066 1526.2612 0.0000 0.0000 1782.3387 -7515.2589 303.1138 -9297.5977 -7479.4981 301.7892 460.0444 565.5612 30540.5295 -143.2903 -67.2331
TCL: Running FEP window   7: Lambda1 0.6999999999999997 Lambda2 0.6499999999999997 [dLambda -0.050000000000000044]
TCL: Setting parameter firsttimestep to 0
TCL: Setting parameter alchLambda to 0.6999999999999997
Info: NONBONDED TABLE R-SQUARED SPACING: 0.0625
Info: NONBONDED TABLE SIZE: 705 POINTS
TCL: Setting parameter alchLambda2 to 0.6499999999999997
Info: NONBONDED TABLE R-SQUARED SPACING: 0.0625
Info: NONBONDED TABLE SIZE: 705 POINTS
TCL: Running for 1500000 steps
ETITLE: TS BOND ANGLE DIHED IMPRP ELECT VDW BOUNDARY MISC KINETIC TOTAL TEMP POTENTIAL TOTALAVG TEMPAVG PRESSURE GPRESSURE VOLUME PRESSAVG GPRESSAVG
ENERGY: 0 0.3465 9.2084 2.2928 0.0000 -10834.2909 1525.5492 0.0000 0.0000 1781.4591 -7515.4348 302.9642 -9296.8940 -7515.4348 302.9642 468.8268 558.8387 30540.5295 468.8268 558.8387
ENERGY: 300000 0.3990 7.7882 2.9456 0.0000 -10839.3259 1553.7024 0.0000 0.0000 1757.5190 -7516.9716 298.8928 -9274.4906 -7504.1258 298.3990 899.2667 968.8374 30319.6512 295.3327 348.5128
ENERGY: 600000 1.1015 4.9036 3.3784 0.0000 -10619.7766 1453.1217 0.0000 0.0000 1746.3788 -7410.8926 296.9982 -9157.2714 -7470.0219 296.4699 255.3602 373.3820 30397.2224 420.5940 471.7167
ENERGY: 900000 1.1390 7.1001 2.5127 0.0000 -10749.7144 1456.6423 0.0000 0.0000 1823.5007 -7458.8196 310.1140 -9282.3203 -7475.7058 299.7002 98.3621 158.2237 30412.6586 303.5587 361.2870
ENERGY: 1200000 0.9758 10.7032 4.1986 0.0000 -10639.8332 1408.4312 0.0000 0.0000 1807.0395 -7408.4850 307.3145 -9215.5245 -7475.4273 300.6009 -230.0602 -201.0764 30676.3457 226.9356 281.0251
ENERGY: 1500000 1.0485 9.1869 2.1253 0.0000 -10643.8627 1420.7470 0.0000 0.0000 1730.6674 -7480.0875 294.3263 -9210.7549 -7481.9863 299.1787 -173.2632 -97.6630 30726.2941 127.7944 176.5028
TCL: Running FEP window   8: Lambda1 0.6499999999999997 Lambda2 0.5999999999999996 [dLambda -0.050000000000000044]
TCL: Setting parameter firsttimestep to 0
TCL: Setting parameter alchLambda to 0.6499999999999997
Info: NONBONDED TABLE R-SQUARED SPACING: 0.0625
Info: NONBONDED TABLE SIZE: 705 POINTS
TCL: Setting parameter alchLambda2 to 0.5999999999999996
Info: NONBONDED TABLE R-SQUARED SPACING: 0.0625
Info: NONBONDED TABLE SIZE: 705 POINTS
TCL: Running for 1500000 steps
ETITLE: TS BOND ANGLE DIHED IMPRP ELECT VDW BOUNDARY MISC KINETIC TOTAL TEMP POTENTIAL TOTALAVG TEMPAVG PRESSURE GPRESSURE VOLUME PRESSAVG GPRESSAVG
ENERGY: 0 1.0485 9.1869 2.1253 0.0000 -10643.7498 1421.1996 0.0000 0.0000 1729.7907 -7480.3986 294.1772 -9210.1894 -7480.3986 294.1772 -177.0114 -100.9520 30726.2941 -177.0114 -100.9520
ENERGY: 300000 1.9388 5.2801 1.9762 0.0000 -10641.0114 1383.2736 0.0000 0.0000 1765.8809 -7482.6616 300.3149 -9248.5426 -7519.1787 295.0927 -155.5265 -172.2836 29983.5797 -348.5626 -302.5975
ENERGY: 600000 1.8634 5.5417 3.4966 0.0000 -10726.3033 1384.1166 0.0000 0.0000 1722.7054 -7608.5796 292.9722 -9331.2850 -7505.7585 297.4207 -916.8175 -783.9178 30726.2063 -461.5358 -403.1878
ENERGY: 900000 2.2062 8.0173 3.8648 0.0000 -10728.5349 1433.4940 0.0000 0.0000 1755.4844 -7525.4682 298.5468 -9280.9526 -7508.6902 297.7517 -117.0075 -73.2778 30285.3546 -330.5205 -256.7902
ENERGY: 1200000 1.5824 6.3083 3.8144 0.0000 -10791.3947 1443.4902 0.0000 0.0000 1717.2559 -7618.9434 292.0454 -9336.1993 -7518.8852 297.8393 -252.2622 -178.5799 30279.2764 -322.4116 -256.3121
ENERGY: 1500000 3.4088 5.1776 3.3691 0.0000 -10641.6407 1434.9800 0.0000 0.0000 1760.6358 -7434.0694 299.4229 -9194.7052 -7506.7309 298.1430 -82.8504 -46.0767 30516.5945 -256.4632 -191.8339
TCL: Running FEP window   9: Lambda1 0.5999999999999996 Lambda2 0.5499999999999996 [dLambda -0.050000000000000044]
TCL: Setting parameter firsttimestep to 0
TCL: Setting parameter alchLambda to 0.5999999999999996
Info: NONBONDED TABLE R-SQUARED SPACING: 0.0625
Info: NONBONDED TABLE SIZE: 705 POINTS
TCL: Setting parameter alchLambda2 to 0.5499999999999996
Info: NONBONDED TABLE R-SQUARED SPACING: 0.0625
Info: NONBONDED TABLE SIZE: 705 POINTS
TCL: Running for 1500000 steps
ETITLE: TS BOND ANGLE DIHED IMPRP ELECT VDW BOUNDARY MISC KINETIC TOTAL TEMP POTENTIAL TOTALAVG TEMPAVG PRESSURE GPRESSURE VOLUME PRESSAVG GPRESSAVG
ENERGY: 0 3.4088 5.1776 3.3691 0.0000 -10641.6674 1435.2698 0.0000 0.0000 1759.7865 -7434.6557 299.2784 -9194.4422 -7434.6557 299.2784 -134.7003 -50.3528 30516.5945 -134.7003 -50.3528
ENERGY: 300000 1.2692 8.8275 3.7217 0.0000 -10727.7018 1450.4697 0.0000 0.0000 1694.3886 -7569.0253 288.1565 -9263.4139 -7531.9330 292.6043 162.8188 238.8809 30170.2992 217.1763 291.3655
ENERGY: 600000 1.4199 5.8925 2.4799 0.0000 -10604.7058 1376.5291 0.0000 0.0000 1769.6277 -7448.7568 300.9521 -9218.3845 -7497.2540 295.1520 -599.1530 -569.4448 31061.9540 -79.5945 -19.3617
ENERGY: 900000 1.1865 4.1052 2.6367 0.0000 -10610.8999 1389.2728 0.0000 0.0000 1751.9437 -7461.7550 297.9446 -9213.6987 -7490.7915 296.4147 -93.2360 -44.2594 30051.7207 -77.3168 -15.8796
ENERGY: 1200000 2.2737 3.9528 2.8534 0.0000 -10837.5220 1487.4710 0.0000 0.0000 1799.9357 -7541.0353 306.1064 -9340.9710 -7496.0924 297.3063 115.7803 214.5009 30399.2266 -8.0377 59.3382
ENERGY: 1500000 0.9753 6.3734 3.1524 0.0000 -10986.3805 1629.2420 0.0000 0.0000 1793.3087 -7553.3286 304.9794 -9346.6373 -7497.7565 298.5082 1801.8231 1779.2828 29589.4070 117.7934 180.0496
TCL: Running FEP window  10: Lambda1 0.5499999999999996 Lambda2 0.4999999999999996 [dLambda -0.04999999999999999]
TCL: Setting parameter firsttimestep to 0
TCL: Setting parameter alchLambda to 0.5499999999999996
Info: NONBONDED TABLE R-SQUARED SPACING: 0.0625
Info: NONBONDED TABLE SIZE: 705 POINTS
TCL: Setting parameter alchLambda2 to 0.4999999999999996
Info: NONBONDED TABLE R-SQUARED SPACING: 0.0625
Info: NONBONDED TABLE SIZE: 705 POINTS
TCL: Running for 1500000 steps
ETITLE: TS BOND ANGLE DIHED IMPRP ELECT VDW BOUNDARY MISC KINETIC TOTAL TEMP POTENTIAL TOTALAVG TEMPAVG PRESSURE GPRESSURE VOLUME PRESSAVG GPRESSAVG
ENERGY: 0 0.9753 6.3734 3.1524 0.0000 -10986.3989 1629.5587 0.0000 0.0000 1792.3924 -7553.9468 304.8235 -9346.3391 -7553.9468 304.8235 1691.6793 1775.3375 29589.4070 1691.6793 1775.3375
ENERGY: 300000 0.4408 4.4691 7.1305 0.0000 -10677.3462 1402.1665 0.0000 0.0000 1749.9965 -7513.1427 297.6135 -9263.1392 -7505.0475 297.6343 -711.7905 -610.0866 30843.9012 40.5994 137.2228
ENERGY: 600000 0.5791 6.2445 3.1970 0.0000 -10543.6470 1428.4030 0.0000 0.0000 1796.7283 -7308.4951 305.5609 -9105.2234 -7480.8213 299.9733 383.6489 465.9021 30226.7499 202.7451 298.0450
ENERGY: 900000 2.0682 6.5959 3.5344 0.0000 -10596.9410 1387.3085 0.0000 0.0000 1744.5428 -7452.8912 296.6860 -9197.4339 -7498.4477 298.3850 -407.2427 -380.4978 30746.4672 73.7229 159.0307
ENERGY: 1200000 2.0546 3.0570 2.3264 0.0000 -10779.5638 1435.2373 0.0000 0.0000 1751.6939 -7585.1946 297.9022 -9336.8885 -7502.3417 298.9338 -370.5405 -383.9094 30699.6120 1.5630 71.3172
ENERGY: 1500000 2.4769 7.1229 2.7571 0.0000 -10742.1923 1436.8038 0.0000 0.0000 1751.7432 -7541.2884 297.9105 -9293.0316 -7501.2099 299.3080 -180.4850 -135.7993 30366.3115 52.1738 119.1921
TCL: Running FEP window  11: Lambda1 0.4999999999999996 Lambda2 0.4499999999999996 [dLambda -0.04999999999999999]
TCL: Setting parameter firsttimestep to 0
TCL: Setting parameter alchLambda to 0.4999999999999996
Info: NONBONDED TABLE R-SQUARED SPACING: 0.0625
Info: NONBONDED TABLE SIZE: 705 POINTS
TCL: Setting parameter alchLambda2 to 0.4499999999999996
Info: NONBONDED TABLE R-SQUARED SPACING: 0.0625
Info: NONBONDED TABLE SIZE: 705 POINTS
TCL: Running for 1500000 steps
ETITLE: TS BOND ANGLE DIHED IMPRP ELECT VDW BOUNDARY MISC KINETIC TOTAL TEMP POTENTIAL TOTALAVG TEMPAVG PRESSURE GPRESSURE VOLUME PRESSAVG GPRESSAVG
ENERGY: 0 2.4769 7.1229 2.7571 0.0000 -10742.2175 1436.5202 0.0000 0.0000 1750.8941 -7542.4463 297.7661 -9293.3403 -7542.4463 297.7661 -233.1099 -144.0450 30366.3115 -233.1099 -144.0450
ENERGY: 300000 0.6856 6.4301 5.7407 0.0000 -10773.6140 1410.1896 0.0000 0.0000 1704.7215 -7645.8466 289.9138 -9350.5681 -7534.7682 298.5831 -192.8542 -170.6759 29750.7657 -225.1099 -174.6371
ENERGY: 600000 1.0770 3.6067 2.3052 0.0000 -10560.8963 1387.1475 0.0000 0.0000 1715.7082 -7451.0517 291.7822 -9166.7599 -7517.2392 296.8796 -279.4544 -219.9541 30626.0414 -228.3613 -175.5032
ENERGY: 900000 0.8118 7.6735 4.0132 0.0000 -10679.4969 1421.4913 0.0000 0.0000 1793.5212 -7451.9859 305.0155 -9245.5071 -7500.1607 298.9421 -110.1647 -102.7326 30487.1250 -112.6066 -61.5414
ENERGY: 1200000 1.7855 8.8696 2.7845 0.0000 -10690.1582 1446.1293 0.0000 0.0000 1825.5184 -7405.0709 310.4571 -9230.5893 -7481.9200 300.4648 62.9821 108.4432 30235.8376 -132.8324 -83.9700
ENERGY: 1500000 1.5197 4.0468 2.3965 0.0000 -10711.5445 1405.8867 0.0000 0.0000 1717.4883 -7580.2064 292.0850 -9297.6947 -7498.4589 299.7559 -474.7008 -437.2733 30058.7197 -130.4792 -79.3108
TCL: Running FEP window  12: Lambda1 0.4499999999999996 Lambda2 0.39999999999999963 [dLambda -0.04999999999999999]
TCL: Setting parameter firsttimestep to 0
TCL: Setting parameter alchLambda to 0.4499999999999996
Info: NONBONDED TABLE R-SQUARED SPACING: 0.0625
Info: NONBONDED TABLE SIZE: 705 POINTS
TCL: Setting parameter alchLambda2 to 0.39999999999999963
Info: NONBONDED TABLE R-SQUARED SPACING: 0.0625
Info: NONBONDED TABLE SIZE: 705 POINTS
TCL: Running for 1500000 steps
ETITLE: TS BOND ANGLE DIHED IMPRP ELECT VDW BOUNDARY MISC KINETIC TOTAL TEMP POTENTIAL TOTALAVG TEMPAVG PRESSURE GPRESSURE VOLUME PRESSAVG GPRESSAVG
ENERGY: 0 1.5197 4.0468 2.3965 0.0000 -10711.5445 1405.6447 0.0000 0.0000 1716.6149 -7581.3219 291.9364 -9297.9368 -7581.3219 291.9364 -537.1269 -442.8574 30058.7197 -537.1269 -442.8574
ENERGY: 300000 1.5069 7.6961 2.8838 0.0000 -10756.7959 1457.2707 0.0000 0.0000 1733.1098 -7554.3286 294.7417 -9287.4385 -7535.9926 298.0882 199.1901 253.3560 29763.5953 57.1785 130.9607
ENERGY: 600000 0.8983 6.2924 3.1256 0.0000 -10723.8580 1399.4270 0.0000 0.0000 1768.1174 -7545.9972 300.6952 -9314.1146 -7521.0814 299.0213 -205.0223 -119.6835 29787.5497 -295.8481 -213.0257
ENERGY: 900000 2.0590 5.0622 2.6870 0.0000 -10744.7919 1485.7969 0.0000 0.0000 1784.4400 -7464.7467 303.4711 -9249.1868 -7508.8008 299.8197 345.7932 410.0185 30584.8400 -158.2269 -79.9879
ENERGY: 1200000 1.4899 9.1620 2.4614 0.0000 -10778.2249 1498.4697 0.0000 0.0000 1801.0148 -7465.6271 306.2899 -9266.6419 -7491.9549 300.6898 583.5747 596.7981 30188.0236 -169.6626 -100.4975
ENERGY: 1500000 4.1307 5.3026 4.3828 0.0000 -10620.8355 1466.9255 0.0000 0.0000 1740.2027 -7399.8911 295.9479 -9140.0938 -7492.4328 299.8601 145.9619 186.9426 30887.0096 -44.8177 24.8432
TCL: Running FEP window  13: Lambda1 0.39999999999999963 Lambda2 0.34999999999999964 [dLambda -0.04999999999999999]
TCL: Setting parameter firsttimestep to 0
TCL: Setting parameter alchLambda to 0.39999999999999963
Info: NONBONDED TABLE R-SQUARED SPACING: 0.0625
Info: NONBONDED TABLE SIZE: 705 POINTS
TCL: Setting parameter alchLambda2 to 0.34999999999999964
Info: NONBONDED TABLE R-SQUARED SPACING: 0.0625
Info: NONBONDED TABLE SIZE: 705 POINTS
TCL: Running for 1500000 steps
ETITLE: TS BOND ANGLE DIHED IMPRP ELECT VDW BOUNDARY MISC KINETIC TOTAL TEMP POTENTIAL TOTALAVG TEMPAVG PRESSURE GPRESSURE VOLUME PRESSAVG GPRESSAVG
ENERGY: 0 4.1307 5.3027 4.3828 0.0000 -10620.8353 1467.3084 0.0000 0.0000 1739.3445 -7400.3662 295.8019 -9139.7107 -7400.3662 295.8019 112.3945 182.1530 30887.0096 112.3945 182.1530
ENERGY: 300000 0.8108 9.7663 1.6160 0.0000 -10797.4069 1510.3185 0.0000 0.0000 1743.4156 -7531.4797 296.4943 -9274.8953 -7493.2532 298.1676 498.3825 595.8965 30309.2002 -63.2327 -3.1928
ENERGY: 600000 1.1632 4.5845 2.7149 0.0000 -10784.6521 1482.1827 0.0000 0.0000 1766.7586 -7527.2483 300.4641 -9294.0069 -7498.0339 298.8531 252.8299 313.1359 30384.2875 -153.0077 -98.7319
ENERGY: 900000 0.5494 6.3403 2.5926 0.0000 -10580.1702 1380.4050 0.0000 0.0000 1706.0876 -7484.1953 290.1461 -9190.2829 -7489.6472 298.4783 -419.4682 -405.5796 30783.5081 -199.1224 -144.7807
ENERGY: 1200000 2.8502 9.0362 3.7700 0.0000 -10775.5144 1420.0535 0.0000 0.0000 1783.8883 -7555.9161 303.3773 -9339.8045 -7490.6364 299.8490 -103.8372 -118.5795 30035.4296 -181.6978 -137.1949
ENERGY: 1500000 1.0532 8.6720 3.3899 0.0000 -10650.5553 1461.0135 0.0000 0.0000 1767.3613 -7409.0654 300.5666 -9176.4267 -7495.0059 300.0981 315.1436 366.2953 30322.9141 -97.6872 -50.5755
TCL: Running FEP window  14: Lambda1 0.34999999999999964 Lambda2 0.29999999999999966 [dLambda -0.04999999999999999]
TCL: Setting parameter firsttimestep to 0
TCL: Setting parameter alchLambda to 0.34999999999999964
Info: NONBONDED TABLE R-SQUARED SPACING: 0.0625
Info: NONBONDED TABLE SIZE: 705 POINTS
TCL: Setting parameter alchLambda2 to 0.29999999999999966
Info: NONBONDED TABLE R-SQUARED SPACING: 0.0625
Info: NONBONDED TABLE SIZE: 705 POINTS
TCL: Running for 1500000 steps
ETITLE: TS BOND ANGLE DIHED IMPRP ELECT VDW BOUNDARY MISC KINETIC TOTAL TEMP POTENTIAL TOTALAVG TEMPAVG PRESSURE GPRESSURE VOLUME PRESSAVG GPRESSAVG
ENERGY: 0 1.0532 8.6720 3.3899 0.0000 -10650.5559 1460.9892 0.0000 0.0000 1766.4556 -7409.9960 300.4126 -9176.4516 -7409.9960 300.4126 272.2365 360.1490 30322.9141 272.2365 360.1490
ENERGY: 300000 2.4956 5.7400 3.9845 0.0000 -10692.6699 1451.0690 0.0000 0.0000 1754.8073 -7474.5735 298.4316 -9229.3808 -7467.0993 299.0370 -236.0733 -141.5905 30716.2803 -305.8323 -232.0208
ENERGY: 600000 3.2953 8.4316 3.2700 0.0000 -10825.4600 1460.3862 0.0000 0.0000 1760.3759 -7589.7010 299.3787 -9350.0769 -7498.6887 299.6546 -343.6547 -299.9761 30488.5508 -459.6197 -388.0850
ENERGY: 900000 1.5549 5.8930 3.1526 0.0000 -10785.1440 1466.1104 0.0000 0.0000 1752.0509 -7556.3823 297.9629 -9308.4332 -7506.7833 298.9102 84.4863 134.5759 30436.3275 -302.5601 -237.6409
ENERGY: 1200000 2.0776 8.1414 3.1501 0.0000 -10875.0610 1542.0823 0.0000 0.0000 1757.1868 -7562.4227 298.8363 -9319.6095 -7501.6633 300.4659 744.8286 830.6896 30110.4408 -147.6153 -84.2619
ENERGY: 1500000 1.1292 5.6778 4.8723 0.0000 -10668.0838 1425.0655 0.0000 0.0000 1727.0980 -7504.2409 293.7193 -9231.3390 -7500.7767 300.4003 -228.8410 -204.1446 30563.2131 -61.1917 -2.2721
TCL: Running FEP window  15: Lambda1 0.29999999999999966 Lambda2 0.24999999999999967 [dLambda -0.04999999999999999]
TCL: Setting parameter firsttimestep to 0
TCL: Setting parameter alchLambda to 0.29999999999999966
Info: NONBONDED TABLE R-SQUARED SPACING: 0.0625
Info: NONBONDED TABLE SIZE: 705 POINTS
TCL: Setting parameter alchLambda2 to 0.24999999999999967
Info: NONBONDED TABLE R-SQUARED SPACING: 0.0625
Info: NONBONDED TABLE SIZE: 705 POINTS
TCL: Running for 1500000 steps
ETITLE: TS BOND ANGLE DIHED IMPRP ELECT VDW BOUNDARY MISC KINETIC TOTAL TEMP POTENTIAL TOTALAVG TEMPAVG PRESSURE GPRESSURE VOLUME PRESSAVG GPRESSAVG
ENERGY: 0 1.1292 5.6778 4.8723 0.0000 -10668.0822 1425.4821 0.0000 0.0000 1726.2247 -7504.6961 293.5707 -9230.9208 -7504.6961 293.5707 -280.6673 -204.4102 30563.2131 -280.6673 -204.4102
ENERGY: 300000 2.6323 6.9163 2.1199 0.0000 -10659.5396 1413.8412 0.0000 0.0000 1725.1923 -7508.8375 293.3952 -9234.0299 -7486.8582 297.0200 13.5268 84.5216 29942.3447 -143.4919 -89.5974
ENERGY: 600000 2.2386 6.9574 3.2573 0.0000 -10686.4984 1401.5975 0.0000 0.0000 1788.1261 -7484.3214 304.0980 -9272.4476 -7466.1490 299.9243 -599.2393 -486.6063 30543.2889 -71.4153 -5.5799
ENERGY: 900000 0.1456 6.1237 4.0599 0.0000 -10628.5497 1355.3820 0.0000 0.0000 1727.8831 -7534.9554 293.8528 -9262.8385 -7467.6787 299.4863 -520.4408 -436.0177 29766.5281 -66.2153 1.4458
ENERGY: 1200000 3.7016 6.9690 2.5641 0.0000 -10913.8790 1493.5585 0.0000 0.0000 1738.0847 -7669.0011 295.5877 -9407.0858 -7483.6305 299.6990 -110.3758 -16.8159 30316.0215 -128.1313 -67.5034
ENERGY: 1500000 1.1440 8.8719 5.8215 0.0000 -10876.4513 1454.0113 0.0000 0.0000 1805.4604 -7601.1422 307.0460 -9406.6026 -7499.3106 300.5903 -317.8294 -257.5630 30181.2828 -153.6156 -91.5234
TCL: Running FEP window  16: Lambda1 0.24999999999999967 Lambda2 0.19999999999999968 [dLambda -0.04999999999999999]
TCL: Setting parameter firsttimestep to 0
TCL: Setting parameter alchLambda to 0.24999999999999967
Info: NONBONDED TABLE R-SQUARED SPACING: 0.0625
Info: NONBONDED TABLE SIZE: 705 POINTS
TCL: Setting parameter alchLambda2 to 0.19999999999999968
Info: NONBONDED TABLE R-SQUARED SPACING: 0.0625
Info: NONBONDED TABLE SIZE: 705 POINTS
TCL: Running for 1500000 steps
ETITLE: TS BOND ANGLE DIHED IMPRP ELECT VDW BOUNDARY MISC KINETIC TOTAL TEMP POTENTIAL TOTALAVG TEMPAVG PRESSURE GPRESSURE VOLUME PRESSAVG GPRESSAVG
ENERGY: 0 1.1440 8.8719 5.8215 0.0000 -10876.4504 1454.2713 0.0000 0.0000 1804.5831 -7601.7586 306.8968 -9406.3417 -7601.7586 306.8968 -352.4920 -259.1959 30181.2828 -352.4920 -259.1959
ENERGY: 300000 1.8803 9.0648 4.1636 0.0000 -10610.4392 1430.0097 0.0000 0.0000 1785.7878 -7379.5329 303.7003 -9165.3207 -7502.6770 302.5034 14.6670 122.7915 30891.2593 -348.8908 -257.8068
ENERGY: 600000 1.8615 6.2522 2.8495 0.0000 -10705.5712 1443.2902 0.0000 0.0000 1761.0350 -7490.2827 299.4908 -9251.3177 -7498.4911 302.4594 127.6569 172.4633 30140.8605 -181.9069 -101.4978
ENERGY: 900000 0.6394 7.9782 3.5237 0.0000 -10586.2361 1361.8116 0.0000 0.0000 1791.0404 -7421.2428 304.5936 -9212.2833 -7486.9380 301.9755 -440.2649 -404.0956 30407.1319 -203.6866 -132.2692
ENERGY: 1200000 3.1698 6.2660 3.4801 0.0000 -10564.2058 1336.6899 0.0000 0.0000 1771.5336 -7443.0664 301.2762 -9214.6000 -7471.1545 303.1367 -538.4577 -513.3426 30432.7225 -175.7032 -112.1989
ENERGY: 1500000 2.9977 6.0011 1.4952 0.0000 -10680.8460 1379.6527 0.0000 0.0000 1776.9882 -7513.7112 302.2038 -9290.6993 -7479.9945 303.0558 -641.6546 -578.4324 30324.4895 -132.5411 -69.3953
TCL: Running FEP window  17: Lambda1 0.19999999999999968 Lambda2 0.1499999999999997 [dLambda -0.04999999999999999]
TCL: Setting parameter firsttimestep to 0
TCL: Setting parameter alchLambda to 0.19999999999999968
Info: NONBONDED TABLE R-SQUARED SPACING: 0.0625
Info: NONBONDED TABLE SIZE: 705 POINTS
TCL: Setting parameter alchLambda2 to 0.1499999999999997
Info: NONBONDED TABLE R-SQUARED SPACING: 0.0625
Info: NONBONDED TABLE SIZE: 705 POINTS
TCL: Running for 1500000 steps
ETITLE: TS BOND ANGLE DIHED IMPRP ELECT VDW BOUNDARY MISC KINETIC TOTAL TEMP POTENTIAL TOTALAVG TEMPAVG PRESSURE GPRESSURE VOLUME PRESSAVG GPRESSAVG
ENERGY: 0 2.9977 6.0011 1.4952 0.0000 -10680.8489 1379.9267 0.0000 0.0000 1776.1203 -7514.3079 302.0562 -9290.4282 -7514.3079 302.0562 -663.3510 -576.8520 30324.4895 -663.3510 -576.8520
ENERGY: 300000 0.7066 5.3062 2.9883 0.0000 -10725.0285 1439.4141 0.0000 0.0000 1769.2253 -7507.3880 300.8836 -9276.6133 -7492.1415 301.0224 -238.0033 -161.0384 30546.7034 -274.2844 -205.6206
ENERGY: 600000 2.6417 6.7580 2.4350 0.0000 -10552.3442 1345.9419 0.0000 0.0000 1780.1689 -7414.3988 302.7448 -9194.5676 -7488.6201 301.0403 -1226.7568 -1140.6913 31664.9998 -459.8862 -389.0899
ENERGY: 900000 1.0887 9.6317 2.0230 0.0000 -10722.0997 1465.9175 0.0000 0.0000 1792.0793 -7451.3595 304.7703 -9243.4388 -7484.7932 301.4795 441.8360 470.3051 30015.9759 -433.2213 -371.3276
ENERGY: 1200000 1.4141 5.5409 3.8899 0.0000 -10593.9216 1348.5909 0.0000 0.0000 1754.3631 -7480.1226 298.3561 -9234.4858 -7475.9768 300.7923 -824.9439 -678.7240 30597.2405 -343.3908 -272.4306
ENERGY: 1500000 2.2556 8.2058 2.7893 0.0000 -10727.7391 1475.3219 0.0000 0.0000 1778.5714 -7460.5952 302.4731 -9239.1666 -7474.3338 301.5039 369.8820 444.7507 29976.4543 -317.4347 -247.6991
TCL: Running FEP window  18: Lambda1 0.1499999999999997 Lambda2 0.09999999999999969 [dLambda -0.05 ]
TCL: Setting parameter firsttimestep to 0
TCL: Setting parameter alchLambda to 0.1499999999999997
Info: NONBONDED TABLE R-SQUARED SPACING: 0.0625
Info: NONBONDED TABLE SIZE: 705 POINTS
TCL: Setting parameter alchLambda2 to 0.09999999999999969
Info: NONBONDED TABLE R-SQUARED SPACING: 0.0625
Info: NONBONDED TABLE SIZE: 705 POINTS
TCL: Running for 1500000 steps
ETITLE: TS BOND ANGLE DIHED IMPRP ELECT VDW BOUNDARY MISC KINETIC TOTAL TEMP POTENTIAL TOTALAVG TEMPAVG PRESSURE GPRESSURE VOLUME PRESSAVG GPRESSAVG
ENERGY: 0 2.2556 8.2058 2.7893 0.0000 -10727.7390 1475.7892 0.0000 0.0000 1777.6918 -7461.0074 302.3235 -9238.6992 -7461.0074 302.3235 359.8971 446.2086 29976.4543 359.8971 446.2086
ENERGY: 300000 0.5121 6.3813 2.9597 0.0000 -10728.2397 1370.6019 0.0000 0.0000 1753.2797 -7594.5051 298.1718 -9347.7848 -7498.3021 301.0177 -865.4202 -782.1987 30198.5246 -130.5990 -46.3656
ENERGY: 600000 1.1988 6.3941 1.7454 0.0000 -10960.8916 1595.2274 0.0000 0.0000 1783.8771 -7572.4488 303.3754 -9356.3259 -7503.3697 302.1621 884.5449 959.0308 30314.6322 176.2015 251.4378
ENERGY: 900000 0.9877 8.9987 4.2755 0.0000 -10757.0684 1424.0713 0.0000 0.0000 1785.8317 -7532.9036 303.7078 -9318.7353 -7491.0065 302.4314 -273.1432 -144.8043 30285.0293 15.8860 91.3068
ENERGY: 1200000 1.0084 3.2422 4.1682 0.0000 -10703.1180 1453.0787 0.0000 0.0000 1766.2647 -7475.3558 300.3801 -9241.6204 -7490.4836 301.3804 -182.0182 -130.3111 31062.2564 0.5002 70.5051
ENERGY: 1500000 4.8939 7.5325 2.4953 0.0000 -10739.8948 1456.0628 0.0000 0.0000 1747.6341 -7521.2762 297.2117 -9268.9103 -7495.2311 300.8012 189.6055 276.5004 29904.2897 19.6214 87.9994
TCL: Running FEP window  19: Lambda1 0.09999999999999969 Lambda2 0.049999999999999684 [dLambda -0.05 ]
TCL: Setting parameter firsttimestep to 0
TCL: Setting parameter alchLambda to 0.09999999999999969
Info: NONBONDED TABLE R-SQUARED SPACING: 0.0625
Info: NONBONDED TABLE SIZE: 705 POINTS
TCL: Setting parameter alchLambda2 to 0.049999999999999684
Info: NONBONDED TABLE R-SQUARED SPACING: 0.0625
Info: NONBONDED TABLE SIZE: 705 POINTS
TCL: Running for 1500000 steps
ETITLE: TS BOND ANGLE DIHED IMPRP ELECT VDW BOUNDARY MISC KINETIC TOTAL TEMP POTENTIAL TOTALAVG TEMPAVG PRESSURE GPRESSURE VOLUME PRESSAVG GPRESSAVG
ENERGY: 0 4.8939 7.5325 2.4953 0.0000 -10739.8930 1456.4072 0.0000 0.0000 1746.7741 -7521.7901 297.0655 -9268.5641 -7521.7901 297.0655 193.6908 276.5552 29904.2897 193.6908 276.5552
ENERGY: 300000 2.2749 4.5483 2.7620 0.0000 -10636.6447 1394.3911 0.0000 0.0000 1823.3547 -7409.3137 310.0892 -9232.6684 -7493.6331 300.9816 -348.5531 -236.5101 30562.5443 -197.4519 -114.2851
ENERGY: 600000 2.7253 8.8558 3.9065 0.0000 -10728.1557 1433.8674 0.0000 0.0000 1746.7785 -7532.0223 297.0662 -9278.8008 -7499.4391 300.1261 -84.6416 -24.9276 29956.6649 -138.1494 -59.3517
ENERGY: 900000 2.0891 4.2433 2.1425 0.0000 -10778.9827 1467.0620 0.0000 0.0000 1805.0270 -7498.4187 306.9723 -9303.4457 -7494.1196 300.4068 -41.0735 115.0191 30067.5392 -127.3888 -40.8784
ENERGY: 1200000 2.0446 5.2519 2.9473 0.0000 -10601.9257 1391.1368 0.0000 0.0000 1766.3553 -7434.1899 300.3955 -9200.5452 -7483.8924 300.3752 -301.1590 -265.4838 30459.1174 -175.1018 -93.6143
ENERGY: 1500000 1.5232 7.6491 3.2178 0.0000 -10672.1367 1443.1311 0.0000 0.0000 1716.7614 -7499.8540 291.9614 -9216.6154 -7476.4483 300.2701 8.4079 115.8017 30130.8717 -163.6481 -78.8305
TCL: Running FEP window  20: Lambda1 0.049999999999999684 Lambda2 0.0    [dLambda -0.049999999999999684]
TCL: Setting parameter firsttimestep to 0
TCL: Setting parameter alchLambda to 0.049999999999999684
Info: NONBONDED TABLE R-SQUARED SPACING: 0.0625
Info: NONBONDED TABLE SIZE: 705 POINTS
TCL: Setting parameter alchLambda2 to 0.0
Info: NONBONDED TABLE R-SQUARED SPACING: 0.0625
Info: NONBONDED TABLE SIZE: 705 POINTS
TCL: Running for 1500000 steps
ETITLE: TS BOND ANGLE DIHED IMPRP ELECT VDW BOUNDARY MISC KINETIC TOTAL TEMP POTENTIAL TOTALAVG TEMPAVG PRESSURE GPRESSURE VOLUME PRESSAVG GPRESSAVG
ENERGY: 0 1.5232 7.6491 3.2178 0.0000 -10672.1354 1442.5149 0.0000 0.0000 1715.8921 -7501.3382 291.8135 -9217.2303 -7501.3382 291.8135 25.9971 111.6323 30130.8717 25.9971 111.6323
ENERGY: 300000 2.9894 3.1840 3.8936 0.0000 -10653.1466 1394.1347 0.0000 0.0000 1788.0805 -7460.8644 304.0903 -9248.9449 -7480.5746 300.2758 -724.6989 -733.0666 30846.4868 -324.8604 -257.5507
ENERGY: 600000 2.0148 9.8335 3.5168 0.0000 -10779.3615 1460.6730 0.0000 0.0000 1733.2101 -7570.1132 294.7587 -9303.3233 -7521.1825 297.7470 117.4100 201.3142 29736.7558 -1.7498 66.5660
ENERGY: 900000 0.2318 11.6488 3.7307 0.0000 -10646.3873 1407.1816 0.0000 0.0000 1712.3420 -7511.2524 291.2098 -9223.5943 -7497.7092 298.7996 -148.7958 -69.5941 30129.9388 -1.1921 68.3261
ENERGY: 1200000 3.1738 6.7115 2.9390 0.0000 -10693.1426 1440.0994 0.0000 0.0000 1812.0914 -7428.1275 308.1737 -9240.2189 -7496.2098 298.8390 -114.4051 -92.8678 30367.1357 10.6911 82.3539
ENERGY: 1500000 3.9629 5.9341 3.3589 0.0000 -10746.2219 1379.2552 0.0000 0.0000 1793.1062 -7560.6045 304.9449 -9353.7107 -7509.8097 299.0231 -935.4027 -952.7145 30511.0683 -71.6373 -9.2774
TCL: Exiting due to exit command.
