Info: SIMULATION PARAMETERS:
Info: TIMESTEP               2
Info: NUMBER OF STEPS        0
Info: STEPS PER CYCLE        10
Info: PERIODIC CELL BASIS 1  31.0719 0 0
Info: PERIODIC CELL BASIS 2  0 30.4271 0
Info: PERIODIC CELL BASIS 3  0 0 32.1492
Info: PERIODIC CELL CENTER   0 0 0
Info: WRAPPING WATERS AROUND PERIODIC BOUNDARIES ON OUTPUT.
Info: WRAPPING ALL CLUSTERS AROUND PERIODIC BOUNDARIES ON OUTPUT.
Info: FIRST LDB TIMESTEP     50
Info: LAST LDB TIMESTEP     -1
Info: HOM BACKGROUND SCALING 1
Info: PME BACKGROUND SCALING 1
Info: MIN ATOMS PER PATCH    40
Info: EMPTY PATCH LOAD       40 ATOMS
Info: VELOCITY FILE          mobley_6232400_equil.vel
Info: CENTER OF MASS MOVING INITIALLY? NO
Info: DIELECTRIC             1
Info: EXCLUDE                SCALED ONE-FOUR
Info: 1-4 ELECTROSTATICS SCALED BY 0.833333
Info: MODIFIED 1-4 VDW PARAMETERS WILL BE USED
Info: DCD FILENAME           mobley_6232400_prod.dcd
Info: DCD FREQUENCY          100000
Info: DCD FIRST STEP         100000
Info: DCD FILE WILL CONTAIN UNIT CELL DATA
Info: XST FILENAME           mobley_6232400_prod.xst
Info: XST FREQUENCY          100000
Info: NO VELOCITY DCD OUTPUT
Info: NO FORCE DCD OUTPUT
Info: OUTPUT FILENAME        mobley_6232400_prod
Info: BINARY OUTPUT FILES WILL BE USED
Info: RESTART FILENAME       mobley_6232400_prod.restart
Info: RESTART FREQUENCY      100000
Info: BINARY RESTART FILES WILL BE USED
Info: CUTOFF                 9
Info: PAIRLIST DISTANCE      11
Info: PAIRLIST SHRINK RATE   0.01
Info: PAIRLIST GROW RATE     0.01
Info: PAIRLIST TRIGGER       0.3
Info: PAIRLISTS PER CYCLE    2
Info: PAIRLISTS ENABLED
Info: MARGIN                 2
Info: HYDROGEN GROUP CUTOFF  2.5
Info: PATCH DIMENSION        15.5
Info: ENERGY OUTPUT STEPS    100000
Info: ENERGY EVALUATION STEPS    100000
Info: OUTPUT ENERGY PRECISION 4
Info: CROSSTERM ENERGY INCLUDED IN DIHEDRAL
Info: TIMING OUTPUT STEPS    1000000
Info: PRESSURE OUTPUT STEPS  100000
Info: ALCHEMICAL FEP ON
Info: FEP CURRENT LAMBDA VALUE     0
Info: FEP COMPARISON LAMBDA VALUE  0.05
Info: FEP INTRA-ALCHEMICAL NON-BONDED INTERACTIONS WILL BE RETAINED
Info: FEP INTRA-ALCHEMICAL BONDED INTERACTIONS WILL BE RETAINED
Info: FEP VDW SHIFTING COEFFICIENT 5
Info: FEP ELEC. ACTIVE FOR ANNIHILATED PARTICLES BETWEEN LAMBDA = 0 AND LAMBDA = 0.5
Info: FEP ELEC. ACTIVE FOR EXNIHILATED PARTICLES BETWEEN LAMBDA = 0.5 AND LAMBDA = 1
Info: FEP VDW ACTIVE FOR ANNIHILATED PARTICLES BETWEEN LAMBDA = 0 AND LAMBDA = 1
Info: FEP VDW ACTIVE FOR EXNIHILATED PARTICLES BETWEEN LAMBDA = 0 AND LAMBDA = 1
Info: FEP BOND ACTIVE FOR ANNIHILATED PARTICLES BETWEEN LAMBDA = 1 AND LAMBDA = 1
Info: FEP BOND ACTIVE FOR EXNIHILATED PARTICLES BETWEEN LAMBDA = 0 AND LAMBDA = 0
Info: LANGEVIN DYNAMICS ACTIVE
Info: LANGEVIN TEMPERATURE   300
Info: LANGEVIN USING BBK INTEGRATOR
Info: LANGEVIN DAMPING COEFFICIENT IS 1 INVERSE PS
Info: LANGEVIN DYNAMICS APPLIED TO HYDROGENS
Info: LANGEVIN PISTON PRESSURE CONTROL ACTIVE
Info:        TARGET PRESSURE IS 1.01325 BAR
Info:     OSCILLATION PERIOD IS 50 FS
Info:             DECAY TIME IS 25 FS
Info:     PISTON TEMPERATURE IS 300 K
Info:       PRESSURE CONTROL IS GROUP-BASED
Info:    INITIAL STRAIN RATE IS -0.000733215 -0.000733215 -0.000733215
Info:       CELL FLUCTUATION IS ISOTROPIC
Info: PARTICLE MESH EWALD (PME) ACTIVE
Info: PME TOLERANCE               1e-06
Info: PME EWALD COEFFICIENT       0.348832
Info: PME INTERPOLATION ORDER     4
Info: PME GRID DIMENSIONS         32 32 36
Info: PME MAXIMUM GRID SPACING    1
Info: PME CALCULATION WILL BE PERFORMED ON GPU
Info: FULL ELECTROSTATIC EVALUATION FREQUENCY      2
Info: USING VERLET I (r-RESPA) MTS SCHEME.
Info: C1 SPLITTING OF LONG RANGE ELECTROSTATICS
Info: PLACING ATOMS IN PATCHES BY HYDROGEN GROUPS
Info: RIGID BONDS TO HYDROGEN : ALL
Info:         ERROR TOLERANCE : 1e-08
Info:          MAX ITERATIONS : 100
Info: RIGID WATER USING SETTLE ALGORITHM
Info: RANDOM NUMBER SEED     1743730433
Info: USE HYDROGEN BONDS?    NO
Info: Using AMBER format force field!
Info: AMBER PARM FILE        mobley_6232400.prmtop
Info: COORDINATE PDB         mobley_6232400.pdb
Info: Exclusions will be read from PARM file!
Info: SCNB (VDW SCALING)     2
Info: USING ARITHMETIC MEAN TO COMBINE L-J SIGMA PARAMETERS
Info: BINARY COORDINATES     mobley_6232400_equil.coor
Info: SUMMARY OF PARAMETERS:
Info: 9 BONDS
Info: 10 ANGLES
Info:   10 HARMONIC
Info:   0 COSINE-BASED
Info: 5 DIHEDRAL
Info: 0 IMPROPER
Info: 0 CROSSTERM
Info: 0 VDW
Info: 28 VDW_PAIRS
Info: 0 NBTHOLE_PAIRS
Info: To read alchdata from file: mobley_6232400.pdb
Info: To read alchflag data from column: 5
Info: STRUCTURE SUMMARY:
Info: 2956 ATOMS
Info: 2956 BONDS
Info: 19 ANGLES
Info: 30 DIHEDRALS
Info: 0 IMPROPERS
Info: 0 CROSSTERMS
Info: 2996 EXCLUSIONS
Info: 2948 RIGID BONDS
Info: ALCH: 0 ATOMS TO DISAPPEAR IN FINAL STATE
Info: ALCH: 13 ATOMS TO APPEAR IN FINAL STATE
Info: 5920 DEGREES OF FREEDOM
Info: 989 HYDROGEN GROUPS
Info: 3 ATOMS IN LARGEST HYDROGEN GROUP
Info: 989 MIGRATION GROUPS
Info: 3 ATOMS IN LARGEST MIGRATION GROUP
Info: TOTAL MASS = 17780.8 amu
Info: TOTAL CHARGE = -0.000100096 e
Info: MASS DENSITY = 0.971435 g/cm^3
Info: ATOM DENSITY = 0.097254 atoms/A^3
Info: ADDED 0 IMPLICIT EXCLUSIONS
Info: NONBONDED TABLE R-SQUARED SPACING: 0.0625
Info: NONBONDED TABLE SIZE: 705 POINTS
Info: REMOVING COM VELOCITY -0.0139214 -0.0522181 -0.0975383
Info: Use 3D box decompostion in PME FFT.
Info: Updated CUDA force table with 4096 elements.
Info: Updated CUDA LJ table with 7 x 7 elements.
Info: Found 16 unique exclusion lists needing 32 bytes
TCL: Running for 1500000 steps
ETITLE: TS BOND ANGLE DIHED IMPRP ELECT VDW BOUNDARY MISC KINETIC TOTAL TEMP POTENTIAL TOTALAVG TEMPAVG PRESSURE GPRESSURE VOLUME PRESSAVG GPRESSAVG
ENERGY: 0 3.0091 2.2986 5.0089 0.0000 -10773.7275 1542.9894 0.0000 0.0000 1754.4371 -7465.9843 298.2679 -9220.4214 -7465.9843 298.2679 820.2336 899.8859 30394.6465 820.2336 899.8859
ENERGY: 300000 3.2716 2.6854 1.8124 0.0000 -10791.8741 1423.5809 0.0000 0.0000 1769.8776 -7590.6463 300.8929 -9360.5238 -7579.5837 298.3206 -76.7529 -46.9559 30049.6519 -18.1329 46.8354
ENERGY: 600000 2.1077 3.8188 3.7420 0.0000 -10668.2760 1402.7325 0.0000 0.0000 1771.1528 -7484.7223 301.1097 -9255.8751 -7536.3732 299.3834 -309.8252 -309.6850 30714.8202 -100.2480 -44.5852
ENERGY: 900000 2.3163 1.5602 2.5646 0.0000 -10760.9649 1464.4683 0.0000 0.0000 1753.7889 -7536.2666 298.1577 -9290.0555 -7529.3676 299.7548 99.9919 203.0131 30293.2050 -126.6759 -61.3784
ENERGY: 1200000 2.4549 1.1383 2.5640 0.0000 -10815.7466 1506.2507 0.0000 0.0000 1697.7430 -7605.5957 288.6294 -9303.3387 -7536.8276 299.2258 284.4313 285.3008 30227.8077 -163.2105 -103.2499
ENERGY: 1500000 1.4315 2.2151 2.4121 0.0000 -10552.9176 1355.1126 0.0000 0.0000 1719.8797 -7471.8666 292.3928 -9191.7463 -7532.2698 298.8074 -455.5421 -395.2671 30330.9162 -200.8850 -141.9594
TCL: Running FEP window   2: Lambda1 0.05   Lambda2 0.1    [dLambda 0.05  ]
TCL: Setting parameter firsttimestep to 0
TCL: Setting parameter alchLambda to 0.05
Info: NONBONDED TABLE R-SQUARED SPACING: 0.0625
Info: NONBONDED TABLE SIZE: 705 POINTS
TCL: Setting parameter alchLambda2 to 0.1
Info: NONBONDED TABLE R-SQUARED SPACING: 0.0625
Info: NONBONDED TABLE SIZE: 705 POINTS
TCL: Running for 1500000 steps
ETITLE: TS BOND ANGLE DIHED IMPRP ELECT VDW BOUNDARY MISC KINETIC TOTAL TEMP POTENTIAL TOTALAVG TEMPAVG PRESSURE GPRESSURE VOLUME PRESSAVG GPRESSAVG
ENERGY: 0 1.4315 2.2151 2.4121 0.0000 -10552.9163 1356.0782 0.0000 0.0000 1719.0145 -7471.7648 292.2458 -9190.7793 -7471.7648 292.2458 -467.9914 -390.9007 30330.9162 -467.9914 -390.9007
ENERGY: 300000 2.5104 3.1156 1.2001 0.0000 -10618.7304 1364.4180 0.0000 0.0000 1793.8119 -7453.6743 304.9619 -9247.4862 -7473.0075 297.7234 -878.9295 -827.6249 30868.1620 -582.3076 -505.8074
ENERGY: 600000 3.2815 3.2214 2.6561 0.0000 -10785.8098 1480.8828 0.0000 0.0000 1793.7471 -7502.0209 304.9509 -9295.7680 -7502.1652 297.9715 191.2548 184.4854 30439.7684 -369.7408 -309.5375
ENERGY: 900000 2.8478 3.8043 3.1825 0.0000 -10798.9144 1459.2580 0.0000 0.0000 1733.2488 -7596.5730 294.6657 -9329.8219 -7518.4305 298.7744 72.2848 148.5457 29981.9969 -280.8602 -217.5093
ENERGY: 1200000 0.9415 2.6054 1.1886 0.0000 -10822.3241 1473.5944 0.0000 0.0000 1775.9335 -7568.0607 301.9224 -9343.9943 -7529.0972 298.3227 86.2331 91.3739 30393.1862 -203.7087 -139.7649
ENERGY: 1500000 0.8865 5.2732 2.2548 0.0000 -10766.0627 1456.9820 0.0000 0.0000 1720.5758 -7580.0904 292.5112 -9300.6662 -7528.0187 298.3324 168.9885 215.5421 30172.5234 -161.5661 -99.4291
TCL: Running FEP window   3: Lambda1 0.1    Lambda2 0.15000000000000002 [dLambda 0.05000000000000002]
TCL: Setting parameter firsttimestep to 0
TCL: Setting parameter alchLambda to 0.1
Info: NONBONDED TABLE R-SQUARED SPACING: 0.0625
Info: NONBONDED TABLE SIZE: 705 POINTS
TCL: Setting parameter alchLambda2 to 0.15000000000000002
Info: NONBONDED TABLE R-SQUARED SPACING: 0.0625
Info: NONBONDED TABLE SIZE: 705 POINTS
TCL: Running for 1500000 steps
ETITLE: TS BOND ANGLE DIHED IMPRP ELECT VDW BOUNDARY MISC KINETIC TOTAL TEMP POTENTIAL TOTALAVG TEMPAVG PRESSURE GPRESSURE VOLUME PRESSAVG GPRESSAVG
ENERGY: 0 0.8865 5.2732 2.2548 0.0000 -10766.0638 1460.0894 0.0000 0.0000 1719.6682 -7577.8916 292.3569 -9297.5599 -7577.8916 292.3569 145.4793 226.5724 30172.5234 145.4793 226.5724
ENERGY: 300000 4.1288 3.9930 3.2286 0.0000 -10757.8365 1474.2224 0.0000 0.0000 1819.9626 -7452.3011 309.4077 -9272.2637 -7533.6276 298.9692 -44.6483 56.8730 30724.4050 173.8057 241.6714
ENERGY: 600000 1.3129 4.6995 1.1994 0.0000 -10880.9628 1524.0851 0.0000 0.0000 1756.1035 -7593.5624 298.5512 -9349.6659 -7536.8495 299.8332 268.8646 395.9382 30216.0353 118.6178 195.7312
ENERGY: 900000 1.7216 3.4635 1.4114 0.0000 -10725.6987 1445.3071 0.0000 0.0000 1790.7541 -7483.0411 304.4420 -9273.7952 -7540.9231 300.2746 -72.1317 -13.6083 30395.7851 129.1427 195.6611
ENERGY: 1200000 1.5400 1.9578 2.1944 0.0000 -10658.0436 1419.8849 0.0000 0.0000 1736.2719 -7496.1947 295.1797 -9232.4666 -7541.4519 299.7113 -469.0544 -328.6448 30955.1159 168.8740 245.8727
ENERGY: 1500000 3.4555 3.4418 3.5109 0.0000 -10775.6614 1377.7126 0.0000 0.0000 1778.5511 -7608.9895 302.3674 -9387.5406 -7543.8152 299.6249 -848.7727 -847.9259 30554.9588 89.8811 157.6239
TCL: Running FEP window   4: Lambda1 0.15000000000000002 Lambda2 0.2    [dLambda 0.04999999999999999]
TCL: Setting parameter firsttimestep to 0
TCL: Setting parameter alchLambda to 0.15000000000000002
Info: NONBONDED TABLE R-SQUARED SPACING: 0.0625
Info: NONBONDED TABLE SIZE: 705 POINTS
TCL: Setting parameter alchLambda2 to 0.2
Info: NONBONDED TABLE R-SQUARED SPACING: 0.0625
Info: NONBONDED TABLE SIZE: 705 POINTS
TCL: Running for 1500000 steps
ETITLE: TS BOND ANGLE DIHED IMPRP ELECT VDW BOUNDARY MISC KINETIC TOTAL TEMP POTENTIAL TOTALAVG TEMPAVG PRESSURE GPRESSURE VOLUME PRESSAVG GPRESSAVG
ENERGY: 0 3.4555 3.4418 3.5109 0.0000 -10775.6627 1378.1270 0.0000 0.0000 1777.6509 -7609.4766 302.2144 -9387.1275 -7609.4766 302.2144 -917.2706 -844.9445 30554.9588 -917.2706 -844.9445
ENERGY: 300000 1.3966 3.1498 3.0995 0.0000 -10706.7502 1400.5186 0.0000 0.0000 1738.8667 -7559.7189 295.6208 -9298.5857 -7552.4408 298.9175 -356.3839 -314.1375 30248.7333 -422.6660 -390.2789
ENERGY: 600000 1.9823 4.4746 0.8155 0.0000 -10706.5584 1431.3398 0.0000 0.0000 1764.6544 -7503.2918 300.0049 -9267.9461 -7533.6881 297.9618 -100.5057 -68.2745 30591.4124 -302.0850 -257.8422
ENERGY: 900000 1.6217 2.8470 1.9637 0.0000 -10841.0006 1517.1804 0.0000 0.0000 1833.8045 -7483.5832 311.7609 -9317.3877 -7532.3611 298.8729 571.7734 585.5450 30227.9509 -201.5458 -162.9541
ENERGY: 1200000 3.7513 1.9644 2.2370 0.0000 -10913.8774 1572.9851 0.0000 0.0000 1724.3621 -7608.5775 293.1549 -9332.9396 -7536.4794 298.6285 817.3952 857.2441 30127.2450 -68.4856 -25.0512
ENERGY: 1500000 2.4004 4.1555 2.5251 0.0000 -10787.4195 1529.5547 0.0000 0.0000 1783.7418 -7465.0420 303.2499 -9248.7839 -7527.1415 298.7557 863.1741 822.2257 30382.7388 13.1641 56.4673
TCL: Running FEP window   5: Lambda1 0.2    Lambda2 0.25   [dLambda 0.04999999999999999]
TCL: Setting parameter firsttimestep to 0
TCL: Setting parameter alchLambda to 0.2
Info: NONBONDED TABLE R-SQUARED SPACING: 0.0625
Info: NONBONDED TABLE SIZE: 705 POINTS
TCL: Setting parameter alchLambda2 to 0.25
Info: NONBONDED TABLE R-SQUARED SPACING: 0.0625
Info: NONBONDED TABLE SIZE: 705 POINTS
TCL: Running for 1500000 steps
ETITLE: TS BOND ANGLE DIHED IMPRP ELECT VDW BOUNDARY MISC KINETIC TOTAL TEMP POTENTIAL TOTALAVG TEMPAVG PRESSURE GPRESSURE VOLUME PRESSAVG GPRESSAVG
ENERGY: 0 2.4004 4.1555 2.5251 0.0000 -10787.4203 1529.5202 0.0000 0.0000 1782.8843 -7465.9349 303.1041 -9248.8192 -7465.9349 303.1041 747.3599 824.1938 30382.7388 747.3599 824.1938
ENERGY: 300000 4.3812 7.1155 2.1339 0.0000 -10899.5871 1540.8202 0.0000 0.0000 1704.3604 -7640.7759 289.7545 -9345.1363 -7528.2341 296.9640 420.5686 509.1772 30380.3737 376.9433 429.0877
ENERGY: 600000 1.9150 1.8061 2.5063 0.0000 -10848.4838 1501.7735 0.0000 0.0000 1722.8032 -7617.6797 292.8899 -9340.4829 -7528.9876 297.0555 651.5287 673.4610 30037.5933 224.9761 271.5801
ENERGY: 900000 2.2052 4.0509 2.6364 0.0000 -10663.5486 1370.4296 0.0000 0.0000 1742.1114 -7542.1151 296.1724 -9284.2264 -7541.2797 296.6007 -610.4165 -662.4415 30563.5158 10.6493 64.9342
ENERGY: 1200000 3.8395 4.6098 1.7571 0.0000 -10671.7815 1457.5783 0.0000 0.0000 1697.6295 -7506.3672 288.6102 -9203.9967 -7531.0129 296.7366 439.3971 522.7866 30388.4345 19.6850 72.2331
ENERGY: 1500000 0.9329 2.1652 3.4029 0.0000 -10748.5801 1395.2191 0.0000 0.0000 1800.2356 -7546.6245 306.0540 -9346.8600 -7529.2607 296.5618 -735.4736 -638.5883 30757.0495 -143.1440 -83.0685
TCL: Running FEP window   6: Lambda1 0.25   Lambda2 0.3    [dLambda 0.04999999999999999]
TCL: Setting parameter firsttimestep to 0
TCL: Setting parameter alchLambda to 0.25
Info: NONBONDED TABLE R-SQUARED SPACING: 0.0625
Info: NONBONDED TABLE SIZE: 705 POINTS
TCL: Setting parameter alchLambda2 to 0.3
Info: NONBONDED TABLE R-SQUARED SPACING: 0.0625
Info: NONBONDED TABLE SIZE: 705 POINTS
TCL: Running for 1500000 steps
ETITLE: TS BOND ANGLE DIHED IMPRP ELECT VDW BOUNDARY MISC KINETIC TOTAL TEMP POTENTIAL TOTALAVG TEMPAVG PRESSURE GPRESSURE VOLUME PRESSAVG GPRESSAVG
ENERGY: 0 0.9329 2.1652 3.4029 0.0000 -10748.5790 1395.1672 0.0000 0.0000 1799.3661 -7547.5447 305.9061 -9346.9108 -7547.5447 305.9061 -722.7411 -633.4841 30757.0495 -722.7411 -633.4841
ENERGY: 300000 5.1745 3.4648 2.5804 0.0000 -10664.5308 1334.1848 0.0000 0.0000 1800.5696 -7518.5568 306.1108 -9319.1264 -7546.6097 301.6812 -1043.9523 -977.4976 30355.7004 -763.3412 -663.9805
ENERGY: 600000 1.9659 1.8773 4.8435 0.0000 -10792.8154 1475.5917 0.0000 0.0000 1783.6124 -7524.9247 303.2279 -9308.5371 -7531.3867 301.4262 359.1809 406.2306 29994.7725 -540.2612 -455.6704
ENERGY: 900000 2.8215 3.5788 2.7493 0.0000 -10635.2063 1359.7681 0.0000 0.0000 1786.8487 -7479.4398 303.7781 -9266.2886 -7530.2664 301.1013 -567.1303 -506.6585 30589.6158 -424.4263 -347.0379
ENERGY: 1200000 2.1946 2.6642 2.0120 0.0000 -10729.0821 1385.8761 0.0000 0.0000 1745.6546 -7590.6806 296.7748 -9336.3352 -7521.4477 300.8957 -426.5687 -322.7464 29992.1389 -412.2388 -326.7082
ENERGY: 1500000 3.2364 2.3010 5.2669 0.0000 -10776.3268 1471.1222 0.0000 0.0000 1807.2346 -7487.1657 307.2439 -9294.4003 -7520.3888 301.0720 264.4777 288.1455 30564.7742 -297.8529 -217.7099
TCL: Running FEP window   7: Lambda1 0.3    Lambda2 0.35   [dLambda 0.04999999999999999]
TCL: Setting parameter firsttimestep to 0
TCL: Setting parameter alchLambda to 0.3
Info: NONBONDED TABLE R-SQUARED SPACING: 0.0625
Info: NONBONDED TABLE SIZE: 705 POINTS
TCL: Setting parameter alchLambda2 to 0.35
Info: NONBONDED TABLE R-SQUARED SPACING: 0.0625
Info: NONBONDED TABLE SIZE: 705 POINTS
TCL: Running for 1500000 steps
ETITLE: TS BOND ANGLE DIHED IMPRP ELECT VDW BOUNDARY MISC KINETIC TOTAL TEMP POTENTIAL TOTALAVG TEMPAVG PRESSURE GPRESSURE VOLUME PRESSAVG GPRESSAVG
ENERGY: 0 3.2364 2.3010 5.2669 0.0000 -10776.3282 1471.6544 0.0000 0.0000 1806.3481 -7487.5215 307.0931 -9293.8696 -7487.5215 307.0931 213.1823 294.5194 30564.7742 213.1823 294.5194
ENERGY: 300000 0.5352 1.6409 2.6786 0.0000 -10820.7383 1482.0532 0.0000 0.0000 1755.6068 -7578.2236 298.4667 -9333.8304 -7534.1965 302.2843 -30.7702 110.3752 30812.3830 7.8276 86.1613
ENERGY: 600000 0.6644 3.0367 2.0983 0.0000 -10757.4522 1461.4045 0.0000 0.0000 1759.0722 -7531.1760 299.0559 -9290.2482 -7529.4409 300.3629 -67.8937 0.7127 30811.7350 -83.7730 1.1112
ENERGY: 900000 3.3695 4.6558 3.7588 0.0000 -10663.0120 1345.2934 0.0000 0.0000 1804.4726 -7501.4619 306.7743 -9305.9345 -7525.4013 300.6614 -1012.9380 -912.2360 30745.5084 -198.3300 -113.1907
ENERGY: 1200000 1.1764 3.1041 2.0854 0.0000 -10824.2523 1452.3361 0.0000 0.0000 1793.3820 -7572.1684 304.8888 -9365.5504 -7524.1867 301.0860 -168.7224 -133.2481 30508.7441 -156.5712 -89.0590
ENERGY: 1500000 4.9953 1.9299 3.9887 0.0000 -10632.3544 1371.1101 0.0000 0.0000 1677.1408 -7573.1896 285.1269 -9250.3304 -7525.3470 299.1576 -674.7166 -608.0655 30060.8853 -224.9950 -162.5726
TCL: Running FEP window   8: Lambda1 0.35   Lambda2 0.39999999999999997 [dLambda 0.04999999999999999]
TCL: Setting parameter firsttimestep to 0
TCL: Setting parameter alchLambda to 0.35
Info: NONBONDED TABLE R-SQUARED SPACING: 0.0625
Info: NONBONDED TABLE SIZE: 705 POINTS
TCL: Setting parameter alchLambda2 to 0.39999999999999997
Info: NONBONDED TABLE R-SQUARED SPACING: 0.0625
Info: NONBONDED TABLE SIZE: 705 POINTS
TCL: Running for 1500000 steps
ETITLE: TS BOND ANGLE DIHED IMPRP ELECT VDW BOUNDARY MISC KINETIC TOTAL TEMP POTENTIAL TOTALAVG TEMPAVG PRESSURE GPRESSURE VOLUME PRESSAVG GPRESSAVG
ENERGY: 0 4.9953 1.9299 3.9887 0.0000 -10632.3538 1370.9316 0.0000 0.0000 1676.2573 -7574.2510 284.9767 -9250.5083 -7574.2510 284.9767 -691.0196 -603.3082 30060.8853 -691.0196 -603.3082
ENERGY: 300000 1.4508 2.3599 5.8182 0.0000 -10781.3667 1446.6576 0.0000 0.0000 1794.2537 -7530.8265 305.0370 -9325.0802 -7533.8873 300.4916 -133.3794 -75.5626 30875.2976 -30.3376 29.4926
ENERGY: 600000 1.8760 2.6688 2.7542 0.0000 -10780.9770 1503.7625 0.0000 0.0000 1792.9226 -7476.9930 304.8107 -9269.9155 -7511.4118 303.5337 582.6823 597.1961 30107.8048 -173.3485 -122.7734
ENERGY: 900000 2.1968 4.3024 3.0357 0.0000 -10828.9908 1500.2591 0.0000 0.0000 1791.1297 -7528.0671 304.5059 -9319.1968 -7517.5415 302.9799 485.9507 460.8444 29854.9710 36.8218 78.7626
ENERGY: 1200000 0.8354 0.4733 7.1737 0.0000 -10800.2456 1473.3357 0.0000 0.0000 1759.6645 -7558.7630 299.1566 -9318.4275 -7513.9071 303.0861 310.0898 353.6654 30259.5377 -21.8832 22.5485
ENERGY: 1500000 1.6264 2.3494 2.5202 0.0000 -10949.7154 1566.4403 0.0000 0.0000 1763.0129 -7613.7663 299.7258 -9376.7792 -7522.7538 302.0068 924.6225 984.8470 29947.4049 77.8915 121.7939
TCL: Running FEP window   9: Lambda1 0.39999999999999997 Lambda2 0.44999999999999996 [dLambda 0.04999999999999999]
TCL: Setting parameter firsttimestep to 0
TCL: Setting parameter alchLambda to 0.39999999999999997
Info: NONBONDED TABLE R-SQUARED SPACING: 0.0625
Info: NONBONDED TABLE SIZE: 705 POINTS
TCL: Setting parameter alchLambda2 to 0.44999999999999996
Info: NONBONDED TABLE R-SQUARED SPACING: 0.0625
Info: NONBONDED TABLE SIZE: 705 POINTS
TCL: Running for 1500000 steps
ETITLE: TS BOND ANGLE DIHED IMPRP ELECT VDW BOUNDARY MISC KINETIC TOTAL TEMP POTENTIAL TOTALAVG TEMPAVG PRESSURE GPRESSURE VOLUME PRESSAVG GPRESSAVG
ENERGY: 0 1.6264 2.3494 2.5202 0.0000 -10949.7148 1566.4028 0.0000 0.0000 1762.1546 -7614.6615 299.5799 -9376.8161 -7614.6615 299.5799 906.3050 989.1518 29947.4049 906.3050 989.1518
ENERGY: 300000 1.2178 6.6894 5.2916 0.0000 -10650.6310 1376.3822 0.0000 0.0000 1758.4391 -7502.6109 298.9482 -9261.0500 -7562.2760 299.0767 -474.5132 -384.3228 30282.4215 144.2831 200.8234
ENERGY: 600000 0.5613 3.0801 3.1687 0.0000 -10730.5878 1460.8147 0.0000 0.0000 1791.0108 -7471.9523 304.4857 -9262.9630 -7534.8811 300.7664 163.2799 268.2887 30614.2331 149.2323 203.2192
ENERGY: 900000 1.3307 2.8095 4.3606 0.0000 -10773.7607 1456.0830 0.0000 0.0000 1804.7717 -7504.4052 306.8251 -9309.1769 -7527.5955 302.0184 -157.0911 -47.9839 30401.7409 127.9061 190.2254
ENERGY: 1200000 4.1022 3.6100 1.5875 0.0000 -10654.1331 1343.0459 0.0000 0.0000 1776.9361 -7524.8513 302.0929 -9301.7875 -7534.3113 301.4051 -875.3373 -858.8791 30428.7677 50.1952 112.1460
ENERGY: 1500000 2.2276 7.3879 1.9267 0.0000 -10700.4097 1445.9895 0.0000 0.0000 1777.7205 -7465.1575 302.2262 -9242.8780 -7536.0701 301.2697 174.2271 233.7637 30433.7518 -33.9145 27.2049
TCL: Running FEP window  10: Lambda1 0.44999999999999996 Lambda2 0.49999999999999994 [dLambda 0.04999999999999999]
TCL: Setting parameter firsttimestep to 0
TCL: Setting parameter alchLambda to 0.44999999999999996
Info: NONBONDED TABLE R-SQUARED SPACING: 0.0625
Info: NONBONDED TABLE SIZE: 705 POINTS
TCL: Setting parameter alchLambda2 to 0.49999999999999994
Info: NONBONDED TABLE R-SQUARED SPACING: 0.0625
Info: NONBONDED TABLE SIZE: 705 POINTS
TCL: Running for 1500000 steps
ETITLE: TS BOND ANGLE DIHED IMPRP ELECT VDW BOUNDARY MISC KINETIC TOTAL TEMP POTENTIAL TOTALAVG TEMPAVG PRESSURE GPRESSURE VOLUME PRESSAVG GPRESSAVG
ENERGY: 0 2.2276 7.3879 1.9267 0.0000 -10700.4092 1445.9336 0.0000 0.0000 1776.8443 -7466.0892 302.0773 -9242.9335 -7466.0892 302.0773 167.7359 239.8708 30433.7518 167.7359 239.8708
ENERGY: 300000 4.1178 3.9839 2.8774 0.0000 -10839.9471 1515.4843 0.0000 0.0000 1757.8020 -7555.6817 298.8399 -9313.4837 -7491.2306 303.1091 338.9568 370.9240 30376.6809 -161.8736 -125.5219
ENERGY: 600000 4.3546 2.4822 4.4340 0.0000 -10704.7893 1445.4286 0.0000 0.0000 1797.0328 -7451.0570 305.5095 -9248.0898 -7511.8422 301.0997 2.2155 52.3212 30512.5445 -195.3567 -137.1566
ENERGY: 900000 6.1038 1.7914 3.6798 0.0000 -10631.6472 1330.6205 0.0000 0.0000 1819.4304 -7470.0213 309.3172 -9289.4517 -7507.5308 301.7859 -864.8955 -802.7158 30215.4413 -352.5816 -299.5722
ENERGY: 1200000 4.1795 2.5140 1.2122 0.0000 -10525.9374 1321.6218 0.0000 0.0000 1738.4227 -7457.9872 295.5453 -9196.4099 -7500.1421 301.3335 -783.4013 -715.1745 30503.7825 -355.1846 -302.3841
ENERGY: 1500000 1.9443 3.5130 1.7936 0.0000 -10840.8717 1482.6663 0.0000 0.0000 1722.6385 -7628.3159 292.8619 -9350.9544 -7505.2265 300.6881 -6.3596 92.9272 30525.2578 -290.2458 -236.7063
TCL: Running FEP window  11: Lambda1 0.49999999999999994 Lambda2 0.5499999999999999 [dLambda 0.04999999999999999]
TCL: Setting parameter firsttimestep to 0
TCL: Setting parameter alchLambda to 0.49999999999999994
Info: NONBONDED TABLE R-SQUARED SPACING: 0.0625
Info: NONBONDED TABLE SIZE: 705 POINTS
TCL: Setting parameter alchLambda2 to 0.5499999999999999
Info: NONBONDED TABLE R-SQUARED SPACING: 0.0625
Info: NONBONDED TABLE SIZE: 705 POINTS
TCL: Running for 1500000 steps
ETITLE: TS BOND ANGLE DIHED IMPRP ELECT VDW BOUNDARY MISC KINETIC TOTAL TEMP POTENTIAL TOTALAVG TEMPAVG PRESSURE GPRESSURE VOLUME PRESSAVG GPRESSAVG
ENERGY: 0 1.9443 3.5130 1.7936 0.0000 -10840.8703 1482.9024 0.0000 0.0000 1721.7532 -7628.9639 292.7114 -9350.7170 -7628.9639 292.7114 3.5710 101.4358 30525.2578 3.5710 101.4358
ENERGY: 300000 1.4662 3.4170 0.9671 0.0000 -10795.4807 1448.2566 0.0000 0.0000 1730.7819 -7610.5919 294.2463 -9341.3737 -7558.4600 297.9957 48.2075 40.0230 30168.3605 -135.2137 -60.5705
ENERGY: 600000 1.3880 3.5725 3.5563 0.0000 -10671.3170 1451.5225 0.0000 0.0000 1818.0356 -7393.2421 309.0801 -9211.2777 -7538.9719 298.5741 295.8101 405.5158 30508.2781 27.4862 108.7212
ENERGY: 900000 3.5321 1.2600 4.5391 0.0000 -10643.3096 1358.3487 0.0000 0.0000 1726.3264 -7549.3034 293.4888 -9275.6298 -7539.2927 299.5726 -581.1731 -456.9702 30094.9610 -31.3551 45.8116
ENERGY: 1200000 1.7309 5.8737 1.5765 0.0000 -10726.1261 1374.5137 0.0000 0.0000 1728.7845 -7613.6468 293.9067 -9342.4313 -7534.6419 299.6079 -644.9590 -604.1614 30371.4767 -156.7506 -82.7310
ENERGY: 1500000 2.7000 1.6928 3.5291 0.0000 -10799.7681 1481.9920 0.0000 0.0000 1790.1195 -7519.7347 304.3342 -9309.8542 -7531.3653 299.8266 322.5090 416.0780 30322.1169 -87.2679 -16.5843
TCL: Running FEP window  12: Lambda1 0.5499999999999999 Lambda2 0.6    [dLambda 0.050000000000000044]
TCL: Setting parameter firsttimestep to 0
TCL: Setting parameter alchLambda to 0.5499999999999999
Info: NONBONDED TABLE R-SQUARED SPACING: 0.0625
Info: NONBONDED TABLE SIZE: 705 POINTS
TCL: Setting parameter alchLambda2 to 0.6
Info: NONBONDED TABLE R-SQUARED SPACING: 0.0625
Info: NONBONDED TABLE SIZE: 705 POINTS
TCL: Running for 1500000 steps
ETITLE: TS BOND ANGLE DIHED IMPRP ELECT VDW BOUNDARY MISC KINETIC TOTAL TEMP POTENTIAL TOTALAVG TEMPAVG PRESSURE GPRESSURE VOLUME PRESSAVG GPRESSAVG
ENERGY: 0 2.7000 1.6928 3.5291 0.0000 -10799.9232 1481.5918 0.0000 0.0000 1789.2301 -7521.1794 304.1830 -9310.4095 -7521.1794 304.1830 334.6748 416.9866 30322.1169 334.6748 416.9866
ENERGY: 300000 3.4411 3.2811 4.5023 0.0000 -10820.8252 1463.5456 0.0000 0.0000 1785.1586 -7560.8964 303.4908 -9346.0550 -7549.7346 303.9851 53.8308 183.8300 30268.0176 -41.7877 38.9637
ENERGY: 600000 4.1105 4.9582 2.3874 0.0000 -10776.6405 1381.7115 0.0000 0.0000 1739.8383 -7643.6347 295.7860 -9383.4730 -7547.2196 302.1292 -749.1880 -664.1608 30348.1224 -346.6498 -260.2272
ENERGY: 900000 3.3477 2.4486 3.9285 0.0000 -10640.4981 1408.0850 0.0000 0.0000 1807.1683 -7415.5201 307.2326 -9222.6884 -7530.1844 302.2312 3.1616 63.0741 30526.6560 -351.3753 -269.5074
ENERGY: 1200000 5.7006 2.2762 6.3702 0.0000 -10688.2512 1464.6891 0.0000 0.0000 1764.2327 -7444.9824 299.9332 -9209.2151 -7520.0367 301.4012 160.7049 202.7652 30942.8233 -264.7169 -186.5230
ENERGY: 1500000 1.1683 3.1138 3.1948 0.0000 -10794.8639 1467.5841 0.0000 0.0000 1828.6003 -7491.2027 310.8762 -9319.8030 -7521.1215 302.0052 430.8069 499.6437 30039.5866 -253.8503 -182.2583
TCL: Running FEP window  13: Lambda1 0.6    Lambda2 0.65   [dLambda 0.050000000000000044]
TCL: Setting parameter firsttimestep to 0
TCL: Setting parameter alchLambda to 0.6
Info: NONBONDED TABLE R-SQUARED SPACING: 0.0625
Info: NONBONDED TABLE SIZE: 705 POINTS
TCL: Setting parameter alchLambda2 to 0.65
Info: NONBONDED TABLE R-SQUARED SPACING: 0.0625
Info: NONBONDED TABLE SIZE: 705 POINTS
TCL: Running for 1500000 steps
ETITLE: TS BOND ANGLE DIHED IMPRP ELECT VDW BOUNDARY MISC KINETIC TOTAL TEMP POTENTIAL TOTALAVG TEMPAVG PRESSURE GPRESSURE VOLUME PRESSAVG GPRESSAVG
ENERGY: 0 1.1683 3.1138 3.1948 0.0000 -10795.0223 1467.0965 0.0000 0.0000 1827.7180 -7492.7310 310.7262 -9320.4489 -7492.7310 310.7262 423.6241 499.9964 30039.5866 423.6241 499.9964
ENERGY: 300000 2.1394 5.3942 1.3891 0.0000 -10636.5506 1396.7298 0.0000 0.0000 1735.4313 -7495.4668 295.0367 -9230.8981 -7516.5489 298.2336 30.5502 105.7929 30441.7197 -244.7885 -182.9924
ENERGY: 600000 1.8912 2.7797 6.2718 0.0000 -10591.1264 1398.0562 0.0000 0.0000 1789.1653 -7392.9622 304.1719 -9182.1274 -7513.6533 298.6760 -236.9224 -215.3052 30999.3533 -135.8828 -81.2867
ENERGY: 900000 2.7642 3.1416 2.5689 0.0000 -10821.6691 1530.4643 0.0000 0.0000 1715.5215 -7567.2087 291.6519 -9282.7302 -7527.1264 297.4284 1060.9165 1011.3096 29885.2318 12.4888 56.3356
ENERGY: 1200000 2.4774 3.1215 1.9834 0.0000 -10821.0118 1471.2211 0.0000 0.0000 1776.4001 -7565.8084 302.0018 -9342.2085 -7532.6344 298.3427 51.0772 124.1765 30298.1187 -56.1100 -3.4072
ENERGY: 1500000 2.9951 2.9057 2.3403 0.0000 -10728.1979 1397.0206 0.0000 0.0000 1778.8335 -7544.1026 302.4155 -9322.9361 -7538.0749 299.2404 -216.3728 -192.6750 30245.2299 -48.7279 -0.2932
TCL: Running FEP window  14: Lambda1 0.65   Lambda2 0.7000000000000001 [dLambda 0.050000000000000044]
TCL: Setting parameter firsttimestep to 0
TCL: Setting parameter alchLambda to 0.65
Info: NONBONDED TABLE R-SQUARED SPACING: 0.0625
Info: NONBONDED TABLE SIZE: 705 POINTS
TCL: Setting parameter alchLambda2 to 0.7000000000000001
Info: NONBONDED TABLE R-SQUARED SPACING: 0.0625
Info: NONBONDED TABLE SIZE: 705 POINTS
TCL: Running for 1500000 steps
ETITLE: TS BOND ANGLE DIHED IMPRP ELECT VDW BOUNDARY MISC KINETIC TOTAL TEMP POTENTIAL TOTALAVG TEMPAVG PRESSURE GPRESSURE VOLUME PRESSAVG GPRESSAVG
ENERGY: 0 2.9951 2.9057 2.3403 0.0000 -10728.6584 1396.8025 0.0000 0.0000 1777.9617 -7545.6530 302.2672 -9323.6147 -7545.6530 302.2672 -286.4757 -189.1894 30245.2299 -286.4757 -189.1894
ENERGY: 300000 4.5974 5.1360 3.6811 0.0000 -10874.8699 1492.8797 0.0000 0.0000 1803.4892 -7565.0866 306.6071 -9368.5758 -7551.4436 301.9015 116.5698 180.3649 30235.8395 -11.1076 47.9844
ENERGY: 600000 1.7981 2.3173 4.2060 0.0000 -10707.9467 1371.1183 0.0000 0.0000 1765.0558 -7563.4512 300.0731 -9328.5070 -7542.6870 300.1737 -654.9364 -572.5446 30619.6307 -106.3368 -44.7764
ENERGY: 900000 2.9356 3.9398 4.0902 0.0000 -10872.6697 1544.9911 0.0000 0.0000 1780.4205 -7536.2925 302.6853 -9316.7130 -7543.3833 300.4007 456.5337 537.4684 30819.2517 33.3135 87.0851
ENERGY: 1200000 2.5399 3.4204 4.6499 0.0000 -10648.6344 1369.4107 0.0000 0.0000 1819.3383 -7449.2752 309.3016 -9268.6135 -7534.9490 300.9717 -481.2151 -396.3699 30713.1772 -111.3633 -57.6789
ENERGY: 1500000 3.1548 3.2558 2.7978 0.0000 -10743.4246 1441.4631 0.0000 0.0000 1754.8616 -7537.8915 298.3400 -9292.7531 -7535.5291 301.0729 103.7493 135.9294 30402.6543 -152.7281 -97.5793
TCL: Running FEP window  15: Lambda1 0.7000000000000001 Lambda2 0.7500000000000001 [dLambda 0.050000000000000044]
TCL: Setting parameter firsttimestep to 0
TCL: Setting parameter alchLambda to 0.7000000000000001
Info: NONBONDED TABLE R-SQUARED SPACING: 0.0625
Info: NONBONDED TABLE SIZE: 705 POINTS
TCL: Setting parameter alchLambda2 to 0.7500000000000001
Info: NONBONDED TABLE R-SQUARED SPACING: 0.0625
Info: NONBONDED TABLE SIZE: 705 POINTS
TCL: Running for 1500000 steps
ETITLE: TS BOND ANGLE DIHED IMPRP ELECT VDW BOUNDARY MISC KINETIC TOTAL TEMP POTENTIAL TOTALAVG TEMPAVG PRESSURE GPRESSURE VOLUME PRESSAVG GPRESSAVG
ENERGY: 0 3.1548 3.2558 2.7978 0.0000 -10744.6915 1441.7869 0.0000 0.0000 1753.9900 -7539.7062 298.1919 -9293.6962 -7539.7062 298.1919 54.1081 143.4059 30402.6543 54.1081 143.4059
ENERGY: 300000 1.2787 2.5685 1.4696 0.0000 -10644.1334 1412.0004 0.0000 0.0000 1764.6604 -7462.1558 300.0059 -9226.8162 -7559.7474 297.9871 -209.2258 -153.9922 31233.2881 177.4768 228.8748
ENERGY: 600000 3.3776 3.1129 2.2307 0.0000 -10801.1607 1434.1113 0.0000 0.0000 1784.8846 -7573.4436 303.4442 -9358.3282 -7551.9173 299.5139 -628.8753 -537.9088 30830.8835 -10.8057 56.8713
ENERGY: 900000 1.4575 3.0296 3.8732 0.0000 -10686.3787 1373.1959 0.0000 0.0000 1775.6433 -7529.1792 301.8731 -9304.8226 -7541.5858 299.5437 -526.5550 -497.2574 30676.3330 -89.4922 -22.8460
ENERGY: 1200000 1.4102 3.1145 5.1062 0.0000 -10714.6482 1342.6082 0.0000 0.0000 1836.6577 -7525.7514 312.2460 -9362.4092 -7532.6829 301.4058 -688.7432 -558.2983 30074.4312 -117.5977 -41.6596
ENERGY: 1500000 2.1858 3.1400 3.2474 0.0000 -10792.4674 1475.1648 0.0000 0.0000 1739.5959 -7569.1333 295.7448 -9308.7292 -7535.0512 301.7729 281.7532 380.8659 30367.7912 -95.7724 -17.7310
TCL: Running FEP window  16: Lambda1 0.7500000000000001 Lambda2 0.8000000000000002 [dLambda 0.050000000000000044]
TCL: Setting parameter firsttimestep to 0
TCL: Setting parameter alchLambda to 0.7500000000000001
Info: NONBONDED TABLE R-SQUARED SPACING: 0.0625
Info: NONBONDED TABLE SIZE: 705 POINTS
TCL: Setting parameter alchLambda2 to 0.8000000000000002
Info: NONBONDED TABLE R-SQUARED SPACING: 0.0625
Info: NONBONDED TABLE SIZE: 705 POINTS
TCL: Running for 1500000 steps
ETITLE: TS BOND ANGLE DIHED IMPRP ELECT VDW BOUNDARY MISC KINETIC TOTAL TEMP POTENTIAL TOTALAVG TEMPAVG PRESSURE GPRESSURE VOLUME PRESSAVG GPRESSAVG
ENERGY: 0 2.1858 3.1400 3.2474 0.0000 -10793.9958 1475.1846 0.0000 0.0000 1738.7177 -7571.5203 295.5955 -9310.2380 -7571.5203 295.5955 297.5190 384.9947 30367.7912 297.5190 384.9947
ENERGY: 300000 1.9750 6.8577 5.4194 0.0000 -10658.1804 1397.3866 0.0000 0.0000 1800.9234 -7445.6182 306.1709 -9246.5416 -7532.7643 298.0621 -135.2464 -124.5177 30384.0935 224.1598 272.3585
ENERGY: 600000 2.5351 3.7337 3.0219 0.0000 -10627.7343 1332.5038 0.0000 0.0000 1743.5493 -7542.3906 296.4169 -9285.9399 -7523.2294 298.8023 -1003.7048 -978.1220 30764.1603 -252.7291 -203.1573
ENERGY: 900000 4.7169 4.5273 2.7069 0.0000 -10716.8133 1448.6007 0.0000 0.0000 1764.4073 -7491.8542 299.9629 -9256.2616 -7521.3950 299.3659 405.5027 448.3665 30333.9287 -104.3302 -56.6558
ENERGY: 1200000 2.4408 2.9579 1.8701 0.0000 -10582.1534 1334.3732 0.0000 0.0000 1732.1739 -7508.3375 294.4830 -9240.5114 -7521.0725 299.5195 -799.2920 -782.3200 30597.8672 -126.4525 -81.0348
ENERGY: 1500000 1.9910 2.4582 2.1430 0.0000 -10660.9345 1395.6849 0.0000 0.0000 1861.1148 -7397.5426 316.4039 -9258.6574 -7518.3334 300.9246 -377.3885 -279.4179 30572.8478 -108.6184 -53.3120
TCL: Running FEP window  17: Lambda1 0.8000000000000002 Lambda2 0.8500000000000002 [dLambda 0.050000000000000044]
TCL: Setting parameter firsttimestep to 0
TCL: Setting parameter alchLambda to 0.8000000000000002
Info: NONBONDED TABLE R-SQUARED SPACING: 0.0625
Info: NONBONDED TABLE SIZE: 705 POINTS
TCL: Setting parameter alchLambda2 to 0.8500000000000002
Info: NONBONDED TABLE R-SQUARED SPACING: 0.0625
Info: NONBONDED TABLE SIZE: 705 POINTS
TCL: Running for 1500000 steps
ETITLE: TS BOND ANGLE DIHED IMPRP ELECT VDW BOUNDARY MISC KINETIC TOTAL TEMP POTENTIAL TOTALAVG TEMPAVG PRESSURE GPRESSURE VOLUME PRESSAVG GPRESSAVG
ENERGY: 0 1.9910 2.4582 2.1430 0.0000 -10662.5396 1396.6806 0.0000 0.0000 1860.2592 -7399.0076 316.2585 -9259.2669 -7399.0076 316.2585 -354.2069 -259.8990 30572.8478 -354.2069 -259.8990
ENERGY: 300000 2.4012 2.1445 4.5318 0.0000 -10861.9998 1496.7069 0.0000 0.0000 1787.3772 -7568.8382 303.8679 -9356.2154 -7484.1230 307.5291 647.5073 742.9661 30099.7583 16.6974 116.8754
ENERGY: 600000 0.7912 5.7520 3.4061 0.0000 -10749.3804 1438.8136 0.0000 0.0000 1738.4806 -7562.1369 295.5551 -9300.6175 -7479.1134 304.4430 -302.9263 -295.7362 31083.8297 73.0511 160.1172
ENERGY: 900000 2.4243 3.1203 1.0276 0.0000 -10641.9357 1349.7066 0.0000 0.0000 1817.6601 -7467.9969 309.0163 -9285.6570 -7485.7249 303.9694 -534.5595 -464.9283 30252.7266 17.1658 104.5516
ENERGY: 1200000 3.2549 4.5974 2.3653 0.0000 -10683.3716 1409.6430 0.0000 0.0000 1728.7560 -7534.7550 293.9019 -9263.5110 -7494.7633 302.9229 -413.8942 -400.0252 30748.1679 -148.7771 -78.0072
ENERGY: 1500000 4.8952 4.1331 1.8129 0.0000 -10596.8453 1346.7058 0.0000 0.0000 1767.0500 -7472.2484 300.4122 -9239.2983 -7494.4772 302.3879 -413.9594 -357.3359 30433.2804 -75.3698 -1.6001
TCL: Running FEP window  18: Lambda1 0.8500000000000002 Lambda2 0.9000000000000002 [dLambda 0.050000000000000044]
TCL: Setting parameter firsttimestep to 0
TCL: Setting parameter alchLambda to 0.8500000000000002
Info: NONBONDED TABLE R-SQUARED SPACING: 0.0625
Info: NONBONDED TABLE SIZE: 705 POINTS
TCL: Setting parameter alchLambda2 to 0.9000000000000002
Info: NONBONDED TABLE R-SQUARED SPACING: 0.0625
Info: NONBONDED TABLE SIZE: 705 POINTS
TCL: Running for 1500000 steps
ETITLE: TS BOND ANGLE DIHED IMPRP ELECT VDW BOUNDARY MISC KINETIC TOTAL TEMP POTENTIAL TOTALAVG TEMPAVG PRESSURE GPRESSURE VOLUME PRESSAVG GPRESSAVG
ENERGY: 0 4.8952 4.1331 1.8129 0.0000 -10597.9283 1346.9474 0.0000 0.0000 1766.1783 -7473.9615 300.2640 -9240.1398 -7473.9615 300.2640 -438.8452 -345.0929 30433.2804 -438.8452 -345.0929
ENERGY: 300000 2.3982 3.1909 3.3988 0.0000 -10605.9769 1344.9920 0.0000 0.0000 1702.9069 -7549.0901 289.5073 -9251.9970 -7540.9976 297.5241 -1090.3939 -1001.9972 30874.6405 -297.5980 -235.6662
ENERGY: 600000 2.8478 2.6851 2.1364 0.0000 -10634.0065 1374.9733 0.0000 0.0000 1801.3746 -7449.9893 306.2476 -9251.3640 -7543.1405 300.0788 -321.6758 -299.2838 30441.6322 -184.6669 -123.1333
ENERGY: 900000 2.2728 2.5944 2.4837 0.0000 -10718.5351 1486.8448 0.0000 0.0000 1769.3628 -7454.9765 300.8054 -9224.3393 -7526.5376 301.2053 399.5952 461.6529 30629.6737 -140.3237 -79.0854
ENERGY: 1200000 1.2240 6.9264 2.9998 0.0000 -10667.6822 1388.8571 0.0000 0.0000 1710.1087 -7557.5663 290.7317 -9267.6750 -7515.4426 300.1712 -525.1936 -534.4518 30881.5224 -222.8951 -170.3707
ENERGY: 1500000 3.9611 1.8311 1.8714 0.0000 -10736.7727 1425.1570 0.0000 0.0000 1744.2645 -7559.6876 296.5385 -9303.9522 -7530.1802 299.1104 107.3039 110.0405 30088.9020 -182.2315 -130.1009
TCL: Running FEP window  19: Lambda1 0.9000000000000002 Lambda2 0.9500000000000003 [dLambda 0.050000000000000044]
TCL: Setting parameter firsttimestep to 0
TCL: Setting parameter alchLambda to 0.9000000000000002
Info: NONBONDED TABLE R-SQUARED SPACING: 0.0625
Info: NONBONDED TABLE SIZE: 705 POINTS
TCL: Setting parameter alchLambda2 to 0.9500000000000003
Info: NONBONDED TABLE R-SQUARED SPACING: 0.0625
Info: NONBONDED TABLE SIZE: 705 POINTS
TCL: Running for 1500000 steps
ETITLE: TS BOND ANGLE DIHED IMPRP ELECT VDW BOUNDARY MISC KINETIC TOTAL TEMP POTENTIAL TOTALAVG TEMPAVG PRESSURE GPRESSURE VOLUME PRESSAVG GPRESSAVG
ENERGY: 0 3.9611 1.8310 1.8714 0.0000 -10738.4537 1426.0320 0.0000 0.0000 1743.4108 -7561.3473 296.3933 -9304.7581 -7561.3473 296.3933 49.6732 130.3996 30088.9020 49.6732 130.3996
ENERGY: 300000 2.4642 4.8477 2.2596 0.0000 -10827.5788 1442.9556 0.0000 0.0000 1735.9454 -7639.1063 295.1241 -9375.0517 -7590.9070 298.9047 -150.7672 -68.8349 30230.4612 -118.8321 -38.7460
ENERGY: 600000 5.4839 3.3163 3.9116 0.0000 -10796.2991 1463.8081 0.0000 0.0000 1758.2657 -7561.5135 298.9188 -9319.7792 -7569.1085 300.8833 150.1896 178.6912 30106.1549 -152.8469 -87.0585
ENERGY: 900000 2.0491 5.1705 2.6067 0.0000 -10810.7525 1479.7180 0.0000 0.0000 1761.7401 -7559.4681 299.5094 -9321.2082 -7560.0633 300.7976 176.4209 253.8463 30269.3756 -62.0209 6.8827
ENERGY: 1200000 2.9064 6.1602 2.4970 0.0000 -10789.8509 1394.7249 0.0000 0.0000 1710.1196 -7673.4428 290.7336 -9383.5624 -7559.3682 299.1777 -859.0393 -811.4316 30900.6887 -112.5157 -43.9965
ENERGY: 1500000 1.2608 2.1064 2.8718 0.0000 -10789.3510 1441.7333 0.0000 0.0000 1768.3424 -7573.0364 300.6319 -9341.3787 -7557.3886 299.0496 144.8746 194.5951 30014.8492 -114.5418 -46.1955
TCL: Running FEP window  20: Lambda1 0.9500000000000003 Lambda2 1.0    [dLambda 0.04999999999999971]
TCL: Setting parameter firsttimestep to 0
TCL: Setting parameter alchLambda to 0.9500000000000003
Info: NONBONDED TABLE R-SQUARED SPACING: 0.0625
Info: NONBONDED TABLE SIZE: 705 POINTS
TCL: Setting parameter alchLambda2 to 1.0
Info: NONBONDED TABLE R-SQUARED SPACING: 0.0625
Info: NONBONDED TABLE SIZE: 705 POINTS
TCL: Running for 1500000 steps
ETITLE: TS BOND ANGLE DIHED IMPRP ELECT VDW BOUNDARY MISC KINETIC TOTAL TEMP POTENTIAL TOTALAVG TEMPAVG PRESSURE GPRESSURE VOLUME PRESSAVG GPRESSAVG
ENERGY: 0 1.2608 2.1064 2.8718 0.0000 -10791.5960 1442.3507 0.0000 0.0000 1767.4976 -7575.5086 300.4883 -9343.0062 -7575.5086 300.4883 126.7187 208.1490 30014.8492 126.7187 208.1490
ENERGY: 300000 1.9009 2.2752 1.7020 0.0000 -10826.3174 1438.6052 0.0000 0.0000 1841.2327 -7540.6015 313.0238 -9381.8342 -7540.0974 302.1730 -100.5466 -14.3799 30294.9339 177.3470 239.8600
ENERGY: 600000 3.2018 2.4223 2.0620 0.0000 -10828.3485 1519.7077 0.0000 0.0000 1765.1979 -7535.7568 300.0973 -9300.9547 -7546.2525 300.2405 795.4315 935.6464 30206.8667 286.6062 354.6555
ENERGY: 900000 2.7155 2.7927 2.5834 0.0000 -10843.6296 1459.8034 0.0000 0.0000 1759.4168 -7616.3178 299.1145 -9375.7346 -7568.6536 299.4742 -61.8877 -16.1265 30267.6072 149.2376 216.5098
ENERGY: 1200000 1.9098 6.2245 2.4290 0.0000 -10661.8820 1443.7955 0.0000 0.0000 1714.9228 -7492.6003 291.5501 -9207.5231 -7552.6942 298.6471 163.9630 235.7075 30355.2616 117.2449 180.8381
ENERGY: 1500000 2.4364 4.5021 4.2642 0.0000 -10824.2327 1497.4971 0.0000 0.0000 1829.3614 -7486.1716 311.0056 -9315.5329 -7553.1151 299.6543 270.8376 270.5848 30801.2997 79.6359 141.1376
TCL: Exiting due to exit command.
