Info: SIMULATION PARAMETERS:
Info: TIMESTEP               2
Info: NUMBER OF STEPS        0
Info: STEPS PER CYCLE        10
Info: PERIODIC CELL BASIS 1  30.9927 0 0
Info: PERIODIC CELL BASIS 2  0 30.3495 0
Info: PERIODIC CELL BASIS 3  0 0 32.9495
Info: PERIODIC CELL CENTER   0 0 0
Info: WRAPPING WATERS AROUND PERIODIC BOUNDARIES ON OUTPUT.
Info: WRAPPING ALL CLUSTERS AROUND PERIODIC BOUNDARIES ON OUTPUT.
Info: FIRST LDB TIMESTEP     50
Info: LAST LDB TIMESTEP     -1
Info: HOM BACKGROUND SCALING 1
Info: PME BACKGROUND SCALING 1
Info: MIN ATOMS PER PATCH    40
Info: EMPTY PATCH LOAD       40 ATOMS
Info: VELOCITY FILE          mobley_6812653_equil.vel
Info: CENTER OF MASS MOVING INITIALLY? NO
Info: DIELECTRIC             1
Info: EXCLUDE                SCALED ONE-FOUR
Info: 1-4 ELECTROSTATICS SCALED BY 0.833333
Info: MODIFIED 1-4 VDW PARAMETERS WILL BE USED
Info: DCD FILENAME           mobley_6812653_prod.dcd
Info: DCD FREQUENCY          100000
Info: DCD FIRST STEP         100000
Info: DCD FILE WILL CONTAIN UNIT CELL DATA
Info: XST FILENAME           mobley_6812653_prod.xst
Info: XST FREQUENCY          100000
Info: NO VELOCITY DCD OUTPUT
Info: NO FORCE DCD OUTPUT
Info: OUTPUT FILENAME        mobley_6812653_prod
Info: BINARY OUTPUT FILES WILL BE USED
Info: RESTART FILENAME       mobley_6812653_prod.restart
Info: RESTART FREQUENCY      100000
Info: BINARY RESTART FILES WILL BE USED
Info: CUTOFF                 9
Info: PAIRLIST DISTANCE      11
Info: PAIRLIST SHRINK RATE   0.01
Info: PAIRLIST GROW RATE     0.01
Info: PAIRLIST TRIGGER       0.3
Info: PAIRLISTS PER CYCLE    2
Info: PAIRLISTS ENABLED
Info: MARGIN                 2
Info: HYDROGEN GROUP CUTOFF  2.5
Info: PATCH DIMENSION        15.5
Info: ENERGY OUTPUT STEPS    100000
Info: ENERGY EVALUATION STEPS    100000
Info: OUTPUT ENERGY PRECISION 4
Info: CROSSTERM ENERGY INCLUDED IN DIHEDRAL
Info: TIMING OUTPUT STEPS    1000000
Info: PRESSURE OUTPUT STEPS  100000
Info: ALCHEMICAL FEP ON
Info: FEP CURRENT LAMBDA VALUE     1
Info: FEP COMPARISON LAMBDA VALUE  0.95
Info: FEP INTRA-ALCHEMICAL NON-BONDED INTERACTIONS WILL BE RETAINED
Info: FEP INTRA-ALCHEMICAL BONDED INTERACTIONS WILL BE RETAINED
Info: FEP VDW SHIFTING COEFFICIENT 5
Info: FEP ELEC. ACTIVE FOR ANNIHILATED PARTICLES BETWEEN LAMBDA = 0 AND LAMBDA = 0.5
Info: FEP ELEC. ACTIVE FOR EXNIHILATED PARTICLES BETWEEN LAMBDA = 0.5 AND LAMBDA = 1
Info: FEP VDW ACTIVE FOR ANNIHILATED PARTICLES BETWEEN LAMBDA = 0 AND LAMBDA = 1
Info: FEP VDW ACTIVE FOR EXNIHILATED PARTICLES BETWEEN LAMBDA = 0 AND LAMBDA = 1
Info: FEP BOND ACTIVE FOR ANNIHILATED PARTICLES BETWEEN LAMBDA = 1 AND LAMBDA = 1
Info: FEP BOND ACTIVE FOR EXNIHILATED PARTICLES BETWEEN LAMBDA = 0 AND LAMBDA = 0
Info: LANGEVIN DYNAMICS ACTIVE
Info: LANGEVIN TEMPERATURE   300
Info: LANGEVIN USING BBK INTEGRATOR
Info: LANGEVIN DAMPING COEFFICIENT IS 1 INVERSE PS
Info: LANGEVIN DYNAMICS APPLIED TO HYDROGENS
Info: LANGEVIN PISTON PRESSURE CONTROL ACTIVE
Info:        TARGET PRESSURE IS 1.01325 BAR
Info:     OSCILLATION PERIOD IS 50 FS
Info:             DECAY TIME IS 25 FS
Info:     PISTON TEMPERATURE IS 300 K
Info:       PRESSURE CONTROL IS GROUP-BASED
Info:    INITIAL STRAIN RATE IS 0.000208915 0.000208915 0.000208915
Info:       CELL FLUCTUATION IS ISOTROPIC
Info: PARTICLE MESH EWALD (PME) ACTIVE
Info: PME TOLERANCE               1e-06
Info: PME EWALD COEFFICIENT       0.348832
Info: PME INTERPOLATION ORDER     4
Info: PME GRID DIMENSIONS         32 32 36
Info: PME MAXIMUM GRID SPACING    1
Info: PME CALCULATION WILL BE PERFORMED ON GPU
Info: FULL ELECTROSTATIC EVALUATION FREQUENCY      2
Info: USING VERLET I (r-RESPA) MTS SCHEME.
Info: C1 SPLITTING OF LONG RANGE ELECTROSTATICS
Info: PLACING ATOMS IN PATCHES BY HYDROGEN GROUPS
Info: RIGID BONDS TO HYDROGEN : ALL
Info:         ERROR TOLERANCE : 1e-08
Info:          MAX ITERATIONS : 100
Info: RIGID WATER USING SETTLE ALGORITHM
Info: RANDOM NUMBER SEED     1743931231
Info: USE HYDROGEN BONDS?    NO
Info: Using AMBER format force field!
Info: AMBER PARM FILE        mobley_6812653.prmtop
Info: COORDINATE PDB         mobley_6812653.pdb
Info: Exclusions will be read from PARM file!
Info: SCNB (VDW SCALING)     2
Info: USING ARITHMETIC MEAN TO COMBINE L-J SIGMA PARAMETERS
Info: BINARY COORDINATES     mobley_6812653_equil.coor
Info: SUMMARY OF PARAMETERS:
Info: 4 BONDS
Info: 3 ANGLES
Info:   3 HARMONIC
Info:   0 COSINE-BASED
Info: 5 DIHEDRAL
Info: 0 IMPROPER
Info: 0 CROSSTERM
Info: 0 VDW
Info: 10 VDW_PAIRS
Info: 0 NBTHOLE_PAIRS
Info: To read alchdata from file: mobley_6812653.pdb
Info: To read alchflag data from column: 5
Info: STRUCTURE SUMMARY:
Info: 2987 ATOMS
Info: 2986 BONDS
Info: 36 ANGLES
Info: 51 DIHEDRALS
Info: 0 IMPROPERS
Info: 0 CROSSTERMS
Info: 3067 EXCLUSIONS
Info: 2981 RIGID BONDS
Info: ALCH: 0 ATOMS TO DISAPPEAR IN FINAL STATE
Info: ALCH: 20 ATOMS TO APPEAR IN FINAL STATE
Info: 5980 DEGREES OF FREEDOM
Info: 995 HYDROGEN GROUPS
Info: 4 ATOMS IN LARGEST HYDROGEN GROUP
Info: 995 MIGRATION GROUPS
Info: 4 ATOMS IN LARGEST MIGRATION GROUP
Info: TOTAL MASS = 17904 amu
Info: TOTAL CHARGE = 0.000399999 e
Info: MASS DENSITY = 0.959289 g/cm^3
Info: ATOM DENSITY = 0.0963775 atoms/A^3
Info: ADDED 0 IMPLICIT EXCLUSIONS
Info: NONBONDED TABLE R-SQUARED SPACING: 0.0625
Info: NONBONDED TABLE SIZE: 705 POINTS
Info: REMOVING COM VELOCITY 0.136749 -0.0529881 -0.22169
Info: Use 3D box decompostion in PME FFT.
Info: Updated CUDA force table with 4096 elements.
Info: Updated CUDA LJ table with 4 x 4 elements.
Info: Found 23 unique exclusion lists needing 64 bytes
TCL: Running for 1500000 steps
ETITLE: TS BOND ANGLE DIHED IMPRP ELECT VDW BOUNDARY MISC KINETIC TOTAL TEMP POTENTIAL TOTALAVG TEMPAVG PRESSURE GPRESSURE VOLUME PRESSAVG GPRESSAVG
ENERGY: 0 0.5532 7.6877 2.0538 0.0000 -10793.1345 1390.1474 0.0000 0.0000 1742.0669 -7650.6256 293.1933 -9392.6925 -7650.6256 293.1933 -780.8403 -706.0077 30992.7249 -780.8403 -706.0077
ENERGY: 300000 2.7089 10.9357 4.1108 0.0000 -10703.4781 1352.7251 0.0000 0.0000 1818.7495 -7514.2481 306.0991 -9332.9976 -7578.8586 297.8175 -665.5542 -596.3082 30751.5288 -546.4898 -470.9459
ENERGY: 600000 2.6293 11.4144 3.0714 0.0000 -10732.1115 1396.4429 0.0000 0.0000 1820.4007 -7498.1529 306.3770 -9318.5536 -7565.6573 297.8738 -714.0611 -635.8556 31388.3391 -522.7178 -460.6374
ENERGY: 900000 1.3612 7.4064 2.2453 0.0000 -10840.6844 1498.8633 0.0000 0.0000 1762.4388 -7568.3694 296.6219 -9330.8082 -7558.1592 299.6232 257.2005 330.6983 30671.8994 -344.5899 -289.4898
ENERGY: 1200000 3.2163 13.9792 1.8233 0.0000 -10835.4063 1469.7288 0.0000 0.0000 1767.6962 -7578.9625 297.5068 -9346.6587 -7549.9089 299.5732 149.0482 285.4127 30473.7026 -283.1020 -214.3978
ENERGY: 1500000 2.3065 9.7938 3.0211 0.0000 -10665.3416 1424.2046 0.0000 0.0000 1807.8036 -7418.2120 304.2569 -9226.0155 -7549.8910 299.8462 -6.8781 24.2022 31080.2470 -218.8019 -150.1016
TCL: Running FEP window   2: Lambda1 0.95   Lambda2 0.8999999999999999 [dLambda -0.050000000000000044]
TCL: Setting parameter firsttimestep to 0
TCL: Setting parameter alchLambda to 0.95
Info: NONBONDED TABLE R-SQUARED SPACING: 0.0625
Info: NONBONDED TABLE SIZE: 705 POINTS
TCL: Setting parameter alchLambda2 to 0.8999999999999999
Info: NONBONDED TABLE R-SQUARED SPACING: 0.0625
Info: NONBONDED TABLE SIZE: 705 POINTS
TCL: Running for 1500000 steps
ETITLE: TS BOND ANGLE DIHED IMPRP ELECT VDW BOUNDARY MISC KINETIC TOTAL TEMP POTENTIAL TOTALAVG TEMPAVG PRESSURE GPRESSURE VOLUME PRESSAVG GPRESSAVG
ENERGY: 0 2.3065 9.7938 3.0211 0.0000 -10665.3809 1423.3254 0.0000 0.0000 1806.9070 -7420.0270 304.1060 -9226.9340 -7420.0270 304.1060 -65.8166 0.7795 31080.2470 -65.8166 0.7795
ENERGY: 300000 2.3043 8.9221 2.8424 0.0000 -10587.0723 1326.2524 0.0000 0.0000 1720.0753 -7526.6759 289.4921 -9246.7512 -7518.8490 298.2542 -824.7998 -836.7399 30941.9628 -413.5514 -374.3510
ENERGY: 600000 2.5713 7.7059 3.5740 0.0000 -10733.8902 1427.2957 0.0000 0.0000 1815.9860 -7476.7573 305.6340 -9292.7433 -7530.5154 300.3337 -319.8490 -307.1697 31309.8561 -384.1747 -342.8920
ENERGY: 900000 0.8899 6.6094 2.8435 0.0000 -10695.7121 1410.7365 0.0000 0.0000 1750.7545 -7523.8782 294.6554 -9274.6328 -7531.0732 300.7510 -119.6570 -25.8052 30868.1059 -241.9852 -184.1582
ENERGY: 1200000 3.5038 12.6647 2.7745 0.0000 -10947.7255 1551.5648 0.0000 0.0000 1822.4248 -7554.7929 306.7177 -9377.2177 -7539.0122 301.2852 724.2041 758.1213 30550.1674 -116.9185 -59.1499
ENERGY: 1500000 2.2467 13.0880 1.7221 0.0000 -10779.1272 1426.7263 0.0000 0.0000 1759.7178 -7575.6263 296.1640 -9335.3440 -7547.0074 300.9145 -381.4530 -304.2242 31206.8658 -162.1636 -99.0130
TCL: Running FEP window   3: Lambda1 0.8999999999999999 Lambda2 0.8499999999999999 [dLambda -0.050000000000000044]
TCL: Setting parameter firsttimestep to 0
TCL: Setting parameter alchLambda to 0.8999999999999999
Info: NONBONDED TABLE R-SQUARED SPACING: 0.0625
Info: NONBONDED TABLE SIZE: 705 POINTS
TCL: Setting parameter alchLambda2 to 0.8499999999999999
Info: NONBONDED TABLE R-SQUARED SPACING: 0.0625
Info: NONBONDED TABLE SIZE: 705 POINTS
TCL: Running for 1500000 steps
ETITLE: TS BOND ANGLE DIHED IMPRP ELECT VDW BOUNDARY MISC KINETIC TOTAL TEMP POTENTIAL TOTALAVG TEMPAVG PRESSURE GPRESSURE VOLUME PRESSAVG GPRESSAVG
ENERGY: 0 2.2467 13.0880 1.7221 0.0000 -10779.1090 1427.3763 0.0000 0.0000 1758.8553 -7575.8205 296.0188 -9334.6758 -7575.8205 296.0188 -373.7730 -304.8438 31206.8658 -373.7730 -304.8438
ENERGY: 300000 0.7440 7.5866 2.0727 0.0000 -10792.7861 1469.8714 0.0000 0.0000 1763.5432 -7548.9682 296.8078 -9312.5114 -7561.0484 296.5362 85.6584 125.8854 30784.4329 -413.9447 -353.6859
ENERGY: 600000 1.8880 4.9387 3.0113 0.0000 -10673.4965 1404.5712 0.0000 0.0000 1762.4063 -7496.6810 296.6165 -9259.0873 -7545.9841 297.7043 -23.9384 30.4211 30631.8122 17.2967 80.9329
ENERGY: 900000 0.8949 6.6566 2.2051 0.0000 -10771.8512 1474.8246 0.0000 0.0000 1779.2210 -7508.0489 299.4464 -9287.2699 -7541.0187 297.4751 274.6585 360.6749 30655.4107 -80.5599 -6.4734
ENERGY: 1200000 2.9562 10.6672 2.6783 0.0000 -10704.9030 1377.9677 0.0000 0.0000 1741.5002 -7569.1334 293.0979 -9310.6336 -7544.9391 297.5509 -328.9750 -283.2468 30406.7531 -3.3480 69.0745
ENERGY: 1500000 5.2315 9.5115 3.5860 0.0000 -10818.6880 1429.3682 0.0000 0.0000 1741.3965 -7629.5942 293.0805 -9370.9907 -7555.2881 298.2975 -208.0623 -101.6553 30617.1221 -4.6747 69.2931
TCL: Running FEP window   4: Lambda1 0.8499999999999999 Lambda2 0.7999999999999998 [dLambda -0.050000000000000044]
TCL: Setting parameter firsttimestep to 0
TCL: Setting parameter alchLambda to 0.8499999999999999
Info: NONBONDED TABLE R-SQUARED SPACING: 0.0625
Info: NONBONDED TABLE SIZE: 705 POINTS
TCL: Setting parameter alchLambda2 to 0.7999999999999998
Info: NONBONDED TABLE R-SQUARED SPACING: 0.0625
Info: NONBONDED TABLE SIZE: 705 POINTS
TCL: Running for 1500000 steps
ETITLE: TS BOND ANGLE DIHED IMPRP ELECT VDW BOUNDARY MISC KINETIC TOTAL TEMP POTENTIAL TOTALAVG TEMPAVG PRESSURE GPRESSURE VOLUME PRESSAVG GPRESSAVG
ENERGY: 0 5.2315 9.5115 3.5860 0.0000 -10818.6976 1429.7927 0.0000 0.0000 1740.4701 -7630.1058 292.9245 -9370.5759 -7630.1058 292.9245 -179.8298 -108.6395 30617.1221 -179.8298 -108.6395
ENERGY: 300000 3.7968 8.2524 3.3870 0.0000 -10720.3401 1365.7078 0.0000 0.0000 1809.8009 -7529.3952 304.5931 -9339.1961 -7543.3451 299.8337 -812.4551 -760.7186 30835.3341 -181.7620 -107.5591
ENERGY: 600000 4.1218 9.1976 2.0983 0.0000 -10726.3255 1417.4642 0.0000 0.0000 1778.7806 -7514.6630 299.3723 -9293.4436 -7534.9338 301.5073 -187.7095 -72.4080 30556.3183 -195.9104 -111.1789
ENERGY: 900000 2.5481 8.6418 2.3101 0.0000 -10885.3844 1513.3067 0.0000 0.0000 1764.2226 -7594.3552 296.9221 -9358.5778 -7558.2255 300.3372 287.9748 335.9581 30700.1283 -165.6402 -86.8089
ENERGY: 1200000 1.3457 7.0012 4.2473 0.0000 -10750.2415 1421.5263 0.0000 0.0000 1805.5285 -7510.5925 303.8740 -9316.1210 -7563.2123 299.9848 -220.4882 -164.8451 31016.8638 -230.0925 -156.5164
ENERGY: 1500000 1.5275 9.2979 3.1197 0.0000 -10778.6950 1499.9919 0.0000 0.0000 1818.7215 -7446.0365 306.0944 -9264.7580 -7557.1771 299.8645 528.3023 628.8517 30840.6349 -193.5735 -118.4727
TCL: Running FEP window   5: Lambda1 0.7999999999999998 Lambda2 0.7499999999999998 [dLambda -0.050000000000000044]
TCL: Setting parameter firsttimestep to 0
TCL: Setting parameter alchLambda to 0.7999999999999998
Info: NONBONDED TABLE R-SQUARED SPACING: 0.0625
Info: NONBONDED TABLE SIZE: 705 POINTS
TCL: Setting parameter alchLambda2 to 0.7499999999999998
Info: NONBONDED TABLE R-SQUARED SPACING: 0.0625
Info: NONBONDED TABLE SIZE: 705 POINTS
TCL: Running for 1500000 steps
ETITLE: TS BOND ANGLE DIHED IMPRP ELECT VDW BOUNDARY MISC KINETIC TOTAL TEMP POTENTIAL TOTALAVG TEMPAVG PRESSURE GPRESSURE VOLUME PRESSAVG GPRESSAVG
ENERGY: 0 1.5275 9.2979 3.1197 0.0000 -10778.7087 1500.4188 0.0000 0.0000 1817.8562 -7446.4886 305.9488 -9264.3448 -7446.4886 305.9488 548.1163 623.9422 30840.6349 548.1163 623.9422
ENERGY: 300000 1.6605 10.2810 2.6672 0.0000 -10751.4667 1474.6294 0.0000 0.0000 1827.4066 -7434.8221 307.5561 -9262.2287 -7496.7476 304.0419 279.9898 290.4809 31186.7720 61.6037 99.9995
ENERGY: 600000 1.0354 5.2282 1.9062 0.0000 -10828.7016 1449.6671 0.0000 0.0000 1750.7774 -7620.0872 294.6593 -9370.8647 -7532.6868 300.8424 -179.7779 -92.5477 30815.0951 68.8656 110.7954
ENERGY: 900000 0.4849 6.1747 3.5537 0.0000 -10758.7599 1419.4790 0.0000 0.0000 1769.0279 -7560.0397 297.7309 -9329.0676 -7562.4065 299.5047 -165.7015 -115.1583 30613.5725 150.3766 204.2365
ENERGY: 1200000 3.6594 7.7458 2.5968 0.0000 -10767.7674 1440.3667 0.0000 0.0000 1791.7754 -7521.6233 301.5593 -9313.3987 -7539.2720 301.2221 -114.2571 -124.1107 30848.5945 77.9409 123.9025
ENERGY: 1500000 1.4920 16.6089 1.9282 0.0000 -10769.0676 1491.3559 0.0000 0.0000 1791.1384 -7466.5441 301.4521 -9257.6826 -7532.6577 301.3118 397.8658 459.1595 31015.8697 81.7680 125.9228
TCL: Running FEP window   6: Lambda1 0.7499999999999998 Lambda2 0.6999999999999997 [dLambda -0.050000000000000044]
TCL: Setting parameter firsttimestep to 0
TCL: Setting parameter alchLambda to 0.7499999999999998
Info: NONBONDED TABLE R-SQUARED SPACING: 0.0625
Info: NONBONDED TABLE SIZE: 705 POINTS
TCL: Setting parameter alchLambda2 to 0.6999999999999997
Info: NONBONDED TABLE R-SQUARED SPACING: 0.0625
Info: NONBONDED TABLE SIZE: 705 POINTS
TCL: Running for 1500000 steps
ETITLE: TS BOND ANGLE DIHED IMPRP ELECT VDW BOUNDARY MISC KINETIC TOTAL TEMP POTENTIAL TOTALAVG TEMPAVG PRESSURE GPRESSURE VOLUME PRESSAVG GPRESSAVG
ENERGY: 0 1.4920 16.6089 1.9282 0.0000 -10769.0777 1492.0685 0.0000 0.0000 1790.2521 -7466.7281 301.3030 -9256.9802 -7466.7281 301.3030 374.9101 458.7607 31015.8697 374.9101 458.7607
ENERGY: 300000 3.2195 5.7272 2.4263 0.0000 -10904.9779 1475.7793 0.0000 0.0000 1803.9614 -7613.8642 303.6103 -9417.8256 -7542.6929 301.3954 -100.5448 -57.4741 30684.7319 188.3648 262.8903
ENERGY: 600000 1.9177 11.8596 1.9933 0.0000 -10947.1571 1540.7340 0.0000 0.0000 1812.9270 -7577.7255 305.1192 -9390.6525 -7538.5436 300.6718 366.0772 423.4466 30804.0750 -82.7107 -9.3085
ENERGY: 900000 0.8106 10.6073 3.0464 0.0000 -10739.1457 1393.5390 0.0000 0.0000 1803.0209 -7528.1215 303.4520 -9331.1424 -7557.2868 299.2140 -541.5597 -480.6312 30860.5256 -144.4814 -82.2276
ENERGY: 1200000 5.0868 9.4856 2.5026 0.0000 -10921.3426 1539.5188 0.0000 0.0000 1771.2144 -7593.5344 298.0989 -9364.7488 -7555.4258 299.1568 717.3187 754.8222 30169.9769 -98.6391 -36.9231
ENERGY: 1500000 0.9986 11.6931 3.2728 0.0000 -10905.5836 1506.4900 0.0000 0.0000 1791.7794 -7591.3497 301.5600 -9383.1292 -7561.1122 299.4683 116.2606 192.4431 31136.7187 -51.6230 6.4421
TCL: Running FEP window   7: Lambda1 0.6999999999999997 Lambda2 0.6499999999999997 [dLambda -0.050000000000000044]
TCL: Setting parameter firsttimestep to 0
TCL: Setting parameter alchLambda to 0.6999999999999997
Info: NONBONDED TABLE R-SQUARED SPACING: 0.0625
Info: NONBONDED TABLE SIZE: 705 POINTS
TCL: Setting parameter alchLambda2 to 0.6499999999999997
Info: NONBONDED TABLE R-SQUARED SPACING: 0.0625
Info: NONBONDED TABLE SIZE: 705 POINTS
TCL: Running for 1500000 steps
ETITLE: TS BOND ANGLE DIHED IMPRP ELECT VDW BOUNDARY MISC KINETIC TOTAL TEMP POTENTIAL TOTALAVG TEMPAVG PRESSURE GPRESSURE VOLUME PRESSAVG GPRESSAVG
ENERGY: 0 0.9986 11.6931 3.2728 0.0000 -10905.5796 1506.8982 0.0000 0.0000 1790.8776 -7591.8394 301.4082 -9382.7170 -7591.8394 301.4082 94.4309 188.7945 31136.7187 94.4309 188.7945
ENERGY: 300000 3.3718 9.8835 2.7688 0.0000 -10620.0901 1335.3838 0.0000 0.0000 1686.2277 -7582.4545 283.7954 -9268.6823 -7563.5915 293.6817 -1116.8919 -994.8943 31204.1425 81.4415 149.7341
ENERGY: 600000 2.0151 7.2458 2.5994 0.0000 -10844.8789 1528.4280 0.0000 0.0000 1863.8853 -7440.7051 313.6956 -9304.5905 -7546.4938 297.2115 478.8522 550.7471 31188.9692 77.7208 151.7600
ENERGY: 900000 1.9312 11.0008 3.9948 0.0000 -10855.6496 1479.1589 0.0000 0.0000 1786.5687 -7572.9952 300.6830 -9359.5639 -7553.5600 297.7768 66.5318 113.8079 30761.0976 48.1005 115.0154
ENERGY: 1200000 0.8774 12.4452 3.0479 0.0000 -10808.2313 1503.3832 0.0000 0.0000 1795.4816 -7492.9959 302.1831 -9288.4775 -7555.7212 298.9910 587.6836 671.2909 30582.2315 216.6860 286.7602
ENERGY: 1500000 1.7802 10.6508 2.4923 0.0000 -10779.1524 1453.6473 0.0000 0.0000 1734.4456 -7576.1361 291.9106 -9310.5817 -7554.7225 298.6621 -5.3349 66.2442 30794.5709 253.3351 321.3233
TCL: Running FEP window   8: Lambda1 0.6499999999999997 Lambda2 0.5999999999999996 [dLambda -0.050000000000000044]
TCL: Setting parameter firsttimestep to 0
TCL: Setting parameter alchLambda to 0.6499999999999997
Info: NONBONDED TABLE R-SQUARED SPACING: 0.0625
Info: NONBONDED TABLE SIZE: 705 POINTS
TCL: Setting parameter alchLambda2 to 0.5999999999999996
Info: NONBONDED TABLE R-SQUARED SPACING: 0.0625
Info: NONBONDED TABLE SIZE: 705 POINTS
TCL: Running for 1500000 steps
ETITLE: TS BOND ANGLE DIHED IMPRP ELECT VDW BOUNDARY MISC KINETIC TOTAL TEMP POTENTIAL TOTALAVG TEMPAVG PRESSURE GPRESSURE VOLUME PRESSAVG GPRESSAVG
ENERGY: 0 1.7802 10.6508 2.4923 0.0000 -10779.1657 1453.4483 0.0000 0.0000 1733.5363 -7577.2578 291.7576 -9310.7940 -7577.2578 291.7576 -15.8985 54.4505 30794.5709 -15.8985 54.4505
ENERGY: 300000 1.1211 8.9621 3.9368 0.0000 -10666.2301 1378.5778 0.0000 0.0000 1807.6483 -7465.9840 304.2308 -9273.6323 -7580.6102 294.0040 -436.7189 -335.8846 31055.9305 -187.5342 -133.8610
ENERGY: 600000 0.6640 8.5924 3.4916 0.0000 -10766.0155 1480.7156 0.0000 0.0000 1786.1138 -7486.4380 300.6065 -9272.5519 -7548.0194 298.4912 405.6077 499.0980 30723.5654 29.3041 86.4952
ENERGY: 900000 1.1551 9.1809 2.0377 0.0000 -10905.0025 1505.8699 0.0000 0.0000 1766.1755 -7620.5834 297.2508 -9386.7589 -7557.2704 298.0726 484.5424 495.7449 30446.0627 -123.9326 -63.5780
ENERGY: 1200000 1.5653 9.5990 1.7404 0.0000 -10922.4933 1508.3398 0.0000 0.0000 1777.3040 -7623.9448 299.1238 -9401.2488 -7548.1292 298.7877 259.8885 276.7547 30613.0212 6.1065 61.1471
ENERGY: 1500000 1.3763 12.5529 1.8930 0.0000 -10789.5188 1424.9518 0.0000 0.0000 1831.8578 -7516.8869 308.3053 -9348.7448 -7551.6414 299.0714 -318.0572 -297.0307 30991.6443 -59.7498 -8.8402
TCL: Running FEP window   9: Lambda1 0.5999999999999996 Lambda2 0.5499999999999996 [dLambda -0.050000000000000044]
TCL: Setting parameter firsttimestep to 0
TCL: Setting parameter alchLambda to 0.5999999999999996
Info: NONBONDED TABLE R-SQUARED SPACING: 0.0625
Info: NONBONDED TABLE SIZE: 705 POINTS
TCL: Setting parameter alchLambda2 to 0.5499999999999996
Info: NONBONDED TABLE R-SQUARED SPACING: 0.0625
Info: NONBONDED TABLE SIZE: 705 POINTS
TCL: Running for 1500000 steps
ETITLE: TS BOND ANGLE DIHED IMPRP ELECT VDW BOUNDARY MISC KINETIC TOTAL TEMP POTENTIAL TOTALAVG TEMPAVG PRESSURE GPRESSURE VOLUME PRESSAVG GPRESSAVG
ENERGY: 0 1.3763 12.5529 1.8930 0.0000 -10789.5075 1425.2874 0.0000 0.0000 1830.9497 -7517.4481 308.1524 -9348.3978 -7517.4481 308.1524 -359.1561 -299.9671 30991.6443 -359.1561 -299.9671
ENERGY: 300000 1.5773 10.3272 4.0184 0.0000 -10771.9329 1430.0138 0.0000 0.0000 1758.8142 -7567.1821 296.0119 -9325.9963 -7558.1008 297.7378 -415.2672 -331.1829 31052.7774 -230.8704 -175.5345
ENERGY: 600000 1.4229 7.8481 2.0382 0.0000 -10676.8994 1375.6941 0.0000 0.0000 1746.5879 -7543.3082 293.9542 -9289.8960 -7583.5125 295.5473 -386.6115 -346.6741 30664.2499 -228.0277 -155.3515
ENERGY: 900000 0.1848 8.6495 2.3598 0.0000 -10858.3918 1462.5764 0.0000 0.0000 1771.4042 -7613.2171 298.1308 -9384.6213 -7584.8675 295.9858 6.8337 86.5985 30477.8306 -307.5186 -249.8561
ENERGY: 1200000 0.7273 11.4248 6.1393 0.0000 -10738.8924 1424.8947 0.0000 0.0000 1777.9342 -7517.7721 299.2298 -9295.7063 -7582.0945 296.0215 -102.8546 -19.8212 30600.8552 -357.3637 -297.8977
ENERGY: 1500000 2.6844 10.9244 3.6962 0.0000 -10651.0356 1348.9094 0.0000 0.0000 1759.3045 -7525.5167 296.0944 -9284.8212 -7574.8622 296.6969 -1053.9281 -1054.8966 31311.9588 -436.8065 -383.4999
TCL: Running FEP window  10: Lambda1 0.5499999999999996 Lambda2 0.4999999999999996 [dLambda -0.04999999999999999]
TCL: Setting parameter firsttimestep to 0
TCL: Setting parameter alchLambda to 0.5499999999999996
Info: NONBONDED TABLE R-SQUARED SPACING: 0.0625
Info: NONBONDED TABLE SIZE: 705 POINTS
TCL: Setting parameter alchLambda2 to 0.4999999999999996
Info: NONBONDED TABLE R-SQUARED SPACING: 0.0625
Info: NONBONDED TABLE SIZE: 705 POINTS
TCL: Running for 1500000 steps
ETITLE: TS BOND ANGLE DIHED IMPRP ELECT VDW BOUNDARY MISC KINETIC TOTAL TEMP POTENTIAL TOTALAVG TEMPAVG PRESSURE GPRESSURE VOLUME PRESSAVG GPRESSAVG
ENERGY: 0 2.6844 10.9244 3.6962 0.0000 -10651.0627 1349.1390 0.0000 0.0000 1758.4040 -7526.2148 295.9429 -9284.6187 -7526.2148 295.9429 -1144.8729 -1061.1752 31311.9588 -1144.8729 -1061.1752
ENERGY: 300000 1.3528 10.5510 3.8772 0.0000 -10905.3567 1495.6847 0.0000 0.0000 1763.1617 -7630.7294 296.7436 -9393.8911 -7554.5000 298.4165 345.9724 408.3311 30227.5644 -471.8249 -428.3184
ENERGY: 600000 1.4504 8.4729 2.5752 0.0000 -10833.4044 1466.5384 0.0000 0.0000 1780.6454 -7573.7221 299.6861 -9354.3675 -7557.6508 297.4648 -20.4617 32.5393 30713.3624 -318.8812 -267.2065
ENERGY: 900000 2.3653 5.9604 3.9227 0.0000 -10909.8249 1524.0373 0.0000 0.0000 1773.7764 -7599.7627 298.5301 -9373.5391 -7551.6274 298.7182 625.4499 672.4857 30189.9920 -105.6275 -58.5126
ENERGY: 1200000 2.7268 11.1042 2.2192 0.0000 -10763.3433 1452.8107 0.0000 0.0000 1782.9940 -7511.4885 300.0814 -9294.4824 -7548.2783 298.5145 -23.2402 76.6972 30824.6701 -22.0518 40.8982
ENERGY: 1500000 1.3092 7.5411 1.5517 0.0000 -10701.2589 1415.7272 0.0000 0.0000 1794.3200 -7480.8097 301.9876 -9275.1297 -7544.8269 298.5409 -225.6219 -169.1730 30789.1649 -109.9789 -51.7567
TCL: Running FEP window  11: Lambda1 0.4999999999999996 Lambda2 0.4499999999999996 [dLambda -0.04999999999999999]
TCL: Setting parameter firsttimestep to 0
TCL: Setting parameter alchLambda to 0.4999999999999996
Info: NONBONDED TABLE R-SQUARED SPACING: 0.0625
Info: NONBONDED TABLE SIZE: 705 POINTS
TCL: Setting parameter alchLambda2 to 0.4499999999999996
Info: NONBONDED TABLE R-SQUARED SPACING: 0.0625
Info: NONBONDED TABLE SIZE: 705 POINTS
TCL: Running for 1500000 steps
ETITLE: TS BOND ANGLE DIHED IMPRP ELECT VDW BOUNDARY MISC KINETIC TOTAL TEMP POTENTIAL TOTALAVG TEMPAVG PRESSURE GPRESSURE VOLUME PRESSAVG GPRESSAVG
ENERGY: 0 1.3092 7.5411 1.5517 0.0000 -10701.2502 1416.2792 0.0000 0.0000 1793.4376 -7481.1315 301.8391 -9274.5690 -7481.1315 301.8391 -257.0602 -171.0551 30789.1649 -257.0602 -171.0551
ENERGY: 300000 1.3868 4.6271 2.7724 0.0000 -10883.2110 1505.8461 0.0000 0.0000 1792.7135 -7575.8652 301.7172 -9368.5786 -7562.8328 298.8778 403.1460 515.3309 30286.6250 -137.5984 -44.8027
ENERGY: 600000 2.2747 11.2390 2.0390 0.0000 -10831.9063 1408.2170 0.0000 0.0000 1797.7828 -7610.3538 302.5704 -9408.1366 -7556.9178 301.4323 -669.6729 -601.5611 30622.6628 -347.8511 -264.5533
ENERGY: 900000 1.0133 5.8786 1.9918 0.0000 -10835.5739 1427.9413 0.0000 0.0000 1845.9652 -7552.7837 310.6796 -9398.7489 -7540.6405 302.8607 -167.8877 -94.4353 30270.4467 -320.7902 -241.6781
ENERGY: 1200000 0.7205 10.1153 2.1616 0.0000 -10784.2868 1402.2132 0.0000 0.0000 1748.3986 -7620.6775 294.2589 -9369.0761 -7549.3130 301.4909 -529.1481 -437.6630 30550.9371 -362.5545 -284.0959
ENERGY: 1500000 1.1101 10.3631 3.8992 0.0000 -10893.9540 1455.3214 0.0000 0.0000 1792.6050 -7630.6552 301.6989 -9423.2602 -7558.4214 300.7580 107.7947 136.3179 29969.3945 -265.3424 -190.9915
TCL: Running FEP window  12: Lambda1 0.4499999999999996 Lambda2 0.39999999999999963 [dLambda -0.04999999999999999]
TCL: Setting parameter firsttimestep to 0
TCL: Setting parameter alchLambda to 0.4499999999999996
Info: NONBONDED TABLE R-SQUARED SPACING: 0.0625
Info: NONBONDED TABLE SIZE: 705 POINTS
TCL: Setting parameter alchLambda2 to 0.39999999999999963
Info: NONBONDED TABLE R-SQUARED SPACING: 0.0625
Info: NONBONDED TABLE SIZE: 705 POINTS
TCL: Running for 1500000 steps
ETITLE: TS BOND ANGLE DIHED IMPRP ELECT VDW BOUNDARY MISC KINETIC TOTAL TEMP POTENTIAL TOTALAVG TEMPAVG PRESSURE GPRESSURE VOLUME PRESSAVG GPRESSAVG
ENERGY: 0 1.1101 10.3631 3.8992 0.0000 -10893.9529 1455.6495 0.0000 0.0000 1791.7065 -7631.2245 301.5477 -9422.9310 -7631.2245 301.5477 49.9367 131.4545 29969.3945 49.9367 131.4545
ENERGY: 300000 1.1175 6.2728 2.4561 0.0000 -10888.3814 1481.5729 0.0000 0.0000 1808.3006 -7588.6615 304.3405 -9396.9621 -7582.8283 302.3548 -74.2085 54.8763 30841.1902 -182.3694 -101.9492
ENERGY: 600000 1.9279 6.2457 4.3137 0.0000 -10774.6673 1428.3075 0.0000 0.0000 1794.1512 -7539.7212 301.9592 -9333.8724 -7556.4565 301.3574 -333.1398 -329.5185 30965.8368 -318.0601 -257.1207
ENERGY: 900000 1.1992 5.5029 1.8127 0.0000 -10802.3580 1489.2823 0.0000 0.0000 1723.9672 -7580.5936 290.1471 -9304.5608 -7562.9132 300.2289 426.9243 429.7606 30555.1915 -241.5497 -191.7845
ENERGY: 1200000 0.8084 10.8475 2.5275 0.0000 -10899.6281 1487.3168 0.0000 0.0000 1725.9637 -7672.1642 290.4831 -9398.1279 -7558.4473 300.1255 255.4137 312.0369 30108.7971 -165.2431 -112.8808
ENERGY: 1500000 2.0054 11.6791 4.3694 0.0000 -10792.9754 1435.7458 0.0000 0.0000 1771.0745 -7568.1012 298.0753 -9339.1757 -7542.3891 301.5913 -167.2438 -87.1040 30470.6642 -86.2599 -32.3893
TCL: Running FEP window  13: Lambda1 0.39999999999999963 Lambda2 0.34999999999999964 [dLambda -0.04999999999999999]
TCL: Setting parameter firsttimestep to 0
TCL: Setting parameter alchLambda to 0.39999999999999963
Info: NONBONDED TABLE R-SQUARED SPACING: 0.0625
Info: NONBONDED TABLE SIZE: 705 POINTS
TCL: Setting parameter alchLambda2 to 0.34999999999999964
Info: NONBONDED TABLE R-SQUARED SPACING: 0.0625
Info: NONBONDED TABLE SIZE: 705 POINTS
TCL: Running for 1500000 steps
ETITLE: TS BOND ANGLE DIHED IMPRP ELECT VDW BOUNDARY MISC KINETIC TOTAL TEMP POTENTIAL TOTALAVG TEMPAVG PRESSURE GPRESSURE VOLUME PRESSAVG GPRESSAVG
ENERGY: 0 2.0054 11.6791 4.3694 0.0000 -10792.9759 1436.0189 0.0000 0.0000 1770.1517 -7568.7514 297.9200 -9338.9031 -7568.7514 297.9200 -185.7029 -88.5059 30470.6642 -185.7029 -88.5059
ENERGY: 300000 2.6759 5.5801 3.8218 0.0000 -10852.7302 1504.3309 0.0000 0.0000 1769.8209 -7566.5006 297.8643 -9336.3215 -7532.0075 296.5028 -17.3325 41.0115 31073.3260 -176.4786 -107.1375
ENERGY: 600000 2.2645 14.2803 2.4168 0.0000 -10805.5839 1461.1423 0.0000 0.0000 1837.1232 -7488.3567 309.1915 -9325.4799 -7531.0566 300.0008 2.7668 67.5642 30696.7642 -26.2158 32.8320
ENERGY: 900000 0.6988 8.1398 2.5222 0.0000 -10878.0146 1488.2961 0.0000 0.0000 1751.9222 -7626.4355 294.8520 -9378.3577 -7551.1555 299.5959 471.1734 541.0114 30267.7987 81.6520 146.4239
ENERGY: 1200000 0.7956 15.2214 3.8123 0.0000 -10803.3031 1472.8590 0.0000 0.0000 1818.3369 -7492.2779 306.0297 -9310.6148 -7554.6394 299.5654 194.6797 288.2583 30526.9505 117.3854 190.2993
ENERGY: 1500000 0.9705 11.5718 3.3147 0.0000 -10750.3447 1368.2585 0.0000 0.0000 1779.6419 -7586.5874 299.5172 -9366.2293 -7553.6914 299.7179 -794.0396 -744.3335 30686.2562 85.6910 157.0979
TCL: Running FEP window  14: Lambda1 0.34999999999999964 Lambda2 0.29999999999999966 [dLambda -0.04999999999999999]
TCL: Setting parameter firsttimestep to 0
TCL: Setting parameter alchLambda to 0.34999999999999964
Info: NONBONDED TABLE R-SQUARED SPACING: 0.0625
Info: NONBONDED TABLE SIZE: 705 POINTS
TCL: Setting parameter alchLambda2 to 0.29999999999999966
Info: NONBONDED TABLE R-SQUARED SPACING: 0.0625
Info: NONBONDED TABLE SIZE: 705 POINTS
TCL: Running for 1500000 steps
ETITLE: TS BOND ANGLE DIHED IMPRP ELECT VDW BOUNDARY MISC KINETIC TOTAL TEMP POTENTIAL TOTALAVG TEMPAVG PRESSURE GPRESSURE VOLUME PRESSAVG GPRESSAVG
ENERGY: 0 0.9705 11.5718 3.3147 0.0000 -10750.3450 1367.8323 0.0000 0.0000 1778.7725 -7587.8832 299.3709 -9366.6557 -7587.8832 299.3709 -822.4133 -754.1330 30686.2562 -822.4133 -754.1330
ENERGY: 300000 1.2873 9.0098 3.2518 0.0000 -10861.0972 1489.1306 0.0000 0.0000 1793.7120 -7564.7057 301.8853 -9358.4177 -7550.6915 301.1744 279.5265 351.3006 30446.4287 -11.2436 69.1222
ENERGY: 600000 0.5705 8.7053 4.9883 0.0000 -10621.2372 1373.5792 0.0000 0.0000 1810.3238 -7423.0700 304.6811 -9233.3938 -7537.6844 300.2086 -441.2566 -326.1861 30710.1360 -123.7578 -33.4626
ENERGY: 900000 0.8616 9.4120 2.8725 0.0000 -10811.3020 1444.9589 0.0000 0.0000 1794.1371 -7559.0598 301.9568 -9353.1969 -7541.5605 300.1452 -279.9954 -200.2229 30831.2057 -67.4598 28.2546
ENERGY: 1200000 1.6582 7.9544 1.8461 0.0000 -10782.4548 1396.3268 0.0000 0.0000 1756.6850 -7617.9842 295.6535 -9374.6693 -7551.4009 299.8966 -667.0929 -595.5676 30604.9660 -76.7646 16.5804
ENERGY: 1500000 2.3966 6.9110 3.2385 0.0000 -10796.3347 1472.2805 0.0000 0.0000 1804.3457 -7507.1624 303.6749 -9311.5080 -7544.0005 300.6527 -27.7641 39.4737 30749.5948 -39.0597 52.6927
TCL: Running FEP window  15: Lambda1 0.29999999999999966 Lambda2 0.24999999999999967 [dLambda -0.04999999999999999]
TCL: Setting parameter firsttimestep to 0
TCL: Setting parameter alchLambda to 0.29999999999999966
Info: NONBONDED TABLE R-SQUARED SPACING: 0.0625
Info: NONBONDED TABLE SIZE: 705 POINTS
TCL: Setting parameter alchLambda2 to 0.24999999999999967
Info: NONBONDED TABLE R-SQUARED SPACING: 0.0625
Info: NONBONDED TABLE SIZE: 705 POINTS
TCL: Running for 1500000 steps
ETITLE: TS BOND ANGLE DIHED IMPRP ELECT VDW BOUNDARY MISC KINETIC TOTAL TEMP POTENTIAL TOTALAVG TEMPAVG PRESSURE GPRESSURE VOLUME PRESSAVG GPRESSAVG
ENERGY: 0 2.3966 6.9110 3.2385 0.0000 -10796.3343 1472.4085 0.0000 0.0000 1803.4841 -7507.8955 303.5299 -9311.3796 -7507.8955 303.5299 -37.4046 37.3488 30749.5948 -37.4046 37.3488
ENERGY: 300000 1.2754 10.4901 1.7258 0.0000 -10999.6999 1618.1386 0.0000 0.0000 1785.1729 -7582.8972 300.4481 -9368.0700 -7509.5613 303.8399 1470.9519 1525.4975 30038.2872 218.2637 253.7342
ENERGY: 600000 2.2291 5.9138 1.8332 0.0000 -10842.9191 1449.0917 0.0000 0.0000 1767.4011 -7616.4502 297.4571 -9383.8513 -7556.3270 300.5623 -211.1817 -230.0201 30714.1725 105.4311 141.8229
ENERGY: 900000 1.1145 10.2205 2.4379 0.0000 -10585.8245 1294.2878 0.0000 0.0000 1825.4383 -7452.3255 307.2249 -9277.7638 -7535.0588 301.2266 -1108.4847 -1081.2919 31035.0936 -7.4671 33.6397
ENERGY: 1200000 1.2229 8.3192 3.3801 0.0000 -10836.4294 1465.7039 0.0000 0.0000 1832.1837 -7525.6195 308.3601 -9357.8033 -7531.3756 301.9483 -79.9323 -37.3671 30900.9836 -85.0128 -42.9075
ENERGY: 1500000 2.8901 3.8372 3.5511 0.0000 -10881.3274 1517.6736 0.0000 0.0000 1766.9420 -7586.4333 297.3798 -9353.3753 -7527.8161 302.2866 216.8770 289.8365 30645.6994 -136.9035 -90.6343
TCL: Running FEP window  16: Lambda1 0.24999999999999967 Lambda2 0.19999999999999968 [dLambda -0.04999999999999999]
TCL: Setting parameter firsttimestep to 0
TCL: Setting parameter alchLambda to 0.24999999999999967
Info: NONBONDED TABLE R-SQUARED SPACING: 0.0625
Info: NONBONDED TABLE SIZE: 705 POINTS
TCL: Setting parameter alchLambda2 to 0.19999999999999968
Info: NONBONDED TABLE R-SQUARED SPACING: 0.0625
Info: NONBONDED TABLE SIZE: 705 POINTS
TCL: Running for 1500000 steps
ETITLE: TS BOND ANGLE DIHED IMPRP ELECT VDW BOUNDARY MISC KINETIC TOTAL TEMP POTENTIAL TOTALAVG TEMPAVG PRESSURE GPRESSURE VOLUME PRESSAVG GPRESSAVG
ENERGY: 0 2.8901 3.8372 3.5511 0.0000 -10881.3275 1517.5711 0.0000 0.0000 1766.0271 -7587.4509 297.2258 -9353.4780 -7587.4509 297.2258 195.2142 283.8473 30645.6994 195.2142 283.8473
ENERGY: 300000 1.4321 8.4283 2.3533 0.0000 -10657.6762 1356.7395 0.0000 0.0000 1734.5790 -7554.1440 291.9331 -9288.7230 -7561.3101 295.5101 -850.7409 -742.5792 31113.1783 -10.6320 77.8167
ENERGY: 600000 1.1557 6.7408 1.9009 0.0000 -10870.7778 1491.4494 0.0000 0.0000 1768.1247 -7601.4062 297.5789 -9369.5310 -7563.1325 296.5580 295.7526 366.2600 30160.2343 -130.8451 -55.4005
ENERGY: 900000 2.8700 11.4864 3.7782 0.0000 -10896.2076 1451.5960 0.0000 0.0000 1819.6619 -7606.8151 306.2527 -9426.4770 -7556.5600 298.3489 -433.1352 -351.9779 30669.4391 -64.4021 14.5992
ENERGY: 1200000 0.7514 8.7940 4.5350 0.0000 -10700.1339 1308.2287 0.0000 0.0000 1820.3988 -7557.4260 306.3767 -9377.8249 -7563.8861 299.4267 -1095.1857 -1077.5598 30388.7223 -170.2343 -100.9036
ENERGY: 1500000 0.7998 13.9119 3.7977 0.0000 -10888.9397 1479.4964 0.0000 0.0000 1762.4144 -7628.5195 296.6178 -9390.9340 -7570.3677 299.0453 90.4621 205.7071 30411.6215 -169.8028 -95.4145
TCL: Running FEP window  17: Lambda1 0.19999999999999968 Lambda2 0.1499999999999997 [dLambda -0.04999999999999999]
TCL: Setting parameter firsttimestep to 0
TCL: Setting parameter alchLambda to 0.19999999999999968
Info: NONBONDED TABLE R-SQUARED SPACING: 0.0625
Info: NONBONDED TABLE SIZE: 705 POINTS
TCL: Setting parameter alchLambda2 to 0.1499999999999997
Info: NONBONDED TABLE R-SQUARED SPACING: 0.0625
Info: NONBONDED TABLE SIZE: 705 POINTS
TCL: Running for 1500000 steps
ETITLE: TS BOND ANGLE DIHED IMPRP ELECT VDW BOUNDARY MISC KINETIC TOTAL TEMP POTENTIAL TOTALAVG TEMPAVG PRESSURE GPRESSURE VOLUME PRESSAVG GPRESSAVG
ENERGY: 0 0.7998 13.9119 3.7977 0.0000 -10888.9404 1479.6898 0.0000 0.0000 1761.5359 -7629.2053 296.4700 -9390.7412 -7629.2053 296.4700 130.9671 202.2381 30411.6215 130.9671 202.2381
ENERGY: 300000 1.6442 9.0756 1.6639 0.0000 -10795.2144 1403.4392 0.0000 0.0000 1817.6113 -7561.7802 305.9076 -9379.3915 -7563.9032 302.9482 -618.3154 -557.8444 30795.6733 -277.5909 -187.9321
ENERGY: 600000 0.7112 10.7069 3.5662 0.0000 -10919.9128 1564.8778 0.0000 0.0000 1818.2884 -7521.7623 306.0215 -9340.0507 -7561.2201 302.5541 893.1135 948.7884 30501.7884 -47.0634 31.4018
ENERGY: 900000 1.0241 12.5545 2.6772 0.0000 -10862.6096 1493.9291 0.0000 0.0000 1767.7240 -7584.7008 297.5114 -9352.4248 -7553.0407 301.7956 329.7370 355.8256 30246.4741 -60.3401 3.1851
ENERGY: 1200000 1.9922 7.8491 1.5719 0.0000 -10705.1628 1403.7560 0.0000 0.0000 1734.2884 -7555.7052 291.8842 -9289.9936 -7542.3773 300.4071 -635.4157 -605.7782 31236.0407 -213.0349 -156.8018
ENERGY: 1500000 0.8499 9.2203 1.8746 0.0000 -10777.7751 1411.5384 0.0000 0.0000 1788.8786 -7565.4134 301.0718 -9354.2919 -7551.6276 300.5531 -241.9835 -129.1418 30285.9255 -198.6103 -138.7595
TCL: Running FEP window  18: Lambda1 0.1499999999999997 Lambda2 0.09999999999999969 [dLambda -0.05 ]
TCL: Setting parameter firsttimestep to 0
TCL: Setting parameter alchLambda to 0.1499999999999997
Info: NONBONDED TABLE R-SQUARED SPACING: 0.0625
Info: NONBONDED TABLE SIZE: 705 POINTS
TCL: Setting parameter alchLambda2 to 0.09999999999999969
Info: NONBONDED TABLE R-SQUARED SPACING: 0.0625
Info: NONBONDED TABLE SIZE: 705 POINTS
TCL: Running for 1500000 steps
ETITLE: TS BOND ANGLE DIHED IMPRP ELECT VDW BOUNDARY MISC KINETIC TOTAL TEMP POTENTIAL TOTALAVG TEMPAVG PRESSURE GPRESSURE VOLUME PRESSAVG GPRESSAVG
ENERGY: 0 0.8499 9.2203 1.8746 0.0000 -10777.7741 1411.7705 0.0000 0.0000 1787.9939 -7566.0649 300.9229 -9354.0588 -7566.0649 300.9229 -225.5803 -130.7691 30285.9255 -225.5803 -130.7691
ENERGY: 300000 2.9372 9.6448 1.7539 0.0000 -10873.2681 1500.7392 0.0000 0.0000 1768.4630 -7589.7301 297.6358 -9358.1931 -7557.8380 300.5090 408.8164 510.9320 30346.1079 -168.9983 -76.7090
ENERGY: 600000 0.4676 9.7053 2.5941 0.0000 -10690.0749 1368.2257 0.0000 0.0000 1772.4412 -7536.6410 298.3053 -9309.0821 -7527.1758 301.6967 -558.0638 -453.5904 30408.8858 -231.6267 -147.4255
ENERGY: 900000 3.3010 12.3661 3.0036 0.0000 -10787.8249 1427.3712 0.0000 0.0000 1760.7051 -7581.0779 296.3301 -9341.7829 -7524.4200 302.3648 -276.5775 -248.0388 30719.6748 -252.1546 -179.8217
ENERGY: 1200000 2.3945 7.3616 2.6966 0.0000 -10745.9478 1386.7593 0.0000 0.0000 1750.2893 -7596.4465 294.5771 -9346.7357 -7532.2786 301.2111 -507.7789 -414.5942 30452.9259 -297.8066 -224.4509
ENERGY: 1500000 0.4670 9.5314 2.3704 0.0000 -10675.7888 1356.7452 0.0000 0.0000 1796.7021 -7509.9726 302.3885 -9306.6748 -7533.5895 300.8322 -457.9096 -441.2486 30300.6962 -270.4795 -199.7611
TCL: Running FEP window  19: Lambda1 0.09999999999999969 Lambda2 0.049999999999999684 [dLambda -0.05 ]
TCL: Setting parameter firsttimestep to 0
TCL: Setting parameter alchLambda to 0.09999999999999969
Info: NONBONDED TABLE R-SQUARED SPACING: 0.0625
Info: NONBONDED TABLE SIZE: 705 POINTS
TCL: Setting parameter alchLambda2 to 0.049999999999999684
Info: NONBONDED TABLE R-SQUARED SPACING: 0.0625
Info: NONBONDED TABLE SIZE: 705 POINTS
TCL: Running for 1500000 steps
ETITLE: TS BOND ANGLE DIHED IMPRP ELECT VDW BOUNDARY MISC KINETIC TOTAL TEMP POTENTIAL TOTALAVG TEMPAVG PRESSURE GPRESSURE VOLUME PRESSAVG GPRESSAVG
ENERGY: 0 0.4670 9.5314 2.3704 0.0000 -10675.7902 1356.5229 0.0000 0.0000 1795.8063 -7511.0922 302.2377 -9306.8985 -7511.0922 302.2377 -517.5173 -446.3515 30300.6962 -517.5173 -446.3515
ENERGY: 300000 0.6734 9.1700 2.2913 0.0000 -10914.3735 1519.1535 0.0000 0.0000 1782.5883 -7600.4970 300.0131 -9383.0853 -7561.1475 300.3909 450.5456 534.9001 30235.5744 257.2983 305.3078
ENERGY: 600000 0.3736 6.4030 3.2380 0.0000 -10922.9558 1544.3747 0.0000 0.0000 1795.9641 -7572.6024 302.2643 -9368.5665 -7560.4096 301.6525 629.7287 740.5149 30438.1212 198.9656 253.2539
ENERGY: 900000 3.3963 7.1028 2.4462 0.0000 -10881.1753 1526.7226 0.0000 0.0000 1826.9127 -7514.5947 307.4730 -9341.5074 -7551.9824 302.4098 746.4098 746.2581 30125.8851 281.3463 335.5015
ENERGY: 1200000 0.2584 8.4474 1.9434 0.0000 -10834.1840 1415.9356 0.0000 0.0000 1796.2797 -7611.3196 302.3174 -9407.5993 -7563.6790 302.7073 -241.1132 -201.2825 30372.9700 234.3652 289.0453
ENERGY: 1500000 0.9823 6.5312 1.8487 0.0000 -10825.8581 1431.2535 0.0000 0.0000 1791.8596 -7593.3828 301.5735 -9385.2424 -7574.7345 301.0480 2.0172 97.2446 29890.6314 164.5462 225.6475
TCL: Running FEP window  20: Lambda1 0.049999999999999684 Lambda2 0.0    [dLambda -0.049999999999999684]
TCL: Setting parameter firsttimestep to 0
TCL: Setting parameter alchLambda to 0.049999999999999684
Info: NONBONDED TABLE R-SQUARED SPACING: 0.0625
Info: NONBONDED TABLE SIZE: 705 POINTS
TCL: Setting parameter alchLambda2 to 0.0
Info: NONBONDED TABLE R-SQUARED SPACING: 0.0625
Info: NONBONDED TABLE SIZE: 705 POINTS
TCL: Running for 1500000 steps
ETITLE: TS BOND ANGLE DIHED IMPRP ELECT VDW BOUNDARY MISC KINETIC TOTAL TEMP POTENTIAL TOTALAVG TEMPAVG PRESSURE GPRESSURE VOLUME PRESSAVG GPRESSAVG
ENERGY: 0 0.9823 6.5312 1.8487 0.0000 -10825.8593 1430.4660 0.0000 0.0000 1790.9336 -7595.0974 301.4177 -9386.0311 -7595.0974 301.4177 20.8699 93.2975 29890.6314 20.8699 93.2975
ENERGY: 300000 1.6499 7.2692 3.3960 0.0000 -10724.5708 1408.3442 0.0000 0.0000 1808.9470 -7494.9645 304.4493 -9303.9115 -7556.1041 301.7390 -593.7859 -492.7850 30946.5867 -321.8842 -252.1635
ENERGY: 600000 2.3779 11.4942 1.7640 0.0000 -10735.6044 1409.2685 0.0000 0.0000 1762.6029 -7548.0970 296.6495 -9310.6998 -7564.8420 299.9854 -109.6989 -50.1218 30081.9203 -43.7507 19.2913
ENERGY: 900000 3.0836 14.1966 2.4935 0.0000 -10744.9705 1407.1871 0.0000 0.0000 1804.6651 -7513.3446 303.7287 -9318.0096 -7536.7736 301.4768 -518.0781 -494.4280 30730.1324 2.4455 55.8230
ENERGY: 1200000 1.0872 7.1793 3.3699 0.0000 -10869.4091 1489.8199 0.0000 0.0000 1718.5812 -7649.3715 289.2406 -9367.9527 -7554.7706 299.0440 163.2849 231.0790 30396.0878 2.8365 58.7505
ENERGY: 1500000 1.6742 8.2006 1.8260 0.0000 -10900.7332 1498.3936 0.0000 0.0000 1767.2925 -7623.3464 297.4388 -9390.6389 -7558.7522 299.6697 524.5738 593.7438 29817.0748 21.5915 71.3274
TCL: Exiting due to exit command.
