Info: SIMULATION PARAMETERS:
Info: TIMESTEP               2
Info: NUMBER OF STEPS        0
Info: STEPS PER CYCLE        10
Info: PERIODIC CELL BASIS 1  30.6474 0 0
Info: PERIODIC CELL BASIS 2  0 32.2032 0
Info: PERIODIC CELL BASIS 3  0 0 31.2238
Info: PERIODIC CELL CENTER   0 0 0
Info: WRAPPING WATERS AROUND PERIODIC BOUNDARIES ON OUTPUT.
Info: WRAPPING ALL CLUSTERS AROUND PERIODIC BOUNDARIES ON OUTPUT.
Info: FIRST LDB TIMESTEP     50
Info: LAST LDB TIMESTEP     -1
Info: HOM BACKGROUND SCALING 1
Info: PME BACKGROUND SCALING 1
Info: MIN ATOMS PER PATCH    40
Info: EMPTY PATCH LOAD       40 ATOMS
Info: VELOCITY FILE          mobley_7676709_equil.vel
Info: CENTER OF MASS MOVING INITIALLY? NO
Info: DIELECTRIC             1
Info: EXCLUDE                SCALED ONE-FOUR
Info: 1-4 ELECTROSTATICS SCALED BY 0.833333
Info: MODIFIED 1-4 VDW PARAMETERS WILL BE USED
Info: DCD FILENAME           mobley_7676709_prod.dcd
Info: DCD FREQUENCY          100000
Info: DCD FIRST STEP         100000
Info: DCD FILE WILL CONTAIN UNIT CELL DATA
Info: XST FILENAME           mobley_7676709_prod.xst
Info: XST FREQUENCY          100000
Info: NO VELOCITY DCD OUTPUT
Info: NO FORCE DCD OUTPUT
Info: OUTPUT FILENAME        mobley_7676709_prod
Info: BINARY OUTPUT FILES WILL BE USED
Info: RESTART FILENAME       mobley_7676709_prod.restart
Info: RESTART FREQUENCY      100000
Info: BINARY RESTART FILES WILL BE USED
Info: CUTOFF                 9
Info: PAIRLIST DISTANCE      11
Info: PAIRLIST SHRINK RATE   0.01
Info: PAIRLIST GROW RATE     0.01
Info: PAIRLIST TRIGGER       0.3
Info: PAIRLISTS PER CYCLE    2
Info: PAIRLISTS ENABLED
Info: MARGIN                 2
Info: HYDROGEN GROUP CUTOFF  2.5
Info: PATCH DIMENSION        15.5
Info: ENERGY OUTPUT STEPS    100000
Info: ENERGY EVALUATION STEPS    100000
Info: OUTPUT ENERGY PRECISION 4
Info: CROSSTERM ENERGY INCLUDED IN DIHEDRAL
Info: TIMING OUTPUT STEPS    1000000
Info: PRESSURE OUTPUT STEPS  100000
Info: ALCHEMICAL FEP ON
Info: FEP CURRENT LAMBDA VALUE     1
Info: FEP COMPARISON LAMBDA VALUE  0.95
Info: FEP INTRA-ALCHEMICAL NON-BONDED INTERACTIONS WILL BE RETAINED
Info: FEP INTRA-ALCHEMICAL BONDED INTERACTIONS WILL BE RETAINED
Info: FEP VDW SHIFTING COEFFICIENT 5
Info: FEP ELEC. ACTIVE FOR ANNIHILATED PARTICLES BETWEEN LAMBDA = 0 AND LAMBDA = 0.5
Info: FEP ELEC. ACTIVE FOR EXNIHILATED PARTICLES BETWEEN LAMBDA = 0.5 AND LAMBDA = 1
Info: FEP VDW ACTIVE FOR ANNIHILATED PARTICLES BETWEEN LAMBDA = 0 AND LAMBDA = 1
Info: FEP VDW ACTIVE FOR EXNIHILATED PARTICLES BETWEEN LAMBDA = 0 AND LAMBDA = 1
Info: FEP BOND ACTIVE FOR ANNIHILATED PARTICLES BETWEEN LAMBDA = 1 AND LAMBDA = 1
Info: FEP BOND ACTIVE FOR EXNIHILATED PARTICLES BETWEEN LAMBDA = 0 AND LAMBDA = 0
Info: LANGEVIN DYNAMICS ACTIVE
Info: LANGEVIN TEMPERATURE   300
Info: LANGEVIN USING BBK INTEGRATOR
Info: LANGEVIN DAMPING COEFFICIENT IS 1 INVERSE PS
Info: LANGEVIN DYNAMICS APPLIED TO HYDROGENS
Info: LANGEVIN PISTON PRESSURE CONTROL ACTIVE
Info:        TARGET PRESSURE IS 1.01325 BAR
Info:     OSCILLATION PERIOD IS 50 FS
Info:             DECAY TIME IS 25 FS
Info:     PISTON TEMPERATURE IS 300 K
Info:       PRESSURE CONTROL IS GROUP-BASED
Info:    INITIAL STRAIN RATE IS -0.000695066 -0.000695066 -0.000695066
Info:       CELL FLUCTUATION IS ISOTROPIC
Info: PARTICLE MESH EWALD (PME) ACTIVE
Info: PME TOLERANCE               1e-06
Info: PME EWALD COEFFICIENT       0.348832
Info: PME INTERPOLATION ORDER     4
Info: PME GRID DIMENSIONS         32 36 32
Info: PME MAXIMUM GRID SPACING    1
Info: PME CALCULATION WILL BE PERFORMED ON GPU
Info: FULL ELECTROSTATIC EVALUATION FREQUENCY      2
Info: USING VERLET I (r-RESPA) MTS SCHEME.
Info: C1 SPLITTING OF LONG RANGE ELECTROSTATICS
Info: PLACING ATOMS IN PATCHES BY HYDROGEN GROUPS
Info: RIGID BONDS TO HYDROGEN : ALL
Info:         ERROR TOLERANCE : 1e-08
Info:          MAX ITERATIONS : 100
Info: RIGID WATER USING SETTLE ALGORITHM
Info: RANDOM NUMBER SEED     1743828263
Info: USE HYDROGEN BONDS?    NO
Info: Using AMBER format force field!
Info: AMBER PARM FILE        mobley_7676709.prmtop
Info: COORDINATE PDB         mobley_7676709.pdb
Info: Exclusions will be read from PARM file!
Info: SCNB (VDW SCALING)     2
Info: USING ARITHMETIC MEAN TO COMBINE L-J SIGMA PARAMETERS
Info: BINARY COORDINATES     mobley_7676709_equil.coor
Info: SUMMARY OF PARAMETERS:
Info: 10 BONDS
Info: 15 ANGLES
Info:   15 HARMONIC
Info:   0 COSINE-BASED
Info: 14 DIHEDRAL
Info: 0 IMPROPER
Info: 0 CROSSTERM
Info: 0 VDW
Info: 28 VDW_PAIRS
Info: 0 NBTHOLE_PAIRS
Info: To read alchdata from file: mobley_7676709.pdb
Info: To read alchflag data from column: 5
Info: STRUCTURE SUMMARY:
Info: 2982 ATOMS
Info: 2982 BONDS
Info: 51 ANGLES
Info: 82 DIHEDRALS
Info: 0 IMPROPERS
Info: 0 CROSSTERMS
Info: 3101 EXCLUSIONS
Info: 2971 RIGID BONDS
Info: ALCH: 0 ATOMS TO DISAPPEAR IN FINAL STATE
Info: ALCH: 27 ATOMS TO APPEAR IN FINAL STATE
Info: 5975 DEGREES OF FREEDOM
Info: 996 HYDROGEN GROUPS
Info: 4 ATOMS IN LARGEST HYDROGEN GROUP
Info: 996 MIGRATION GROUPS
Info: 4 ATOMS IN LARGEST MIGRATION GROUP
Info: TOTAL MASS = 17898 amu
Info: TOTAL CHARGE = -0.00029996 e
Info: MASS DENSITY = 0.96446 g/cm^3
Info: ATOM DENSITY = 0.0967672 atoms/A^3
Info: ADDED 0 IMPLICIT EXCLUSIONS
Info: NONBONDED TABLE R-SQUARED SPACING: 0.0625
Info: NONBONDED TABLE SIZE: 705 POINTS
Info: REMOVING COM VELOCITY 0.115505 0.0583081 0.069434
Info: Use 3D box decompostion in PME FFT.
Info: Updated CUDA force table with 4096 elements.
Info: Updated CUDA LJ table with 7 x 7 elements.
Info: Found 27 unique exclusion lists needing 88 bytes
TCL: Running for 1500000 steps
ETITLE: TS BOND ANGLE DIHED IMPRP ELECT VDW BOUNDARY MISC KINETIC TOTAL TEMP POTENTIAL TOTALAVG TEMPAVG PRESSURE GPRESSURE VOLUME PRESSAVG GPRESSAVG
ENERGY: 0 5.6790 12.1345 5.9767 0.0000 -10877.4912 1539.4517 0.0000 0.0000 1804.2925 -7509.9568 303.9201 -9314.2493 -7509.9568 303.9201 726.8738 811.4091 30816.2138 726.8738 811.4091
ENERGY: 300000 5.9277 10.1456 4.6115 0.0000 -10748.0041 1408.9945 0.0000 0.0000 1798.8062 -7519.5186 302.9960 -9318.3248 -7504.8383 304.9870 -394.5332 -357.6133 30712.6929 50.2224 103.6619
ENERGY: 600000 3.6014 9.5131 7.8267 0.0000 -10747.5505 1444.1325 0.0000 0.0000 1755.0242 -7527.4526 295.6212 -9282.4769 -7511.5420 302.6185 50.6833 143.5133 30698.2639 43.1735 104.9145
ENERGY: 900000 1.5976 18.3907 5.1285 0.0000 -10747.1281 1449.4641 0.0000 0.0000 1766.8871 -7505.6601 297.6194 -9272.5472 -7509.3349 301.3453 161.1250 194.2665 30836.1882 -51.1070 -0.9698
ENERGY: 1200000 1.9975 13.1631 4.3909 0.0000 -10731.3316 1404.7849 0.0000 0.0000 1792.3778 -7514.6174 301.9131 -9306.9952 -7505.5042 300.8465 -349.7268 -257.9717 30854.8598 -131.1226 -69.1684
ENERGY: 1500000 5.1813 13.7288 5.0401 0.0000 -10732.1025 1407.2533 0.0000 0.0000 1803.7843 -7497.1147 303.8345 -9300.8990 -7506.4720 301.4291 -429.0853 -398.7482 31019.6159 -132.6429 -72.2193
TCL: Running FEP window   2: Lambda1 0.95   Lambda2 0.8999999999999999 [dLambda -0.050000000000000044]
TCL: Setting parameter firsttimestep to 0
TCL: Setting parameter alchLambda to 0.95
Info: NONBONDED TABLE R-SQUARED SPACING: 0.0625
Info: NONBONDED TABLE SIZE: 705 POINTS
TCL: Setting parameter alchLambda2 to 0.8999999999999999
Info: NONBONDED TABLE R-SQUARED SPACING: 0.0625
Info: NONBONDED TABLE SIZE: 705 POINTS
TCL: Running for 1500000 steps
ETITLE: TS BOND ANGLE DIHED IMPRP ELECT VDW BOUNDARY MISC KINETIC TOTAL TEMP POTENTIAL TOTALAVG TEMPAVG PRESSURE GPRESSURE VOLUME PRESSAVG GPRESSAVG
ENERGY: 0 5.1813 13.7288 5.0401 0.0000 -10730.4482 1407.1992 0.0000 0.0000 1802.9231 -7496.3758 303.6894 -9299.2989 -7496.3758 303.6894 -505.9250 -413.7542 31019.6159 -505.9250 -413.7542
ENERGY: 300000 4.6316 12.4104 6.3221 0.0000 -10718.8993 1418.7351 0.0000 0.0000 1819.8009 -7456.9992 306.5324 -9276.8000 -7504.6866 299.7619 186.2153 253.2276 30353.0459 -146.9479 -68.4848
ENERGY: 600000 8.0209 17.0337 6.0040 0.0000 -10806.3469 1449.0918 0.0000 0.0000 1807.0484 -7519.1482 304.3843 -9326.1965 -7522.4115 299.7988 82.9659 83.7026 30408.4691 -136.3999 -85.2958
ENERGY: 900000 7.8673 9.3067 4.0363 0.0000 -10663.1367 1385.6803 0.0000 0.0000 1784.2774 -7471.9687 300.5487 -9256.2462 -7511.1424 299.6691 -20.2997 -17.5423 30145.9939 -108.9205 -67.9963
ENERGY: 1200000 2.8797 7.9374 4.3713 0.0000 -10835.0016 1499.5699 0.0000 0.0000 1778.8019 -7541.4414 299.6264 -9320.2434 -7512.6970 300.2659 514.6217 603.1182 30443.6151 -9.9945 37.5215
ENERGY: 1500000 1.9314 10.3041 3.9129 0.0000 -10710.4535 1387.4101 0.0000 0.0000 1842.9962 -7463.8988 310.4395 -9306.8950 -7509.8426 300.4624 -557.7120 -415.2666 30796.2925 -86.8917 -35.7923
TCL: Running FEP window   3: Lambda1 0.8999999999999999 Lambda2 0.8499999999999999 [dLambda -0.050000000000000044]
TCL: Setting parameter firsttimestep to 0
TCL: Setting parameter alchLambda to 0.8999999999999999
Info: NONBONDED TABLE R-SQUARED SPACING: 0.0625
Info: NONBONDED TABLE SIZE: 705 POINTS
TCL: Setting parameter alchLambda2 to 0.8499999999999999
Info: NONBONDED TABLE R-SQUARED SPACING: 0.0625
Info: NONBONDED TABLE SIZE: 705 POINTS
TCL: Running for 1500000 steps
ETITLE: TS BOND ANGLE DIHED IMPRP ELECT VDW BOUNDARY MISC KINETIC TOTAL TEMP POTENTIAL TOTALAVG TEMPAVG PRESSURE GPRESSURE VOLUME PRESSAVG GPRESSAVG
ENERGY: 0 1.9314 10.3041 3.9129 0.0000 -10709.0173 1387.2089 0.0000 0.0000 1842.1124 -7463.5476 310.2906 -9305.6601 -7463.5476 310.2906 -509.8980 -431.6326 30796.2925 -509.8980 -431.6326
ENERGY: 300000 5.0049 14.0324 4.6893 0.0000 -10597.2324 1376.2723 0.0000 0.0000 1771.9860 -7425.2475 298.4783 -9197.2335 -7454.3999 305.1417 -308.1428 -253.1668 31050.6858 -207.6380 -134.8298
ENERGY: 600000 3.9039 14.8765 3.8090 0.0000 -10748.5190 1418.1610 0.0000 0.0000 1793.8050 -7513.9636 302.1535 -9307.7686 -7467.1842 304.1801 -446.7144 -366.9570 31353.8923 -300.3560 -214.1660
ENERGY: 900000 2.2266 17.4378 3.6586 0.0000 -10821.8772 1485.1578 0.0000 0.0000 1761.6715 -7551.7249 296.7409 -9313.3963 -7490.3948 303.3712 204.7116 267.4654 30726.4978 -258.0348 -175.3578
ENERGY: 1200000 3.7075 12.8647 4.2109 0.0000 -10593.5022 1343.7083 0.0000 0.0000 1770.1816 -7458.8293 298.1744 -9229.0109 -7480.5144 303.4665 -726.3385 -658.1551 30840.4862 -199.9670 -120.8324
ENERGY: 1500000 3.3255 14.8783 4.9605 0.0000 -10749.8625 1484.8110 0.0000 0.0000 1820.9519 -7420.9352 306.7262 -9241.8871 -7495.8964 302.2391 313.8440 361.0366 30875.9646 -141.5594 -70.8373
TCL: Running FEP window   4: Lambda1 0.8499999999999999 Lambda2 0.7999999999999998 [dLambda -0.050000000000000044]
TCL: Setting parameter firsttimestep to 0
TCL: Setting parameter alchLambda to 0.8499999999999999
Info: NONBONDED TABLE R-SQUARED SPACING: 0.0625
Info: NONBONDED TABLE SIZE: 705 POINTS
TCL: Setting parameter alchLambda2 to 0.7999999999999998
Info: NONBONDED TABLE R-SQUARED SPACING: 0.0625
Info: NONBONDED TABLE SIZE: 705 POINTS
TCL: Running for 1500000 steps
ETITLE: TS BOND ANGLE DIHED IMPRP ELECT VDW BOUNDARY MISC KINETIC TOTAL TEMP POTENTIAL TOTALAVG TEMPAVG PRESSURE GPRESSURE VOLUME PRESSAVG GPRESSAVG
ENERGY: 0 3.3255 14.8783 4.9605 0.0000 -10748.8641 1484.8861 0.0000 0.0000 1820.0892 -7420.7244 306.5809 -9240.8136 -7420.7244 306.5809 271.4493 351.0156 30875.9646 271.4493 351.0156
ENERGY: 300000 7.4728 17.5929 4.5320 0.0000 -10816.3795 1454.4255 0.0000 0.0000 1798.4056 -7533.9507 302.9285 -9332.3563 -7480.2657 303.9242 -196.2523 -120.0120 30563.2067 48.7890 145.5968
ENERGY: 600000 4.5377 15.5116 5.1660 0.0000 -10667.7104 1386.7803 0.0000 0.0000 1739.9049 -7515.8100 293.0745 -9255.7148 -7511.5391 300.7471 -342.2545 -265.9597 30921.2484 17.4089 97.5246
ENERGY: 900000 1.9258 17.0107 6.8224 0.0000 -10636.3196 1340.5110 0.0000 0.0000 1764.7453 -7505.3044 297.2587 -9270.0497 -7499.4639 300.1306 -750.8293 -680.5622 30890.2933 -94.9938 -19.1758
ENERGY: 1200000 2.8196 12.6910 5.6158 0.0000 -10785.8424 1467.3096 0.0000 0.0000 1761.9977 -7535.4089 296.7958 -9297.4066 -7514.3340 299.4986 351.4123 420.6351 30353.9376 -166.3646 -86.3074
ENERGY: 1500000 2.9976 17.0632 8.2967 0.0000 -10829.0662 1460.8802 0.0000 0.0000 1803.7317 -7536.0967 303.8256 -9339.8285 -7518.8510 299.2585 12.5628 58.6067 30698.6858 -213.6448 -134.8819
TCL: Running FEP window   5: Lambda1 0.7999999999999998 Lambda2 0.7499999999999998 [dLambda -0.050000000000000044]
TCL: Setting parameter firsttimestep to 0
TCL: Setting parameter alchLambda to 0.7999999999999998
Info: NONBONDED TABLE R-SQUARED SPACING: 0.0625
Info: NONBONDED TABLE SIZE: 705 POINTS
TCL: Setting parameter alchLambda2 to 0.7499999999999998
Info: NONBONDED TABLE R-SQUARED SPACING: 0.0625
Info: NONBONDED TABLE SIZE: 705 POINTS
TCL: Running for 1500000 steps
ETITLE: TS BOND ANGLE DIHED IMPRP ELECT VDW BOUNDARY MISC KINETIC TOTAL TEMP POTENTIAL TOTALAVG TEMPAVG PRESSURE GPRESSURE VOLUME PRESSAVG GPRESSAVG
ENERGY: 0 2.9976 17.0632 8.2967 0.0000 -10827.9107 1460.6259 0.0000 0.0000 1802.8365 -7536.0908 303.6748 -9338.9273 -7536.0908 303.6748 -18.4907 48.0208 30698.6858 -18.4907 48.0208
ENERGY: 300000 3.1930 13.6885 4.4135 0.0000 -10740.9835 1390.0787 0.0000 0.0000 1731.5777 -7598.0321 291.6718 -9329.6098 -7502.3900 299.6324 -420.3290 -322.1685 30202.8053 -80.2977 -24.9939
ENERGY: 600000 3.0556 10.4635 6.5969 0.0000 -10597.8583 1343.0228 0.0000 0.0000 1814.6213 -7420.0981 305.6599 -9234.7195 -7494.4032 300.4099 -654.6167 -515.9154 30808.6330 -136.5673 -63.8746
ENERGY: 900000 6.3295 21.3179 4.0003 0.0000 -10826.2288 1477.9035 0.0000 0.0000 1779.4646 -7537.2130 299.7380 -9316.6775 -7499.9209 299.6592 -87.5855 -64.1452 31128.5279 -139.8581 -72.7696
ENERGY: 1200000 4.5717 15.3701 4.3690 0.0000 -10688.3123 1449.4147 0.0000 0.0000 1820.7034 -7393.8833 306.6844 -9214.5868 -7488.8387 301.3255 27.8750 92.7305 31047.7190 -84.2515 -21.9388
ENERGY: 1500000 5.0093 13.8040 6.2206 0.0000 -10888.7162 1499.9868 0.0000 0.0000 1825.0258 -7538.6696 307.4125 -9363.6954 -7500.7167 300.7909 186.4778 244.0197 30668.0833 11.6528 71.7758
TCL: Running FEP window   6: Lambda1 0.7499999999999998 Lambda2 0.6999999999999997 [dLambda -0.050000000000000044]
TCL: Setting parameter firsttimestep to 0
TCL: Setting parameter alchLambda to 0.7499999999999998
Info: NONBONDED TABLE R-SQUARED SPACING: 0.0625
Info: NONBONDED TABLE SIZE: 705 POINTS
TCL: Setting parameter alchLambda2 to 0.6999999999999997
Info: NONBONDED TABLE R-SQUARED SPACING: 0.0625
Info: NONBONDED TABLE SIZE: 705 POINTS
TCL: Running for 1500000 steps
ETITLE: TS BOND ANGLE DIHED IMPRP ELECT VDW BOUNDARY MISC KINETIC TOTAL TEMP POTENTIAL TOTALAVG TEMPAVG PRESSURE GPRESSURE VOLUME PRESSAVG GPRESSAVG
ENERGY: 0 5.0093 13.8040 6.2206 0.0000 -10887.7036 1500.0173 0.0000 0.0000 1824.1533 -7538.4990 307.2655 -9362.6523 -7538.4990 307.2655 152.4108 233.2614 30668.0833 152.4108 233.2614
ENERGY: 300000 4.5061 15.5282 4.8799 0.0000 -10817.4963 1447.1503 0.0000 0.0000 1800.6175 -7544.8144 303.3011 -9345.4318 -7510.4229 305.2262 -258.9397 -166.6378 30757.1886 406.9254 475.2206
ENERGY: 600000 3.0213 17.8065 4.6300 0.0000 -10924.1283 1541.0218 0.0000 0.0000 1800.6960 -7556.9527 303.3143 -9357.6487 -7536.2851 302.5567 926.5999 929.2032 30456.9258 358.3245 417.2362
ENERGY: 900000 1.9860 12.1647 4.6997 0.0000 -10484.6651 1277.1150 0.0000 0.0000 1778.3211 -7410.3787 299.5454 -9188.6998 -7524.3798 302.1029 -971.7658 -878.9080 30798.8694 203.9184 268.0709
ENERGY: 1200000 3.6116 13.4242 3.8876 0.0000 -10764.6229 1419.3594 0.0000 0.0000 1891.0594 -7433.2807 318.5354 -9324.3401 -7512.4438 303.5500 -377.8089 -314.6204 30868.6432 66.8039 127.5268
ENERGY: 1500000 4.3941 7.2974 3.5519 0.0000 -10736.9151 1443.1441 0.0000 0.0000 1784.5054 -7494.0222 300.5871 -9278.5276 -7512.1523 303.3037 -70.3621 -5.5230 30989.3560 52.0853 110.3295
TCL: Running FEP window   7: Lambda1 0.6999999999999997 Lambda2 0.6499999999999997 [dLambda -0.050000000000000044]
TCL: Setting parameter firsttimestep to 0
TCL: Setting parameter alchLambda to 0.6999999999999997
Info: NONBONDED TABLE R-SQUARED SPACING: 0.0625
Info: NONBONDED TABLE SIZE: 705 POINTS
TCL: Setting parameter alchLambda2 to 0.6499999999999997
Info: NONBONDED TABLE R-SQUARED SPACING: 0.0625
Info: NONBONDED TABLE SIZE: 705 POINTS
TCL: Running for 1500000 steps
ETITLE: TS BOND ANGLE DIHED IMPRP ELECT VDW BOUNDARY MISC KINETIC TOTAL TEMP POTENTIAL TOTALAVG TEMPAVG PRESSURE GPRESSURE VOLUME PRESSAVG GPRESSAVG
ENERGY: 0 4.3941 7.2974 3.5519 0.0000 -10735.4064 1442.8012 0.0000 0.0000 1783.6375 -7493.7242 300.4409 -9277.3617 -7493.7242 300.4409 -113.3472 -18.9335 30989.3560 -113.3472 -18.9335
ENERGY: 300000 0.8056 11.2332 4.5067 0.0000 -10696.6297 1394.0094 0.0000 0.0000 1779.2665 -7506.8081 299.7047 -9286.0746 -7499.9034 299.0717 -168.1129 -106.2598 30412.3172 -246.7665 -192.6259
ENERGY: 600000 2.9025 13.8431 3.7447 0.0000 -10889.8114 1469.5211 0.0000 0.0000 1726.4054 -7673.3945 290.8006 -9399.7999 -7528.4215 296.9871 -277.8001 -282.4771 30695.6569 -302.5214 -258.3857
ENERGY: 900000 7.1765 12.0756 4.1451 0.0000 -10812.2685 1486.7792 0.0000 0.0000 1761.4413 -7540.6508 296.7021 -9302.0921 -7527.2356 297.5070 95.9572 127.4705 30648.9253 -324.0492 -271.5048
ENERGY: 1200000 3.3208 10.4512 4.3166 0.0000 -10679.7733 1371.3515 0.0000 0.0000 1856.8508 -7433.4825 312.7732 -9290.3333 -7518.5360 299.6984 -520.2807 -504.3014 30921.2519 -281.1024 -234.6585
ENERGY: 1500000 3.0557 11.9608 3.9526 0.0000 -10631.2028 1413.0331 0.0000 0.0000 1829.2413 -7369.9592 308.1225 -9199.2005 -7506.3013 300.4889 -177.6025 -94.8144 31216.9524 -153.3501 -111.8931
TCL: Running FEP window   8: Lambda1 0.6499999999999997 Lambda2 0.5999999999999996 [dLambda -0.050000000000000044]
TCL: Setting parameter firsttimestep to 0
TCL: Setting parameter alchLambda to 0.6499999999999997
Info: NONBONDED TABLE R-SQUARED SPACING: 0.0625
Info: NONBONDED TABLE SIZE: 705 POINTS
TCL: Setting parameter alchLambda2 to 0.5999999999999996
Info: NONBONDED TABLE R-SQUARED SPACING: 0.0625
Info: NONBONDED TABLE SIZE: 705 POINTS
TCL: Running for 1500000 steps
ETITLE: TS BOND ANGLE DIHED IMPRP ELECT VDW BOUNDARY MISC KINETIC TOTAL TEMP POTENTIAL TOTALAVG TEMPAVG PRESSURE GPRESSURE VOLUME PRESSAVG GPRESSAVG
ENERGY: 0 3.0557 11.9608 3.9526 0.0000 -10630.3477 1412.8324 0.0000 0.0000 1828.3516 -7370.1945 307.9727 -9198.5461 -7370.1945 307.9727 -199.1328 -106.4541 31216.9524 -199.1328 -106.4541
ENERGY: 300000 4.0138 12.4296 3.3525 0.0000 -10771.4750 1477.0280 0.0000 0.0000 1778.5869 -7496.0642 299.5902 -9274.6512 -7467.9068 303.5664 405.6063 488.5926 30241.8635 -142.2751 -68.2188
ENERGY: 600000 6.9662 11.7104 5.8624 0.0000 -10793.7731 1484.2813 0.0000 0.0000 1786.2271 -7498.7257 300.8771 -9284.9527 -7502.6525 299.8557 354.4534 349.8470 30368.8979 -85.6608 -28.6458
ENERGY: 900000 3.6860 13.1827 3.8728 0.0000 -10722.1673 1449.0045 0.0000 0.0000 1788.0870 -7464.3343 301.1904 -9252.4213 -7504.4880 298.7873 54.6100 93.5910 30851.5196 -218.2036 -165.7683
ENERGY: 1200000 2.8066 11.6357 3.9259 0.0000 -10674.7857 1388.8883 0.0000 0.0000 1797.8212 -7469.7080 302.8301 -9267.5292 -7502.0392 299.7208 -347.0989 -201.6394 30834.8774 -215.2863 -157.6254
ENERGY: 1500000 3.3167 14.4245 4.9497 0.0000 -10868.9785 1489.7482 0.0000 0.0000 1741.1548 -7615.3845 293.2850 -9356.5393 -7507.7272 299.8947 205.3595 306.5673 30310.6763 -129.0153 -69.4707
TCL: Running FEP window   9: Lambda1 0.5999999999999996 Lambda2 0.5499999999999996 [dLambda -0.050000000000000044]
TCL: Setting parameter firsttimestep to 0
TCL: Setting parameter alchLambda to 0.5999999999999996
Info: NONBONDED TABLE R-SQUARED SPACING: 0.0625
Info: NONBONDED TABLE SIZE: 705 POINTS
TCL: Setting parameter alchLambda2 to 0.5499999999999996
Info: NONBONDED TABLE R-SQUARED SPACING: 0.0625
Info: NONBONDED TABLE SIZE: 705 POINTS
TCL: Running for 1500000 steps
ETITLE: TS BOND ANGLE DIHED IMPRP ELECT VDW BOUNDARY MISC KINETIC TOTAL TEMP POTENTIAL TOTALAVG TEMPAVG PRESSURE GPRESSURE VOLUME PRESSAVG GPRESSAVG
ENERGY: 0 3.3167 14.4245 4.9497 0.0000 -10868.3885 1490.0069 0.0000 0.0000 1740.2453 -7615.4454 293.1318 -9355.6907 -7615.4454 293.1318 205.6068 296.8910 30310.6763 205.6068 296.8910
ENERGY: 300000 5.0822 14.0925 4.0744 0.0000 -10710.8502 1412.8083 0.0000 0.0000 1750.2674 -7524.5255 294.8200 -9274.7929 -7488.2489 301.3404 -132.6210 -46.7637 30691.2966 230.0006 298.6012
ENERGY: 600000 4.1582 10.3831 3.2944 0.0000 -10727.3550 1371.6562 0.0000 0.0000 1803.9981 -7533.8650 303.8705 -9337.8631 -7490.5604 301.1024 -558.4267 -496.2557 30309.7972 63.2944 134.6682
ENERGY: 900000 4.9712 14.8026 6.6791 0.0000 -10827.6817 1464.2021 0.0000 0.0000 1807.6245 -7529.4023 304.4813 -9337.0268 -7499.4332 301.6204 -106.4380 -60.3981 30396.4276 42.8759 113.6584
ENERGY: 1200000 3.4173 13.6312 3.7514 0.0000 -10742.0059 1440.1331 0.0000 0.0000 1753.7291 -7527.3438 295.4030 -9281.0729 -7495.2519 301.6500 -26.2385 -12.2654 30608.6891 21.8494 82.0483
ENERGY: 1500000 3.2067 14.2316 4.7326 0.0000 -10760.8073 1393.8967 0.0000 0.0000 1795.5380 -7549.2017 302.4455 -9344.7397 -7511.9869 300.9918 -584.5785 -554.0550 30662.9568 -74.7143 -14.7301
TCL: Running FEP window  10: Lambda1 0.5499999999999996 Lambda2 0.4999999999999996 [dLambda -0.04999999999999999]
TCL: Setting parameter firsttimestep to 0
TCL: Setting parameter alchLambda to 0.5499999999999996
Info: NONBONDED TABLE R-SQUARED SPACING: 0.0625
Info: NONBONDED TABLE SIZE: 705 POINTS
TCL: Setting parameter alchLambda2 to 0.4999999999999996
Info: NONBONDED TABLE R-SQUARED SPACING: 0.0625
Info: NONBONDED TABLE SIZE: 705 POINTS
TCL: Running for 1500000 steps
ETITLE: TS BOND ANGLE DIHED IMPRP ELECT VDW BOUNDARY MISC KINETIC TOTAL TEMP POTENTIAL TOTALAVG TEMPAVG PRESSURE GPRESSURE VOLUME PRESSAVG GPRESSAVG
ENERGY: 0 3.2067 14.2316 4.7326 0.0000 -10760.5166 1394.3054 0.0000 0.0000 1794.6449 -7549.3955 302.2950 -9344.0404 -7549.3955 302.2950 -625.9641 -561.9130 30662.9568 -625.9641 -561.9130
ENERGY: 300000 4.2132 13.3669 6.7011 0.0000 -10626.6689 1373.1605 0.0000 0.0000 1811.1999 -7418.0273 305.0836 -9229.2271 -7498.1480 304.2939 -366.2795 -297.6732 30514.0503 -427.4043 -359.0454
ENERGY: 600000 2.7319 12.2363 4.7904 0.0000 -10729.0395 1451.7977 0.0000 0.0000 1769.9803 -7487.5030 298.1405 -9257.4833 -7493.2587 302.9083 245.5788 260.3375 30642.7777 -338.6781 -281.3128
ENERGY: 900000 2.9585 13.3209 4.3964 0.0000 -10800.3774 1491.0689 0.0000 0.0000 1760.5287 -7528.1039 296.5484 -9288.6326 -7505.4126 301.2794 573.1205 597.7452 30413.7553 -286.3572 -236.0895
ENERGY: 1200000 3.7127 10.8324 5.3818 0.0000 -10596.1296 1347.0873 0.0000 0.0000 1743.2744 -7485.8410 293.6420 -9229.1154 -7493.2139 300.9441 -659.5083 -615.5603 30802.7541 -311.7366 -255.5478
ENERGY: 1500000 2.0867 9.0370 4.6533 0.0000 -10842.0936 1486.9116 0.0000 0.0000 1730.1915 -7609.2136 291.4383 -9339.4051 -7502.1677 300.1564 79.1430 125.3677 30637.6275 -299.3222 -246.5870
TCL: Running FEP window  11: Lambda1 0.4999999999999996 Lambda2 0.4499999999999996 [dLambda -0.04999999999999999]
TCL: Setting parameter firsttimestep to 0
TCL: Setting parameter alchLambda to 0.4999999999999996
Info: NONBONDED TABLE R-SQUARED SPACING: 0.0625
Info: NONBONDED TABLE SIZE: 705 POINTS
TCL: Setting parameter alchLambda2 to 0.4499999999999996
Info: NONBONDED TABLE R-SQUARED SPACING: 0.0625
Info: NONBONDED TABLE SIZE: 705 POINTS
TCL: Running for 1500000 steps
ETITLE: TS BOND ANGLE DIHED IMPRP ELECT VDW BOUNDARY MISC KINETIC TOTAL TEMP POTENTIAL TOTALAVG TEMPAVG PRESSURE GPRESSURE VOLUME PRESSAVG GPRESSAVG
ENERGY: 0 2.0867 9.0370 4.6533 0.0000 -10841.6121 1487.6415 0.0000 0.0000 1729.2750 -7608.9187 291.2839 -9338.1937 -7608.9187 291.2839 28.6267 122.7975 30637.6275 28.6267 122.7975
ENERGY: 300000 2.9573 13.3008 2.8865 0.0000 -10637.4102 1397.6460 0.0000 0.0000 1780.7806 -7439.8390 299.9597 -9220.6196 -7487.2591 297.3763 -202.0129 -216.2846 30784.8106 -222.9682 -172.2114
ENERGY: 600000 7.5619 13.8328 5.5037 0.0000 -10771.6601 1488.4947 0.0000 0.0000 1775.2809 -7480.9859 299.0333 -9256.2669 -7498.0102 299.3557 525.9849 517.7170 30159.1034 -142.4077 -103.8913
ENERGY: 900000 4.2255 8.0990 4.3946 0.0000 -10953.8885 1576.9542 0.0000 0.0000 1786.1463 -7574.0688 300.8635 -9360.2151 -7522.0812 299.4529 857.4502 904.9277 30378.1585 -85.5056 -34.3444
ENERGY: 1200000 4.2244 9.9162 5.9074 0.0000 -10739.1213 1392.2036 0.0000 0.0000 1793.9761 -7532.8936 302.1824 -9326.8697 -7517.9875 299.9612 -684.5147 -600.4931 30644.5004 -124.1215 -71.9783
ENERGY: 1500000 4.0680 9.9814 5.8201 0.0000 -10796.3070 1418.2356 0.0000 0.0000 1827.2140 -7530.9880 307.7810 -9358.2019 -7515.1902 301.1758 -361.7831 -336.8829 30564.8036 -148.4590 -97.6293
TCL: Running FEP window  12: Lambda1 0.4499999999999996 Lambda2 0.39999999999999963 [dLambda -0.04999999999999999]
TCL: Setting parameter firsttimestep to 0
TCL: Setting parameter alchLambda to 0.4499999999999996
Info: NONBONDED TABLE R-SQUARED SPACING: 0.0625
Info: NONBONDED TABLE SIZE: 705 POINTS
TCL: Setting parameter alchLambda2 to 0.39999999999999963
Info: NONBONDED TABLE R-SQUARED SPACING: 0.0625
Info: NONBONDED TABLE SIZE: 705 POINTS
TCL: Running for 1500000 steps
ETITLE: TS BOND ANGLE DIHED IMPRP ELECT VDW BOUNDARY MISC KINETIC TOTAL TEMP POTENTIAL TOTALAVG TEMPAVG PRESSURE GPRESSURE VOLUME PRESSAVG GPRESSAVG
ENERGY: 0 4.0680 9.9814 5.8201 0.0000 -10796.3077 1418.4080 0.0000 0.0000 1826.3103 -7531.7201 307.6288 -9358.0303 -7531.7201 307.6288 -424.5336 -346.9759 30564.8036 -424.5336 -346.9759
ENERGY: 300000 2.8266 15.3796 3.7403 0.0000 -10792.0823 1393.1579 0.0000 0.0000 1765.3040 -7611.6739 297.3528 -9376.9779 -7550.5436 298.2438 -663.8959 -623.7457 30641.3529 -460.8104 -414.7679
ENERGY: 600000 5.0188 12.8862 3.5449 0.0000 -10708.9835 1367.3541 0.0000 0.0000 1704.4776 -7615.7019 287.1070 -9320.1795 -7535.0552 298.3657 -851.1178 -769.4013 30686.4459 -207.7167 -146.8956
ENERGY: 900000 4.6169 14.7166 5.2826 0.0000 -10640.1334 1406.4653 0.0000 0.0000 1807.7840 -7401.2679 304.5082 -9209.0519 -7513.9818 299.3018 -312.7308 -255.8492 30914.7425 -112.6737 -47.8345
ENERGY: 1200000 3.8036 10.5923 5.1309 0.0000 -10909.6385 1519.1586 0.0000 0.0000 1784.7768 -7586.1763 300.6328 -9370.9531 -7520.6719 299.4503 474.7396 514.1864 30183.1403 -82.7043 -17.8391
ENERGY: 1500000 2.5171 14.1955 5.2177 0.0000 -10720.6224 1377.9557 0.0000 0.0000 1812.4697 -7508.2667 305.2975 -9320.7364 -7523.5971 299.6784 -585.1475 -586.5230 30548.7888 -184.0535 -128.0577
TCL: Running FEP window  13: Lambda1 0.39999999999999963 Lambda2 0.34999999999999964 [dLambda -0.04999999999999999]
TCL: Setting parameter firsttimestep to 0
TCL: Setting parameter alchLambda to 0.39999999999999963
Info: NONBONDED TABLE R-SQUARED SPACING: 0.0625
Info: NONBONDED TABLE SIZE: 705 POINTS
TCL: Setting parameter alchLambda2 to 0.34999999999999964
Info: NONBONDED TABLE R-SQUARED SPACING: 0.0625
Info: NONBONDED TABLE SIZE: 705 POINTS
TCL: Running for 1500000 steps
ETITLE: TS BOND ANGLE DIHED IMPRP ELECT VDW BOUNDARY MISC KINETIC TOTAL TEMP POTENTIAL TOTALAVG TEMPAVG PRESSURE GPRESSURE VOLUME PRESSAVG GPRESSAVG
ENERGY: 0 2.5171 14.1955 5.2177 0.0000 -10720.6225 1378.3477 0.0000 0.0000 1811.5593 -7508.7852 305.1441 -9320.3445 -7508.7852 305.1441 -657.1019 -587.3401 30548.7888 -657.1019 -587.3401
ENERGY: 300000 3.2773 13.6214 4.7358 0.0000 -10674.7375 1418.6790 0.0000 0.0000 1739.9008 -7494.5231 293.0738 -9234.4239 -7494.1101 303.1975 -304.6985 -252.3593 30780.8428 -160.6915 -115.2139
ENERGY: 600000 5.7168 9.5690 4.6367 0.0000 -10723.9111 1467.1231 0.0000 0.0000 1767.3025 -7469.5628 297.6894 -9236.8654 -7468.9481 303.2647 43.2020 153.4715 30692.4661 -96.0079 -40.6171
ENERGY: 900000 3.1862 10.2430 3.6850 0.0000 -10732.5012 1475.2233 0.0000 0.0000 1759.5127 -7480.6510 296.3773 -9240.1637 -7479.5137 301.9450 473.2849 558.3062 30526.5982 -13.9264 46.3375
ENERGY: 1200000 6.0294 12.7291 5.6089 0.0000 -10654.0110 1380.5800 0.0000 0.0000 1778.0531 -7471.0105 299.5003 -9249.0637 -7477.0128 301.8849 -722.1484 -646.5234 31306.5348 33.1213 89.7337
ENERGY: 1500000 1.9241 9.4043 6.0151 0.0000 -10582.1487 1356.1756 0.0000 0.0000 1807.2545 -7401.3752 304.4190 -9208.6297 -7486.8714 301.3269 -582.6117 -551.0798 30702.4748 -14.4201 37.6646
TCL: Running FEP window  14: Lambda1 0.34999999999999964 Lambda2 0.29999999999999966 [dLambda -0.04999999999999999]
TCL: Setting parameter firsttimestep to 0
TCL: Setting parameter alchLambda to 0.34999999999999964
Info: NONBONDED TABLE R-SQUARED SPACING: 0.0625
Info: NONBONDED TABLE SIZE: 705 POINTS
TCL: Setting parameter alchLambda2 to 0.29999999999999966
Info: NONBONDED TABLE R-SQUARED SPACING: 0.0625
Info: NONBONDED TABLE SIZE: 705 POINTS
TCL: Running for 1500000 steps
ETITLE: TS BOND ANGLE DIHED IMPRP ELECT VDW BOUNDARY MISC KINETIC TOTAL TEMP POTENTIAL TOTALAVG TEMPAVG PRESSURE GPRESSURE VOLUME PRESSAVG GPRESSAVG
ENERGY: 0 1.9241 9.4043 6.0151 0.0000 -10582.1488 1356.2891 0.0000 0.0000 1806.4129 -7402.1033 304.2773 -9208.5162 -7402.1033 304.2773 -655.4595 -558.3956 30702.4748 -655.4595 -558.3956
ENERGY: 300000 8.0531 14.5922 6.7075 0.0000 -10688.6390 1347.2939 0.0000 0.0000 1719.7198 -7592.2724 289.6744 -9311.9922 -7519.3466 297.2820 -1246.0138 -1142.5689 30749.6298 -447.0382 -363.5444
ENERGY: 600000 3.0366 13.0565 5.4492 0.0000 -10829.2199 1432.6036 0.0000 0.0000 1764.5674 -7610.5067 297.2287 -9375.0741 -7540.9657 297.9744 -333.2144 -278.0469 30336.8198 -341.2836 -250.9832
ENERGY: 900000 3.9429 13.7962 4.6499 0.0000 -10797.5458 1491.3276 0.0000 0.0000 1764.3654 -7519.4637 297.1947 -9283.8291 -7540.9874 297.4785 461.2221 568.0632 30052.2736 -200.8196 -114.4272
ENERGY: 1200000 4.6757 12.6984 3.3295 0.0000 -10799.4900 1461.5251 0.0000 0.0000 1791.1374 -7526.1238 301.7042 -9317.2612 -7529.1007 299.1994 -162.5137 -103.6450 30760.3250 -188.7739 -106.7037
ENERGY: 1500000 3.9317 14.3497 4.5090 0.0000 -10896.7636 1468.9563 0.0000 0.0000 1751.9769 -7653.0400 295.1079 -9405.0169 -7534.8678 298.7493 -505.7669 -428.9902 30721.2500 -194.1463 -117.2635
TCL: Running FEP window  15: Lambda1 0.29999999999999966 Lambda2 0.24999999999999967 [dLambda -0.04999999999999999]
TCL: Setting parameter firsttimestep to 0
TCL: Setting parameter alchLambda to 0.29999999999999966
Info: NONBONDED TABLE R-SQUARED SPACING: 0.0625
Info: NONBONDED TABLE SIZE: 705 POINTS
TCL: Setting parameter alchLambda2 to 0.24999999999999967
Info: NONBONDED TABLE R-SQUARED SPACING: 0.0625
Info: NONBONDED TABLE SIZE: 705 POINTS
TCL: Running for 1500000 steps
ETITLE: TS BOND ANGLE DIHED IMPRP ELECT VDW BOUNDARY MISC KINETIC TOTAL TEMP POTENTIAL TOTALAVG TEMPAVG PRESSURE GPRESSURE VOLUME PRESSAVG GPRESSAVG
ENERGY: 0 3.9317 14.3497 4.5090 0.0000 -10896.7629 1468.5458 0.0000 0.0000 1751.0941 -7654.3327 294.9592 -9405.4267 -7654.3327 294.9592 -521.5495 -439.4733 30721.2500 -521.5495 -439.4733
ENERGY: 300000 4.5313 10.4799 4.2330 0.0000 -10930.5164 1525.9108 0.0000 0.0000 1782.9599 -7602.4015 300.3268 -9385.3614 -7555.0942 300.1246 235.3632 263.6670 30474.3796 39.0118 122.0649
ENERGY: 600000 4.8062 11.2917 4.4070 0.0000 -10773.8050 1453.3727 0.0000 0.0000 1785.8191 -7514.1083 300.8084 -9299.9273 -7542.5041 298.3861 -193.3386 -131.0270 30617.0332 35.8447 98.3282
ENERGY: 900000 6.5342 12.1563 3.9296 0.0000 -10823.7074 1464.9109 0.0000 0.0000 1851.1723 -7485.0039 311.8167 -9336.1763 -7540.0432 298.8984 -285.5464 -181.6269 30489.5042 -49.7430 20.3131
ENERGY: 1200000 5.1313 11.5230 4.2546 0.0000 -10843.2477 1511.0664 0.0000 0.0000 1756.9285 -7554.3438 295.9420 -9311.2724 -7532.5666 299.0535 224.7644 294.3383 30534.9718 -31.5896 36.6872
ENERGY: 1500000 3.9887 10.0344 4.2789 0.0000 -10706.3851 1411.8245 0.0000 0.0000 1760.1097 -7516.1487 296.4778 -9276.2585 -7528.3029 299.4273 -489.8568 -454.6242 30901.3974 -23.4271 38.0045
TCL: Running FEP window  16: Lambda1 0.24999999999999967 Lambda2 0.19999999999999968 [dLambda -0.04999999999999999]
TCL: Setting parameter firsttimestep to 0
TCL: Setting parameter alchLambda to 0.24999999999999967
Info: NONBONDED TABLE R-SQUARED SPACING: 0.0625
Info: NONBONDED TABLE SIZE: 705 POINTS
TCL: Setting parameter alchLambda2 to 0.19999999999999968
Info: NONBONDED TABLE R-SQUARED SPACING: 0.0625
Info: NONBONDED TABLE SIZE: 705 POINTS
TCL: Running for 1500000 steps
ETITLE: TS BOND ANGLE DIHED IMPRP ELECT VDW BOUNDARY MISC KINETIC TOTAL TEMP POTENTIAL TOTALAVG TEMPAVG PRESSURE GPRESSURE VOLUME PRESSAVG GPRESSAVG
ENERGY: 0 3.9887 10.0344 4.2789 0.0000 -10706.3858 1412.1028 0.0000 0.0000 1759.2296 -7516.7513 296.3296 -9275.9809 -7516.7513 296.3296 -550.8400 -458.4226 30901.3974 -550.8400 -458.4226
ENERGY: 300000 3.3913 7.6118 3.5318 0.0000 -10807.3585 1452.2748 0.0000 0.0000 1749.7603 -7590.7884 294.7345 -9340.5487 -7555.0056 299.5470 -135.9602 -90.1721 30811.3165 -373.7699 -339.3666
ENERGY: 600000 8.0247 14.6120 4.8452 0.0000 -10731.2437 1457.6450 0.0000 0.0000 1776.3173 -7469.7995 299.2079 -9246.1168 -7537.2481 299.8656 -49.1221 -22.0215 30933.9464 -213.5583 -162.7590
ENERGY: 900000 5.4157 14.0964 5.0590 0.0000 -10717.8426 1405.3389 0.0000 0.0000 1753.2606 -7534.6720 295.3241 -9287.9326 -7527.8463 298.5990 -396.7248 -404.4519 30462.3839 -64.9918 -23.2430
ENERGY: 1200000 2.8641 16.7040 4.5195 0.0000 -10713.1423 1404.2966 0.0000 0.0000 1752.3569 -7532.4012 295.1719 -9284.7582 -7525.9033 298.4414 -204.4738 -149.0772 30468.2830 9.1385 51.8187
ENERGY: 1500000 8.6122 14.9190 4.3627 0.0000 -10620.0247 1390.2419 0.0000 0.0000 1685.5961 -7516.2928 283.9265 -9201.8889 -7532.7160 297.4214 -673.3515 -580.0255 30980.2698 20.5685 68.6900
TCL: Running FEP window  17: Lambda1 0.19999999999999968 Lambda2 0.1499999999999997 [dLambda -0.04999999999999999]
TCL: Setting parameter firsttimestep to 0
TCL: Setting parameter alchLambda to 0.19999999999999968
Info: NONBONDED TABLE R-SQUARED SPACING: 0.0625
Info: NONBONDED TABLE SIZE: 705 POINTS
TCL: Setting parameter alchLambda2 to 0.1499999999999997
Info: NONBONDED TABLE R-SQUARED SPACING: 0.0625
Info: NONBONDED TABLE SIZE: 705 POINTS
TCL: Running for 1500000 steps
ETITLE: TS BOND ANGLE DIHED IMPRP ELECT VDW BOUNDARY MISC KINETIC TOTAL TEMP POTENTIAL TOTALAVG TEMPAVG PRESSURE GPRESSURE VOLUME PRESSAVG GPRESSAVG
ENERGY: 0 8.6122 14.9190 4.3627 0.0000 -10620.0253 1390.4369 0.0000 0.0000 1684.7018 -7516.9926 283.7759 -9201.6944 -7516.9926 283.7759 -646.7925 -580.0310 30980.2698 -646.7925 -580.0310
ENERGY: 300000 4.2137 12.9855 3.6504 0.0000 -10709.0821 1407.7020 0.0000 0.0000 1898.0551 -7382.4754 319.7137 -9280.5305 -7474.4400 303.0702 -395.8413 -329.4299 30723.4358 -329.2002 -247.9825
ENERGY: 600000 6.7778 13.9538 8.2217 0.0000 -10669.5849 1446.4300 0.0000 0.0000 1784.7207 -7409.4809 300.6234 -9194.2016 -7463.3181 302.5895 -74.7843 -38.2590 31072.3274 -17.3232 48.6271
ENERGY: 900000 5.5933 15.4764 3.7914 0.0000 -10695.7507 1387.9068 0.0000 0.0000 1793.3412 -7489.6416 302.0754 -9282.9828 -7473.1405 303.1170 -350.3581 -269.2099 30552.4642 -124.6185 -63.8322
ENERGY: 1200000 6.5480 16.1025 4.9220 0.0000 -10750.9017 1445.3994 0.0000 0.0000 1786.4280 -7491.5018 300.9109 -9277.9298 -7483.4063 302.5656 16.3482 73.5239 30415.9092 -133.9462 -75.9439
ENERGY: 1500000 6.4320 13.0746 4.3676 0.0000 -10809.2540 1464.7773 0.0000 0.0000 1808.5101 -7512.0923 304.6305 -9320.6024 -7487.3839 302.3053 -171.2440 -76.1106 30441.2847 -114.0347 -54.4142
TCL: Running FEP window  18: Lambda1 0.1499999999999997 Lambda2 0.09999999999999969 [dLambda -0.05 ]
TCL: Setting parameter firsttimestep to 0
TCL: Setting parameter alchLambda to 0.1499999999999997
Info: NONBONDED TABLE R-SQUARED SPACING: 0.0625
Info: NONBONDED TABLE SIZE: 705 POINTS
TCL: Setting parameter alchLambda2 to 0.09999999999999969
Info: NONBONDED TABLE R-SQUARED SPACING: 0.0625
Info: NONBONDED TABLE SIZE: 705 POINTS
TCL: Running for 1500000 steps
ETITLE: TS BOND ANGLE DIHED IMPRP ELECT VDW BOUNDARY MISC KINETIC TOTAL TEMP POTENTIAL TOTALAVG TEMPAVG PRESSURE GPRESSURE VOLUME PRESSAVG GPRESSAVG
ENERGY: 0 6.4320 13.0746 4.3676 0.0000 -10809.2535 1464.2544 0.0000 0.0000 1807.6047 -7513.5202 304.4780 -9321.1249 -7513.5202 304.4780 -169.0166 -83.5477 30441.2847 -169.0166 -83.5477
ENERGY: 300000 6.3279 14.0246 8.8858 0.0000 -10980.5330 1612.3422 0.0000 0.0000 1737.8798 -7601.0727 292.7334 -9338.9526 -7527.1978 300.3624 1223.1136 1271.4866 30298.5641 310.5245 373.6847
ENERGY: 600000 6.0554 5.8079 4.7472 0.0000 -10752.1748 1389.7570 0.0000 0.0000 1832.4472 -7513.3602 308.6625 -9345.8074 -7518.2277 301.8686 -560.4271 -473.5569 30048.0207 244.7433 309.9060
ENERGY: 900000 4.2062 15.5349 4.4415 0.0000 -10737.7236 1445.6534 0.0000 0.0000 1791.7036 -7476.1840 301.7996 -9267.8876 -7518.5564 301.0611 177.8577 224.1885 30491.7569 184.9864 255.6213
ENERGY: 1200000 5.3947 15.8189 6.7395 0.0000 -10640.6605 1387.4233 0.0000 0.0000 1777.5787 -7447.7054 299.4203 -9225.2841 -7516.9000 300.3432 -515.2054 -422.3085 30933.0994 124.9756 190.9175
ENERGY: 1500000 4.9226 10.4120 4.8900 0.0000 -10831.6138 1537.7350 0.0000 0.0000 1793.7890 -7479.8653 302.1508 -9273.6542 -7515.3068 300.0524 795.2338 845.6254 30057.7470 149.4141 215.6926
TCL: Running FEP window  19: Lambda1 0.09999999999999969 Lambda2 0.049999999999999684 [dLambda -0.05 ]
TCL: Setting parameter firsttimestep to 0
TCL: Setting parameter alchLambda to 0.09999999999999969
Info: NONBONDED TABLE R-SQUARED SPACING: 0.0625
Info: NONBONDED TABLE SIZE: 705 POINTS
TCL: Setting parameter alchLambda2 to 0.049999999999999684
Info: NONBONDED TABLE R-SQUARED SPACING: 0.0625
Info: NONBONDED TABLE SIZE: 705 POINTS
TCL: Running for 1500000 steps
ETITLE: TS BOND ANGLE DIHED IMPRP ELECT VDW BOUNDARY MISC KINETIC TOTAL TEMP POTENTIAL TOTALAVG TEMPAVG PRESSURE GPRESSURE VOLUME PRESSAVG GPRESSAVG
ENERGY: 0 4.9225 10.4120 4.8900 0.0000 -10831.6149 1537.1122 0.0000 0.0000 1792.8980 -7481.3801 302.0008 -9274.2782 -7481.3801 302.0008 763.6157 837.6033 30057.7470 763.6157 837.6033
ENERGY: 300000 3.2526 9.8268 4.7669 0.0000 -10740.7287 1402.6792 0.0000 0.0000 1787.8049 -7532.3984 301.1429 -9320.2032 -7533.4995 298.2976 -341.3843 -251.0450 30050.5503 159.3090 218.3348
ENERGY: 600000 5.2792 17.4398 9.8785 0.0000 -10741.9537 1396.6845 0.0000 0.0000 1786.2912 -7526.3805 300.8879 -9312.6717 -7539.2229 297.8981 -514.1837 -487.6573 30364.6374 -5.5953 38.9458
ENERGY: 900000 3.9100 15.1530 4.0753 0.0000 -10877.6533 1511.4678 0.0000 0.0000 1786.4933 -7556.5540 300.9219 -9343.0472 -7533.3415 298.2625 279.0495 387.8274 30226.2917 57.4829 114.2906
ENERGY: 1200000 6.9048 13.6746 4.6445 0.0000 -10780.0071 1418.1240 0.0000 0.0000 1781.2472 -7555.4120 300.0383 -9336.6592 -7534.9599 298.3686 -814.5567 -739.3452 30613.6676 -3.0107 56.1654
ENERGY: 1500000 3.2638 15.0181 7.6183 0.0000 -10631.9480 1366.9450 0.0000 0.0000 1782.2044 -7456.8983 300.1995 -9239.1027 -7523.3193 299.0022 -459.3635 -386.2552 30324.9952 -29.5717 30.6199
TCL: Running FEP window  20: Lambda1 0.049999999999999684 Lambda2 0.0    [dLambda -0.049999999999999684]
TCL: Setting parameter firsttimestep to 0
TCL: Setting parameter alchLambda to 0.049999999999999684
Info: NONBONDED TABLE R-SQUARED SPACING: 0.0625
Info: NONBONDED TABLE SIZE: 705 POINTS
TCL: Setting parameter alchLambda2 to 0.0
Info: NONBONDED TABLE R-SQUARED SPACING: 0.0625
Info: NONBONDED TABLE SIZE: 705 POINTS
TCL: Running for 1500000 steps
ETITLE: TS BOND ANGLE DIHED IMPRP ELECT VDW BOUNDARY MISC KINETIC TOTAL TEMP POTENTIAL TOTALAVG TEMPAVG PRESSURE GPRESSURE VOLUME PRESSAVG GPRESSAVG
ENERGY: 0 3.2638 15.0181 7.6183 0.0000 -10631.9494 1367.2453 0.0000 0.0000 1781.3600 -7457.4437 300.0573 -9238.8038 -7457.4437 300.0573 -464.7632 -386.9556 30324.9952 -464.7632 -386.9556
ENERGY: 300000 5.1889 11.2084 6.6350 0.0000 -10815.5116 1546.7616 0.0000 0.0000 1824.3326 -7421.3852 307.2957 -9245.7178 -7472.6763 301.6337 504.8573 600.9219 30920.5444 -83.8335 -23.5949
ENERGY: 600000 5.0786 9.2569 3.5256 0.0000 -10929.0291 1526.5891 0.0000 0.0000 1758.9686 -7625.6102 296.2856 -9384.5788 -7493.0143 301.3609 456.5479 537.5587 30001.4875 -58.8602 -9.0443
ENERGY: 900000 1.7844 10.7845 2.9635 0.0000 -10870.8719 1542.4426 0.0000 0.0000 1771.0631 -7541.8339 298.3228 -9312.8969 -7499.2374 301.2559 746.3022 842.5264 30017.2865 -25.4844 40.5328
ENERGY: 1200000 6.8388 12.5425 5.8467 0.0000 -10855.3981 1484.0278 0.0000 0.0000 1738.2773 -7607.8649 292.8003 -9346.1422 -7495.7187 301.2345 -89.5291 -14.2509 30391.3268 -31.4102 36.1738
ENERGY: 1500000 4.8237 8.6081 4.9858 0.0000 -10702.9566 1454.5559 0.0000 0.0000 1784.1228 -7445.8604 300.5227 -9229.9831 -7488.2712 302.1511 133.3312 197.3541 30746.3941 -84.3468 -19.0747
TCL: Exiting due to exit command.
