Info: SIMULATION PARAMETERS:
Info: TIMESTEP               2
Info: NUMBER OF STEPS        0
Info: STEPS PER CYCLE        10
Info: PERIODIC CELL BASIS 1  29.6185 0 0
Info: PERIODIC CELL BASIS 2  0 30.1461 0
Info: PERIODIC CELL BASIS 3  0 0 34.4934
Info: PERIODIC CELL CENTER   0 0 0
Info: WRAPPING WATERS AROUND PERIODIC BOUNDARIES ON OUTPUT.
Info: WRAPPING ALL CLUSTERS AROUND PERIODIC BOUNDARIES ON OUTPUT.
Info: FIRST LDB TIMESTEP     50
Info: LAST LDB TIMESTEP     -1
Info: HOM BACKGROUND SCALING 1
Info: PME BACKGROUND SCALING 1
Info: MIN ATOMS PER PATCH    40
Info: EMPTY PATCH LOAD       40 ATOMS
Info: VELOCITY FILE          mobley_2659552_equil.vel
Info: CENTER OF MASS MOVING INITIALLY? NO
Info: DIELECTRIC             1
Info: EXCLUDE                SCALED ONE-FOUR
Info: 1-4 ELECTROSTATICS SCALED BY 0.833333
Info: MODIFIED 1-4 VDW PARAMETERS WILL BE USED
Info: DCD FILENAME           mobley_2659552_prod.dcd
Info: DCD FREQUENCY          100000
Info: DCD FIRST STEP         100000
Info: DCD FILE WILL CONTAIN UNIT CELL DATA
Info: XST FILENAME           mobley_2659552_prod.xst
Info: XST FREQUENCY          100000
Info: NO VELOCITY DCD OUTPUT
Info: NO FORCE DCD OUTPUT
Info: OUTPUT FILENAME        mobley_2659552_prod
Info: BINARY OUTPUT FILES WILL BE USED
Info: RESTART FILENAME       mobley_2659552_prod.restart
Info: RESTART FREQUENCY      100000
Info: BINARY RESTART FILES WILL BE USED
Info: CUTOFF                 9
Info: PAIRLIST DISTANCE      11
Info: PAIRLIST SHRINK RATE   0.01
Info: PAIRLIST GROW RATE     0.01
Info: PAIRLIST TRIGGER       0.3
Info: PAIRLISTS PER CYCLE    2
Info: PAIRLISTS ENABLED
Info: MARGIN                 2
Info: HYDROGEN GROUP CUTOFF  2.5
Info: PATCH DIMENSION        15.5
Info: ENERGY OUTPUT STEPS    100000
Info: ENERGY EVALUATION STEPS    100000
Info: OUTPUT ENERGY PRECISION 4
Info: CROSSTERM ENERGY INCLUDED IN DIHEDRAL
Info: TIMING OUTPUT STEPS    1000000
Info: PRESSURE OUTPUT STEPS  100000
Info: ALCHEMICAL FEP ON
Info: FEP CURRENT LAMBDA VALUE     0
Info: FEP COMPARISON LAMBDA VALUE  0.05
Info: FEP INTRA-ALCHEMICAL NON-BONDED INTERACTIONS WILL BE RETAINED
Info: FEP INTRA-ALCHEMICAL BONDED INTERACTIONS WILL BE RETAINED
Info: FEP VDW SHIFTING COEFFICIENT 5
Info: FEP ELEC. ACTIVE FOR ANNIHILATED PARTICLES BETWEEN LAMBDA = 0 AND LAMBDA = 0.5
Info: FEP ELEC. ACTIVE FOR EXNIHILATED PARTICLES BETWEEN LAMBDA = 0.5 AND LAMBDA = 1
Info: FEP VDW ACTIVE FOR ANNIHILATED PARTICLES BETWEEN LAMBDA = 0 AND LAMBDA = 1
Info: FEP VDW ACTIVE FOR EXNIHILATED PARTICLES BETWEEN LAMBDA = 0 AND LAMBDA = 1
Info: FEP BOND ACTIVE FOR ANNIHILATED PARTICLES BETWEEN LAMBDA = 1 AND LAMBDA = 1
Info: FEP BOND ACTIVE FOR EXNIHILATED PARTICLES BETWEEN LAMBDA = 0 AND LAMBDA = 0
Info: LANGEVIN DYNAMICS ACTIVE
Info: LANGEVIN TEMPERATURE   300
Info: LANGEVIN USING BBK INTEGRATOR
Info: LANGEVIN DAMPING COEFFICIENT IS 1 INVERSE PS
Info: LANGEVIN DYNAMICS APPLIED TO HYDROGENS
Info: LANGEVIN PISTON PRESSURE CONTROL ACTIVE
Info:        TARGET PRESSURE IS 1.01325 BAR
Info:     OSCILLATION PERIOD IS 50 FS
Info:             DECAY TIME IS 25 FS
Info:     PISTON TEMPERATURE IS 300 K
Info:       PRESSURE CONTROL IS GROUP-BASED
Info:    INITIAL STRAIN RATE IS 0.000216093 0.000216093 0.000216093
Info:       CELL FLUCTUATION IS ISOTROPIC
Info: PARTICLE MESH EWALD (PME) ACTIVE
Info: PME TOLERANCE               1e-06
Info: PME EWALD COEFFICIENT       0.348832
Info: PME INTERPOLATION ORDER     4
Info: PME GRID DIMENSIONS         32 32 36
Info: PME MAXIMUM GRID SPACING    1
Info: PME CALCULATION WILL BE PERFORMED ON GPU
Info: FULL ELECTROSTATIC EVALUATION FREQUENCY      2
Info: USING VERLET I (r-RESPA) MTS SCHEME.
Info: C1 SPLITTING OF LONG RANGE ELECTROSTATICS
Info: PLACING ATOMS IN PATCHES BY HYDROGEN GROUPS
Info: RIGID BONDS TO HYDROGEN : ALL
Info:         ERROR TOLERANCE : 1e-08
Info:          MAX ITERATIONS : 100
Info: RIGID WATER USING SETTLE ALGORITHM
Info: RANDOM NUMBER SEED     1743815308
Info: USE HYDROGEN BONDS?    NO
Info: Using AMBER format force field!
Info: AMBER PARM FILE        mobley_2659552.prmtop
Info: COORDINATE PDB         mobley_2659552.pdb
Info: Exclusions will be read from PARM file!
Info: SCNB (VDW SCALING)     2
Info: USING ARITHMETIC MEAN TO COMBINE L-J SIGMA PARAMETERS
Info: BINARY COORDINATES     mobley_2659552_equil.coor
Info: SUMMARY OF PARAMETERS:
Info: 11 BONDS
Info: 13 ANGLES
Info:   13 HARMONIC
Info:   0 COSINE-BASED
Info: 6 DIHEDRAL
Info: 0 IMPROPER
Info: 0 CROSSTERM
Info: 0 VDW
Info: 45 VDW_PAIRS
Info: 0 NBTHOLE_PAIRS
Info: To read alchdata from file: mobley_2659552.pdb
Info: To read alchflag data from column: 5
Info: STRUCTURE SUMMARY:
Info: 2941 ATOMS
Info: 2941 BONDS
Info: 42 ANGLES
Info: 58 DIHEDRALS
Info: 0 IMPROPERS
Info: 0 CROSSTERMS
Info: 3030 EXCLUSIONS
Info: 2929 RIGID BONDS
Info: ALCH: 0 ATOMS TO DISAPPEAR IN FINAL STATE
Info: ALCH: 25 ATOMS TO APPEAR IN FINAL STATE
Info: 5894 DEGREES OF FREEDOM
Info: 984 HYDROGEN GROUPS
Info: 4 ATOMS IN LARGEST HYDROGEN GROUP
Info: 984 MIGRATION GROUPS
Info: 4 ATOMS IN LARGEST MIGRATION GROUP
Info: TOTAL MASS = 17674.8 amu
Info: TOTAL CHARGE = -0.0002001 e
Info: MASS DENSITY = 0.952975 g/cm^3
Info: ATOM DENSITY = 0.0954913 atoms/A^3
Info: ADDED 0 IMPLICIT EXCLUSIONS
Info: NONBONDED TABLE R-SQUARED SPACING: 0.0625
Info: NONBONDED TABLE SIZE: 705 POINTS
Info: REMOVING COM VELOCITY -0.23972 0.113564 -0.00784136
Info: Use 3D box decompostion in PME FFT.
Info: Updated CUDA force table with 4096 elements.
Info: Updated CUDA LJ table with 9 x 9 elements.
Info: Found 27 unique exclusion lists needing 80 bytes
TCL: Running for 1500000 steps
ETITLE: TS BOND ANGLE DIHED IMPRP ELECT VDW BOUNDARY MISC KINETIC TOTAL TEMP POTENTIAL TOTALAVG TEMPAVG PRESSURE GPRESSURE VOLUME PRESSAVG GPRESSAVG
ENERGY: 0 4.1865 9.0743 9.8214 0.0000 -10558.2211 1354.8543 0.0000 0.0000 1764.7700 -7415.5147 301.3480 -9180.2847 -7415.5147 301.3480 -1195.5905 -1112.4542 30798.6200 -1195.5905 -1112.4542
ENERGY: 300000 7.7358 8.1402 9.9616 0.0000 -10465.4072 1350.4553 0.0000 0.0000 1752.5156 -7336.5987 299.2555 -9089.1143 -7378.7056 302.5568 -760.3776 -728.2693 30135.3225 -850.1410 -803.6188
ENERGY: 600000 6.0117 10.4806 8.2180 0.0000 -10505.6126 1400.4744 0.0000 0.0000 1712.4449 -7367.9830 292.4131 -9080.4279 -7374.4145 301.1843 -203.0328 -138.4851 30364.5752 -387.1509 -345.4040
ENERGY: 900000 6.9417 6.9283 10.3824 0.0000 -10557.3119 1392.1722 0.0000 0.0000 1747.8790 -7393.0083 298.4638 -9140.8873 -7394.8366 298.9582 -402.3985 -279.2222 30237.0156 -457.3637 -403.4007
ENERGY: 1200000 3.2167 8.9191 13.1515 0.0000 -10586.7507 1393.5356 0.0000 0.0000 1772.8560 -7395.0719 302.7288 -9167.9279 -7386.8326 299.2495 -175.7260 -154.5715 29854.8550 -321.0522 -269.8631
ENERGY: 1500000 8.2556 10.7148 15.0888 0.0000 -10576.9959 1448.8748 0.0000 0.0000 1753.6970 -7340.3650 299.4572 -9094.0620 -7385.1391 299.5288 316.2597 427.6752 29787.4782 -244.6606 -184.6392
TCL: Running FEP window   2: Lambda1 0.05   Lambda2 0.1    [dLambda 0.05  ]
TCL: Setting parameter firsttimestep to 0
TCL: Setting parameter alchLambda to 0.05
Info: NONBONDED TABLE R-SQUARED SPACING: 0.0625
Info: NONBONDED TABLE SIZE: 705 POINTS
TCL: Setting parameter alchLambda2 to 0.1
Info: NONBONDED TABLE R-SQUARED SPACING: 0.0625
Info: NONBONDED TABLE SIZE: 705 POINTS
TCL: Running for 1500000 steps
ETITLE: TS BOND ANGLE DIHED IMPRP ELECT VDW BOUNDARY MISC KINETIC TOTAL TEMP POTENTIAL TOTALAVG TEMPAVG PRESSURE GPRESSURE VOLUME PRESSAVG GPRESSAVG
ENERGY: 0 8.2556 10.7148 15.0888 0.0000 -10576.9957 1452.4862 0.0000 0.0000 1752.8287 -7337.6216 299.3090 -9090.4503 -7337.6216 299.3090 342.4636 437.8947 29787.4782 342.4636 437.8947
ENERGY: 300000 4.0090 9.5944 14.7126 0.0000 -10691.6394 1488.1442 0.0000 0.0000 1755.8284 -7419.3509 299.8212 -9175.1793 -7404.5726 298.1744 165.7160 226.8700 30182.0929 97.0511 172.5526
ENERGY: 600000 9.7505 8.9309 9.0237 0.0000 -10344.8886 1291.5889 0.0000 0.0000 1741.8246 -7283.7702 297.4299 -9025.5947 -7398.1226 298.1520 -1186.2685 -1088.4745 30654.9331 -249.8999 -160.9328
ENERGY: 900000 1.9063 13.3265 6.4886 0.0000 -10636.4388 1322.4486 0.0000 0.0000 1758.1664 -7534.1024 300.2204 -9292.2688 -7398.1035 300.8118 -1097.3729 -1051.4586 29619.3731 -330.7512 -245.7758
ENERGY: 1200000 5.5463 8.2097 11.9292 0.0000 -10582.1811 1389.4826 0.0000 0.0000 1756.8044 -7410.2089 299.9878 -9167.0133 -7401.7048 300.0251 -362.3899 -319.3233 29828.4629 -204.6723 -125.7296
ENERGY: 1500000 4.6020 11.5908 8.7402 0.0000 -10641.7185 1479.7463 0.0000 0.0000 1704.0943 -7432.9449 290.9872 -9137.0392 -7399.9296 298.8507 173.3567 259.8796 30017.3861 -220.4163 -145.5713
TCL: Running FEP window   3: Lambda1 0.1    Lambda2 0.15000000000000002 [dLambda 0.05000000000000002]
TCL: Setting parameter firsttimestep to 0
TCL: Setting parameter alchLambda to 0.1
Info: NONBONDED TABLE R-SQUARED SPACING: 0.0625
Info: NONBONDED TABLE SIZE: 705 POINTS
TCL: Setting parameter alchLambda2 to 0.15000000000000002
Info: NONBONDED TABLE R-SQUARED SPACING: 0.0625
Info: NONBONDED TABLE SIZE: 705 POINTS
TCL: Running for 1500000 steps
ETITLE: TS BOND ANGLE DIHED IMPRP ELECT VDW BOUNDARY MISC KINETIC TOTAL TEMP POTENTIAL TOTALAVG TEMPAVG PRESSURE GPRESSURE VOLUME PRESSAVG GPRESSAVG
ENERGY: 0 4.6020 11.5908 8.7402 0.0000 -10641.7203 1479.8758 0.0000 0.0000 1703.2070 -7433.7046 290.8357 -9136.9115 -7433.7046 290.8357 169.1635 262.5616 30017.3861 169.1635 262.5616
ENERGY: 300000 4.8571 10.7908 11.0657 0.0000 -10619.5606 1463.3330 0.0000 0.0000 1743.4506 -7386.0635 297.7076 -9129.5140 -7420.0533 295.5276 244.5113 290.8330 30028.7742 179.4927 228.2202
ENERGY: 600000 4.3744 9.0453 8.2638 0.0000 -10599.7376 1413.7175 0.0000 0.0000 1734.2375 -7430.0990 296.1344 -9164.3366 -7417.0640 298.1747 -356.5043 -319.1802 30405.7847 -143.0042 -81.3470
ENERGY: 900000 5.3005 11.5811 12.5323 0.0000 -10638.3529 1522.6825 0.0000 0.0000 1729.1558 -7357.1008 295.2666 -9086.2566 -7411.5127 298.2920 592.5284 693.8180 30262.8750 -94.4260 -32.0514
ENERGY: 1200000 3.7759 7.4781 15.1055 0.0000 -10635.0740 1420.0518 0.0000 0.0000 1734.1320 -7454.5307 296.1164 -9188.6627 -7416.7565 298.2471 -350.2795 -289.9695 30223.7207 1.2385 57.4160
ENERGY: 1500000 4.4360 7.2777 7.7390 0.0000 -10719.6276 1469.6492 0.0000 0.0000 1807.8845 -7422.6413 308.7102 -9230.5258 -7413.0516 298.5099 337.3045 358.7165 29600.1106 48.9560 104.3290
TCL: Running FEP window   4: Lambda1 0.15000000000000002 Lambda2 0.2    [dLambda 0.04999999999999999]
TCL: Setting parameter firsttimestep to 0
TCL: Setting parameter alchLambda to 0.15000000000000002
Info: NONBONDED TABLE R-SQUARED SPACING: 0.0625
Info: NONBONDED TABLE SIZE: 705 POINTS
TCL: Setting parameter alchLambda2 to 0.2
Info: NONBONDED TABLE R-SQUARED SPACING: 0.0625
Info: NONBONDED TABLE SIZE: 705 POINTS
TCL: Running for 1500000 steps
ETITLE: TS BOND ANGLE DIHED IMPRP ELECT VDW BOUNDARY MISC KINETIC TOTAL TEMP POTENTIAL TOTALAVG TEMPAVG PRESSURE GPRESSURE VOLUME PRESSAVG GPRESSAVG
ENERGY: 0 4.4360 7.2777 7.7390 0.0000 -10719.6280 1471.3836 0.0000 0.0000 1806.9897 -7421.8021 308.5574 -9228.7918 -7421.8021 308.5574 285.1188 370.2888 29600.1106 285.1188 370.2888
ENERGY: 300000 4.5705 10.2366 8.0321 0.0000 -10700.9531 1403.0972 0.0000 0.0000 1747.3343 -7527.6824 298.3708 -9275.0168 -7417.7732 303.3085 -548.9005 -495.7816 29923.6134 -13.0147 59.1113
ENERGY: 600000 2.0660 7.5491 10.4850 0.0000 -10570.5575 1356.9303 0.0000 0.0000 1773.4221 -7420.1050 302.8254 -9193.5271 -7413.6584 302.3377 -689.9637 -580.0497 30269.1757 -125.1856 -47.7008
ENERGY: 900000 4.6736 9.4757 7.3216 0.0000 -10514.5083 1354.0212 0.0000 0.0000 1770.9556 -7368.0607 302.4043 -9139.0162 -7409.5961 302.2008 -300.3452 -310.9460 30077.3210 5.4907 70.9809
ENERGY: 1200000 3.4419 6.6989 11.3533 0.0000 -10604.0632 1453.5635 0.0000 0.0000 1791.9766 -7337.0289 305.9938 -9129.0055 -7391.4278 302.6073 496.0396 491.8746 29879.6551 68.7715 131.3997
ENERGY: 1500000 3.9496 7.7981 6.6286 0.0000 -10416.6361 1302.1526 0.0000 0.0000 1737.6776 -7358.4295 296.7218 -9096.1071 -7404.1256 301.2159 -1224.9989 -1179.3117 30658.6270 -30.6559 34.6161
TCL: Running FEP window   5: Lambda1 0.2    Lambda2 0.25   [dLambda 0.04999999999999999]
TCL: Setting parameter firsttimestep to 0
TCL: Setting parameter alchLambda to 0.2
Info: NONBONDED TABLE R-SQUARED SPACING: 0.0625
Info: NONBONDED TABLE SIZE: 705 POINTS
TCL: Setting parameter alchLambda2 to 0.25
Info: NONBONDED TABLE R-SQUARED SPACING: 0.0625
Info: NONBONDED TABLE SIZE: 705 POINTS
TCL: Running for 1500000 steps
ETITLE: TS BOND ANGLE DIHED IMPRP ELECT VDW BOUNDARY MISC KINETIC TOTAL TEMP POTENTIAL TOTALAVG TEMPAVG PRESSURE GPRESSURE VOLUME PRESSAVG GPRESSAVG
ENERGY: 0 3.9496 7.7981 6.6286 0.0000 -10416.6361 1304.1400 0.0000 0.0000 1736.7797 -7357.3402 296.5685 -9094.1198 -7357.3402 296.5685 -1238.1079 -1165.7602 30658.6270 -1238.1079 -1165.7602
ENERGY: 300000 6.0857 5.2952 7.1740 0.0000 -10716.2536 1469.5767 0.0000 0.0000 1755.3340 -7472.7878 299.7368 -9228.1218 -7368.3703 300.2331 253.7863 341.5392 29730.1033 -313.2845 -266.5695
ENERGY: 600000 9.3615 11.8745 10.3785 0.0000 -10589.4548 1367.2486 0.0000 0.0000 1712.1421 -7478.4496 292.3614 -9190.5917 -7397.3864 297.2928 -981.0894 -926.4986 30563.8352 -341.9603 -298.3812
ENERGY: 900000 5.6012 9.2150 12.1672 0.0000 -10536.5459 1381.9617 0.0000 0.0000 1752.8636 -7374.7371 299.3149 -9127.6007 -7394.8138 297.6876 -475.3972 -450.3776 30245.9657 -385.1694 -341.0784
ENERGY: 1200000 3.2105 5.8156 9.0404 0.0000 -10471.4046 1318.1704 0.0000 0.0000 1783.6013 -7351.5664 304.5636 -9135.1677 -7397.2439 299.1813 -886.9188 -905.1163 30632.2761 -385.8642 -341.9805
ENERGY: 1500000 1.9496 8.5537 11.6947 0.0000 -10580.1855 1362.9800 0.0000 0.0000 1721.0547 -7473.9528 293.8833 -9195.0075 -7391.8684 299.1971 -704.0399 -613.2434 30080.0632 -310.1736 -260.9835
TCL: Running FEP window   6: Lambda1 0.25   Lambda2 0.3    [dLambda 0.04999999999999999]
TCL: Setting parameter firsttimestep to 0
TCL: Setting parameter alchLambda to 0.25
Info: NONBONDED TABLE R-SQUARED SPACING: 0.0625
Info: NONBONDED TABLE SIZE: 705 POINTS
TCL: Setting parameter alchLambda2 to 0.3
Info: NONBONDED TABLE R-SQUARED SPACING: 0.0625
Info: NONBONDED TABLE SIZE: 705 POINTS
TCL: Running for 1500000 steps
ETITLE: TS BOND ANGLE DIHED IMPRP ELECT VDW BOUNDARY MISC KINETIC TOTAL TEMP POTENTIAL TOTALAVG TEMPAVG PRESSURE GPRESSURE VOLUME PRESSAVG GPRESSAVG
ENERGY: 0 1.9496 8.5537 11.6947 0.0000 -10580.1855 1363.0140 0.0000 0.0000 1720.1832 -7474.7902 293.7345 -9194.9735 -7474.7902 293.7345 -689.6987 -607.8683 30080.0632 -689.6987 -607.8683
ENERGY: 300000 5.8266 8.3447 7.6235 0.0000 -10499.5521 1389.2111 0.0000 0.0000 1740.6626 -7347.8837 297.2315 -9088.5463 -7410.0736 294.8622 -451.6557 -333.7875 30664.5537 37.3982 121.8094
ENERGY: 600000 2.7901 10.8557 9.5473 0.0000 -10706.0615 1502.0973 0.0000 0.0000 1731.1552 -7449.6159 295.6081 -9180.7711 -7409.1405 297.2820 564.6812 664.4547 30076.2793 73.1865 152.0166
ENERGY: 900000 2.6928 6.9436 7.3138 0.0000 -10678.8157 1458.0543 0.0000 0.0000 1779.2791 -7424.5322 303.8256 -9203.8113 -7396.2007 299.0557 295.7330 317.0218 29817.0075 200.5938 267.1590
ENERGY: 1200000 3.2231 14.5388 9.0306 0.0000 -10556.8801 1405.0319 0.0000 0.0000 1732.1034 -7392.9523 295.7700 -9125.0557 -7399.4081 299.2860 -410.2757 -336.4481 30546.2160 152.8446 221.9828
ENERGY: 1500000 4.2106 9.3454 10.9324 0.0000 -10650.5918 1462.1674 0.0000 0.0000 1720.5112 -7443.4248 293.7905 -9163.9361 -7400.7053 299.3517 130.3228 165.2944 30317.2120 106.1678 171.5128
TCL: Running FEP window   7: Lambda1 0.3    Lambda2 0.35   [dLambda 0.04999999999999999]
TCL: Setting parameter firsttimestep to 0
TCL: Setting parameter alchLambda to 0.3
Info: NONBONDED TABLE R-SQUARED SPACING: 0.0625
Info: NONBONDED TABLE SIZE: 705 POINTS
TCL: Setting parameter alchLambda2 to 0.35
Info: NONBONDED TABLE R-SQUARED SPACING: 0.0625
Info: NONBONDED TABLE SIZE: 705 POINTS
TCL: Running for 1500000 steps
ETITLE: TS BOND ANGLE DIHED IMPRP ELECT VDW BOUNDARY MISC KINETIC TOTAL TEMP POTENTIAL TOTALAVG TEMPAVG PRESSURE GPRESSURE VOLUME PRESSAVG GPRESSAVG
ENERGY: 0 4.2106 9.3454 10.9324 0.0000 -10650.5910 1461.8426 0.0000 0.0000 1719.6948 -7444.5652 293.6511 -9164.2600 -7444.5652 293.6511 93.1290 170.9006 30317.2120 93.1290 170.9006
ENERGY: 300000 3.5390 10.3092 8.2608 0.0000 -10565.5690 1427.8776 0.0000 0.0000 1814.8994 -7300.6829 309.9080 -9115.5823 -7418.2187 297.6450 390.5842 511.1522 29753.5638 602.3135 684.1504
ENERGY: 600000 5.2390 8.4392 10.4274 0.0000 -10692.8663 1476.3407 0.0000 0.0000 1821.8414 -7370.5787 311.0934 -9192.4200 -7405.7089 300.7817 521.5098 597.2087 29905.8598 579.2687 659.0665
ENERGY: 900000 2.8261 10.8660 8.8383 0.0000 -10649.6870 1448.7776 0.0000 0.0000 1725.8027 -7452.5762 294.6941 -9178.3789 -7410.0264 300.4804 68.1885 120.7014 29971.9807 414.8975 479.3124
ENERGY: 1200000 7.0008 10.2270 9.2898 0.0000 -10567.0420 1348.3299 0.0000 0.0000 1753.8464 -7438.3482 299.4827 -9192.1946 -7417.0299 300.2424 -1179.8689 -1130.0348 30488.6767 156.3223 224.6372
ENERGY: 1500000 7.6383 9.1111 10.3800 0.0000 -10545.4454 1356.7368 0.0000 0.0000 1705.1398 -7456.4394 291.1657 -9161.5792 -7417.8690 299.4157 -1048.1400 -982.1578 30433.4493 128.2618 192.4453
TCL: Running FEP window   8: Lambda1 0.35   Lambda2 0.39999999999999997 [dLambda 0.04999999999999999]
TCL: Setting parameter firsttimestep to 0
TCL: Setting parameter alchLambda to 0.35
Info: NONBONDED TABLE R-SQUARED SPACING: 0.0625
Info: NONBONDED TABLE SIZE: 705 POINTS
TCL: Setting parameter alchLambda2 to 0.39999999999999997
Info: NONBONDED TABLE R-SQUARED SPACING: 0.0625
Info: NONBONDED TABLE SIZE: 705 POINTS
TCL: Running for 1500000 steps
ETITLE: TS BOND ANGLE DIHED IMPRP ELECT VDW BOUNDARY MISC KINETIC TOTAL TEMP POTENTIAL TOTALAVG TEMPAVG PRESSURE GPRESSURE VOLUME PRESSAVG GPRESSAVG
ENERGY: 0 7.6383 9.1111 10.3800 0.0000 -10545.4435 1357.2383 0.0000 0.0000 1704.2921 -7456.7837 291.0210 -9161.0758 -7456.7837 291.0210 -1042.9538 -970.0842 30433.4493 -1042.9538 -970.0842
ENERGY: 300000 4.7707 6.5925 6.2902 0.0000 -10674.6757 1437.2600 0.0000 0.0000 1744.8846 -7474.8777 297.9525 -9219.7623 -7454.8432 297.0081 -132.1345 -51.4752 29804.7453 -296.1186 -219.2078
ENERGY: 600000 6.5695 7.7806 7.2510 0.0000 -10581.1495 1397.5370 0.0000 0.0000 1734.3519 -7427.6594 296.1539 -9162.0114 -7445.2980 297.9656 -279.5607 -241.1313 30159.3341 -231.3345 -153.9237
ENERGY: 900000 3.9724 11.9907 8.0745 0.0000 -10583.9437 1419.6997 0.0000 0.0000 1748.6613 -7391.5451 298.5973 -9140.2063 -7425.2628 298.9440 127.3751 160.1755 29760.2704 1.4887 73.1617
ENERGY: 1200000 3.0711 4.8272 9.0778 0.0000 -10587.7488 1393.6601 0.0000 0.0000 1780.0535 -7397.0590 303.9578 -9177.1126 -7434.7548 298.8797 -163.1756 -90.0717 29991.8052 9.4260 73.2031
ENERGY: 1500000 5.4019 10.7330 6.0523 0.0000 -10628.7052 1424.2486 0.0000 0.0000 1758.0423 -7424.2270 300.1992 -9182.2693 -7432.7507 299.1462 -242.8619 -148.3493 30317.9980 -3.9792 65.8083
TCL: Running FEP window   9: Lambda1 0.39999999999999997 Lambda2 0.44999999999999996 [dLambda 0.04999999999999999]
TCL: Setting parameter firsttimestep to 0
TCL: Setting parameter alchLambda to 0.39999999999999997
Info: NONBONDED TABLE R-SQUARED SPACING: 0.0625
Info: NONBONDED TABLE SIZE: 705 POINTS
TCL: Setting parameter alchLambda2 to 0.44999999999999996
Info: NONBONDED TABLE R-SQUARED SPACING: 0.0625
Info: NONBONDED TABLE SIZE: 705 POINTS
TCL: Running for 1500000 steps
ETITLE: TS BOND ANGLE DIHED IMPRP ELECT VDW BOUNDARY MISC KINETIC TOTAL TEMP POTENTIAL TOTALAVG TEMPAVG PRESSURE GPRESSURE VOLUME PRESSAVG GPRESSAVG
ENERGY: 0 5.4019 10.7330 6.0523 0.0000 -10628.7033 1424.2018 0.0000 0.0000 1757.1615 -7425.1528 300.0488 -9182.3143 -7425.1528 300.0488 -223.3393 -138.9674 30317.9980 -223.3393 -138.9674
ENERGY: 300000 9.5194 5.2567 10.5926 0.0000 -10539.8920 1360.7596 0.0000 0.0000 1743.5940 -7410.1698 297.7321 -9153.7637 -7410.6772 299.9078 -911.3160 -887.4106 30380.5152 -100.5200 -48.5593
ENERGY: 600000 5.8186 5.7215 7.6196 0.0000 -10620.3877 1404.8836 0.0000 0.0000 1753.6658 -7442.6785 299.4519 -9196.3444 -7419.2909 298.1419 -327.1024 -228.3482 30001.9338 -133.8006 -72.9766
ENERGY: 900000 1.1529 13.2486 10.0990 0.0000 -10537.8110 1385.3735 0.0000 0.0000 1773.9031 -7354.0340 302.9076 -9127.9371 -7417.0895 300.3511 -230.4212 -188.3314 30239.0857 -93.8070 -44.2264
ENERGY: 1200000 3.8543 9.8497 10.2458 0.0000 -10723.1740 1475.6206 0.0000 0.0000 1770.8966 -7452.7071 302.3942 -9223.6036 -7429.0638 299.5676 158.7454 159.7714 30252.0702 -235.6318 -188.1221
ENERGY: 1500000 4.3290 6.0527 6.3558 0.0000 -10561.9891 1394.5502 0.0000 0.0000 1782.8223 -7367.8792 304.4306 -9150.7014 -7422.6756 299.9734 -150.9646 -108.4525 30136.3213 -258.4192 -212.1611
TCL: Running FEP window  10: Lambda1 0.44999999999999996 Lambda2 0.49999999999999994 [dLambda 0.04999999999999999]
TCL: Setting parameter firsttimestep to 0
TCL: Setting parameter alchLambda to 0.44999999999999996
Info: NONBONDED TABLE R-SQUARED SPACING: 0.0625
Info: NONBONDED TABLE SIZE: 705 POINTS
TCL: Setting parameter alchLambda2 to 0.49999999999999994
Info: NONBONDED TABLE R-SQUARED SPACING: 0.0625
Info: NONBONDED TABLE SIZE: 705 POINTS
TCL: Running for 1500000 steps
ETITLE: TS BOND ANGLE DIHED IMPRP ELECT VDW BOUNDARY MISC KINETIC TOTAL TEMP POTENTIAL TOTALAVG TEMPAVG PRESSURE GPRESSURE VOLUME PRESSAVG GPRESSAVG
ENERGY: 0 4.3290 6.0527 6.3558 0.0000 -10561.9867 1394.7305 0.0000 0.0000 1781.9903 -7368.5284 304.2885 -9150.5187 -7368.5284 304.2885 -179.7695 -99.0656 30136.3213 -179.7695 -99.0656
ENERGY: 300000 7.2691 7.1388 11.5971 0.0000 -10715.0865 1485.5632 0.0000 0.0000 1812.9378 -7390.5804 309.5731 -9203.5182 -7372.2369 302.6903 367.7473 414.3833 30101.1820 -6.8249 61.5792
ENERGY: 600000 3.1703 8.0277 13.6327 0.0000 -10676.7922 1442.6552 0.0000 0.0000 1771.8055 -7437.5008 302.5494 -9209.3063 -7389.9912 301.3137 -379.9539 -303.2815 30585.5779 -181.2030 -125.4094
ENERGY: 900000 5.0539 13.2923 7.3686 0.0000 -10623.8419 1411.8558 0.0000 0.0000 1732.2171 -7454.0543 295.7894 -9186.2714 -7398.4387 300.7371 -647.1865 -578.6595 30499.8877 -273.0831 -208.7654
ENERGY: 1200000 0.8580 10.8544 9.4133 0.0000 -10745.1297 1524.6279 0.0000 0.0000 1679.9321 -7519.4440 286.8613 -9199.3761 -7404.8432 299.7791 641.3337 772.8491 29948.8493 -269.0276 -197.6406
ENERGY: 1500000 3.7383 9.2425 9.0626 0.0000 -10736.9270 1504.0088 0.0000 0.0000 1776.2509 -7434.6238 303.3085 -9210.8748 -7413.1789 300.2806 350.0346 411.0765 30370.9907 -228.9351 -164.5850
TCL: Running FEP window  11: Lambda1 0.49999999999999994 Lambda2 0.5499999999999999 [dLambda 0.04999999999999999]
TCL: Setting parameter firsttimestep to 0
TCL: Setting parameter alchLambda to 0.49999999999999994
Info: NONBONDED TABLE R-SQUARED SPACING: 0.0625
Info: NONBONDED TABLE SIZE: 705 POINTS
TCL: Setting parameter alchLambda2 to 0.5499999999999999
Info: NONBONDED TABLE R-SQUARED SPACING: 0.0625
Info: NONBONDED TABLE SIZE: 705 POINTS
TCL: Running for 1500000 steps
ETITLE: TS BOND ANGLE DIHED IMPRP ELECT VDW BOUNDARY MISC KINETIC TOTAL TEMP POTENTIAL TOTALAVG TEMPAVG PRESSURE GPRESSURE VOLUME PRESSAVG GPRESSAVG
ENERGY: 0 3.7383 9.2425 9.0626 0.0000 -10736.9259 1503.8753 0.0000 0.0000 1775.3408 -7435.6664 303.1531 -9211.0072 -7435.6664 303.1531 347.8539 418.7077 30370.9907 347.8539 418.7077
ENERGY: 300000 6.0283 8.4865 5.5782 0.0000 -10602.3826 1385.6022 0.0000 0.0000 1764.3982 -7432.2891 301.2845 -9196.6873 -7437.4064 300.7428 -364.1216 -310.5743 29854.0339 -91.8797 -31.5142
ENERGY: 600000 3.0479 6.7980 8.1214 0.0000 -10803.6040 1551.2848 0.0000 0.0000 1725.8577 -7508.4942 294.7035 -9234.3519 -7447.6590 299.4504 626.1461 697.7440 30355.4308 219.1826 297.8332
ENERGY: 900000 2.9443 11.5435 11.1582 0.0000 -10598.5208 1358.5131 0.0000 0.0000 1771.7688 -7442.5929 302.5431 -9214.3617 -7440.9382 299.6550 -876.0752 -803.7740 30473.6783 99.0352 175.0656
ENERGY: 1200000 6.5440 8.6894 7.7892 0.0000 -10482.6903 1336.9064 0.0000 0.0000 1792.2631 -7330.4982 306.0427 -9122.7613 -7415.0265 301.2405 -578.3437 -552.8306 30105.6452 26.0289 98.5950
ENERGY: 1500000 3.9343 8.3531 12.2525 0.0000 -10494.3365 1354.0372 0.0000 0.0000 1728.6785 -7387.0809 295.1851 -9115.7593 -7407.4357 300.5927 -566.1711 -510.0903 30502.9120 -100.4406 -28.7457
TCL: Running FEP window  12: Lambda1 0.5499999999999999 Lambda2 0.6    [dLambda 0.050000000000000044]
TCL: Setting parameter firsttimestep to 0
TCL: Setting parameter alchLambda to 0.5499999999999999
Info: NONBONDED TABLE R-SQUARED SPACING: 0.0625
Info: NONBONDED TABLE SIZE: 705 POINTS
TCL: Setting parameter alchLambda2 to 0.6
Info: NONBONDED TABLE R-SQUARED SPACING: 0.0625
Info: NONBONDED TABLE SIZE: 705 POINTS
TCL: Running for 1500000 steps
ETITLE: TS BOND ANGLE DIHED IMPRP ELECT VDW BOUNDARY MISC KINETIC TOTAL TEMP POTENTIAL TOTALAVG TEMPAVG PRESSURE GPRESSURE VOLUME PRESSAVG GPRESSAVG
ENERGY: 0 3.9343 8.3531 12.2525 0.0000 -10494.7863 1353.8974 0.0000 0.0000 1727.8059 -7388.5431 295.0361 -9116.3490 -7388.5431 295.0361 -593.5358 -504.3237 30502.9120 -593.5358 -504.3237
ENERGY: 300000 3.9874 10.2712 9.8465 0.0000 -10531.9329 1382.5334 0.0000 0.0000 1791.4773 -7333.8171 305.9085 -9125.2944 -7353.2643 298.9028 -252.8361 -207.7429 30443.4254 -58.3119 -12.7720
ENERGY: 600000 3.8054 4.9023 7.3729 0.0000 -10719.8919 1500.0717 0.0000 0.0000 1791.5495 -7412.1902 305.9208 -9203.7397 -7391.3026 300.6736 410.7040 483.1083 30182.6169 19.5507 72.7392
ENERGY: 900000 6.4115 9.4010 6.2109 0.0000 -10632.9039 1370.4744 0.0000 0.0000 1765.2718 -7475.1344 301.4337 -9240.4061 -7407.5374 300.1156 -774.5102 -780.2631 30147.5795 -98.4166 -59.4687
ENERGY: 1200000 4.4088 8.6820 8.0337 0.0000 -10571.7310 1402.2057 0.0000 0.0000 1811.4731 -7336.9278 309.3229 -9148.4008 -7407.8373 299.6952 -475.7640 -414.9646 30674.2106 -135.1146 -96.3483
ENERGY: 1500000 2.8973 5.2004 11.6232 0.0000 -10464.0038 1378.3813 0.0000 0.0000 1754.8241 -7311.0775 299.6497 -9065.9016 -7403.7104 299.2826 -297.9242 -199.8037 30587.7491 -196.8815 -150.4608
TCL: Running FEP window  13: Lambda1 0.6    Lambda2 0.65   [dLambda 0.050000000000000044]
TCL: Setting parameter firsttimestep to 0
TCL: Setting parameter alchLambda to 0.6
Info: NONBONDED TABLE R-SQUARED SPACING: 0.0625
Info: NONBONDED TABLE SIZE: 705 POINTS
TCL: Setting parameter alchLambda2 to 0.65
Info: NONBONDED TABLE R-SQUARED SPACING: 0.0625
Info: NONBONDED TABLE SIZE: 705 POINTS
TCL: Running for 1500000 steps
ETITLE: TS BOND ANGLE DIHED IMPRP ELECT VDW BOUNDARY MISC KINETIC TOTAL TEMP POTENTIAL TOTALAVG TEMPAVG PRESSURE GPRESSURE VOLUME PRESSAVG GPRESSAVG
ENERGY: 0 2.8973 5.2003 11.6232 0.0000 -10466.4386 1379.1909 0.0000 0.0000 1753.9530 -7313.5739 299.5010 -9067.5269 -7313.5739 299.5010 -278.9819 -187.2180 30587.7491 -278.9819 -187.2180
ENERGY: 300000 2.2816 8.4684 9.6756 0.0000 -10558.0988 1384.1171 0.0000 0.0000 1738.2973 -7415.2587 296.8276 -9153.5560 -7361.5950 296.5093 -118.8043 -36.8591 29679.6085 -399.8107 -332.9982
ENERGY: 600000 4.3542 6.6265 8.4539 0.0000 -10664.8226 1428.8176 0.0000 0.0000 1743.8954 -7472.6749 297.7835 -9216.5702 -7382.6296 298.2610 -187.7881 -138.1034 30166.0964 -191.1453 -126.3429
ENERGY: 900000 6.8278 7.1097 11.2921 0.0000 -10599.0890 1355.6567 0.0000 0.0000 1772.6517 -7445.5510 302.6939 -9218.2027 -7397.2349 298.7745 -814.0286 -746.8577 30108.4766 -212.9202 -149.0497
ENERGY: 1200000 3.6969 6.8621 10.0053 0.0000 -10643.3689 1511.5281 0.0000 0.0000 1743.3894 -7367.8871 297.6971 -9111.2765 -7404.9710 298.0903 632.8096 645.3383 30570.2225 -221.2390 -163.8979
ENERGY: 1500000 3.9207 11.1061 8.4963 0.0000 -10606.3253 1433.0894 0.0000 0.0000 1758.5000 -7391.2128 300.2774 -9149.7128 -7411.4027 298.3500 170.0984 249.4925 30244.0557 -171.4426 -121.7513
TCL: Running FEP window  14: Lambda1 0.65   Lambda2 0.7000000000000001 [dLambda 0.050000000000000044]
TCL: Setting parameter firsttimestep to 0
TCL: Setting parameter alchLambda to 0.65
Info: NONBONDED TABLE R-SQUARED SPACING: 0.0625
Info: NONBONDED TABLE SIZE: 705 POINTS
TCL: Setting parameter alchLambda2 to 0.7000000000000001
Info: NONBONDED TABLE R-SQUARED SPACING: 0.0625
Info: NONBONDED TABLE SIZE: 705 POINTS
TCL: Running for 1500000 steps
ETITLE: TS BOND ANGLE DIHED IMPRP ELECT VDW BOUNDARY MISC KINETIC TOTAL TEMP POTENTIAL TOTALAVG TEMPAVG PRESSURE GPRESSURE VOLUME PRESSAVG GPRESSAVG
ENERGY: 0 3.9207 11.1061 8.4963 0.0000 -10607.1037 1432.6377 0.0000 0.0000 1757.6321 -7393.3108 300.1292 -9150.9429 -7393.3108 300.1292 163.1937 254.9724 30244.0557 163.1937 254.9724
ENERGY: 300000 3.6054 9.3954 6.6512 0.0000 -10738.1216 1495.8333 0.0000 0.0000 1792.0703 -7430.5662 306.0098 -9222.6364 -7417.1684 299.2306 291.5393 372.7895 30200.1179 20.6617 109.3993
ENERGY: 600000 2.9857 7.3363 11.5765 0.0000 -10612.7335 1430.2347 0.0000 0.0000 1778.9279 -7381.6724 303.7656 -9160.6003 -7414.1657 299.6436 -92.2864 -30.0796 30447.4333 145.6316 222.6676
ENERGY: 900000 2.6440 10.7224 8.2068 0.0000 -10506.8879 1346.7714 0.0000 0.0000 1769.5513 -7368.9919 302.1645 -9138.5432 -7407.7500 299.5752 -445.0774 -479.6628 30306.3101 87.1396 151.0650
ENERGY: 1200000 4.8753 14.3715 8.4174 0.0000 -10607.5344 1496.0712 0.0000 0.0000 1814.2541 -7269.5450 309.7978 -9083.7990 -7397.3647 299.9276 1030.6107 1084.9275 29780.9004 55.5599 113.0416
ENERGY: 1500000 5.0987 8.2042 10.6021 0.0000 -10561.4144 1430.5301 0.0000 0.0000 1768.9117 -7338.0675 302.0553 -9106.9793 -7392.2141 299.7844 127.7536 243.2694 30035.7317 48.3192 115.9655
TCL: Running FEP window  15: Lambda1 0.7000000000000001 Lambda2 0.7500000000000001 [dLambda 0.050000000000000044]
TCL: Setting parameter firsttimestep to 0
TCL: Setting parameter alchLambda to 0.7000000000000001
Info: NONBONDED TABLE R-SQUARED SPACING: 0.0625
Info: NONBONDED TABLE SIZE: 705 POINTS
TCL: Setting parameter alchLambda2 to 0.7500000000000001
Info: NONBONDED TABLE R-SQUARED SPACING: 0.0625
Info: NONBONDED TABLE SIZE: 705 POINTS
TCL: Running for 1500000 steps
ETITLE: TS BOND ANGLE DIHED IMPRP ELECT VDW BOUNDARY MISC KINETIC TOTAL TEMP POTENTIAL TOTALAVG TEMPAVG PRESSURE GPRESSURE VOLUME PRESSAVG GPRESSAVG
ENERGY: 0 5.0987 8.2042 10.6021 0.0000 -10561.8614 1430.7401 0.0000 0.0000 1768.0229 -7339.1934 301.9035 -9107.2163 -7339.1934 301.9035 161.9339 256.9514 30035.7317 161.9339 256.9514
ENERGY: 300000 2.5998 7.6766 12.1902 0.0000 -10614.1453 1428.6601 0.0000 0.0000 1756.4224 -7406.5962 299.9226 -9163.0186 -7375.9656 302.9575 253.9764 331.5067 30078.4222 -177.4432 -110.1907
ENERGY: 600000 5.6410 7.1376 6.2841 0.0000 -10704.4129 1484.1246 0.0000 0.0000 1810.9595 -7390.2661 309.2353 -9201.2256 -7372.1359 303.6823 344.7548 342.3536 30100.7545 13.1935 73.9047
ENERGY: 900000 10.7632 7.0568 10.9027 0.0000 -10616.8759 1428.3084 0.0000 0.0000 1759.5648 -7400.2800 300.4592 -9159.8448 -7369.6947 302.6829 -26.1145 -8.4408 29870.2168 -5.9256 47.1916
ENERGY: 1200000 1.9828 9.5983 7.5513 0.0000 -10657.1902 1487.5932 0.0000 0.0000 1761.6686 -7388.7959 300.8185 -9150.4645 -7365.8590 302.2338 530.3358 640.6173 30034.1184 35.8541 94.4232
ENERGY: 1500000 3.4737 14.6017 5.3560 0.0000 -10518.0315 1363.0699 0.0000 0.0000 1725.6607 -7405.8695 294.6698 -9131.5302 -7367.6902 302.1110 -681.1512 -570.2443 30478.2480 -58.6127 -0.1893
TCL: Running FEP window  16: Lambda1 0.7500000000000001 Lambda2 0.8000000000000002 [dLambda 0.050000000000000044]
TCL: Setting parameter firsttimestep to 0
TCL: Setting parameter alchLambda to 0.7500000000000001
Info: NONBONDED TABLE R-SQUARED SPACING: 0.0625
Info: NONBONDED TABLE SIZE: 705 POINTS
TCL: Setting parameter alchLambda2 to 0.8000000000000002
Info: NONBONDED TABLE R-SQUARED SPACING: 0.0625
Info: NONBONDED TABLE SIZE: 705 POINTS
TCL: Running for 1500000 steps
ETITLE: TS BOND ANGLE DIHED IMPRP ELECT VDW BOUNDARY MISC KINETIC TOTAL TEMP POTENTIAL TOTALAVG TEMPAVG PRESSURE GPRESSURE VOLUME PRESSAVG GPRESSAVG
ENERGY: 0 3.4737 14.6017 5.3560 0.0000 -10519.5977 1363.1180 0.0000 0.0000 1724.7289 -7408.3194 294.5107 -9133.0483 -7408.3194 294.5107 -645.1542 -557.4513 30478.2480 -645.1542 -557.4513
ENERGY: 300000 3.0990 11.3821 12.3145 0.0000 -10697.8397 1447.3373 0.0000 0.0000 1761.2812 -7462.4256 300.7523 -9223.7068 -7439.6073 300.4795 73.2123 181.1710 29796.0590 -267.4061 -156.7419
ENERGY: 600000 2.7781 8.6810 8.0612 0.0000 -10617.0042 1415.8921 0.0000 0.0000 1788.1850 -7393.4068 305.3463 -9181.5918 -7423.8437 300.7007 63.8617 99.3192 30083.7330 -230.0090 -141.0440
ENERGY: 900000 6.2260 9.2557 8.9349 0.0000 -10629.3544 1454.5598 0.0000 0.0000 1738.7530 -7411.6249 296.9054 -9150.3779 -7421.0626 300.0242 94.6955 195.8563 30139.8367 -225.2426 -134.7849
ENERGY: 1200000 5.3934 7.8674 10.6903 0.0000 -10714.7151 1498.2715 0.0000 0.0000 1831.1536 -7361.3390 312.6835 -9192.4926 -7419.8636 301.6039 704.3530 793.2078 29691.9811 -120.9111 -34.9179
ENERGY: 1500000 2.8665 10.7092 7.8118 0.0000 -10595.7700 1454.1274 0.0000 0.0000 1743.6543 -7376.6009 297.7424 -9120.2552 -7416.1445 301.2777 55.6841 75.1956 30767.9597 -133.7484 -57.4221
TCL: Running FEP window  17: Lambda1 0.8000000000000002 Lambda2 0.8500000000000002 [dLambda 0.050000000000000044]
TCL: Setting parameter firsttimestep to 0
TCL: Setting parameter alchLambda to 0.8000000000000002
Info: NONBONDED TABLE R-SQUARED SPACING: 0.0625
Info: NONBONDED TABLE SIZE: 705 POINTS
TCL: Setting parameter alchLambda2 to 0.8500000000000002
Info: NONBONDED TABLE R-SQUARED SPACING: 0.0625
Info: NONBONDED TABLE SIZE: 705 POINTS
TCL: Running for 1500000 steps
ETITLE: TS BOND ANGLE DIHED IMPRP ELECT VDW BOUNDARY MISC KINETIC TOTAL TEMP POTENTIAL TOTALAVG TEMPAVG PRESSURE GPRESSURE VOLUME PRESSAVG GPRESSAVG
ENERGY: 0 2.8665 10.7092 7.8118 0.0000 -10595.6766 1454.4070 0.0000 0.0000 1742.7657 -7377.1165 297.5906 -9119.8821 -7377.1165 297.5906 22.2402 94.1587 30767.9597 22.2402 94.1587
ENERGY: 300000 4.4000 4.7754 8.5278 0.0000 -10604.7450 1398.5138 0.0000 0.0000 1857.6684 -7330.8597 317.2111 -9188.5280 -7393.8250 305.4460 -231.5957 -205.8742 30321.9297 -212.1121 -142.4234
ENERGY: 600000 5.2045 12.4253 5.7736 0.0000 -10633.0486 1420.1306 0.0000 0.0000 1721.2573 -7468.2572 293.9179 -9189.5145 -7437.5363 302.5452 -214.0125 -151.7335 30018.5246 -81.8815 -25.6921
ENERGY: 900000 4.9084 9.0428 6.9834 0.0000 -10628.6083 1380.1104 0.0000 0.0000 1736.4452 -7491.1183 296.5114 -9227.5634 -7434.5090 301.9790 -798.6574 -756.4179 30586.0960 -122.8611 -74.1212
ENERGY: 1200000 2.4531 7.7641 10.7625 0.0000 -10737.3573 1523.4297 0.0000 0.0000 1818.6642 -7374.2837 310.5509 -9192.9479 -7426.3273 302.2619 776.8860 803.6096 30198.9159 -90.8937 -34.5192
ENERGY: 1500000 2.0130 10.1255 9.2893 0.0000 -10796.7375 1468.3792 0.0000 0.0000 1709.4876 -7597.4429 291.9081 -9306.9305 -7435.2578 301.3691 10.7182 39.7548 30126.0248 -16.4960 37.7454
TCL: Running FEP window  18: Lambda1 0.8500000000000002 Lambda2 0.9000000000000002 [dLambda 0.050000000000000044]
TCL: Setting parameter firsttimestep to 0
TCL: Setting parameter alchLambda to 0.8500000000000002
Info: NONBONDED TABLE R-SQUARED SPACING: 0.0625
Info: NONBONDED TABLE SIZE: 705 POINTS
TCL: Setting parameter alchLambda2 to 0.9000000000000002
Info: NONBONDED TABLE R-SQUARED SPACING: 0.0625
Info: NONBONDED TABLE SIZE: 705 POINTS
TCL: Running for 1500000 steps
ETITLE: TS BOND ANGLE DIHED IMPRP ELECT VDW BOUNDARY MISC KINETIC TOTAL TEMP POTENTIAL TOTALAVG TEMPAVG PRESSURE GPRESSURE VOLUME PRESSAVG GPRESSAVG
ENERGY: 0 2.0130 10.1255 9.2893 0.0000 -10798.5565 1469.4129 0.0000 0.0000 1708.6055 -7599.1102 291.7575 -9307.7158 -7599.1102 291.7575 -12.9832 66.0269 30126.0248 -12.9832 66.0269
ENERGY: 300000 4.5429 7.6785 12.3176 0.0000 -10728.9754 1442.2012 0.0000 0.0000 1695.4057 -7566.8295 289.5036 -9262.2352 -7543.5923 292.8775 -140.1364 -68.0832 29992.8513 -272.9060 -193.5577
ENERGY: 600000 5.9553 14.4970 7.8017 0.0000 -10569.6395 1396.5742 0.0000 0.0000 1770.3787 -7374.4325 302.3058 -9144.8113 -7486.3931 297.2759 -23.0392 79.4565 30228.1439 -12.5569 64.9787
ENERGY: 900000 1.9677 10.0732 10.8082 0.0000 -10623.8176 1436.2115 0.0000 0.0000 1765.9359 -7398.8212 301.5471 -9164.7571 -7456.0718 297.8657 230.8471 269.2030 30078.0258 9.2583 79.9528
ENERGY: 1200000 5.5920 5.1573 10.2149 0.0000 -10547.2867 1346.6516 0.0000 0.0000 1771.0467 -7408.6242 302.4198 -9179.6708 -7455.0330 297.8833 -461.1218 -451.2471 30333.6207 -102.4016 -41.3577
ENERGY: 1500000 4.7241 10.6449 8.9979 0.0000 -10689.9679 1468.5818 0.0000 0.0000 1769.4563 -7427.5629 302.1483 -9197.0192 -7457.4423 298.7340 14.4018 69.9971 30466.9000 -35.4286 31.3318
TCL: Running FEP window  19: Lambda1 0.9000000000000002 Lambda2 0.9500000000000003 [dLambda 0.050000000000000044]
TCL: Setting parameter firsttimestep to 0
TCL: Setting parameter alchLambda to 0.9000000000000002
Info: NONBONDED TABLE R-SQUARED SPACING: 0.0625
Info: NONBONDED TABLE SIZE: 705 POINTS
TCL: Setting parameter alchLambda2 to 0.9500000000000003
Info: NONBONDED TABLE R-SQUARED SPACING: 0.0625
Info: NONBONDED TABLE SIZE: 705 POINTS
TCL: Running for 1500000 steps
ETITLE: TS BOND ANGLE DIHED IMPRP ELECT VDW BOUNDARY MISC KINETIC TOTAL TEMP POTENTIAL TOTALAVG TEMPAVG PRESSURE GPRESSURE VOLUME PRESSAVG GPRESSAVG
ENERGY: 0 4.7241 10.6449 8.9979 0.0000 -10692.4360 1469.4540 0.0000 0.0000 1768.5862 -7430.0290 301.9997 -9198.6151 -7430.0290 301.9997 16.8644 89.3326 30466.9000 16.8644 89.3326
ENERGY: 300000 3.2643 5.8776 8.7819 0.0000 -10673.6234 1490.6507 0.0000 0.0000 1758.2958 -7406.7531 300.2425 -9165.0489 -7415.0707 301.6231 797.7148 832.8197 29989.9514 -21.9114 67.8767
ENERGY: 600000 7.2519 12.5865 11.1080 0.0000 -10694.0332 1476.9506 0.0000 0.0000 1796.0199 -7390.1163 306.6842 -9186.1362 -7407.2715 301.5860 534.2617 545.2122 29799.2541 -20.3533 45.4911
ENERGY: 900000 3.3836 10.5749 9.2477 0.0000 -10566.3094 1362.6868 0.0000 0.0000 1757.4107 -7423.0056 300.0914 -9180.4163 -7413.1290 301.6158 -440.0327 -376.0367 30149.8096 -107.9500 -48.8021
ENERGY: 1200000 6.3993 11.7068 11.8327 0.0000 -10658.1121 1454.6882 0.0000 0.0000 1750.2212 -7423.2640 298.8637 -9173.4852 -7416.1049 301.3997 271.2777 307.1319 30131.0769 -27.8580 31.3477
ENERGY: 1500000 2.3462 9.1449 12.3461 0.0000 -10517.1853 1309.8114 0.0000 0.0000 1709.3365 -7474.2001 291.8823 -9183.5367 -7416.8951 300.9676 -826.3389 -758.0852 30033.9019 -34.9376 32.8847
TCL: Running FEP window  20: Lambda1 0.9500000000000003 Lambda2 1.0    [dLambda 0.04999999999999971]
TCL: Setting parameter firsttimestep to 0
TCL: Setting parameter alchLambda to 0.9500000000000003
Info: NONBONDED TABLE R-SQUARED SPACING: 0.0625
Info: NONBONDED TABLE SIZE: 705 POINTS
TCL: Setting parameter alchLambda2 to 1.0
Info: NONBONDED TABLE R-SQUARED SPACING: 0.0625
Info: NONBONDED TABLE SIZE: 705 POINTS
TCL: Running for 1500000 steps
ETITLE: TS BOND ANGLE DIHED IMPRP ELECT VDW BOUNDARY MISC KINETIC TOTAL TEMP POTENTIAL TOTALAVG TEMPAVG PRESSURE GPRESSURE VOLUME PRESSAVG GPRESSAVG
ENERGY: 0 2.3462 9.1449 12.3461 0.0000 -10519.6899 1312.6266 0.0000 0.0000 1708.4490 -7474.7771 291.7308 -9183.2262 -7474.7771 291.7308 -800.0294 -708.9628 30033.9019 -800.0294 -708.9628
ENERGY: 300000 4.5218 6.3874 9.4015 0.0000 -10757.7455 1514.6379 0.0000 0.0000 1698.8009 -7523.9961 290.0833 -9222.7970 -7457.1718 294.0149 607.5303 681.8857 30165.3060 27.1224 102.6364
ENERGY: 600000 8.4966 8.3916 9.9115 0.0000 -10563.2078 1364.9234 0.0000 0.0000 1786.4219 -7385.0627 305.0453 -9171.4846 -7438.2984 296.9399 -647.7224 -603.6615 30244.8819 -97.0517 -23.5481
ENERGY: 900000 3.7939 9.2363 8.9027 0.0000 -10659.6321 1385.7856 0.0000 0.0000 1749.6076 -7502.3062 298.7589 -9251.9137 -7448.2582 297.9043 -541.8789 -417.2883 30218.2348 -108.4279 -37.7439
ENERGY: 1200000 2.0589 11.8316 6.5697 0.0000 -10644.1772 1430.2451 0.0000 0.0000 1787.1436 -7406.3284 305.1685 -9193.4720 -7430.8486 299.8029 199.2964 256.5257 30103.7021 -11.7442 59.1686
ENERGY: 1500000 1.5589 12.5559 9.2841 0.0000 -10653.4195 1459.3415 0.0000 0.0000 1698.1890 -7472.4900 289.9788 -9170.6790 -7433.4107 299.7965 34.4115 60.9138 30661.6144 -61.3989 6.0660
TCL: Exiting due to exit command.
