Info: SIMULATION PARAMETERS:
Info: TIMESTEP               2
Info: NUMBER OF STEPS        0
Info: STEPS PER CYCLE        10
Info: PERIODIC CELL BASIS 1  29.9606 0 0
Info: PERIODIC CELL BASIS 2  0 31.5301 0
Info: PERIODIC CELL BASIS 3  0 0 31.9002
Info: PERIODIC CELL CENTER   0 0 0
Info: WRAPPING WATERS AROUND PERIODIC BOUNDARIES ON OUTPUT.
Info: WRAPPING ALL CLUSTERS AROUND PERIODIC BOUNDARIES ON OUTPUT.
Info: FIRST LDB TIMESTEP     50
Info: LAST LDB TIMESTEP     -1
Info: HOM BACKGROUND SCALING 1
Info: PME BACKGROUND SCALING 1
Info: MIN ATOMS PER PATCH    40
Info: EMPTY PATCH LOAD       40 ATOMS
Info: VELOCITY FILE          mobley_2864987_equil.vel
Info: CENTER OF MASS MOVING INITIALLY? NO
Info: DIELECTRIC             1
Info: EXCLUDE                SCALED ONE-FOUR
Info: 1-4 ELECTROSTATICS SCALED BY 0.833333
Info: MODIFIED 1-4 VDW PARAMETERS WILL BE USED
Info: DCD FILENAME           mobley_2864987_prod.dcd
Info: DCD FREQUENCY          100000
Info: DCD FIRST STEP         100000
Info: DCD FILE WILL CONTAIN UNIT CELL DATA
Info: XST FILENAME           mobley_2864987_prod.xst
Info: XST FREQUENCY          100000
Info: NO VELOCITY DCD OUTPUT
Info: NO FORCE DCD OUTPUT
Info: OUTPUT FILENAME        mobley_2864987_prod
Info: BINARY OUTPUT FILES WILL BE USED
Info: RESTART FILENAME       mobley_2864987_prod.restart
Info: RESTART FREQUENCY      100000
Info: BINARY RESTART FILES WILL BE USED
Info: CUTOFF                 9
Info: PAIRLIST DISTANCE      11
Info: PAIRLIST SHRINK RATE   0.01
Info: PAIRLIST GROW RATE     0.01
Info: PAIRLIST TRIGGER       0.3
Info: PAIRLISTS PER CYCLE    2
Info: PAIRLISTS ENABLED
Info: MARGIN                 2
Info: HYDROGEN GROUP CUTOFF  2.5
Info: PATCH DIMENSION        15.5
Info: ENERGY OUTPUT STEPS    100000
Info: ENERGY EVALUATION STEPS    100000
Info: OUTPUT ENERGY PRECISION 4
Info: CROSSTERM ENERGY INCLUDED IN DIHEDRAL
Info: TIMING OUTPUT STEPS    1000000
Info: PRESSURE OUTPUT STEPS  100000
Info: ALCHEMICAL FEP ON
Info: FEP CURRENT LAMBDA VALUE     1
Info: FEP COMPARISON LAMBDA VALUE  0.95
Info: FEP INTRA-ALCHEMICAL NON-BONDED INTERACTIONS WILL BE RETAINED
Info: FEP INTRA-ALCHEMICAL BONDED INTERACTIONS WILL BE RETAINED
Info: FEP VDW SHIFTING COEFFICIENT 5
Info: FEP ELEC. ACTIVE FOR ANNIHILATED PARTICLES BETWEEN LAMBDA = 0 AND LAMBDA = 0.5
Info: FEP ELEC. ACTIVE FOR EXNIHILATED PARTICLES BETWEEN LAMBDA = 0.5 AND LAMBDA = 1
Info: FEP VDW ACTIVE FOR ANNIHILATED PARTICLES BETWEEN LAMBDA = 0 AND LAMBDA = 1
Info: FEP VDW ACTIVE FOR EXNIHILATED PARTICLES BETWEEN LAMBDA = 0 AND LAMBDA = 1
Info: FEP BOND ACTIVE FOR ANNIHILATED PARTICLES BETWEEN LAMBDA = 1 AND LAMBDA = 1
Info: FEP BOND ACTIVE FOR EXNIHILATED PARTICLES BETWEEN LAMBDA = 0 AND LAMBDA = 0
Info: LANGEVIN DYNAMICS ACTIVE
Info: LANGEVIN TEMPERATURE   300
Info: LANGEVIN USING BBK INTEGRATOR
Info: LANGEVIN DAMPING COEFFICIENT IS 1 INVERSE PS
Info: LANGEVIN DYNAMICS APPLIED TO HYDROGENS
Info: LANGEVIN PISTON PRESSURE CONTROL ACTIVE
Info:        TARGET PRESSURE IS 1.01325 BAR
Info:     OSCILLATION PERIOD IS 50 FS
Info:             DECAY TIME IS 25 FS
Info:     PISTON TEMPERATURE IS 300 K
Info:       PRESSURE CONTROL IS GROUP-BASED
Info:    INITIAL STRAIN RATE IS 0.000234385 0.000234385 0.000234385
Info:       CELL FLUCTUATION IS ISOTROPIC
Info: PARTICLE MESH EWALD (PME) ACTIVE
Info: PME TOLERANCE               1e-06
Info: PME EWALD COEFFICIENT       0.348832
Info: PME INTERPOLATION ORDER     4
Info: PME GRID DIMENSIONS         32 32 32
Info: PME MAXIMUM GRID SPACING    1
Info: PME CALCULATION WILL BE PERFORMED ON GPU
Info: FULL ELECTROSTATIC EVALUATION FREQUENCY      2
Info: USING VERLET I (r-RESPA) MTS SCHEME.
Info: C1 SPLITTING OF LONG RANGE ELECTROSTATICS
Info: PLACING ATOMS IN PATCHES BY HYDROGEN GROUPS
Info: RIGID BONDS TO HYDROGEN : ALL
Info:         ERROR TOLERANCE : 1e-08
Info:          MAX ITERATIONS : 100
Info: RIGID WATER USING SETTLE ALGORITHM
Info: RANDOM NUMBER SEED     1743861456
Info: USE HYDROGEN BONDS?    NO
Info: Using AMBER format force field!
Info: AMBER PARM FILE        mobley_2864987.prmtop
Info: COORDINATE PDB         mobley_2864987.pdb
Info: Exclusions will be read from PARM file!
Info: SCNB (VDW SCALING)     2
Info: USING ARITHMETIC MEAN TO COMBINE L-J SIGMA PARAMETERS
Info: BINARY COORDINATES     mobley_2864987_equil.coor
Info: SUMMARY OF PARAMETERS:
Info: 7 BONDS
Info: 7 ANGLES
Info:   7 HARMONIC
Info:   0 COSINE-BASED
Info: 9 DIHEDRAL
Info: 0 IMPROPER
Info: 0 CROSSTERM
Info: 0 VDW
Info: 21 VDW_PAIRS
Info: 0 NBTHOLE_PAIRS
Info: To read alchdata from file: mobley_2864987.pdb
Info: To read alchflag data from column: 5
Info: STRUCTURE SUMMARY:
Info: 2964 ATOMS
Info: 2963 BONDS
Info: 31 ANGLES
Info: 50 DIHEDRALS
Info: 0 IMPROPERS
Info: 0 CROSSTERMS
Info: 3033 EXCLUSIONS
Info: 2958 RIGID BONDS
Info: ALCH: 0 ATOMS TO DISAPPEAR IN FINAL STATE
Info: ALCH: 18 ATOMS TO APPEAR IN FINAL STATE
Info: 5934 DEGREES OF FREEDOM
Info: 988 HYDROGEN GROUPS
Info: 4 ATOMS IN LARGEST HYDROGEN GROUP
Info: 988 MIGRATION GROUPS
Info: 4 ATOMS IN LARGEST MIGRATION GROUP
Info: TOTAL MASS = 17779.9 amu
Info: TOTAL CHARGE = -4.47035e-08 e
Info: MASS DENSITY = 0.979759 g/cm^3
Info: ATOM DENSITY = 0.0983581 atoms/A^3
Info: ADDED 0 IMPLICIT EXCLUSIONS
Info: NONBONDED TABLE R-SQUARED SPACING: 0.0625
Info: NONBONDED TABLE SIZE: 705 POINTS
Info: REMOVING COM VELOCITY -0.0456245 -0.100583 0.0297029
Info: Use 3D box decompostion in PME FFT.
Info: Updated CUDA force table with 4096 elements.
Info: Updated CUDA LJ table with 6 x 6 elements.
Info: Found 21 unique exclusion lists needing 52 bytes
TCL: Running for 1500000 steps
ETITLE: TS BOND ANGLE DIHED IMPRP ELECT VDW BOUNDARY MISC KINETIC TOTAL TEMP POTENTIAL TOTALAVG TEMPAVG PRESSURE GPRESSURE VOLUME PRESSAVG GPRESSAVG
ENERGY: 0 0.8388 12.8822 4.5465 0.0000 -10732.4173 1437.1619 0.0000 0.0000 1716.5448 -7560.4431 291.1374 -9276.9879 -7560.4431 291.1374 -1.6974 85.1095 30134.7978 -1.6974 85.1095
ENERGY: 300000 0.7582 6.8836 4.1779 0.0000 -10782.9478 1492.0687 0.0000 0.0000 1800.2540 -7478.8054 305.3350 -9279.0595 -7504.6785 300.5893 670.5222 715.5719 30096.9663 294.2508 363.8432
ENERGY: 600000 1.0865 7.4273 3.9161 0.0000 -10719.5510 1405.9585 0.0000 0.0000 1775.1564 -7526.0062 301.0783 -9301.1626 -7495.0282 301.3745 -287.3423 -188.8845 30368.2412 348.8610 429.1519
ENERGY: 900000 1.7608 11.1226 4.8119 0.0000 -10598.5379 1412.4972 0.0000 0.0000 1778.7619 -7389.5835 301.6898 -9168.3454 -7486.8961 300.1321 170.7097 183.2476 30773.9043 331.4449 403.1188
ENERGY: 1200000 1.0085 7.5306 4.8359 0.0000 -10744.8194 1463.6283 0.0000 0.0000 1748.6963 -7519.1197 296.5905 -9267.8161 -7505.7879 299.7148 510.7163 527.2130 30094.5047 283.0103 349.0438
ENERGY: 1500000 2.1831 7.9682 3.4364 0.0000 -10638.1126 1480.4775 0.0000 0.0000 1782.7808 -7361.2665 302.3715 -9144.0473 -7502.1539 299.7978 348.0339 423.8985 31006.7289 245.8619 312.7333
TCL: Running FEP window   2: Lambda1 0.95   Lambda2 0.8999999999999999 [dLambda -0.050000000000000044]
TCL: Setting parameter firsttimestep to 0
TCL: Setting parameter alchLambda to 0.95
Info: NONBONDED TABLE R-SQUARED SPACING: 0.0625
Info: NONBONDED TABLE SIZE: 705 POINTS
TCL: Setting parameter alchLambda2 to 0.8999999999999999
Info: NONBONDED TABLE R-SQUARED SPACING: 0.0625
Info: NONBONDED TABLE SIZE: 705 POINTS
TCL: Running for 1500000 steps
ETITLE: TS BOND ANGLE DIHED IMPRP ELECT VDW BOUNDARY MISC KINETIC TOTAL TEMP POTENTIAL TOTALAVG TEMPAVG PRESSURE GPRESSURE VOLUME PRESSAVG GPRESSAVG
ENERGY: 0 2.1831 7.9682 3.4364 0.0000 -10636.0599 1479.1235 0.0000 0.0000 1781.9418 -7361.4067 302.2292 -9143.3486 -7361.4067 302.2292 313.8479 404.9762 31006.7289 313.8479 404.9762
ENERGY: 300000 0.7579 9.0023 3.9638 0.0000 -10926.2325 1553.7998 0.0000 0.0000 1731.7786 -7626.9301 293.7211 -9358.7087 -7513.6343 299.1133 699.4258 701.9514 30279.3691 131.6952 200.5614
ENERGY: 600000 1.1871 9.6929 5.2804 0.0000 -10900.7486 1550.7041 0.0000 0.0000 1741.8443 -7592.0398 295.4283 -9333.8840 -7497.6759 299.9710 727.0706 723.2857 30383.3646 103.5323 165.6172
ENERGY: 900000 0.7985 7.7874 3.7675 0.0000 -10621.0078 1345.5874 0.0000 0.0000 1855.6519 -7407.4152 314.7309 -9263.0671 -7483.0791 301.6368 -542.2270 -521.9379 30554.8390 64.4157 122.7019
ENERGY: 1200000 0.4801 8.2790 5.2104 0.0000 -10779.0939 1500.2032 0.0000 0.0000 1774.4334 -7490.4878 300.9557 -9264.9212 -7480.1441 302.2748 710.3013 679.0110 30242.1269 99.5606 152.1416
ENERGY: 1500000 2.3964 8.1814 4.2979 0.0000 -10616.9298 1385.6658 0.0000 0.0000 1771.5404 -7444.8479 300.4650 -9216.3883 -7471.6314 302.0872 -532.9419 -494.4350 31000.1089 -33.0501 18.3938
TCL: Running FEP window   3: Lambda1 0.8999999999999999 Lambda2 0.8499999999999999 [dLambda -0.050000000000000044]
TCL: Setting parameter firsttimestep to 0
TCL: Setting parameter alchLambda to 0.8999999999999999
Info: NONBONDED TABLE R-SQUARED SPACING: 0.0625
Info: NONBONDED TABLE SIZE: 705 POINTS
TCL: Setting parameter alchLambda2 to 0.8499999999999999
Info: NONBONDED TABLE R-SQUARED SPACING: 0.0625
Info: NONBONDED TABLE SIZE: 705 POINTS
TCL: Running for 1500000 steps
ETITLE: TS BOND ANGLE DIHED IMPRP ELECT VDW BOUNDARY MISC KINETIC TOTAL TEMP POTENTIAL TOTALAVG TEMPAVG PRESSURE GPRESSURE VOLUME PRESSAVG GPRESSAVG
ENERGY: 0 2.3964 8.1814 4.2979 0.0000 -10615.4444 1385.2246 0.0000 0.0000 1770.6983 -7444.6458 300.3222 -9215.3441 -7444.6458 300.3222 -594.2128 -506.1493 31000.1089 -594.2128 -506.1493
ENERGY: 300000 1.7370 4.8144 4.0163 0.0000 -10725.0351 1443.7103 0.0000 0.0000 1700.9160 -7569.8410 288.4866 -9270.7570 -7534.3486 297.4797 134.5305 197.1783 30249.8847 123.1310 198.3011
ENERGY: 600000 1.1654 7.9885 3.5821 0.0000 -10697.6443 1420.8171 0.0000 0.0000 1730.1699 -7533.9213 293.4483 -9264.0913 -7519.7501 297.2360 -4.3001 48.5610 30499.4134 84.5755 148.5392
ENERGY: 900000 0.5965 7.7293 5.9323 0.0000 -10846.6820 1470.1762 0.0000 0.0000 1799.9403 -7562.3074 305.2818 -9362.2477 -7512.0231 299.2017 80.4856 120.9838 30252.5484 -89.6557 -33.6234
ENERGY: 1200000 1.4968 8.6365 4.3976 0.0000 -10813.1412 1489.3112 0.0000 0.0000 1767.6167 -7541.6824 299.7995 -9309.2991 -7533.5548 298.2027 230.3256 293.4046 30490.2800 26.6099 84.1169
ENERGY: 1500000 0.8261 7.9301 3.2363 0.0000 -10656.2279 1448.1034 0.0000 0.0000 1748.7576 -7447.3744 296.6009 -9196.1320 -7523.2809 298.3015 254.9504 256.1451 30484.1411 26.5531 77.2582
TCL: Running FEP window   4: Lambda1 0.8499999999999999 Lambda2 0.7999999999999998 [dLambda -0.050000000000000044]
TCL: Setting parameter firsttimestep to 0
TCL: Setting parameter alchLambda to 0.8499999999999999
Info: NONBONDED TABLE R-SQUARED SPACING: 0.0625
Info: NONBONDED TABLE SIZE: 705 POINTS
TCL: Setting parameter alchLambda2 to 0.7999999999999998
Info: NONBONDED TABLE R-SQUARED SPACING: 0.0625
Info: NONBONDED TABLE SIZE: 705 POINTS
TCL: Running for 1500000 steps
ETITLE: TS BOND ANGLE DIHED IMPRP ELECT VDW BOUNDARY MISC KINETIC TOTAL TEMP POTENTIAL TOTALAVG TEMPAVG PRESSURE GPRESSURE VOLUME PRESSAVG GPRESSAVG
ENERGY: 0 0.8261 7.9301 3.2363 0.0000 -10653.9244 1446.6033 0.0000 0.0000 1747.8597 -7447.4688 296.4486 -9195.3286 -7447.4688 296.4486 149.0413 230.5577 30484.1411 149.0413 230.5577
ENERGY: 300000 0.7131 3.9575 3.7220 0.0000 -10797.3738 1491.7608 0.0000 0.0000 1761.1344 -7536.0859 298.7001 -9297.2204 -7516.1018 296.6833 409.9859 537.2989 30279.1152 105.1984 185.2056
ENERGY: 600000 0.5609 8.1095 3.1900 0.0000 -10622.1546 1346.2124 0.0000 0.0000 1759.0973 -7504.9846 298.3546 -9264.0819 -7493.3065 298.0414 -863.5777 -786.9919 30667.2563 65.7577 138.7795
ENERGY: 900000 1.8282 6.2681 4.1421 0.0000 -10860.2173 1529.1244 0.0000 0.0000 1795.6585 -7523.1961 304.5556 -9318.8546 -7505.1065 299.1312 590.9436 672.1458 30667.9136 96.2996 169.0949
ENERGY: 1200000 1.7214 5.0291 6.1056 0.0000 -10764.2859 1494.3338 0.0000 0.0000 1728.2275 -7528.8686 293.1189 -9257.0961 -7504.9931 298.6333 709.9501 818.0503 30053.9204 196.1674 261.9191
ENERGY: 1500000 3.4542 6.0471 4.4336 0.0000 -10661.3309 1390.4534 0.0000 0.0000 1758.8419 -7498.1006 298.3113 -9256.9426 -7512.8458 298.7081 -366.7014 -307.0666 30445.8694 119.6540 184.9262
TCL: Running FEP window   5: Lambda1 0.7999999999999998 Lambda2 0.7499999999999998 [dLambda -0.050000000000000044]
TCL: Setting parameter firsttimestep to 0
TCL: Setting parameter alchLambda to 0.7999999999999998
Info: NONBONDED TABLE R-SQUARED SPACING: 0.0625
Info: NONBONDED TABLE SIZE: 705 POINTS
TCL: Setting parameter alchLambda2 to 0.7499999999999998
Info: NONBONDED TABLE R-SQUARED SPACING: 0.0625
Info: NONBONDED TABLE SIZE: 705 POINTS
TCL: Running for 1500000 steps
ETITLE: TS BOND ANGLE DIHED IMPRP ELECT VDW BOUNDARY MISC KINETIC TOTAL TEMP POTENTIAL TOTALAVG TEMPAVG PRESSURE GPRESSURE VOLUME PRESSAVG GPRESSAVG
ENERGY: 0 3.4542 6.0471 4.4336 0.0000 -10660.4790 1390.2033 0.0000 0.0000 1757.9716 -7498.3691 298.1636 -9256.3407 -7498.3691 298.1636 -402.0001 -315.4377 30445.8694 -402.0001 -315.4377
ENERGY: 300000 0.9111 7.4554 5.3439 0.0000 -10879.4873 1513.6268 0.0000 0.0000 1745.9704 -7606.1796 296.1282 -9352.1501 -7551.7815 296.0282 463.8830 511.8855 30136.5286 -90.2307 -31.8187
ENERGY: 600000 1.2554 8.4709 4.9903 0.0000 -10697.4859 1400.0719 0.0000 0.0000 1748.0010 -7534.6964 296.4726 -9282.6974 -7541.3271 295.6538 -193.6374 -162.9634 30529.1157 -163.5504 -107.4002
ENERGY: 900000 1.9636 6.3348 5.2248 0.0000 -10754.5956 1465.4529 0.0000 0.0000 1781.2605 -7494.3589 302.1136 -9275.6194 -7531.4273 296.5277 220.4092 318.7033 30175.5635 -112.5131 -52.6552
ENERGY: 1200000 1.2479 9.6105 3.6295 0.0000 -10725.1684 1483.6465 0.0000 0.0000 1744.8174 -7482.2164 295.9326 -9227.0339 -7529.5634 296.9850 347.8910 413.3624 30510.0168 -45.8223 12.2059
ENERGY: 1500000 1.8300 7.1792 3.3597 0.0000 -10737.0954 1423.4671 0.0000 0.0000 1760.3360 -7540.9234 298.5647 -9301.2594 -7525.7788 297.6995 -261.5323 -180.5353 30633.8409 52.3502 117.2412
TCL: Running FEP window   6: Lambda1 0.7499999999999998 Lambda2 0.6999999999999997 [dLambda -0.050000000000000044]
TCL: Setting parameter firsttimestep to 0
TCL: Setting parameter alchLambda to 0.7499999999999998
Info: NONBONDED TABLE R-SQUARED SPACING: 0.0625
Info: NONBONDED TABLE SIZE: 705 POINTS
TCL: Setting parameter alchLambda2 to 0.6999999999999997
Info: NONBONDED TABLE R-SQUARED SPACING: 0.0625
Info: NONBONDED TABLE SIZE: 705 POINTS
TCL: Running for 1500000 steps
ETITLE: TS BOND ANGLE DIHED IMPRP ELECT VDW BOUNDARY MISC KINETIC TOTAL TEMP POTENTIAL TOTALAVG TEMPAVG PRESSURE GPRESSURE VOLUME PRESSAVG GPRESSAVG
ENERGY: 0 1.8300 7.1792 3.3597 0.0000 -10736.4178 1423.3963 0.0000 0.0000 1759.4429 -7541.2096 298.4132 -9300.6525 -7541.2096 298.4132 -263.9479 -189.1377 30633.8409 -263.9479 -189.1377
ENERGY: 300000 1.7413 9.4118 3.3093 0.0000 -10788.6296 1533.4271 0.0000 0.0000 1825.1142 -7415.6259 309.5515 -9240.7401 -7502.5769 300.2058 609.9962 691.3231 30448.8595 383.0378 452.2690
ENERGY: 600000 2.4329 10.0748 3.5781 0.0000 -10805.7609 1512.5625 0.0000 0.0000 1775.9210 -7501.1916 301.2080 -9277.1126 -7504.0240 301.1206 659.8589 712.8533 30572.9156 371.9518 436.3695
ENERGY: 900000 0.4832 4.6832 4.0777 0.0000 -10796.6886 1477.7816 0.0000 0.0000 1808.4051 -7501.2579 306.7175 -9309.6630 -7527.1010 299.9744 235.6775 276.3313 30608.4328 352.1278 425.6727
ENERGY: 1200000 1.5801 11.6627 4.2395 0.0000 -10730.5373 1455.4826 0.0000 0.0000 1756.1823 -7501.3901 297.8602 -9257.5723 -7534.6402 299.0103 -75.1551 9.7239 30742.5120 266.2769 347.4999
ENERGY: 1500000 2.4887 8.7316 4.4682 0.0000 -10691.6479 1440.2164 0.0000 0.0000 1731.7579 -7503.9851 293.7176 -9235.7430 -7531.9369 298.5096 159.4985 211.7533 30321.6371 178.3271 253.4896
TCL: Running FEP window   7: Lambda1 0.6999999999999997 Lambda2 0.6499999999999997 [dLambda -0.050000000000000044]
TCL: Setting parameter firsttimestep to 0
TCL: Setting parameter alchLambda to 0.6999999999999997
Info: NONBONDED TABLE R-SQUARED SPACING: 0.0625
Info: NONBONDED TABLE SIZE: 705 POINTS
TCL: Setting parameter alchLambda2 to 0.6499999999999997
Info: NONBONDED TABLE R-SQUARED SPACING: 0.0625
Info: NONBONDED TABLE SIZE: 705 POINTS
TCL: Running for 1500000 steps
ETITLE: TS BOND ANGLE DIHED IMPRP ELECT VDW BOUNDARY MISC KINETIC TOTAL TEMP POTENTIAL TOTALAVG TEMPAVG PRESSURE GPRESSURE VOLUME PRESSAVG GPRESSAVG
ENERGY: 0 2.4887 8.7316 4.4682 0.0000 -10690.6745 1440.1215 0.0000 0.0000 1730.8689 -7503.9956 293.5669 -9234.8646 -7503.9956 293.5669 127.7452 204.6237 30321.6371 127.7452 204.6237
ENERGY: 300000 1.4203 7.0425 4.4813 0.0000 -10654.3924 1371.5190 0.0000 0.0000 1774.6940 -7495.2352 300.9999 -9269.9292 -7500.2940 298.1115 -536.6985 -498.4363 30495.2012 -318.7807 -291.6486
ENERGY: 600000 2.2025 6.7543 5.2813 0.0000 -10734.1888 1448.6625 0.0000 0.0000 1809.0780 -7462.2102 306.8316 -9271.2882 -7508.3102 298.6071 96.0639 226.9352 30388.0164 -274.9199 -231.0624
ENERGY: 900000 0.7313 4.0796 3.5056 0.0000 -10746.0670 1392.7132 0.0000 0.0000 1781.6066 -7563.4307 302.1723 -9345.0373 -7503.3078 299.9794 -456.4057 -414.7474 30563.8413 -293.6535 -254.6282
ENERGY: 1200000 1.8972 7.9786 3.7897 0.0000 -10710.3084 1438.6455 0.0000 0.0000 1783.9248 -7474.0726 302.5655 -9257.9974 -7500.1275 300.0935 -267.5711 -203.0585 30894.6172 -259.9066 -208.2383
ENERGY: 1500000 0.8397 6.9886 3.1705 0.0000 -10784.4595 1506.8805 0.0000 0.0000 1753.1489 -7513.4313 297.3457 -9266.5802 -7509.3704 299.8898 776.9319 861.3477 30019.2663 -135.3100 -79.9517
TCL: Running FEP window   8: Lambda1 0.6499999999999997 Lambda2 0.5999999999999996 [dLambda -0.050000000000000044]
TCL: Setting parameter firsttimestep to 0
TCL: Setting parameter alchLambda to 0.6499999999999997
Info: NONBONDED TABLE R-SQUARED SPACING: 0.0625
Info: NONBONDED TABLE SIZE: 705 POINTS
TCL: Setting parameter alchLambda2 to 0.5999999999999996
Info: NONBONDED TABLE R-SQUARED SPACING: 0.0625
Info: NONBONDED TABLE SIZE: 705 POINTS
TCL: Running for 1500000 steps
ETITLE: TS BOND ANGLE DIHED IMPRP ELECT VDW BOUNDARY MISC KINETIC TOTAL TEMP POTENTIAL TOTALAVG TEMPAVG PRESSURE GPRESSURE VOLUME PRESSAVG GPRESSAVG
ENERGY: 0 0.8397 6.9886 3.1705 0.0000 -10783.9984 1507.0333 0.0000 0.0000 1752.2269 -7513.7393 297.1893 -9265.9662 -7513.7393 297.1893 768.6627 856.3829 30019.2663 768.6627 856.3829
ENERGY: 300000 0.3612 8.3516 6.4804 0.0000 -10679.5131 1370.6499 0.0000 0.0000 1769.4705 -7524.1995 300.1139 -9293.6699 -7504.9166 297.2195 -607.4683 -522.2780 30209.6606 -138.8873 -37.5107
ENERGY: 600000 2.4382 7.0392 4.9490 0.0000 -11008.1321 1631.8405 0.0000 0.0000 1678.6441 -7683.2212 284.7092 -9361.8653 -7557.0243 295.7304 923.3422 963.7514 30819.5888 -46.7600 35.9059
ENERGY: 900000 0.2898 9.0311 4.4390 0.0000 -10629.7702 1383.5128 0.0000 0.0000 1808.2671 -7424.2303 306.6941 -9232.4974 -7531.8762 297.8077 -399.9714 -338.3063 30766.3246 -64.2954 13.5186
ENERGY: 1200000 0.4639 7.0197 3.9417 0.0000 -10932.5103 1519.7058 0.0000 0.0000 1778.3867 -7622.9925 301.6262 -9401.3793 -7538.5002 298.9402 460.4805 522.6299 30099.1486 -46.9038 23.6615
ENERGY: 1500000 0.8363 11.3809 5.0622 0.0000 -10719.9133 1442.0665 0.0000 0.0000 1740.3283 -7520.2391 295.1712 -9260.5674 -7535.2154 298.8632 96.5894 181.2415 30018.8457 -172.6402 -102.5528
TCL: Running FEP window   9: Lambda1 0.5999999999999996 Lambda2 0.5499999999999996 [dLambda -0.050000000000000044]
TCL: Setting parameter firsttimestep to 0
TCL: Setting parameter alchLambda to 0.5999999999999996
Info: NONBONDED TABLE R-SQUARED SPACING: 0.0625
Info: NONBONDED TABLE SIZE: 705 POINTS
TCL: Setting parameter alchLambda2 to 0.5499999999999996
Info: NONBONDED TABLE R-SQUARED SPACING: 0.0625
Info: NONBONDED TABLE SIZE: 705 POINTS
TCL: Running for 1500000 steps
ETITLE: TS BOND ANGLE DIHED IMPRP ELECT VDW BOUNDARY MISC KINETIC TOTAL TEMP POTENTIAL TOTALAVG TEMPAVG PRESSURE GPRESSURE VOLUME PRESSAVG GPRESSAVG
ENERGY: 0 0.8363 11.3809 5.0622 0.0000 -10719.1039 1440.5371 0.0000 0.0000 1739.4517 -7521.8357 295.0225 -9261.2874 -7521.8357 295.0225 87.7009 161.6646 30018.8457 87.7009 161.6646
ENERGY: 300000 1.6808 4.3425 3.7753 0.0000 -10684.9860 1450.5518 0.0000 0.0000 1735.4962 -7489.1395 294.3517 -9224.6357 -7524.3705 295.1050 73.9587 150.9872 30683.5500 -122.9999 -59.1906
ENERGY: 600000 1.4357 8.9208 3.8088 0.0000 -10744.1694 1424.8940 0.0000 0.0000 1735.0494 -7570.0606 294.2759 -9305.1100 -7509.4937 298.5582 -177.8898 -161.7423 30570.7240 -90.9923 -31.8575
ENERGY: 900000 1.1124 6.7287 4.9732 0.0000 -10748.9151 1427.4671 0.0000 0.0000 1827.1124 -7481.5212 309.8904 -9308.6336 -7485.5296 300.4505 -215.6038 -154.6320 30613.1003 -108.7239 -36.8302
ENERGY: 1200000 0.4812 7.6642 3.7412 0.0000 -10804.5714 1456.0760 0.0000 0.0000 1766.1193 -7570.4895 299.5456 -9336.6088 -7493.4573 299.9874 -72.6057 54.7939 30200.8469 -183.0002 -111.3268
ENERGY: 1500000 0.2533 7.8053 5.0552 0.0000 -10698.3726 1444.4489 0.0000 0.0000 1768.0848 -7472.7251 299.8789 -9240.8098 -7496.0673 299.8301 187.4837 267.9809 30247.8179 -155.1918 -90.9057
TCL: Running FEP window  10: Lambda1 0.5499999999999996 Lambda2 0.4999999999999996 [dLambda -0.04999999999999999]
TCL: Setting parameter firsttimestep to 0
TCL: Setting parameter alchLambda to 0.5499999999999996
Info: NONBONDED TABLE R-SQUARED SPACING: 0.0625
Info: NONBONDED TABLE SIZE: 705 POINTS
TCL: Setting parameter alchLambda2 to 0.4999999999999996
Info: NONBONDED TABLE R-SQUARED SPACING: 0.0625
Info: NONBONDED TABLE SIZE: 705 POINTS
TCL: Running for 1500000 steps
ETITLE: TS BOND ANGLE DIHED IMPRP ELECT VDW BOUNDARY MISC KINETIC TOTAL TEMP POTENTIAL TOTALAVG TEMPAVG PRESSURE GPRESSURE VOLUME PRESSAVG GPRESSAVG
ENERGY: 0 0.2533 7.8053 5.0552 0.0000 -10698.1382 1444.7507 0.0000 0.0000 1767.1898 -7473.0839 299.7271 -9240.2737 -7473.0839 299.7271 197.6069 266.6541 30247.8179 197.6069 266.6541
ENERGY: 300000 3.8803 4.2107 3.6650 0.0000 -10605.3592 1387.8934 0.0000 0.0000 1718.2809 -7487.4290 291.4318 -9205.7099 -7473.2811 298.9342 -594.5322 -582.5753 30997.4404 -241.5458 -189.9679
ENERGY: 600000 1.7731 10.4354 5.8835 0.0000 -10688.7460 1463.2903 0.0000 0.0000 1783.1723 -7424.1915 302.4379 -9207.3638 -7464.7315 298.8505 212.8658 230.2148 30742.6154 -227.5110 -176.2814
ENERGY: 900000 4.8982 5.2558 4.9092 0.0000 -10732.5842 1434.3696 0.0000 0.0000 1796.5466 -7486.6048 304.7062 -9283.1514 -7478.3165 299.2811 -211.2088 -155.7806 30541.3741 -244.4637 -190.7262
ENERGY: 1200000 0.4825 8.1341 5.9156 0.0000 -10744.4929 1452.1778 0.0000 0.0000 1754.5670 -7523.2157 297.5862 -9277.7827 -7489.9813 298.9116 -86.3796 -85.5923 30891.7088 -163.2854 -115.4973
ENERGY: 1500000 1.4936 7.9463 4.1669 0.0000 -10786.9342 1443.0561 0.0000 0.0000 1726.2337 -7604.0376 292.7807 -9330.2713 -7494.0049 298.5095 -345.1353 -229.9144 30618.1798 -156.5612 -101.0047
TCL: Running FEP window  11: Lambda1 0.4999999999999996 Lambda2 0.4499999999999996 [dLambda -0.04999999999999999]
TCL: Setting parameter firsttimestep to 0
TCL: Setting parameter alchLambda to 0.4999999999999996
Info: NONBONDED TABLE R-SQUARED SPACING: 0.0625
Info: NONBONDED TABLE SIZE: 705 POINTS
TCL: Setting parameter alchLambda2 to 0.4499999999999996
Info: NONBONDED TABLE R-SQUARED SPACING: 0.0625
Info: NONBONDED TABLE SIZE: 705 POINTS
TCL: Running for 1500000 steps
ETITLE: TS BOND ANGLE DIHED IMPRP ELECT VDW BOUNDARY MISC KINETIC TOTAL TEMP POTENTIAL TOTALAVG TEMPAVG PRESSURE GPRESSURE VOLUME PRESSAVG GPRESSAVG
ENERGY: 0 1.4936 7.9463 4.1669 0.0000 -10786.9231 1443.0588 0.0000 0.0000 1725.3620 -7604.8955 292.6328 -9330.2575 -7604.8955 292.6328 -313.7298 -233.0287 30618.1798 -313.7298 -233.0287
ENERGY: 300000 3.4164 7.4623 4.5448 0.0000 -10694.0693 1416.7314 0.0000 0.0000 1777.1031 -7484.8114 301.4085 -9261.9145 -7527.1609 300.1827 -203.9050 -137.5566 30772.0543 -47.5118 19.8442
ENERGY: 600000 1.3435 7.1615 6.3802 0.0000 -10679.5638 1354.6196 0.0000 0.0000 1748.7385 -7561.3205 296.5977 -9310.0590 -7512.2281 301.4052 -957.8347 -861.1613 30874.5348 -291.4037 -236.5645
ENERGY: 900000 2.0193 10.2564 5.3502 0.0000 -10852.1018 1577.9838 0.0000 0.0000 1761.4397 -7495.0524 298.7519 -9256.4921 -7508.5543 300.8372 1031.4436 1133.8979 30440.8358 -36.6535 27.0534
ENERGY: 1200000 2.4637 8.3397 2.8091 0.0000 -10757.2550 1464.1321 0.0000 0.0000 1740.4181 -7539.0923 295.1865 -9279.5104 -7505.7105 299.6886 -143.3387 -58.8151 30791.2916 -90.2445 -30.9993
ENERGY: 1500000 1.4790 6.2786 4.4017 0.0000 -10709.8815 1406.3909 0.0000 0.0000 1741.1432 -7550.1880 295.3094 -9291.3312 -7507.8081 299.7232 -576.7373 -511.8069 30937.4612 -134.0434 -78.1889
TCL: Running FEP window  12: Lambda1 0.4499999999999996 Lambda2 0.39999999999999963 [dLambda -0.04999999999999999]
TCL: Setting parameter firsttimestep to 0
TCL: Setting parameter alchLambda to 0.4499999999999996
Info: NONBONDED TABLE R-SQUARED SPACING: 0.0625
Info: NONBONDED TABLE SIZE: 705 POINTS
TCL: Setting parameter alchLambda2 to 0.39999999999999963
Info: NONBONDED TABLE R-SQUARED SPACING: 0.0625
Info: NONBONDED TABLE SIZE: 705 POINTS
TCL: Running for 1500000 steps
ETITLE: TS BOND ANGLE DIHED IMPRP ELECT VDW BOUNDARY MISC KINETIC TOTAL TEMP POTENTIAL TOTALAVG TEMPAVG PRESSURE GPRESSURE VOLUME PRESSAVG GPRESSAVG
ENERGY: 0 1.4790 6.2786 4.4017 0.0000 -10709.8815 1406.5585 0.0000 0.0000 1740.2610 -7550.9026 295.1598 -9291.1636 -7550.9026 295.1598 -603.6197 -514.5782 30937.4612 -603.6197 -514.5782
ENERGY: 300000 0.9421 7.7730 3.7382 0.0000 -10637.0635 1377.9091 0.0000 0.0000 1780.6104 -7466.0907 302.0033 -9246.7011 -7501.7826 297.1838 -455.5194 -425.9625 30674.6718 -483.2416 -399.2596
ENERGY: 600000 0.2710 4.9141 2.9987 0.0000 -10799.1803 1458.1416 0.0000 0.0000 1767.7175 -7565.1375 299.8166 -9332.8550 -7524.5326 297.6308 -29.7939 -10.1780 30424.0961 -375.7957 -314.8350
ENERGY: 900000 2.9937 8.6790 3.1619 0.0000 -10833.1559 1476.5250 0.0000 0.0000 1765.9877 -7575.8086 299.5232 -9341.7963 -7535.9198 297.5891 364.5938 402.1872 30091.3845 -214.0965 -151.1458
ENERGY: 1200000 0.6111 13.3994 3.2841 0.0000 -10681.9494 1399.7183 0.0000 0.0000 1813.1788 -7451.7577 307.5272 -9264.9365 -7528.0429 299.1216 -410.8911 -330.4640 30907.1210 -232.3072 -169.7576
ENERGY: 1500000 0.6718 7.2422 5.1044 0.0000 -10659.5545 1404.0438 0.0000 0.0000 1756.0842 -7486.4080 297.8435 -9242.4923 -7527.0192 298.8133 27.8902 80.9643 29960.6983 -271.5432 -210.0517
TCL: Running FEP window  13: Lambda1 0.39999999999999963 Lambda2 0.34999999999999964 [dLambda -0.04999999999999999]
TCL: Setting parameter firsttimestep to 0
TCL: Setting parameter alchLambda to 0.39999999999999963
Info: NONBONDED TABLE R-SQUARED SPACING: 0.0625
Info: NONBONDED TABLE SIZE: 705 POINTS
TCL: Setting parameter alchLambda2 to 0.34999999999999964
Info: NONBONDED TABLE R-SQUARED SPACING: 0.0625
Info: NONBONDED TABLE SIZE: 705 POINTS
TCL: Running for 1500000 steps
ETITLE: TS BOND ANGLE DIHED IMPRP ELECT VDW BOUNDARY MISC KINETIC TOTAL TEMP POTENTIAL TOTALAVG TEMPAVG PRESSURE GPRESSURE VOLUME PRESSAVG GPRESSAVG
ENERGY: 0 0.6718 7.2422 5.1044 0.0000 -10659.5531 1404.2681 0.0000 0.0000 1755.2167 -7487.0499 297.6964 -9242.2666 -7487.0499 297.6964 -6.6060 76.5411 29960.6983 -6.6060 76.5411
ENERGY: 300000 1.0401 7.4148 3.2101 0.0000 -10587.7828 1345.2334 0.0000 0.0000 1772.0831 -7458.8012 300.5571 -9230.8844 -7517.4422 296.0997 -635.2787 -563.3207 30361.5434 -198.8524 -117.5281
ENERGY: 600000 3.1593 8.6602 3.6858 0.0000 -10751.3617 1453.3430 0.0000 0.0000 1778.1067 -7504.4067 301.5787 -9282.5134 -7500.5193 298.6360 47.0071 13.0087 30370.8544 -180.9729 -122.8675
ENERGY: 900000 0.9925 8.6017 3.8157 0.0000 -10604.4866 1396.3561 0.0000 0.0000 1768.6784 -7426.0422 299.9796 -9194.7205 -7496.9337 298.2432 -388.1283 -316.5346 30852.2536 -162.7713 -99.6661
ENERGY: 1200000 0.6788 6.4486 3.1945 0.0000 -10660.8339 1399.6748 0.0000 0.0000 1733.3387 -7517.4985 293.9857 -9250.8372 -7504.5742 298.1516 -263.9144 -210.1827 30332.4647 -99.4444 -41.3040
ENERGY: 1500000 1.8577 12.8323 3.9270 0.0000 -10833.1520 1566.7613 0.0000 0.0000 1780.4862 -7467.2876 301.9823 -9247.7738 -7507.4486 298.0544 1414.8090 1530.0601 29549.3642 63.7162 122.4099
TCL: Running FEP window  14: Lambda1 0.34999999999999964 Lambda2 0.29999999999999966 [dLambda -0.04999999999999999]
TCL: Setting parameter firsttimestep to 0
TCL: Setting parameter alchLambda to 0.34999999999999964
Info: NONBONDED TABLE R-SQUARED SPACING: 0.0625
Info: NONBONDED TABLE SIZE: 705 POINTS
TCL: Setting parameter alchLambda2 to 0.29999999999999966
Info: NONBONDED TABLE R-SQUARED SPACING: 0.0625
Info: NONBONDED TABLE SIZE: 705 POINTS
TCL: Running for 1500000 steps
ETITLE: TS BOND ANGLE DIHED IMPRP ELECT VDW BOUNDARY MISC KINETIC TOTAL TEMP POTENTIAL TOTALAVG TEMPAVG PRESSURE GPRESSURE VOLUME PRESSAVG GPRESSAVG
ENERGY: 0 1.8577 12.8323 3.9270 0.0000 -10833.1525 1566.9836 0.0000 0.0000 1779.6480 -7467.9040 301.8401 -9247.5520 -7467.9040 301.8401 1431.8248 1523.8311 29549.3642 1431.8248 1523.8311
ENERGY: 300000 3.4379 12.3965 4.6889 0.0000 -10747.3881 1453.7728 0.0000 0.0000 1732.5439 -7540.5480 293.8509 -9273.0920 -7505.2748 301.3317 120.5897 203.6859 30307.2969 416.3425 507.6448
ENERGY: 600000 1.7112 8.1577 4.2890 0.0000 -10783.1333 1470.6055 0.0000 0.0000 1742.8209 -7555.5490 295.5940 -9298.3699 -7509.1357 301.3856 -33.2958 79.5046 30634.0501 382.2030 467.9861
ENERGY: 900000 2.3431 12.6776 5.0083 0.0000 -10805.6901 1487.7929 0.0000 0.0000 1767.8650 -7530.0032 299.8416 -9297.8682 -7519.0010 299.9890 370.1194 383.0896 29917.9689 305.1471 386.7817
ENERGY: 1200000 1.3290 6.3337 2.9277 0.0000 -10693.8749 1423.3235 0.0000 0.0000 1765.9488 -7494.0123 299.5166 -9259.9611 -7513.2891 299.8943 -340.5187 -199.4388 30850.9397 253.5198 332.9830
ENERGY: 1500000 2.1176 3.8599 3.5610 0.0000 -10874.1528 1531.4883 0.0000 0.0000 1822.0541 -7511.0720 309.0325 -9333.1261 -7516.5093 300.5110 546.8718 593.3229 30267.1597 310.1954 390.2825
TCL: Running FEP window  15: Lambda1 0.29999999999999966 Lambda2 0.24999999999999967 [dLambda -0.04999999999999999]
TCL: Setting parameter firsttimestep to 0
TCL: Setting parameter alchLambda to 0.29999999999999966
Info: NONBONDED TABLE R-SQUARED SPACING: 0.0625
Info: NONBONDED TABLE SIZE: 705 POINTS
TCL: Setting parameter alchLambda2 to 0.24999999999999967
Info: NONBONDED TABLE R-SQUARED SPACING: 0.0625
Info: NONBONDED TABLE SIZE: 705 POINTS
TCL: Running for 1500000 steps
ETITLE: TS BOND ANGLE DIHED IMPRP ELECT VDW BOUNDARY MISC KINETIC TOTAL TEMP POTENTIAL TOTALAVG TEMPAVG PRESSURE GPRESSURE VOLUME PRESSAVG GPRESSAVG
ENERGY: 0 2.1176 3.8599 3.5610 0.0000 -10874.1535 1531.0188 0.0000 0.0000 1821.1572 -7512.4390 308.8804 -9333.5962 -7512.4390 308.8804 505.9905 583.2311 30267.1597 505.9905 583.2311
ENERGY: 300000 1.3860 9.1617 4.5000 0.0000 -10680.6357 1378.9604 0.0000 0.0000 1746.7867 -7539.8409 296.2666 -9286.6275 -7574.4967 299.0533 -816.0084 -763.9941 30815.5053 -325.3032 -282.8661
ENERGY: 600000 2.2968 6.3626 4.5992 0.0000 -10799.7740 1452.9098 0.0000 0.0000 1773.8217 -7559.7838 300.8519 -9333.6055 -7552.8317 299.3508 -325.8004 -257.7767 30667.1478 -91.1572 -32.8299
ENERGY: 900000 2.2578 3.8636 5.0814 0.0000 -10567.4956 1382.5589 0.0000 0.0000 1772.0702 -7401.6637 300.5549 -9173.7339 -7522.2470 299.6969 -143.5721 -79.8388 30408.6989 -131.5022 -65.9182
ENERGY: 1200000 2.3191 8.6572 5.0386 0.0000 -10657.7029 1357.3249 0.0000 0.0000 1755.9705 -7528.3927 297.8242 -9284.3632 -7507.9480 300.4621 -918.7768 -882.2684 30759.5649 -133.7309 -68.9226
ENERGY: 1500000 2.7307 9.8200 4.6469 0.0000 -10612.3257 1358.4237 0.0000 0.0000 1752.7542 -7483.9500 297.2787 -9236.7042 -7498.8820 300.8259 -583.0476 -510.8142 30480.0051 -144.5124 -76.6072
TCL: Running FEP window  16: Lambda1 0.24999999999999967 Lambda2 0.19999999999999968 [dLambda -0.04999999999999999]
TCL: Setting parameter firsttimestep to 0
TCL: Setting parameter alchLambda to 0.24999999999999967
Info: NONBONDED TABLE R-SQUARED SPACING: 0.0625
Info: NONBONDED TABLE SIZE: 705 POINTS
TCL: Setting parameter alchLambda2 to 0.19999999999999968
Info: NONBONDED TABLE R-SQUARED SPACING: 0.0625
Info: NONBONDED TABLE SIZE: 705 POINTS
TCL: Running for 1500000 steps
ETITLE: TS BOND ANGLE DIHED IMPRP ELECT VDW BOUNDARY MISC KINETIC TOTAL TEMP POTENTIAL TOTALAVG TEMPAVG PRESSURE GPRESSURE VOLUME PRESSAVG GPRESSAVG
ENERGY: 0 2.7307 9.8200 4.6469 0.0000 -10612.3263 1358.8350 0.0000 0.0000 1751.8271 -7484.4665 297.1215 -9236.2936 -7484.4665 297.1215 -583.6009 -511.5642 30480.0051 -583.6009 -511.5642
ENERGY: 300000 1.1515 8.7782 6.3251 0.0000 -10772.1121 1487.5520 0.0000 0.0000 1731.7302 -7536.5752 293.7129 -9268.3054 -7506.6529 297.2513 571.2276 613.3212 29962.5301 -103.8365 -15.6971
ENERGY: 600000 0.7539 9.3372 4.6684 0.0000 -10715.3792 1453.7459 0.0000 0.0000 1740.8040 -7506.0697 295.2519 -9246.8737 -7518.2130 297.0649 310.0588 420.6140 30110.7852 -182.9512 -92.9324
ENERGY: 900000 3.7255 7.0779 3.2884 0.0000 -10565.9378 1324.1172 0.0000 0.0000 1710.4919 -7517.2367 290.1108 -9227.7287 -7514.9185 298.2354 -826.7657 -741.4225 30213.3348 -209.2307 -113.2666
ENERGY: 1200000 0.4226 6.5273 2.7162 0.0000 -10622.5246 1337.5983 0.0000 0.0000 1741.1764 -7534.0838 295.3151 -9275.2603 -7508.7154 299.0154 -835.9693 -820.6197 30711.4889 -247.2140 -160.0613
ENERGY: 1500000 1.9811 9.4919 2.9579 0.0000 -10608.5282 1349.5739 0.0000 0.0000 1780.3829 -7464.1406 301.9648 -9244.5235 -7505.1545 299.3396 -742.1758 -566.7875 30664.5195 -264.7315 -174.6439
TCL: Running FEP window  17: Lambda1 0.19999999999999968 Lambda2 0.1499999999999997 [dLambda -0.04999999999999999]
TCL: Setting parameter firsttimestep to 0
TCL: Setting parameter alchLambda to 0.19999999999999968
Info: NONBONDED TABLE R-SQUARED SPACING: 0.0625
Info: NONBONDED TABLE SIZE: 705 POINTS
TCL: Setting parameter alchLambda2 to 0.1499999999999997
Info: NONBONDED TABLE R-SQUARED SPACING: 0.0625
Info: NONBONDED TABLE SIZE: 705 POINTS
TCL: Running for 1500000 steps
ETITLE: TS BOND ANGLE DIHED IMPRP ELECT VDW BOUNDARY MISC KINETIC TOTAL TEMP POTENTIAL TOTALAVG TEMPAVG PRESSURE GPRESSURE VOLUME PRESSAVG GPRESSAVG
ENERGY: 0 1.9811 9.4919 2.9579 0.0000 -10608.5283 1349.4871 0.0000 0.0000 1779.4851 -7465.1253 301.8125 -9244.6104 -7465.1253 301.8125 -662.0160 -569.3925 30664.5195 -662.0160 -569.3925
ENERGY: 300000 2.8325 7.1261 3.7831 0.0000 -10680.8396 1388.2156 0.0000 0.0000 1684.8254 -7594.0570 285.7576 -9278.8824 -7521.4028 296.7856 -584.1767 -542.3867 30362.9863 -406.7173 -338.6580
ENERGY: 600000 3.2552 9.4137 3.3414 0.0000 -10788.5341 1467.7024 0.0000 0.0000 1761.8265 -7542.9948 298.8175 -9304.8212 -7528.8079 296.7177 -65.8503 -28.7110 30351.6814 -365.7601 -297.3067
ENERGY: 900000 1.3269 5.6743 3.3231 0.0000 -10740.7159 1468.2423 0.0000 0.0000 1750.0665 -7512.0828 296.8229 -9262.1493 -7518.0458 297.9599 50.9147 125.0984 30567.9823 -153.2836 -88.6279
ENERGY: 1200000 2.4090 6.7750 3.7773 0.0000 -10667.6002 1479.8428 0.0000 0.0000 1813.7602 -7361.0358 307.6258 -9174.7960 -7512.2234 298.2886 490.9959 523.0450 30739.3023 -118.8832 -61.9554
ENERGY: 1500000 0.6579 8.8681 3.0630 0.0000 -10773.3509 1455.0987 0.0000 0.0000 1779.8644 -7525.7987 301.8768 -9305.6631 -7514.3127 298.3060 71.5236 174.7658 30281.3324 -134.2485 -74.3891
TCL: Running FEP window  18: Lambda1 0.1499999999999997 Lambda2 0.09999999999999969 [dLambda -0.05 ]
TCL: Setting parameter firsttimestep to 0
TCL: Setting parameter alchLambda to 0.1499999999999997
Info: NONBONDED TABLE R-SQUARED SPACING: 0.0625
Info: NONBONDED TABLE SIZE: 705 POINTS
TCL: Setting parameter alchLambda2 to 0.09999999999999969
Info: NONBONDED TABLE R-SQUARED SPACING: 0.0625
Info: NONBONDED TABLE SIZE: 705 POINTS
TCL: Running for 1500000 steps
ETITLE: TS BOND ANGLE DIHED IMPRP ELECT VDW BOUNDARY MISC KINETIC TOTAL TEMP POTENTIAL TOTALAVG TEMPAVG PRESSURE GPRESSURE VOLUME PRESSAVG GPRESSAVG
ENERGY: 0 0.6579 8.8681 3.0630 0.0000 -10773.3503 1455.0260 0.0000 0.0000 1778.9539 -7526.7814 301.7224 -9305.7353 -7526.7814 301.7224 89.9697 172.5114 30281.3324 89.9697 172.5114
ENERGY: 300000 1.9973 7.4429 4.0845 0.0000 -10704.6474 1455.3638 0.0000 0.0000 1781.3751 -7454.3837 302.1330 -9235.7588 -7509.4099 299.0530 259.6406 329.5836 30385.9167 111.8033 170.4963
ENERGY: 600000 2.9847 13.5388 3.7216 0.0000 -10723.4404 1493.9242 0.0000 0.0000 1790.4887 -7418.7825 303.6788 -9209.2712 -7483.7770 300.5429 305.2467 437.0291 30702.0251 -12.6118 56.4188
ENERGY: 900000 1.8573 5.3843 3.0354 0.0000 -10766.8936 1505.0139 0.0000 0.0000 1723.7830 -7527.8196 292.3650 -9251.6026 -7487.6583 298.9210 145.3803 212.8854 30980.1009 -41.6867 29.9778
ENERGY: 1200000 1.2601 3.9180 3.4701 0.0000 -10637.9905 1438.4440 0.0000 0.0000 1783.3772 -7407.5212 302.4726 -9190.8984 -7472.6501 300.6586 -86.4305 -18.1173 30632.4791 -73.5213 -0.5556
ENERGY: 1500000 2.0390 14.1232 4.3026 0.0000 -10787.0868 1445.5283 0.0000 0.0000 1834.3774 -7486.7163 311.1226 -9321.0937 -7467.4534 301.8339 -256.9336 -191.1117 30494.6996 -33.4864 39.7227
TCL: Running FEP window  19: Lambda1 0.09999999999999969 Lambda2 0.049999999999999684 [dLambda -0.05 ]
TCL: Setting parameter firsttimestep to 0
TCL: Setting parameter alchLambda to 0.09999999999999969
Info: NONBONDED TABLE R-SQUARED SPACING: 0.0625
Info: NONBONDED TABLE SIZE: 705 POINTS
TCL: Setting parameter alchLambda2 to 0.049999999999999684
Info: NONBONDED TABLE R-SQUARED SPACING: 0.0625
Info: NONBONDED TABLE SIZE: 705 POINTS
TCL: Running for 1500000 steps
ETITLE: TS BOND ANGLE DIHED IMPRP ELECT VDW BOUNDARY MISC KINETIC TOTAL TEMP POTENTIAL TOTALAVG TEMPAVG PRESSURE GPRESSURE VOLUME PRESSAVG GPRESSAVG
ENERGY: 0 2.0390 14.1232 4.3026 0.0000 -10787.0871 1445.5307 0.0000 0.0000 1833.5080 -7487.5836 310.9751 -9321.0916 -7487.5836 310.9751 -277.7403 -195.9696 30494.6996 -277.7403 -195.9696
ENERGY: 300000 0.8178 6.1487 4.0996 0.0000 -10718.8939 1433.1141 0.0000 0.0000 1814.8913 -7459.8226 307.8176 -9274.7138 -7478.0199 305.9393 -109.9856 -6.8006 30261.8600 -279.8205 -222.3404
ENERGY: 600000 2.4473 7.5036 3.0637 0.0000 -10588.0235 1317.5185 0.0000 0.0000 1771.4058 -7486.0847 300.4422 -9257.4905 -7493.7833 303.6243 -877.8878 -829.8297 30131.2016 -144.8922 -91.2252
ENERGY: 900000 2.4275 7.6599 3.7141 0.0000 -10559.5382 1387.4035 0.0000 0.0000 1757.5109 -7400.8224 298.0855 -9158.3333 -7491.7928 302.0330 -679.1000 -579.7022 31329.0701 -161.5259 -98.6601
ENERGY: 1200000 2.4595 8.3967 3.4056 0.0000 -10674.4572 1417.4790 0.0000 0.0000 1765.5256 -7477.1908 299.4449 -9242.7164 -7483.6848 301.3362 -370.1814 -351.3687 30802.0922 -165.4634 -100.0118
ENERGY: 1500000 3.7150 8.0573 3.2149 0.0000 -10765.0897 1436.0438 0.0000 0.0000 1796.8747 -7517.1840 304.7619 -9314.0587 -7485.6726 301.3612 56.4544 79.1386 29953.3341 -221.6406 -156.5246
TCL: Running FEP window  20: Lambda1 0.049999999999999684 Lambda2 0.0    [dLambda -0.049999999999999684]
TCL: Setting parameter firsttimestep to 0
TCL: Setting parameter alchLambda to 0.049999999999999684
Info: NONBONDED TABLE R-SQUARED SPACING: 0.0625
Info: NONBONDED TABLE SIZE: 705 POINTS
TCL: Setting parameter alchLambda2 to 0.0
Info: NONBONDED TABLE R-SQUARED SPACING: 0.0625
Info: NONBONDED TABLE SIZE: 705 POINTS
TCL: Running for 1500000 steps
ETITLE: TS BOND ANGLE DIHED IMPRP ELECT VDW BOUNDARY MISC KINETIC TOTAL TEMP POTENTIAL TOTALAVG TEMPAVG PRESSURE GPRESSURE VOLUME PRESSAVG GPRESSAVG
ENERGY: 0 3.7150 8.0573 3.2149 0.0000 -10765.0908 1435.3199 0.0000 0.0000 1796.0151 -7518.7686 304.6161 -9314.7837 -7518.7686 304.6161 -18.2408 73.8571 29953.3341 -18.2408 73.8571
ENERGY: 300000 0.2497 8.7298 5.2162 0.0000 -10714.4817 1460.3804 0.0000 0.0000 1723.2509 -7516.6547 292.2748 -9239.9056 -7523.9116 298.2024 198.4972 315.9833 30364.3123 -50.4343 32.6841
ENERGY: 600000 0.9534 11.3375 6.2081 0.0000 -10755.0196 1470.9622 0.0000 0.0000 1785.1973 -7480.3612 302.7813 -9265.5584 -7515.9522 300.5398 563.0335 619.2968 29927.2392 98.8864 163.7943
ENERGY: 900000 2.0245 10.8960 3.9854 0.0000 -10740.4729 1471.7230 0.0000 0.0000 1767.5280 -7484.3160 299.7845 -9251.8440 -7517.7814 298.5661 502.6695 590.3841 30055.4606 109.6139 176.5846
ENERGY: 1200000 1.8096 7.6455 4.0648 0.0000 -10604.2552 1336.6326 0.0000 0.0000 1776.6939 -7477.4089 301.3391 -9254.1028 -7518.4854 298.8818 -1058.3501 -970.0554 30701.2390 17.6527 79.7878
ENERGY: 1500000 0.9353 8.2455 2.9366 0.0000 -10649.0763 1435.2916 0.0000 0.0000 1787.0776 -7414.5897 303.1002 -9201.6673 -7522.8467 299.2463 12.1151 123.8116 30679.2209 10.9058 76.5422
TCL: Exiting due to exit command.
