Info: SIMULATION PARAMETERS:
Info: TIMESTEP               2
Info: NUMBER OF STEPS        0
Info: STEPS PER CYCLE        10
Info: PERIODIC CELL BASIS 1  30.2085 0 0
Info: PERIODIC CELL BASIS 2  0 31.5967 0
Info: PERIODIC CELL BASIS 3  0 0 31.5473
Info: PERIODIC CELL CENTER   0 0 0
Info: WRAPPING WATERS AROUND PERIODIC BOUNDARIES ON OUTPUT.
Info: WRAPPING ALL CLUSTERS AROUND PERIODIC BOUNDARIES ON OUTPUT.
Info: FIRST LDB TIMESTEP     50
Info: LAST LDB TIMESTEP     -1
Info: HOM BACKGROUND SCALING 1
Info: PME BACKGROUND SCALING 1
Info: MIN ATOMS PER PATCH    40
Info: EMPTY PATCH LOAD       40 ATOMS
Info: VELOCITY FILE          mobley_6854178_equil.vel
Info: CENTER OF MASS MOVING INITIALLY? NO
Info: DIELECTRIC             1
Info: EXCLUDE                SCALED ONE-FOUR
Info: 1-4 ELECTROSTATICS SCALED BY 0.833333
Info: MODIFIED 1-4 VDW PARAMETERS WILL BE USED
Info: DCD FILENAME           mobley_6854178_prod.dcd
Info: DCD FREQUENCY          100000
Info: DCD FIRST STEP         100000
Info: DCD FILE WILL CONTAIN UNIT CELL DATA
Info: XST FILENAME           mobley_6854178_prod.xst
Info: XST FREQUENCY          100000
Info: NO VELOCITY DCD OUTPUT
Info: NO FORCE DCD OUTPUT
Info: OUTPUT FILENAME        mobley_6854178_prod
Info: BINARY OUTPUT FILES WILL BE USED
Info: RESTART FILENAME       mobley_6854178_prod.restart
Info: RESTART FREQUENCY      100000
Info: BINARY RESTART FILES WILL BE USED
Info: CUTOFF                 9
Info: PAIRLIST DISTANCE      11
Info: PAIRLIST SHRINK RATE   0.01
Info: PAIRLIST GROW RATE     0.01
Info: PAIRLIST TRIGGER       0.3
Info: PAIRLISTS PER CYCLE    2
Info: PAIRLISTS ENABLED
Info: MARGIN                 2
Info: HYDROGEN GROUP CUTOFF  2.5
Info: PATCH DIMENSION        15.5
Info: ENERGY OUTPUT STEPS    100000
Info: ENERGY EVALUATION STEPS    100000
Info: OUTPUT ENERGY PRECISION 4
Info: CROSSTERM ENERGY INCLUDED IN DIHEDRAL
Info: TIMING OUTPUT STEPS    1000000
Info: PRESSURE OUTPUT STEPS  100000
Info: ALCHEMICAL FEP ON
Info: FEP CURRENT LAMBDA VALUE     1
Info: FEP COMPARISON LAMBDA VALUE  0.95
Info: FEP INTRA-ALCHEMICAL NON-BONDED INTERACTIONS WILL BE RETAINED
Info: FEP INTRA-ALCHEMICAL BONDED INTERACTIONS WILL BE RETAINED
Info: FEP VDW SHIFTING COEFFICIENT 5
Info: FEP ELEC. ACTIVE FOR ANNIHILATED PARTICLES BETWEEN LAMBDA = 0 AND LAMBDA = 0.5
Info: FEP ELEC. ACTIVE FOR EXNIHILATED PARTICLES BETWEEN LAMBDA = 0.5 AND LAMBDA = 1
Info: FEP VDW ACTIVE FOR ANNIHILATED PARTICLES BETWEEN LAMBDA = 0 AND LAMBDA = 1
Info: FEP VDW ACTIVE FOR EXNIHILATED PARTICLES BETWEEN LAMBDA = 0 AND LAMBDA = 1
Info: FEP BOND ACTIVE FOR ANNIHILATED PARTICLES BETWEEN LAMBDA = 1 AND LAMBDA = 1
Info: FEP BOND ACTIVE FOR EXNIHILATED PARTICLES BETWEEN LAMBDA = 0 AND LAMBDA = 0
Info: LANGEVIN DYNAMICS ACTIVE
Info: LANGEVIN TEMPERATURE   300
Info: LANGEVIN USING BBK INTEGRATOR
Info: LANGEVIN DAMPING COEFFICIENT IS 1 INVERSE PS
Info: LANGEVIN DYNAMICS APPLIED TO HYDROGENS
Info: LANGEVIN PISTON PRESSURE CONTROL ACTIVE
Info:        TARGET PRESSURE IS 1.01325 BAR
Info:     OSCILLATION PERIOD IS 50 FS
Info:             DECAY TIME IS 25 FS
Info:     PISTON TEMPERATURE IS 300 K
Info:       PRESSURE CONTROL IS GROUP-BASED
Info:    INITIAL STRAIN RATE IS 0.000749118 0.000749118 0.000749118
Info:       CELL FLUCTUATION IS ISOTROPIC
Info: PARTICLE MESH EWALD (PME) ACTIVE
Info: PME TOLERANCE               1e-06
Info: PME EWALD COEFFICIENT       0.348832
Info: PME INTERPOLATION ORDER     4
Info: PME GRID DIMENSIONS         32 32 32
Info: PME MAXIMUM GRID SPACING    1
Info: PME CALCULATION WILL BE PERFORMED ON GPU
Info: FULL ELECTROSTATIC EVALUATION FREQUENCY      2
Info: USING VERLET I (r-RESPA) MTS SCHEME.
Info: C1 SPLITTING OF LONG RANGE ELECTROSTATICS
Info: PLACING ATOMS IN PATCHES BY HYDROGEN GROUPS
Info: RIGID BONDS TO HYDROGEN : ALL
Info:         ERROR TOLERANCE : 1e-08
Info:          MAX ITERATIONS : 100
Info: RIGID WATER USING SETTLE ALGORITHM
Info: RANDOM NUMBER SEED     1743831639
Info: USE HYDROGEN BONDS?    NO
Info: Using AMBER format force field!
Info: AMBER PARM FILE        mobley_6854178.prmtop
Info: COORDINATE PDB         mobley_6854178.pdb
Info: Exclusions will be read from PARM file!
Info: SCNB (VDW SCALING)     2
Info: USING ARITHMETIC MEAN TO COMBINE L-J SIGMA PARAMETERS
Info: BINARY COORDINATES     mobley_6854178_equil.coor
Info: SUMMARY OF PARAMETERS:
Info: 9 BONDS
Info: 10 ANGLES
Info:   10 HARMONIC
Info:   0 COSINE-BASED
Info: 10 DIHEDRAL
Info: 0 IMPROPER
Info: 0 CROSSTERM
Info: 0 VDW
Info: 45 VDW_PAIRS
Info: 0 NBTHOLE_PAIRS
Info: To read alchdata from file: mobley_6854178.pdb
Info: To read alchflag data from column: 5
Info: STRUCTURE SUMMARY:
Info: 2912 ATOMS
Info: 2911 BONDS
Info: 22 ANGLES
Info: 33 DIHEDRALS
Info: 0 IMPROPERS
Info: 0 CROSSTERMS
Info: 2956 EXCLUSIONS
Info: 2906 RIGID BONDS
Info: ALCH: 0 ATOMS TO DISAPPEAR IN FINAL STATE
Info: ALCH: 14 ATOMS TO APPEAR IN FINAL STATE
Info: 5830 DEGREES OF FREEDOM
Info: 972 HYDROGEN GROUPS
Info: 4 ATOMS IN LARGEST HYDROGEN GROUP
Info: 972 MIGRATION GROUPS
Info: 4 ATOMS IN LARGEST MIGRATION GROUP
Info: TOTAL MASS = 17491.6 amu
Info: TOTAL CHARGE = 7.45058e-08 e
Info: MASS DENSITY = 0.964616 g/cm^3
Info: ATOM DENSITY = 0.096707 atoms/A^3
Info: ADDED 0 IMPLICIT EXCLUSIONS
Info: NONBONDED TABLE R-SQUARED SPACING: 0.0625
Info: NONBONDED TABLE SIZE: 705 POINTS
Info: REMOVING COM VELOCITY 0.0124818 -0.0513467 -0.0975291
Info: Use 3D box decompostion in PME FFT.
Info: Updated CUDA force table with 4096 elements.
Info: Updated CUDA LJ table with 9 x 9 elements.
Info: Found 17 unique exclusion lists needing 36 bytes
TCL: Running for 1500000 steps
ETITLE: TS BOND ANGLE DIHED IMPRP ELECT VDW BOUNDARY MISC KINETIC TOTAL TEMP POTENTIAL TOTALAVG TEMPAVG PRESSURE GPRESSURE VOLUME PRESSAVG GPRESSAVG
ENERGY: 0 1.6554 5.9217 6.4274 0.0000 -10496.8249 1347.2724 0.0000 0.0000 1752.1977 -7383.3503 302.4858 -9135.5480 -7383.3503 302.4858 -682.6757 -598.5135 30111.5603 -682.6757 -598.5135
ENERGY: 300000 3.5524 3.2702 6.3531 0.0000 -10628.9560 1491.4094 0.0000 0.0000 1680.9935 -7443.3774 290.1936 -9124.3709 -7409.4416 297.2213 461.6540 571.0565 29938.3108 51.1782 141.5170
ENERGY: 600000 0.3386 5.2557 5.0940 0.0000 -10422.0740 1311.5192 0.0000 0.0000 1775.5355 -7324.3311 306.5146 -9099.8666 -7396.7308 299.6069 -917.1830 -811.0880 30660.2278 -308.3451 -219.5463
ENERGY: 900000 0.3983 6.8897 4.7246 0.0000 -10669.4390 1465.4406 0.0000 0.0000 1728.4219 -7463.5639 298.3813 -9191.9858 -7393.6069 300.3096 421.4248 504.3986 29570.6780 -224.5532 -141.8173
ENERGY: 1200000 0.7038 9.2649 6.4165 0.0000 -10488.3292 1376.7000 0.0000 0.0000 1697.2900 -7397.9541 293.0069 -9095.2441 -7391.5053 300.2336 -334.6173 -254.3424 30078.1236 -261.5961 -177.1083
ENERGY: 1500000 2.7230 6.0946 4.8740 0.0000 -10576.9530 1411.5278 0.0000 0.0000 1756.2533 -7395.4802 303.1859 -9151.7336 -7393.5580 300.5025 5.7446 -7.2554 30048.2467 -210.0100 -137.0446
TCL: Running FEP window   2: Lambda1 0.95   Lambda2 0.8999999999999999 [dLambda -0.050000000000000044]
TCL: Setting parameter firsttimestep to 0
TCL: Setting parameter alchLambda to 0.95
Info: NONBONDED TABLE R-SQUARED SPACING: 0.0625
Info: NONBONDED TABLE SIZE: 705 POINTS
TCL: Setting parameter alchLambda2 to 0.8999999999999999
Info: NONBONDED TABLE R-SQUARED SPACING: 0.0625
Info: NONBONDED TABLE SIZE: 705 POINTS
TCL: Running for 1500000 steps
ETITLE: TS BOND ANGLE DIHED IMPRP ELECT VDW BOUNDARY MISC KINETIC TOTAL TEMP POTENTIAL TOTALAVG TEMPAVG PRESSURE GPRESSURE VOLUME PRESSAVG GPRESSAVG
ENERGY: 0 2.7230 6.0946 4.8740 0.0000 -10575.5753 1410.5875 0.0000 0.0000 1755.3918 -7395.9044 303.0372 -9151.2962 -7395.9044 303.0372 -107.0404 -25.9544 30048.2467 -107.0404 -25.9544
ENERGY: 300000 2.6156 11.3692 5.5566 0.0000 -10681.0022 1443.5306 0.0000 0.0000 1795.9704 -7421.9599 310.0423 -9217.9303 -7392.4950 303.5122 130.6998 231.7415 29898.3463 -208.9997 -138.9604
ENERGY: 600000 0.9606 3.9192 4.6544 0.0000 -10575.7456 1421.8262 0.0000 0.0000 1786.8786 -7357.5066 308.4728 -9144.3852 -7371.8472 304.4790 298.8994 342.1525 29714.2230 25.9105 92.7321
ENERGY: 900000 2.5165 8.6909 5.6706 0.0000 -10603.6596 1485.3550 0.0000 0.0000 1786.3683 -7315.0584 308.3847 -9101.4266 -7362.7118 305.8690 685.6970 706.4106 30139.9326 35.4411 96.8517
ENERGY: 1200000 0.9167 9.2325 4.9626 0.0000 -10734.8222 1462.3247 0.0000 0.0000 1754.0799 -7503.3058 302.8107 -9257.3856 -7384.9471 304.1992 -1.4192 32.2178 30012.1549 68.7395 127.0317
ENERGY: 1500000 3.8609 3.6239 7.3524 0.0000 -10616.2648 1400.7363 0.0000 0.0000 1694.2160 -7506.4753 292.4763 -9200.6914 -7390.6613 303.4399 -201.3833 -122.3031 29526.2922 -30.1074 31.2195
TCL: Running FEP window   3: Lambda1 0.8999999999999999 Lambda2 0.8499999999999999 [dLambda -0.050000000000000044]
TCL: Setting parameter firsttimestep to 0
TCL: Setting parameter alchLambda to 0.8999999999999999
Info: NONBONDED TABLE R-SQUARED SPACING: 0.0625
Info: NONBONDED TABLE SIZE: 705 POINTS
TCL: Setting parameter alchLambda2 to 0.8499999999999999
Info: NONBONDED TABLE R-SQUARED SPACING: 0.0625
Info: NONBONDED TABLE SIZE: 705 POINTS
TCL: Running for 1500000 steps
ETITLE: TS BOND ANGLE DIHED IMPRP ELECT VDW BOUNDARY MISC KINETIC TOTAL TEMP POTENTIAL TOTALAVG TEMPAVG PRESSURE GPRESSURE VOLUME PRESSAVG GPRESSAVG
ENERGY: 0 3.8609 3.6239 7.3524 0.0000 -10615.1408 1400.6962 0.0000 0.0000 1693.3925 -7506.2149 292.3341 -9199.6073 -7506.2149 292.3341 -208.8721 -130.3088 29526.2922 -208.8721 -130.3088
ENERGY: 300000 2.0557 6.7098 4.6569 0.0000 -10397.2214 1376.2693 0.0000 0.0000 1737.3357 -7270.1940 299.9201 -9007.5297 -7382.7917 296.9607 -92.0330 1.8481 30228.1741 58.4836 149.0135
ENERGY: 600000 0.5807 1.7972 5.8902 0.0000 -10593.2475 1451.0078 0.0000 0.0000 1708.9338 -7425.0378 295.0170 -9133.9716 -7404.0143 297.8623 418.4795 404.3881 29659.2022 -128.4743 -58.7985
ENERGY: 900000 2.5606 4.2170 5.5095 0.0000 -10559.3620 1422.8047 0.0000 0.0000 1737.3102 -7386.9600 299.9157 -9124.2702 -7412.4153 298.7041 277.9592 285.6070 29752.8357 8.3913 71.6267
ENERGY: 1200000 1.1813 5.5955 6.7636 0.0000 -10571.4682 1409.4694 0.0000 0.0000 1712.6730 -7435.7854 295.6625 -9148.4584 -7416.8572 297.6828 -414.2053 -274.6197 30299.5108 -101.8698 -27.4121
ENERGY: 1500000 1.6836 4.3968 4.5494 0.0000 -10535.8043 1373.6152 0.0000 0.0000 1712.6425 -7438.9170 295.6573 -9151.5594 -7413.0889 297.8530 -290.1629 -218.2862 29856.2845 -110.2493 -31.2816
TCL: Running FEP window   4: Lambda1 0.8499999999999999 Lambda2 0.7999999999999998 [dLambda -0.050000000000000044]
TCL: Setting parameter firsttimestep to 0
TCL: Setting parameter alchLambda to 0.8499999999999999
Info: NONBONDED TABLE R-SQUARED SPACING: 0.0625
Info: NONBONDED TABLE SIZE: 705 POINTS
TCL: Setting parameter alchLambda2 to 0.7999999999999998
Info: NONBONDED TABLE R-SQUARED SPACING: 0.0625
Info: NONBONDED TABLE SIZE: 705 POINTS
TCL: Running for 1500000 steps
ETITLE: TS BOND ANGLE DIHED IMPRP ELECT VDW BOUNDARY MISC KINETIC TOTAL TEMP POTENTIAL TOTALAVG TEMPAVG PRESSURE GPRESSURE VOLUME PRESSAVG GPRESSAVG
ENERGY: 0 1.6836 4.3968 4.5494 0.0000 -10534.6941 1372.9096 0.0000 0.0000 1711.7592 -7439.3956 295.5048 -9151.1548 -7439.3956 295.5048 -322.2458 -234.8937 29856.2845 -322.2458 -234.8937
ENERGY: 300000 1.8216 4.4527 5.2295 0.0000 -10647.5982 1450.7775 0.0000 0.0000 1733.2794 -7452.0374 299.2199 -9185.3168 -7453.0370 296.6127 404.9197 442.6260 29633.8199 -83.5806 -9.7911
ENERGY: 600000 2.2105 6.0369 4.7558 0.0000 -10611.8856 1458.6600 0.0000 0.0000 1752.5803 -7387.6421 302.5518 -9140.2224 -7427.2712 298.8405 140.0810 197.0846 30079.7672 -7.3120 50.2509
ENERGY: 900000 2.1192 10.3792 6.7116 0.0000 -10648.3971 1505.4669 0.0000 0.0000 1725.3254 -7398.3948 297.8467 -9123.7202 -7413.8410 300.8047 651.9829 725.9783 29992.8676 215.0998 273.0713
ENERGY: 1200000 0.7096 9.3147 5.9066 0.0000 -10534.7542 1427.2205 0.0000 0.0000 1697.4669 -7394.1360 293.0375 -9091.6030 -7421.4129 299.7901 73.2439 109.7156 30398.4053 161.8092 216.2148
ENERGY: 1500000 0.7467 4.5841 5.7102 0.0000 -10467.3226 1384.3838 0.0000 0.0000 1741.4627 -7330.4350 300.6326 -9071.8978 -7407.6394 299.9645 -105.0934 -22.3317 30307.9430 144.3801 203.7928
TCL: Running FEP window   5: Lambda1 0.7999999999999998 Lambda2 0.7499999999999998 [dLambda -0.050000000000000044]
TCL: Setting parameter firsttimestep to 0
TCL: Setting parameter alchLambda to 0.7999999999999998
Info: NONBONDED TABLE R-SQUARED SPACING: 0.0625
Info: NONBONDED TABLE SIZE: 705 POINTS
TCL: Setting parameter alchLambda2 to 0.7499999999999998
Info: NONBONDED TABLE R-SQUARED SPACING: 0.0625
Info: NONBONDED TABLE SIZE: 705 POINTS
TCL: Running for 1500000 steps
ETITLE: TS BOND ANGLE DIHED IMPRP ELECT VDW BOUNDARY MISC KINETIC TOTAL TEMP POTENTIAL TOTALAVG TEMPAVG PRESSURE GPRESSURE VOLUME PRESSAVG GPRESSAVG
ENERGY: 0 0.7467 4.5841 5.7102 0.0000 -10466.6024 1384.9183 0.0000 0.0000 1740.5866 -7330.0564 300.4813 -9070.6431 -7330.0564 300.4813 -104.7001 -21.9902 30307.9430 -104.7001 -21.9902
ENERGY: 300000 1.8244 7.7866 4.9590 0.0000 -10687.4655 1438.5150 0.0000 0.0000 1754.8051 -7479.5754 302.9359 -9234.3806 -7402.3018 301.1666 -444.3388 -380.2546 30374.2018 -57.0191 14.8866
ENERGY: 600000 2.0760 5.4351 7.0358 0.0000 -10634.5600 1530.7445 0.0000 0.0000 1735.0215 -7354.2471 299.5206 -9089.2685 -7388.1430 301.1328 838.0579 907.0087 30095.3697 117.9951 193.6321
ENERGY: 900000 0.7505 5.0010 6.5278 0.0000 -10650.2843 1428.0090 0.0000 0.0000 1759.5367 -7450.4592 303.7527 -9209.9959 -7386.3846 301.6421 255.4231 244.7504 29333.9499 98.9333 157.3542
ENERGY: 1200000 3.1807 5.3577 4.7976 0.0000 -10622.1866 1420.1784 0.0000 0.0000 1735.7803 -7452.8920 299.6516 -9188.6723 -7390.6231 301.3797 -201.6605 -17.4345 29686.1323 0.1733 64.5586
ENERGY: 1500000 1.3062 5.1808 4.7257 0.0000 -10412.8666 1334.8436 0.0000 0.0000 1732.5650 -7334.2454 299.0965 -9066.8103 -7396.8018 300.3376 -658.0073 -565.7340 30430.6547 -85.7663 -10.9591
TCL: Running FEP window   6: Lambda1 0.7499999999999998 Lambda2 0.6999999999999997 [dLambda -0.050000000000000044]
TCL: Setting parameter firsttimestep to 0
TCL: Setting parameter alchLambda to 0.7499999999999998
Info: NONBONDED TABLE R-SQUARED SPACING: 0.0625
Info: NONBONDED TABLE SIZE: 705 POINTS
TCL: Setting parameter alchLambda2 to 0.6999999999999997
Info: NONBONDED TABLE R-SQUARED SPACING: 0.0625
Info: NONBONDED TABLE SIZE: 705 POINTS
TCL: Running for 1500000 steps
ETITLE: TS BOND ANGLE DIHED IMPRP ELECT VDW BOUNDARY MISC KINETIC TOTAL TEMP POTENTIAL TOTALAVG TEMPAVG PRESSURE GPRESSURE VOLUME PRESSAVG GPRESSAVG
ENERGY: 0 1.3062 5.1808 4.7257 0.0000 -10411.7679 1334.4126 0.0000 0.0000 1731.7451 -7334.3974 298.9550 -9066.1426 -7334.3974 298.9550 -644.1079 -576.6332 30430.6547 -644.1079 -576.6332
ENERGY: 300000 2.5370 9.0404 4.9613 0.0000 -10456.8715 1378.3996 0.0000 0.0000 1753.6490 -7308.2842 302.7363 -9061.9332 -7374.1714 297.8766 -38.6067 30.1469 29772.8827 -223.8481 -153.2531
ENERGY: 600000 0.8665 5.0113 7.7349 0.0000 -10540.4510 1392.4719 0.0000 0.0000 1709.9804 -7424.3860 295.1977 -9134.3663 -7398.2832 297.0519 -406.0339 -344.2612 30214.3255 -116.8702 -49.5016
ENERGY: 900000 1.9985 5.7935 4.6392 0.0000 -10579.9498 1440.5406 0.0000 0.0000 1716.6232 -7410.3547 296.3445 -9126.9779 -7386.7228 298.6595 116.3838 223.3770 29967.2074 -84.4520 -15.4519
ENERGY: 1200000 0.2062 6.4510 5.6467 0.0000 -10592.2546 1407.8751 0.0000 0.0000 1725.6863 -7446.3893 297.9090 -9172.0756 -7383.2146 299.9082 -326.6696 -284.8245 30103.1815 -47.3659 21.9501
ENERGY: 1500000 1.2630 9.4113 6.6630 0.0000 -10643.9893 1458.9906 0.0000 0.0000 1769.6125 -7398.0488 305.4921 -9167.6613 -7383.5895 300.5869 492.7369 503.5935 29721.5562 0.5616 63.6564
TCL: Running FEP window   7: Lambda1 0.6999999999999997 Lambda2 0.6499999999999997 [dLambda -0.050000000000000044]
TCL: Setting parameter firsttimestep to 0
TCL: Setting parameter alchLambda to 0.6999999999999997
Info: NONBONDED TABLE R-SQUARED SPACING: 0.0625
Info: NONBONDED TABLE SIZE: 705 POINTS
TCL: Setting parameter alchLambda2 to 0.6499999999999997
Info: NONBONDED TABLE R-SQUARED SPACING: 0.0625
Info: NONBONDED TABLE SIZE: 705 POINTS
TCL: Running for 1500000 steps
ETITLE: TS BOND ANGLE DIHED IMPRP ELECT VDW BOUNDARY MISC KINETIC TOTAL TEMP POTENTIAL TOTALAVG TEMPAVG PRESSURE GPRESSURE VOLUME PRESSAVG GPRESSAVG
ENERGY: 0 1.2630 9.4113 6.6630 0.0000 -10642.6038 1458.8019 0.0000 0.0000 1768.7658 -7397.6989 305.3459 -9166.4646 -7397.6989 305.3459 420.3664 495.3631 29721.5562 420.3664 495.3631
ENERGY: 300000 2.4726 10.0914 5.1337 0.0000 -10613.5088 1517.3077 0.0000 0.0000 1674.9807 -7403.5227 289.1556 -9078.5034 -7397.6055 298.5084 1063.7851 1129.3857 29756.4779 120.3496 195.5609
ENERGY: 600000 1.7510 4.9268 7.3331 0.0000 -10490.3558 1316.9412 0.0000 0.0000 1794.1544 -7365.2493 309.7288 -9159.4037 -7370.3615 301.9285 -900.8725 -842.8334 30090.8184 108.4256 187.5090
ENERGY: 900000 1.1380 4.7058 6.2782 0.0000 -10418.0144 1295.5803 0.0000 0.0000 1771.1021 -7339.2099 305.7493 -9110.3120 -7365.8038 301.5704 -888.7316 -815.8297 29951.6739 -7.5940 61.9826
ENERGY: 1200000 1.4681 5.1427 4.5321 0.0000 -10530.3149 1357.8116 0.0000 0.0000 1778.1741 -7383.1863 306.9701 -9161.3604 -7370.8734 301.3015 -474.6578 -421.8716 29843.8274 -21.2610 44.5691
ENERGY: 1500000 1.9018 6.6372 5.3992 0.0000 -10514.2135 1425.6837 0.0000 0.0000 1750.6456 -7323.9459 302.2178 -9074.5915 -7366.9250 301.3111 331.3630 421.3210 29848.7836 -33.9717 25.8317
TCL: Running FEP window   8: Lambda1 0.6499999999999997 Lambda2 0.5999999999999996 [dLambda -0.050000000000000044]
TCL: Setting parameter firsttimestep to 0
TCL: Setting parameter alchLambda to 0.6499999999999997
Info: NONBONDED TABLE R-SQUARED SPACING: 0.0625
Info: NONBONDED TABLE SIZE: 705 POINTS
TCL: Setting parameter alchLambda2 to 0.5999999999999996
Info: NONBONDED TABLE R-SQUARED SPACING: 0.0625
Info: NONBONDED TABLE SIZE: 705 POINTS
TCL: Running for 1500000 steps
ETITLE: TS BOND ANGLE DIHED IMPRP ELECT VDW BOUNDARY MISC KINETIC TOTAL TEMP POTENTIAL TOTALAVG TEMPAVG PRESSURE GPRESSURE VOLUME PRESSAVG GPRESSAVG
ENERGY: 0 1.9018 6.6372 5.3992 0.0000 -10513.8838 1425.3877 0.0000 0.0000 1749.7909 -7324.7669 302.0703 -9074.5579 -7324.7669 302.0703 320.9418 410.9339 29848.7836 320.9418 410.9339
ENERGY: 300000 0.3365 5.9840 5.1249 0.0000 -10437.2484 1325.1954 0.0000 0.0000 1816.3178 -7284.2897 313.5550 -9100.6075 -7340.8708 306.8234 -375.0465 -304.3331 29614.0140 89.3363 150.3100
ENERGY: 600000 3.2559 5.9209 5.0370 0.0000 -10502.3435 1441.1942 0.0000 0.0000 1742.4533 -7304.4824 300.8036 -9046.9356 -7356.9926 304.5188 227.9940 261.3071 30441.8424 35.1425 87.8119
ENERGY: 900000 2.7421 5.0351 6.0464 0.0000 -10538.9746 1463.0899 0.0000 0.0000 1731.2669 -7330.7943 298.8724 -9062.0612 -7353.0149 303.4986 569.5747 635.1007 29902.8160 38.7814 98.6235
ENERGY: 1200000 1.4641 7.8654 6.2716 0.0000 -10620.7874 1481.4408 0.0000 0.0000 1699.3084 -7424.4370 293.3554 -9123.7454 -7363.7696 302.3560 493.6503 591.4648 29716.5553 119.6876 177.5196
ENERGY: 1500000 1.2709 8.4198 7.0438 0.0000 -10488.8771 1342.4518 0.0000 0.0000 1764.6796 -7365.0111 304.6405 -9129.6907 -7367.3228 302.0082 -596.4347 -540.9063 29815.5090 73.3752 129.1004
TCL: Running FEP window   9: Lambda1 0.5999999999999996 Lambda2 0.5499999999999996 [dLambda -0.050000000000000044]
TCL: Setting parameter firsttimestep to 0
TCL: Setting parameter alchLambda to 0.5999999999999996
Info: NONBONDED TABLE R-SQUARED SPACING: 0.0625
Info: NONBONDED TABLE SIZE: 705 POINTS
TCL: Setting parameter alchLambda2 to 0.5499999999999996
Info: NONBONDED TABLE R-SQUARED SPACING: 0.0625
Info: NONBONDED TABLE SIZE: 705 POINTS
TCL: Running for 1500000 steps
ETITLE: TS BOND ANGLE DIHED IMPRP ELECT VDW BOUNDARY MISC KINETIC TOTAL TEMP POTENTIAL TOTALAVG TEMPAVG PRESSURE GPRESSURE VOLUME PRESSAVG GPRESSAVG
ENERGY: 0 1.2709 8.4198 7.0438 0.0000 -10487.4559 1341.8783 0.0000 0.0000 1763.7761 -7365.0670 304.4846 -9128.8431 -7365.0670 304.4846 -644.7566 -549.1872 29815.5090 -644.7566 -549.1872
ENERGY: 300000 2.8789 5.3544 5.5701 0.0000 -10689.5631 1462.0037 0.0000 0.0000 1728.9217 -7484.8342 298.4676 -9213.7559 -7380.2656 306.8739 -103.4328 -44.7836 29978.4753 -182.5220 -122.9546
ENERGY: 600000 1.9395 6.6102 4.9947 0.0000 -10505.2450 1387.8021 0.0000 0.0000 1776.6416 -7327.2570 306.7056 -9103.8986 -7366.5418 305.2562 -325.0066 -258.0163 30519.1986 -221.4563 -165.7827
ENERGY: 900000 1.7451 8.7715 4.0047 0.0000 -10648.7047 1500.6138 0.0000 0.0000 1711.4703 -7422.0993 295.4549 -9133.5696 -7363.2682 303.8906 501.6065 570.9625 30168.2518 -86.8054 -25.4019
ENERGY: 1200000 0.3951 6.1266 5.5607 0.0000 -10543.2140 1441.8186 0.0000 0.0000 1723.3225 -7365.9905 297.5010 -9089.3130 -7371.7952 303.4343 551.6757 656.7044 29472.2791 70.7118 142.3880
ENERGY: 1500000 1.7377 3.6402 5.6121 0.0000 -10564.6941 1450.5368 0.0000 0.0000 1751.8820 -7351.2852 302.4313 -9103.1672 -7371.9858 302.6997 302.6284 390.5414 29474.0867 43.8516 115.2066
TCL: Running FEP window  10: Lambda1 0.5499999999999996 Lambda2 0.4999999999999996 [dLambda -0.04999999999999999]
TCL: Setting parameter firsttimestep to 0
TCL: Setting parameter alchLambda to 0.5499999999999996
Info: NONBONDED TABLE R-SQUARED SPACING: 0.0625
Info: NONBONDED TABLE SIZE: 705 POINTS
TCL: Setting parameter alchLambda2 to 0.4999999999999996
Info: NONBONDED TABLE R-SQUARED SPACING: 0.0625
Info: NONBONDED TABLE SIZE: 705 POINTS
TCL: Running for 1500000 steps
ETITLE: TS BOND ANGLE DIHED IMPRP ELECT VDW BOUNDARY MISC KINETIC TOTAL TEMP POTENTIAL TOTALAVG TEMPAVG PRESSURE GPRESSURE VOLUME PRESSAVG GPRESSAVG
ENERGY: 0 1.7377 3.6402 5.6121 0.0000 -10563.0619 1450.0431 0.0000 0.0000 1751.0300 -7350.9987 302.2842 -9102.0288 -7350.9987 302.2842 292.7155 382.3562 29474.0867 292.7155 382.3562
ENERGY: 300000 0.3973 9.3812 4.5144 0.0000 -10540.7989 1377.1450 0.0000 0.0000 1708.8124 -7440.5486 294.9961 -9149.3610 -7418.1452 297.8832 -424.6943 -330.3764 29755.2401 -154.2870 -76.0606
ENERGY: 600000 1.0021 3.7887 4.5222 0.0000 -10693.6898 1528.4108 0.0000 0.0000 1784.1821 -7371.7839 308.0073 -9155.9660 -7396.0439 299.1537 755.5877 835.4617 30027.5516 51.9976 118.3819
ENERGY: 900000 1.0673 4.1490 6.2513 0.0000 -10651.1246 1446.8802 0.0000 0.0000 1648.6482 -7544.1286 284.6098 -9192.7769 -7414.0064 297.7778 44.5626 99.0844 29819.9148 -1.2476 65.7765
ENERGY: 1200000 0.7808 4.7616 6.2560 0.0000 -10623.3504 1419.7830 0.0000 0.0000 1790.5343 -7401.2347 309.1039 -9191.7690 -7406.7231 299.7363 -313.2447 -359.7502 30304.3397 7.9713 65.6193
ENERGY: 1500000 2.9655 6.1080 5.6533 0.0000 -10550.0342 1494.4239 0.0000 0.0000 1791.8153 -7249.0683 309.3250 -9040.8835 -7401.2109 299.8607 1031.6575 1039.9842 29729.5133 56.4468 104.5339
TCL: Running FEP window  11: Lambda1 0.4999999999999996 Lambda2 0.4499999999999996 [dLambda -0.04999999999999999]
TCL: Setting parameter firsttimestep to 0
TCL: Setting parameter alchLambda to 0.4999999999999996
Info: NONBONDED TABLE R-SQUARED SPACING: 0.0625
Info: NONBONDED TABLE SIZE: 705 POINTS
TCL: Setting parameter alchLambda2 to 0.4499999999999996
Info: NONBONDED TABLE R-SQUARED SPACING: 0.0625
Info: NONBONDED TABLE SIZE: 705 POINTS
TCL: Running for 1500000 steps
ETITLE: TS BOND ANGLE DIHED IMPRP ELECT VDW BOUNDARY MISC KINETIC TOTAL TEMP POTENTIAL TOTALAVG TEMPAVG PRESSURE GPRESSURE VOLUME PRESSAVG GPRESSAVG
ENERGY: 0 2.9655 6.1080 5.6533 0.0000 -10549.7453 1494.4481 0.0000 0.0000 1790.8989 -7249.6715 309.1668 -9040.5704 -7249.6715 309.1668 939.6803 1030.0310 29729.5133 939.6803 1030.0310
ENERGY: 300000 3.9103 3.9471 4.0772 0.0000 -10626.2850 1430.0189 0.0000 0.0000 1747.2075 -7437.1241 301.6243 -9184.3315 -7370.6142 300.3253 -222.6727 -141.7879 30193.1646 549.1778 633.3490
ENERGY: 600000 0.5688 4.5288 4.5349 0.0000 -10564.7913 1338.8680 0.0000 0.0000 1739.9612 -7476.3296 300.3733 -9216.2908 -7370.6797 303.1267 -710.1698 -629.3529 29748.8118 174.1333 255.1510
ENERGY: 900000 1.0071 6.2837 4.7169 0.0000 -10640.8963 1481.6426 0.0000 0.0000 1747.6064 -7399.6397 301.6931 -9147.2461 -7376.9946 302.7631 531.8671 611.7869 29588.3337 101.7598 173.8129
ENERGY: 1200000 2.4393 5.8682 6.1510 0.0000 -10641.6624 1484.3943 0.0000 0.0000 1753.9287 -7388.8809 302.7846 -9142.8096 -7379.9432 303.0526 880.6006 924.3183 29486.3798 167.8978 232.5577
ENERGY: 1500000 1.9235 4.4709 6.8771 0.0000 -10571.4050 1405.5139 0.0000 0.0000 1785.9478 -7366.6719 308.3121 -9152.6196 -7384.0577 303.3801 -60.9325 16.9906 29750.7229 177.7421 243.3712
TCL: Running FEP window  12: Lambda1 0.4499999999999996 Lambda2 0.39999999999999963 [dLambda -0.04999999999999999]
TCL: Setting parameter firsttimestep to 0
TCL: Setting parameter alchLambda to 0.4499999999999996
Info: NONBONDED TABLE R-SQUARED SPACING: 0.0625
Info: NONBONDED TABLE SIZE: 705 POINTS
TCL: Setting parameter alchLambda2 to 0.39999999999999963
Info: NONBONDED TABLE R-SQUARED SPACING: 0.0625
Info: NONBONDED TABLE SIZE: 705 POINTS
TCL: Running for 1500000 steps
ETITLE: TS BOND ANGLE DIHED IMPRP ELECT VDW BOUNDARY MISC KINETIC TOTAL TEMP POTENTIAL TOTALAVG TEMPAVG PRESSURE GPRESSURE VOLUME PRESSAVG GPRESSAVG
ENERGY: 0 1.9235 4.4709 6.8771 0.0000 -10571.4066 1405.3920 0.0000 0.0000 1785.0724 -7367.6707 308.1610 -9152.7431 -7367.6707 308.1610 -68.6610 10.6507 29750.7229 -68.6610 10.6507
ENERGY: 300000 1.8288 5.0352 5.4576 0.0000 -10414.2858 1306.1655 0.0000 0.0000 1790.0661 -7305.7326 309.0231 -9095.7987 -7338.6351 306.6944 -621.8020 -522.0063 29869.7576 -245.5337 -171.6012
ENERGY: 600000 1.8056 2.9710 5.3350 0.0000 -10615.3576 1505.4875 0.0000 0.0000 1734.3367 -7365.4219 299.4024 -9099.7586 -7360.9172 302.3394 610.2882 683.0100 30066.2076 -1.1909 78.7162
ENERGY: 900000 1.2130 2.8348 3.9130 0.0000 -10590.6056 1438.2851 0.0000 0.0000 1706.2434 -7438.1163 294.5526 -9144.3598 -7377.0809 300.3464 -41.2674 -5.5027 29905.4935 -3.1532 73.5771
ENERGY: 1200000 2.4578 5.3293 7.0558 0.0000 -10593.1980 1469.9917 0.0000 0.0000 1763.3098 -7345.0535 304.4041 -9108.3633 -7382.5531 300.5367 508.2864 564.3802 29814.6709 1.0669 76.8489
ENERGY: 1500000 1.1194 7.2376 4.3433 0.0000 -10548.2815 1425.6800 0.0000 0.0000 1773.1516 -7336.7497 306.1031 -9109.9013 -7378.0432 300.6450 362.4493 444.9534 29674.9090 51.0031 134.7178
TCL: Running FEP window  13: Lambda1 0.39999999999999963 Lambda2 0.34999999999999964 [dLambda -0.04999999999999999]
TCL: Setting parameter firsttimestep to 0
TCL: Setting parameter alchLambda to 0.39999999999999963
Info: NONBONDED TABLE R-SQUARED SPACING: 0.0625
Info: NONBONDED TABLE SIZE: 705 POINTS
TCL: Setting parameter alchLambda2 to 0.34999999999999964
Info: NONBONDED TABLE R-SQUARED SPACING: 0.0625
Info: NONBONDED TABLE SIZE: 705 POINTS
TCL: Running for 1500000 steps
ETITLE: TS BOND ANGLE DIHED IMPRP ELECT VDW BOUNDARY MISC KINETIC TOTAL TEMP POTENTIAL TOTALAVG TEMPAVG PRESSURE GPRESSURE VOLUME PRESSAVG GPRESSAVG
ENERGY: 0 1.1194 7.2376 4.3433 0.0000 -10548.2824 1425.9272 0.0000 0.0000 1772.2707 -7337.3843 305.9510 -9109.6549 -7337.3843 305.9510 354.0574 441.5347 29674.9090 354.0574 441.5347
ENERGY: 300000 0.3808 4.0697 4.2414 0.0000 -10545.4119 1410.6446 0.0000 0.0000 1777.4001 -7348.6753 306.8365 -9126.0754 -7364.2224 304.3808 10.9307 70.8330 29829.8772 -77.1430 22.2507
ENERGY: 600000 2.2639 3.8895 4.8219 0.0000 -10729.3271 1565.6015 0.0000 0.0000 1678.7801 -7473.9703 289.8115 -9152.7504 -7389.7180 299.2213 1266.6555 1300.1491 29550.4154 143.5462 234.0187
ENERGY: 900000 1.9279 5.1793 5.4694 0.0000 -10580.4337 1411.2729 0.0000 0.0000 1758.2843 -7398.3000 303.5365 -9156.5842 -7389.9761 300.7549 -168.8361 -161.2520 29804.9215 100.1198 184.1265
ENERGY: 1200000 1.7989 4.5609 4.3817 0.0000 -10533.3116 1422.3106 0.0000 0.0000 1782.6446 -7317.6149 307.7419 -9100.2595 -7387.4541 301.4416 -94.1031 0.2484 30168.6465 130.9146 204.4236
ENERGY: 1500000 3.2950 8.0148 5.4093 0.0000 -10617.5792 1438.1805 0.0000 0.0000 1775.2124 -7387.4672 306.4588 -9162.6795 -7386.3706 302.4992 61.1561 129.8895 29666.6238 105.1630 174.1961
TCL: Running FEP window  14: Lambda1 0.34999999999999964 Lambda2 0.29999999999999966 [dLambda -0.04999999999999999]
TCL: Setting parameter firsttimestep to 0
TCL: Setting parameter alchLambda to 0.34999999999999964
Info: NONBONDED TABLE R-SQUARED SPACING: 0.0625
Info: NONBONDED TABLE SIZE: 705 POINTS
TCL: Setting parameter alchLambda2 to 0.29999999999999966
Info: NONBONDED TABLE R-SQUARED SPACING: 0.0625
Info: NONBONDED TABLE SIZE: 705 POINTS
TCL: Running for 1500000 steps
ETITLE: TS BOND ANGLE DIHED IMPRP ELECT VDW BOUNDARY MISC KINETIC TOTAL TEMP POTENTIAL TOTALAVG TEMPAVG PRESSURE GPRESSURE VOLUME PRESSAVG GPRESSAVG
ENERGY: 0 3.2950 8.0148 5.4093 0.0000 -10617.5783 1438.4343 0.0000 0.0000 1774.3531 -7388.0717 306.3105 -9162.4248 -7388.0717 306.3105 49.3977 126.2293 29666.6238 49.3977 126.2293
ENERGY: 300000 0.6242 4.5575 4.7705 0.0000 -10389.5539 1345.5480 0.0000 0.0000 1769.7717 -7264.2820 305.5196 -9034.0537 -7387.8744 302.8758 -332.4440 -253.6571 29858.6622 -70.5126 0.4276
ENERGY: 600000 2.1048 9.8742 5.9665 0.0000 -10661.2032 1491.2105 0.0000 0.0000 1707.7219 -7444.3255 294.8078 -9152.0473 -7397.3103 302.3321 217.1444 272.0232 30213.9700 -30.6977 38.7499
ENERGY: 900000 1.7584 3.8672 4.3436 0.0000 -10528.2223 1429.1192 0.0000 0.0000 1745.4605 -7343.6734 301.3227 -9089.1339 -7396.3204 300.2426 -250.6261 -143.0699 30463.5852 -159.8851 -99.9113
ENERGY: 1200000 1.8994 4.5383 5.0640 0.0000 -10464.3278 1335.2702 0.0000 0.0000 1704.3330 -7413.2229 294.2228 -9117.5559 -7391.2114 300.4319 -787.6432 -740.4559 29990.0177 -192.4901 -132.4496
ENERGY: 1500000 0.6036 5.9466 4.9890 0.0000 -10450.6165 1315.4923 0.0000 0.0000 1783.6687 -7339.9164 307.9187 -9123.5851 -7388.6392 300.6425 -587.7977 -502.6188 29741.6547 -227.9102 -166.6109
TCL: Running FEP window  15: Lambda1 0.29999999999999966 Lambda2 0.24999999999999967 [dLambda -0.04999999999999999]
TCL: Setting parameter firsttimestep to 0
TCL: Setting parameter alchLambda to 0.29999999999999966
Info: NONBONDED TABLE R-SQUARED SPACING: 0.0625
Info: NONBONDED TABLE SIZE: 705 POINTS
TCL: Setting parameter alchLambda2 to 0.24999999999999967
Info: NONBONDED TABLE R-SQUARED SPACING: 0.0625
Info: NONBONDED TABLE SIZE: 705 POINTS
TCL: Running for 1500000 steps
ETITLE: TS BOND ANGLE DIHED IMPRP ELECT VDW BOUNDARY MISC KINETIC TOTAL TEMP POTENTIAL TOTALAVG TEMPAVG PRESSURE GPRESSURE VOLUME PRESSAVG GPRESSAVG
ENERGY: 0 0.6036 5.9466 4.9890 0.0000 -10450.6159 1315.9541 0.0000 0.0000 1782.8138 -7340.3088 307.7711 -9123.1226 -7340.3088 307.7711 -585.9067 -505.0847 29741.6547 -585.9067 -505.0847
ENERGY: 300000 0.8616 4.5391 4.5612 0.0000 -10632.8618 1445.2174 0.0000 0.0000 1711.5282 -7466.1543 295.4649 -9177.6825 -7402.8843 301.0160 -1.1819 66.2078 29681.3635 -309.7317 -239.3681
ENERGY: 600000 2.1662 4.4280 4.7443 0.0000 -10552.7851 1405.6080 0.0000 0.0000 1778.9803 -7356.8584 307.1093 -9135.8386 -7390.0135 302.5570 -358.4857 -267.5328 30026.0619 -275.2378 -198.6144
ENERGY: 900000 1.0747 5.9645 5.6218 0.0000 -10458.9053 1352.9221 0.0000 0.0000 1751.7528 -7341.5694 302.4090 -9093.3222 -7374.0433 302.6341 -571.7222 -487.7998 30093.6372 -360.4662 -283.0451
ENERGY: 1200000 1.1866 7.3498 5.2555 0.0000 -10519.7355 1414.5101 0.0000 0.0000 1714.3131 -7377.1205 295.9457 -9091.4336 -7374.0721 302.5575 -205.0399 -78.9731 30320.3397 -319.1382 -245.7543
ENERGY: 1500000 1.4025 4.9317 5.9142 0.0000 -10617.1942 1426.9581 0.0000 0.0000 1792.9107 -7385.0771 309.5141 -9177.9878 -7374.9887 302.3726 -129.6258 -108.5121 30067.3498 -255.1086 -190.0338
TCL: Running FEP window  16: Lambda1 0.24999999999999967 Lambda2 0.19999999999999968 [dLambda -0.04999999999999999]
TCL: Setting parameter firsttimestep to 0
TCL: Setting parameter alchLambda to 0.24999999999999967
Info: NONBONDED TABLE R-SQUARED SPACING: 0.0625
Info: NONBONDED TABLE SIZE: 705 POINTS
TCL: Setting parameter alchLambda2 to 0.19999999999999968
Info: NONBONDED TABLE R-SQUARED SPACING: 0.0625
Info: NONBONDED TABLE SIZE: 705 POINTS
TCL: Running for 1500000 steps
ETITLE: TS BOND ANGLE DIHED IMPRP ELECT VDW BOUNDARY MISC KINETIC TOTAL TEMP POTENTIAL TOTALAVG TEMPAVG PRESSURE GPRESSURE VOLUME PRESSAVG GPRESSAVG
ENERGY: 0 1.4025 4.9317 5.9142 0.0000 -10617.1944 1427.0349 0.0000 0.0000 1792.0520 -7385.8591 309.3659 -9177.9111 -7385.8591 309.3659 -208.2162 -109.5972 30067.3498 -208.2162 -109.5972
ENERGY: 300000 2.2729 4.5609 4.9276 0.0000 -10394.6164 1289.7738 0.0000 0.0000 1776.3130 -7316.7682 306.6488 -9093.0812 -7349.7860 303.5697 -918.4502 -808.7119 29606.0339 -294.2295 -217.4615
ENERGY: 600000 0.8894 6.2834 6.3113 0.0000 -10557.2540 1425.8418 0.0000 0.0000 1725.2454 -7392.6826 297.8329 -9117.9280 -7354.2598 303.3196 207.3712 239.9956 29873.3559 -129.6164 -67.6503
ENERGY: 900000 0.9390 6.3302 4.6374 0.0000 -10505.4947 1417.8158 0.0000 0.0000 1731.4806 -7344.2918 298.9093 -9075.7724 -7365.9167 302.2391 242.7438 297.5899 29610.2899 -19.3256 39.0357
ENERGY: 1200000 1.6572 6.7798 7.3006 0.0000 -10645.6915 1448.7127 0.0000 0.0000 1735.7865 -7445.4547 299.6527 -9181.2412 -7375.8350 301.6713 7.6994 93.2069 29854.1089 -27.8196 40.2934
ENERGY: 1500000 0.4008 5.0169 6.8282 0.0000 -10480.7478 1407.4118 0.0000 0.0000 1699.6458 -7361.4443 293.4136 -9061.0901 -7380.5831 301.0985 78.4420 95.4629 30081.7940 -15.8420 49.9230
TCL: Running FEP window  17: Lambda1 0.19999999999999968 Lambda2 0.1499999999999997 [dLambda -0.04999999999999999]
TCL: Setting parameter firsttimestep to 0
TCL: Setting parameter alchLambda to 0.19999999999999968
Info: NONBONDED TABLE R-SQUARED SPACING: 0.0625
Info: NONBONDED TABLE SIZE: 705 POINTS
TCL: Setting parameter alchLambda2 to 0.1499999999999997
Info: NONBONDED TABLE R-SQUARED SPACING: 0.0625
Info: NONBONDED TABLE SIZE: 705 POINTS
TCL: Running for 1500000 steps
ETITLE: TS BOND ANGLE DIHED IMPRP ELECT VDW BOUNDARY MISC KINETIC TOTAL TEMP POTENTIAL TOTALAVG TEMPAVG PRESSURE GPRESSURE VOLUME PRESSAVG GPRESSAVG
ENERGY: 0 0.4008 5.0169 6.8282 0.0000 -10480.7472 1407.8239 0.0000 0.0000 1698.7736 -7361.9038 293.2630 -9060.6774 -7361.9038 293.2630 16.4116 96.7657 30081.7940 16.4116 96.7657
ENERGY: 300000 0.7103 4.5289 5.7712 0.0000 -10600.3931 1400.0578 0.0000 0.0000 1694.9866 -7494.3385 292.6093 -9189.3251 -7407.0038 296.8200 -378.1183 -240.8940 29556.3258 127.2732 242.7139
ENERGY: 600000 3.3285 6.0561 4.6835 0.0000 -10594.2514 1437.5773 0.0000 0.0000 1755.8770 -7386.7290 303.1209 -9142.6060 -7381.6599 300.8955 -47.1455 12.3112 30217.3301 77.7028 167.6274
ENERGY: 900000 0.9216 4.8418 6.5812 0.0000 -10616.8120 1520.5869 0.0000 0.0000 1743.6729 -7340.2076 301.0141 -9083.8805 -7387.1819 300.8679 952.4781 1032.1889 29502.3474 213.1873 298.1045
ENERGY: 1200000 1.3917 7.6448 5.0164 0.0000 -10470.8096 1317.5429 0.0000 0.0000 1740.3938 -7398.8199 300.4480 -9139.2137 -7386.6474 300.2246 -664.0977 -611.1484 29295.9220 50.2366 135.7911
ENERGY: 1500000 2.3245 6.5597 4.2831 0.0000 -10554.0698 1323.0585 0.0000 0.0000 1746.4663 -7471.3776 301.4963 -9217.8440 -7391.6272 300.3429 -811.8397 -830.4837 29639.7185 -43.4974 29.7673
TCL: Running FEP window  18: Lambda1 0.1499999999999997 Lambda2 0.09999999999999969 [dLambda -0.05 ]
TCL: Setting parameter firsttimestep to 0
TCL: Setting parameter alchLambda to 0.1499999999999997
Info: NONBONDED TABLE R-SQUARED SPACING: 0.0625
Info: NONBONDED TABLE SIZE: 705 POINTS
TCL: Setting parameter alchLambda2 to 0.09999999999999969
Info: NONBONDED TABLE R-SQUARED SPACING: 0.0625
Info: NONBONDED TABLE SIZE: 705 POINTS
TCL: Running for 1500000 steps
ETITLE: TS BOND ANGLE DIHED IMPRP ELECT VDW BOUNDARY MISC KINETIC TOTAL TEMP POTENTIAL TOTALAVG TEMPAVG PRESSURE GPRESSURE VOLUME PRESSAVG GPRESSAVG
ENERGY: 0 2.3245 6.5597 4.2831 0.0000 -10554.0702 1323.0127 0.0000 0.0000 1745.5962 -7472.2940 301.3461 -9217.8902 -7472.2940 301.3461 -919.8684 -833.9953 29639.7185 -919.8684 -833.9953
ENERGY: 300000 0.7752 5.4321 4.9848 0.0000 -10650.9365 1436.9074 0.0000 0.0000 1806.9953 -7395.8417 311.9456 -9202.8371 -7439.7263 300.3108 -43.7342 63.5762 29546.2523 -601.5304 -511.1766
ENERGY: 600000 0.5657 2.8638 5.9510 0.0000 -10614.6112 1478.7225 0.0000 0.0000 1695.5745 -7430.9338 292.7108 -9126.5083 -7424.0194 298.1128 58.3616 111.4934 30627.6629 -300.7083 -229.4286
ENERGY: 900000 2.4719 5.3513 6.3984 0.0000 -10556.9648 1413.4391 0.0000 0.0000 1731.6664 -7397.6375 298.9414 -9129.3040 -7415.1942 298.6642 -83.5955 -71.9704 30175.5196 -126.1779 -57.0452
ENERGY: 1200000 0.7634 7.7337 5.2249 0.0000 -10722.3775 1498.3983 0.0000 0.0000 1675.1987 -7535.0585 289.1932 -9210.2572 -7423.5088 298.6447 413.7037 501.4468 29660.5201 -63.6085 6.3271
ENERGY: 1500000 0.5745 8.0721 5.3955 0.0000 -10688.3932 1499.0577 0.0000 0.0000 1827.6947 -7347.5986 315.5190 -9175.2934 -7414.6173 300.0002 662.0499 635.8299 29520.4510 52.6066 114.6409
TCL: Running FEP window  19: Lambda1 0.09999999999999969 Lambda2 0.049999999999999684 [dLambda -0.05 ]
TCL: Setting parameter firsttimestep to 0
TCL: Setting parameter alchLambda to 0.09999999999999969
Info: NONBONDED TABLE R-SQUARED SPACING: 0.0625
Info: NONBONDED TABLE SIZE: 705 POINTS
TCL: Setting parameter alchLambda2 to 0.049999999999999684
Info: NONBONDED TABLE R-SQUARED SPACING: 0.0625
Info: NONBONDED TABLE SIZE: 705 POINTS
TCL: Running for 1500000 steps
ETITLE: TS BOND ANGLE DIHED IMPRP ELECT VDW BOUNDARY MISC KINETIC TOTAL TEMP POTENTIAL TOTALAVG TEMPAVG PRESSURE GPRESSURE VOLUME PRESSAVG GPRESSAVG
ENERGY: 0 0.5745 8.0721 5.3955 0.0000 -10688.3922 1499.1141 0.0000 0.0000 1826.8242 -7348.4118 315.3687 -9175.2360 -7348.4118 315.3687 569.9778 635.5335 29520.4510 569.9778 635.5335
ENERGY: 300000 1.6738 7.1801 4.1161 0.0000 -10465.9364 1418.8594 0.0000 0.0000 1788.6647 -7245.4422 308.7811 -9034.1069 -7361.6053 306.6946 138.3073 199.9853 30015.5296 73.9251 134.5213
ENERGY: 600000 1.6017 5.8608 4.7675 0.0000 -10556.2145 1420.4606 0.0000 0.0000 1687.8989 -7435.6250 291.3857 -9123.5240 -7363.3055 304.1920 -224.4745 -119.4753 30212.0731 -192.0306 -129.8525
ENERGY: 900000 1.8129 8.0253 5.3465 0.0000 -10558.4476 1423.4397 0.0000 0.0000 1667.5427 -7452.2805 287.8716 -9119.8232 -7366.9907 302.9763 -337.5146 -281.9981 30117.0904 -152.5994 -91.4872
ENERGY: 1200000 2.0057 9.7483 4.4588 0.0000 -10605.9337 1438.9942 0.0000 0.0000 1790.3942 -7360.3326 309.0797 -9150.7268 -7371.7199 302.9412 -165.5888 -93.8818 30119.1623 -118.9770 -58.3630
ENERGY: 1500000 2.2494 6.2913 7.5258 0.0000 -10584.5252 1429.2305 0.0000 0.0000 1766.3549 -7372.8732 304.9298 -9139.2282 -7373.7720 302.7823 -44.7965 39.8221 29774.7931 -156.2406 -93.4946
TCL: Running FEP window  20: Lambda1 0.049999999999999684 Lambda2 0.0    [dLambda -0.049999999999999684]
TCL: Setting parameter firsttimestep to 0
TCL: Setting parameter alchLambda to 0.049999999999999684
Info: NONBONDED TABLE R-SQUARED SPACING: 0.0625
Info: NONBONDED TABLE SIZE: 705 POINTS
TCL: Setting parameter alchLambda2 to 0.0
Info: NONBONDED TABLE R-SQUARED SPACING: 0.0625
Info: NONBONDED TABLE SIZE: 705 POINTS
TCL: Running for 1500000 steps
ETITLE: TS BOND ANGLE DIHED IMPRP ELECT VDW BOUNDARY MISC KINETIC TOTAL TEMP POTENTIAL TOTALAVG TEMPAVG PRESSURE GPRESSURE VOLUME PRESSAVG GPRESSAVG
ENERGY: 0 2.2494 6.2913 7.5258 0.0000 -10584.5248 1429.4122 0.0000 0.0000 1765.4516 -7373.5945 304.7738 -9139.0461 -7373.5945 304.7738 -45.9314 40.3736 29774.7931 -45.9314 40.3736
ENERGY: 300000 3.6617 4.6728 5.7544 0.0000 -10621.4990 1450.0898 0.0000 0.0000 1766.8823 -7390.4380 305.0208 -9157.3202 -7378.3737 302.3174 -36.1554 41.8486 30125.2310 -44.0665 48.0447
ENERGY: 600000 1.0116 6.3414 5.1029 0.0000 -10610.8475 1425.3604 0.0000 0.0000 1746.2191 -7426.8121 301.4537 -9173.0312 -7403.3198 299.5585 -290.2349 -262.0564 30213.0258 -83.7887 -31.1073
ENERGY: 900000 1.8397 3.4978 5.4041 0.0000 -10454.4650 1406.4369 0.0000 0.0000 1743.4797 -7293.8067 300.9808 -9037.2864 -7385.4967 299.8238 85.8008 158.2859 30174.0832 -29.8628 24.4103
ENERGY: 1200000 2.7992 8.0669 4.5539 0.0000 -10524.0601 1389.8692 0.0000 0.0000 1729.9435 -7388.8274 298.6440 -9118.7708 -7390.0746 299.8089 -367.0229 -298.0687 30042.5191 11.3748 68.2272
ENERGY: 1500000 0.9257 5.4197 5.6293 0.0000 -10552.1826 1398.2093 0.0000 0.0000 1737.3574 -7404.6411 299.9239 -9141.9985 -7386.5989 300.3979 147.9690 228.7720 29189.4951 24.9822 86.2172
TCL: Exiting due to exit command.
