Info: SIMULATION PARAMETERS:
Info: TIMESTEP               2
Info: NUMBER OF STEPS        0
Info: STEPS PER CYCLE        10
Info: PERIODIC CELL BASIS 1  30.3664 0 0
Info: PERIODIC CELL BASIS 2  0 30.4135 0
Info: PERIODIC CELL BASIS 3  0 0 32.4757
Info: PERIODIC CELL CENTER   0 0 0
Info: WRAPPING WATERS AROUND PERIODIC BOUNDARIES ON OUTPUT.
Info: WRAPPING ALL CLUSTERS AROUND PERIODIC BOUNDARIES ON OUTPUT.
Info: FIRST LDB TIMESTEP     50
Info: LAST LDB TIMESTEP     -1
Info: HOM BACKGROUND SCALING 1
Info: PME BACKGROUND SCALING 1
Info: MIN ATOMS PER PATCH    40
Info: EMPTY PATCH LOAD       40 ATOMS
Info: VELOCITY FILE          mobley_859464_equil.vel
Info: CENTER OF MASS MOVING INITIALLY? NO
Info: DIELECTRIC             1
Info: EXCLUDE                SCALED ONE-FOUR
Info: 1-4 ELECTROSTATICS SCALED BY 0.833333
Info: MODIFIED 1-4 VDW PARAMETERS WILL BE USED
Info: DCD FILENAME           mobley_859464_prod.dcd
Info: DCD FREQUENCY          100000
Info: DCD FIRST STEP         100000
Info: DCD FILE WILL CONTAIN UNIT CELL DATA
Info: XST FILENAME           mobley_859464_prod.xst
Info: XST FREQUENCY          100000
Info: NO VELOCITY DCD OUTPUT
Info: NO FORCE DCD OUTPUT
Info: OUTPUT FILENAME        mobley_859464_prod
Info: BINARY OUTPUT FILES WILL BE USED
Info: RESTART FILENAME       mobley_859464_prod.restart
Info: RESTART FREQUENCY      100000
Info: BINARY RESTART FILES WILL BE USED
Info: CUTOFF                 9
Info: PAIRLIST DISTANCE      11
Info: PAIRLIST SHRINK RATE   0.01
Info: PAIRLIST GROW RATE     0.01
Info: PAIRLIST TRIGGER       0.3
Info: PAIRLISTS PER CYCLE    2
Info: PAIRLISTS ENABLED
Info: MARGIN                 2
Info: HYDROGEN GROUP CUTOFF  2.5
Info: PATCH DIMENSION        15.5
Info: ENERGY OUTPUT STEPS    100000
Info: ENERGY EVALUATION STEPS    100000
Info: OUTPUT ENERGY PRECISION 4
Info: CROSSTERM ENERGY INCLUDED IN DIHEDRAL
Info: TIMING OUTPUT STEPS    1000000
Info: PRESSURE OUTPUT STEPS  100000
Info: ALCHEMICAL FEP ON
Info: FEP CURRENT LAMBDA VALUE     0
Info: FEP COMPARISON LAMBDA VALUE  0.05
Info: FEP INTRA-ALCHEMICAL NON-BONDED INTERACTIONS WILL BE RETAINED
Info: FEP INTRA-ALCHEMICAL BONDED INTERACTIONS WILL BE RETAINED
Info: FEP VDW SHIFTING COEFFICIENT 5
Info: FEP ELEC. ACTIVE FOR ANNIHILATED PARTICLES BETWEEN LAMBDA = 0 AND LAMBDA = 0.5
Info: FEP ELEC. ACTIVE FOR EXNIHILATED PARTICLES BETWEEN LAMBDA = 0.5 AND LAMBDA = 1
Info: FEP VDW ACTIVE FOR ANNIHILATED PARTICLES BETWEEN LAMBDA = 0 AND LAMBDA = 1
Info: FEP VDW ACTIVE FOR EXNIHILATED PARTICLES BETWEEN LAMBDA = 0 AND LAMBDA = 1
Info: FEP BOND ACTIVE FOR ANNIHILATED PARTICLES BETWEEN LAMBDA = 1 AND LAMBDA = 1
Info: FEP BOND ACTIVE FOR EXNIHILATED PARTICLES BETWEEN LAMBDA = 0 AND LAMBDA = 0
Info: LANGEVIN DYNAMICS ACTIVE
Info: LANGEVIN TEMPERATURE   300
Info: LANGEVIN USING BBK INTEGRATOR
Info: LANGEVIN DAMPING COEFFICIENT IS 1 INVERSE PS
Info: LANGEVIN DYNAMICS APPLIED TO HYDROGENS
Info: LANGEVIN PISTON PRESSURE CONTROL ACTIVE
Info:        TARGET PRESSURE IS 1.01325 BAR
Info:     OSCILLATION PERIOD IS 50 FS
Info:             DECAY TIME IS 25 FS
Info:     PISTON TEMPERATURE IS 300 K
Info:       PRESSURE CONTROL IS GROUP-BASED
Info:    INITIAL STRAIN RATE IS 0.000350655 0.000350655 0.000350655
Info:       CELL FLUCTUATION IS ISOTROPIC
Info: PARTICLE MESH EWALD (PME) ACTIVE
Info: PME TOLERANCE               1e-06
Info: PME EWALD COEFFICIENT       0.348832
Info: PME INTERPOLATION ORDER     4
Info: PME GRID DIMENSIONS         32 32 36
Info: PME MAXIMUM GRID SPACING    1
Info: PME CALCULATION WILL BE PERFORMED ON GPU
Info: FULL ELECTROSTATIC EVALUATION FREQUENCY      2
Info: USING VERLET I (r-RESPA) MTS SCHEME.
Info: C1 SPLITTING OF LONG RANGE ELECTROSTATICS
Info: PLACING ATOMS IN PATCHES BY HYDROGEN GROUPS
Info: RIGID BONDS TO HYDROGEN : ALL
Info:         ERROR TOLERANCE : 1e-08
Info:          MAX ITERATIONS : 100
Info: RIGID WATER USING SETTLE ALGORITHM
Info: RANDOM NUMBER SEED     1743863102
Info: USE HYDROGEN BONDS?    NO
Info: Using AMBER format force field!
Info: AMBER PARM FILE        mobley_859464.prmtop
Info: COORDINATE PDB         mobley_859464.pdb
Info: Exclusions will be read from PARM file!
Info: SCNB (VDW SCALING)     2
Info: USING ARITHMETIC MEAN TO COMBINE L-J SIGMA PARAMETERS
Info: BINARY COORDINATES     mobley_859464_equil.coor
Info: SUMMARY OF PARAMETERS:
Info: 9 BONDS
Info: 12 ANGLES
Info:   12 HARMONIC
Info:   0 COSINE-BASED
Info: 17 DIHEDRAL
Info: 0 IMPROPER
Info: 0 CROSSTERM
Info: 0 VDW
Info: 36 VDW_PAIRS
Info: 0 NBTHOLE_PAIRS
Info: To read alchdata from file: mobley_859464.pdb
Info: To read alchflag data from column: 5
Info: STRUCTURE SUMMARY:
Info: 2912 ATOMS
Info: 2911 BONDS
Info: 34 ANGLES
Info: 50 DIHEDRALS
Info: 0 IMPROPERS
Info: 0 CROSSTERMS
Info: 2983 EXCLUSIONS
Info: 2904 RIGID BONDS
Info: ALCH: 0 ATOMS TO DISAPPEAR IN FINAL STATE
Info: ALCH: 20 ATOMS TO APPEAR IN FINAL STATE
Info: 5832 DEGREES OF FREEDOM
Info: 972 HYDROGEN GROUPS
Info: 4 ATOMS IN LARGEST HYDROGEN GROUP
Info: 972 MIGRATION GROUPS
Info: 4 ATOMS IN LARGEST MIGRATION GROUP
Info: TOTAL MASS = 17483.6 amu
Info: TOTAL CHARGE = -0.000500001 e
Info: MASS DENSITY = 0.967992 g/cm^3
Info: ATOM DENSITY = 0.0970898 atoms/A^3
Info: ADDED 0 IMPLICIT EXCLUSIONS
Info: NONBONDED TABLE R-SQUARED SPACING: 0.0625
Info: NONBONDED TABLE SIZE: 705 POINTS
Info: REMOVING COM VELOCITY -0.0629148 -0.145279 0.100881
Info: Use 3D box decompostion in PME FFT.
Info: Updated CUDA force table with 4096 elements.
Info: Updated CUDA LJ table with 8 x 8 elements.
Info: Found 23 unique exclusion lists needing 64 bytes
TCL: Running for 1500000 steps
ETITLE: TS BOND ANGLE DIHED IMPRP ELECT VDW BOUNDARY MISC KINETIC TOTAL TEMP POTENTIAL TOTALAVG TEMPAVG PRESSURE GPRESSURE VOLUME PRESSAVG GPRESSAVG
ENERGY: 0 3.6586 5.7916 5.3118 0.0000 -10504.3756 1368.4548 0.0000 0.0000 1712.7707 -7408.3880 295.5780 -9121.1587 -7408.3880 295.5780 -610.4344 -519.1008 29992.8617 -610.4344 -519.1008
ENERGY: 300000 2.6958 6.7333 5.6133 0.0000 -10445.2146 1323.9012 0.0000 0.0000 1745.3246 -7360.9465 301.1959 -9106.2711 -7368.7242 298.5696 -679.1772 -629.3642 30007.7905 -634.1170 -579.6169
ENERGY: 600000 3.9810 10.6952 8.1685 0.0000 -10569.0172 1472.7417 0.0000 0.0000 1724.2411 -7349.1898 297.5575 -9073.4309 -7368.9649 297.4275 423.1008 499.6522 29769.8794 -263.5977 -198.2090
ENERGY: 900000 1.6002 10.2276 3.9921 0.0000 -10498.2638 1387.6330 0.0000 0.0000 1758.8323 -7335.9785 303.5270 -9094.8109 -7370.2113 298.0796 75.0277 121.8431 29501.5259 -220.6929 -155.4599
ENERGY: 1200000 2.9171 8.9275 6.1847 0.0000 -10539.6842 1410.2983 0.0000 0.0000 1690.4732 -7420.8834 291.7300 -9111.3566 -7375.0774 297.9052 111.9377 172.2167 29378.8266 -204.9258 -135.5315
ENERGY: 1500000 2.3605 10.5792 6.4808 0.0000 -10428.1098 1279.0371 0.0000 0.0000 1802.3930 -7327.2591 311.0444 -9129.6521 -7368.4672 299.0508 -957.1925 -971.8827 29684.0148 -218.4294 -156.1577
TCL: Running FEP window   2: Lambda1 0.05   Lambda2 0.1    [dLambda 0.05  ]
TCL: Setting parameter firsttimestep to 0
TCL: Setting parameter alchLambda to 0.05
Info: NONBONDED TABLE R-SQUARED SPACING: 0.0625
Info: NONBONDED TABLE SIZE: 705 POINTS
TCL: Setting parameter alchLambda2 to 0.1
Info: NONBONDED TABLE R-SQUARED SPACING: 0.0625
Info: NONBONDED TABLE SIZE: 705 POINTS
TCL: Running for 1500000 steps
ETITLE: TS BOND ANGLE DIHED IMPRP ELECT VDW BOUNDARY MISC KINETIC TOTAL TEMP POTENTIAL TOTALAVG TEMPAVG PRESSURE GPRESSURE VOLUME PRESSAVG GPRESSAVG
ENERGY: 0 2.3606 10.5792 6.4808 0.0000 -10428.1101 1280.5762 0.0000 0.0000 1801.5319 -7326.5815 310.8958 -9128.1133 -7326.5815 310.8958 -1071.2539 -967.5430 29684.0148 -1071.2539 -967.5430
ENERGY: 300000 2.7416 9.4222 6.3364 0.0000 -10609.8354 1413.5142 0.0000 0.0000 1731.2998 -7446.5213 298.7756 -9177.8210 -7380.0725 301.6695 -307.8685 -296.0757 29775.7968 -433.0392 -393.3788
ENERGY: 600000 4.5013 10.2698 4.3973 0.0000 -10400.5356 1340.8646 0.0000 0.0000 1715.8260 -7324.6766 296.1053 -9040.5026 -7375.9216 299.8839 -273.3514 -259.8897 29533.4786 -249.9606 -208.3810
ENERGY: 900000 1.9933 6.5889 7.1322 0.0000 -10614.7636 1481.9272 0.0000 0.0000 1708.9035 -7408.2185 294.9106 -9117.1220 -7371.9499 299.9704 807.2154 903.7262 29140.0207 -44.2833 -4.7148
ENERGY: 1200000 2.5934 13.1237 6.4584 0.0000 -10596.5052 1418.6729 0.0000 0.0000 1701.4488 -7454.2080 293.6241 -9155.6568 -7368.5192 300.5943 -208.6584 -147.4442 29834.0072 -4.4859 35.1515
ENERGY: 1500000 2.1574 5.4482 4.3428 0.0000 -10501.9668 1348.2193 0.0000 0.0000 1731.7000 -7410.0990 298.8447 -9141.7991 -7372.2879 300.3514 -830.9539 -783.8708 30379.8953 -54.8433 -10.7783
TCL: Running FEP window   3: Lambda1 0.1    Lambda2 0.15000000000000002 [dLambda 0.05000000000000002]
TCL: Setting parameter firsttimestep to 0
TCL: Setting parameter alchLambda to 0.1
Info: NONBONDED TABLE R-SQUARED SPACING: 0.0625
Info: NONBONDED TABLE SIZE: 705 POINTS
TCL: Setting parameter alchLambda2 to 0.15000000000000002
Info: NONBONDED TABLE R-SQUARED SPACING: 0.0625
Info: NONBONDED TABLE SIZE: 705 POINTS
TCL: Running for 1500000 steps
ETITLE: TS BOND ANGLE DIHED IMPRP ELECT VDW BOUNDARY MISC KINETIC TOTAL TEMP POTENTIAL TOTALAVG TEMPAVG PRESSURE GPRESSURE VOLUME PRESSAVG GPRESSAVG
ENERGY: 0 2.1574 5.4482 4.3428 0.0000 -10501.9659 1350.2368 0.0000 0.0000 1730.8122 -7408.9685 298.6915 -9139.7807 -7408.9685 298.6915 -858.6771 -773.3115 30379.8953 -858.6771 -773.3115
ENERGY: 300000 2.9016 8.6059 8.3331 0.0000 -10509.2752 1438.5419 0.0000 0.0000 1765.5947 -7285.2980 304.6940 -9050.8927 -7351.8822 301.3564 281.3639 389.4378 30112.2320 -324.1600 -243.9353
ENERGY: 600000 2.6115 9.0018 5.3352 0.0000 -10630.8170 1477.1405 0.0000 0.0000 1773.7263 -7363.0017 306.0973 -9136.7280 -7345.0732 301.8933 343.0580 393.8132 30138.0784 23.0770 81.5239
ENERGY: 900000 2.1832 7.6130 5.3214 0.0000 -10608.9801 1462.4899 0.0000 0.0000 1725.9787 -7405.3939 297.8573 -9131.3726 -7357.9052 300.8737 122.0492 227.2840 29941.2508 -144.8052 -87.7176
ENERGY: 1200000 3.8453 8.2804 6.3226 0.0000 -10606.6921 1453.3135 0.0000 0.0000 1787.7723 -7347.1580 308.5212 -9134.9303 -7364.7282 301.9150 433.1021 512.6947 29618.3293 -159.3230 -96.5825
ENERGY: 1500000 2.1126 9.3160 6.2987 0.0000 -10299.4504 1261.8559 0.0000 0.0000 1752.6136 -7267.2536 302.4538 -9019.8673 -7362.0126 302.4125 -1117.3686 -1094.2757 30506.3295 -290.1998 -229.8468
TCL: Running FEP window   4: Lambda1 0.15000000000000002 Lambda2 0.2    [dLambda 0.04999999999999999]
TCL: Setting parameter firsttimestep to 0
TCL: Setting parameter alchLambda to 0.15000000000000002
Info: NONBONDED TABLE R-SQUARED SPACING: 0.0625
Info: NONBONDED TABLE SIZE: 705 POINTS
TCL: Setting parameter alchLambda2 to 0.2
Info: NONBONDED TABLE R-SQUARED SPACING: 0.0625
Info: NONBONDED TABLE SIZE: 705 POINTS
TCL: Running for 1500000 steps
ETITLE: TS BOND ANGLE DIHED IMPRP ELECT VDW BOUNDARY MISC KINETIC TOTAL TEMP POTENTIAL TOTALAVG TEMPAVG PRESSURE GPRESSURE VOLUME PRESSAVG GPRESSAVG
ENERGY: 0 2.1126 9.3160 6.2987 0.0000 -10299.4516 1262.1260 0.0000 0.0000 1751.8075 -7267.7908 302.3147 -9019.5983 -7267.7908 302.3147 -1169.0201 -1092.4048 30506.3295 -1169.0201 -1092.4048
ENERGY: 300000 2.2764 9.1366 5.6862 0.0000 -10794.2377 1572.7594 0.0000 0.0000 1777.5906 -7426.7886 306.7642 -9204.3792 -7353.4645 302.6048 1181.2491 1240.5539 29456.7400 29.0404 89.5362
ENERGY: 600000 2.1087 9.9723 5.7518 0.0000 -10606.9779 1518.0604 0.0000 0.0000 1682.9444 -7388.1403 290.4308 -9071.0847 -7376.7268 299.2458 846.4099 862.6340 29880.8896 202.9407 253.1412
ENERGY: 900000 1.2163 8.7982 6.0501 0.0000 -10721.6583 1475.9665 0.0000 0.0000 1767.1308 -7462.4964 304.9591 -9229.6272 -7390.7856 299.8267 308.0310 424.2299 29442.7538 57.1863 114.6923
ENERGY: 1200000 1.0742 16.3946 5.8897 0.0000 -10521.3917 1442.0209 0.0000 0.0000 1692.0101 -7364.0024 291.9953 -9056.0125 -7391.0652 299.0321 452.7872 457.1650 29545.6223 156.0363 214.2301
ENERGY: 1500000 4.7825 12.6577 9.0121 0.0000 -10435.8301 1354.2159 0.0000 0.0000 1716.6239 -7338.5381 296.2430 -9055.1620 -7384.5690 299.2738 -279.6325 -270.7045 29756.2115 229.0044 287.6171
TCL: Running FEP window   5: Lambda1 0.2    Lambda2 0.25   [dLambda 0.04999999999999999]
TCL: Setting parameter firsttimestep to 0
TCL: Setting parameter alchLambda to 0.2
Info: NONBONDED TABLE R-SQUARED SPACING: 0.0625
Info: NONBONDED TABLE SIZE: 705 POINTS
TCL: Setting parameter alchLambda2 to 0.25
Info: NONBONDED TABLE R-SQUARED SPACING: 0.0625
Info: NONBONDED TABLE SIZE: 705 POINTS
TCL: Running for 1500000 steps
ETITLE: TS BOND ANGLE DIHED IMPRP ELECT VDW BOUNDARY MISC KINETIC TOTAL TEMP POTENTIAL TOTALAVG TEMPAVG PRESSURE GPRESSURE VOLUME PRESSAVG GPRESSAVG
ENERGY: 0 4.7825 12.6577 9.0121 0.0000 -10435.8307 1354.6004 0.0000 0.0000 1715.7621 -7339.0160 296.0942 -9054.7781 -7339.0160 296.0942 -353.1986 -263.7550 29756.2115 -353.1986 -263.7550
ENERGY: 300000 0.9515 10.5223 7.7932 0.0000 -10569.7545 1428.5392 0.0000 0.0000 1693.8442 -7428.1041 292.3118 -9121.9483 -7351.9950 299.3105 115.7401 112.3264 29746.6265 -174.8210 -111.2781
ENERGY: 600000 2.6588 16.6396 5.9616 0.0000 -10533.9488 1456.5301 0.0000 0.0000 1766.1071 -7286.0515 304.7824 -9052.1587 -7342.7426 300.9531 497.4612 579.6371 30008.2850 -33.5785 27.6320
ENERGY: 900000 2.6829 11.1776 5.4887 0.0000 -10513.2086 1367.5850 0.0000 0.0000 1758.1651 -7368.1093 303.4118 -9126.2744 -7348.1533 301.6326 -411.6899 -359.6631 29819.2995 -186.4241 -118.4533
ENERGY: 1200000 1.8434 10.8563 5.2684 0.0000 -10509.1826 1345.6734 0.0000 0.0000 1741.5737 -7403.9675 300.5486 -9145.5412 -7347.0042 301.6687 -556.5379 -425.5450 29496.4059 -196.8955 -115.0689
ENERGY: 1500000 2.7580 10.7616 6.7129 0.0000 -10490.2655 1361.0701 0.0000 0.0000 1773.4855 -7335.4775 306.0557 -9108.9630 -7348.4509 301.9412 -486.0118 -339.0012 29839.6360 -202.1352 -116.3871
TCL: Running FEP window   6: Lambda1 0.25   Lambda2 0.3    [dLambda 0.04999999999999999]
TCL: Setting parameter firsttimestep to 0
TCL: Setting parameter alchLambda to 0.25
Info: NONBONDED TABLE R-SQUARED SPACING: 0.0625
Info: NONBONDED TABLE SIZE: 705 POINTS
TCL: Setting parameter alchLambda2 to 0.3
Info: NONBONDED TABLE R-SQUARED SPACING: 0.0625
Info: NONBONDED TABLE SIZE: 705 POINTS
TCL: Running for 1500000 steps
ETITLE: TS BOND ANGLE DIHED IMPRP ELECT VDW BOUNDARY MISC KINETIC TOTAL TEMP POTENTIAL TOTALAVG TEMPAVG PRESSURE GPRESSURE VOLUME PRESSAVG GPRESSAVG
ENERGY: 0 2.7580 10.7616 6.7129 0.0000 -10490.2663 1360.8253 0.0000 0.0000 1772.6252 -7336.5833 305.9073 -9109.2086 -7336.5833 305.9073 -411.3323 -333.5883 29839.6360 -411.3323 -333.5883
ENERGY: 300000 3.8068 10.3993 7.5796 0.0000 -10384.0679 1315.1080 0.0000 0.0000 1755.4333 -7291.7409 302.9404 -9047.1742 -7354.3315 301.2234 -693.1701 -589.5083 30015.0937 -307.6779 -238.5163
ENERGY: 600000 3.7567 12.2905 6.1985 0.0000 -10417.7729 1345.4588 0.0000 0.0000 1730.6339 -7319.4345 298.6607 -9050.0684 -7361.5204 301.5608 -600.2405 -487.2817 30039.9066 -276.7923 -193.2607
ENERGY: 900000 1.9879 11.7333 6.0567 0.0000 -10550.6911 1426.8686 0.0000 0.0000 1789.1860 -7314.8585 308.7652 -9104.0446 -7358.1198 301.8363 4.5313 67.4802 29931.1931 -149.3091 -64.6512
ENERGY: 1200000 2.5449 8.3331 5.8646 0.0000 -10461.3157 1373.4397 0.0000 0.0000 1789.6432 -7281.4902 308.8441 -9071.1334 -7352.2096 302.0200 -253.3929 -181.2103 30040.0440 -61.9671 28.0362
ENERGY: 1500000 2.2825 8.7529 6.2765 0.0000 -10455.8438 1404.8268 0.0000 0.0000 1782.7990 -7250.9060 307.6630 -9033.7050 -7348.2045 302.6133 -7.6691 97.4784 29928.0402 -11.9374 73.0881
TCL: Running FEP window   7: Lambda1 0.3    Lambda2 0.35   [dLambda 0.04999999999999999]
TCL: Setting parameter firsttimestep to 0
TCL: Setting parameter alchLambda to 0.3
Info: NONBONDED TABLE R-SQUARED SPACING: 0.0625
Info: NONBONDED TABLE SIZE: 705 POINTS
TCL: Setting parameter alchLambda2 to 0.35
Info: NONBONDED TABLE R-SQUARED SPACING: 0.0625
Info: NONBONDED TABLE SIZE: 705 POINTS
TCL: Running for 1500000 steps
ETITLE: TS BOND ANGLE DIHED IMPRP ELECT VDW BOUNDARY MISC KINETIC TOTAL TEMP POTENTIAL TOTALAVG TEMPAVG PRESSURE GPRESSURE VOLUME PRESSAVG GPRESSAVG
ENERGY: 0 2.2825 8.7529 6.2765 0.0000 -10455.8433 1405.3469 0.0000 0.0000 1781.9358 -7251.2486 307.5140 -9033.1844 -7251.2486 307.5140 22.0098 103.7465 29928.0402 22.0098 103.7465
ENERGY: 300000 2.4723 5.8481 5.4716 0.0000 -10594.8332 1499.5493 0.0000 0.0000 1698.8088 -7382.6832 293.1685 -9081.4920 -7367.6907 298.5733 700.9437 762.3926 30082.6265 119.5863 174.8799
ENERGY: 600000 0.6019 9.8293 5.0853 0.0000 -10478.9356 1425.9338 0.0000 0.0000 1732.3097 -7305.1755 298.9499 -9037.4853 -7363.5525 298.1873 177.6628 287.3969 29973.4362 -132.2828 -64.0082
ENERGY: 900000 6.6040 9.5102 7.0352 0.0000 -10651.6373 1435.6451 0.0000 0.0000 1710.5915 -7482.2513 295.2019 -9192.8427 -7382.4065 298.8822 279.9087 295.7238 29131.7524 -77.6290 -27.7928
ENERGY: 1200000 3.8128 9.9220 6.8667 0.0000 -10625.7694 1516.4358 0.0000 0.0000 1740.1618 -7348.5702 300.3050 -9088.7320 -7370.9065 299.0405 768.4473 819.1679 29804.4613 9.5298 56.8786
ENERGY: 1500000 1.1944 10.7085 5.6891 0.0000 -10650.4712 1500.7933 0.0000 0.0000 1672.7448 -7459.3412 288.6706 -9132.0859 -7375.9071 299.0690 731.8108 837.7703 29571.6924 82.1326 139.9569
TCL: Running FEP window   8: Lambda1 0.35   Lambda2 0.39999999999999997 [dLambda 0.04999999999999999]
TCL: Setting parameter firsttimestep to 0
TCL: Setting parameter alchLambda to 0.35
Info: NONBONDED TABLE R-SQUARED SPACING: 0.0625
Info: NONBONDED TABLE SIZE: 705 POINTS
TCL: Setting parameter alchLambda2 to 0.39999999999999997
Info: NONBONDED TABLE R-SQUARED SPACING: 0.0625
Info: NONBONDED TABLE SIZE: 705 POINTS
TCL: Running for 1500000 steps
ETITLE: TS BOND ANGLE DIHED IMPRP ELECT VDW BOUNDARY MISC KINETIC TOTAL TEMP POTENTIAL TOTALAVG TEMPAVG PRESSURE GPRESSURE VOLUME PRESSAVG GPRESSAVG
ENERGY: 0 1.1944 10.7085 5.6891 0.0000 -10650.4688 1502.0367 0.0000 0.0000 1671.9137 -7458.9265 288.5272 -9130.8402 -7458.9265 288.5272 754.5168 847.4931 29571.6924 754.5168 847.4931
ENERGY: 300000 0.5902 10.0870 6.0226 0.0000 -10584.2288 1403.3356 0.0000 0.0000 1712.3476 -7451.8459 295.5050 -9164.1934 -7413.5970 296.6563 -302.9377 -252.1446 29624.8707 335.1002 408.4682
ENERGY: 600000 3.5169 6.0936 6.7351 0.0000 -10589.8777 1471.3775 0.0000 0.0000 1688.4741 -7413.6804 291.3851 -9102.1545 -7396.2261 297.6866 294.5902 437.2299 30021.0649 371.4354 455.0037
ENERGY: 900000 2.2724 8.1307 5.8274 0.0000 -10548.9103 1402.6216 0.0000 0.0000 1694.3276 -7435.7307 292.3952 -9130.0583 -7404.5603 296.5797 -363.0398 -275.3790 29979.4994 179.4882 257.2452
ENERGY: 1200000 4.1515 10.7717 5.2781 0.0000 -10558.9051 1445.6686 0.0000 0.0000 1732.2602 -7360.7750 298.9414 -9093.0352 -7405.0368 296.2556 155.3748 247.5436 29770.1610 189.4212 263.7362
ENERGY: 1500000 0.9858 11.6471 6.4503 0.0000 -10472.6696 1392.3099 0.0000 0.0000 1698.8371 -7362.4394 293.1734 -9061.2765 -7404.2255 296.8136 -466.5396 -402.8044 30790.6995 224.9230 304.4784
TCL: Running FEP window   9: Lambda1 0.39999999999999997 Lambda2 0.44999999999999996 [dLambda 0.04999999999999999]
TCL: Setting parameter firsttimestep to 0
TCL: Setting parameter alchLambda to 0.39999999999999997
Info: NONBONDED TABLE R-SQUARED SPACING: 0.0625
Info: NONBONDED TABLE SIZE: 705 POINTS
TCL: Setting parameter alchLambda2 to 0.44999999999999996
Info: NONBONDED TABLE R-SQUARED SPACING: 0.0625
Info: NONBONDED TABLE SIZE: 705 POINTS
TCL: Running for 1500000 steps
ETITLE: TS BOND ANGLE DIHED IMPRP ELECT VDW BOUNDARY MISC KINETIC TOTAL TEMP POTENTIAL TOTALAVG TEMPAVG PRESSURE GPRESSURE VOLUME PRESSAVG GPRESSAVG
ENERGY: 0 0.9858 11.6471 6.4503 0.0000 -10472.6693 1392.3511 0.0000 0.0000 1697.9958 -7363.2392 293.0282 -9061.2350 -7363.2392 293.0282 -468.9195 -396.3672 30790.6995 -468.9195 -396.3672
ENERGY: 300000 2.6135 7.8002 5.0632 0.0000 -10735.1781 1492.0772 0.0000 0.0000 1725.6442 -7501.9798 297.7996 -9227.6239 -7344.2797 300.3190 499.4271 518.9542 29258.5380 234.1932 262.5536
ENERGY: 600000 2.3205 15.5130 8.1761 0.0000 -10506.6978 1404.5594 0.0000 0.0000 1760.2787 -7315.8500 303.7766 -9076.1287 -7341.5198 302.0650 -14.2128 23.3588 29871.9161 73.7058 126.4129
ENERGY: 900000 3.1272 12.1592 6.0606 0.0000 -10579.0585 1410.8101 0.0000 0.0000 1761.2890 -7385.6123 303.9509 -9146.9014 -7339.1060 302.6087 15.2459 112.0915 29849.4582 -61.4815 1.5012
ENERGY: 1200000 1.3357 8.6415 5.9098 0.0000 -10457.8277 1412.3585 0.0000 0.0000 1708.4421 -7321.1401 294.8310 -9029.5822 -7341.5213 301.6853 137.1318 220.8448 29882.5027 -109.7906 -50.3093
ENERGY: 1500000 2.2164 8.0523 4.0861 0.0000 -10428.4816 1375.5631 0.0000 0.0000 1824.4748 -7214.0888 314.8551 -9038.5636 -7334.0926 302.7703 -180.5652 -122.2159 30130.5413 -136.9716 -76.4483
TCL: Running FEP window  10: Lambda1 0.44999999999999996 Lambda2 0.49999999999999994 [dLambda 0.04999999999999999]
TCL: Setting parameter firsttimestep to 0
TCL: Setting parameter alchLambda to 0.44999999999999996
Info: NONBONDED TABLE R-SQUARED SPACING: 0.0625
Info: NONBONDED TABLE SIZE: 705 POINTS
TCL: Setting parameter alchLambda2 to 0.49999999999999994
Info: NONBONDED TABLE R-SQUARED SPACING: 0.0625
Info: NONBONDED TABLE SIZE: 705 POINTS
TCL: Running for 1500000 steps
ETITLE: TS BOND ANGLE DIHED IMPRP ELECT VDW BOUNDARY MISC KINETIC TOTAL TEMP POTENTIAL TOTALAVG TEMPAVG PRESSURE GPRESSURE VOLUME PRESSAVG GPRESSAVG
ENERGY: 0 2.2164 8.0524 4.0861 0.0000 -10428.4819 1375.7356 0.0000 0.0000 1823.6384 -7214.7532 314.7108 -9038.3916 -7214.7532 314.7108 -202.5367 -114.2543 30130.5413 -202.5367 -114.2543
ENERGY: 300000 4.3453 9.8169 6.5535 0.0000 -10381.4406 1347.7656 0.0000 0.0000 1702.5388 -7310.4205 293.8122 -9012.9593 -7320.2963 302.7407 -595.7728 -565.3424 30498.9870 -304.8170 -249.4540
ENERGY: 600000 2.4200 9.5219 6.1757 0.0000 -10490.4812 1336.2626 0.0000 0.0000 1777.1522 -7358.9487 306.6885 -9136.1009 -7356.6421 301.9694 -911.2997 -820.4724 30267.0002 -323.8316 -258.2467
ENERGY: 900000 2.6893 8.2216 6.2557 0.0000 -10679.6245 1490.9661 0.0000 0.0000 1789.8576 -7381.6342 308.8811 -9171.4917 -7353.1983 302.5555 746.2356 803.4314 29453.2899 -214.8152 -152.1488
ENERGY: 1200000 1.0747 6.5964 7.2485 0.0000 -10613.8946 1451.8163 0.0000 0.0000 1737.4588 -7409.6998 299.8385 -9147.1586 -7369.9398 301.9587 217.7350 262.7086 29819.3170 -177.2030 -120.6426
ENERGY: 1500000 4.8525 11.0624 5.2894 0.0000 -10596.0280 1474.5695 0.0000 0.0000 1775.9333 -7324.3208 306.4782 -9100.2541 -7359.1901 302.7596 355.6693 433.0770 30136.9293 -276.6607 -215.6149
TCL: Running FEP window  11: Lambda1 0.49999999999999994 Lambda2 0.5499999999999999 [dLambda 0.04999999999999999]
TCL: Setting parameter firsttimestep to 0
TCL: Setting parameter alchLambda to 0.49999999999999994
Info: NONBONDED TABLE R-SQUARED SPACING: 0.0625
Info: NONBONDED TABLE SIZE: 705 POINTS
TCL: Setting parameter alchLambda2 to 0.5499999999999999
Info: NONBONDED TABLE R-SQUARED SPACING: 0.0625
Info: NONBONDED TABLE SIZE: 705 POINTS
TCL: Running for 1500000 steps
ETITLE: TS BOND ANGLE DIHED IMPRP ELECT VDW BOUNDARY MISC KINETIC TOTAL TEMP POTENTIAL TOTALAVG TEMPAVG PRESSURE GPRESSURE VOLUME PRESSAVG GPRESSAVG
ENERGY: 0 4.8525 11.0624 5.2894 0.0000 -10596.0270 1474.2556 0.0000 0.0000 1775.0512 -7325.5157 306.3259 -9100.5670 -7325.5157 306.3259 355.1865 435.4048 30136.9293 355.1865 435.4048
ENERGY: 300000 3.4756 7.9851 5.8503 0.0000 -10557.0947 1472.4275 0.0000 0.0000 1668.9839 -7398.3722 288.0216 -9067.3561 -7378.1605 301.2687 441.1698 449.2683 30119.3662 38.5098 74.6301
ENERGY: 600000 2.0527 7.3530 5.4919 0.0000 -10680.4023 1425.4646 0.0000 0.0000 1782.9509 -7457.0892 307.6892 -9240.0400 -7408.0727 300.6111 -47.4196 9.8960 29438.2044 165.2056 198.5800
ENERGY: 900000 1.2218 5.1185 5.4262 0.0000 -10601.9644 1448.4243 0.0000 0.0000 1777.8753 -7363.8982 306.8133 -9141.7735 -7396.4035 301.1062 131.1182 271.1521 29975.2721 75.8818 127.2579
ENERGY: 1200000 1.1049 8.1043 5.8023 0.0000 -10578.8133 1395.2054 0.0000 0.0000 1796.6945 -7371.9019 310.0610 -9168.5964 -7407.1929 300.8546 -259.9589 -218.0422 29947.5489 127.3866 174.9204
ENERGY: 1500000 3.9288 6.9796 6.4144 0.0000 -10610.5366 1402.3181 0.0000 0.0000 1752.1849 -7438.7108 302.3798 -9190.8957 -7410.4573 300.5098 -90.3099 -10.2993 29440.0951 95.0776 148.1535
TCL: Running FEP window  12: Lambda1 0.5499999999999999 Lambda2 0.6    [dLambda 0.050000000000000044]
TCL: Setting parameter firsttimestep to 0
TCL: Setting parameter alchLambda to 0.5499999999999999
Info: NONBONDED TABLE R-SQUARED SPACING: 0.0625
Info: NONBONDED TABLE SIZE: 705 POINTS
TCL: Setting parameter alchLambda2 to 0.6
Info: NONBONDED TABLE R-SQUARED SPACING: 0.0625
Info: NONBONDED TABLE SIZE: 705 POINTS
TCL: Running for 1500000 steps
ETITLE: TS BOND ANGLE DIHED IMPRP ELECT VDW BOUNDARY MISC KINETIC TOTAL TEMP POTENTIAL TOTALAVG TEMPAVG PRESSURE GPRESSURE VOLUME PRESSAVG GPRESSAVG
ENERGY: 0 3.9288 6.9796 6.4144 0.0000 -10610.3396 1402.5620 0.0000 0.0000 1751.3127 -7439.1421 302.2293 -9190.4548 -7439.1421 302.2293 -84.8321 -0.2155 29440.0951 -84.8321 -0.2155
ENERGY: 300000 1.5889 6.9457 5.7395 0.0000 -10505.7710 1407.9661 0.0000 0.0000 1729.5334 -7353.9973 298.4708 -9083.5307 -7379.3228 300.7899 -1.3791 7.1015 29963.5706 -31.1870 15.7726
ENERGY: 600000 1.3976 11.0029 6.9022 0.0000 -10559.4853 1454.8658 0.0000 0.0000 1754.9168 -7330.4000 302.8513 -9085.3168 -7373.9780 300.0211 235.4440 307.4919 29971.5362 97.7924 149.6081
ENERGY: 900000 3.8720 10.1074 4.7440 0.0000 -10541.0211 1428.2813 0.0000 0.0000 1742.7922 -7351.2243 300.7589 -9094.0165 -7385.0545 299.3438 -0.9660 -0.4961 30016.6883 -63.1952 -15.9781
ENERGY: 1200000 1.9665 13.0210 5.7550 0.0000 -10364.8527 1273.5788 0.0000 0.0000 1763.8261 -7306.7054 304.3888 -9070.5315 -7365.7444 300.5923 -1058.9525 -981.2717 30303.1090 -140.5361 -93.4651
ENERGY: 1500000 2.2450 7.2900 5.8166 0.0000 -10537.1750 1370.9553 0.0000 0.0000 1781.7778 -7369.0904 307.4868 -9150.8682 -7356.4018 301.1528 -309.7386 -209.4264 29759.6507 -179.8780 -125.5437
TCL: Running FEP window  13: Lambda1 0.6    Lambda2 0.65   [dLambda 0.050000000000000044]
TCL: Setting parameter firsttimestep to 0
TCL: Setting parameter alchLambda to 0.6
Info: NONBONDED TABLE R-SQUARED SPACING: 0.0625
Info: NONBONDED TABLE SIZE: 705 POINTS
TCL: Setting parameter alchLambda2 to 0.65
Info: NONBONDED TABLE R-SQUARED SPACING: 0.0625
Info: NONBONDED TABLE SIZE: 705 POINTS
TCL: Running for 1500000 steps
ETITLE: TS BOND ANGLE DIHED IMPRP ELECT VDW BOUNDARY MISC KINETIC TOTAL TEMP POTENTIAL TOTALAVG TEMPAVG PRESSURE GPRESSURE VOLUME PRESSAVG GPRESSAVG
ENERGY: 0 2.2450 7.2900 5.8166 0.0000 -10537.1402 1371.2314 0.0000 0.0000 1780.9338 -7369.6235 307.3411 -9150.5573 -7369.6235 307.3411 -283.0986 -197.3072 29759.6507 -283.0986 -197.3072
ENERGY: 300000 1.3554 8.7949 6.4318 0.0000 -10480.3327 1404.1507 0.0000 0.0000 1757.2678 -7302.3320 303.2570 -9059.5999 -7373.0334 300.5398 -57.2748 -12.0966 30299.6972 -344.4847 -287.5654
ENERGY: 600000 2.6098 10.7418 5.8497 0.0000 -10547.3974 1374.1785 0.0000 0.0000 1726.2537 -7427.7638 297.9048 -9154.0175 -7384.8634 299.7799 -650.5800 -579.4266 30293.3682 -315.0103 -265.9845
ENERGY: 900000 3.0911 6.1855 5.4164 0.0000 -10538.0096 1432.0672 0.0000 0.0000 1691.1155 -7400.1340 291.8409 -9091.2495 -7369.4287 298.8000 -31.7102 65.8229 30129.9513 -270.8644 -217.4224
ENERGY: 1200000 2.6925 8.4660 6.3434 0.0000 -10560.6710 1393.0866 0.0000 0.0000 1662.0677 -7488.0148 286.8280 -9150.0825 -7369.2253 298.6195 -368.8475 -306.0054 29847.2772 -162.6034 -109.7171
ENERGY: 1500000 2.7053 7.4552 7.4118 0.0000 -10635.6314 1422.7116 0.0000 0.0000 1705.1012 -7490.2464 294.2544 -9195.3476 -7381.0209 299.4462 -93.9630 -62.5191 29896.4711 -95.6912 -41.3612
TCL: Running FEP window  14: Lambda1 0.65   Lambda2 0.7000000000000001 [dLambda 0.050000000000000044]
TCL: Setting parameter firsttimestep to 0
TCL: Setting parameter alchLambda to 0.65
Info: NONBONDED TABLE R-SQUARED SPACING: 0.0625
Info: NONBONDED TABLE SIZE: 705 POINTS
TCL: Setting parameter alchLambda2 to 0.7000000000000001
Info: NONBONDED TABLE R-SQUARED SPACING: 0.0625
Info: NONBONDED TABLE SIZE: 705 POINTS
TCL: Running for 1500000 steps
ETITLE: TS BOND ANGLE DIHED IMPRP ELECT VDW BOUNDARY MISC KINETIC TOTAL TEMP POTENTIAL TOTALAVG TEMPAVG PRESSURE GPRESSURE VOLUME PRESSAVG GPRESSAVG
ENERGY: 0 2.7053 7.4552 7.4118 0.0000 -10635.7541 1422.4531 0.0000 0.0000 1704.2955 -7491.4332 294.1154 -9195.7287 -7491.4332 294.1154 -139.7960 -56.1843 29896.4711 -139.7960 -56.1843
ENERGY: 300000 2.1495 12.0407 5.5680 0.0000 -10443.5589 1329.6151 0.0000 0.0000 1748.7681 -7345.4174 301.7902 -9094.1856 -7402.3787 296.3868 -593.8519 -581.1077 29989.9652 -356.6148 -309.2198
ENERGY: 600000 3.7831 8.8324 6.7948 0.0000 -10631.0877 1438.7512 0.0000 0.0000 1708.6670 -7464.2592 294.8698 -9172.9262 -7413.7452 294.4880 -347.7182 -238.3100 30214.2850 -385.4038 -329.8534
ENERGY: 900000 2.1217 6.5842 5.1264 0.0000 -10557.5419 1451.2883 0.0000 0.0000 1733.3488 -7359.0725 299.1292 -9092.4213 -7403.2000 295.4657 239.9598 364.8245 30087.3481 -393.0473 -340.2402
ENERGY: 1200000 1.1523 11.4809 5.5668 0.0000 -10540.2489 1523.4027 0.0000 0.0000 1746.5065 -7252.1397 301.3999 -8998.6462 -7394.7286 297.2880 1110.2171 1267.2470 30079.0725 -260.0988 -195.7218
ENERGY: 1500000 3.9643 8.3054 4.9956 0.0000 -10388.5381 1307.1086 0.0000 0.0000 1707.4140 -7356.7502 294.6536 -9064.1642 -7389.6306 297.6543 -778.1937 -687.6586 30256.8953 -270.3385 -202.0444
TCL: Running FEP window  15: Lambda1 0.7000000000000001 Lambda2 0.7500000000000001 [dLambda 0.050000000000000044]
TCL: Setting parameter firsttimestep to 0
TCL: Setting parameter alchLambda to 0.7000000000000001
Info: NONBONDED TABLE R-SQUARED SPACING: 0.0625
Info: NONBONDED TABLE SIZE: 705 POINTS
TCL: Setting parameter alchLambda2 to 0.7500000000000001
Info: NONBONDED TABLE R-SQUARED SPACING: 0.0625
Info: NONBONDED TABLE SIZE: 705 POINTS
TCL: Running for 1500000 steps
ETITLE: TS BOND ANGLE DIHED IMPRP ELECT VDW BOUNDARY MISC KINETIC TOTAL TEMP POTENTIAL TOTALAVG TEMPAVG PRESSURE GPRESSURE VOLUME PRESSAVG GPRESSAVG
ENERGY: 0 3.9643 8.3054 4.9956 0.0000 -10389.2838 1306.5977 0.0000 0.0000 1706.5480 -7358.8728 294.5041 -9065.4208 -7358.8728 294.5041 -766.0362 -684.6528 30256.8953 -766.0362 -684.6528
ENERGY: 300000 0.8009 8.0400 5.1472 0.0000 -10602.1620 1485.6737 0.0000 0.0000 1721.9671 -7380.5331 297.1650 -9102.5003 -7364.7741 295.6001 532.7876 587.2805 30034.8408 -414.7305 -336.7891
ENERGY: 600000 1.2919 10.2315 5.7180 0.0000 -10537.8517 1418.9356 0.0000 0.0000 1741.4866 -7360.1882 300.5336 -9101.6747 -7386.0541 297.4126 -81.7350 13.4635 30050.7127 -342.0521 -268.2179
ENERGY: 900000 1.5785 11.6038 7.8847 0.0000 -10455.5141 1361.8125 0.0000 0.0000 1712.3084 -7360.3262 295.4982 -9072.6346 -7396.3765 298.2701 -316.2910 -201.8901 29948.2879 -245.3860 -175.3486
ENERGY: 1200000 3.3056 9.3666 8.1106 0.0000 -10477.5665 1373.1372 0.0000 0.0000 1762.7535 -7320.8931 304.2037 -9083.6466 -7385.0800 298.8917 -185.0406 -127.6368 29810.0013 -250.1050 -184.0442
ENERGY: 1500000 1.2152 6.7042 8.3358 0.0000 -10623.6435 1417.7672 0.0000 0.0000 1715.9038 -7473.7173 296.1187 -9189.6211 -7389.8218 298.4671 -281.4573 -195.6632 30189.6843 -242.4487 -176.9762
TCL: Running FEP window  16: Lambda1 0.7500000000000001 Lambda2 0.8000000000000002 [dLambda 0.050000000000000044]
TCL: Setting parameter firsttimestep to 0
TCL: Setting parameter alchLambda to 0.7500000000000001
Info: NONBONDED TABLE R-SQUARED SPACING: 0.0625
Info: NONBONDED TABLE SIZE: 705 POINTS
TCL: Setting parameter alchLambda2 to 0.8000000000000002
Info: NONBONDED TABLE R-SQUARED SPACING: 0.0625
Info: NONBONDED TABLE SIZE: 705 POINTS
TCL: Running for 1500000 steps
ETITLE: TS BOND ANGLE DIHED IMPRP ELECT VDW BOUNDARY MISC KINETIC TOTAL TEMP POTENTIAL TOTALAVG TEMPAVG PRESSURE GPRESSURE VOLUME PRESSAVG GPRESSAVG
ENERGY: 0 1.2152 6.7042 8.3358 0.0000 -10624.2635 1418.0479 0.0000 0.0000 1715.0376 -7474.9228 295.9692 -9189.9604 -7474.9228 295.9692 -260.6835 -179.6332 30189.6843 -260.6835 -179.6332
ENERGY: 300000 4.3121 8.7208 5.8800 0.0000 -10363.2431 1351.6603 0.0000 0.0000 1732.5539 -7260.1160 298.9920 -8992.6699 -7386.4710 298.7949 -293.7298 -261.9788 30288.2240 3.6093 46.0229
ENERGY: 600000 2.7649 8.1354 7.6080 0.0000 -10465.8094 1307.2974 0.0000 0.0000 1745.0215 -7394.9822 301.1436 -9140.0037 -7379.0161 298.9598 -869.2694 -898.6811 30037.2147 8.3534 48.8397
ENERGY: 900000 0.6316 14.6531 5.9462 0.0000 -10672.4776 1476.1341 0.0000 0.0000 1734.1292 -7440.9835 299.2639 -9175.1127 -7398.2174 297.7276 491.8783 532.2176 29726.7309 84.7475 131.6296
ENERGY: 1200000 2.9393 7.7718 6.1072 0.0000 -10599.9439 1408.4043 0.0000 0.0000 1728.5126 -7446.2087 298.2946 -9174.7213 -7393.5487 298.7217 -276.5372 -177.0422 29921.7122 -46.6289 1.0400
ENERGY: 1500000 2.5055 6.7704 6.3946 0.0000 -10675.5351 1476.9132 0.0000 0.0000 1724.2918 -7458.6596 297.5662 -9182.9514 -7396.8575 298.8490 393.6066 452.4534 29593.6041 -1.6047 45.7608
TCL: Running FEP window  17: Lambda1 0.8000000000000002 Lambda2 0.8500000000000002 [dLambda 0.050000000000000044]
TCL: Setting parameter firsttimestep to 0
TCL: Setting parameter alchLambda to 0.8000000000000002
Info: NONBONDED TABLE R-SQUARED SPACING: 0.0625
Info: NONBONDED TABLE SIZE: 705 POINTS
TCL: Setting parameter alchLambda2 to 0.8500000000000002
Info: NONBONDED TABLE R-SQUARED SPACING: 0.0625
Info: NONBONDED TABLE SIZE: 705 POINTS
TCL: Running for 1500000 steps
ETITLE: TS BOND ANGLE DIHED IMPRP ELECT VDW BOUNDARY MISC KINETIC TOTAL TEMP POTENTIAL TOTALAVG TEMPAVG PRESSURE GPRESSURE VOLUME PRESSAVG GPRESSAVG
ENERGY: 0 2.5055 6.7704 6.3946 0.0000 -10676.5652 1477.2263 0.0000 0.0000 1723.4416 -7460.2268 297.4195 -9183.6684 -7460.2268 297.4195 380.4898 466.3614 29593.6041 380.4898 466.3614
ENERGY: 300000 3.1556 6.1451 6.1193 0.0000 -10472.2497 1360.3776 0.0000 0.0000 1751.9137 -7344.5384 302.3330 -9096.4521 -7397.2584 300.7634 -466.6872 -365.4488 30315.9313 459.8333 525.0973
ENERGY: 600000 4.2580 9.0895 5.5606 0.0000 -10644.9596 1473.8614 0.0000 0.0000 1735.8754 -7416.3147 299.5652 -9152.1901 -7407.2684 299.5947 482.8551 500.0910 29761.6197 222.8847 271.6183
ENERGY: 900000 1.2586 8.4073 5.8516 0.0000 -10613.1354 1456.1234 0.0000 0.0000 1747.5045 -7393.9901 301.5721 -9141.4947 -7413.5542 299.2116 539.3189 618.6566 29381.2800 61.2116 108.6690
ENERGY: 1200000 1.2206 8.2427 6.0980 0.0000 -10555.8567 1448.1100 0.0000 0.0000 1724.5918 -7367.5935 297.6180 -9092.1854 -7406.8513 298.6026 420.7911 440.5645 29897.9770 47.2934 94.4913
ENERGY: 1500000 2.1158 8.4301 6.9528 0.0000 -10560.2418 1389.8159 0.0000 0.0000 1759.1068 -7393.8204 303.5744 -9152.9272 -7403.7527 298.5618 -89.6693 -95.9838 29703.8533 -13.4804 31.6853
TCL: Running FEP window  18: Lambda1 0.8500000000000002 Lambda2 0.9000000000000002 [dLambda 0.050000000000000044]
TCL: Setting parameter firsttimestep to 0
TCL: Setting parameter alchLambda to 0.8500000000000002
Info: NONBONDED TABLE R-SQUARED SPACING: 0.0625
Info: NONBONDED TABLE SIZE: 705 POINTS
TCL: Setting parameter alchLambda2 to 0.9000000000000002
Info: NONBONDED TABLE R-SQUARED SPACING: 0.0625
Info: NONBONDED TABLE SIZE: 705 POINTS
TCL: Running for 1500000 steps
ETITLE: TS BOND ANGLE DIHED IMPRP ELECT VDW BOUNDARY MISC KINETIC TOTAL TEMP POTENTIAL TOTALAVG TEMPAVG PRESSURE GPRESSURE VOLUME PRESSAVG GPRESSAVG
ENERGY: 0 2.1158 8.4301 6.9528 0.0000 -10561.5053 1389.7163 0.0000 0.0000 1758.2279 -7396.0625 303.4227 -9154.2903 -7396.0625 303.4227 -175.4261 -88.8379 29703.8533 -175.4261 -88.8379
ENERGY: 300000 3.7525 3.8750 4.8562 0.0000 -10653.4898 1442.7190 0.0000 0.0000 1745.0144 -7453.2727 301.1424 -9198.2870 -7425.1540 300.5805 -40.9994 32.0366 30074.7695 -88.6516 -42.4541
ENERGY: 600000 2.4519 8.0390 5.3915 0.0000 -10510.0196 1363.9231 0.0000 0.0000 1725.2758 -7404.9382 297.7360 -9130.2140 -7408.8114 300.3416 -286.7876 -258.5521 29711.6583 5.1765 55.6867
ENERGY: 900000 1.1079 6.2535 7.3561 0.0000 -10667.8261 1468.2924 0.0000 0.0000 1743.2762 -7441.5401 300.8424 -9184.8162 -7401.5656 300.3329 480.6043 506.7936 29433.6682 4.3147 48.2514
ENERGY: 1200000 2.3163 7.5901 6.0421 0.0000 -10544.2708 1426.2253 0.0000 0.0000 1710.9963 -7391.1006 295.2718 -9102.0969 -7400.7339 300.2743 50.4362 101.5870 30076.7541 34.1414 81.1007
ENERGY: 1500000 1.5626 6.5891 7.3212 0.0000 -10538.8152 1359.9474 0.0000 0.0000 1704.4503 -7458.9446 294.1421 -9163.3949 -7405.0074 299.6433 -755.6648 -650.7834 30159.2720 32.0975 80.3284
TCL: Running FEP window  19: Lambda1 0.9000000000000002 Lambda2 0.9500000000000003 [dLambda 0.050000000000000044]
TCL: Setting parameter firsttimestep to 0
TCL: Setting parameter alchLambda to 0.9000000000000002
Info: NONBONDED TABLE R-SQUARED SPACING: 0.0625
Info: NONBONDED TABLE SIZE: 705 POINTS
TCL: Setting parameter alchLambda2 to 0.9500000000000003
Info: NONBONDED TABLE R-SQUARED SPACING: 0.0625
Info: NONBONDED TABLE SIZE: 705 POINTS
TCL: Running for 1500000 steps
ETITLE: TS BOND ANGLE DIHED IMPRP ELECT VDW BOUNDARY MISC KINETIC TOTAL TEMP POTENTIAL TOTALAVG TEMPAVG PRESSURE GPRESSURE VOLUME PRESSAVG GPRESSAVG
ENERGY: 0 1.5625 6.5891 7.3212 0.0000 -10539.5826 1359.5005 0.0000 0.0000 1703.6062 -7461.0031 293.9964 -9164.6093 -7461.0031 293.9964 -720.4863 -647.7108 30159.2720 -720.4863 -647.7108
ENERGY: 300000 0.6777 9.2516 7.0163 0.0000 -10524.2839 1342.0758 0.0000 0.0000 1703.0094 -7462.2531 293.8935 -9165.2625 -7408.8237 299.6142 -385.1891 -460.8722 29671.0913 -0.4277 1.9270
ENERGY: 600000 1.4239 13.2693 6.5158 0.0000 -10560.4618 1415.7158 0.0000 0.0000 1655.6951 -7467.8418 285.7283 -9123.5370 -7402.7735 297.3924 28.4269 99.7728 29986.3450 -272.2269 -257.1971
ENERGY: 900000 2.6820 7.5717 4.7265 0.0000 -10542.3908 1357.7781 0.0000 0.0000 1753.5700 -7416.0625 302.6189 -9169.6325 -7417.8754 296.9853 -648.2109 -543.2937 30153.9654 -313.4152 -279.0813
ENERGY: 1200000 2.3220 12.8131 5.9402 0.0000 -10448.4656 1364.0914 0.0000 0.0000 1717.0717 -7346.2272 296.3202 -9063.2989 -7402.7540 297.6048 -170.6659 -146.7926 30128.4108 -265.4898 -226.7092
ENERGY: 1500000 5.8209 15.6216 7.2700 0.0000 -10570.9049 1429.6389 0.0000 0.0000 1761.9836 -7350.5698 304.0708 -9112.5534 -7386.0976 299.0384 81.1300 163.7321 30083.0057 -185.7223 -147.5869
TCL: Running FEP window  20: Lambda1 0.9500000000000003 Lambda2 1.0    [dLambda 0.04999999999999971]
TCL: Setting parameter firsttimestep to 0
TCL: Setting parameter alchLambda to 0.9500000000000003
Info: NONBONDED TABLE R-SQUARED SPACING: 0.0625
Info: NONBONDED TABLE SIZE: 705 POINTS
TCL: Setting parameter alchLambda2 to 1.0
Info: NONBONDED TABLE R-SQUARED SPACING: 0.0625
Info: NONBONDED TABLE SIZE: 705 POINTS
TCL: Running for 1500000 steps
ETITLE: TS BOND ANGLE DIHED IMPRP ELECT VDW BOUNDARY MISC KINETIC TOTAL TEMP POTENTIAL TOTALAVG TEMPAVG PRESSURE GPRESSURE VOLUME PRESSAVG GPRESSAVG
ENERGY: 0 5.8208 15.6216 7.2700 0.0000 -10571.4784 1429.6761 0.0000 0.0000 1761.0908 -7351.9990 303.9167 -9113.0898 -7351.9990 303.9167 85.3213 177.1893 30083.0057 85.3213 177.1893
ENERGY: 300000 2.4610 7.5373 4.8679 0.0000 -10587.4658 1512.4592 0.0000 0.0000 1740.8566 -7319.2838 300.4249 -9060.1403 -7359.9814 298.8949 845.0996 916.1643 30091.9812 282.8068 366.8116
ENERGY: 600000 3.5492 6.6888 5.2761 0.0000 -10743.3323 1520.6762 0.0000 0.0000 1737.0241 -7470.1178 299.7635 -9207.1420 -7390.6894 298.0339 932.8917 963.2267 29135.4581 168.5237 238.5049
ENERGY: 900000 2.4115 6.6337 6.7217 0.0000 -10535.2646 1385.8534 0.0000 0.0000 1772.7877 -7360.8567 305.9353 -9133.6444 -7405.0445 298.1095 -489.3347 -379.0941 30515.1157 59.9627 130.4829
ENERGY: 1200000 2.5592 11.1450 5.6789 0.0000 -10427.3236 1330.7501 0.0000 0.0000 1709.0751 -7368.1152 294.9402 -9077.1904 -7399.7878 298.1581 -517.8212 -488.0848 29920.5066 -11.1207 63.9911
ENERGY: 1500000 0.5967 14.5394 5.2362 0.0000 -10495.2117 1350.9553 0.0000 0.0000 1712.5556 -7411.3286 295.5409 -9123.8842 -7397.8735 297.8982 -463.5231 -418.7231 30095.8734 -36.9951 35.4543
TCL: Exiting due to exit command.
