Info: SIMULATION PARAMETERS:
Info: TIMESTEP               2
Info: NUMBER OF STEPS        0
Info: STEPS PER CYCLE        10
Info: PERIODIC CELL BASIS 1  32.0146 0 0
Info: PERIODIC CELL BASIS 2  0 30.2313 0
Info: PERIODIC CELL BASIS 3  0 0 31.5222
Info: PERIODIC CELL CENTER   0 0 0
Info: WRAPPING WATERS AROUND PERIODIC BOUNDARIES ON OUTPUT.
Info: WRAPPING ALL CLUSTERS AROUND PERIODIC BOUNDARIES ON OUTPUT.
Info: FIRST LDB TIMESTEP     50
Info: LAST LDB TIMESTEP     -1
Info: HOM BACKGROUND SCALING 1
Info: PME BACKGROUND SCALING 1
Info: MIN ATOMS PER PATCH    40
Info: EMPTY PATCH LOAD       40 ATOMS
Info: VELOCITY FILE          mobley_590519_equil.vel
Info: CENTER OF MASS MOVING INITIALLY? NO
Info: DIELECTRIC             1
Info: EXCLUDE                SCALED ONE-FOUR
Info: 1-4 ELECTROSTATICS SCALED BY 0.833333
Info: MODIFIED 1-4 VDW PARAMETERS WILL BE USED
Info: DCD FILENAME           mobley_590519_prod.dcd
Info: DCD FREQUENCY          100000
Info: DCD FIRST STEP         100000
Info: DCD FILE WILL CONTAIN UNIT CELL DATA
Info: XST FILENAME           mobley_590519_prod.xst
Info: XST FREQUENCY          100000
Info: NO VELOCITY DCD OUTPUT
Info: NO FORCE DCD OUTPUT
Info: OUTPUT FILENAME        mobley_590519_prod
Info: BINARY OUTPUT FILES WILL BE USED
Info: RESTART FILENAME       mobley_590519_prod.restart
Info: RESTART FREQUENCY      100000
Info: BINARY RESTART FILES WILL BE USED
Info: CUTOFF                 9
Info: PAIRLIST DISTANCE      11
Info: PAIRLIST SHRINK RATE   0.01
Info: PAIRLIST GROW RATE     0.01
Info: PAIRLIST TRIGGER       0.3
Info: PAIRLISTS PER CYCLE    2
Info: PAIRLISTS ENABLED
Info: MARGIN                 2
Info: HYDROGEN GROUP CUTOFF  2.5
Info: PATCH DIMENSION        15.5
Info: ENERGY OUTPUT STEPS    100000
Info: ENERGY EVALUATION STEPS    100000
Info: OUTPUT ENERGY PRECISION 4
Info: CROSSTERM ENERGY INCLUDED IN DIHEDRAL
Info: TIMING OUTPUT STEPS    1000000
Info: PRESSURE OUTPUT STEPS  100000
Info: ALCHEMICAL FEP ON
Info: FEP CURRENT LAMBDA VALUE     1
Info: FEP COMPARISON LAMBDA VALUE  0.95
Info: FEP INTRA-ALCHEMICAL NON-BONDED INTERACTIONS WILL BE RETAINED
Info: FEP INTRA-ALCHEMICAL BONDED INTERACTIONS WILL BE RETAINED
Info: FEP VDW SHIFTING COEFFICIENT 5
Info: FEP ELEC. ACTIVE FOR ANNIHILATED PARTICLES BETWEEN LAMBDA = 0 AND LAMBDA = 0.5
Info: FEP ELEC. ACTIVE FOR EXNIHILATED PARTICLES BETWEEN LAMBDA = 0.5 AND LAMBDA = 1
Info: FEP VDW ACTIVE FOR ANNIHILATED PARTICLES BETWEEN LAMBDA = 0 AND LAMBDA = 1
Info: FEP VDW ACTIVE FOR EXNIHILATED PARTICLES BETWEEN LAMBDA = 0 AND LAMBDA = 1
Info: FEP BOND ACTIVE FOR ANNIHILATED PARTICLES BETWEEN LAMBDA = 1 AND LAMBDA = 1
Info: FEP BOND ACTIVE FOR EXNIHILATED PARTICLES BETWEEN LAMBDA = 0 AND LAMBDA = 0
Info: LANGEVIN DYNAMICS ACTIVE
Info: LANGEVIN TEMPERATURE   300
Info: LANGEVIN USING BBK INTEGRATOR
Info: LANGEVIN DAMPING COEFFICIENT IS 1 INVERSE PS
Info: LANGEVIN DYNAMICS APPLIED TO HYDROGENS
Info: LANGEVIN PISTON PRESSURE CONTROL ACTIVE
Info:        TARGET PRESSURE IS 1.01325 BAR
Info:     OSCILLATION PERIOD IS 50 FS
Info:             DECAY TIME IS 25 FS
Info:     PISTON TEMPERATURE IS 300 K
Info:       PRESSURE CONTROL IS GROUP-BASED
Info:    INITIAL STRAIN RATE IS 0.000653972 0.000653972 0.000653972
Info:       CELL FLUCTUATION IS ISOTROPIC
Info: PARTICLE MESH EWALD (PME) ACTIVE
Info: PME TOLERANCE               1e-06
Info: PME EWALD COEFFICIENT       0.348832
Info: PME INTERPOLATION ORDER     4
Info: PME GRID DIMENSIONS         36 32 32
Info: PME MAXIMUM GRID SPACING    1
Info: PME CALCULATION WILL BE PERFORMED ON GPU
Info: FULL ELECTROSTATIC EVALUATION FREQUENCY      2
Info: USING VERLET I (r-RESPA) MTS SCHEME.
Info: C1 SPLITTING OF LONG RANGE ELECTROSTATICS
Info: PLACING ATOMS IN PATCHES BY HYDROGEN GROUPS
Info: RIGID BONDS TO HYDROGEN : ALL
Info:         ERROR TOLERANCE : 1e-08
Info:          MAX ITERATIONS : 100
Info: RIGID WATER USING SETTLE ALGORITHM
Info: RANDOM NUMBER SEED     1743911861
Info: USE HYDROGEN BONDS?    NO
Info: Using AMBER format force field!
Info: AMBER PARM FILE        mobley_590519.prmtop
Info: COORDINATE PDB         mobley_590519.pdb
Info: Exclusions will be read from PARM file!
Info: SCNB (VDW SCALING)     2
Info: USING ARITHMETIC MEAN TO COMBINE L-J SIGMA PARAMETERS
Info: BINARY COORDINATES     mobley_590519_equil.coor
Info: SUMMARY OF PARAMETERS:
Info: 7 BONDS
Info: 7 ANGLES
Info:   7 HARMONIC
Info:   0 COSINE-BASED
Info: 4 DIHEDRAL
Info: 0 IMPROPER
Info: 0 CROSSTERM
Info: 0 VDW
Info: 21 VDW_PAIRS
Info: 0 NBTHOLE_PAIRS
Info: To read alchdata from file: mobley_590519.pdb
Info: To read alchflag data from column: 5
Info: STRUCTURE SUMMARY:
Info: 2914 ATOMS
Info: 2913 BONDS
Info: 26 ANGLES
Info: 26 DIHEDRALS
Info: 0 IMPROPERS
Info: 0 CROSSTERMS
Info: 2964 EXCLUSIONS
Info: 2908 RIGID BONDS
Info: ALCH: 0 ATOMS TO DISAPPEAR IN FINAL STATE
Info: ALCH: 16 ATOMS TO APPEAR IN FINAL STATE
Info: 5834 DEGREES OF FREEDOM
Info: 972 HYDROGEN GROUPS
Info: 4 ATOMS IN LARGEST HYDROGEN GROUP
Info: 972 MIGRATION GROUPS
Info: 4 ATOMS IN LARGEST MIGRATION GROUP
Info: TOTAL MASS = 17525.7 amu
Info: TOTAL CHARGE = -0.000100017 e
Info: MASS DENSITY = 0.953923 g/cm^3
Info: ATOM DENSITY = 0.0955143 atoms/A^3
Info: ADDED 0 IMPLICIT EXCLUSIONS
Info: NONBONDED TABLE R-SQUARED SPACING: 0.0625
Info: NONBONDED TABLE SIZE: 705 POINTS
Info: REMOVING COM VELOCITY -0.217319 -0.143645 -0.0896884
Info: Use 3D box decompostion in PME FFT.
Info: Updated CUDA force table with 4096 elements.
Info: Updated CUDA LJ table with 6 x 6 elements.
Info: Found 19 unique exclusion lists needing 40 bytes
TCL: Running for 1500000 steps
ETITLE: TS BOND ANGLE DIHED IMPRP ELECT VDW BOUNDARY MISC KINETIC TOTAL TEMP POTENTIAL TOTALAVG TEMPAVG PRESSURE GPRESSURE VOLUME PRESSAVG GPRESSAVG
ENERGY: 0 3.0366 9.7829 4.6694 0.0000 -10600.2132 1452.0611 0.0000 0.0000 1761.8164 -7368.8468 303.9377 -9130.6631 -7368.8468 303.9377 12.9805 88.3063 30508.5209 12.9805 88.3063
ENERGY: 300000 0.8697 5.8212 2.0707 0.0000 -10381.3487 1287.6120 0.0000 0.0000 1746.6167 -7338.3584 301.3156 -9084.9751 -7360.5739 303.5613 -977.7203 -850.1016 30227.6073 -505.2536 -419.9500
ENERGY: 600000 0.4287 6.6386 3.4352 0.0000 -10559.7953 1436.4162 0.0000 0.0000 1736.2832 -7376.5935 299.5329 -9112.8767 -7373.3823 303.3100 80.7571 159.1678 30514.6624 -308.8587 -217.3163
ENERGY: 900000 3.1464 7.8682 3.9801 0.0000 -10549.8847 1372.9225 0.0000 0.0000 1712.3046 -7449.6629 295.3962 -9161.9675 -7394.4562 301.5104 -363.9285 -356.5386 30279.1027 -293.3479 -209.7227
ENERGY: 1200000 1.3809 3.7772 2.6084 0.0000 -10442.8755 1310.6002 0.0000 0.0000 1770.6316 -7353.8772 305.4585 -9124.5089 -7390.7189 301.9821 -846.5161 -814.2314 30110.2549 -241.5380 -170.7697
ENERGY: 1500000 0.9822 7.5418 2.0634 0.0000 -10553.4639 1385.7796 0.0000 0.0000 1721.4739 -7435.6230 296.9781 -9157.0969 -7393.6552 302.1460 -434.0755 -329.5877 30227.3219 -237.8102 -163.9702
TCL: Running FEP window   2: Lambda1 0.95   Lambda2 0.8999999999999999 [dLambda -0.050000000000000044]
TCL: Setting parameter firsttimestep to 0
TCL: Setting parameter alchLambda to 0.95
Info: NONBONDED TABLE R-SQUARED SPACING: 0.0625
Info: NONBONDED TABLE SIZE: 705 POINTS
TCL: Setting parameter alchLambda2 to 0.8999999999999999
Info: NONBONDED TABLE R-SQUARED SPACING: 0.0625
Info: NONBONDED TABLE SIZE: 705 POINTS
TCL: Running for 1500000 steps
ETITLE: TS BOND ANGLE DIHED IMPRP ELECT VDW BOUNDARY MISC KINETIC TOTAL TEMP POTENTIAL TOTALAVG TEMPAVG PRESSURE GPRESSURE VOLUME PRESSAVG GPRESSAVG
ENERGY: 0 0.9822 7.5418 2.0634 0.0000 -10552.5244 1386.0074 0.0000 0.0000 1720.6325 -7435.2972 296.8329 -9155.9296 -7435.2972 296.8329 -407.9304 -338.1763 30227.3219 -407.9304 -338.1763
ENERGY: 300000 2.0221 5.2394 1.4610 0.0000 -10462.6452 1314.1139 0.0000 0.0000 1746.5473 -7393.2616 301.3036 -9139.8089 -7448.9633 296.4268 -764.9911 -696.2029 30206.5693 -282.2968 -225.7065
ENERGY: 600000 0.2587 8.1076 2.4084 0.0000 -10532.9330 1418.9313 0.0000 0.0000 1730.7910 -7372.4361 298.5854 -9103.2270 -7420.6910 297.2206 12.5591 100.4204 30197.7674 -354.0993 -307.6409
ENERGY: 900000 1.9451 9.6115 1.8802 0.0000 -10399.3340 1285.1107 0.0000 0.0000 1750.3164 -7350.4700 301.9538 -9100.7864 -7406.5424 298.5518 -861.2345 -752.2353 30094.1287 -342.1742 -295.0648
ENERGY: 1200000 1.9116 7.7044 2.3113 0.0000 -10465.6777 1398.9544 0.0000 0.0000 1778.7913 -7276.0048 306.8661 -9054.7960 -7404.3303 299.0066 -296.8642 -303.2959 30854.3239 -298.2053 -256.0254
ENERGY: 1500000 2.7110 7.4745 1.7730 0.0000 -10470.5243 1419.7494 0.0000 0.0000 1740.2902 -7298.5262 300.2242 -9038.8164 -7399.5886 298.7580 -195.8950 -62.0867 30538.1561 -135.1980 -84.6064
TCL: Running FEP window   3: Lambda1 0.8999999999999999 Lambda2 0.8499999999999999 [dLambda -0.050000000000000044]
TCL: Setting parameter firsttimestep to 0
TCL: Setting parameter alchLambda to 0.8999999999999999
Info: NONBONDED TABLE R-SQUARED SPACING: 0.0625
Info: NONBONDED TABLE SIZE: 705 POINTS
TCL: Setting parameter alchLambda2 to 0.8499999999999999
Info: NONBONDED TABLE R-SQUARED SPACING: 0.0625
Info: NONBONDED TABLE SIZE: 705 POINTS
TCL: Running for 1500000 steps
ETITLE: TS BOND ANGLE DIHED IMPRP ELECT VDW BOUNDARY MISC KINETIC TOTAL TEMP POTENTIAL TOTALAVG TEMPAVG PRESSURE GPRESSURE VOLUME PRESSAVG GPRESSAVG
ENERGY: 0 2.7110 7.4744 1.7730 0.0000 -10470.0323 1419.7237 0.0000 0.0000 1739.4478 -7298.9023 300.0788 -9038.3501 -7298.9023 300.0788 -164.9308 -72.4619 30538.1561 -164.9308 -72.4619
ENERGY: 300000 2.8017 6.8860 2.5637 0.0000 -10622.6798 1471.8539 0.0000 0.0000 1729.9511 -7408.6236 298.4405 -9138.5747 -7363.5064 299.8726 607.1666 554.0109 29481.2655 -43.6625 -0.1636
ENERGY: 600000 1.8717 3.6517 2.5008 0.0000 -10572.1374 1360.5383 0.0000 0.0000 1775.1746 -7428.4003 306.2422 -9203.5749 -7393.9661 300.7237 -665.8736 -634.5582 29994.1134 -38.0894 14.4325
ENERGY: 900000 0.2537 8.4413 4.8112 0.0000 -10453.0134 1418.3925 0.0000 0.0000 1711.4017 -7309.7131 295.2405 -9021.1148 -7391.0454 299.1630 373.4206 459.1829 30069.5436 42.7931 94.0682
ENERGY: 1200000 2.8697 6.7221 2.8817 0.0000 -10562.9134 1397.6788 0.0000 0.0000 1739.1717 -7413.5894 300.0312 -9152.7612 -7395.0156 298.9696 -141.6988 -39.0637 29675.7751 -43.5803 9.5619
ENERGY: 1500000 0.2793 5.5028 2.8069 0.0000 -10573.2173 1466.1086 0.0000 0.0000 1756.6888 -7341.8311 303.0531 -9098.5198 -7389.4538 299.6354 328.6523 428.0208 30233.2061 33.3500 91.0732
TCL: Running FEP window   4: Lambda1 0.8499999999999999 Lambda2 0.7999999999999998 [dLambda -0.050000000000000044]
TCL: Setting parameter firsttimestep to 0
TCL: Setting parameter alchLambda to 0.8499999999999999
Info: NONBONDED TABLE R-SQUARED SPACING: 0.0625
Info: NONBONDED TABLE SIZE: 705 POINTS
TCL: Setting parameter alchLambda2 to 0.7999999999999998
Info: NONBONDED TABLE R-SQUARED SPACING: 0.0625
Info: NONBONDED TABLE SIZE: 705 POINTS
TCL: Running for 1500000 steps
ETITLE: TS BOND ANGLE DIHED IMPRP ELECT VDW BOUNDARY MISC KINETIC TOTAL TEMP POTENTIAL TOTALAVG TEMPAVG PRESSURE GPRESSURE VOLUME PRESSAVG GPRESSAVG
ENERGY: 0 0.2793 5.5028 2.8069 0.0000 -10572.7190 1466.4115 0.0000 0.0000 1755.8578 -7341.8609 302.9098 -9097.7186 -7341.8609 302.9098 330.0512 420.5776 30233.2061 330.0512 420.5776
ENERGY: 300000 1.3544 5.0178 1.7201 0.0000 -10466.1828 1340.6936 0.0000 0.0000 1705.9111 -7411.4859 294.2933 -9117.3970 -7398.9527 301.7966 -443.6118 -438.1248 29785.4691 -132.4914 -60.0415
ENERGY: 600000 1.4226 6.5731 5.4710 0.0000 -10636.8938 1427.3963 0.0000 0.0000 1741.2835 -7454.7473 300.3955 -9196.0308 -7407.7188 299.9983 -62.4880 -9.8311 29681.2008 -21.0261 56.4417
ENERGY: 900000 0.7446 6.2496 2.4740 0.0000 -10613.5354 1454.3377 0.0000 0.0000 1736.5818 -7413.1477 299.5844 -9149.7295 -7395.6641 300.2419 239.1016 312.7561 30117.4892 -50.6739 20.5607
ENERGY: 1200000 3.2391 6.2020 5.0047 0.0000 -10509.4126 1348.6912 0.0000 0.0000 1747.5320 -7398.7435 301.4735 -9146.2755 -7387.7012 300.6923 -577.9578 -501.8407 30086.6198 -121.1770 -49.8063
ENERGY: 1500000 1.4614 4.1741 1.4549 0.0000 -10531.2250 1356.7399 0.0000 0.0000 1717.0873 -7450.3074 296.2213 -9167.3947 -7396.0929 300.6959 -602.9877 -538.7253 30054.2913 -33.7196 32.1081
TCL: Running FEP window   5: Lambda1 0.7999999999999998 Lambda2 0.7499999999999998 [dLambda -0.050000000000000044]
TCL: Setting parameter firsttimestep to 0
TCL: Setting parameter alchLambda to 0.7999999999999998
Info: NONBONDED TABLE R-SQUARED SPACING: 0.0625
Info: NONBONDED TABLE SIZE: 705 POINTS
TCL: Setting parameter alchLambda2 to 0.7499999999999998
Info: NONBONDED TABLE R-SQUARED SPACING: 0.0625
Info: NONBONDED TABLE SIZE: 705 POINTS
TCL: Running for 1500000 steps
ETITLE: TS BOND ANGLE DIHED IMPRP ELECT VDW BOUNDARY MISC KINETIC TOTAL TEMP POTENTIAL TOTALAVG TEMPAVG PRESSURE GPRESSURE VOLUME PRESSAVG GPRESSAVG
ENERGY: 0 1.4614 4.1741 1.4549 0.0000 -10530.2031 1356.9481 0.0000 0.0000 1716.1965 -7449.9681 296.0677 -9166.1646 -7449.9681 296.0677 -624.8646 -546.6101 30054.2913 -624.8646 -546.6101
ENERGY: 300000 1.3097 4.9025 3.1791 0.0000 -10548.2340 1398.3555 0.0000 0.0000 1692.4172 -7448.0701 291.9654 -9140.4873 -7415.5705 299.8507 1.9600 73.9006 29974.6211 -347.6507 -253.1062
ENERGY: 600000 1.4763 5.7846 1.1171 0.0000 -10561.6073 1390.2326 0.0000 0.0000 1713.2736 -7449.7231 295.5634 -9162.9967 -7402.2736 299.7244 -504.2972 -448.7213 30292.5172 -394.5542 -308.0860
ENERGY: 900000 1.7682 4.8560 2.2382 0.0000 -10448.6564 1353.0352 0.0000 0.0000 1754.6554 -7332.1034 302.7024 -9086.7588 -7407.3888 300.0351 -354.8638 -315.9653 30325.6530 -329.6395 -254.1147
ENERGY: 1200000 0.3568 9.5441 1.2003 0.0000 -10610.0101 1483.5271 0.0000 0.0000 1714.4271 -7400.9547 295.7624 -9115.3818 -7407.0124 299.3356 420.1909 535.1252 30117.8265 -198.5231 -124.6139
ENERGY: 1500000 0.8548 6.0307 1.5649 0.0000 -10589.0075 1437.0180 0.0000 0.0000 1768.8360 -7374.7031 305.1487 -9143.5391 -7403.6498 299.6806 569.8477 545.5035 29463.7880 -138.3961 -72.9837
TCL: Running FEP window   6: Lambda1 0.7499999999999998 Lambda2 0.6999999999999997 [dLambda -0.050000000000000044]
TCL: Setting parameter firsttimestep to 0
TCL: Setting parameter alchLambda to 0.7499999999999998
Info: NONBONDED TABLE R-SQUARED SPACING: 0.0625
Info: NONBONDED TABLE SIZE: 705 POINTS
TCL: Setting parameter alchLambda2 to 0.6999999999999997
Info: NONBONDED TABLE R-SQUARED SPACING: 0.0625
Info: NONBONDED TABLE SIZE: 705 POINTS
TCL: Running for 1500000 steps
ETITLE: TS BOND ANGLE DIHED IMPRP ELECT VDW BOUNDARY MISC KINETIC TOTAL TEMP POTENTIAL TOTALAVG TEMPAVG PRESSURE GPRESSURE VOLUME PRESSAVG GPRESSAVG
ENERGY: 0 0.8548 6.0307 1.5649 0.0000 -10588.4454 1436.9946 0.0000 0.0000 1767.9619 -7375.0384 304.9979 -9143.0003 -7375.0384 304.9979 452.1105 534.1483 29463.7880 452.1105 534.1483
ENERGY: 300000 2.3071 8.6084 1.9515 0.0000 -10475.1170 1374.1213 0.0000 0.0000 1719.9844 -7368.1443 296.7211 -9088.1287 -7392.6797 301.5011 -359.3099 -206.4426 30161.4635 -46.3289 48.1702
ENERGY: 600000 0.9738 8.8934 2.4655 0.0000 -10624.4118 1417.4556 0.0000 0.0000 1724.9537 -7469.6698 297.5784 -9194.6235 -7397.0189 301.1338 -122.3449 -99.2105 30040.7935 -114.5473 -49.5893
ENERGY: 900000 1.0743 7.6124 4.6263 0.0000 -10562.9544 1413.3773 0.0000 0.0000 1720.2978 -7415.9663 296.7752 -9136.2641 -7401.0348 300.0837 -490.9363 -353.4295 30422.7618 -115.1194 -48.8303
ENERGY: 1200000 1.8470 7.2652 2.7834 0.0000 -10484.3852 1320.4037 0.0000 0.0000 1717.1487 -7434.9371 296.2319 -9152.0858 -7397.1075 300.7286 -1009.2882 -964.5695 30268.0013 -155.9386 -96.5922
ENERGY: 1500000 0.5144 6.5696 2.1672 0.0000 -10588.4740 1430.4146 0.0000 0.0000 1737.8860 -7410.9223 299.8094 -9148.8083 -7397.3891 300.3849 -100.3963 -47.6037 30181.8474 -85.5605 -22.8004
TCL: Running FEP window   7: Lambda1 0.6999999999999997 Lambda2 0.6499999999999997 [dLambda -0.050000000000000044]
TCL: Setting parameter firsttimestep to 0
TCL: Setting parameter alchLambda to 0.6999999999999997
Info: NONBONDED TABLE R-SQUARED SPACING: 0.0625
Info: NONBONDED TABLE SIZE: 705 POINTS
TCL: Setting parameter alchLambda2 to 0.6499999999999997
Info: NONBONDED TABLE R-SQUARED SPACING: 0.0625
Info: NONBONDED TABLE SIZE: 705 POINTS
TCL: Running for 1500000 steps
ETITLE: TS BOND ANGLE DIHED IMPRP ELECT VDW BOUNDARY MISC KINETIC TOTAL TEMP POTENTIAL TOTALAVG TEMPAVG PRESSURE GPRESSURE VOLUME PRESSAVG GPRESSAVG
ENERGY: 0 0.5144 6.5696 2.1672 0.0000 -10588.0579 1430.8547 0.0000 0.0000 1737.0101 -7410.9419 299.6583 -9147.9520 -7410.9419 299.6583 -143.4474 -50.4095 30181.8474 -143.4474 -50.4095
ENERGY: 300000 2.0801 8.5327 3.4928 0.0000 -10468.3071 1344.3721 0.0000 0.0000 1728.2069 -7381.6225 298.1396 -9109.8295 -7392.5157 301.5438 -687.6459 -641.1119 30337.2784 -202.3521 -155.1422
ENERGY: 600000 2.1840 5.9260 1.5746 0.0000 -10464.3971 1352.1330 0.0000 0.0000 1809.3391 -7293.2405 312.1360 -9102.5796 -7376.0819 302.3719 -370.9132 -317.5580 30350.7698 -281.0951 -236.9584
ENERGY: 900000 1.8158 5.9628 2.4386 0.0000 -10527.3571 1437.8164 0.0000 0.0000 1732.1247 -7347.1987 298.8155 -9079.3234 -7378.9763 301.7421 -67.4880 14.8328 30667.9259 -141.1722 -81.4436
ENERGY: 1200000 1.3316 5.1723 1.3157 0.0000 -10585.0627 1430.9574 0.0000 0.0000 1738.9434 -7407.3423 299.9918 -9146.2857 -7375.3448 301.9461 111.9265 220.1782 29782.6450 -131.3836 -60.4657
ENERGY: 1500000 1.7231 8.6876 3.3622 0.0000 -10594.2205 1455.9318 0.0000 0.0000 1718.3107 -7406.2051 296.4324 -9124.5158 -7369.8447 301.9164 320.5413 380.1070 29807.7878 -95.2357 -25.9003
TCL: Running FEP window   8: Lambda1 0.6499999999999997 Lambda2 0.5999999999999996 [dLambda -0.050000000000000044]
TCL: Setting parameter firsttimestep to 0
TCL: Setting parameter alchLambda to 0.6499999999999997
Info: NONBONDED TABLE R-SQUARED SPACING: 0.0625
Info: NONBONDED TABLE SIZE: 705 POINTS
TCL: Setting parameter alchLambda2 to 0.5999999999999996
Info: NONBONDED TABLE R-SQUARED SPACING: 0.0625
Info: NONBONDED TABLE SIZE: 705 POINTS
TCL: Running for 1500000 steps
ETITLE: TS BOND ANGLE DIHED IMPRP ELECT VDW BOUNDARY MISC KINETIC TOTAL TEMP POTENTIAL TOTALAVG TEMPAVG PRESSURE GPRESSURE VOLUME PRESSAVG GPRESSAVG
ENERGY: 0 1.7231 8.6876 3.3622 0.0000 -10593.4357 1456.3615 0.0000 0.0000 1717.4331 -7405.8682 296.2810 -9123.3013 -7405.8682 296.2810 274.6167 375.5657 29807.7878 274.6167 375.5657
ENERGY: 300000 0.9394 8.1138 2.3775 0.0000 -10522.3741 1359.5124 0.0000 0.0000 1704.7450 -7446.6861 294.0921 -9151.4311 -7430.4745 299.4263 -387.7217 -318.3588 29666.0351 -162.7517 -69.8562
ENERGY: 600000 0.7430 5.9895 2.1388 0.0000 -10534.8416 1424.8100 0.0000 0.0000 1723.5143 -7377.6461 297.3301 -9101.1604 -7396.6099 298.0862 -149.4130 -103.0624 30591.9868 -106.6133 -34.4401
ENERGY: 900000 1.1463 6.1117 2.4880 0.0000 -10514.2554 1371.3841 0.0000 0.0000 1730.2270 -7402.8982 298.4881 -9133.1252 -7405.0927 298.5823 -435.9419 -483.8731 30260.7860 -80.8990 -30.4866
ENERGY: 1200000 0.1291 8.8965 1.6040 0.0000 -10634.4213 1498.0026 0.0000 0.0000 1759.4841 -7366.3050 303.5354 -9125.7891 -7396.0954 299.9628 642.2259 696.8002 30131.3422 -73.5433 -15.4614
ENERGY: 1500000 0.1201 6.4887 1.9434 0.0000 -10349.9716 1294.6674 0.0000 0.0000 1725.2648 -7321.4871 297.6321 -9046.7520 -7387.3201 299.7847 -948.7745 -919.7569 30655.9912 -44.6879 22.2484
TCL: Running FEP window   9: Lambda1 0.5999999999999996 Lambda2 0.5499999999999996 [dLambda -0.050000000000000044]
TCL: Setting parameter firsttimestep to 0
TCL: Setting parameter alchLambda to 0.5999999999999996
Info: NONBONDED TABLE R-SQUARED SPACING: 0.0625
Info: NONBONDED TABLE SIZE: 705 POINTS
TCL: Setting parameter alchLambda2 to 0.5499999999999996
Info: NONBONDED TABLE R-SQUARED SPACING: 0.0625
Info: NONBONDED TABLE SIZE: 705 POINTS
TCL: Running for 1500000 steps
ETITLE: TS BOND ANGLE DIHED IMPRP ELECT VDW BOUNDARY MISC KINETIC TOTAL TEMP POTENTIAL TOTALAVG TEMPAVG PRESSURE GPRESSURE VOLUME PRESSAVG GPRESSAVG
ENERGY: 0 0.1201 6.4887 1.9434 0.0000 -10349.7601 1294.9509 0.0000 0.0000 1724.3991 -7321.8578 297.4827 -9046.2568 -7321.8578 297.4827 -987.9265 -923.9682 30655.9912 -987.9265 -923.9682
ENERGY: 300000 1.0979 6.9788 3.7815 0.0000 -10548.7572 1472.7271 0.0000 0.0000 1716.4643 -7347.7077 296.1139 -9064.1719 -7375.2353 297.7367 142.5270 254.0201 30373.2909 -262.0466 -206.4326
ENERGY: 600000 0.8527 6.4191 2.7078 0.0000 -10692.0231 1435.9977 0.0000 0.0000 1774.7563 -7471.2896 306.1700 -9246.0459 -7406.3859 296.6375 -54.8532 -36.5836 29802.1912 -276.8746 -221.8552
ENERGY: 900000 2.1994 7.3789 3.4169 0.0000 -10571.5397 1379.1849 0.0000 0.0000 1714.7825 -7464.5772 295.8237 -9179.3596 -7410.4826 298.1182 -183.1010 -92.1561 29592.5724 -175.7043 -119.4979
ENERGY: 1200000 0.6728 5.9194 2.4799 0.0000 -10543.9646 1406.6323 0.0000 0.0000 1737.3772 -7390.8830 299.7216 -9128.2602 -7400.4639 298.1728 -34.9619 26.4956 29869.2485 -235.3244 -176.0921
ENERGY: 1500000 1.2527 6.7009 1.1442 0.0000 -10621.6122 1484.3505 0.0000 0.0000 1741.5402 -7386.6237 300.4398 -9128.1639 -7406.3085 298.1942 410.7889 497.5610 29970.2945 -133.1638 -73.6641
TCL: Running FEP window  10: Lambda1 0.5499999999999996 Lambda2 0.4999999999999996 [dLambda -0.04999999999999999]
TCL: Setting parameter firsttimestep to 0
TCL: Setting parameter alchLambda to 0.5499999999999996
Info: NONBONDED TABLE R-SQUARED SPACING: 0.0625
Info: NONBONDED TABLE SIZE: 705 POINTS
TCL: Setting parameter alchLambda2 to 0.4999999999999996
Info: NONBONDED TABLE R-SQUARED SPACING: 0.0625
Info: NONBONDED TABLE SIZE: 705 POINTS
TCL: Running for 1500000 steps
ETITLE: TS BOND ANGLE DIHED IMPRP ELECT VDW BOUNDARY MISC KINETIC TOTAL TEMP POTENTIAL TOTALAVG TEMPAVG PRESSURE GPRESSURE VOLUME PRESSAVG GPRESSAVG
ENERGY: 0 1.2527 6.7009 1.1442 0.0000 -10621.7292 1484.3751 0.0000 0.0000 1740.6869 -7387.5693 300.2926 -9128.2563 -7387.5693 300.2926 393.3243 487.5606 29970.2945 393.3243 487.5606
ENERGY: 300000 2.5934 4.7064 2.5318 0.0000 -10677.2602 1461.5921 0.0000 0.0000 1733.0055 -7472.8310 298.9674 -9205.8364 -7440.0926 297.7249 72.3556 74.6263 29980.9081 -318.5933 -287.9265
ENERGY: 600000 1.0187 7.7497 2.1913 0.0000 -10554.4051 1427.9146 0.0000 0.0000 1749.4921 -7366.0386 301.8116 -9115.5307 -7440.4464 297.7158 76.0587 103.9876 30187.6441 -200.0477 -167.5630
ENERGY: 900000 0.8970 3.6529 2.9779 0.0000 -10495.2573 1439.2071 0.0000 0.0000 1781.8221 -7266.7004 307.3890 -9048.5224 -7418.3862 299.2884 407.9328 443.4798 29925.2588 6.4103 49.8214
ENERGY: 1200000 0.6726 6.3452 3.4397 0.0000 -10579.0516 1437.6171 0.0000 0.0000 1769.9881 -7360.9889 305.3475 -9130.9770 -7405.2304 299.8297 305.1344 393.9375 29704.4991 -100.6934 -54.0563
ENERGY: 1500000 2.1083 8.0007 3.1523 0.0000 -10404.2388 1332.1874 0.0000 0.0000 1690.0277 -7368.7624 291.5532 -9058.7901 -7388.5333 299.8022 -651.0486 -631.6209 30150.6284 -212.9906 -167.5713
TCL: Running FEP window  11: Lambda1 0.4999999999999996 Lambda2 0.4499999999999996 [dLambda -0.04999999999999999]
TCL: Setting parameter firsttimestep to 0
TCL: Setting parameter alchLambda to 0.4999999999999996
Info: NONBONDED TABLE R-SQUARED SPACING: 0.0625
Info: NONBONDED TABLE SIZE: 705 POINTS
TCL: Setting parameter alchLambda2 to 0.4499999999999996
Info: NONBONDED TABLE R-SQUARED SPACING: 0.0625
Info: NONBONDED TABLE SIZE: 705 POINTS
TCL: Running for 1500000 steps
ETITLE: TS BOND ANGLE DIHED IMPRP ELECT VDW BOUNDARY MISC KINETIC TOTAL TEMP POTENTIAL TOTALAVG TEMPAVG PRESSURE GPRESSURE VOLUME PRESSAVG GPRESSAVG
ENERGY: 0 2.1083 8.0007 3.1523 0.0000 -10404.3067 1332.8088 0.0000 0.0000 1689.1373 -7369.0994 291.3996 -9058.2366 -7369.0994 291.3996 -717.0991 -634.5866 30150.6284 -717.0991 -634.5866
ENERGY: 300000 1.7462 5.1367 2.0959 0.0000 -10452.8064 1337.8025 0.0000 0.0000 1745.1780 -7360.8471 301.0674 -9106.0251 -7404.2960 294.1870 -611.8992 -583.5428 29765.9774 -280.8193 -224.7362
ENERGY: 600000 1.5952 4.8897 1.1419 0.0000 -10560.5566 1457.7695 0.0000 0.0000 1707.6406 -7387.5197 294.5917 -9095.1603 -7411.4739 296.4447 -70.3786 31.4742 30658.7613 -213.1400 -144.2629
ENERGY: 900000 1.7973 4.8573 2.8049 0.0000 -10579.2754 1430.0227 0.0000 0.0000 1748.4244 -7391.3688 301.6274 -9139.7932 -7403.0909 297.2333 80.8996 174.0636 29933.2464 -216.5030 -164.6576
ENERGY: 1200000 0.7216 6.2532 1.6001 0.0000 -10576.7670 1411.7109 0.0000 0.0000 1751.3342 -7405.1470 302.1294 -9156.4812 -7400.9728 298.5904 -280.2067 -180.1825 29971.3241 -178.8323 -114.9994
ENERGY: 1500000 1.2823 4.9311 2.9312 0.0000 -10532.1457 1364.1653 0.0000 0.0000 1738.3469 -7420.4890 299.8889 -9158.8359 -7405.6227 298.3831 -527.7184 -486.8840 29948.2517 -106.2274 -51.4378
TCL: Running FEP window  12: Lambda1 0.4499999999999996 Lambda2 0.39999999999999963 [dLambda -0.04999999999999999]
TCL: Setting parameter firsttimestep to 0
TCL: Setting parameter alchLambda to 0.4499999999999996
Info: NONBONDED TABLE R-SQUARED SPACING: 0.0625
Info: NONBONDED TABLE SIZE: 705 POINTS
TCL: Setting parameter alchLambda2 to 0.39999999999999963
Info: NONBONDED TABLE R-SQUARED SPACING: 0.0625
Info: NONBONDED TABLE SIZE: 705 POINTS
TCL: Running for 1500000 steps
ETITLE: TS BOND ANGLE DIHED IMPRP ELECT VDW BOUNDARY MISC KINETIC TOTAL TEMP POTENTIAL TOTALAVG TEMPAVG PRESSURE GPRESSURE VOLUME PRESSAVG GPRESSAVG
ENERGY: 0 1.2823 4.9311 2.9312 0.0000 -10532.1449 1364.2584 0.0000 0.0000 1737.5130 -7421.2289 299.7451 -9158.7419 -7421.2289 299.7451 -581.5042 -492.7148 29948.2517 -581.5042 -492.7148
ENERGY: 300000 2.3410 7.8354 0.8651 0.0000 -10648.5714 1412.9847 0.0000 0.0000 1785.0091 -7439.5362 307.9388 -9224.5453 -7413.1380 302.1046 -402.6866 -397.3514 30306.4827 -434.2489 -387.5838
ENERGY: 600000 1.6548 6.9325 1.1872 0.0000 -10526.6617 1393.5927 0.0000 0.0000 1737.6603 -7385.6342 299.7705 -9123.2945 -7411.0499 301.2673 -266.1129 -186.4444 30178.9688 -313.1515 -279.1696
ENERGY: 900000 1.0478 5.6469 2.7243 0.0000 -10475.9948 1406.9917 0.0000 0.0000 1715.5624 -7344.0217 295.9583 -9059.5840 -7394.9972 300.9548 -21.3961 92.4730 29849.7275 -265.0786 -208.7961
ENERGY: 1200000 2.3114 8.0382 1.4420 0.0000 -10667.2426 1410.7613 0.0000 0.0000 1761.1139 -7483.5758 303.8165 -9244.6897 -7406.9316 300.9299 -112.5099 -32.0116 29500.9033 -222.6334 -164.7028
ENERGY: 1500000 1.9109 4.5299 1.1531 0.0000 -10416.8032 1359.1967 0.0000 0.0000 1785.0412 -7264.9714 307.9443 -9050.0126 -7399.5869 301.5924 -299.4422 -246.2082 30024.1546 -174.2270 -118.6741
TCL: Running FEP window  13: Lambda1 0.39999999999999963 Lambda2 0.34999999999999964 [dLambda -0.04999999999999999]
TCL: Setting parameter firsttimestep to 0
TCL: Setting parameter alchLambda to 0.39999999999999963
Info: NONBONDED TABLE R-SQUARED SPACING: 0.0625
Info: NONBONDED TABLE SIZE: 705 POINTS
TCL: Setting parameter alchLambda2 to 0.34999999999999964
Info: NONBONDED TABLE R-SQUARED SPACING: 0.0625
Info: NONBONDED TABLE SIZE: 705 POINTS
TCL: Running for 1500000 steps
ETITLE: TS BOND ANGLE DIHED IMPRP ELECT VDW BOUNDARY MISC KINETIC TOTAL TEMP POTENTIAL TOTALAVG TEMPAVG PRESSURE GPRESSURE VOLUME PRESSAVG GPRESSAVG
ENERGY: 0 1.9109 4.5299 1.1531 0.0000 -10416.8056 1359.5749 0.0000 0.0000 1784.2024 -7265.4343 307.7996 -9049.6367 -7265.4343 307.7996 -321.1046 -247.4293 30024.1546 -321.1046 -247.4293
ENERGY: 300000 1.3512 9.1135 1.5513 0.0000 -10470.2588 1349.7226 0.0000 0.0000 1768.0364 -7340.4838 305.0108 -9108.5202 -7318.0923 303.7590 -425.0545 -360.5337 29991.4804 -261.5311 -193.3421
ENERGY: 600000 1.8853 9.1889 4.4265 0.0000 -10423.7086 1417.6001 0.0000 0.0000 1728.2174 -7262.3906 298.1414 -8990.6079 -7318.6834 302.3826 -43.9603 -11.5198 30476.2282 -203.7466 -150.3220
ENERGY: 900000 0.6881 6.2585 1.8743 0.0000 -10498.9528 1354.6109 0.0000 0.0000 1731.9887 -7403.5323 298.7920 -9135.5209 -7334.0903 302.5306 -601.4369 -498.6726 30002.6576 -341.3759 -281.2809
ENERGY: 1200000 1.0010 9.9792 2.3673 0.0000 -10663.8741 1452.2941 0.0000 0.0000 1713.2740 -7484.9585 295.5635 -9198.2325 -7349.6930 302.4153 95.1482 118.8264 29669.3668 -282.7919 -227.0657
ENERGY: 1500000 1.5584 8.2049 2.5380 0.0000 -10470.1653 1388.0287 0.0000 0.0000 1777.7856 -7292.0497 306.6926 -9069.8353 -7353.0112 302.6318 65.6613 144.4677 30167.9955 -319.3615 -265.7044
TCL: Running FEP window  14: Lambda1 0.34999999999999964 Lambda2 0.29999999999999966 [dLambda -0.04999999999999999]
TCL: Setting parameter firsttimestep to 0
TCL: Setting parameter alchLambda to 0.34999999999999964
Info: NONBONDED TABLE R-SQUARED SPACING: 0.0625
Info: NONBONDED TABLE SIZE: 705 POINTS
TCL: Setting parameter alchLambda2 to 0.29999999999999966
Info: NONBONDED TABLE R-SQUARED SPACING: 0.0625
Info: NONBONDED TABLE SIZE: 705 POINTS
TCL: Running for 1500000 steps
ETITLE: TS BOND ANGLE DIHED IMPRP ELECT VDW BOUNDARY MISC KINETIC TOTAL TEMP POTENTIAL TOTALAVG TEMPAVG PRESSURE GPRESSURE VOLUME PRESSAVG GPRESSAVG
ENERGY: 0 1.5584 8.2049 2.5380 0.0000 -10470.1661 1388.1674 0.0000 0.0000 1776.9294 -7292.7679 306.5449 -9069.6973 -7292.7679 306.5449 46.9264 141.8335 30167.9955 46.9264 141.8335
ENERGY: 300000 1.5208 5.8755 0.7829 0.0000 -10623.3837 1481.4790 0.0000 0.0000 1750.3784 -7383.3471 301.9645 -9133.7255 -7351.4503 300.9051 687.7593 803.4671 29474.3179 6.2036 108.3799
ENERGY: 600000 2.0613 6.7363 1.6182 0.0000 -10490.1324 1329.5116 0.0000 0.0000 1750.7659 -7399.4390 302.0314 -9150.2050 -7351.2582 301.8970 -775.6331 -804.1803 29866.1799 -31.2274 28.5948
ENERGY: 900000 0.6143 5.8639 2.0062 0.0000 -10639.8624 1496.9360 0.0000 0.0000 1768.2221 -7366.2197 305.0428 -9134.4419 -7365.7961 301.7551 660.8540 740.2819 29823.7251 -24.0925 40.3770
ENERGY: 1200000 1.6399 4.6970 1.3941 0.0000 -10527.9768 1408.5918 0.0000 0.0000 1806.9628 -7304.6913 311.7261 -9111.6541 -7357.9150 303.7598 -260.2445 -217.1026 30164.8694 40.4630 101.0923
ENERGY: 1500000 0.5499 5.6160 2.4099 0.0000 -10638.0841 1432.0617 0.0000 0.0000 1715.9937 -7481.4530 296.0327 -9197.4467 -7365.7685 303.3679 -75.2275 4.9966 29834.0045 10.1695 72.0908
TCL: Running FEP window  15: Lambda1 0.29999999999999966 Lambda2 0.24999999999999967 [dLambda -0.04999999999999999]
TCL: Setting parameter firsttimestep to 0
TCL: Setting parameter alchLambda to 0.29999999999999966
Info: NONBONDED TABLE R-SQUARED SPACING: 0.0625
Info: NONBONDED TABLE SIZE: 705 POINTS
TCL: Setting parameter alchLambda2 to 0.24999999999999967
Info: NONBONDED TABLE R-SQUARED SPACING: 0.0625
Info: NONBONDED TABLE SIZE: 705 POINTS
TCL: Running for 1500000 steps
ETITLE: TS BOND ANGLE DIHED IMPRP ELECT VDW BOUNDARY MISC KINETIC TOTAL TEMP POTENTIAL TOTALAVG TEMPAVG PRESSURE GPRESSURE VOLUME PRESSAVG GPRESSAVG
ENERGY: 0 0.5499 5.6160 2.4099 0.0000 -10638.0838 1432.3758 0.0000 0.0000 1715.1518 -7481.9804 295.8874 -9197.1322 -7481.9804 295.8874 -83.3356 4.0870 29834.0045 -83.3356 4.0870
ENERGY: 300000 1.1304 4.3140 1.9360 0.0000 -10442.3002 1365.7560 0.0000 0.0000 1733.9536 -7335.2102 299.1310 -9069.1638 -7411.4886 297.7630 -330.5998 -258.1310 29964.8778 -282.4084 -182.5119
ENERGY: 600000 1.7653 7.6858 2.1627 0.0000 -10563.0519 1409.3573 0.0000 0.0000 1801.1642 -7340.9167 310.7258 -9142.0809 -7407.9651 300.7142 -25.2304 14.5433 29890.0734 -247.5552 -168.8742
ENERGY: 900000 2.0433 8.0043 1.8966 0.0000 -10564.8319 1459.2217 0.0000 0.0000 1727.5766 -7366.0894 298.0309 -9093.6660 -7403.3321 300.3289 522.0194 510.1359 29768.5842 -192.6478 -117.6336
ENERGY: 1200000 2.2208 8.4347 2.6807 0.0000 -10619.2375 1440.2109 0.0000 0.0000 1716.7598 -7448.9306 296.1648 -9165.6904 -7400.5217 299.6833 29.7947 91.3411 30010.4078 -130.0158 -56.7858
ENERGY: 1500000 1.5168 6.4846 1.5754 0.0000 -10567.0377 1429.2075 0.0000 0.0000 1736.3103 -7391.9430 299.5376 -9128.2533 -7395.8250 300.8024 -36.9722 -27.7484 30260.4086 -79.6843 -12.2192
TCL: Running FEP window  16: Lambda1 0.24999999999999967 Lambda2 0.19999999999999968 [dLambda -0.04999999999999999]
TCL: Setting parameter firsttimestep to 0
TCL: Setting parameter alchLambda to 0.24999999999999967
Info: NONBONDED TABLE R-SQUARED SPACING: 0.0625
Info: NONBONDED TABLE SIZE: 705 POINTS
TCL: Setting parameter alchLambda2 to 0.19999999999999968
Info: NONBONDED TABLE R-SQUARED SPACING: 0.0625
Info: NONBONDED TABLE SIZE: 705 POINTS
TCL: Running for 1500000 steps
ETITLE: TS BOND ANGLE DIHED IMPRP ELECT VDW BOUNDARY MISC KINETIC TOTAL TEMP POTENTIAL TOTALAVG TEMPAVG PRESSURE GPRESSURE VOLUME PRESSAVG GPRESSAVG
ENERGY: 0 1.5168 6.4846 1.5754 0.0000 -10567.0369 1429.4997 0.0000 0.0000 1735.4093 -7392.5510 299.3821 -9127.9603 -7392.5510 299.3821 -105.1850 -27.9535 30260.4086 -105.1850 -27.9535
ENERGY: 300000 2.2851 8.1874 2.7188 0.0000 -10499.8828 1417.1385 0.0000 0.0000 1717.6130 -7351.9399 296.3120 -9069.5529 -7379.3410 298.7827 -110.1068 10.5625 30101.4876 -70.2093 13.0547
ENERGY: 600000 2.1069 8.0226 2.8467 0.0000 -10654.3445 1477.9311 0.0000 0.0000 1728.5218 -7434.9154 298.1939 -9163.4372 -7376.7831 300.0343 349.0376 441.0565 29779.3389 149.9949 220.7879
ENERGY: 900000 1.7044 9.3558 2.6403 0.0000 -10528.8388 1387.4928 0.0000 0.0000 1713.1929 -7414.4526 295.5495 -9127.6456 -7379.5598 300.2535 -472.1853 -334.9374 29811.8849 82.8277 163.6297
ENERGY: 1200000 1.8429 6.3752 1.9207 0.0000 -10492.9429 1363.1453 0.0000 0.0000 1738.6348 -7381.0240 299.9386 -9119.6588 -7384.0902 299.7237 -498.7593 -492.0387 30214.6084 33.9211 107.4262
ENERGY: 1500000 1.8067 11.2132 3.1105 0.0000 -10479.1998 1367.6746 0.0000 0.0000 1709.2960 -7386.0988 294.8772 -9095.3948 -7372.1838 299.5720 -588.8653 -489.3203 30087.7137 7.1459 80.6449
TCL: Running FEP window  17: Lambda1 0.19999999999999968 Lambda2 0.1499999999999997 [dLambda -0.04999999999999999]
TCL: Setting parameter firsttimestep to 0
TCL: Setting parameter alchLambda to 0.19999999999999968
Info: NONBONDED TABLE R-SQUARED SPACING: 0.0625
Info: NONBONDED TABLE SIZE: 705 POINTS
TCL: Setting parameter alchLambda2 to 0.1499999999999997
Info: NONBONDED TABLE R-SQUARED SPACING: 0.0625
Info: NONBONDED TABLE SIZE: 705 POINTS
TCL: Running for 1500000 steps
ETITLE: TS BOND ANGLE DIHED IMPRP ELECT VDW BOUNDARY MISC KINETIC TOTAL TEMP POTENTIAL TOTALAVG TEMPAVG PRESSURE GPRESSURE VOLUME PRESSAVG GPRESSAVG
ENERGY: 0 1.8067 11.2132 3.1105 0.0000 -10479.1980 1367.6703 0.0000 0.0000 1708.4202 -7386.9771 294.7261 -9095.3973 -7386.9771 294.7261 -579.6483 -492.7783 30087.7137 -579.6483 -492.7783
ENERGY: 300000 2.6371 5.2101 1.0767 0.0000 -10512.6796 1375.0438 0.0000 0.0000 1724.9178 -7403.7940 297.5722 -9128.7118 -7413.7174 296.6660 -427.1610 -367.8044 29860.2049 55.5956 133.4505
ENERGY: 600000 3.4894 6.4846 2.8903 0.0000 -10564.5280 1430.2908 0.0000 0.0000 1860.8879 -7260.4849 321.0289 -9121.3728 -7382.4079 301.7112 101.7614 135.1681 30245.1392 87.4409 157.2444
ENERGY: 900000 1.9289 3.9451 2.8395 0.0000 -10458.9399 1393.0346 0.0000 0.0000 1782.6105 -7274.5814 307.5250 -9057.1919 -7371.9697 301.2482 -172.1503 -99.4232 30120.3690 65.5846 126.6947
ENERGY: 1200000 3.7615 7.3753 2.6092 0.0000 -10604.0988 1420.5115 0.0000 0.0000 1705.9930 -7463.8484 294.3074 -9169.8414 -7379.2335 300.8955 -212.9177 -109.6311 29574.9195 -50.3845 10.9543
ENERGY: 1500000 0.7218 10.5818 1.5848 0.0000 -10614.0617 1459.9768 0.0000 0.0000 1770.2169 -7370.9795 305.3869 -9141.1964 -7384.9691 300.7153 434.0168 481.8544 29563.1634 86.1708 146.1431
TCL: Running FEP window  18: Lambda1 0.1499999999999997 Lambda2 0.09999999999999969 [dLambda -0.05 ]
TCL: Setting parameter firsttimestep to 0
TCL: Setting parameter alchLambda to 0.1499999999999997
Info: NONBONDED TABLE R-SQUARED SPACING: 0.0625
Info: NONBONDED TABLE SIZE: 705 POINTS
TCL: Setting parameter alchLambda2 to 0.09999999999999969
Info: NONBONDED TABLE R-SQUARED SPACING: 0.0625
Info: NONBONDED TABLE SIZE: 705 POINTS
TCL: Running for 1500000 steps
ETITLE: TS BOND ANGLE DIHED IMPRP ELECT VDW BOUNDARY MISC KINETIC TOTAL TEMP POTENTIAL TOTALAVG TEMPAVG PRESSURE GPRESSURE VOLUME PRESSAVG GPRESSAVG
ENERGY: 0 0.7218 10.5818 1.5848 0.0000 -10614.0617 1460.2521 0.0000 0.0000 1769.3566 -7371.5645 305.2385 -9140.9211 -7371.5645 305.2385 388.2381 482.7249 29563.1634 388.2381 482.7249
ENERGY: 300000 0.5706 7.3716 1.3171 0.0000 -10583.6111 1431.6147 0.0000 0.0000 1688.1764 -7454.5606 291.2338 -9142.7370 -7379.6354 301.9742 230.5793 279.9580 29354.5318 224.0310 293.2008
ENERGY: 600000 0.1220 9.5082 1.4548 0.0000 -10459.0026 1378.3520 0.0000 0.0000 1760.0888 -7309.4767 303.6397 -9069.5655 -7394.6308 300.5875 8.5250 37.5503 29717.9055 310.4412 359.2030
ENERGY: 900000 1.5151 7.0845 1.8659 0.0000 -10578.2089 1414.8106 0.0000 0.0000 1761.1951 -7391.7377 303.8305 -9152.9328 -7380.0652 300.7615 -108.1460 -57.0780 29562.1652 168.3467 223.6742
ENERGY: 1200000 0.6104 6.2476 2.3196 0.0000 -10606.7115 1411.0239 0.0000 0.0000 1739.5262 -7446.9839 300.0924 -9186.5101 -7399.0864 300.0840 -249.5268 -189.6953 29787.2267 150.6454 205.4487
ENERGY: 1500000 2.1191 6.0973 2.6752 0.0000 -10732.7255 1477.0288 0.0000 0.0000 1769.4274 -7475.3776 305.2507 -9244.8050 -7403.5796 300.2577 54.6131 144.2809 30073.2855 133.3185 186.4405
TCL: Running FEP window  19: Lambda1 0.09999999999999969 Lambda2 0.049999999999999684 [dLambda -0.05 ]
TCL: Setting parameter firsttimestep to 0
TCL: Setting parameter alchLambda to 0.09999999999999969
Info: NONBONDED TABLE R-SQUARED SPACING: 0.0625
Info: NONBONDED TABLE SIZE: 705 POINTS
TCL: Setting parameter alchLambda2 to 0.049999999999999684
Info: NONBONDED TABLE R-SQUARED SPACING: 0.0625
Info: NONBONDED TABLE SIZE: 705 POINTS
TCL: Running for 1500000 steps
ETITLE: TS BOND ANGLE DIHED IMPRP ELECT VDW BOUNDARY MISC KINETIC TOTAL TEMP POTENTIAL TOTALAVG TEMPAVG PRESSURE GPRESSURE VOLUME PRESSAVG GPRESSAVG
ENERGY: 0 2.1191 6.0973 2.6752 0.0000 -10732.7260 1476.5782 0.0000 0.0000 1768.5892 -7476.6670 305.1061 -9245.2562 -7476.6670 305.1061 48.1367 136.0870 30073.2855 48.1367 136.0870
ENERGY: 300000 2.0804 7.1154 2.0401 0.0000 -10589.2075 1414.0678 0.0000 0.0000 1704.3257 -7459.5780 294.0198 -9163.9037 -7416.5548 300.4233 -280.7331 -230.8133 29758.0493 153.5375 220.8854
ENERGY: 600000 0.3488 6.4504 0.9492 0.0000 -10579.9164 1388.4699 0.0000 0.0000 1750.3000 -7433.3981 301.9510 -9183.6980 -7405.6245 302.1148 -644.6223 -619.7246 30163.7454 -137.1995 -89.7315
ENERGY: 900000 1.0456 6.8448 0.8444 0.0000 -10613.3114 1439.8302 0.0000 0.0000 1766.0167 -7398.7297 304.6623 -9164.7465 -7396.2684 302.5169 47.5659 127.5208 29885.2907 -51.6609 1.7899
ENERGY: 1200000 0.7020 8.6952 4.8513 0.0000 -10641.3663 1458.4110 0.0000 0.0000 1766.7451 -7401.9615 304.7880 -9168.7067 -7385.2197 303.2598 243.2269 300.6786 29654.6431 -17.7609 40.3162
ENERGY: 1500000 5.8797 4.5022 2.0460 0.0000 -10495.5769 1356.9915 0.0000 0.0000 1773.6697 -7352.4878 305.9826 -9126.1575 -7387.4108 303.3539 -926.8358 -845.0807 30516.4072 -57.5712 2.4390
TCL: Running FEP window  20: Lambda1 0.049999999999999684 Lambda2 0.0    [dLambda -0.049999999999999684]
TCL: Setting parameter firsttimestep to 0
TCL: Setting parameter alchLambda to 0.049999999999999684
Info: NONBONDED TABLE R-SQUARED SPACING: 0.0625
Info: NONBONDED TABLE SIZE: 705 POINTS
TCL: Setting parameter alchLambda2 to 0.0
Info: NONBONDED TABLE R-SQUARED SPACING: 0.0625
Info: NONBONDED TABLE SIZE: 705 POINTS
TCL: Running for 1500000 steps
ETITLE: TS BOND ANGLE DIHED IMPRP ELECT VDW BOUNDARY MISC KINETIC TOTAL TEMP POTENTIAL TOTALAVG TEMPAVG PRESSURE GPRESSURE VOLUME PRESSAVG GPRESSAVG
ENERGY: 0 5.8796 4.5022 2.0460 0.0000 -10495.5770 1356.5124 0.0000 0.0000 1772.8336 -7353.8031 305.8383 -9126.6368 -7353.8031 305.8383 -937.5171 -848.0972 30516.4072 -937.5171 -848.0972
ENERGY: 300000 0.4888 8.6967 4.2253 0.0000 -10623.9526 1451.9868 0.0000 0.0000 1744.1710 -7414.3840 300.8936 -9158.5550 -7354.3929 304.6589 226.7282 327.8608 29732.3760 -310.6718 -229.5041
ENERGY: 600000 2.1731 6.1870 1.4650 0.0000 -10623.1322 1470.6255 0.0000 0.0000 1737.2470 -7405.4346 299.6992 -9142.6816 -7374.1956 302.3364 50.9229 134.4628 30071.3204 -36.0716 37.3351
ENERGY: 900000 1.2469 7.1184 1.4515 0.0000 -10579.0651 1450.9097 0.0000 0.0000 1712.9862 -7405.3524 295.5138 -9118.3386 -7370.3119 300.8522 250.4847 346.1472 29647.7863 -17.9263 59.5793
ENERGY: 1200000 1.9191 7.8302 2.8585 0.0000 -10507.0596 1348.2723 0.0000 0.0000 1767.3521 -7378.8275 304.8927 -9146.1796 -7377.7396 299.9340 -855.3748 -801.2622 30229.5032 -240.2033 -168.9806
ENERGY: 1500000 1.4094 5.1671 1.9512 0.0000 -10547.0489 1339.9536 0.0000 0.0000 1817.3645 -7381.2031 313.5205 -9198.5676 -7381.2247 300.7181 -563.8133 -540.8482 29475.2598 -214.3046 -146.2682
TCL: Exiting due to exit command.
