Info: SIMULATION PARAMETERS:
Info: TIMESTEP               2
Info: NUMBER OF STEPS        0
Info: STEPS PER CYCLE        10
Info: PERIODIC CELL BASIS 1  30.3126 0 0
Info: PERIODIC CELL BASIS 2  0 30.3596 0
Info: PERIODIC CELL BASIS 3  0 0 33.1873
Info: PERIODIC CELL CENTER   0 0 0
Info: WRAPPING WATERS AROUND PERIODIC BOUNDARIES ON OUTPUT.
Info: WRAPPING ALL CLUSTERS AROUND PERIODIC BOUNDARIES ON OUTPUT.
Info: FIRST LDB TIMESTEP     50
Info: LAST LDB TIMESTEP     -1
Info: HOM BACKGROUND SCALING 1
Info: PME BACKGROUND SCALING 1
Info: MIN ATOMS PER PATCH    40
Info: EMPTY PATCH LOAD       40 ATOMS
Info: VELOCITY FILE          mobley_1858644_equil.vel
Info: CENTER OF MASS MOVING INITIALLY? NO
Info: DIELECTRIC             1
Info: EXCLUDE                SCALED ONE-FOUR
Info: 1-4 ELECTROSTATICS SCALED BY 0.833333
Info: MODIFIED 1-4 VDW PARAMETERS WILL BE USED
Info: DCD FILENAME           mobley_1858644_prod.dcd
Info: DCD FREQUENCY          100000
Info: DCD FIRST STEP         100000
Info: DCD FILE WILL CONTAIN UNIT CELL DATA
Info: XST FILENAME           mobley_1858644_prod.xst
Info: XST FREQUENCY          100000
Info: NO VELOCITY DCD OUTPUT
Info: NO FORCE DCD OUTPUT
Info: OUTPUT FILENAME        mobley_1858644_prod
Info: BINARY OUTPUT FILES WILL BE USED
Info: RESTART FILENAME       mobley_1858644_prod.restart
Info: RESTART FREQUENCY      100000
Info: BINARY RESTART FILES WILL BE USED
Info: CUTOFF                 9
Info: PAIRLIST DISTANCE      11
Info: PAIRLIST SHRINK RATE   0.01
Info: PAIRLIST GROW RATE     0.01
Info: PAIRLIST TRIGGER       0.3
Info: PAIRLISTS PER CYCLE    2
Info: PAIRLISTS ENABLED
Info: MARGIN                 2
Info: HYDROGEN GROUP CUTOFF  2.5
Info: PATCH DIMENSION        15.5
Info: ENERGY OUTPUT STEPS    100000
Info: ENERGY EVALUATION STEPS    100000
Info: OUTPUT ENERGY PRECISION 4
Info: CROSSTERM ENERGY INCLUDED IN DIHEDRAL
Info: TIMING OUTPUT STEPS    1000000
Info: PRESSURE OUTPUT STEPS  100000
Info: ALCHEMICAL FEP ON
Info: FEP CURRENT LAMBDA VALUE     0
Info: FEP COMPARISON LAMBDA VALUE  0.05
Info: FEP INTRA-ALCHEMICAL NON-BONDED INTERACTIONS WILL BE RETAINED
Info: FEP INTRA-ALCHEMICAL BONDED INTERACTIONS WILL BE RETAINED
Info: FEP VDW SHIFTING COEFFICIENT 5
Info: FEP ELEC. ACTIVE FOR ANNIHILATED PARTICLES BETWEEN LAMBDA = 0 AND LAMBDA = 0.5
Info: FEP ELEC. ACTIVE FOR EXNIHILATED PARTICLES BETWEEN LAMBDA = 0.5 AND LAMBDA = 1
Info: FEP VDW ACTIVE FOR ANNIHILATED PARTICLES BETWEEN LAMBDA = 0 AND LAMBDA = 1
Info: FEP VDW ACTIVE FOR EXNIHILATED PARTICLES BETWEEN LAMBDA = 0 AND LAMBDA = 1
Info: FEP BOND ACTIVE FOR ANNIHILATED PARTICLES BETWEEN LAMBDA = 1 AND LAMBDA = 1
Info: FEP BOND ACTIVE FOR EXNIHILATED PARTICLES BETWEEN LAMBDA = 0 AND LAMBDA = 0
Info: LANGEVIN DYNAMICS ACTIVE
Info: LANGEVIN TEMPERATURE   300
Info: LANGEVIN USING BBK INTEGRATOR
Info: LANGEVIN DAMPING COEFFICIENT IS 1 INVERSE PS
Info: LANGEVIN DYNAMICS APPLIED TO HYDROGENS
Info: LANGEVIN PISTON PRESSURE CONTROL ACTIVE
Info:        TARGET PRESSURE IS 1.01325 BAR
Info:     OSCILLATION PERIOD IS 50 FS
Info:             DECAY TIME IS 25 FS
Info:     PISTON TEMPERATURE IS 300 K
Info:       PRESSURE CONTROL IS GROUP-BASED
Info:    INITIAL STRAIN RATE IS -7.94372e-06 -7.94372e-06 -7.94372e-06
Info:       CELL FLUCTUATION IS ISOTROPIC
Info: PARTICLE MESH EWALD (PME) ACTIVE
Info: PME TOLERANCE               1e-06
Info: PME EWALD COEFFICIENT       0.348832
Info: PME INTERPOLATION ORDER     4
Info: PME GRID DIMENSIONS         32 32 36
Info: PME MAXIMUM GRID SPACING    1
Info: PME CALCULATION WILL BE PERFORMED ON GPU
Info: FULL ELECTROSTATIC EVALUATION FREQUENCY      2
Info: USING VERLET I (r-RESPA) MTS SCHEME.
Info: C1 SPLITTING OF LONG RANGE ELECTROSTATICS
Info: PLACING ATOMS IN PATCHES BY HYDROGEN GROUPS
Info: RIGID BONDS TO HYDROGEN : ALL
Info:         ERROR TOLERANCE : 1e-08
Info:          MAX ITERATIONS : 100
Info: RIGID WATER USING SETTLE ALGORITHM
Info: RANDOM NUMBER SEED     1743864011
Info: USE HYDROGEN BONDS?    NO
Info: Using AMBER format force field!
Info: AMBER PARM FILE        mobley_1858644.prmtop
Info: COORDINATE PDB         mobley_1858644.pdb
Info: Exclusions will be read from PARM file!
Info: SCNB (VDW SCALING)     2
Info: USING ARITHMETIC MEAN TO COMBINE L-J SIGMA PARAMETERS
Info: BINARY COORDINATES     mobley_1858644_equil.coor
Info: SUMMARY OF PARAMETERS:
Info: 10 BONDS
Info: 12 ANGLES
Info:   12 HARMONIC
Info:   0 COSINE-BASED
Info: 8 DIHEDRAL
Info: 0 IMPROPER
Info: 0 CROSSTERM
Info: 0 VDW
Info: 36 VDW_PAIRS
Info: 0 NBTHOLE_PAIRS
Info: To read alchdata from file: mobley_1858644.pdb
Info: To read alchflag data from column: 5
Info: STRUCTURE SUMMARY:
Info: 2989 ATOMS
Info: 2989 BONDS
Info: 31 ANGLES
Info: 51 DIHEDRALS
Info: 0 IMPROPERS
Info: 0 CROSSTERMS
Info: 3059 EXCLUSIONS
Info: 2980 RIGID BONDS
Info: ALCH: 0 ATOMS TO DISAPPEAR IN FINAL STATE
Info: ALCH: 19 ATOMS TO APPEAR IN FINAL STATE
Info: 5987 DEGREES OF FREEDOM
Info: 999 HYDROGEN GROUPS
Info: 3 ATOMS IN LARGEST HYDROGEN GROUP
Info: 999 MIGRATION GROUPS
Info: 3 ATOMS IN LARGEST MIGRATION GROUP
Info: TOTAL MASS = 17958 amu
Info: TOTAL CHARGE = -0.000100002 e
Info: MASS DENSITY = 0.976398 g/cm^3
Info: ATOM DENSITY = 0.0978668 atoms/A^3
Info: ADDED 0 IMPLICIT EXCLUSIONS
Info: NONBONDED TABLE R-SQUARED SPACING: 0.0625
Info: NONBONDED TABLE SIZE: 705 POINTS
Info: REMOVING COM VELOCITY 0.00287124 -0.0559153 -0.0375737
Info: Use 3D box decompostion in PME FFT.
Info: Updated CUDA force table with 4096 elements.
Info: Updated CUDA LJ table with 8 x 8 elements.
Info: Found 21 unique exclusion lists needing 52 bytes
TCL: Running for 1500000 steps
ETITLE: TS BOND ANGLE DIHED IMPRP ELECT VDW BOUNDARY MISC KINETIC TOTAL TEMP POTENTIAL TOTALAVG TEMPAVG PRESSURE GPRESSURE VOLUME PRESSAVG GPRESSAVG
ENERGY: 0 6.6372 6.0151 4.0690 0.0000 -10911.0054 1535.0899 0.0000 0.0000 1750.3305 -7608.8637 294.2396 -9359.1942 -7608.8637 294.2396 419.8386 505.3887 30541.5025 419.8386 505.3887
ENERGY: 300000 1.7663 5.9385 2.2494 0.0000 -10877.6660 1536.7300 0.0000 0.0000 1779.6109 -7551.3709 299.1618 -9330.9818 -7554.8195 300.0824 956.9021 1021.8840 30076.0291 394.5785 471.9310
ENERGY: 600000 3.8992 4.7298 3.1014 0.0000 -10711.7336 1411.4660 0.0000 0.0000 1771.6753 -7516.8618 297.8278 -9288.5372 -7526.5872 300.2062 -435.5157 -349.0853 30811.5844 62.8146 133.9678
ENERGY: 900000 2.1473 8.4217 3.6322 0.0000 -10803.2749 1492.5620 0.0000 0.0000 1782.6030 -7513.9087 299.6648 -9296.5116 -7528.2959 301.0869 174.9814 239.2106 30855.0421 102.5250 171.2596
ENERGY: 1200000 5.3393 8.2943 5.2409 0.0000 -10752.8542 1430.4447 0.0000 0.0000 1796.9057 -7506.6293 302.0692 -9303.5350 -7535.0219 300.7297 -411.9289 -361.8181 30829.7937 -73.6339 -5.3139
ENERGY: 1500000 2.8451 7.0042 2.2634 0.0000 -10812.4556 1470.1068 0.0000 0.0000 1786.9934 -7543.2425 300.4029 -9330.2359 -7535.6929 300.9393 173.3585 217.6863 30261.2588 -9.0976 60.7702
TCL: Running FEP window   2: Lambda1 0.05   Lambda2 0.1    [dLambda 0.05  ]
TCL: Setting parameter firsttimestep to 0
TCL: Setting parameter alchLambda to 0.05
Info: NONBONDED TABLE R-SQUARED SPACING: 0.0625
Info: NONBONDED TABLE SIZE: 705 POINTS
TCL: Setting parameter alchLambda2 to 0.1
Info: NONBONDED TABLE R-SQUARED SPACING: 0.0625
Info: NONBONDED TABLE SIZE: 705 POINTS
TCL: Running for 1500000 steps
ETITLE: TS BOND ANGLE DIHED IMPRP ELECT VDW BOUNDARY MISC KINETIC TOTAL TEMP POTENTIAL TOTALAVG TEMPAVG PRESSURE GPRESSURE VOLUME PRESSAVG GPRESSAVG
ENERGY: 0 2.8451 7.0042 2.2634 0.0000 -10812.4543 1477.4820 0.0000 0.0000 1786.0736 -7536.7859 300.2482 -9322.8595 -7536.7859 300.2482 152.9523 223.9232 30261.2588 152.9523 223.9232
ENERGY: 300000 1.3177 8.4699 3.8039 0.0000 -10918.6002 1478.4042 0.0000 0.0000 1769.0523 -7657.5522 297.3869 -9426.6045 -7587.5043 300.0340 158.2596 215.1836 29953.5580 216.2536 268.3295
ENERGY: 600000 3.4684 4.6016 2.1089 0.0000 -10929.0278 1522.4178 0.0000 0.0000 1826.4559 -7569.9752 307.0367 -9396.4311 -7564.1496 301.7909 576.3789 615.6694 30143.2694 231.2330 285.5898
ENERGY: 900000 4.1807 8.0963 4.7060 0.0000 -10727.8558 1455.4846 0.0000 0.0000 1830.3956 -7424.9925 307.6990 -9255.3881 -7555.5930 301.3777 -20.1276 86.1283 30917.2225 202.8841 259.7395
ENERGY: 1200000 3.4829 6.9370 2.8833 0.0000 -10826.0514 1496.5496 0.0000 0.0000 1776.4402 -7539.7585 298.6288 -9316.1986 -7554.5261 300.5143 -56.3042 -12.6213 31007.5094 199.3687 261.1368
ENERGY: 1500000 4.1883 5.3832 4.3852 0.0000 -10769.6419 1460.4018 0.0000 0.0000 1822.9382 -7472.3452 306.4454 -9295.2834 -7555.1299 300.4709 -16.5682 48.0699 30623.0107 127.9760 190.1269
TCL: Running FEP window   3: Lambda1 0.1    Lambda2 0.15000000000000002 [dLambda 0.05000000000000002]
TCL: Setting parameter firsttimestep to 0
TCL: Setting parameter alchLambda to 0.1
Info: NONBONDED TABLE R-SQUARED SPACING: 0.0625
Info: NONBONDED TABLE SIZE: 705 POINTS
TCL: Setting parameter alchLambda2 to 0.15000000000000002
Info: NONBONDED TABLE R-SQUARED SPACING: 0.0625
Info: NONBONDED TABLE SIZE: 705 POINTS
TCL: Running for 1500000 steps
ETITLE: TS BOND ANGLE DIHED IMPRP ELECT VDW BOUNDARY MISC KINETIC TOTAL TEMP POTENTIAL TOTALAVG TEMPAVG PRESSURE GPRESSURE VOLUME PRESSAVG GPRESSAVG
ENERGY: 0 4.1883 5.3832 4.3852 0.0000 -10769.6401 1463.3701 0.0000 0.0000 1822.0310 -7470.2823 306.2929 -9292.3133 -7470.2823 306.2929 -16.6056 60.2960 30623.0107 -16.6056 60.2960
ENERGY: 300000 1.9025 6.9825 2.1374 0.0000 -10855.5293 1493.1845 0.0000 0.0000 1795.8269 -7555.4956 301.8878 -9351.3224 -7546.0058 302.7653 128.7997 212.4294 30773.8390 38.5251 108.0806
ENERGY: 600000 2.4871 4.4627 3.4192 0.0000 -10720.8561 1474.2691 0.0000 0.0000 1790.6666 -7445.5514 301.0204 -9236.2180 -7535.1091 301.6897 380.4845 436.8683 30751.3676 -14.6733 52.2133
ENERGY: 900000 4.8681 6.0438 1.7705 0.0000 -10703.5262 1426.6519 0.0000 0.0000 1766.5547 -7497.6372 296.9670 -9264.1919 -7540.3267 300.1750 -351.8302 -193.8827 30731.7374 -32.1796 47.7988
ENERGY: 1200000 4.0908 4.1248 3.0980 0.0000 -10832.7029 1446.8101 0.0000 0.0000 1795.9690 -7578.6102 301.9117 -9374.5793 -7554.6103 299.9055 142.1119 251.8392 29897.8918 -51.6159 29.7869
ENERGY: 1500000 1.8817 11.4077 6.9238 0.0000 -10714.1564 1428.7237 0.0000 0.0000 1716.4783 -7548.7412 288.5489 -9265.2195 -7554.7025 299.5297 -212.8891 -177.4185 30594.2601 56.6709 136.3908
TCL: Running FEP window   4: Lambda1 0.15000000000000002 Lambda2 0.2    [dLambda 0.04999999999999999]
TCL: Setting parameter firsttimestep to 0
TCL: Setting parameter alchLambda to 0.15000000000000002
Info: NONBONDED TABLE R-SQUARED SPACING: 0.0625
Info: NONBONDED TABLE SIZE: 705 POINTS
TCL: Setting parameter alchLambda2 to 0.2
Info: NONBONDED TABLE R-SQUARED SPACING: 0.0625
Info: NONBONDED TABLE SIZE: 705 POINTS
TCL: Running for 1500000 steps
ETITLE: TS BOND ANGLE DIHED IMPRP ELECT VDW BOUNDARY MISC KINETIC TOTAL TEMP POTENTIAL TOTALAVG TEMPAVG PRESSURE GPRESSURE VOLUME PRESSAVG GPRESSAVG
ENERGY: 0 1.8817 11.4077 6.9238 0.0000 -10714.1562 1430.3818 0.0000 0.0000 1715.5461 -7548.0150 288.3922 -9263.5611 -7548.0150 288.3922 -250.3620 -169.8832 30594.2601 -250.3620 -169.8832
ENERGY: 300000 1.9167 11.0483 6.4764 0.0000 -10845.3291 1504.5276 0.0000 0.0000 1788.5810 -7532.7791 300.6697 -9321.3601 -7546.8961 296.4578 362.0379 432.8407 30582.8728 -36.0489 22.0962
ENERGY: 600000 1.4298 3.7907 2.3998 0.0000 -10732.4697 1496.8590 0.0000 0.0000 1785.4976 -7442.4929 300.1514 -9227.9905 -7555.5111 296.4145 758.3015 715.3904 30361.7860 214.0142 272.1870
ENERGY: 900000 3.7900 8.2012 3.7473 0.0000 -10910.2102 1508.3315 0.0000 0.0000 1750.8261 -7635.3141 294.3230 -9386.1402 -7561.8275 297.5244 413.6859 430.8976 30428.4273 129.8385 184.9352
ENERGY: 1200000 3.9300 7.2498 6.7924 0.0000 -10583.3015 1378.3075 0.0000 0.0000 1831.8513 -7355.1706 307.9437 -9187.0219 -7558.9114 297.7471 -437.0421 -371.4437 31336.7365 -0.1282 55.5133
ENERGY: 1500000 3.8758 5.4888 3.9864 0.0000 -10734.7658 1404.7892 0.0000 0.0000 1824.0097 -7492.6159 306.6255 -9316.6256 -7562.1506 298.5705 -593.5488 -536.7201 31128.9162 -43.7118 11.1070
TCL: Running FEP window   5: Lambda1 0.2    Lambda2 0.25   [dLambda 0.04999999999999999]
TCL: Setting parameter firsttimestep to 0
TCL: Setting parameter alchLambda to 0.2
Info: NONBONDED TABLE R-SQUARED SPACING: 0.0625
Info: NONBONDED TABLE SIZE: 705 POINTS
TCL: Setting parameter alchLambda2 to 0.25
Info: NONBONDED TABLE R-SQUARED SPACING: 0.0625
Info: NONBONDED TABLE SIZE: 705 POINTS
TCL: Running for 1500000 steps
ETITLE: TS BOND ANGLE DIHED IMPRP ELECT VDW BOUNDARY MISC KINETIC TOTAL TEMP POTENTIAL TOTALAVG TEMPAVG PRESSURE GPRESSURE VOLUME PRESSAVG GPRESSAVG
ENERGY: 0 3.8758 5.4888 3.9864 0.0000 -10734.7640 1404.5085 0.0000 0.0000 1823.1266 -7493.7778 306.4771 -9316.9044 -7493.7778 306.4771 -610.8193 -532.9811 31128.9162 -610.8193 -532.9811
ENERGY: 300000 4.1203 3.9265 3.8455 0.0000 -10993.6023 1526.0819 0.0000 0.0000 1761.9140 -7693.7143 296.1869 -9455.6282 -7568.8299 300.6354 317.7042 379.5270 30388.5158 165.4512 219.5400
ENERGY: 600000 3.4335 7.6826 4.9603 0.0000 -10730.8405 1376.5139 0.0000 0.0000 1714.2365 -7624.0137 288.1720 -9338.2501 -7575.8355 301.2983 -664.8792 -597.3437 30565.9025 69.6085 139.0335
ENERGY: 900000 2.0852 4.3372 4.8417 0.0000 -10795.0609 1442.8949 0.0000 0.0000 1778.1873 -7562.7145 298.9225 -9340.9018 -7575.0476 301.3008 61.4957 158.5222 30372.7551 17.3570 85.0118
ENERGY: 1200000 3.3903 2.9539 4.6668 0.0000 -10772.5882 1391.9074 0.0000 0.0000 1791.1665 -7578.5033 301.1044 -9369.6697 -7575.3777 300.9923 -855.4754 -793.4266 31249.3044 -32.0268 31.5564
ENERGY: 1500000 2.6088 6.8341 2.9029 0.0000 -10854.4716 1492.6463 0.0000 0.0000 1814.7731 -7534.7064 305.0728 -9349.4796 -7575.3046 301.1322 202.8051 299.5161 30716.2556 -29.0513 35.1671
TCL: Running FEP window   6: Lambda1 0.25   Lambda2 0.3    [dLambda 0.04999999999999999]
TCL: Setting parameter firsttimestep to 0
TCL: Setting parameter alchLambda to 0.25
Info: NONBONDED TABLE R-SQUARED SPACING: 0.0625
Info: NONBONDED TABLE SIZE: 705 POINTS
TCL: Setting parameter alchLambda2 to 0.3
Info: NONBONDED TABLE R-SQUARED SPACING: 0.0625
Info: NONBONDED TABLE SIZE: 705 POINTS
TCL: Running for 1500000 steps
ETITLE: TS BOND ANGLE DIHED IMPRP ELECT VDW BOUNDARY MISC KINETIC TOTAL TEMP POTENTIAL TOTALAVG TEMPAVG PRESSURE GPRESSURE VOLUME PRESSAVG GPRESSAVG
ENERGY: 0 2.6088 6.8341 2.9029 0.0000 -10854.4704 1492.6932 0.0000 0.0000 1813.8889 -7535.5425 304.9241 -9349.4314 -7535.5425 304.9241 226.7821 305.8730 30716.2556 226.7821 305.8730
ENERGY: 300000 2.5824 5.8329 3.9545 0.0000 -10925.6751 1512.7130 0.0000 0.0000 1748.9848 -7651.6075 294.0134 -9400.5923 -7586.6775 301.7395 225.8503 321.9002 30295.2870 156.2184 227.0751
ENERGY: 600000 3.3278 6.9510 5.5472 0.0000 -10880.5993 1515.3332 0.0000 0.0000 1803.0340 -7546.4062 303.0994 -9349.4402 -7564.6586 301.4149 383.4479 490.3520 30728.1487 191.9761 264.6958
ENERGY: 900000 4.3073 7.4773 2.5972 0.0000 -10639.2961 1360.2916 0.0000 0.0000 1802.9177 -7461.7050 303.0798 -9264.6227 -7560.8056 301.8694 -850.9144 -798.8972 31030.0105 14.6051 86.5151
ENERGY: 1200000 3.4585 7.1181 3.0151 0.0000 -10796.8973 1466.5757 0.0000 0.0000 1767.2056 -7549.5242 297.0764 -9316.7298 -7554.5488 301.4352 19.8493 103.4728 30721.7726 -19.4545 52.8272
ENERGY: 1500000 1.9034 7.3998 5.1541 0.0000 -10830.7993 1461.5815 0.0000 0.0000 1766.7297 -7588.0308 296.9964 -9354.7605 -7554.8449 301.4349 -66.6360 -70.9422 30618.1205 -32.5351 24.3853
TCL: Running FEP window   7: Lambda1 0.3    Lambda2 0.35   [dLambda 0.04999999999999999]
TCL: Setting parameter firsttimestep to 0
TCL: Setting parameter alchLambda to 0.3
Info: NONBONDED TABLE R-SQUARED SPACING: 0.0625
Info: NONBONDED TABLE SIZE: 705 POINTS
TCL: Setting parameter alchLambda2 to 0.35
Info: NONBONDED TABLE R-SQUARED SPACING: 0.0625
Info: NONBONDED TABLE SIZE: 705 POINTS
TCL: Running for 1500000 steps
ETITLE: TS BOND ANGLE DIHED IMPRP ELECT VDW BOUNDARY MISC KINETIC TOTAL TEMP POTENTIAL TOTALAVG TEMPAVG PRESSURE GPRESSURE VOLUME PRESSAVG GPRESSAVG
ENERGY: 0 1.9034 7.3998 5.1541 0.0000 -10830.7996 1462.0059 0.0000 0.0000 1765.8231 -7588.5134 296.8440 -9354.3364 -7588.5134 296.8440 -135.6400 -60.3597 30618.1205 -135.6400 -60.3597
ENERGY: 300000 1.7180 5.7901 3.1853 0.0000 -10717.1389 1413.1772 0.0000 0.0000 1793.6734 -7499.5949 301.5258 -9293.2683 -7528.6073 301.4149 63.0001 110.6471 30316.7588 -75.6531 -6.7457
ENERGY: 600000 2.7858 9.0998 4.7684 0.0000 -10859.4120 1510.1086 0.0000 0.0000 1788.9196 -7543.7297 300.7267 -9332.6493 -7525.8758 300.1840 689.9275 748.5551 30194.8877 101.2681 161.0628
ENERGY: 900000 4.0502 4.6808 5.6925 0.0000 -10696.0022 1380.9288 0.0000 0.0000 1843.0779 -7457.5720 309.8310 -9300.6498 -7517.0582 301.7184 -361.0536 -234.2330 30515.9478 -8.1581 57.0981
ENERGY: 1200000 1.3883 6.1138 4.4877 0.0000 -10813.0081 1430.0307 0.0000 0.0000 1823.0230 -7547.9646 306.4596 -9370.9876 -7528.8573 300.7969 -247.9066 -205.9947 30767.1629 -57.4783 7.8905
ENERGY: 1500000 4.2015 7.6605 2.2395 0.0000 -10976.0512 1535.8038 0.0000 0.0000 1811.9834 -7614.1625 304.6038 -9426.1459 -7540.7605 301.2195 399.5674 452.0736 30498.3021 5.8303 73.4383
TCL: Running FEP window   8: Lambda1 0.35   Lambda2 0.39999999999999997 [dLambda 0.04999999999999999]
TCL: Setting parameter firsttimestep to 0
TCL: Setting parameter alchLambda to 0.35
Info: NONBONDED TABLE R-SQUARED SPACING: 0.0625
Info: NONBONDED TABLE SIZE: 705 POINTS
TCL: Setting parameter alchLambda2 to 0.39999999999999997
Info: NONBONDED TABLE R-SQUARED SPACING: 0.0625
Info: NONBONDED TABLE SIZE: 705 POINTS
TCL: Running for 1500000 steps
ETITLE: TS BOND ANGLE DIHED IMPRP ELECT VDW BOUNDARY MISC KINETIC TOTAL TEMP POTENTIAL TOTALAVG TEMPAVG PRESSURE GPRESSURE VOLUME PRESSAVG GPRESSAVG
ENERGY: 0 4.2015 7.6605 2.2395 0.0000 -10976.0503 1536.7483 0.0000 0.0000 1811.0603 -7614.1402 304.4486 -9425.2005 -7614.1402 304.4486 386.1513 465.8337 30498.3021 386.1513 465.8337
ENERGY: 300000 2.7078 3.1946 3.9020 0.0000 -10847.1430 1513.2146 0.0000 0.0000 1821.6069 -7502.5169 306.2216 -9324.1239 -7554.2474 302.7779 292.6524 385.1176 30876.3979 79.0309 170.7437
ENERGY: 600000 4.2285 5.7297 3.5046 0.0000 -10804.9356 1411.2177 0.0000 0.0000 1786.5512 -7593.7040 300.3285 -9380.2552 -7589.8164 299.5438 -327.3260 -263.3711 30396.7647 -77.6970 -7.2379
ENERGY: 900000 1.4215 3.3920 6.0300 0.0000 -10790.9358 1473.2275 0.0000 0.0000 1767.7859 -7539.0788 297.1740 -9306.8647 -7586.0669 299.7081 317.7498 325.9773 30718.8705 -93.1349 -32.9094
ENERGY: 1200000 2.6035 7.3611 6.0281 0.0000 -10678.0386 1401.4553 0.0000 0.0000 1738.8119 -7521.7788 292.3033 -9260.5907 -7570.1187 298.7822 -412.0690 -362.0683 30929.7704 -50.7823 6.2044
ENERGY: 1500000 2.4340 5.4113 2.2943 0.0000 -10958.3986 1487.9998 0.0000 0.0000 1823.6531 -7636.6061 306.5656 -9460.2592 -7581.6604 298.6569 -282.0886 -231.0121 30926.1587 -98.7128 -45.7442
TCL: Running FEP window   9: Lambda1 0.39999999999999997 Lambda2 0.44999999999999996 [dLambda 0.04999999999999999]
TCL: Setting parameter firsttimestep to 0
TCL: Setting parameter alchLambda to 0.39999999999999997
Info: NONBONDED TABLE R-SQUARED SPACING: 0.0625
Info: NONBONDED TABLE SIZE: 705 POINTS
TCL: Setting parameter alchLambda2 to 0.44999999999999996
Info: NONBONDED TABLE R-SQUARED SPACING: 0.0625
Info: NONBONDED TABLE SIZE: 705 POINTS
TCL: Running for 1500000 steps
ETITLE: TS BOND ANGLE DIHED IMPRP ELECT VDW BOUNDARY MISC KINETIC TOTAL TEMP POTENTIAL TOTALAVG TEMPAVG PRESSURE GPRESSURE VOLUME PRESSAVG GPRESSAVG
ENERGY: 0 2.4340 5.4113 2.2943 0.0000 -10958.3974 1488.7910 0.0000 0.0000 1822.7571 -7636.7096 306.4149 -9459.4668 -7636.7096 306.4149 -303.5831 -220.6970 30926.1587 -303.5831 -220.6970
ENERGY: 300000 2.8641 6.7639 6.0906 0.0000 -10913.5789 1505.2202 0.0000 0.0000 1790.8713 -7601.7687 301.0548 -9392.6400 -7577.2484 303.3084 281.6839 294.3599 30580.1385 -355.3005 -304.0811
ENERGY: 600000 5.2063 2.5381 7.2468 0.0000 -10768.5521 1392.3270 0.0000 0.0000 1751.3548 -7609.8790 294.4118 -9361.2339 -7582.3856 301.2452 -710.1693 -628.8670 30569.7128 -456.3974 -395.8377
ENERGY: 900000 3.7877 5.3250 3.5406 0.0000 -10820.4360 1464.8844 0.0000 0.0000 1779.6290 -7563.2694 299.1649 -9342.8984 -7576.7302 300.8277 205.8236 315.6328 30322.5745 -151.5852 -87.5057
ENERGY: 1200000 2.5512 8.8104 3.7318 0.0000 -10876.3427 1520.8367 0.0000 0.0000 1754.1263 -7586.2864 294.8777 -9340.4126 -7579.3315 298.9142 629.3375 679.6969 30569.5404 -12.7673 46.7561
ENERGY: 1500000 1.0052 7.5842 3.7970 0.0000 -10917.1308 1532.3191 0.0000 0.0000 1721.9770 -7650.4484 289.4733 -9372.4254 -7566.4711 299.5388 467.3070 629.3920 30535.6780 -34.0180 32.5477
TCL: Running FEP window  10: Lambda1 0.44999999999999996 Lambda2 0.49999999999999994 [dLambda 0.04999999999999999]
TCL: Setting parameter firsttimestep to 0
TCL: Setting parameter alchLambda to 0.44999999999999996
Info: NONBONDED TABLE R-SQUARED SPACING: 0.0625
Info: NONBONDED TABLE SIZE: 705 POINTS
TCL: Setting parameter alchLambda2 to 0.49999999999999994
Info: NONBONDED TABLE R-SQUARED SPACING: 0.0625
Info: NONBONDED TABLE SIZE: 705 POINTS
TCL: Running for 1500000 steps
ETITLE: TS BOND ANGLE DIHED IMPRP ELECT VDW BOUNDARY MISC KINETIC TOTAL TEMP POTENTIAL TOTALAVG TEMPAVG PRESSURE GPRESSURE VOLUME PRESSAVG GPRESSAVG
ENERGY: 0 1.0052 7.5842 3.7970 0.0000 -10917.1316 1532.0053 0.0000 0.0000 1721.1156 -7651.6243 289.3285 -9372.7399 -7651.6243 289.3285 550.1705 635.2409 30535.6780 550.1705 635.2409
ENERGY: 300000 1.6763 4.8922 2.1056 0.0000 -10761.2209 1438.5523 0.0000 0.0000 1805.0088 -7508.9857 303.4314 -9313.9945 -7581.9907 297.8120 -97.8733 -85.1402 30886.1675 60.6726 99.2123
ENERGY: 600000 1.8056 4.9044 3.0010 0.0000 -10834.8785 1477.8917 0.0000 0.0000 1775.7069 -7571.5689 298.5056 -9347.2758 -7565.4399 299.7101 275.6810 351.9188 30695.9581 284.0733 339.1116
ENERGY: 900000 1.5133 7.7835 4.4204 0.0000 -10781.6962 1455.6261 0.0000 0.0000 1799.3252 -7513.0277 302.4759 -9312.3529 -7553.0010 300.4567 84.6516 217.5878 30445.8542 190.4755 243.3440
ENERGY: 1200000 2.9881 6.8970 3.2482 0.0000 -10846.9562 1501.9108 0.0000 0.0000 1804.5584 -7527.3537 303.3556 -9331.9121 -7557.0278 301.1363 290.8003 374.3847 31002.2779 233.5070 289.9299
ENERGY: 1500000 3.7380 6.4121 4.9496 0.0000 -10769.2867 1435.5371 0.0000 0.0000 1809.0487 -7509.6013 304.1105 -9318.6499 -7561.3417 300.6455 -108.0137 -92.6925 30602.5020 180.9345 233.6587
TCL: Running FEP window  11: Lambda1 0.49999999999999994 Lambda2 0.5499999999999999 [dLambda 0.04999999999999999]
TCL: Setting parameter firsttimestep to 0
TCL: Setting parameter alchLambda to 0.49999999999999994
Info: NONBONDED TABLE R-SQUARED SPACING: 0.0625
Info: NONBONDED TABLE SIZE: 705 POINTS
TCL: Setting parameter alchLambda2 to 0.5499999999999999
Info: NONBONDED TABLE R-SQUARED SPACING: 0.0625
Info: NONBONDED TABLE SIZE: 705 POINTS
TCL: Running for 1500000 steps
ETITLE: TS BOND ANGLE DIHED IMPRP ELECT VDW BOUNDARY MISC KINETIC TOTAL TEMP POTENTIAL TOTALAVG TEMPAVG PRESSURE GPRESSURE VOLUME PRESSAVG GPRESSAVG
ENERGY: 0 3.7380 6.4121 4.9496 0.0000 -10769.2865 1435.7537 0.0000 0.0000 1808.1406 -7510.2925 303.9578 -9318.4331 -7510.2925 303.9578 -174.2185 -79.3776 30602.5020 -174.2185 -79.3776
ENERGY: 300000 3.3953 5.1264 5.3821 0.0000 -10714.8174 1417.7272 0.0000 0.0000 1812.4620 -7470.7245 304.6843 -9283.1865 -7514.5647 300.2223 -461.9387 -453.5128 31182.5978 -148.3569 -83.7517
ENERGY: 600000 2.2819 7.1202 7.0171 0.0000 -10702.1254 1426.4768 0.0000 0.0000 1799.7594 -7459.4700 302.5489 -9259.2294 -7500.3999 301.8998 36.7781 83.5513 30796.5350 -268.7186 -214.0614
ENERGY: 900000 5.1724 6.8131 4.4055 0.0000 -10731.2915 1444.7674 0.0000 0.0000 1742.0481 -7528.0850 292.8473 -9270.1331 -7521.5315 298.9551 -203.3757 -107.4137 31168.1301 -173.3514 -103.4099
ENERGY: 1200000 2.6862 5.6921 4.2777 0.0000 -10935.8760 1574.1188 0.0000 0.0000 1815.9122 -7533.1891 305.2643 -9349.1013 -7527.1272 300.1519 862.2693 968.5791 30394.0135 -154.0354 -78.8586
ENERGY: 1500000 2.3005 11.6780 4.6312 0.0000 -10773.7955 1418.9594 0.0000 0.0000 1776.1937 -7560.0327 298.5874 -9336.2263 -7532.1269 299.5443 -312.7150 -240.9308 30515.4779 -154.7852 -71.5049
TCL: Running FEP window  12: Lambda1 0.5499999999999999 Lambda2 0.6    [dLambda 0.050000000000000044]
TCL: Setting parameter firsttimestep to 0
TCL: Setting parameter alchLambda to 0.5499999999999999
Info: NONBONDED TABLE R-SQUARED SPACING: 0.0625
Info: NONBONDED TABLE SIZE: 705 POINTS
TCL: Setting parameter alchLambda2 to 0.6
Info: NONBONDED TABLE R-SQUARED SPACING: 0.0625
Info: NONBONDED TABLE SIZE: 705 POINTS
TCL: Running for 1500000 steps
ETITLE: TS BOND ANGLE DIHED IMPRP ELECT VDW BOUNDARY MISC KINETIC TOTAL TEMP POTENTIAL TOTALAVG TEMPAVG PRESSURE GPRESSURE VOLUME PRESSAVG GPRESSAVG
ENERGY: 0 2.3005 11.6780 4.6312 0.0000 -10774.6191 1419.4478 0.0000 0.0000 1775.3111 -7561.2504 298.4390 -9336.5615 -7561.2504 298.4390 -323.2141 -229.0203 30515.4779 -323.2141 -229.0203
ENERGY: 300000 1.6550 7.0954 3.5958 0.0000 -10824.1404 1548.9239 0.0000 0.0000 1799.3065 -7463.5638 302.4728 -9262.8703 -7558.1038 300.3315 1144.8937 1198.8532 30305.5274 181.6032 242.7616
ENERGY: 600000 3.7787 5.8559 3.0326 0.0000 -10766.7272 1429.0114 0.0000 0.0000 1790.0260 -7535.0225 300.9127 -9325.0486 -7556.1684 299.5648 -114.4623 -55.9513 30461.0419 252.0514 314.0299
ENERGY: 900000 4.8020 6.1061 3.9458 0.0000 -10894.6694 1495.7824 0.0000 0.0000 1712.0090 -7672.0241 287.7976 -9384.0331 -7567.6201 297.9675 -85.1340 6.4427 30605.7994 278.8682 343.2733
ENERGY: 1200000 3.9747 7.0233 3.6765 0.0000 -10799.1671 1527.4303 0.0000 0.0000 1814.2658 -7442.7966 304.9875 -9257.0623 -7559.0520 297.4539 728.6641 786.5512 30616.4073 201.7480 265.8291
ENERGY: 1500000 4.1815 6.9150 4.5583 0.0000 -10863.0293 1459.2864 0.0000 0.0000 1771.2186 -7616.8696 297.7510 -9388.0882 -7568.4987 298.1768 -90.3778 -84.6853 30301.0896 162.3122 226.6858
TCL: Running FEP window  13: Lambda1 0.6    Lambda2 0.65   [dLambda 0.050000000000000044]
TCL: Setting parameter firsttimestep to 0
TCL: Setting parameter alchLambda to 0.6
Info: NONBONDED TABLE R-SQUARED SPACING: 0.0625
Info: NONBONDED TABLE SIZE: 705 POINTS
TCL: Setting parameter alchLambda2 to 0.65
Info: NONBONDED TABLE R-SQUARED SPACING: 0.0625
Info: NONBONDED TABLE SIZE: 705 POINTS
TCL: Running for 1500000 steps
ETITLE: TS BOND ANGLE DIHED IMPRP ELECT VDW BOUNDARY MISC KINETIC TOTAL TEMP POTENTIAL TOTALAVG TEMPAVG PRESSURE GPRESSURE VOLUME PRESSAVG GPRESSAVG
ENERGY: 0 4.1815 6.9150 4.5583 0.0000 -10863.3386 1460.3613 0.0000 0.0000 1770.3553 -7616.9674 297.6059 -9387.3226 -7616.9674 297.6059 -148.2493 -63.3506 30301.0896 -148.2493 -63.3506
ENERGY: 300000 1.5072 8.7139 3.2069 0.0000 -10763.7058 1417.8016 0.0000 0.0000 1818.0222 -7514.4540 305.6190 -9332.4763 -7601.8141 296.4643 -269.5973 -181.8272 30866.8427 -247.4477 -171.8164
ENERGY: 600000 2.4555 7.6836 3.7086 0.0000 -10911.1184 1534.5753 0.0000 0.0000 1810.0382 -7552.6571 304.2768 -9362.6953 -7561.3301 302.0139 379.4539 434.2762 30880.0335 -193.3760 -122.8373
ENERGY: 900000 5.1653 5.8224 4.3046 0.0000 -10753.7407 1402.7319 0.0000 0.0000 1753.8350 -7581.8815 294.8288 -9335.7165 -7554.6955 301.2437 -494.9239 -406.6694 30979.3382 -205.3060 -134.1655
ENERGY: 1200000 2.1427 5.8174 1.9291 0.0000 -10821.5134 1477.6941 0.0000 0.0000 1799.7268 -7534.2033 302.5434 -9333.9301 -7557.9260 300.7588 140.2542 194.7796 30836.6638 -219.0024 -146.9321
ENERGY: 1500000 1.7785 2.0191 5.3637 0.0000 -10741.8028 1416.9482 0.0000 0.0000 1766.4372 -7549.2560 296.9473 -9315.6933 -7553.2766 299.9633 -135.9187 -55.0034 30537.1828 -176.3356 -107.4502
TCL: Running FEP window  14: Lambda1 0.65   Lambda2 0.7000000000000001 [dLambda 0.050000000000000044]
TCL: Setting parameter firsttimestep to 0
TCL: Setting parameter alchLambda to 0.65
Info: NONBONDED TABLE R-SQUARED SPACING: 0.0625
Info: NONBONDED TABLE SIZE: 705 POINTS
TCL: Setting parameter alchLambda2 to 0.7000000000000001
Info: NONBONDED TABLE R-SQUARED SPACING: 0.0625
Info: NONBONDED TABLE SIZE: 705 POINTS
TCL: Running for 1500000 steps
ETITLE: TS BOND ANGLE DIHED IMPRP ELECT VDW BOUNDARY MISC KINETIC TOTAL TEMP POTENTIAL TOTALAVG TEMPAVG PRESSURE GPRESSURE VOLUME PRESSAVG GPRESSAVG
ENERGY: 0 1.7785 2.0191 5.3637 0.0000 -10742.5523 1416.9942 0.0000 0.0000 1765.5616 -7550.8351 296.8001 -9316.3967 -7550.8351 296.8001 -139.3450 -48.7519 30537.1828 -139.3450 -48.7519
ENERGY: 300000 6.5851 4.3125 3.9510 0.0000 -10747.4292 1506.1920 0.0000 0.0000 1746.3429 -7480.0457 293.5693 -9226.3886 -7554.1024 297.0674 375.1767 414.9098 31083.9969 409.3496 490.9646
ENERGY: 600000 2.7334 6.2702 4.4964 0.0000 -10830.8389 1431.0170 0.0000 0.0000 1765.3192 -7621.0027 296.7593 -9386.3219 -7561.0867 298.3350 -290.5753 -241.7593 30525.6006 104.8296 173.4655
ENERGY: 900000 2.7129 5.6598 4.8382 0.0000 -10717.0872 1410.0046 0.0000 0.0000 1784.4829 -7509.3888 299.9808 -9293.8718 -7564.3957 299.0683 -227.6215 -181.1790 30617.1110 63.4923 128.8332
ENERGY: 1200000 2.8815 10.4355 5.5262 0.0000 -10711.7976 1359.8908 0.0000 0.0000 1760.4940 -7572.5695 295.9482 -9333.0636 -7562.3809 299.0127 -716.5652 -714.3466 30880.1616 -76.3639 -18.4839
ENERGY: 1500000 1.7752 4.1379 3.8939 0.0000 -10867.4700 1509.5092 0.0000 0.0000 1783.3203 -7564.8334 299.7854 -9348.1538 -7572.8514 299.4172 157.6753 250.6947 30975.4840 -112.9061 -44.8821
TCL: Running FEP window  15: Lambda1 0.7000000000000001 Lambda2 0.7500000000000001 [dLambda 0.050000000000000044]
TCL: Setting parameter firsttimestep to 0
TCL: Setting parameter alchLambda to 0.7000000000000001
Info: NONBONDED TABLE R-SQUARED SPACING: 0.0625
Info: NONBONDED TABLE SIZE: 705 POINTS
TCL: Setting parameter alchLambda2 to 0.7500000000000001
Info: NONBONDED TABLE R-SQUARED SPACING: 0.0625
Info: NONBONDED TABLE SIZE: 705 POINTS
TCL: Running for 1500000 steps
ETITLE: TS BOND ANGLE DIHED IMPRP ELECT VDW BOUNDARY MISC KINETIC TOTAL TEMP POTENTIAL TOTALAVG TEMPAVG PRESSURE GPRESSURE VOLUME PRESSAVG GPRESSAVG
ENERGY: 0 1.7752 4.1379 3.8939 0.0000 -10867.3465 1509.0457 0.0000 0.0000 1782.4218 -7566.0720 299.6344 -9348.4938 -7566.0720 299.6344 150.1509 252.8581 30975.4840 150.1509 252.8581
ENERGY: 300000 4.2513 8.4573 4.1139 0.0000 -10950.2494 1589.1609 0.0000 0.0000 1743.8692 -7600.3967 293.1535 -9344.2659 -7543.7913 300.9194 979.4027 1022.5178 30688.3671 318.8035 404.2076
ENERGY: 600000 4.8142 4.3251 4.3448 0.0000 -10805.5819 1465.9649 0.0000 0.0000 1738.3259 -7587.8070 292.2216 -9326.1329 -7564.2576 299.0566 216.8518 340.5914 30475.9336 186.4115 273.2110
ENERGY: 900000 1.1517 3.9235 2.0767 0.0000 -10860.7311 1492.3983 0.0000 0.0000 1787.3041 -7573.8768 300.4551 -9361.1809 -7558.4012 300.0229 470.7319 503.9974 30457.4309 200.7939 268.5493
ENERGY: 1200000 2.6432 8.0610 2.6310 0.0000 -10826.5382 1470.9722 0.0000 0.0000 1754.4358 -7587.7950 294.9298 -9342.2308 -7553.4088 301.2787 -83.8305 -47.5932 31102.1508 152.5830 218.8804
ENERGY: 1500000 8.6252 5.0401 4.4807 0.0000 -10714.5995 1385.9238 0.0000 0.0000 1815.0982 -7495.4314 305.1274 -9310.5296 -7554.8705 301.0633 -648.3432 -596.1723 31008.4767 77.9495 145.1368
TCL: Running FEP window  16: Lambda1 0.7500000000000001 Lambda2 0.8000000000000002 [dLambda 0.050000000000000044]
TCL: Setting parameter firsttimestep to 0
TCL: Setting parameter alchLambda to 0.7500000000000001
Info: NONBONDED TABLE R-SQUARED SPACING: 0.0625
Info: NONBONDED TABLE SIZE: 705 POINTS
TCL: Setting parameter alchLambda2 to 0.8000000000000002
Info: NONBONDED TABLE R-SQUARED SPACING: 0.0625
Info: NONBONDED TABLE SIZE: 705 POINTS
TCL: Running for 1500000 steps
ETITLE: TS BOND ANGLE DIHED IMPRP ELECT VDW BOUNDARY MISC KINETIC TOTAL TEMP POTENTIAL TOTALAVG TEMPAVG PRESSURE GPRESSURE VOLUME PRESSAVG GPRESSAVG
ENERGY: 0 8.6252 5.0401 4.4807 0.0000 -10715.2912 1388.5414 0.0000 0.0000 1814.2008 -7494.4029 304.9766 -9308.6037 -7494.4029 304.9766 -653.3504 -563.3894 31008.4767 -653.3504 -563.3894
ENERGY: 300000 4.4014 3.8092 5.8213 0.0000 -10681.5144 1387.8626 0.0000 0.0000 1793.5843 -7486.0357 301.5108 -9279.6199 -7530.2377 305.2832 -327.6763 -329.0114 30973.7475 -340.6506 -294.6925
ENERGY: 600000 5.5876 5.0617 5.2861 0.0000 -10829.6643 1476.4070 0.0000 0.0000 1764.2497 -7573.0721 296.5795 -9337.3218 -7540.4553 302.4928 165.9555 211.3458 30578.4635 -183.3201 -127.4939
ENERGY: 900000 2.6024 5.4686 3.8346 0.0000 -10812.1217 1442.4816 0.0000 0.0000 1825.4154 -7532.3190 306.8618 -9357.7344 -7538.3893 302.3887 -125.5262 3.6825 30816.1398 -87.6314 -17.5678
ENERGY: 1200000 4.0703 2.3224 2.8494 0.0000 -10831.8339 1438.7029 0.0000 0.0000 1817.9742 -7565.9146 305.6109 -9383.8888 -7550.2014 302.3895 -245.1086 -231.7436 31018.2541 -150.4109 -80.7321
ENERGY: 1500000 2.0214 8.1999 4.1328 0.0000 -10653.1125 1359.0202 0.0000 0.0000 1835.4528 -7444.2854 308.5491 -9279.7382 -7542.8155 303.0564 -771.2916 -728.8982 31431.9461 -147.1405 -80.4958
TCL: Running FEP window  17: Lambda1 0.8000000000000002 Lambda2 0.8500000000000002 [dLambda 0.050000000000000044]
TCL: Setting parameter firsttimestep to 0
TCL: Setting parameter alchLambda to 0.8000000000000002
Info: NONBONDED TABLE R-SQUARED SPACING: 0.0625
Info: NONBONDED TABLE SIZE: 705 POINTS
TCL: Setting parameter alchLambda2 to 0.8500000000000002
Info: NONBONDED TABLE R-SQUARED SPACING: 0.0625
Info: NONBONDED TABLE SIZE: 705 POINTS
TCL: Running for 1500000 steps
ETITLE: TS BOND ANGLE DIHED IMPRP ELECT VDW BOUNDARY MISC KINETIC TOTAL TEMP POTENTIAL TOTALAVG TEMPAVG PRESSURE GPRESSURE VOLUME PRESSAVG GPRESSAVG
ENERGY: 0 2.0214 8.1999 4.1328 0.0000 -10655.0151 1359.6901 0.0000 0.0000 1834.5664 -7446.4044 308.4001 -9280.9709 -7446.4044 308.4001 -792.9764 -715.7234 31431.9461 -792.9764 -715.7234
ENERGY: 300000 3.0051 2.8659 5.4690 0.0000 -10936.7180 1508.7797 0.0000 0.0000 1795.3232 -7621.2752 301.8032 -9416.5984 -7532.4268 304.8978 263.9017 306.9370 30397.5928 -240.9267 -190.2546
ENERGY: 600000 2.1693 7.1726 5.4524 0.0000 -10909.6464 1485.8118 0.0000 0.0000 1777.8746 -7631.1657 298.8700 -9409.0403 -7548.0514 303.0018 178.5586 238.2422 30516.6116 -278.6074 -227.3044
ENERGY: 900000 2.1502 7.3388 6.7332 0.0000 -10947.2784 1512.9621 0.0000 0.0000 1777.3017 -7640.7924 298.7736 -9418.0941 -7552.3163 301.4444 504.9392 554.6760 30186.0681 -91.4578 -39.3338
ENERGY: 1200000 2.0611 6.8514 3.0045 0.0000 -10654.1157 1318.9203 0.0000 0.0000 1779.3674 -7543.9110 299.1209 -9323.2784 -7546.8597 301.7814 -1067.4318 -953.4335 30810.5215 -26.0818 33.7050
ENERGY: 1500000 5.9354 5.8619 3.1720 0.0000 -10897.1954 1477.0435 0.0000 0.0000 1827.4576 -7577.7249 307.2051 -9405.1825 -7550.7418 302.0387 -197.3301 -128.2116 31174.0918 -50.7973 6.0510
TCL: Running FEP window  18: Lambda1 0.8500000000000002 Lambda2 0.9000000000000002 [dLambda 0.050000000000000044]
TCL: Setting parameter firsttimestep to 0
TCL: Setting parameter alchLambda to 0.8500000000000002
Info: NONBONDED TABLE R-SQUARED SPACING: 0.0625
Info: NONBONDED TABLE SIZE: 705 POINTS
TCL: Setting parameter alchLambda2 to 0.9000000000000002
Info: NONBONDED TABLE R-SQUARED SPACING: 0.0625
Info: NONBONDED TABLE SIZE: 705 POINTS
TCL: Running for 1500000 steps
ETITLE: TS BOND ANGLE DIHED IMPRP ELECT VDW BOUNDARY MISC KINETIC TOTAL TEMP POTENTIAL TOTALAVG TEMPAVG PRESSURE GPRESSURE VOLUME PRESSAVG GPRESSAVG
ENERGY: 0 5.9354 5.8619 3.1720 0.0000 -10899.1754 1479.3019 0.0000 0.0000 1826.5599 -7578.3443 307.0542 -9404.9042 -7578.3443 307.0542 -190.0610 -98.9438 31174.0918 -190.0610 -98.9438
ENERGY: 300000 1.5885 4.2573 2.5975 0.0000 -10969.7586 1601.0333 0.0000 0.0000 1833.8641 -7526.4180 308.2821 -9360.2821 -7566.8932 303.2145 1255.8205 1313.4151 30676.7078 239.9964 323.1955
ENERGY: 600000 5.5083 8.7117 3.9795 0.0000 -10939.2922 1489.0303 0.0000 0.0000 1778.0745 -7653.9879 298.9036 -9432.0624 -7561.4247 302.4979 -281.2255 -191.0826 31084.4747 96.3407 171.1224
ENERGY: 900000 4.1942 7.9671 2.3589 0.0000 -10768.5165 1426.3171 0.0000 0.0000 1779.5942 -7548.0850 299.1590 -9327.6792 -7553.8633 300.5035 -299.0702 -255.5420 30826.8859 -36.0880 40.8358
ENERGY: 1200000 2.3690 6.3384 5.9361 0.0000 -10761.5820 1445.0937 0.0000 0.0000 1816.6565 -7485.1883 305.3894 -9301.8448 -7560.7388 299.3881 -177.1063 -77.1121 31051.7618 -26.9343 36.3412
ENERGY: 1500000 0.6826 5.0895 3.4238 0.0000 -10662.4372 1330.4524 0.0000 0.0000 1779.1533 -7543.6356 299.0849 -9322.7889 -7552.2422 299.6290 -962.1635 -937.4850 31037.1154 -65.4914 -3.1703
TCL: Running FEP window  19: Lambda1 0.9000000000000002 Lambda2 0.9500000000000003 [dLambda 0.050000000000000044]
TCL: Setting parameter firsttimestep to 0
TCL: Setting parameter alchLambda to 0.9000000000000002
Info: NONBONDED TABLE R-SQUARED SPACING: 0.0625
Info: NONBONDED TABLE SIZE: 705 POINTS
TCL: Setting parameter alchLambda2 to 0.9500000000000003
Info: NONBONDED TABLE R-SQUARED SPACING: 0.0625
Info: NONBONDED TABLE SIZE: 705 POINTS
TCL: Running for 1500000 steps
ETITLE: TS BOND ANGLE DIHED IMPRP ELECT VDW BOUNDARY MISC KINETIC TOTAL TEMP POTENTIAL TOTALAVG TEMPAVG PRESSURE GPRESSURE VOLUME PRESSAVG GPRESSAVG
ENERGY: 0 0.6826 5.0895 3.4238 0.0000 -10664.3927 1331.4166 0.0000 0.0000 1778.2574 -7545.5229 298.9343 -9323.7802 -7545.5229 298.9343 -1008.7992 -924.1292 31037.1154 -1008.7992 -924.1292
ENERGY: 300000 4.4382 3.2000 6.9717 0.0000 -10797.4123 1409.4869 0.0000 0.0000 1760.8562 -7612.4593 296.0091 -9373.3155 -7573.0022 298.4208 -604.8955 -512.0911 30947.7173 -665.9168 -569.0265
ENERGY: 600000 4.3866 5.9831 3.3409 0.0000 -10647.8471 1310.2645 0.0000 0.0000 1809.0049 -7514.8672 304.1031 -9323.8721 -7570.8019 299.0065 -1098.8395 -1046.8233 31034.8235 -515.4051 -444.7147
ENERGY: 900000 2.0132 7.1870 2.7504 0.0000 -10929.8868 1487.3795 0.0000 0.0000 1762.5663 -7667.9905 296.2965 -9430.5568 -7597.1281 297.1269 232.7034 299.4409 30349.9043 -307.4291 -247.5591
ENERGY: 1200000 1.1021 5.4627 5.7564 0.0000 -10593.2738 1294.7378 0.0000 0.0000 1764.1915 -7522.0232 296.5698 -9286.2147 -7573.5816 298.2526 -1144.9893 -1140.0069 30954.1020 -420.6264 -361.0361
ENERGY: 1500000 3.7984 5.2938 4.2121 0.0000 -10881.0877 1436.3529 0.0000 0.0000 1743.0057 -7688.4248 293.0083 -9431.4306 -7574.3875 298.7334 -621.0449 -467.1194 31042.6985 -384.1876 -322.5895
TCL: Running FEP window  20: Lambda1 0.9500000000000003 Lambda2 1.0    [dLambda 0.04999999999999971]
TCL: Setting parameter firsttimestep to 0
TCL: Setting parameter alchLambda to 0.9500000000000003
Info: NONBONDED TABLE R-SQUARED SPACING: 0.0625
Info: NONBONDED TABLE SIZE: 705 POINTS
TCL: Setting parameter alchLambda2 to 1.0
Info: NONBONDED TABLE R-SQUARED SPACING: 0.0625
Info: NONBONDED TABLE SIZE: 705 POINTS
TCL: Running for 1500000 steps
ETITLE: TS BOND ANGLE DIHED IMPRP ELECT VDW BOUNDARY MISC KINETIC TOTAL TEMP POTENTIAL TOTALAVG TEMPAVG PRESSURE GPRESSURE VOLUME PRESSAVG GPRESSAVG
ENERGY: 0 3.7984 5.2938 4.2121 0.0000 -10882.7393 1437.0707 0.0000 0.0000 1742.1040 -7690.2604 292.8567 -9432.3643 -7690.2604 292.8567 -537.8236 -450.4880 31042.6985 -537.8236 -450.4880
ENERGY: 300000 2.3682 6.0945 4.6127 0.0000 -10851.0504 1408.5182 0.0000 0.0000 1797.2332 -7632.2236 302.1242 -9429.4568 -7599.1202 296.8551 -407.5233 -425.4991 30520.8887 -261.5720 -232.3620
ENERGY: 600000 2.3881 6.7071 3.5745 0.0000 -10629.6426 1319.7423 0.0000 0.0000 1730.8409 -7566.3897 290.9633 -9297.2305 -7576.2571 297.5391 -879.1982 -804.5318 30739.9986 -352.7342 -310.2655
ENERGY: 900000 1.7379 5.7785 4.6578 0.0000 -10731.0819 1453.9270 0.0000 0.0000 1784.8324 -7480.1484 300.0396 -9264.9808 -7562.7143 298.7853 455.5746 484.4600 30786.3877 -127.5789 -82.9284
ENERGY: 1200000 1.2299 6.3417 5.3551 0.0000 -10884.3044 1447.1672 0.0000 0.0000 1703.1478 -7721.0626 286.3080 -9424.2104 -7570.5719 298.1815 -265.7450 -133.1216 30415.6317 -171.4889 -117.8552
ENERGY: 1500000 2.7240 7.3765 4.5411 0.0000 -10866.5541 1483.9926 0.0000 0.0000 1835.2871 -7532.6328 308.5213 -9367.9199 -7567.4280 298.8417 163.3901 216.9548 30756.2066 -143.6513 -86.4531
TCL: Exiting due to exit command.
