Info: SIMULATION PARAMETERS:
Info: TIMESTEP               2
Info: NUMBER OF STEPS        0
Info: STEPS PER CYCLE        10
Info: PERIODIC CELL BASIS 1  30.2167 0 0
Info: PERIODIC CELL BASIS 2  0 30.2635 0
Info: PERIODIC CELL BASIS 3  0 0 33.0822
Info: PERIODIC CELL CENTER   0 0 0
Info: WRAPPING WATERS AROUND PERIODIC BOUNDARIES ON OUTPUT.
Info: WRAPPING ALL CLUSTERS AROUND PERIODIC BOUNDARIES ON OUTPUT.
Info: FIRST LDB TIMESTEP     50
Info: LAST LDB TIMESTEP     -1
Info: HOM BACKGROUND SCALING 1
Info: PME BACKGROUND SCALING 1
Info: MIN ATOMS PER PATCH    40
Info: EMPTY PATCH LOAD       40 ATOMS
Info: VELOCITY FILE          mobley_6988468_equil.vel
Info: CENTER OF MASS MOVING INITIALLY? NO
Info: DIELECTRIC             1
Info: EXCLUDE                SCALED ONE-FOUR
Info: 1-4 ELECTROSTATICS SCALED BY 0.833333
Info: MODIFIED 1-4 VDW PARAMETERS WILL BE USED
Info: DCD FILENAME           mobley_6988468_prod.dcd
Info: DCD FREQUENCY          100000
Info: DCD FIRST STEP         100000
Info: DCD FILE WILL CONTAIN UNIT CELL DATA
Info: XST FILENAME           mobley_6988468_prod.xst
Info: XST FREQUENCY          100000
Info: NO VELOCITY DCD OUTPUT
Info: NO FORCE DCD OUTPUT
Info: OUTPUT FILENAME        mobley_6988468_prod
Info: BINARY OUTPUT FILES WILL BE USED
Info: RESTART FILENAME       mobley_6988468_prod.restart
Info: RESTART FREQUENCY      100000
Info: BINARY RESTART FILES WILL BE USED
Info: CUTOFF                 9
Info: PAIRLIST DISTANCE      11
Info: PAIRLIST SHRINK RATE   0.01
Info: PAIRLIST GROW RATE     0.01
Info: PAIRLIST TRIGGER       0.3
Info: PAIRLISTS PER CYCLE    2
Info: PAIRLISTS ENABLED
Info: MARGIN                 2
Info: HYDROGEN GROUP CUTOFF  2.5
Info: PATCH DIMENSION        15.5
Info: ENERGY OUTPUT STEPS    100000
Info: ENERGY EVALUATION STEPS    100000
Info: OUTPUT ENERGY PRECISION 4
Info: CROSSTERM ENERGY INCLUDED IN DIHEDRAL
Info: TIMING OUTPUT STEPS    1000000
Info: PRESSURE OUTPUT STEPS  100000
Info: ALCHEMICAL FEP ON
Info: FEP CURRENT LAMBDA VALUE     1
Info: FEP COMPARISON LAMBDA VALUE  0.95
Info: FEP INTRA-ALCHEMICAL NON-BONDED INTERACTIONS WILL BE RETAINED
Info: FEP INTRA-ALCHEMICAL BONDED INTERACTIONS WILL BE RETAINED
Info: FEP VDW SHIFTING COEFFICIENT 5
Info: FEP ELEC. ACTIVE FOR ANNIHILATED PARTICLES BETWEEN LAMBDA = 0 AND LAMBDA = 0.5
Info: FEP ELEC. ACTIVE FOR EXNIHILATED PARTICLES BETWEEN LAMBDA = 0.5 AND LAMBDA = 1
Info: FEP VDW ACTIVE FOR ANNIHILATED PARTICLES BETWEEN LAMBDA = 0 AND LAMBDA = 1
Info: FEP VDW ACTIVE FOR EXNIHILATED PARTICLES BETWEEN LAMBDA = 0 AND LAMBDA = 1
Info: FEP BOND ACTIVE FOR ANNIHILATED PARTICLES BETWEEN LAMBDA = 1 AND LAMBDA = 1
Info: FEP BOND ACTIVE FOR EXNIHILATED PARTICLES BETWEEN LAMBDA = 0 AND LAMBDA = 0
Info: LANGEVIN DYNAMICS ACTIVE
Info: LANGEVIN TEMPERATURE   300
Info: LANGEVIN USING BBK INTEGRATOR
Info: LANGEVIN DAMPING COEFFICIENT IS 1 INVERSE PS
Info: LANGEVIN DYNAMICS APPLIED TO HYDROGENS
Info: LANGEVIN PISTON PRESSURE CONTROL ACTIVE
Info:        TARGET PRESSURE IS 1.01325 BAR
Info:     OSCILLATION PERIOD IS 50 FS
Info:             DECAY TIME IS 25 FS
Info:     PISTON TEMPERATURE IS 300 K
Info:       PRESSURE CONTROL IS GROUP-BASED
Info:    INITIAL STRAIN RATE IS -0.000306128 -0.000306128 -0.000306128
Info:       CELL FLUCTUATION IS ISOTROPIC
Info: PARTICLE MESH EWALD (PME) ACTIVE
Info: PME TOLERANCE               1e-06
Info: PME EWALD COEFFICIENT       0.348832
Info: PME INTERPOLATION ORDER     4
Info: PME GRID DIMENSIONS         32 32 36
Info: PME MAXIMUM GRID SPACING    1
Info: PME CALCULATION WILL BE PERFORMED ON GPU
Info: FULL ELECTROSTATIC EVALUATION FREQUENCY      2
Info: USING VERLET I (r-RESPA) MTS SCHEME.
Info: C1 SPLITTING OF LONG RANGE ELECTROSTATICS
Info: PLACING ATOMS IN PATCHES BY HYDROGEN GROUPS
Info: RIGID BONDS TO HYDROGEN : ALL
Info:         ERROR TOLERANCE : 1e-08
Info:          MAX ITERATIONS : 100
Info: RIGID WATER USING SETTLE ALGORITHM
Info: RANDOM NUMBER SEED     1743770701
Info: USE HYDROGEN BONDS?    NO
Info: Using AMBER format force field!
Info: AMBER PARM FILE        mobley_6988468.prmtop
Info: COORDINATE PDB         mobley_6988468.pdb
Info: Exclusions will be read from PARM file!
Info: SCNB (VDW SCALING)     2
Info: USING ARITHMETIC MEAN TO COMBINE L-J SIGMA PARAMETERS
Info: BINARY COORDINATES     mobley_6988468_equil.coor
Info: SUMMARY OF PARAMETERS:
Info: 9 BONDS
Info: 12 ANGLES
Info:   12 HARMONIC
Info:   0 COSINE-BASED
Info: 6 DIHEDRAL
Info: 0 IMPROPER
Info: 0 CROSSTERM
Info: 0 VDW
Info: 36 VDW_PAIRS
Info: 0 NBTHOLE_PAIRS
Info: To read alchdata from file: mobley_6988468.pdb
Info: To read alchflag data from column: 5
Info: STRUCTURE SUMMARY:
Info: 2963 ATOMS
Info: 2963 BONDS
Info: 28 ANGLES
Info: 40 DIHEDRALS
Info: 0 IMPROPERS
Info: 0 CROSSTERMS
Info: 3023 EXCLUSIONS
Info: 2955 RIGID BONDS
Info: ALCH: 0 ATOMS TO DISAPPEAR IN FINAL STATE
Info: ALCH: 17 ATOMS TO APPEAR IN FINAL STATE
Info: 5934 DEGREES OF FREEDOM
Info: 990 HYDROGEN GROUPS
Info: 4 ATOMS IN LARGEST HYDROGEN GROUP
Info: 990 MIGRATION GROUPS
Info: 4 ATOMS IN LARGEST MIGRATION GROUP
Info: TOTAL MASS = 17798.9 amu
Info: TOTAL CHARGE = 0.000199962 e
Info: MASS DENSITY = 0.976993 g/cm^3
Info: ATOM DENSITY = 0.0979426 atoms/A^3
Info: ADDED 0 IMPLICIT EXCLUSIONS
Info: NONBONDED TABLE R-SQUARED SPACING: 0.0625
Info: NONBONDED TABLE SIZE: 705 POINTS
Info: REMOVING COM VELOCITY 0.190582 0.0673476 0.0508951
Info: Use 3D box decompostion in PME FFT.
Info: Updated CUDA force table with 4096 elements.
Info: Updated CUDA LJ table with 8 x 8 elements.
Info: Found 16 unique exclusion lists needing 40 bytes
TCL: Running for 1500000 steps
ETITLE: TS BOND ANGLE DIHED IMPRP ELECT VDW BOUNDARY MISC KINETIC TOTAL TEMP POTENTIAL TOTALAVG TEMPAVG PRESSURE GPRESSURE VOLUME PRESSAVG GPRESSAVG
ENERGY: 0 0.4289 4.7454 2.3549 0.0000 -10742.0862 1418.4393 0.0000 0.0000 1809.7295 -7506.3882 306.9421 -9316.1177 -7506.3882 306.9421 86.7483 179.6685 30252.4161 86.7483 179.6685
ENERGY: 300000 1.0769 3.2129 0.5347 0.0000 -10721.4119 1400.8708 0.0000 0.0000 1768.0062 -7547.7103 299.8656 -9315.7166 -7513.6241 303.2604 -407.3291 -309.1265 30564.3778 -49.8630 42.5357
ENERGY: 600000 1.9837 4.7688 1.3616 0.0000 -10923.6622 1546.9717 0.0000 0.0000 1721.8192 -7646.7572 292.0320 -9368.5764 -7540.8902 300.4080 689.5469 794.9170 30299.8061 248.6388 326.5893
ENERGY: 900000 3.8878 7.8723 2.0835 0.0000 -10781.8051 1405.0621 0.0000 0.0000 1782.4791 -7580.4203 302.3203 -9362.8994 -7530.2774 300.8630 -933.9824 -872.4069 31127.3945 115.4721 190.6703
ENERGY: 1200000 2.9353 9.9740 3.6752 0.0000 -10706.0949 1444.8832 0.0000 0.0000 1766.2746 -7478.3525 299.5719 -9244.6272 -7520.0232 301.6880 458.3482 520.9175 30133.5539 109.2832 181.3428
ENERGY: 1500000 3.0717 6.1040 2.0697 0.0000 -10901.7941 1487.5362 0.0000 0.0000 1753.9058 -7649.1067 297.4741 -9403.0125 -7527.5369 300.6691 265.2718 362.6060 29807.0025 73.7590 145.7779
TCL: Running FEP window   2: Lambda1 0.95   Lambda2 0.8999999999999999 [dLambda -0.050000000000000044]
TCL: Setting parameter firsttimestep to 0
TCL: Setting parameter alchLambda to 0.95
Info: NONBONDED TABLE R-SQUARED SPACING: 0.0625
Info: NONBONDED TABLE SIZE: 705 POINTS
TCL: Setting parameter alchLambda2 to 0.8999999999999999
Info: NONBONDED TABLE R-SQUARED SPACING: 0.0625
Info: NONBONDED TABLE SIZE: 705 POINTS
TCL: Running for 1500000 steps
ETITLE: TS BOND ANGLE DIHED IMPRP ELECT VDW BOUNDARY MISC KINETIC TOTAL TEMP POTENTIAL TOTALAVG TEMPAVG PRESSURE GPRESSURE VOLUME PRESSAVG GPRESSAVG
ENERGY: 0 3.0717 6.1040 2.0697 0.0000 -10900.3340 1487.1063 0.0000 0.0000 1753.0331 -7648.9493 297.3260 -9401.9824 -7648.9493 297.3260 258.8856 344.8037 29807.0025 258.8856 344.8037
ENERGY: 300000 2.4612 6.8078 1.4939 0.0000 -10743.4783 1444.8444 0.0000 0.0000 1709.4936 -7578.3774 289.9415 -9287.8710 -7600.2637 295.1082 -264.4886 -221.9013 30812.8512 264.4198 323.0474
ENERGY: 600000 5.1070 5.5668 3.6065 0.0000 -10732.7100 1430.1344 0.0000 0.0000 1763.8126 -7524.4826 299.1543 -9288.2952 -7567.0195 298.1291 69.5000 116.2488 30229.5956 204.8997 265.6689
ENERGY: 900000 2.7193 4.2603 2.3668 0.0000 -10866.6211 1488.0684 0.0000 0.0000 1803.4864 -7565.7198 305.8833 -9369.2062 -7558.8813 299.7462 -169.9256 -91.1662 30963.2384 103.6191 172.9364
ENERGY: 1200000 1.9833 5.0578 2.2412 0.0000 -10744.2645 1410.1553 0.0000 0.0000 1755.3347 -7569.4922 297.7164 -9324.8269 -7547.4237 301.1107 -285.7192 -255.3792 30556.2593 77.8412 141.8148
ENERGY: 1500000 3.8208 3.8007 1.9239 0.0000 -10919.6110 1567.2045 0.0000 0.0000 1742.8708 -7599.9902 295.6025 -9342.8610 -7548.2061 300.4424 667.0896 681.8305 30460.9622 28.9749 94.5595
TCL: Running FEP window   3: Lambda1 0.8999999999999999 Lambda2 0.8499999999999999 [dLambda -0.050000000000000044]
TCL: Setting parameter firsttimestep to 0
TCL: Setting parameter alchLambda to 0.8999999999999999
Info: NONBONDED TABLE R-SQUARED SPACING: 0.0625
Info: NONBONDED TABLE SIZE: 705 POINTS
TCL: Setting parameter alchLambda2 to 0.8499999999999999
Info: NONBONDED TABLE R-SQUARED SPACING: 0.0625
Info: NONBONDED TABLE SIZE: 705 POINTS
TCL: Running for 1500000 steps
ETITLE: TS BOND ANGLE DIHED IMPRP ELECT VDW BOUNDARY MISC KINETIC TOTAL TEMP POTENTIAL TOTALAVG TEMPAVG PRESSURE GPRESSURE VOLUME PRESSAVG GPRESSAVG
ENERGY: 0 3.8208 3.8007 1.9240 0.0000 -10918.6796 1566.6905 0.0000 0.0000 1742.0033 -7600.4404 295.4553 -9342.4437 -7600.4404 295.4553 593.4151 663.6793 30460.9622 593.4151 663.6793
ENERGY: 300000 1.7291 4.8407 3.0604 0.0000 -10598.1820 1423.3680 0.0000 0.0000 1818.1373 -7347.0465 308.3682 -9165.1838 -7479.3374 303.9293 23.6721 65.7111 31108.5174 83.4415 138.1660
ENERGY: 600000 0.8998 7.4645 3.7042 0.0000 -10716.3411 1411.4166 0.0000 0.0000 1766.2458 -7526.6102 299.5670 -9292.8559 -7513.0878 301.4268 -496.6290 -430.5268 30906.5662 67.9282 132.8089
ENERGY: 900000 0.8922 2.5079 1.7385 0.0000 -10820.7787 1453.8307 0.0000 0.0000 1763.7316 -7598.0779 299.1406 -9361.8094 -7513.1300 301.2796 -101.1007 -101.0293 30571.4556 111.7653 181.2838
ENERGY: 1200000 0.7033 5.9100 1.7709 0.0000 -10840.5072 1441.1418 0.0000 0.0000 1789.9751 -7601.0061 303.5917 -9390.9812 -7530.5050 301.0436 53.3592 125.5644 30151.3559 151.9013 224.2727
ENERGY: 1500000 3.5759 9.0101 2.2892 0.0000 -10743.3421 1403.2686 0.0000 0.0000 1717.8603 -7607.3378 291.3605 -9325.1982 -7535.1685 300.1326 -690.5540 -656.1410 30616.6215 15.0083 80.9828
TCL: Running FEP window   4: Lambda1 0.8499999999999999 Lambda2 0.7999999999999998 [dLambda -0.050000000000000044]
TCL: Setting parameter firsttimestep to 0
TCL: Setting parameter alchLambda to 0.8499999999999999
Info: NONBONDED TABLE R-SQUARED SPACING: 0.0625
Info: NONBONDED TABLE SIZE: 705 POINTS
TCL: Setting parameter alchLambda2 to 0.7999999999999998
Info: NONBONDED TABLE R-SQUARED SPACING: 0.0625
Info: NONBONDED TABLE SIZE: 705 POINTS
TCL: Running for 1500000 steps
ETITLE: TS BOND ANGLE DIHED IMPRP ELECT VDW BOUNDARY MISC KINETIC TOTAL TEMP POTENTIAL TOTALAVG TEMPAVG PRESSURE GPRESSURE VOLUME PRESSAVG GPRESSAVG
ENERGY: 0 3.5759 9.0102 2.2892 0.0000 -10741.9139 1402.1637 0.0000 0.0000 1716.9653 -7607.9096 291.2087 -9324.8749 -7607.9096 291.2087 -759.6424 -676.9489 30616.6215 -759.6424 -676.9489
ENERGY: 300000 1.0981 5.1403 4.2096 0.0000 -10704.0762 1485.2319 0.0000 0.0000 1724.8356 -7483.5606 292.5436 -9208.3963 -7518.6671 297.1236 520.9236 587.1080 30318.1609 -64.7506 -11.1466
ENERGY: 600000 5.4594 6.6272 2.6249 0.0000 -10995.9491 1576.9937 0.0000 0.0000 1808.5304 -7595.7135 306.7388 -9404.2439 -7525.5916 300.4912 1071.1541 1106.5080 29675.5682 78.7107 134.7773
ENERGY: 900000 4.0039 10.1328 1.5965 0.0000 -10721.4008 1426.4052 0.0000 0.0000 1750.2180 -7529.0444 296.8486 -9279.2624 -7525.8286 300.0952 58.6870 114.4298 30493.5861 45.6832 101.8543
ENERGY: 1200000 2.6093 7.5992 6.2232 0.0000 -10866.2490 1506.7610 0.0000 0.0000 1824.4850 -7518.5712 309.4448 -9343.0562 -7531.0051 300.6030 500.9688 582.5110 30456.8664 80.0270 131.3496
ENERGY: 1500000 4.9482 4.7251 1.9906 0.0000 -10626.9218 1406.4494 0.0000 0.0000 1742.5935 -7466.2150 295.5554 -9208.8085 -7538.5544 299.6050 -28.8930 -0.4652 30442.5491 94.1623 142.8954
TCL: Running FEP window   5: Lambda1 0.7999999999999998 Lambda2 0.7499999999999998 [dLambda -0.050000000000000044]
TCL: Setting parameter firsttimestep to 0
TCL: Setting parameter alchLambda to 0.7999999999999998
Info: NONBONDED TABLE R-SQUARED SPACING: 0.0625
Info: NONBONDED TABLE SIZE: 705 POINTS
TCL: Setting parameter alchLambda2 to 0.7499999999999998
Info: NONBONDED TABLE R-SQUARED SPACING: 0.0625
Info: NONBONDED TABLE SIZE: 705 POINTS
TCL: Running for 1500000 steps
ETITLE: TS BOND ANGLE DIHED IMPRP ELECT VDW BOUNDARY MISC KINETIC TOTAL TEMP POTENTIAL TOTALAVG TEMPAVG PRESSURE GPRESSURE VOLUME PRESSAVG GPRESSAVG
ENERGY: 0 4.9482 4.7251 1.9906 0.0000 -10626.0434 1406.7444 0.0000 0.0000 1741.7156 -7465.9195 295.4065 -9207.6351 -7465.9195 295.4065 -91.6731 -11.0047 30442.5491 -91.6731 -11.0047
ENERGY: 300000 2.0954 6.2845 4.7260 0.0000 -10555.6385 1306.5248 0.0000 0.0000 1734.9208 -7501.0870 294.2541 -9236.0077 -7513.8244 294.8041 -933.6101 -897.3812 30895.4114 27.4369 80.4718
ENERGY: 600000 2.8352 6.6475 3.2191 0.0000 -10818.8639 1502.9681 0.0000 0.0000 1781.8891 -7521.3048 302.2202 -9303.1940 -7525.7925 297.3880 292.8115 321.3897 30842.5048 -131.2224 -76.9088
ENERGY: 900000 2.5594 5.0796 1.5453 0.0000 -10727.3666 1379.7242 0.0000 0.0000 1762.0016 -7576.4564 298.8472 -9338.4580 -7531.4960 299.0478 -471.3497 -438.0801 30462.9449 -212.0436 -159.3256
ENERGY: 1200000 2.1655 5.9452 3.9668 0.0000 -10698.7934 1442.1135 0.0000 0.0000 1785.1494 -7459.4528 302.7732 -9244.6023 -7523.6020 299.6500 177.2415 184.4712 30469.3106 -238.6372 -192.5016
ENERGY: 1500000 1.4179 6.4250 2.7464 0.0000 -10763.8630 1500.3992 0.0000 0.0000 1748.9011 -7503.9734 296.6252 -9252.8745 -7532.2789 299.5585 743.6461 763.1773 30211.1986 -174.6761 -131.5389
TCL: Running FEP window   6: Lambda1 0.7499999999999998 Lambda2 0.6999999999999997 [dLambda -0.050000000000000044]
TCL: Setting parameter firsttimestep to 0
TCL: Setting parameter alchLambda to 0.7499999999999998
Info: NONBONDED TABLE R-SQUARED SPACING: 0.0625
Info: NONBONDED TABLE SIZE: 705 POINTS
TCL: Setting parameter alchLambda2 to 0.6999999999999997
Info: NONBONDED TABLE R-SQUARED SPACING: 0.0625
Info: NONBONDED TABLE SIZE: 705 POINTS
TCL: Running for 1500000 steps
ETITLE: TS BOND ANGLE DIHED IMPRP ELECT VDW BOUNDARY MISC KINETIC TOTAL TEMP POTENTIAL TOTALAVG TEMPAVG PRESSURE GPRESSURE VOLUME PRESSAVG GPRESSAVG
ENERGY: 0 1.4179 6.4250 2.7464 0.0000 -10762.4156 1499.4158 0.0000 0.0000 1748.0072 -7504.4033 296.4736 -9252.4105 -7504.4033 296.4736 654.8939 745.8492 30211.1986 654.8939 745.8492
ENERGY: 300000 0.9130 3.7549 2.4314 0.0000 -10883.2836 1543.1206 0.0000 0.0000 1764.1833 -7568.8804 299.2172 -9333.0637 -7572.0793 296.4157 590.9532 673.1246 30517.0186 244.1030 325.5488
ENERGY: 600000 1.6029 7.8213 3.6347 0.0000 -10664.5569 1463.9120 0.0000 0.0000 1778.6008 -7408.9852 301.6625 -9187.5860 -7555.6512 296.5339 333.3869 356.6231 30666.2080 43.5832 123.8967
ENERGY: 900000 2.1308 1.8846 2.3682 0.0000 -10836.7556 1458.6527 0.0000 0.0000 1801.5174 -7570.2019 305.5493 -9371.7193 -7549.3366 298.4170 54.8673 74.4639 30259.1796 0.2815 65.8568
ENERGY: 1200000 2.0086 3.1995 2.3826 0.0000 -10723.5245 1405.4459 0.0000 0.0000 1765.3766 -7545.1114 299.4196 -9310.4880 -7549.5765 298.9042 -239.0573 -187.5156 30363.3632 -26.0856 37.5576
ENERGY: 1500000 4.1763 4.1861 1.5955 0.0000 -10803.9849 1512.5939 0.0000 0.0000 1773.6302 -7507.8029 300.8195 -9281.4331 -7542.3532 298.9645 260.1921 293.9972 30914.1723 -22.8424 38.5800
TCL: Running FEP window   7: Lambda1 0.6999999999999997 Lambda2 0.6499999999999997 [dLambda -0.050000000000000044]
TCL: Setting parameter firsttimestep to 0
TCL: Setting parameter alchLambda to 0.6999999999999997
Info: NONBONDED TABLE R-SQUARED SPACING: 0.0625
Info: NONBONDED TABLE SIZE: 705 POINTS
TCL: Setting parameter alchLambda2 to 0.6499999999999997
Info: NONBONDED TABLE R-SQUARED SPACING: 0.0625
Info: NONBONDED TABLE SIZE: 705 POINTS
TCL: Running for 1500000 steps
ETITLE: TS BOND ANGLE DIHED IMPRP ELECT VDW BOUNDARY MISC KINETIC TOTAL TEMP POTENTIAL TOTALAVG TEMPAVG PRESSURE GPRESSURE VOLUME PRESSAVG GPRESSAVG
ENERGY: 0 4.1763 4.1861 1.5955 0.0000 -10803.1858 1512.5701 0.0000 0.0000 1772.7737 -7507.8842 300.6742 -9280.6579 -7507.8842 300.6742 207.3949 287.8411 30914.1723 207.3949 287.8411
ENERGY: 300000 0.9952 5.3555 2.8170 0.0000 -10709.1193 1384.1723 0.0000 0.0000 1769.7142 -7546.0651 300.1553 -9315.7793 -7561.4424 297.7520 -256.2643 -188.7494 30387.8885 129.1418 214.0771
ENERGY: 600000 3.3329 5.2566 1.1837 0.0000 -10883.4633 1504.4856 0.0000 0.0000 1759.2467 -7609.9578 298.3799 -9369.2045 -7569.2409 297.9518 -18.0509 40.8185 30740.0154 -24.1092 45.3537
ENERGY: 900000 6.6766 3.4014 2.9224 0.0000 -10753.5799 1429.7383 0.0000 0.0000 1755.0704 -7555.7707 297.6716 -9310.8411 -7544.6569 298.0646 -350.0198 -259.8379 30552.5637 -74.1245 -6.5018
ENERGY: 1200000 3.7206 8.4413 2.4598 0.0000 -10776.5584 1456.3328 0.0000 0.0000 1792.9110 -7512.6930 304.0896 -9305.6040 -7535.5463 298.5550 208.0771 290.9677 30042.7591 -8.7810 61.9167
ENERGY: 1500000 1.2578 5.6814 5.4765 0.0000 -10752.2637 1471.3997 0.0000 0.0000 1809.6637 -7458.7845 306.9310 -9268.4482 -7525.4079 299.5865 469.4312 525.0263 30297.2757 -35.5910 38.3956
TCL: Running FEP window   8: Lambda1 0.6499999999999997 Lambda2 0.5999999999999996 [dLambda -0.050000000000000044]
TCL: Setting parameter firsttimestep to 0
TCL: Setting parameter alchLambda to 0.6499999999999997
Info: NONBONDED TABLE R-SQUARED SPACING: 0.0625
Info: NONBONDED TABLE SIZE: 705 POINTS
TCL: Setting parameter alchLambda2 to 0.5999999999999996
Info: NONBONDED TABLE R-SQUARED SPACING: 0.0625
Info: NONBONDED TABLE SIZE: 705 POINTS
TCL: Running for 1500000 steps
ETITLE: TS BOND ANGLE DIHED IMPRP ELECT VDW BOUNDARY MISC KINETIC TOTAL TEMP POTENTIAL TOTALAVG TEMPAVG PRESSURE GPRESSURE VOLUME PRESSAVG GPRESSAVG
ENERGY: 0 1.2577 5.6814 5.4765 0.0000 -10751.0217 1471.3014 0.0000 0.0000 1808.7535 -7458.5511 306.7766 -9267.3046 -7458.5511 306.7766 442.5512 519.5300 30297.2757 442.5512 519.5300
ENERGY: 300000 1.6229 4.1465 3.6960 0.0000 -10602.1326 1351.3897 0.0000 0.0000 1746.5757 -7494.7018 296.2308 -9241.2775 -7494.6089 300.9074 -422.7448 -344.3922 30264.6444 153.9372 222.7263
ENERGY: 600000 1.1755 3.1490 4.0520 0.0000 -10544.7976 1336.8709 0.0000 0.0000 1711.0048 -7488.5455 290.1978 -9199.5503 -7497.2997 299.2528 -642.4023 -604.7026 30774.7054 -26.4942 29.1740
ENERGY: 900000 2.2997 3.5212 3.0502 0.0000 -10683.1024 1373.7160 0.0000 0.0000 1749.0403 -7551.4749 296.6488 -9300.5153 -7502.0130 299.8511 -614.8881 -546.7650 30608.6188 -77.7167 -23.8363
ENERGY: 1200000 1.6808 6.2419 5.6232 0.0000 -10690.0600 1450.8403 0.0000 0.0000 1748.2702 -7477.4036 296.5182 -9225.6738 -7500.6614 300.2291 -226.6825 -126.7560 31267.5372 -104.5494 -46.6806
ENERGY: 1500000 2.3640 7.3378 1.9700 0.0000 -10864.9766 1470.1009 0.0000 0.0000 1762.8102 -7620.3936 298.9843 -9383.2039 -7511.8811 299.9570 128.3775 160.1260 29945.8769 -134.2078 -75.4283
TCL: Running FEP window   9: Lambda1 0.5999999999999996 Lambda2 0.5499999999999996 [dLambda -0.050000000000000044]
TCL: Setting parameter firsttimestep to 0
TCL: Setting parameter alchLambda to 0.5999999999999996
Info: NONBONDED TABLE R-SQUARED SPACING: 0.0625
Info: NONBONDED TABLE SIZE: 705 POINTS
TCL: Setting parameter alchLambda2 to 0.5499999999999996
Info: NONBONDED TABLE R-SQUARED SPACING: 0.0625
Info: NONBONDED TABLE SIZE: 705 POINTS
TCL: Running for 1500000 steps
ETITLE: TS BOND ANGLE DIHED IMPRP ELECT VDW BOUNDARY MISC KINETIC TOTAL TEMP POTENTIAL TOTALAVG TEMPAVG PRESSURE GPRESSURE VOLUME PRESSAVG GPRESSAVG
ENERGY: 0 2.3640 7.3378 1.9700 0.0000 -10863.8658 1470.2511 0.0000 0.0000 1761.9157 -7620.0272 298.8326 -9381.9429 -7620.0272 298.8326 82.0999 157.3001 29945.8769 82.0999 157.3001
ENERGY: 300000 1.9444 5.1476 5.2490 0.0000 -10717.2939 1472.5696 0.0000 0.0000 1710.4970 -7521.8864 290.1116 -9232.3834 -7561.8715 295.9718 208.2131 348.4799 30700.7215 -92.9581 -1.2563
ENERGY: 600000 1.8861 6.9188 1.7135 0.0000 -10792.7093 1428.5040 0.0000 0.0000 1699.7176 -7653.9694 288.2834 -9353.6870 -7559.6270 296.2052 -418.0835 -315.4054 30414.6712 -131.2120 -63.4329
ENERGY: 900000 2.5080 6.3097 1.8605 0.0000 -10796.0944 1427.3514 0.0000 0.0000 1802.5327 -7555.5321 305.7215 -9358.0648 -7558.2914 298.2017 -509.4830 -452.0937 30932.8098 12.0806 77.7641
ENERGY: 1200000 3.3909 8.2210 4.0511 0.0000 -10595.5121 1343.0266 0.0000 0.0000 1803.8121 -7433.0105 305.9385 -9236.8226 -7554.1467 299.5799 -934.8638 -878.7475 31133.1616 -61.7577 4.1215
ENERGY: 1500000 2.2604 6.4810 3.5537 0.0000 -10860.9884 1513.4202 0.0000 0.0000 1727.1369 -7608.1362 292.9339 -9335.2731 -7558.1861 298.6899 270.2724 292.8452 30574.4599 -42.7539 20.3084
TCL: Running FEP window  10: Lambda1 0.5499999999999996 Lambda2 0.4999999999999996 [dLambda -0.04999999999999999]
TCL: Setting parameter firsttimestep to 0
TCL: Setting parameter alchLambda to 0.5499999999999996
Info: NONBONDED TABLE R-SQUARED SPACING: 0.0625
Info: NONBONDED TABLE SIZE: 705 POINTS
TCL: Setting parameter alchLambda2 to 0.4999999999999996
Info: NONBONDED TABLE R-SQUARED SPACING: 0.0625
Info: NONBONDED TABLE SIZE: 705 POINTS
TCL: Running for 1500000 steps
ETITLE: TS BOND ANGLE DIHED IMPRP ELECT VDW BOUNDARY MISC KINETIC TOTAL TEMP POTENTIAL TOTALAVG TEMPAVG PRESSURE GPRESSURE VOLUME PRESSAVG GPRESSAVG
ENERGY: 0 2.2604 6.4810 3.5537 0.0000 -10860.4486 1513.9282 0.0000 0.0000 1726.2712 -7607.9540 292.7871 -9334.2252 -7607.9540 292.7871 213.7416 289.4380 30574.4599 213.7416 289.4380
ENERGY: 300000 2.8393 10.4788 2.0732 0.0000 -10827.9869 1575.7221 0.0000 0.0000 1770.8843 -7465.9893 300.3537 -9236.8736 -7543.9274 296.2974 953.7524 978.5090 30986.1123 448.3877 510.1990
ENERGY: 600000 1.9928 3.1870 1.5551 0.0000 -10758.5183 1477.8689 0.0000 0.0000 1739.4656 -7534.4490 295.0249 -9273.9145 -7557.7066 297.2894 312.1388 343.5539 30622.5543 230.0080 284.4699
ENERGY: 900000 3.2808 6.0831 0.9212 0.0000 -10686.4416 1388.4837 0.0000 0.0000 1782.0322 -7505.6406 302.2445 -9287.6728 -7557.4866 298.4761 -658.3890 -579.1715 30560.8380 196.4677 258.9893
ENERGY: 1200000 1.9436 5.7642 4.4024 0.0000 -10763.0507 1396.7187 0.0000 0.0000 1737.3291 -7616.8928 294.6625 -9354.2218 -7556.2230 298.5029 -649.8549 -565.7591 30305.4940 99.5868 165.7873
ENERGY: 1500000 0.5950 4.9523 1.8240 0.0000 -10826.1423 1538.4907 0.0000 0.0000 1751.3457 -7528.9346 297.0399 -9280.2803 -7556.5764 297.8576 739.6247 761.1789 30611.6232 141.9988 203.3844
TCL: Running FEP window  11: Lambda1 0.4999999999999996 Lambda2 0.4499999999999996 [dLambda -0.04999999999999999]
TCL: Setting parameter firsttimestep to 0
TCL: Setting parameter alchLambda to 0.4999999999999996
Info: NONBONDED TABLE R-SQUARED SPACING: 0.0625
Info: NONBONDED TABLE SIZE: 705 POINTS
TCL: Setting parameter alchLambda2 to 0.4499999999999996
Info: NONBONDED TABLE R-SQUARED SPACING: 0.0625
Info: NONBONDED TABLE SIZE: 705 POINTS
TCL: Running for 1500000 steps
ETITLE: TS BOND ANGLE DIHED IMPRP ELECT VDW BOUNDARY MISC KINETIC TOTAL TEMP POTENTIAL TOTALAVG TEMPAVG PRESSURE GPRESSURE VOLUME PRESSAVG GPRESSAVG
ENERGY: 0 0.5950 4.9523 1.8240 0.0000 -10826.1132 1538.6822 0.0000 0.0000 1750.4681 -7529.5915 296.8910 -9280.0597 -7529.5915 296.8910 686.7106 754.8880 30611.6232 686.7106 754.8880
ENERGY: 300000 1.6017 3.7432 1.7125 0.0000 -10659.0525 1436.9633 0.0000 0.0000 1825.4201 -7389.6116 309.6034 -9215.0317 -7477.8735 302.1714 51.7239 62.7543 30638.0216 246.6314 293.1146
ENERGY: 600000 3.0156 6.0860 2.9826 0.0000 -10744.4402 1424.4590 0.0000 0.0000 1770.3041 -7537.5929 300.2553 -9307.8970 -7485.3876 302.9338 -177.5341 -116.4837 30321.6304 32.3968 76.6985
ENERGY: 900000 4.3809 3.0071 2.2549 0.0000 -10773.3666 1456.9726 0.0000 0.0000 1775.3954 -7531.3556 301.1188 -9306.7510 -7490.1050 302.9106 -145.8678 -65.0804 30737.3672 9.5286 71.2371
ENERGY: 1200000 2.8795 8.1977 2.1506 0.0000 -10725.2353 1398.4819 0.0000 0.0000 1762.7897 -7550.7359 298.9808 -9313.5256 -7517.4770 301.5828 -302.7974 -281.9292 30259.7354 -0.4724 56.9073
ENERGY: 1500000 1.8020 8.9049 3.5365 0.0000 -10662.4429 1371.0459 0.0000 0.0000 1789.2290 -7487.9247 303.4651 -9277.1537 -7511.7572 301.2528 -412.3072 -326.4843 30459.2467 -46.6201 14.9099
TCL: Running FEP window  12: Lambda1 0.4499999999999996 Lambda2 0.39999999999999963 [dLambda -0.04999999999999999]
TCL: Setting parameter firsttimestep to 0
TCL: Setting parameter alchLambda to 0.4499999999999996
Info: NONBONDED TABLE R-SQUARED SPACING: 0.0625
Info: NONBONDED TABLE SIZE: 705 POINTS
TCL: Setting parameter alchLambda2 to 0.39999999999999963
Info: NONBONDED TABLE R-SQUARED SPACING: 0.0625
Info: NONBONDED TABLE SIZE: 705 POINTS
TCL: Running for 1500000 steps
ETITLE: TS BOND ANGLE DIHED IMPRP ELECT VDW BOUNDARY MISC KINETIC TOTAL TEMP POTENTIAL TOTALAVG TEMPAVG PRESSURE GPRESSURE VOLUME PRESSAVG GPRESSAVG
ENERGY: 0 1.8020 8.9049 3.5365 0.0000 -10662.4424 1371.1544 0.0000 0.0000 1788.3173 -7488.7273 303.3105 -9277.0446 -7488.7273 303.3105 -408.1158 -333.6300 30459.2467 -408.1158 -333.6300
ENERGY: 300000 2.2339 3.9424 1.3666 0.0000 -10718.1527 1451.5155 0.0000 0.0000 1729.6185 -7529.4758 293.3548 -9259.0943 -7522.2691 299.6088 277.4530 324.0827 30257.2940 -162.8114 -99.1632
ENERGY: 600000 1.1029 9.3065 2.3201 0.0000 -10850.8602 1527.4572 0.0000 0.0000 1741.5370 -7569.1366 295.3762 -9310.6736 -7513.2637 300.4666 742.8654 744.2002 30406.1846 74.8908 133.1636
ENERGY: 900000 1.0579 4.7047 1.3122 0.0000 -10732.2634 1428.4902 0.0000 0.0000 1796.4438 -7500.2546 304.6888 -9296.6984 -7502.0845 300.7018 -310.9728 -216.3816 30699.2978 -48.9347 8.7403
ENERGY: 1200000 0.7801 5.3197 4.1164 0.0000 -10839.7111 1475.8374 0.0000 0.0000 1738.3350 -7615.3226 294.8331 -9353.6575 -7510.8263 300.4122 217.1541 335.6825 29956.0153 -30.2739 27.0019
ENERGY: 1500000 2.1721 5.0526 0.7581 0.0000 -10857.1723 1529.1555 0.0000 0.0000 1759.7367 -7560.2972 298.4630 -9320.0339 -7518.0274 299.9939 291.6138 366.2794 30774.9846 20.4042 77.8469
TCL: Running FEP window  13: Lambda1 0.39999999999999963 Lambda2 0.34999999999999964 [dLambda -0.04999999999999999]
TCL: Setting parameter firsttimestep to 0
TCL: Setting parameter alchLambda to 0.39999999999999963
Info: NONBONDED TABLE R-SQUARED SPACING: 0.0625
Info: NONBONDED TABLE SIZE: 705 POINTS
TCL: Setting parameter alchLambda2 to 0.34999999999999964
Info: NONBONDED TABLE R-SQUARED SPACING: 0.0625
Info: NONBONDED TABLE SIZE: 705 POINTS
TCL: Running for 1500000 steps
ETITLE: TS BOND ANGLE DIHED IMPRP ELECT VDW BOUNDARY MISC KINETIC TOTAL TEMP POTENTIAL TOTALAVG TEMPAVG PRESSURE GPRESSURE VOLUME PRESSAVG GPRESSAVG
ENERGY: 0 2.1721 5.0526 0.7581 0.0000 -10857.1719 1529.8074 0.0000 0.0000 1758.8605 -7560.5212 298.3144 -9319.3818 -7560.5212 298.3144 284.1239 367.7271 30774.9846 284.1239 367.7271
ENERGY: 300000 3.0125 6.7413 3.3181 0.0000 -10831.7914 1440.3266 0.0000 0.0000 1678.0891 -7700.3038 284.6150 -9378.3928 -7584.0164 295.6189 -198.8675 -240.1985 30295.2672 -322.7743 -265.7350
ENERGY: 600000 2.3904 4.8673 1.7504 0.0000 -10858.9844 1516.6698 0.0000 0.0000 1773.5751 -7559.7314 300.8101 -9333.3064 -7577.1124 296.9186 567.8269 635.9934 30207.7392 -149.9734 -87.1913
ENERGY: 900000 1.8924 4.4543 1.8202 0.0000 -10734.5756 1428.8848 0.0000 0.0000 1820.2911 -7477.2329 308.7335 -9297.5240 -7571.2197 297.0094 -87.7514 -69.0280 30459.4931 -151.4468 -89.9534
ENERGY: 1200000 0.9678 5.1363 2.1730 0.0000 -10614.4753 1347.3529 0.0000 0.0000 1810.3000 -7448.5452 307.0389 -9258.8452 -7549.7242 298.7669 -732.6358 -606.0550 30682.8805 -59.9453 4.6278
ENERGY: 1500000 2.1280 6.4796 7.0946 0.0000 -10690.5809 1387.9920 0.0000 0.0000 1735.6907 -7551.1960 294.3847 -9286.8867 -7547.2279 298.5029 -299.8620 -276.1188 30473.5965 -37.7708 23.9527
TCL: Running FEP window  14: Lambda1 0.34999999999999964 Lambda2 0.29999999999999966 [dLambda -0.04999999999999999]
TCL: Setting parameter firsttimestep to 0
TCL: Setting parameter alchLambda to 0.34999999999999964
Info: NONBONDED TABLE R-SQUARED SPACING: 0.0625
Info: NONBONDED TABLE SIZE: 705 POINTS
TCL: Setting parameter alchLambda2 to 0.29999999999999966
Info: NONBONDED TABLE R-SQUARED SPACING: 0.0625
Info: NONBONDED TABLE SIZE: 705 POINTS
TCL: Running for 1500000 steps
ETITLE: TS BOND ANGLE DIHED IMPRP ELECT VDW BOUNDARY MISC KINETIC TOTAL TEMP POTENTIAL TOTALAVG TEMPAVG PRESSURE GPRESSURE VOLUME PRESSAVG GPRESSAVG
ENERGY: 0 2.1280 6.4796 7.0946 0.0000 -10690.5814 1388.2663 0.0000 0.0000 1734.8503 -7551.7627 294.2421 -9286.6129 -7551.7627 294.2421 -355.0702 -279.4299 30473.5965 -355.0702 -279.4299
ENERGY: 300000 3.0338 7.0331 2.7390 0.0000 -10972.9271 1559.0043 0.0000 0.0000 1788.1392 -7612.9778 303.2803 -9401.1169 -7552.5473 303.4063 461.7507 511.5907 30294.4173 -119.4443 -33.7913
ENERGY: 600000 3.5794 2.6190 2.5382 0.0000 -10668.3321 1392.0495 0.0000 0.0000 1852.6271 -7414.9190 314.2178 -9267.5461 -7532.3541 304.1972 -462.5578 -451.7413 30967.5920 -288.5622 -219.5545
ENERGY: 900000 0.4262 7.3503 1.6899 0.0000 -10870.8037 1550.0758 0.0000 0.0000 1791.2235 -7520.0380 303.8034 -9311.2615 -7534.6769 303.4043 760.3504 797.1170 30328.5339 -12.3851 48.7090
ENERGY: 1200000 1.2588 4.3977 0.9759 0.0000 -10692.7960 1439.4595 0.0000 0.0000 1771.3653 -7475.3388 300.4353 -9246.7041 -7520.7857 303.3238 224.4662 264.1071 30477.6305 55.3296 114.5899
ENERGY: 1500000 2.1056 7.1403 2.3244 0.0000 -10856.7169 1534.7279 0.0000 0.0000 1824.1704 -7486.2482 309.3914 -9310.4186 -7522.9293 302.9147 871.9986 936.6136 29994.1420 5.3244 65.8755
TCL: Running FEP window  15: Lambda1 0.29999999999999966 Lambda2 0.24999999999999967 [dLambda -0.04999999999999999]
TCL: Setting parameter firsttimestep to 0
TCL: Setting parameter alchLambda to 0.29999999999999966
Info: NONBONDED TABLE R-SQUARED SPACING: 0.0625
Info: NONBONDED TABLE SIZE: 705 POINTS
TCL: Setting parameter alchLambda2 to 0.24999999999999967
Info: NONBONDED TABLE R-SQUARED SPACING: 0.0625
Info: NONBONDED TABLE SIZE: 705 POINTS
TCL: Running for 1500000 steps
ETITLE: TS BOND ANGLE DIHED IMPRP ELECT VDW BOUNDARY MISC KINETIC TOTAL TEMP POTENTIAL TOTALAVG TEMPAVG PRESSURE GPRESSURE VOLUME PRESSAVG GPRESSAVG
ENERGY: 0 2.1056 7.1403 2.3244 0.0000 -10856.7188 1534.7623 0.0000 0.0000 1823.2682 -7487.1179 309.2384 -9310.3861 -7487.1179 309.2384 832.8737 930.8885 29994.1420 832.8737 930.8885
ENERGY: 300000 4.3975 7.2240 4.8763 0.0000 -10631.3867 1360.9789 0.0000 0.0000 1741.9824 -7511.9276 295.4518 -9253.9100 -7505.2440 300.8487 -452.2758 -415.9249 30510.9312 165.1817 232.3143
ENERGY: 600000 2.4871 7.5763 1.6653 0.0000 -10692.3955 1408.1898 0.0000 0.0000 1778.8083 -7493.6687 301.6977 -9272.4770 -7501.4455 301.4734 -485.4887 -408.9644 30587.4272 -117.1956 -59.6221
ENERGY: 900000 2.9700 5.2992 1.9667 0.0000 -10728.6849 1459.5874 0.0000 0.0000 1746.6442 -7512.2173 296.2425 -9258.8616 -7495.2545 301.6349 199.6921 233.7515 30502.3094 -11.8216 41.8181
ENERGY: 1200000 4.6372 3.9199 1.9901 0.0000 -10721.1384 1414.7048 0.0000 0.0000 1829.7151 -7466.1712 310.3318 -9295.8863 -7500.0856 301.6578 -126.2392 -59.9766 30150.1950 -0.4173 57.3225
ENERGY: 1500000 3.4053 3.7571 5.1838 0.0000 -10832.3573 1485.2777 0.0000 0.0000 1797.2524 -7537.4809 304.8259 -9334.7333 -7503.3371 302.0604 390.0968 488.4415 29997.0389 -60.5315 -1.6473
TCL: Running FEP window  16: Lambda1 0.24999999999999967 Lambda2 0.19999999999999968 [dLambda -0.04999999999999999]
TCL: Setting parameter firsttimestep to 0
TCL: Setting parameter alchLambda to 0.24999999999999967
Info: NONBONDED TABLE R-SQUARED SPACING: 0.0625
Info: NONBONDED TABLE SIZE: 705 POINTS
TCL: Setting parameter alchLambda2 to 0.19999999999999968
Info: NONBONDED TABLE R-SQUARED SPACING: 0.0625
Info: NONBONDED TABLE SIZE: 705 POINTS
TCL: Running for 1500000 steps
ETITLE: TS BOND ANGLE DIHED IMPRP ELECT VDW BOUNDARY MISC KINETIC TOTAL TEMP POTENTIAL TOTALAVG TEMPAVG PRESSURE GPRESSURE VOLUME PRESSAVG GPRESSAVG
ENERGY: 0 3.4053 3.7571 5.1838 0.0000 -10832.3564 1485.6470 0.0000 0.0000 1796.3637 -7537.9996 304.6752 -9334.3632 -7537.9996 304.6752 409.7347 487.8699 29997.0389 409.7347 487.8699
ENERGY: 300000 2.9667 4.0426 4.1377 0.0000 -10662.6313 1344.2285 0.0000 0.0000 1774.3074 -7532.9485 300.9343 -9307.2559 -7559.0550 300.4610 -1070.3447 -978.8943 31036.7939 -456.5077 -384.8586
ENERGY: 600000 1.8974 7.1126 2.9101 0.0000 -10752.4480 1463.8551 0.0000 0.0000 1742.0295 -7534.6433 295.4598 -9276.6728 -7536.9996 300.9786 96.0254 162.2155 30418.6157 -297.4324 -244.2295
ENERGY: 900000 3.6527 3.8095 2.5700 0.0000 -10867.7000 1487.7247 0.0000 0.0000 1795.2734 -7574.6698 304.4903 -9369.9431 -7530.0916 300.8346 138.5874 183.2765 30009.4399 -315.5103 -264.5583
ENERGY: 1200000 2.0756 8.4618 1.6700 0.0000 -10799.8251 1417.7812 0.0000 0.0000 1738.2902 -7631.5464 294.8256 -9369.8366 -7541.2005 299.8823 -335.6023 -289.8500 30033.8944 -157.8814 -106.6756
ENERGY: 1500000 3.9990 7.8221 1.6863 0.0000 -10811.1313 1468.2307 0.0000 0.0000 1830.5289 -7498.8643 310.4699 -9329.3933 -7536.1801 299.9862 -1.1031 95.4351 30416.6123 -132.3350 -74.7840
TCL: Running FEP window  17: Lambda1 0.19999999999999968 Lambda2 0.1499999999999997 [dLambda -0.04999999999999999]
TCL: Setting parameter firsttimestep to 0
TCL: Setting parameter alchLambda to 0.19999999999999968
Info: NONBONDED TABLE R-SQUARED SPACING: 0.0625
Info: NONBONDED TABLE SIZE: 705 POINTS
TCL: Setting parameter alchLambda2 to 0.1499999999999997
Info: NONBONDED TABLE R-SQUARED SPACING: 0.0625
Info: NONBONDED TABLE SIZE: 705 POINTS
TCL: Running for 1500000 steps
ETITLE: TS BOND ANGLE DIHED IMPRP ELECT VDW BOUNDARY MISC KINETIC TOTAL TEMP POTENTIAL TOTALAVG TEMPAVG PRESSURE GPRESSURE VOLUME PRESSAVG GPRESSAVG
ENERGY: 0 3.9990 7.8221 1.6863 0.0000 -10811.1305 1467.8320 0.0000 0.0000 1829.6374 -7500.1537 310.3187 -9329.7912 -7500.1537 310.3187 13.9135 89.8486 30416.6123 13.9135 89.8486
ENERGY: 300000 2.1803 3.6116 1.7294 0.0000 -10620.7476 1377.4329 0.0000 0.0000 1752.0481 -7483.7452 297.1590 -9235.7933 -7501.0520 298.7738 -452.8178 -377.7581 30439.4657 -171.5319 -107.7879
ENERGY: 600000 1.5380 9.0626 1.3047 0.0000 -10677.0343 1377.4764 0.0000 0.0000 1779.5531 -7508.0996 301.8240 -9287.6527 -7514.9861 299.9347 -509.0792 -466.1282 30169.1635 -269.0964 -197.8643
ENERGY: 900000 3.6520 5.9738 3.4346 0.0000 -10718.2902 1443.1466 0.0000 0.0000 1716.0777 -7546.0056 291.0582 -9262.0833 -7510.3157 300.2804 -64.7369 -6.5411 30307.3074 -271.5192 -205.4814
ENERGY: 1200000 2.0259 5.2048 2.1156 0.0000 -10648.3663 1406.3758 0.0000 0.0000 1756.5365 -7476.1076 297.9202 -9232.6441 -7515.7321 299.9253 -100.9569 -69.1973 30453.0303 -212.5127 -145.9809
ENERGY: 1500000 2.4600 5.9379 1.8033 0.0000 -10767.9785 1458.2845 0.0000 0.0000 1713.1105 -7586.3823 290.5549 -9299.4928 -7512.5626 299.2072 86.3932 188.9084 29860.1272 -178.5118 -114.0764
TCL: Running FEP window  18: Lambda1 0.1499999999999997 Lambda2 0.09999999999999969 [dLambda -0.05 ]
TCL: Setting parameter firsttimestep to 0
TCL: Setting parameter alchLambda to 0.1499999999999997
Info: NONBONDED TABLE R-SQUARED SPACING: 0.0625
Info: NONBONDED TABLE SIZE: 705 POINTS
TCL: Setting parameter alchLambda2 to 0.09999999999999969
Info: NONBONDED TABLE R-SQUARED SPACING: 0.0625
Info: NONBONDED TABLE SIZE: 705 POINTS
TCL: Running for 1500000 steps
ETITLE: TS BOND ANGLE DIHED IMPRP ELECT VDW BOUNDARY MISC KINETIC TOTAL TEMP POTENTIAL TOTALAVG TEMPAVG PRESSURE GPRESSURE VOLUME PRESSAVG GPRESSAVG
ENERGY: 0 2.4600 5.9379 1.8033 0.0000 -10767.9794 1458.4126 0.0000 0.0000 1712.2280 -7587.1377 290.4052 -9299.3657 -7587.1377 290.4052 99.1097 186.1831 29860.1272 99.1097 186.1831
ENERGY: 300000 2.2002 3.5810 1.7855 0.0000 -10946.3981 1604.3641 0.0000 0.0000 1818.9596 -7515.5078 308.5076 -9334.4674 -7519.4604 300.7451 1148.8250 1225.6774 30471.8794 707.5533 786.6861
ENERGY: 600000 1.1381 7.2596 0.2063 0.0000 -10771.6427 1522.3626 0.0000 0.0000 1799.4239 -7441.2523 305.1942 -9240.6762 -7510.6972 301.5412 795.1348 883.0472 30333.8647 419.2969 487.5226
ENERGY: 900000 2.3954 3.3876 4.0074 0.0000 -10763.9725 1450.9735 0.0000 0.0000 1702.8015 -7600.4072 288.8064 -9303.2087 -7524.1802 299.5413 -166.4436 -138.8969 30641.9491 375.6382 432.7366
ENERGY: 1200000 0.5637 2.5083 3.1989 0.0000 -10871.0143 1487.7484 0.0000 0.0000 1823.6204 -7553.3745 309.2981 -9376.9949 -7522.3866 300.8942 51.9437 97.0625 30347.9298 331.3075 380.0886
ENERGY: 1500000 3.7100 5.1920 2.8843 0.0000 -10598.0704 1340.8016 0.0000 0.0000 1772.5351 -7472.9474 300.6337 -9245.4825 -7518.8948 299.8701 -792.7247 -698.1655 30334.0578 185.4926 235.2063
TCL: Running FEP window  19: Lambda1 0.09999999999999969 Lambda2 0.049999999999999684 [dLambda -0.05 ]
TCL: Setting parameter firsttimestep to 0
TCL: Setting parameter alchLambda to 0.09999999999999969
Info: NONBONDED TABLE R-SQUARED SPACING: 0.0625
Info: NONBONDED TABLE SIZE: 705 POINTS
TCL: Setting parameter alchLambda2 to 0.049999999999999684
Info: NONBONDED TABLE R-SQUARED SPACING: 0.0625
Info: NONBONDED TABLE SIZE: 705 POINTS
TCL: Running for 1500000 steps
ETITLE: TS BOND ANGLE DIHED IMPRP ELECT VDW BOUNDARY MISC KINETIC TOTAL TEMP POTENTIAL TOTALAVG TEMPAVG PRESSURE GPRESSURE VOLUME PRESSAVG GPRESSAVG
ENERGY: 0 3.7100 5.1920 2.8843 0.0000 -10598.0713 1340.7814 0.0000 0.0000 1771.6469 -7473.8566 300.4831 -9245.5035 -7473.8566 300.4831 -785.7569 -700.5354 30334.0578 -785.7569 -700.5354
ENERGY: 300000 2.4984 4.7463 2.2848 0.0000 -10761.8112 1521.5285 0.0000 0.0000 1798.3118 -7432.4416 305.0056 -9230.7534 -7489.0659 300.8794 628.1972 752.0183 30602.0711 -346.4952 -275.2612
ENERGY: 600000 4.9833 8.6918 1.0844 0.0000 -10778.0119 1466.9666 0.0000 0.0000 1755.2955 -7540.9903 297.7098 -9296.2857 -7522.0526 299.5081 125.2873 179.5993 30159.1854 58.0733 117.1471
ENERGY: 900000 2.2082 10.0580 2.2462 0.0000 -10784.6696 1432.7886 0.0000 0.0000 1803.0923 -7534.2763 305.8164 -9337.3686 -7527.3669 298.8288 -271.8837 -189.0719 30131.2520 -43.7723 23.3434
ENERGY: 1200000 2.4256 7.2103 1.9979 0.0000 -10846.4218 1503.9991 0.0000 0.0000 1735.6981 -7595.0908 294.3859 -9330.7889 -7534.1948 297.4032 221.2645 251.8421 30337.7887 -29.7221 38.1033
ENERGY: 1500000 0.7402 7.2933 0.4501 0.0000 -10750.7018 1448.6581 0.0000 0.0000 1767.7433 -7525.8168 299.8210 -9293.5602 -7526.5717 298.0654 81.5293 83.7269 30404.9248 19.2843 74.1536
TCL: Running FEP window  20: Lambda1 0.049999999999999684 Lambda2 0.0    [dLambda -0.049999999999999684]
TCL: Setting parameter firsttimestep to 0
TCL: Setting parameter alchLambda to 0.049999999999999684
Info: NONBONDED TABLE R-SQUARED SPACING: 0.0625
Info: NONBONDED TABLE SIZE: 705 POINTS
TCL: Setting parameter alchLambda2 to 0.0
Info: NONBONDED TABLE R-SQUARED SPACING: 0.0625
Info: NONBONDED TABLE SIZE: 705 POINTS
TCL: Running for 1500000 steps
ETITLE: TS BOND ANGLE DIHED IMPRP ELECT VDW BOUNDARY MISC KINETIC TOTAL TEMP POTENTIAL TOTALAVG TEMPAVG PRESSURE GPRESSURE VOLUME PRESSAVG GPRESSAVG
ENERGY: 0 0.7402 7.2933 0.4501 0.0000 -10750.7030 1448.3259 0.0000 0.0000 1766.8456 -7527.0480 299.6687 -9293.8936 -7527.0480 299.6687 2.2438 78.1279 30404.9248 2.2438 78.1279
ENERGY: 300000 2.0179 4.7353 2.2824 0.0000 -10660.0626 1420.9201 0.0000 0.0000 1718.9054 -7511.2016 291.5378 -9230.1070 -7527.0854 299.0470 219.3762 295.3171 29845.2011 -306.7062 -222.7809
ENERGY: 600000 1.0038 4.1519 4.9209 0.0000 -10733.3437 1394.4250 0.0000 0.0000 1767.8855 -7560.9566 299.8451 -9328.8421 -7510.8141 300.4629 -623.0141 -568.2967 30575.6084 -360.9090 -289.5904
ENERGY: 900000 5.5563 6.8290 3.6355 0.0000 -10737.6297 1342.8905 0.0000 0.0000 1811.0808 -7567.6377 307.1713 -9378.7184 -7504.2413 301.8105 -1347.4747 -1218.7719 30467.0901 -443.6589 -377.2716
ENERGY: 1200000 2.1780 6.8441 2.6274 0.0000 -10581.8813 1342.2754 0.0000 0.0000 1772.7157 -7455.2406 300.6644 -9227.9563 -7511.0645 301.6841 -937.8792 -920.3096 30864.4884 -413.8782 -360.7851
ENERGY: 1500000 3.2629 7.7740 0.7613 0.0000 -10686.9002 1413.4867 0.0000 0.0000 1748.3364 -7513.2788 296.5295 -9261.6153 -7504.8935 301.1665 35.3695 70.8510 29808.5762 -416.8782 -367.0325
TCL: Exiting due to exit command.
