Info: SIMULATION PARAMETERS:
Info: TIMESTEP               2
Info: NUMBER OF STEPS        0
Info: STEPS PER CYCLE        10
Info: PERIODIC CELL BASIS 1  32.1762 0 0
Info: PERIODIC CELL BASIS 2  0 30.509 0
Info: PERIODIC CELL BASIS 3  0 0 30.7358
Info: PERIODIC CELL CENTER   0 0 0
Info: WRAPPING WATERS AROUND PERIODIC BOUNDARIES ON OUTPUT.
Info: WRAPPING ALL CLUSTERS AROUND PERIODIC BOUNDARIES ON OUTPUT.
Info: FIRST LDB TIMESTEP     50
Info: LAST LDB TIMESTEP     -1
Info: HOM BACKGROUND SCALING 1
Info: PME BACKGROUND SCALING 1
Info: MIN ATOMS PER PATCH    40
Info: EMPTY PATCH LOAD       40 ATOMS
Info: VELOCITY FILE          mobley_1662128_equil.vel
Info: CENTER OF MASS MOVING INITIALLY? NO
Info: DIELECTRIC             1
Info: EXCLUDE                SCALED ONE-FOUR
Info: 1-4 ELECTROSTATICS SCALED BY 0.833333
Info: MODIFIED 1-4 VDW PARAMETERS WILL BE USED
Info: DCD FILENAME           mobley_1662128_prod.dcd
Info: DCD FREQUENCY          100000
Info: DCD FIRST STEP         100000
Info: DCD FILE WILL CONTAIN UNIT CELL DATA
Info: XST FILENAME           mobley_1662128_prod.xst
Info: XST FREQUENCY          100000
Info: NO VELOCITY DCD OUTPUT
Info: NO FORCE DCD OUTPUT
Info: OUTPUT FILENAME        mobley_1662128_prod
Info: BINARY OUTPUT FILES WILL BE USED
Info: RESTART FILENAME       mobley_1662128_prod.restart
Info: RESTART FREQUENCY      100000
Info: BINARY RESTART FILES WILL BE USED
Info: CUTOFF                 9
Info: PAIRLIST DISTANCE      11
Info: PAIRLIST SHRINK RATE   0.01
Info: PAIRLIST GROW RATE     0.01
Info: PAIRLIST TRIGGER       0.3
Info: PAIRLISTS PER CYCLE    2
Info: PAIRLISTS ENABLED
Info: MARGIN                 2
Info: HYDROGEN GROUP CUTOFF  2.5
Info: PATCH DIMENSION        15.5
Info: ENERGY OUTPUT STEPS    100000
Info: ENERGY EVALUATION STEPS    100000
Info: OUTPUT ENERGY PRECISION 4
Info: CROSSTERM ENERGY INCLUDED IN DIHEDRAL
Info: TIMING OUTPUT STEPS    1000000
Info: PRESSURE OUTPUT STEPS  100000
Info: ALCHEMICAL FEP ON
Info: FEP CURRENT LAMBDA VALUE     1
Info: FEP COMPARISON LAMBDA VALUE  0.95
Info: FEP INTRA-ALCHEMICAL NON-BONDED INTERACTIONS WILL BE RETAINED
Info: FEP INTRA-ALCHEMICAL BONDED INTERACTIONS WILL BE RETAINED
Info: FEP VDW SHIFTING COEFFICIENT 5
Info: FEP ELEC. ACTIVE FOR ANNIHILATED PARTICLES BETWEEN LAMBDA = 0 AND LAMBDA = 0.5
Info: FEP ELEC. ACTIVE FOR EXNIHILATED PARTICLES BETWEEN LAMBDA = 0.5 AND LAMBDA = 1
Info: FEP VDW ACTIVE FOR ANNIHILATED PARTICLES BETWEEN LAMBDA = 0 AND LAMBDA = 1
Info: FEP VDW ACTIVE FOR EXNIHILATED PARTICLES BETWEEN LAMBDA = 0 AND LAMBDA = 1
Info: FEP BOND ACTIVE FOR ANNIHILATED PARTICLES BETWEEN LAMBDA = 1 AND LAMBDA = 1
Info: FEP BOND ACTIVE FOR EXNIHILATED PARTICLES BETWEEN LAMBDA = 0 AND LAMBDA = 0
Info: LANGEVIN DYNAMICS ACTIVE
Info: LANGEVIN TEMPERATURE   300
Info: LANGEVIN USING BBK INTEGRATOR
Info: LANGEVIN DAMPING COEFFICIENT IS 1 INVERSE PS
Info: LANGEVIN DYNAMICS APPLIED TO HYDROGENS
Info: LANGEVIN PISTON PRESSURE CONTROL ACTIVE
Info:        TARGET PRESSURE IS 1.01325 BAR
Info:     OSCILLATION PERIOD IS 50 FS
Info:             DECAY TIME IS 25 FS
Info:     PISTON TEMPERATURE IS 300 K
Info:       PRESSURE CONTROL IS GROUP-BASED
Info:    INITIAL STRAIN RATE IS -2.83866e-05 -2.83866e-05 -2.83866e-05
Info:       CELL FLUCTUATION IS ISOTROPIC
Info: PARTICLE MESH EWALD (PME) ACTIVE
Info: PME TOLERANCE               1e-06
Info: PME EWALD COEFFICIENT       0.348832
Info: PME INTERPOLATION ORDER     4
Info: PME GRID DIMENSIONS         36 32 32
Info: PME MAXIMUM GRID SPACING    1
Info: PME CALCULATION WILL BE PERFORMED ON GPU
Info: FULL ELECTROSTATIC EVALUATION FREQUENCY      2
Info: USING VERLET I (r-RESPA) MTS SCHEME.
Info: C1 SPLITTING OF LONG RANGE ELECTROSTATICS
Info: PLACING ATOMS IN PATCHES BY HYDROGEN GROUPS
Info: RIGID BONDS TO HYDROGEN : ALL
Info:         ERROR TOLERANCE : 1e-08
Info:          MAX ITERATIONS : 100
Info: RIGID WATER USING SETTLE ALGORITHM
Info: RANDOM NUMBER SEED     1743685659
Info: USE HYDROGEN BONDS?    NO
Info: Using AMBER format force field!
Info: AMBER PARM FILE        mobley_1662128.prmtop
Info: COORDINATE PDB         mobley_1662128.pdb
Info: Exclusions will be read from PARM file!
Info: SCNB (VDW SCALING)     2
Info: USING ARITHMETIC MEAN TO COMBINE L-J SIGMA PARAMETERS
Info: BINARY COORDINATES     mobley_1662128_equil.coor
Info: SUMMARY OF PARAMETERS:
Info: 7 BONDS
Info: 8 ANGLES
Info:   8 HARMONIC
Info:   0 COSINE-BASED
Info: 7 DIHEDRAL
Info: 0 IMPROPER
Info: 0 CROSSTERM
Info: 0 VDW
Info: 21 VDW_PAIRS
Info: 0 NBTHOLE_PAIRS
Info: To read alchdata from file: mobley_1662128.pdb
Info: To read alchflag data from column: 5
Info: STRUCTURE SUMMARY:
Info: 2970 ATOMS
Info: 2969 BONDS
Info: 18 ANGLES
Info: 25 DIHEDRALS
Info: 0 IMPROPERS
Info: 0 CROSSTERMS
Info: 3006 EXCLUSIONS
Info: 2966 RIGID BONDS
Info: ALCH: 0 ATOMS TO DISAPPEAR IN FINAL STATE
Info: ALCH: 12 ATOMS TO APPEAR IN FINAL STATE
Info: 5944 DEGREES OF FREEDOM
Info: 990 HYDROGEN GROUPS
Info: 4 ATOMS IN LARGEST HYDROGEN GROUP
Info: 990 MIGRATION GROUPS
Info: 4 ATOMS IN LARGEST MIGRATION GROUP
Info: TOTAL MASS = 17819.9 amu
Info: TOTAL CHARGE = 9.99942e-05 e
Info: MASS DENSITY = 0.980748 g/cm^3
Info: ATOM DENSITY = 0.0984351 atoms/A^3
Info: ADDED 0 IMPLICIT EXCLUSIONS
Info: NONBONDED TABLE R-SQUARED SPACING: 0.0625
Info: NONBONDED TABLE SIZE: 705 POINTS
Info: REMOVING COM VELOCITY -0.191831 0.0136807 0.11761
Info: Use 3D box decompostion in PME FFT.
Info: Updated CUDA force table with 4096 elements.
Info: Updated CUDA LJ table with 6 x 6 elements.
Info: Found 15 unique exclusion lists needing 28 bytes
TCL: Running for 1500000 steps
ETITLE: TS BOND ANGLE DIHED IMPRP ELECT VDW BOUNDARY MISC KINETIC TOTAL TEMP POTENTIAL TOTALAVG TEMPAVG PRESSURE GPRESSURE VOLUME PRESSAVG GPRESSAVG
ENERGY: 0 2.1413 2.2428 3.8057 0.0000 -10732.7025 1395.2643 0.0000 0.0000 1786.3424 -7542.9059 302.4658 -9329.2483 -7542.9059 302.4658 -254.2835 -159.0270 30172.1712 -254.2835 -159.0270
ENERGY: 300000 0.4872 4.8224 4.3944 0.0000 -10842.3709 1469.2394 0.0000 0.0000 1753.3089 -7610.1186 296.8725 -9363.4276 -7518.7015 302.8896 -189.3239 -108.9828 30651.7785 -63.7532 19.4202
ENERGY: 600000 0.2209 6.4517 2.3721 0.0000 -10734.1755 1385.1735 0.0000 0.0000 1735.5388 -7604.4186 293.8637 -9339.9573 -7532.7906 300.1975 -604.1879 -537.6710 30454.3819 -110.0305 -36.8760
ENERGY: 900000 3.5690 5.9366 6.9377 0.0000 -10654.9751 1370.0426 0.0000 0.0000 1849.4418 -7419.0473 313.1499 -9268.4891 -7518.1112 301.5252 -625.2890 -514.5314 30923.1070 -237.5967 -173.1919
ENERGY: 1200000 1.3655 4.6776 3.2019 0.0000 -10860.2865 1552.9549 0.0000 0.0000 1835.9004 -7462.1863 310.8570 -9298.0867 -7517.2582 301.8720 994.1215 994.3515 30705.0176 -90.7082 -23.8911
ENERGY: 1500000 1.8871 5.1908 2.7439 0.0000 -10805.9192 1467.7774 0.0000 0.0000 1777.8387 -7550.4813 301.0260 -9328.3200 -7516.0437 302.2917 103.7851 143.8237 30518.1003 -87.0289 -22.4629
TCL: Running FEP window   2: Lambda1 0.95   Lambda2 0.8999999999999999 [dLambda -0.050000000000000044]
TCL: Setting parameter firsttimestep to 0
TCL: Setting parameter alchLambda to 0.95
Info: NONBONDED TABLE R-SQUARED SPACING: 0.0625
Info: NONBONDED TABLE SIZE: 705 POINTS
TCL: Setting parameter alchLambda2 to 0.8999999999999999
Info: NONBONDED TABLE R-SQUARED SPACING: 0.0625
Info: NONBONDED TABLE SIZE: 705 POINTS
TCL: Running for 1500000 steps
ETITLE: TS BOND ANGLE DIHED IMPRP ELECT VDW BOUNDARY MISC KINETIC TOTAL TEMP POTENTIAL TOTALAVG TEMPAVG PRESSURE GPRESSURE VOLUME PRESSAVG GPRESSAVG
ENERGY: 0 1.8871 5.1908 2.7439 0.0000 -10805.8461 1467.9447 0.0000 0.0000 1776.9355 -7551.1441 300.8730 -9328.0797 -7551.1441 300.8730 53.8519 137.9791 30518.1003 53.8519 137.9791
ENERGY: 300000 3.4826 3.4983 3.4868 0.0000 -10861.8460 1560.2314 0.0000 0.0000 1775.0547 -7516.0921 300.5546 -9291.1469 -7544.8706 299.2667 1062.1562 1170.4762 30323.2135 312.9379 401.5239
ENERGY: 600000 1.0810 4.7243 3.8833 0.0000 -10681.6370 1391.7163 0.0000 0.0000 1787.0548 -7493.1773 302.5864 -9280.2321 -7521.2682 300.4096 -200.0854 -114.1813 30489.9194 61.0857 145.3108
ENERGY: 900000 0.1897 1.3132 4.2449 0.0000 -10682.9388 1397.1033 0.0000 0.0000 1785.1545 -7494.9332 302.2647 -9280.0877 -7532.5174 299.3547 -378.6439 -262.5056 30756.4564 -56.1428 21.5737
ENERGY: 1200000 0.9818 2.7942 5.6735 0.0000 -10747.2433 1461.1612 0.0000 0.0000 1848.7857 -7427.8469 313.0388 -9276.6326 -7525.6198 300.6394 217.0233 308.1804 30583.7584 24.7652 104.6607
ENERGY: 1500000 0.3600 2.6291 6.6562 0.0000 -10648.9231 1372.6255 0.0000 0.0000 1789.8419 -7476.8105 303.0584 -9266.6524 -7530.1433 300.2992 -326.3254 -253.6422 30607.3405 6.7394 86.5557
TCL: Running FEP window   3: Lambda1 0.8999999999999999 Lambda2 0.8499999999999999 [dLambda -0.050000000000000044]
TCL: Setting parameter firsttimestep to 0
TCL: Setting parameter alchLambda to 0.8999999999999999
Info: NONBONDED TABLE R-SQUARED SPACING: 0.0625
Info: NONBONDED TABLE SIZE: 705 POINTS
TCL: Setting parameter alchLambda2 to 0.8499999999999999
Info: NONBONDED TABLE R-SQUARED SPACING: 0.0625
Info: NONBONDED TABLE SIZE: 705 POINTS
TCL: Running for 1500000 steps
ETITLE: TS BOND ANGLE DIHED IMPRP ELECT VDW BOUNDARY MISC KINETIC TOTAL TEMP POTENTIAL TOTALAVG TEMPAVG PRESSURE GPRESSURE VOLUME PRESSAVG GPRESSAVG
ENERGY: 0 0.3600 2.6291 6.6562 0.0000 -10648.8529 1372.7551 0.0000 0.0000 1788.9916 -7477.4609 302.9144 -9266.4526 -7477.4609 302.9144 -357.3134 -257.1979 30607.3405 -357.3134 -257.1979
ENERGY: 300000 3.0173 3.6866 7.0354 0.0000 -10852.0304 1483.9947 0.0000 0.0000 1735.9579 -7618.3385 293.9346 -9354.2964 -7537.9598 299.8562 115.3928 223.2375 30350.0470 -103.0166 -40.5813
ENERGY: 600000 1.9854 5.5313 3.9119 0.0000 -10693.3568 1418.7643 0.0000 0.0000 1767.7622 -7495.4016 299.3198 -9263.1639 -7549.6623 300.1979 157.8173 162.0679 30384.4093 -61.6414 -3.5158
ENERGY: 900000 0.1949 6.7576 1.9799 0.0000 -10785.1121 1429.5777 0.0000 0.0000 1818.1360 -7528.4660 307.8491 -9346.6020 -7544.9913 301.4366 -230.5619 -133.4514 30702.7253 -49.4828 12.8725
ENERGY: 1200000 1.0988 5.9833 3.4227 0.0000 -10818.8501 1443.9726 0.0000 0.0000 1718.2218 -7646.1508 290.9315 -9364.3726 -7545.8578 299.9731 -281.2209 -223.9402 30592.0774 -0.7991 55.9514
ENERGY: 1500000 1.1690 3.4921 2.8246 0.0000 -10670.9103 1414.4247 0.0000 0.0000 1755.8650 -7493.1350 297.3053 -9249.0000 -7539.9933 300.6912 -255.6628 -164.5269 30707.4758 34.1040 94.1312
TCL: Running FEP window   4: Lambda1 0.8499999999999999 Lambda2 0.7999999999999998 [dLambda -0.050000000000000044]
TCL: Setting parameter firsttimestep to 0
TCL: Setting parameter alchLambda to 0.8499999999999999
Info: NONBONDED TABLE R-SQUARED SPACING: 0.0625
Info: NONBONDED TABLE SIZE: 705 POINTS
TCL: Setting parameter alchLambda2 to 0.7999999999999998
Info: NONBONDED TABLE R-SQUARED SPACING: 0.0625
Info: NONBONDED TABLE SIZE: 705 POINTS
TCL: Running for 1500000 steps
ETITLE: TS BOND ANGLE DIHED IMPRP ELECT VDW BOUNDARY MISC KINETIC TOTAL TEMP POTENTIAL TOTALAVG TEMPAVG PRESSURE GPRESSURE VOLUME PRESSAVG GPRESSAVG
ENERGY: 0 1.1690 3.4921 2.8246 0.0000 -10670.7611 1414.8154 0.0000 0.0000 1754.9869 -7493.4732 297.1567 -9248.4601 -7493.4732 297.1567 -251.3874 -167.8264 30707.4758 -251.3874 -167.8264
ENERGY: 300000 0.9207 5.3388 3.6465 0.0000 -10750.5975 1432.1798 0.0000 0.0000 1815.6070 -7492.9047 307.4209 -9308.5117 -7540.3657 298.6413 -25.0067 63.9799 30513.2736 -80.1455 -6.7203
ENERGY: 600000 0.7794 3.0710 6.0079 0.0000 -10791.8152 1465.4939 0.0000 0.0000 1698.4516 -7618.0115 287.5840 -9316.4631 -7524.6374 300.1198 29.1268 122.0521 30502.0504 -72.5491 10.1364
ENERGY: 900000 1.3847 3.6709 4.4550 0.0000 -10789.3614 1477.9559 0.0000 0.0000 1699.1769 -7602.7181 287.7068 -9301.8950 -7527.8342 300.4421 213.5401 251.3875 30695.5410 -79.0421 -2.9176
ENERGY: 1200000 1.0735 4.0829 4.3839 0.0000 -10705.7728 1443.7196 0.0000 0.0000 1841.9435 -7410.5694 311.8803 -9252.5129 -7524.7768 301.0063 -40.6054 30.5802 31105.7640 -122.2341 -55.6293
ENERGY: 1500000 0.5361 4.7720 3.9161 0.0000 -10867.0008 1534.1929 0.0000 0.0000 1774.2239 -7549.3599 300.4139 -9323.5838 -7529.8883 300.9468 601.9273 659.9027 30523.7056 -112.6425 -42.6346
TCL: Running FEP window   5: Lambda1 0.7999999999999998 Lambda2 0.7499999999999998 [dLambda -0.050000000000000044]
TCL: Setting parameter firsttimestep to 0
TCL: Setting parameter alchLambda to 0.7999999999999998
Info: NONBONDED TABLE R-SQUARED SPACING: 0.0625
Info: NONBONDED TABLE SIZE: 705 POINTS
TCL: Setting parameter alchLambda2 to 0.7499999999999998
Info: NONBONDED TABLE R-SQUARED SPACING: 0.0625
Info: NONBONDED TABLE SIZE: 705 POINTS
TCL: Running for 1500000 steps
ETITLE: TS BOND ANGLE DIHED IMPRP ELECT VDW BOUNDARY MISC KINETIC TOTAL TEMP POTENTIAL TOTALAVG TEMPAVG PRESSURE GPRESSURE VOLUME PRESSAVG GPRESSAVG
ENERGY: 0 0.5361 4.7720 3.9161 0.0000 -10866.8826 1534.4696 0.0000 0.0000 1773.3111 -7549.8778 300.2593 -9323.1889 -7549.8778 300.2593 573.9975 654.0905 30523.7056 573.9975 654.0905
ENERGY: 300000 2.1931 2.4245 4.6773 0.0000 -10808.2299 1502.6345 0.0000 0.0000 1796.8336 -7499.4670 304.2422 -9296.3006 -7528.2671 302.0156 326.3508 409.7947 30595.8039 262.1393 327.8745
ENERGY: 600000 0.6684 3.7814 3.8369 0.0000 -10891.2260 1577.8917 0.0000 0.0000 1774.5464 -7530.5012 300.4685 -9305.0475 -7539.4049 301.2404 992.6512 1029.5344 30525.7081 328.6845 390.5460
ENERGY: 900000 2.1085 3.9758 2.9135 0.0000 -10725.6791 1404.6432 0.0000 0.0000 1798.7014 -7513.3367 304.5585 -9312.0382 -7533.6695 301.5940 -407.8376 -394.3314 30547.2773 202.0857 263.2776
ENERGY: 1200000 1.4800 1.3952 5.8906 0.0000 -10692.6962 1420.5438 0.0000 0.0000 1836.4419 -7426.9447 310.9487 -9263.3865 -7524.6651 301.9665 160.6356 162.5476 30157.7340 144.2603 205.7116
ENERGY: 1500000 0.1278 4.5616 5.1555 0.0000 -10539.0796 1389.2889 0.0000 0.0000 1747.3876 -7392.5582 295.8699 -9139.9457 -7515.7236 301.3796 -167.7229 -84.0665 30861.5758 86.9770 149.3456
TCL: Running FEP window   6: Lambda1 0.7499999999999998 Lambda2 0.6999999999999997 [dLambda -0.050000000000000044]
TCL: Setting parameter firsttimestep to 0
TCL: Setting parameter alchLambda to 0.7499999999999998
Info: NONBONDED TABLE R-SQUARED SPACING: 0.0625
Info: NONBONDED TABLE SIZE: 705 POINTS
TCL: Setting parameter alchLambda2 to 0.6999999999999997
Info: NONBONDED TABLE R-SQUARED SPACING: 0.0625
Info: NONBONDED TABLE SIZE: 705 POINTS
TCL: Running for 1500000 steps
ETITLE: TS BOND ANGLE DIHED IMPRP ELECT VDW BOUNDARY MISC KINETIC TOTAL TEMP POTENTIAL TOTALAVG TEMPAVG PRESSURE GPRESSURE VOLUME PRESSAVG GPRESSAVG
ENERGY: 0 0.1278 4.5616 5.1555 0.0000 -10539.0460 1389.3934 0.0000 0.0000 1746.4913 -7393.3163 295.7182 -9139.8077 -7393.3163 295.7182 -170.1595 -93.0510 30861.5758 -170.1595 -93.0510
ENERGY: 300000 1.1776 6.5661 4.4528 0.0000 -10786.0003 1473.4015 0.0000 0.0000 1748.9679 -7551.4344 296.1375 -9300.4023 -7495.6595 297.5854 533.1505 562.2713 30129.3743 180.1978 241.5233
ENERGY: 600000 0.1811 5.2012 2.5251 0.0000 -10865.4188 1540.9165 0.0000 0.0000 1852.1312 -7464.4639 313.6052 -9316.5950 -7505.7337 300.4532 808.3176 904.7252 30484.9298 293.7740 343.0754
ENERGY: 900000 2.0682 7.2438 3.8326 0.0000 -10808.8625 1450.4001 0.0000 0.0000 1713.6897 -7631.6282 290.1642 -9345.3179 -7535.0349 298.7026 -160.7655 -66.7802 30356.2116 147.2053 204.5324
ENERGY: 1200000 0.2156 2.2893 4.6452 0.0000 -10751.3395 1403.6639 0.0000 0.0000 1784.7571 -7555.7685 302.1974 -9340.5256 -7533.6032 298.9840 -259.9391 -263.6354 30549.3033 137.7023 193.1835
ENERGY: 1500000 1.4877 4.4098 1.4557 0.0000 -10813.0319 1501.4531 0.0000 0.0000 1775.1334 -7529.0922 300.5679 -9304.2257 -7543.8193 298.4699 606.4525 662.2153 30183.1474 144.2365 198.7758
TCL: Running FEP window   7: Lambda1 0.6999999999999997 Lambda2 0.6499999999999997 [dLambda -0.050000000000000044]
TCL: Setting parameter firsttimestep to 0
TCL: Setting parameter alchLambda to 0.6999999999999997
Info: NONBONDED TABLE R-SQUARED SPACING: 0.0625
Info: NONBONDED TABLE SIZE: 705 POINTS
TCL: Setting parameter alchLambda2 to 0.6499999999999997
Info: NONBONDED TABLE R-SQUARED SPACING: 0.0625
Info: NONBONDED TABLE SIZE: 705 POINTS
TCL: Running for 1500000 steps
ETITLE: TS BOND ANGLE DIHED IMPRP ELECT VDW BOUNDARY MISC KINETIC TOTAL TEMP POTENTIAL TOTALAVG TEMPAVG PRESSURE GPRESSURE VOLUME PRESSAVG GPRESSAVG
ENERGY: 0 1.4877 4.4098 1.4557 0.0000 -10813.0587 1501.8398 0.0000 0.0000 1774.2648 -7529.6010 300.4208 -9303.8658 -7529.6010 300.4208 572.3319 660.2489 30183.1474 572.3319 660.2489
ENERGY: 300000 0.7617 6.1242 3.7080 0.0000 -10613.0903 1351.7932 0.0000 0.0000 1815.8033 -7434.9001 307.4542 -9250.7034 -7525.6190 300.7075 -570.8497 -593.9424 30907.7905 216.6484 268.3479
ENERGY: 600000 0.6520 5.0866 4.4115 0.0000 -10807.0592 1444.5517 0.0000 0.0000 1777.3893 -7574.9681 300.9499 -9352.3575 -7538.1381 299.6679 -215.2430 -181.0731 30865.6996 22.5152 79.8707
ENERGY: 900000 2.7260 5.2537 3.2936 0.0000 -10840.9650 1489.2449 0.0000 0.0000 1756.7146 -7583.7322 297.4492 -9340.4468 -7541.2821 299.5633 66.8074 93.2231 30522.3299 93.3262 146.4048
ENERGY: 1200000 0.7639 4.2615 2.2188 0.0000 -10675.3422 1380.8244 0.0000 0.0000 1773.3199 -7513.9537 300.2608 -9287.2736 -7532.9573 300.5870 -495.8420 -479.0418 30678.0507 55.4511 104.9871
ENERGY: 1500000 0.4848 8.1059 4.7966 0.0000 -10623.7748 1337.7235 0.0000 0.0000 1736.2612 -7536.4027 293.9860 -9272.6638 -7532.6058 300.1062 -798.6740 -758.9152 30761.0391 -53.7840 -3.1905
TCL: Running FEP window   8: Lambda1 0.6499999999999997 Lambda2 0.5999999999999996 [dLambda -0.050000000000000044]
TCL: Setting parameter firsttimestep to 0
TCL: Setting parameter alchLambda to 0.6499999999999997
Info: NONBONDED TABLE R-SQUARED SPACING: 0.0625
Info: NONBONDED TABLE SIZE: 705 POINTS
TCL: Setting parameter alchLambda2 to 0.5999999999999996
Info: NONBONDED TABLE R-SQUARED SPACING: 0.0625
Info: NONBONDED TABLE SIZE: 705 POINTS
TCL: Running for 1500000 steps
ETITLE: TS BOND ANGLE DIHED IMPRP ELECT VDW BOUNDARY MISC KINETIC TOTAL TEMP POTENTIAL TOTALAVG TEMPAVG PRESSURE GPRESSURE VOLUME PRESSAVG GPRESSAVG
ENERGY: 0 0.4848 8.1059 4.7966 0.0000 -10623.8788 1338.0094 0.0000 0.0000 1735.3749 -7537.1071 293.8359 -9272.4821 -7537.1071 293.8359 -846.5433 -759.6657 30761.0391 -846.5433 -759.6657
ENERGY: 300000 0.5612 5.5285 3.3150 0.0000 -10780.7848 1448.2431 0.0000 0.0000 1788.9957 -7534.1413 302.9151 -9323.1370 -7554.6914 295.9455 111.2330 154.6666 30222.7156 -325.4259 -280.9230
ENERGY: 600000 0.5669 3.4956 4.0509 0.0000 -11022.9313 1644.9765 0.0000 0.0000 1777.5555 -7592.2857 300.9780 -9369.8413 -7535.7678 300.1623 1398.8709 1457.0890 30229.6424 226.9548 274.8300
ENERGY: 900000 0.4772 3.5044 4.2201 0.0000 -10764.6716 1465.5559 0.0000 0.0000 1774.1555 -7516.7585 300.4023 -9290.9140 -7530.0485 300.7283 130.7094 151.9488 30379.7379 162.5381 210.7468
ENERGY: 1200000 0.8542 4.7191 3.9203 0.0000 -10807.4148 1389.4860 0.0000 0.0000 1774.0943 -7634.3411 300.3919 -9408.4353 -7544.2277 299.8770 -546.7041 -478.4403 30136.6346 68.7841 115.6923
ENERGY: 1500000 0.3619 3.2377 3.8222 0.0000 -10766.3045 1425.9617 0.0000 0.0000 1788.8072 -7544.1138 302.8832 -9332.9210 -7545.1603 299.7024 -297.8027 -230.8615 30610.2796 74.7856 128.6820
TCL: Running FEP window   9: Lambda1 0.5999999999999996 Lambda2 0.5499999999999996 [dLambda -0.050000000000000044]
TCL: Setting parameter firsttimestep to 0
TCL: Setting parameter alchLambda to 0.5999999999999996
Info: NONBONDED TABLE R-SQUARED SPACING: 0.0625
Info: NONBONDED TABLE SIZE: 705 POINTS
TCL: Setting parameter alchLambda2 to 0.5499999999999996
Info: NONBONDED TABLE R-SQUARED SPACING: 0.0625
Info: NONBONDED TABLE SIZE: 705 POINTS
TCL: Running for 1500000 steps
ETITLE: TS BOND ANGLE DIHED IMPRP ELECT VDW BOUNDARY MISC KINETIC TOTAL TEMP POTENTIAL TOTALAVG TEMPAVG PRESSURE GPRESSURE VOLUME PRESSAVG GPRESSAVG
ENERGY: 0 0.3619 3.2377 3.8222 0.0000 -10766.2205 1426.2676 0.0000 0.0000 1787.9439 -7544.5872 302.7370 -9332.5311 -7544.5872 302.7370 -317.9099 -233.4930 30610.2796 -317.9099 -233.4930
ENERGY: 300000 1.8574 2.3158 4.8694 0.0000 -10776.2148 1477.6568 0.0000 0.0000 1806.8850 -7482.6303 305.9441 -9289.5153 -7567.1413 298.0203 414.8884 438.1301 30648.4390 151.4157 199.4014
ENERGY: 600000 0.7039 3.8543 4.3315 0.0000 -10756.2940 1467.4443 0.0000 0.0000 1767.6232 -7512.3368 299.2963 -9279.9600 -7557.1849 299.1333 -44.3824 31.9957 31045.5718 236.1501 300.5265
ENERGY: 900000 0.7932 4.7565 4.7142 0.0000 -10694.5898 1349.2780 0.0000 0.0000 1754.2509 -7580.7969 297.0320 -9335.0478 -7555.2441 299.4671 -768.7978 -709.3994 30372.0531 16.8445 73.7651
ENERGY: 1200000 0.9816 6.6247 4.7543 0.0000 -10855.2141 1485.2859 0.0000 0.0000 1730.3674 -7627.2000 292.9881 -9357.5674 -7558.0713 298.4674 -20.1458 -17.7415 30738.6096 67.9701 131.4327
ENERGY: 1500000 1.2152 5.2025 3.2035 0.0000 -10744.8886 1461.3546 0.0000 0.0000 1746.4182 -7527.4946 295.7058 -9273.9128 -7552.5372 297.4700 89.7295 134.7038 30468.8012 115.3039 178.2226
TCL: Running FEP window  10: Lambda1 0.5499999999999996 Lambda2 0.4999999999999996 [dLambda -0.04999999999999999]
TCL: Setting parameter firsttimestep to 0
TCL: Setting parameter alchLambda to 0.5499999999999996
Info: NONBONDED TABLE R-SQUARED SPACING: 0.0625
Info: NONBONDED TABLE SIZE: 705 POINTS
TCL: Setting parameter alchLambda2 to 0.4999999999999996
Info: NONBONDED TABLE R-SQUARED SPACING: 0.0625
Info: NONBONDED TABLE SIZE: 705 POINTS
TCL: Running for 1500000 steps
ETITLE: TS BOND ANGLE DIHED IMPRP ELECT VDW BOUNDARY MISC KINETIC TOTAL TEMP POTENTIAL TOTALAVG TEMPAVG PRESSURE GPRESSURE VOLUME PRESSAVG GPRESSAVG
ENERGY: 0 1.2152 5.2025 3.2035 0.0000 -10744.9916 1461.4909 0.0000 0.0000 1745.5271 -7528.3523 295.5549 -9273.8794 -7528.3523 295.5549 56.7443 128.8245 30468.8012 56.7443 128.8245
ENERGY: 300000 0.6891 3.8313 3.7054 0.0000 -10575.4644 1305.1098 0.0000 0.0000 1794.5310 -7467.5978 303.8523 -9262.1288 -7495.6574 299.9533 -904.5137 -879.7037 30760.4118 -575.6201 -513.5291
ENERGY: 600000 1.5752 2.6714 4.8218 0.0000 -10654.9094 1419.4166 0.0000 0.0000 1751.9991 -7474.4252 296.6508 -9226.4243 -7512.9111 299.4836 -294.6225 -235.6166 31057.9699 -410.4323 -352.1071
ENERGY: 900000 1.0683 8.6692 1.6721 0.0000 -10643.7120 1359.4690 0.0000 0.0000 1818.9312 -7453.9021 307.9838 -9272.8333 -7516.0764 299.4836 -776.3869 -675.5192 30812.0544 -425.7897 -369.5392
ENERGY: 1200000 0.2482 7.0416 3.9593 0.0000 -10743.6615 1430.1834 0.0000 0.0000 1764.1249 -7538.1041 298.7039 -9302.2290 -7515.8155 299.6148 -330.8520 -289.4909 30942.9110 -300.0416 -242.0838
ENERGY: 1500000 1.8566 3.6165 1.5930 0.0000 -10692.9101 1340.7505 0.0000 0.0000 1759.3645 -7585.7290 297.8979 -9345.0935 -7522.2783 299.7154 -993.7918 -965.0909 30583.6206 -322.8675 -264.4648
TCL: Running FEP window  11: Lambda1 0.4999999999999996 Lambda2 0.4499999999999996 [dLambda -0.04999999999999999]
TCL: Setting parameter firsttimestep to 0
TCL: Setting parameter alchLambda to 0.4999999999999996
Info: NONBONDED TABLE R-SQUARED SPACING: 0.0625
Info: NONBONDED TABLE SIZE: 705 POINTS
TCL: Setting parameter alchLambda2 to 0.4499999999999996
Info: NONBONDED TABLE R-SQUARED SPACING: 0.0625
Info: NONBONDED TABLE SIZE: 705 POINTS
TCL: Running for 1500000 steps
ETITLE: TS BOND ANGLE DIHED IMPRP ELECT VDW BOUNDARY MISC KINETIC TOTAL TEMP POTENTIAL TOTALAVG TEMPAVG PRESSURE GPRESSURE VOLUME PRESSAVG GPRESSAVG
ENERGY: 0 1.8566 3.6165 1.5930 0.0000 -10692.9322 1340.9590 0.0000 0.0000 1758.4448 -7586.4623 297.7422 -9344.9071 -7586.4623 297.7422 -1046.5368 -964.7264 30583.6206 -1046.5368 -964.7264
ENERGY: 300000 0.5714 4.9019 3.8999 0.0000 -10860.7818 1484.5324 0.0000 0.0000 1768.3093 -7598.5669 299.4124 -9366.8762 -7566.1237 298.9481 219.1421 304.6278 30010.1599 -70.4126 -5.0416
ENERGY: 600000 0.7646 3.8696 3.9053 0.0000 -10627.0797 1332.6380 0.0000 0.0000 1797.3254 -7488.5768 304.3255 -9285.9021 -7547.2157 299.0623 -1021.6317 -993.1416 31009.7734 -156.6984 -113.8178
ENERGY: 900000 0.8735 5.9292 7.5243 0.0000 -10723.5450 1446.8897 0.0000 0.0000 1768.6845 -7493.6438 299.4760 -9262.3283 -7527.6519 300.8085 -148.9524 -93.7483 31157.9866 -116.8960 -67.2182
ENERGY: 1200000 1.3857 5.5780 5.8419 0.0000 -10728.5499 1392.0185 0.0000 0.0000 1777.2146 -7546.5112 300.9203 -9323.7258 -7530.4825 300.2448 -549.3647 -447.4579 30724.0158 -71.5055 -10.2722
ENERGY: 1500000 0.3982 3.7777 2.6496 0.0000 -10806.0665 1424.4019 0.0000 0.0000 1779.1198 -7595.7193 301.2429 -9374.8391 -7535.8751 300.3233 -498.7309 -410.8548 30614.9609 -140.1981 -76.1370
TCL: Running FEP window  12: Lambda1 0.4499999999999996 Lambda2 0.39999999999999963 [dLambda -0.04999999999999999]
TCL: Setting parameter firsttimestep to 0
TCL: Setting parameter alchLambda to 0.4499999999999996
Info: NONBONDED TABLE R-SQUARED SPACING: 0.0625
Info: NONBONDED TABLE SIZE: 705 POINTS
TCL: Setting parameter alchLambda2 to 0.39999999999999963
Info: NONBONDED TABLE R-SQUARED SPACING: 0.0625
Info: NONBONDED TABLE SIZE: 705 POINTS
TCL: Running for 1500000 steps
ETITLE: TS BOND ANGLE DIHED IMPRP ELECT VDW BOUNDARY MISC KINETIC TOTAL TEMP POTENTIAL TOTALAVG TEMPAVG PRESSURE GPRESSURE VOLUME PRESSAVG GPRESSAVG
ENERGY: 0 0.3982 3.7777 2.6496 0.0000 -10806.0668 1424.5031 0.0000 0.0000 1778.2461 -7596.4921 301.0949 -9374.7381 -7596.4921 301.0949 -503.7563 -413.9244 30614.9609 -503.7563 -413.9244
ENERGY: 300000 0.1855 3.5049 4.8411 0.0000 -10723.8666 1465.5923 0.0000 0.0000 1775.0843 -7474.6585 300.5596 -9249.7428 -7522.7233 300.0922 375.2434 455.5249 30491.1837 143.3120 215.9898
ENERGY: 600000 0.3373 6.4664 4.0712 0.0000 -10869.2576 1533.5699 0.0000 0.0000 1774.5258 -7550.2869 300.4650 -9324.8127 -7541.3555 298.9207 592.8595 616.1850 30631.7392 243.7095 311.6715
ENERGY: 900000 0.4659 5.6932 4.5056 0.0000 -10883.3897 1518.4770 0.0000 0.0000 1782.9354 -7571.3125 301.8889 -9354.2480 -7551.5700 298.5908 288.8716 366.7076 30531.2216 190.3434 270.7034
ENERGY: 1200000 1.3408 4.0819 3.2060 0.0000 -10904.9612 1519.7345 0.0000 0.0000 1774.3549 -7602.2431 300.4361 -9376.5980 -7541.4950 299.7696 442.2651 542.8161 30117.9877 93.6192 176.1388
ENERGY: 1500000 0.2309 3.3949 3.0880 0.0000 -10774.1691 1424.5760 0.0000 0.0000 1797.4643 -7545.4149 304.3490 -9342.8792 -7537.8857 300.0540 -326.6629 -321.7704 30708.9070 101.3724 178.6634
TCL: Running FEP window  13: Lambda1 0.39999999999999963 Lambda2 0.34999999999999964 [dLambda -0.04999999999999999]
TCL: Setting parameter firsttimestep to 0
TCL: Setting parameter alchLambda to 0.39999999999999963
Info: NONBONDED TABLE R-SQUARED SPACING: 0.0625
Info: NONBONDED TABLE SIZE: 705 POINTS
TCL: Setting parameter alchLambda2 to 0.34999999999999964
Info: NONBONDED TABLE R-SQUARED SPACING: 0.0625
Info: NONBONDED TABLE SIZE: 705 POINTS
TCL: Running for 1500000 steps
ETITLE: TS BOND ANGLE DIHED IMPRP ELECT VDW BOUNDARY MISC KINETIC TOTAL TEMP POTENTIAL TOTALAVG TEMPAVG PRESSURE GPRESSURE VOLUME PRESSAVG GPRESSAVG
ENERGY: 0 0.2309 3.3949 3.0880 0.0000 -10774.1692 1424.5582 0.0000 0.0000 1796.5338 -7546.3633 304.1914 -9342.8971 -7546.3633 304.1914 -405.7807 -323.3574 30708.9070 -405.7807 -323.3574
ENERGY: 300000 0.1019 2.0283 3.2742 0.0000 -10780.7547 1400.5616 0.0000 0.0000 1742.3769 -7632.4118 295.0215 -9374.7887 -7526.0181 301.7206 -581.8407 -473.8965 30400.0635 -223.3336 -137.4321
ENERGY: 600000 3.2041 2.6890 2.2545 0.0000 -10766.1260 1433.8577 0.0000 0.0000 1736.6485 -7587.4722 294.0516 -9324.1207 -7554.0804 299.9356 -421.1768 -284.8218 30845.3743 -142.0713 -52.6190
ENERGY: 900000 0.3013 4.4408 3.5324 0.0000 -10752.9466 1506.5704 0.0000 0.0000 1772.3150 -7465.7868 300.0907 -9238.1017 -7537.1071 299.2233 478.9983 482.0237 30622.0037 -14.5893 61.4129
ENERGY: 1200000 1.5958 9.6256 6.8832 0.0000 -10806.7582 1460.0497 0.0000 0.0000 1789.2441 -7539.3598 302.9571 -9328.6039 -7538.3454 299.5256 100.2081 119.3081 30148.1664 -53.9211 8.3852
ENERGY: 1500000 0.5863 3.2934 3.4543 0.0000 -10681.3932 1443.4685 0.0000 0.0000 1787.8110 -7442.7796 302.7145 -9230.5906 -7530.6541 299.7446 348.4953 408.5482 30263.5414 -40.5586 19.2531
TCL: Running FEP window  14: Lambda1 0.34999999999999964 Lambda2 0.29999999999999966 [dLambda -0.04999999999999999]
TCL: Setting parameter firsttimestep to 0
TCL: Setting parameter alchLambda to 0.34999999999999964
Info: NONBONDED TABLE R-SQUARED SPACING: 0.0625
Info: NONBONDED TABLE SIZE: 705 POINTS
TCL: Setting parameter alchLambda2 to 0.29999999999999966
Info: NONBONDED TABLE R-SQUARED SPACING: 0.0625
Info: NONBONDED TABLE SIZE: 705 POINTS
TCL: Running for 1500000 steps
ETITLE: TS BOND ANGLE DIHED IMPRP ELECT VDW BOUNDARY MISC KINETIC TOTAL TEMP POTENTIAL TOTALAVG TEMPAVG PRESSURE GPRESSURE VOLUME PRESSAVG GPRESSAVG
ENERGY: 0 0.5863 3.2934 3.4543 0.0000 -10681.3930 1443.4542 0.0000 0.0000 1786.9451 -7443.6597 302.5679 -9230.6048 -7443.6597 302.5679 314.0145 402.6314 30263.5414 314.0145 402.6314
ENERGY: 300000 1.5742 3.3212 3.1743 0.0000 -10694.3119 1419.5731 0.0000 0.0000 1771.0038 -7495.6653 299.8687 -9266.6690 -7498.5107 297.8925 -14.1269 95.1800 30411.4674 -447.7348 -358.9177
ENERGY: 600000 0.8704 5.2839 4.4400 0.0000 -10773.3597 1491.9140 0.0000 0.0000 1770.8923 -7499.9590 299.8498 -9270.8514 -7508.9632 299.5955 297.5047 364.7554 30886.5939 -138.3931 -60.9700
ENERGY: 900000 0.7716 5.8696 4.9173 0.0000 -10724.7628 1406.2111 0.0000 0.0000 1798.8419 -7508.1513 304.5822 -9306.9932 -7520.0307 299.9266 -379.9335 -309.8775 30574.3772 -94.5073 -31.8861
ENERGY: 1200000 0.5559 3.3940 3.5159 0.0000 -10954.6146 1597.5934 0.0000 0.0000 1748.2484 -7601.3069 296.0157 -9349.5553 -7534.9643 300.1034 1188.6971 1199.0378 30083.9825 29.9076 95.3103
ENERGY: 1500000 0.4425 4.7450 2.0118 0.0000 -10789.5716 1420.2493 0.0000 0.0000 1715.4052 -7646.7178 290.4546 -9362.1230 -7529.2359 299.9124 -202.1118 -154.1073 30042.5457 4.6414 64.5144
TCL: Running FEP window  15: Lambda1 0.29999999999999966 Lambda2 0.24999999999999967 [dLambda -0.04999999999999999]
TCL: Setting parameter firsttimestep to 0
TCL: Setting parameter alchLambda to 0.29999999999999966
Info: NONBONDED TABLE R-SQUARED SPACING: 0.0625
Info: NONBONDED TABLE SIZE: 705 POINTS
TCL: Setting parameter alchLambda2 to 0.24999999999999967
Info: NONBONDED TABLE R-SQUARED SPACING: 0.0625
Info: NONBONDED TABLE SIZE: 705 POINTS
TCL: Running for 1500000 steps
ETITLE: TS BOND ANGLE DIHED IMPRP ELECT VDW BOUNDARY MISC KINETIC TOTAL TEMP POTENTIAL TOTALAVG TEMPAVG PRESSURE GPRESSURE VOLUME PRESSAVG GPRESSAVG
ENERGY: 0 0.4425 4.7450 2.0118 0.0000 -10789.5723 1420.6331 0.0000 0.0000 1714.5565 -7647.1834 290.3109 -9361.7400 -7647.1834 290.3109 -237.4362 -154.9295 30042.5457 -237.4362 -154.9295
ENERGY: 300000 1.6492 5.1325 3.5563 0.0000 -10826.4921 1467.1113 0.0000 0.0000 1741.8596 -7607.1832 294.9339 -9349.0428 -7570.6815 298.0373 -235.4911 -113.8982 30554.9102 7.2398 78.3714
ENERGY: 600000 1.2279 5.4922 3.6851 0.0000 -10644.1412 1455.1410 0.0000 0.0000 1785.6402 -7392.9548 302.3469 -9178.5951 -7523.3166 299.6045 100.6330 205.5436 30983.7155 -51.4641 25.7382
ENERGY: 900000 1.4559 9.9197 2.1043 0.0000 -10653.7733 1381.6000 0.0000 0.0000 1828.8282 -7429.8652 309.6596 -9258.6934 -7506.2629 299.8822 -429.8909 -357.0370 30695.4124 -132.0562 -48.0972
ENERGY: 1200000 0.5028 1.9876 3.3223 0.0000 -10737.0739 1444.0276 0.0000 0.0000 1833.9826 -7453.2509 310.5323 -9287.2335 -7507.1014 300.4216 -123.2829 -67.5644 30689.1861 -0.6192 79.9279
ENERGY: 1500000 1.5966 3.5876 5.4656 0.0000 -10929.8982 1492.3869 0.0000 0.0000 1830.8494 -7596.0122 310.0018 -9426.8616 -7515.6410 301.2472 -20.0823 46.5333 30229.3879 -10.3847 69.0589
TCL: Running FEP window  16: Lambda1 0.24999999999999967 Lambda2 0.19999999999999968 [dLambda -0.04999999999999999]
TCL: Setting parameter firsttimestep to 0
TCL: Setting parameter alchLambda to 0.24999999999999967
Info: NONBONDED TABLE R-SQUARED SPACING: 0.0625
Info: NONBONDED TABLE SIZE: 705 POINTS
TCL: Setting parameter alchLambda2 to 0.19999999999999968
Info: NONBONDED TABLE R-SQUARED SPACING: 0.0625
Info: NONBONDED TABLE SIZE: 705 POINTS
TCL: Running for 1500000 steps
ETITLE: TS BOND ANGLE DIHED IMPRP ELECT VDW BOUNDARY MISC KINETIC TOTAL TEMP POTENTIAL TOTALAVG TEMPAVG PRESSURE GPRESSURE VOLUME PRESSAVG GPRESSAVG
ENERGY: 0 1.5966 3.5876 5.4656 0.0000 -10929.8969 1492.6201 0.0000 0.0000 1829.9790 -7596.6481 309.8544 -9426.6271 -7596.6481 309.8544 -30.3543 47.4908 30229.3879 -30.3543 47.4908
ENERGY: 300000 0.2816 3.5219 2.9963 0.0000 -10897.0127 1559.2978 0.0000 0.0000 1831.0319 -7499.8832 310.0327 -9330.9151 -7577.5523 304.1824 864.4468 988.6795 30142.9327 -192.9143 -111.9080
ENERGY: 600000 0.9448 5.2614 3.8514 0.0000 -10624.4202 1377.3892 0.0000 0.0000 1784.1365 -7452.8369 302.0923 -9236.9734 -7548.7855 302.7494 -319.1775 -259.6764 30959.9471 -96.4203 -26.6874
ENERGY: 900000 0.5390 1.9545 4.3137 0.0000 -10680.4570 1405.3759 0.0000 0.0000 1798.4509 -7469.8230 304.5160 -9268.2739 -7530.2306 303.6049 -485.9286 -372.2942 31090.1812 -58.4656 13.0895
ENERGY: 1200000 0.5413 4.2826 4.5964 0.0000 -10829.5637 1505.4287 0.0000 0.0000 1785.0187 -7529.6961 302.2417 -9314.7148 -7533.1533 302.6947 261.8553 358.9246 30786.9807 -6.6276 55.1184
ENERGY: 1500000 1.5753 3.1807 3.6874 0.0000 -10777.5949 1431.1809 0.0000 0.0000 1768.3271 -7569.6434 299.4154 -9337.9706 -7540.3311 301.8903 -390.8235 -258.1531 30320.2026 -101.4230 -35.9337
TCL: Running FEP window  17: Lambda1 0.19999999999999968 Lambda2 0.1499999999999997 [dLambda -0.04999999999999999]
TCL: Setting parameter firsttimestep to 0
TCL: Setting parameter alchLambda to 0.19999999999999968
Info: NONBONDED TABLE R-SQUARED SPACING: 0.0625
Info: NONBONDED TABLE SIZE: 705 POINTS
TCL: Setting parameter alchLambda2 to 0.1499999999999997
Info: NONBONDED TABLE R-SQUARED SPACING: 0.0625
Info: NONBONDED TABLE SIZE: 705 POINTS
TCL: Running for 1500000 steps
ETITLE: TS BOND ANGLE DIHED IMPRP ELECT VDW BOUNDARY MISC KINETIC TOTAL TEMP POTENTIAL TOTALAVG TEMPAVG PRESSURE GPRESSURE VOLUME PRESSAVG GPRESSAVG
ENERGY: 0 1.5753 3.1807 3.6874 0.0000 -10777.5963 1431.4022 0.0000 0.0000 1767.4596 -7570.2911 299.2686 -9337.7507 -7570.2911 299.2686 -325.7172 -257.3301 30320.2026 -325.7172 -257.3301
ENERGY: 300000 1.5120 6.8292 3.7509 0.0000 -10689.1287 1427.6984 0.0000 0.0000 1764.8535 -7484.4847 298.8273 -9249.3382 -7545.0037 299.5161 -112.8422 -53.0959 30835.8105 167.3947 217.6503
ENERGY: 600000 0.9499 4.6147 5.0415 0.0000 -10841.3880 1483.9968 0.0000 0.0000 1721.1581 -7625.6269 291.4287 -9346.7851 -7559.4223 299.4927 289.0038 341.1241 30393.3073 137.4268 195.7541
ENERGY: 900000 0.6979 3.4187 5.1123 0.0000 -10800.6711 1473.3813 0.0000 0.0000 1776.0959 -7541.9650 300.7309 -9318.0609 -7538.7121 300.8696 156.2536 209.4098 30520.4540 103.7212 167.7551
ENERGY: 1200000 0.8127 6.5593 4.7410 0.0000 -10731.7842 1433.8945 0.0000 0.0000 1765.8837 -7519.8930 299.0017 -9285.7768 -7528.1668 300.7999 -68.8948 -51.0102 30527.9763 67.9490 129.8429
ENERGY: 1500000 0.7685 6.7395 3.3021 0.0000 -10718.8479 1474.1356 0.0000 0.0000 1748.4196 -7485.4826 296.0447 -9233.9021 -7533.1361 299.4547 348.1539 354.2557 30601.0642 23.2032 76.1317
TCL: Running FEP window  18: Lambda1 0.1499999999999997 Lambda2 0.09999999999999969 [dLambda -0.05 ]
TCL: Setting parameter firsttimestep to 0
TCL: Setting parameter alchLambda to 0.1499999999999997
Info: NONBONDED TABLE R-SQUARED SPACING: 0.0625
Info: NONBONDED TABLE SIZE: 705 POINTS
TCL: Setting parameter alchLambda2 to 0.09999999999999969
Info: NONBONDED TABLE R-SQUARED SPACING: 0.0625
Info: NONBONDED TABLE SIZE: 705 POINTS
TCL: Running for 1500000 steps
ETITLE: TS BOND ANGLE DIHED IMPRP ELECT VDW BOUNDARY MISC KINETIC TOTAL TEMP POTENTIAL TOTALAVG TEMPAVG PRESSURE GPRESSURE VOLUME PRESSAVG GPRESSAVG
ENERGY: 0 0.7685 6.7395 3.3021 0.0000 -10718.8489 1474.2867 0.0000 0.0000 1747.5187 -7486.2333 295.8921 -9233.7521 -7486.2333 295.8921 270.5132 353.5517 30601.0642 270.5132 353.5517
ENERGY: 300000 1.4322 5.5796 3.4765 0.0000 -10863.8561 1460.0273 0.0000 0.0000 1729.1026 -7664.2379 292.7739 -9393.3405 -7556.3269 297.3897 -266.8135 -182.3786 30545.5996 110.6216 208.8821
ENERGY: 600000 0.9931 3.3110 4.8399 0.0000 -10701.6796 1473.1751 0.0000 0.0000 1761.7969 -7457.5635 298.3097 -9219.3604 -7543.5517 297.6478 428.7308 409.7165 30633.3963 81.3082 138.0539
ENERGY: 900000 0.1101 5.3291 4.5124 0.0000 -10768.6650 1447.4235 0.0000 0.0000 1803.5898 -7507.7002 305.3862 -9311.2900 -7538.6232 299.2533 -232.4927 -233.0423 30862.5204 -9.2838 47.6518
ENERGY: 1200000 0.1719 2.9623 4.3613 0.0000 -10773.8914 1435.5310 0.0000 0.0000 1747.3030 -7583.5620 295.8556 -9330.8649 -7547.0778 298.4395 -198.9762 -106.0875 30402.1971 38.4098 102.1270
ENERGY: 1500000 0.5757 3.7371 3.6889 0.0000 -10727.7564 1422.9941 0.0000 0.0000 1742.9003 -7553.8603 295.1101 -9296.7606 -7539.5029 298.6833 -31.2467 -14.3384 30088.5331 45.9156 107.6907
TCL: Running FEP window  19: Lambda1 0.09999999999999969 Lambda2 0.049999999999999684 [dLambda -0.05 ]
TCL: Setting parameter firsttimestep to 0
TCL: Setting parameter alchLambda to 0.09999999999999969
Info: NONBONDED TABLE R-SQUARED SPACING: 0.0625
Info: NONBONDED TABLE SIZE: 705 POINTS
TCL: Setting parameter alchLambda2 to 0.049999999999999684
Info: NONBONDED TABLE R-SQUARED SPACING: 0.0625
Info: NONBONDED TABLE SIZE: 705 POINTS
TCL: Running for 1500000 steps
ETITLE: TS BOND ANGLE DIHED IMPRP ELECT VDW BOUNDARY MISC KINETIC TOTAL TEMP POTENTIAL TOTALAVG TEMPAVG PRESSURE GPRESSURE VOLUME PRESSAVG GPRESSAVG
ENERGY: 0 0.5757 3.7371 3.6889 0.0000 -10727.7540 1422.9977 0.0000 0.0000 1741.9884 -7554.7662 294.9557 -9296.7546 -7554.7662 294.9557 -108.1056 -15.5476 30088.5331 -108.1056 -15.5476
ENERGY: 300000 0.1241 4.5100 4.8327 0.0000 -10832.7563 1526.9508 0.0000 0.0000 1798.6909 -7497.6478 304.5567 -9296.3387 -7537.4903 299.3259 657.2319 633.9926 30673.0872 -6.1109 69.2985
ENERGY: 600000 1.5466 5.6682 6.2451 0.0000 -10846.3976 1483.0156 0.0000 0.0000 1730.7723 -7619.1498 293.0566 -9349.9221 -7537.6250 299.1370 143.4724 273.9689 30381.4683 22.2034 105.3185
ENERGY: 900000 0.1660 5.4463 4.3157 0.0000 -10856.1069 1495.9311 0.0000 0.0000 1788.5127 -7561.7353 302.8333 -9350.2480 -7543.9301 301.1279 241.9156 249.6124 30571.7457 90.5076 157.2263
ENERGY: 1200000 0.8747 2.7771 1.7422 0.0000 -10830.5994 1480.9633 0.0000 0.0000 1753.3417 -7590.9004 296.8781 -9344.2421 -7545.3149 300.9180 94.4555 153.9507 30578.2585 89.8765 154.9322
ENERGY: 1500000 0.5686 3.9258 5.2802 0.0000 -10807.4020 1498.9834 0.0000 0.0000 1760.3092 -7538.3348 298.0578 -9298.6441 -7543.7927 301.1302 454.5573 554.7153 30443.3126 -7.0522 66.3493
TCL: Running FEP window  20: Lambda1 0.049999999999999684 Lambda2 0.0    [dLambda -0.049999999999999684]
TCL: Setting parameter firsttimestep to 0
TCL: Setting parameter alchLambda to 0.049999999999999684
Info: NONBONDED TABLE R-SQUARED SPACING: 0.0625
Info: NONBONDED TABLE SIZE: 705 POINTS
TCL: Setting parameter alchLambda2 to 0.0
Info: NONBONDED TABLE R-SQUARED SPACING: 0.0625
Info: NONBONDED TABLE SIZE: 705 POINTS
TCL: Running for 1500000 steps
ETITLE: TS BOND ANGLE DIHED IMPRP ELECT VDW BOUNDARY MISC KINETIC TOTAL TEMP POTENTIAL TOTALAVG TEMPAVG PRESSURE GPRESSURE VOLUME PRESSAVG GPRESSAVG
ENERGY: 0 0.5686 3.9258 5.2802 0.0000 -10807.4029 1498.9205 0.0000 0.0000 1759.4397 -7539.2682 297.9106 -9298.7079 -7539.2682 297.9106 458.3077 552.4942 30443.3126 458.3077 552.4942
ENERGY: 300000 1.7687 6.3265 2.4139 0.0000 -10708.8122 1423.3271 0.0000 0.0000 1736.4439 -7538.5320 294.0169 -9274.9759 -7554.5419 298.9860 -287.1632 -254.2098 30870.9799 -367.8522 -301.6563
ENERGY: 600000 3.0068 4.3662 3.4509 0.0000 -10843.1396 1528.8725 0.0000 0.0000 1813.6172 -7489.8260 307.0840 -9303.4432 -7542.1775 300.9986 516.2969 599.0667 30619.8458 -181.6505 -105.9629
ENERGY: 900000 2.4626 4.3219 4.9409 0.0000 -10624.4380 1359.0718 0.0000 0.0000 1801.0003 -7452.6405 304.9477 -9253.6408 -7527.1852 301.4449 -494.2826 -466.0288 30351.9101 -94.7877 -30.6702
ENERGY: 1200000 1.1480 3.6197 3.1448 0.0000 -10788.4891 1504.4275 0.0000 0.0000 1771.4086 -7504.7405 299.9372 -9276.1491 -7529.7859 300.2529 403.4701 387.5026 30848.3297 -128.8451 -74.6053
ENERGY: 1500000 2.6204 5.6660 5.6735 0.0000 -10772.7985 1505.4598 0.0000 0.0000 1726.5916 -7526.7872 292.3487 -9253.3788 -7525.7865 299.9804 537.8860 628.6954 30138.7317 -101.9538 -40.5101
TCL: Exiting due to exit command.
