Info: SIMULATION PARAMETERS:
Info: TIMESTEP               2
Info: NUMBER OF STEPS        0
Info: STEPS PER CYCLE        10
Info: PERIODIC CELL BASIS 1  30.1976 0 0
Info: PERIODIC CELL BASIS 2  0 31.5853 0
Info: PERIODIC CELL BASIS 3  0 0 31.6533
Info: PERIODIC CELL CENTER   0 0 0
Info: WRAPPING WATERS AROUND PERIODIC BOUNDARIES ON OUTPUT.
Info: WRAPPING ALL CLUSTERS AROUND PERIODIC BOUNDARIES ON OUTPUT.
Info: FIRST LDB TIMESTEP     50
Info: LAST LDB TIMESTEP     -1
Info: HOM BACKGROUND SCALING 1
Info: PME BACKGROUND SCALING 1
Info: MIN ATOMS PER PATCH    40
Info: EMPTY PATCH LOAD       40 ATOMS
Info: VELOCITY FILE          mobley_1139153_equil.vel
Info: CENTER OF MASS MOVING INITIALLY? NO
Info: DIELECTRIC             1
Info: EXCLUDE                SCALED ONE-FOUR
Info: 1-4 ELECTROSTATICS SCALED BY 0.833333
Info: MODIFIED 1-4 VDW PARAMETERS WILL BE USED
Info: DCD FILENAME           mobley_1139153_prod.dcd
Info: DCD FREQUENCY          100000
Info: DCD FIRST STEP         100000
Info: DCD FILE WILL CONTAIN UNIT CELL DATA
Info: XST FILENAME           mobley_1139153_prod.xst
Info: XST FREQUENCY          100000
Info: NO VELOCITY DCD OUTPUT
Info: NO FORCE DCD OUTPUT
Info: OUTPUT FILENAME        mobley_1139153_prod
Info: BINARY OUTPUT FILES WILL BE USED
Info: RESTART FILENAME       mobley_1139153_prod.restart
Info: RESTART FREQUENCY      100000
Info: BINARY RESTART FILES WILL BE USED
Info: CUTOFF                 9
Info: PAIRLIST DISTANCE      11
Info: PAIRLIST SHRINK RATE   0.01
Info: PAIRLIST GROW RATE     0.01
Info: PAIRLIST TRIGGER       0.3
Info: PAIRLISTS PER CYCLE    2
Info: PAIRLISTS ENABLED
Info: MARGIN                 2
Info: HYDROGEN GROUP CUTOFF  2.5
Info: PATCH DIMENSION        15.5
Info: ENERGY OUTPUT STEPS    100000
Info: ENERGY EVALUATION STEPS    100000
Info: OUTPUT ENERGY PRECISION 4
Info: CROSSTERM ENERGY INCLUDED IN DIHEDRAL
Info: TIMING OUTPUT STEPS    1000000
Info: PRESSURE OUTPUT STEPS  100000
Info: ALCHEMICAL FEP ON
Info: FEP CURRENT LAMBDA VALUE     0
Info: FEP COMPARISON LAMBDA VALUE  0.05
Info: FEP INTRA-ALCHEMICAL NON-BONDED INTERACTIONS WILL BE RETAINED
Info: FEP INTRA-ALCHEMICAL BONDED INTERACTIONS WILL BE RETAINED
Info: FEP VDW SHIFTING COEFFICIENT 5
Info: FEP ELEC. ACTIVE FOR ANNIHILATED PARTICLES BETWEEN LAMBDA = 0 AND LAMBDA = 0.5
Info: FEP ELEC. ACTIVE FOR EXNIHILATED PARTICLES BETWEEN LAMBDA = 0.5 AND LAMBDA = 1
Info: FEP VDW ACTIVE FOR ANNIHILATED PARTICLES BETWEEN LAMBDA = 0 AND LAMBDA = 1
Info: FEP VDW ACTIVE FOR EXNIHILATED PARTICLES BETWEEN LAMBDA = 0 AND LAMBDA = 1
Info: FEP BOND ACTIVE FOR ANNIHILATED PARTICLES BETWEEN LAMBDA = 1 AND LAMBDA = 1
Info: FEP BOND ACTIVE FOR EXNIHILATED PARTICLES BETWEEN LAMBDA = 0 AND LAMBDA = 0
Info: LANGEVIN DYNAMICS ACTIVE
Info: LANGEVIN TEMPERATURE   300
Info: LANGEVIN USING BBK INTEGRATOR
Info: LANGEVIN DAMPING COEFFICIENT IS 1 INVERSE PS
Info: LANGEVIN DYNAMICS APPLIED TO HYDROGENS
Info: LANGEVIN PISTON PRESSURE CONTROL ACTIVE
Info:        TARGET PRESSURE IS 1.01325 BAR
Info:     OSCILLATION PERIOD IS 50 FS
Info:             DECAY TIME IS 25 FS
Info:     PISTON TEMPERATURE IS 300 K
Info:       PRESSURE CONTROL IS GROUP-BASED
Info:    INITIAL STRAIN RATE IS -0.00019579 -0.00019579 -0.00019579
Info:       CELL FLUCTUATION IS ISOTROPIC
Info: PARTICLE MESH EWALD (PME) ACTIVE
Info: PME TOLERANCE               1e-06
Info: PME EWALD COEFFICIENT       0.348832
Info: PME INTERPOLATION ORDER     4
Info: PME GRID DIMENSIONS         32 32 32
Info: PME MAXIMUM GRID SPACING    1
Info: PME CALCULATION WILL BE PERFORMED ON GPU
Info: FULL ELECTROSTATIC EVALUATION FREQUENCY      2
Info: USING VERLET I (r-RESPA) MTS SCHEME.
Info: C1 SPLITTING OF LONG RANGE ELECTROSTATICS
Info: PLACING ATOMS IN PATCHES BY HYDROGEN GROUPS
Info: RIGID BONDS TO HYDROGEN : ALL
Info:         ERROR TOLERANCE : 1e-08
Info:          MAX ITERATIONS : 100
Info: RIGID WATER USING SETTLE ALGORITHM
Info: RANDOM NUMBER SEED     1743813680
Info: USE HYDROGEN BONDS?    NO
Info: Using AMBER format force field!
Info: AMBER PARM FILE        mobley_1139153.prmtop
Info: COORDINATE PDB         mobley_1139153.pdb
Info: Exclusions will be read from PARM file!
Info: SCNB (VDW SCALING)     2
Info: USING ARITHMETIC MEAN TO COMBINE L-J SIGMA PARAMETERS
Info: BINARY COORDINATES     mobley_1139153_equil.coor
Info: SUMMARY OF PARAMETERS:
Info: 4 BONDS
Info: 3 ANGLES
Info:   3 HARMONIC
Info:   0 COSINE-BASED
Info: 5 DIHEDRAL
Info: 0 IMPROPER
Info: 0 CROSSTERM
Info: 0 VDW
Info: 10 VDW_PAIRS
Info: 0 NBTHOLE_PAIRS
Info: To read alchdata from file: mobley_1139153.pdb
Info: To read alchflag data from column: 5
Info: STRUCTURE SUMMARY:
Info: 2939 ATOMS
Info: 2938 BONDS
Info: 48 ANGLES
Info: 73 DIHEDRALS
Info: 0 IMPROPERS
Info: 0 CROSSTERMS
Info: 3049 EXCLUSIONS
Info: 2931 RIGID BONDS
Info: ALCH: 0 ATOMS TO DISAPPEAR IN FINAL STATE
Info: ALCH: 26 ATOMS TO APPEAR IN FINAL STATE
Info: 5886 DEGREES OF FREEDOM
Info: 979 HYDROGEN GROUPS
Info: 4 ATOMS IN LARGEST HYDROGEN GROUP
Info: 979 MIGRATION GROUPS
Info: 4 ATOMS IN LARGEST MIGRATION GROUP
Info: TOTAL MASS = 17607.8 amu
Info: TOTAL CHARGE = -0.000100009 e
Info: MASS DENSITY = 0.968473 g/cm^3
Info: ATOM DENSITY = 0.0973473 atoms/A^3
Info: ADDED 0 IMPLICIT EXCLUSIONS
Info: NONBONDED TABLE R-SQUARED SPACING: 0.0625
Info: NONBONDED TABLE SIZE: 705 POINTS
Info: REMOVING COM VELOCITY -0.18674 -0.161956 0.000695291
Info: Use 3D box decompostion in PME FFT.
Info: Updated CUDA force table with 4096 elements.
Info: Updated CUDA LJ table with 4 x 4 elements.
Info: Found 29 unique exclusion lists needing 100 bytes
TCL: Running for 1500000 steps
ETITLE: TS BOND ANGLE DIHED IMPRP ELECT VDW BOUNDARY MISC KINETIC TOTAL TEMP POTENTIAL TOTALAVG TEMPAVG PRESSURE GPRESSURE VOLUME PRESSAVG GPRESSAVG
ENERGY: 0 5.1580 8.2675 4.4075 0.0000 -10614.5978 1336.5402 0.0000 0.0000 1710.0432 -7550.1814 292.3999 -9260.2246 -7550.1814 292.3999 -1175.3428 -1091.6296 30190.8809 -1175.3428 -1091.6296
ENERGY: 300000 1.4090 9.8712 8.0392 0.0000 -10479.7753 1294.3189 0.0000 0.0000 1719.1031 -7447.0339 293.9490 -9166.1371 -7458.5860 295.5642 -1381.5142 -1331.5271 30666.0175 -874.5782 -810.8812
ENERGY: 600000 3.7774 17.0840 6.7347 0.0000 -10725.6540 1494.3467 0.0000 0.0000 1783.7151 -7419.9961 304.9970 -9203.7112 -7435.6688 298.3980 471.8716 486.8415 29805.9780 -363.0504 -307.1761
ENERGY: 900000 1.3833 14.6135 5.0407 0.0000 -10626.1965 1404.6046 0.0000 0.0000 1736.0708 -7464.4836 296.8503 -9200.5544 -7437.5498 298.7260 -379.3299 -261.5666 30068.9934 -431.7555 -370.9567
ENERGY: 1200000 1.9384 14.9004 6.2051 0.0000 -10613.9770 1393.6787 0.0000 0.0000 1774.7289 -7422.5255 303.4605 -9197.2544 -7422.5879 300.3675 -399.5424 -309.8493 30128.7861 -394.2028 -331.2493
ENERGY: 1500000 3.2377 13.4078 6.4217 0.0000 -10604.2629 1439.9790 0.0000 0.0000 1733.1757 -7408.0410 296.3553 -9141.2167 -7411.3799 301.2460 219.6023 227.8594 29662.0450 -316.5181 -258.6988
TCL: Running FEP window   2: Lambda1 0.05   Lambda2 0.1    [dLambda 0.05  ]
TCL: Setting parameter firsttimestep to 0
TCL: Setting parameter alchLambda to 0.05
Info: NONBONDED TABLE R-SQUARED SPACING: 0.0625
Info: NONBONDED TABLE SIZE: 705 POINTS
TCL: Setting parameter alchLambda2 to 0.1
Info: NONBONDED TABLE R-SQUARED SPACING: 0.0625
Info: NONBONDED TABLE SIZE: 705 POINTS
TCL: Running for 1500000 steps
ETITLE: TS BOND ANGLE DIHED IMPRP ELECT VDW BOUNDARY MISC KINETIC TOTAL TEMP POTENTIAL TOTALAVG TEMPAVG PRESSURE GPRESSURE VOLUME PRESSAVG GPRESSAVG
ENERGY: 0 3.2377 13.4078 6.4217 0.0000 -10604.2639 1445.8395 0.0000 0.0000 1732.3017 -7403.0555 296.2059 -9135.3572 -7403.0555 296.2059 145.1153 233.3118 29662.0450 145.1153 233.3118
ENERGY: 300000 4.0713 9.8298 4.9973 0.0000 -10498.1790 1386.2930 0.0000 0.0000 1777.3866 -7315.6011 303.9149 -9092.9877 -7380.4191 301.6907 -365.3098 -305.9018 30416.5265 -244.3961 -182.9241
ENERGY: 600000 1.2503 11.5115 5.5124 0.0000 -10576.8168 1475.1480 0.0000 0.0000 1793.3719 -7290.0227 306.6483 -9083.3947 -7383.2112 299.6757 561.6577 647.1194 30261.4187 30.9085 82.6755
ENERGY: 900000 5.6439 14.6372 7.2165 0.0000 -10515.4693 1369.7491 0.0000 0.0000 1677.0430 -7441.1796 286.7572 -9118.2225 -7407.4543 297.6800 -700.5326 -661.3257 30540.4123 -180.4661 -131.8262
ENERGY: 1200000 3.3831 12.3484 6.3213 0.0000 -10618.0091 1466.0252 0.0000 0.0000 1763.1778 -7366.7533 301.4854 -9129.9310 -7396.8748 298.8404 174.6310 233.5853 30115.4417 -265.4238 -214.7618
ENERGY: 1500000 2.5679 18.0913 4.5276 0.0000 -10708.1490 1539.0961 0.0000 0.0000 1744.2731 -7399.5931 298.2529 -9143.8662 -7397.3458 298.7630 655.5877 702.5106 30432.1584 -139.3645 -89.7509
TCL: Running FEP window   3: Lambda1 0.1    Lambda2 0.15000000000000002 [dLambda 0.05000000000000002]
TCL: Setting parameter firsttimestep to 0
TCL: Setting parameter alchLambda to 0.1
Info: NONBONDED TABLE R-SQUARED SPACING: 0.0625
Info: NONBONDED TABLE SIZE: 705 POINTS
TCL: Setting parameter alchLambda2 to 0.15000000000000002
Info: NONBONDED TABLE R-SQUARED SPACING: 0.0625
Info: NONBONDED TABLE SIZE: 705 POINTS
TCL: Running for 1500000 steps
ETITLE: TS BOND ANGLE DIHED IMPRP ELECT VDW BOUNDARY MISC KINETIC TOTAL TEMP POTENTIAL TOTALAVG TEMPAVG PRESSURE GPRESSURE VOLUME PRESSAVG GPRESSAVG
ENERGY: 0 2.5679 18.0913 4.5276 0.0000 -10708.1487 1540.0460 0.0000 0.0000 1743.3820 -7399.5340 298.1005 -9142.9160 -7399.5340 298.1005 636.8620 708.8662 30432.1584 636.8620 708.8662
ENERGY: 300000 3.5411 20.3194 4.7667 0.0000 -10564.8368 1402.6252 0.0000 0.0000 1731.4548 -7402.1295 296.0610 -9133.5843 -7386.2750 299.5750 -40.5724 -8.7819 29669.9820 592.7119 644.7891
ENERGY: 600000 2.8296 12.0411 6.8468 0.0000 -10515.3979 1402.0882 0.0000 0.0000 1777.0242 -7314.5681 303.8530 -9091.5922 -7358.8425 301.2404 120.7279 160.8346 29802.3249 382.7611 435.8994
ENERGY: 900000 3.0723 8.6644 6.7731 0.0000 -10620.3118 1433.1961 0.0000 0.0000 1746.5278 -7422.0781 298.6384 -9168.6059 -7387.2277 300.2161 -114.5437 -74.2774 30028.5991 143.2949 194.8229
ENERGY: 1200000 6.1618 13.6661 8.8928 0.0000 -10667.5488 1482.6050 0.0000 0.0000 1784.2950 -7371.9281 305.0962 -9156.2230 -7392.2224 301.1864 -4.5561 57.8106 30487.7328 49.3287 99.1870
ENERGY: 1500000 1.4191 16.8985 4.2809 0.0000 -10703.5938 1504.2632 0.0000 0.0000 1740.7309 -7436.0012 297.6472 -9176.7321 -7394.9311 300.4786 572.8144 556.3512 29874.0293 135.6733 182.3578
TCL: Running FEP window   4: Lambda1 0.15000000000000002 Lambda2 0.2    [dLambda 0.04999999999999999]
TCL: Setting parameter firsttimestep to 0
TCL: Setting parameter alchLambda to 0.15000000000000002
Info: NONBONDED TABLE R-SQUARED SPACING: 0.0625
Info: NONBONDED TABLE SIZE: 705 POINTS
TCL: Setting parameter alchLambda2 to 0.2
Info: NONBONDED TABLE R-SQUARED SPACING: 0.0625
Info: NONBONDED TABLE SIZE: 705 POINTS
TCL: Running for 1500000 steps
ETITLE: TS BOND ANGLE DIHED IMPRP ELECT VDW BOUNDARY MISC KINETIC TOTAL TEMP POTENTIAL TOTALAVG TEMPAVG PRESSURE GPRESSURE VOLUME PRESSAVG GPRESSAVG
ENERGY: 0 1.4191 16.8985 4.2809 0.0000 -10703.5936 1506.3794 0.0000 0.0000 1739.8903 -7434.7254 297.5034 -9174.6157 -7434.7254 297.5034 472.4198 570.4490 29874.0293 472.4198 570.4490
ENERGY: 300000 1.1462 15.2601 4.4694 0.0000 -10618.4210 1422.4922 0.0000 0.0000 1668.8913 -7506.1617 285.3633 -9175.0530 -7395.4916 297.3413 -235.6622 -173.1017 30182.1971 -167.4814 -87.8744
ENERGY: 600000 4.5459 9.5588 6.7854 0.0000 -10555.8199 1320.9008 0.0000 0.0000 1816.0207 -7398.0083 310.5210 -9214.0290 -7386.6683 300.0094 -1193.5724 -1134.7710 30313.8086 -242.3632 -194.2515
ENERGY: 900000 5.6857 10.7169 5.0525 0.0000 -10661.3078 1407.5178 0.0000 0.0000 1738.8313 -7493.5036 297.3224 -9232.3349 -7403.8105 299.0276 -474.2316 -416.0546 29778.3732 -327.6056 -272.0020
ENERGY: 1200000 1.4604 9.5717 6.2323 0.0000 -10450.0652 1346.2536 0.0000 0.0000 1675.7695 -7410.7777 286.5394 -9086.5472 -7409.0136 298.1119 -686.5430 -638.7115 30518.5733 -346.3321 -289.6590
ENERGY: 1500000 1.8269 10.3239 5.7646 0.0000 -10530.5652 1377.3013 0.0000 0.0000 1773.1902 -7362.1582 303.1974 -9135.3484 -7404.6099 299.0917 -373.3703 -301.6535 30012.2675 -298.5176 -241.8489
TCL: Running FEP window   5: Lambda1 0.2    Lambda2 0.25   [dLambda 0.04999999999999999]
TCL: Setting parameter firsttimestep to 0
TCL: Setting parameter alchLambda to 0.2
Info: NONBONDED TABLE R-SQUARED SPACING: 0.0625
Info: NONBONDED TABLE SIZE: 705 POINTS
TCL: Setting parameter alchLambda2 to 0.25
Info: NONBONDED TABLE R-SQUARED SPACING: 0.0625
Info: NONBONDED TABLE SIZE: 705 POINTS
TCL: Running for 1500000 steps
ETITLE: TS BOND ANGLE DIHED IMPRP ELECT VDW BOUNDARY MISC KINETIC TOTAL TEMP POTENTIAL TOTALAVG TEMPAVG PRESSURE GPRESSURE VOLUME PRESSAVG GPRESSAVG
ENERGY: 0 1.8269 10.3239 5.7646 0.0000 -10530.5652 1379.3686 0.0000 0.0000 1772.3584 -7360.9227 303.0552 -9133.2811 -7360.9227 303.0552 -365.0168 -287.5746 30012.2675 -365.0168 -287.5746
ENERGY: 300000 3.4479 13.0272 6.5265 0.0000 -10583.5435 1403.3728 0.0000 0.0000 1755.0074 -7402.1617 300.0883 -9157.1691 -7384.8884 303.8447 -279.1464 -226.0739 30177.5246 -76.2271 -13.8106
ENERGY: 600000 2.8048 15.9669 6.1958 0.0000 -10709.0898 1466.3234 0.0000 0.0000 1734.8015 -7482.9974 296.6333 -9217.7989 -7396.1930 300.8034 150.8744 251.4906 29854.9221 -249.8963 -181.6878
ENERGY: 900000 2.9010 17.6906 6.1882 0.0000 -10675.1436 1468.0990 0.0000 0.0000 1778.1742 -7402.0908 304.0496 -9180.2649 -7392.2688 301.9711 62.1048 113.8141 30131.6750 -188.0047 -120.7658
ENERGY: 1200000 2.7702 15.9710 3.6759 0.0000 -10627.7515 1410.0962 0.0000 0.0000 1774.8248 -7420.4135 303.4769 -9195.2383 -7386.4450 302.3774 -142.6541 -104.4112 29649.5199 -133.9014 -72.7166
ENERGY: 1500000 0.4731 19.9885 5.4570 0.0000 -10497.1371 1324.0471 0.0000 0.0000 1762.9078 -7384.2636 301.4392 -9147.1714 -7406.1239 301.0576 -701.4023 -719.7884 29964.0454 -160.4208 -107.7639
TCL: Running FEP window   6: Lambda1 0.25   Lambda2 0.3    [dLambda 0.04999999999999999]
TCL: Setting parameter firsttimestep to 0
TCL: Setting parameter alchLambda to 0.25
Info: NONBONDED TABLE R-SQUARED SPACING: 0.0625
Info: NONBONDED TABLE SIZE: 705 POINTS
TCL: Setting parameter alchLambda2 to 0.3
Info: NONBONDED TABLE R-SQUARED SPACING: 0.0625
Info: NONBONDED TABLE SIZE: 705 POINTS
TCL: Running for 1500000 steps
ETITLE: TS BOND ANGLE DIHED IMPRP ELECT VDW BOUNDARY MISC KINETIC TOTAL TEMP POTENTIAL TOTALAVG TEMPAVG PRESSURE GPRESSURE VOLUME PRESSAVG GPRESSAVG
ENERGY: 0 0.4731 19.9885 5.4570 0.0000 -10497.1382 1325.8404 0.0000 0.0000 1762.0579 -7383.3213 301.2939 -9145.3792 -7383.3213 301.2939 -788.3852 -706.7655 29964.0454 -788.3852 -706.7655
ENERGY: 300000 3.8307 18.3409 6.0470 0.0000 -10571.5300 1433.8247 0.0000 0.0000 1764.7123 -7344.7742 301.7478 -9109.4866 -7394.3606 300.1857 10.4375 54.9459 30277.6697 -256.1299 -181.2807
ENERGY: 600000 1.9398 16.2345 6.4361 0.0000 -10568.3252 1388.5613 0.0000 0.0000 1763.8698 -7391.2838 301.6037 -9155.1535 -7371.2189 301.7917 -587.8929 -562.7124 30420.5554 -90.2951 -36.8748
ENERGY: 900000 3.0479 16.5164 4.4459 0.0000 -10615.5105 1443.6689 0.0000 0.0000 1778.2886 -7369.5427 304.0692 -9147.8314 -7376.8682 301.3712 236.2720 270.0265 30015.1818 -100.8716 -62.7904
ENERGY: 1200000 2.1001 11.2017 5.4784 0.0000 -10688.7482 1451.7550 0.0000 0.0000 1785.0474 -7433.1656 305.2248 -9218.2130 -7384.4334 301.2514 97.2356 147.6193 29749.7009 -166.6939 -119.4409
ENERGY: 1500000 3.8149 12.1597 4.8124 0.0000 -10646.7510 1495.1518 0.0000 0.0000 1756.8505 -7373.9617 300.4035 -9130.8121 -7377.5940 301.8395 328.3306 462.6623 30355.0643 -91.5668 -36.6400
TCL: Running FEP window   7: Lambda1 0.3    Lambda2 0.35   [dLambda 0.04999999999999999]
TCL: Setting parameter firsttimestep to 0
TCL: Setting parameter alchLambda to 0.3
Info: NONBONDED TABLE R-SQUARED SPACING: 0.0625
Info: NONBONDED TABLE SIZE: 705 POINTS
TCL: Setting parameter alchLambda2 to 0.35
Info: NONBONDED TABLE R-SQUARED SPACING: 0.0625
Info: NONBONDED TABLE SIZE: 705 POINTS
TCL: Running for 1500000 steps
ETITLE: TS BOND ANGLE DIHED IMPRP ELECT VDW BOUNDARY MISC KINETIC TOTAL TEMP POTENTIAL TOTALAVG TEMPAVG PRESSURE GPRESSURE VOLUME PRESSAVG GPRESSAVG
ENERGY: 0 3.8149 12.1597 4.8124 0.0000 -10646.7505 1496.2537 0.0000 0.0000 1755.9638 -7373.7460 300.2518 -9129.7097 -7373.7460 300.2518 390.6700 475.3653 30355.0643 390.6700 475.3653
ENERGY: 300000 0.6489 14.5176 5.1221 0.0000 -10700.3239 1471.6282 0.0000 0.0000 1748.6776 -7459.7295 299.0060 -9208.4071 -7401.0562 298.8899 311.9168 370.1032 30033.6768 60.4598 136.2854
ENERGY: 600000 1.5035 13.7477 6.5800 0.0000 -10525.5148 1397.6579 0.0000 0.0000 1795.7485 -7310.2771 307.0546 -9106.0256 -7390.6405 300.6664 -181.5377 -83.8911 30046.5350 -16.0369 62.8036
ENERGY: 900000 1.6109 9.3679 7.5154 0.0000 -10680.6616 1467.1970 0.0000 0.0000 1750.0172 -7444.9531 299.2350 -9194.9703 -7405.1247 300.8334 235.6586 294.5656 30013.0499 32.1025 98.1696
ENERGY: 1200000 2.0137 11.5810 5.1982 0.0000 -10535.5341 1375.9289 0.0000 0.0000 1815.1894 -7325.6228 310.3788 -9140.8122 -7403.8559 300.9505 -571.1194 -555.5361 30540.6079 -112.2294 -45.3343
ENERGY: 1500000 2.8316 10.7623 5.4008 0.0000 -10744.0284 1468.6312 0.0000 0.0000 1746.9557 -7509.4467 298.7116 -9256.4024 -7413.7083 300.2398 116.5107 206.0937 29674.2938 -115.7432 -55.5720
TCL: Running FEP window   8: Lambda1 0.35   Lambda2 0.39999999999999997 [dLambda 0.04999999999999999]
TCL: Setting parameter firsttimestep to 0
TCL: Setting parameter alchLambda to 0.35
Info: NONBONDED TABLE R-SQUARED SPACING: 0.0625
Info: NONBONDED TABLE SIZE: 705 POINTS
TCL: Setting parameter alchLambda2 to 0.39999999999999997
Info: NONBONDED TABLE R-SQUARED SPACING: 0.0625
Info: NONBONDED TABLE SIZE: 705 POINTS
TCL: Running for 1500000 steps
ETITLE: TS BOND ANGLE DIHED IMPRP ELECT VDW BOUNDARY MISC KINETIC TOTAL TEMP POTENTIAL TOTALAVG TEMPAVG PRESSURE GPRESSURE VOLUME PRESSAVG GPRESSAVG
ENERGY: 0 2.8316 10.7623 5.4008 0.0000 -10744.0282 1468.5346 0.0000 0.0000 1746.0540 -7510.4449 298.5574 -9256.4989 -7510.4449 298.5574 116.8924 209.0813 29674.2938 116.8924 209.0813
ENERGY: 300000 2.4985 15.7682 6.5070 0.0000 -10516.3602 1412.0313 0.0000 0.0000 1815.1079 -7264.4472 310.3649 -9079.5551 -7374.5596 301.8157 -25.6753 15.6567 30387.6682 -47.9093 24.3860
ENERGY: 600000 1.5552 13.4391 4.5459 0.0000 -10491.9488 1376.1862 0.0000 0.0000 1729.1972 -7367.0253 295.6750 -9096.2225 -7388.9568 300.2444 -560.5564 -496.1027 30525.9004 11.5144 80.7515
ENERGY: 900000 3.5211 11.8754 5.2252 0.0000 -10608.1827 1413.4535 0.0000 0.0000 1773.6940 -7400.4134 303.2835 -9174.1074 -7393.3012 300.4426 -116.6203 -89.9291 30041.7851 28.6576 98.3993
ENERGY: 1200000 4.1326 12.0170 8.3690 0.0000 -10592.8760 1408.1938 0.0000 0.0000 1777.4358 -7382.7278 303.9233 -9160.1636 -7403.7133 300.5268 -412.7004 -321.5143 30297.4712 29.6872 101.0609
ENERGY: 1500000 1.8155 20.1806 5.3009 0.0000 -10556.9781 1385.0820 0.0000 0.0000 1741.7691 -7402.8300 297.8247 -9144.5991 -7393.4939 301.5139 -609.0704 -568.6089 30467.8100 -8.5779 60.3063
TCL: Running FEP window   9: Lambda1 0.39999999999999997 Lambda2 0.44999999999999996 [dLambda 0.04999999999999999]
TCL: Setting parameter firsttimestep to 0
TCL: Setting parameter alchLambda to 0.39999999999999997
Info: NONBONDED TABLE R-SQUARED SPACING: 0.0625
Info: NONBONDED TABLE SIZE: 705 POINTS
TCL: Setting parameter alchLambda2 to 0.44999999999999996
Info: NONBONDED TABLE R-SQUARED SPACING: 0.0625
Info: NONBONDED TABLE SIZE: 705 POINTS
TCL: Running for 1500000 steps
ETITLE: TS BOND ANGLE DIHED IMPRP ELECT VDW BOUNDARY MISC KINETIC TOTAL TEMP POTENTIAL TOTALAVG TEMPAVG PRESSURE GPRESSURE VOLUME PRESSAVG GPRESSAVG
ENERGY: 0 1.8155 20.1806 5.3009 0.0000 -10556.9780 1385.5124 0.0000 0.0000 1740.8828 -7403.2859 297.6731 -9144.1687 -7403.2859 297.6731 -631.0526 -555.9566 30467.8100 -631.0526 -555.9566
ENERGY: 300000 1.0530 17.1574 4.0092 0.0000 -10556.8248 1385.0824 0.0000 0.0000 1767.0829 -7382.4398 302.1531 -9149.5227 -7382.1024 298.5066 -330.9433 -185.0278 29954.6534 -85.8124 10.2380
ENERGY: 600000 2.3597 18.9094 4.5624 0.0000 -10624.8289 1426.5326 0.0000 0.0000 1732.8482 -7439.6166 296.2993 -9172.4648 -7402.9036 297.7361 -10.0325 26.8535 29975.6626 37.1850 108.8631
ENERGY: 900000 2.3477 9.6187 9.4900 0.0000 -10596.8475 1399.9760 0.0000 0.0000 1758.8797 -7416.5353 300.7504 -9175.4150 -7390.0635 299.0757 -388.6333 -330.7469 30262.1448 -49.1209 18.9836
ENERGY: 1200000 5.2350 14.8467 6.2868 0.0000 -10742.0634 1521.8683 0.0000 0.0000 1668.1541 -7525.6727 285.2373 -9193.8267 -7407.7443 297.3881 478.7388 520.3302 29957.6367 -6.6692 54.9964
ENERGY: 1500000 2.4625 13.0928 4.3564 0.0000 -10516.8032 1406.7429 0.0000 0.0000 1725.4832 -7364.6653 295.0400 -9090.1486 -7400.9239 297.5523 92.3579 188.2055 29884.3210 34.1534 94.1215
TCL: Running FEP window  10: Lambda1 0.44999999999999996 Lambda2 0.49999999999999994 [dLambda 0.04999999999999999]
TCL: Setting parameter firsttimestep to 0
TCL: Setting parameter alchLambda to 0.44999999999999996
Info: NONBONDED TABLE R-SQUARED SPACING: 0.0625
Info: NONBONDED TABLE SIZE: 705 POINTS
TCL: Setting parameter alchLambda2 to 0.49999999999999994
Info: NONBONDED TABLE R-SQUARED SPACING: 0.0625
Info: NONBONDED TABLE SIZE: 705 POINTS
TCL: Running for 1500000 steps
ETITLE: TS BOND ANGLE DIHED IMPRP ELECT VDW BOUNDARY MISC KINETIC TOTAL TEMP POTENTIAL TOTALAVG TEMPAVG PRESSURE GPRESSURE VOLUME PRESSAVG GPRESSAVG
ENERGY: 0 2.4625 13.0928 4.3564 0.0000 -10516.8025 1407.4620 0.0000 0.0000 1724.5993 -7364.8295 294.8888 -9089.4288 -7364.8295 294.8888 119.9518 201.9982 29884.3210 119.9518 201.9982
ENERGY: 300000 3.6707 13.6387 5.7490 0.0000 -10598.5299 1402.0643 0.0000 0.0000 1733.7907 -7439.6166 296.4605 -9173.4073 -7421.6734 300.1161 -588.5976 -489.4575 30446.6210 -377.5838 -311.2281
ENERGY: 600000 1.3382 19.8861 6.7565 0.0000 -10616.4024 1530.3220 0.0000 0.0000 1771.7913 -7286.3083 302.9582 -9058.0996 -7422.6632 299.0754 982.2651 1031.2840 30338.8544 84.5076 141.2451
ENERGY: 900000 3.5855 10.9384 5.5995 0.0000 -10555.4184 1404.5626 0.0000 0.0000 1722.2563 -7408.4762 294.4882 -9130.7325 -7419.3263 297.9567 92.2548 123.1535 29680.4597 83.6103 129.2432
ENERGY: 1200000 6.7073 12.2011 4.6879 0.0000 -10676.8393 1493.6213 0.0000 0.0000 1781.3810 -7378.2406 304.5979 -9159.6216 -7416.6465 299.6305 663.2461 678.9632 29673.3479 72.4070 119.6861
ENERGY: 1500000 4.9163 14.0031 5.2495 0.0000 -10521.3803 1416.5900 0.0000 0.0000 1800.8424 -7279.7790 307.9256 -9080.6214 -7403.6839 300.5139 -252.6361 -178.3287 30775.3164 8.4532 59.1182
TCL: Running FEP window  11: Lambda1 0.49999999999999994 Lambda2 0.5499999999999999 [dLambda 0.04999999999999999]
TCL: Setting parameter firsttimestep to 0
TCL: Setting parameter alchLambda to 0.49999999999999994
Info: NONBONDED TABLE R-SQUARED SPACING: 0.0625
Info: NONBONDED TABLE SIZE: 705 POINTS
TCL: Setting parameter alchLambda2 to 0.5499999999999999
Info: NONBONDED TABLE R-SQUARED SPACING: 0.0625
Info: NONBONDED TABLE SIZE: 705 POINTS
TCL: Running for 1500000 steps
ETITLE: TS BOND ANGLE DIHED IMPRP ELECT VDW BOUNDARY MISC KINETIC TOTAL TEMP POTENTIAL TOTALAVG TEMPAVG PRESSURE GPRESSURE VOLUME PRESSAVG GPRESSAVG
ENERGY: 0 4.9163 14.0031 5.2495 0.0000 -10521.3796 1417.4553 0.0000 0.0000 1799.9495 -7279.8059 307.7730 -9079.7554 -7279.8059 307.7730 -237.2363 -164.3056 30775.3164 -237.2363 -164.3056
ENERGY: 300000 2.6250 14.5933 5.8674 0.0000 -10670.3573 1450.5967 0.0000 0.0000 1734.9300 -7461.7449 296.6553 -9196.6749 -7398.1178 298.8967 -101.9591 -69.1366 30340.2991 -116.7431 -39.8613
ENERGY: 600000 4.1515 17.9333 5.2296 0.0000 -10507.5067 1376.2269 0.0000 0.0000 1809.6181 -7294.3473 309.4262 -9103.9654 -7385.4162 302.9789 -534.9177 -416.5113 30401.2393 -203.2603 -111.3484
ENERGY: 900000 4.4793 9.7310 6.6783 0.0000 -10476.9770 1346.3535 0.0000 0.0000 1784.4419 -7325.2929 305.1213 -9109.7348 -7384.6728 303.3646 -315.6774 -319.9597 29726.3223 4.6800 81.7118
ENERGY: 1200000 1.8245 18.3182 6.0924 0.0000 -10568.7851 1442.8787 0.0000 0.0000 1820.6269 -7279.0444 311.3086 -9099.6713 -7390.3124 303.2828 242.5351 327.4627 30146.0811 -16.7130 59.5961
ENERGY: 1500000 3.1833 15.7765 6.6881 0.0000 -10564.9063 1408.3219 0.0000 0.0000 1764.4276 -7366.5089 301.6991 -9130.9365 -7393.6669 302.9695 -324.8944 -304.8855 30403.0490 -61.5369 13.0094
TCL: Running FEP window  12: Lambda1 0.5499999999999999 Lambda2 0.6    [dLambda 0.050000000000000044]
TCL: Setting parameter firsttimestep to 0
TCL: Setting parameter alchLambda to 0.5499999999999999
Info: NONBONDED TABLE R-SQUARED SPACING: 0.0625
Info: NONBONDED TABLE SIZE: 705 POINTS
TCL: Setting parameter alchLambda2 to 0.6
Info: NONBONDED TABLE R-SQUARED SPACING: 0.0625
Info: NONBONDED TABLE SIZE: 705 POINTS
TCL: Running for 1500000 steps
ETITLE: TS BOND ANGLE DIHED IMPRP ELECT VDW BOUNDARY MISC KINETIC TOTAL TEMP POTENTIAL TOTALAVG TEMPAVG PRESSURE GPRESSURE VOLUME PRESSAVG GPRESSAVG
ENERGY: 0 3.1833 15.7765 6.6881 0.0000 -10564.8355 1408.5059 0.0000 0.0000 1763.5467 -7367.1349 301.5484 -9130.6817 -7367.1349 301.5484 -369.5510 -294.7352 30403.0490 -369.5510 -294.7352
ENERGY: 300000 2.3984 9.8549 5.3391 0.0000 -10466.7116 1321.6742 0.0000 0.0000 1736.6762 -7390.7688 296.9539 -9127.4450 -7380.7173 299.6907 -751.9035 -676.6656 30395.3416 -372.0827 -316.8690
ENERGY: 600000 2.0254 15.7986 4.8326 0.0000 -10651.6565 1441.9471 0.0000 0.0000 1751.4342 -7435.6186 299.4773 -9187.0528 -7407.2032 298.4863 36.0347 87.0548 30154.8380 -89.6991 -25.6992
ENERGY: 900000 0.7028 14.8511 6.3948 0.0000 -10646.9848 1494.7106 0.0000 0.0000 1752.4908 -7377.8346 299.6580 -9130.3255 -7396.4170 299.0485 765.0885 784.9251 30039.0023 -158.1610 -89.1696
ENERGY: 1200000 1.8466 13.8794 4.9413 0.0000 -10691.1477 1455.5516 0.0000 0.0000 1756.8347 -7458.0940 300.4008 -9214.9288 -7412.2362 298.8140 198.7761 258.9346 29898.3864 0.9926 69.9754
ENERGY: 1500000 4.2461 11.1882 4.2133 0.0000 -10641.9174 1506.3129 0.0000 0.0000 1723.0293 -7392.9277 294.6204 -9115.9569 -7410.7676 298.9276 766.7237 857.4365 29999.5779 -49.4888 19.8067
TCL: Running FEP window  13: Lambda1 0.6    Lambda2 0.65   [dLambda 0.050000000000000044]
TCL: Setting parameter firsttimestep to 0
TCL: Setting parameter alchLambda to 0.6
Info: NONBONDED TABLE R-SQUARED SPACING: 0.0625
Info: NONBONDED TABLE SIZE: 705 POINTS
TCL: Setting parameter alchLambda2 to 0.65
Info: NONBONDED TABLE R-SQUARED SPACING: 0.0625
Info: NONBONDED TABLE SIZE: 705 POINTS
TCL: Running for 1500000 steps
ETITLE: TS BOND ANGLE DIHED IMPRP ELECT VDW BOUNDARY MISC KINETIC TOTAL TEMP POTENTIAL TOTALAVG TEMPAVG PRESSURE GPRESSURE VOLUME PRESSAVG GPRESSAVG
ENERGY: 0 4.2461 11.1882 4.2133 0.0000 -10641.9024 1505.7421 0.0000 0.0000 1722.1547 -7394.3580 294.4708 -9116.5127 -7394.3580 294.4708 775.3397 859.2070 29999.5779 775.3397 859.2070
ENERGY: 300000 2.5710 11.3145 4.1110 0.0000 -10720.6085 1524.9754 0.0000 0.0000 1733.8337 -7443.8029 296.4678 -9177.6366 -7450.9377 294.7606 956.8462 1023.8969 29623.1981 802.0788 870.8475
ENERGY: 600000 2.3453 18.1856 5.5904 0.0000 -10558.9125 1381.3355 0.0000 0.0000 1740.5741 -7410.8815 297.6204 -9151.4556 -7448.3007 295.0618 -276.2434 -188.6424 30156.9439 568.1654 625.6908
ENERGY: 900000 3.6891 12.8309 6.2680 0.0000 -10718.1386 1483.6273 0.0000 0.0000 1743.1340 -7468.5895 298.0581 -9211.7234 -7444.9042 295.8600 271.1218 303.1720 30229.9814 417.8341 473.0109
ENERGY: 1200000 3.4579 16.4939 5.5861 0.0000 -10728.3024 1502.9585 0.0000 0.0000 1712.7964 -7487.0096 292.8707 -9199.8060 -7444.2410 297.8779 359.4410 472.4029 29865.6299 320.2773 387.5398
ENERGY: 1500000 2.7339 10.6001 6.5894 0.0000 -10541.2124 1352.4500 0.0000 0.0000 1711.0407 -7457.7982 292.5705 -9168.8390 -7440.0802 297.9586 -503.0470 -419.4338 29999.4604 254.7347 321.8494
TCL: Running FEP window  14: Lambda1 0.65   Lambda2 0.7000000000000001 [dLambda 0.050000000000000044]
TCL: Setting parameter firsttimestep to 0
TCL: Setting parameter alchLambda to 0.65
Info: NONBONDED TABLE R-SQUARED SPACING: 0.0625
Info: NONBONDED TABLE SIZE: 705 POINTS
TCL: Setting parameter alchLambda2 to 0.7000000000000001
Info: NONBONDED TABLE R-SQUARED SPACING: 0.0625
Info: NONBONDED TABLE SIZE: 705 POINTS
TCL: Running for 1500000 steps
ETITLE: TS BOND ANGLE DIHED IMPRP ELECT VDW BOUNDARY MISC KINETIC TOTAL TEMP POTENTIAL TOTALAVG TEMPAVG PRESSURE GPRESSURE VOLUME PRESSAVG GPRESSAVG
ENERGY: 0 2.7339 10.6001 6.5894 0.0000 -10541.2049 1352.4861 0.0000 0.0000 1710.1463 -7458.6492 292.4175 -9168.7954 -7458.6492 292.4175 -484.9994 -412.2068 29999.4604 -484.9994 -412.2068
ENERGY: 300000 2.2923 10.7740 4.9949 0.0000 -10738.5599 1486.6696 0.0000 0.0000 1742.6334 -7491.1957 297.9725 -9233.8291 -7396.0795 297.9839 249.4698 371.5255 29737.9649 -217.7701 -132.9297
ENERGY: 600000 3.2924 15.6332 5.8084 0.0000 -10681.8626 1468.4830 0.0000 0.0000 1682.6222 -7506.0234 287.7112 -9188.6456 -7428.0668 296.9248 252.4413 286.9878 29828.5935 -69.4921 7.7554
ENERGY: 900000 4.1170 16.6162 4.8816 0.0000 -10559.8630 1465.2971 0.0000 0.0000 1764.0808 -7304.8704 301.6398 -9068.9512 -7417.4412 298.4225 309.3447 365.4108 30361.9196 -68.3169 -0.7289
ENERGY: 1200000 3.3672 12.4282 5.3807 0.0000 -10528.9502 1393.3991 0.0000 0.0000 1742.0493 -7372.3257 297.8726 -9114.3750 -7406.4021 298.9726 -8.9605 27.0882 30017.5205 -50.8961 15.1294
ENERGY: 1500000 3.0844 13.0982 5.2890 0.0000 -10629.8835 1432.1750 0.0000 0.0000 1759.6936 -7416.5432 300.8896 -9176.2368 -7409.3545 298.9158 -229.9290 -203.2058 30432.7504 -54.2479 8.9219
TCL: Running FEP window  15: Lambda1 0.7000000000000001 Lambda2 0.7500000000000001 [dLambda 0.050000000000000044]
TCL: Setting parameter firsttimestep to 0
TCL: Setting parameter alchLambda to 0.7000000000000001
Info: NONBONDED TABLE R-SQUARED SPACING: 0.0625
Info: NONBONDED TABLE SIZE: 705 POINTS
TCL: Setting parameter alchLambda2 to 0.7500000000000001
Info: NONBONDED TABLE R-SQUARED SPACING: 0.0625
Info: NONBONDED TABLE SIZE: 705 POINTS
TCL: Running for 1500000 steps
ETITLE: TS BOND ANGLE DIHED IMPRP ELECT VDW BOUNDARY MISC KINETIC TOTAL TEMP POTENTIAL TOTALAVG TEMPAVG PRESSURE GPRESSURE VOLUME PRESSAVG GPRESSAVG
ENERGY: 0 3.0844 13.0982 5.2890 0.0000 -10629.9258 1432.0712 0.0000 0.0000 1758.7589 -7417.6242 300.7298 -9176.3831 -7417.6242 300.7298 -271.8685 -197.0739 30432.7504 -271.8685 -197.0739
ENERGY: 300000 2.4916 15.1871 5.8275 0.0000 -10560.3892 1421.9598 0.0000 0.0000 1705.1089 -7409.8142 291.5562 -9114.9231 -7405.9810 301.3783 92.1970 168.7039 30181.1524 -205.4040 -120.6810
ENERGY: 600000 1.4042 17.9732 4.1137 0.0000 -10534.4866 1360.5746 0.0000 0.0000 1733.3926 -7417.0282 296.3924 -9150.4208 -7419.1349 298.4946 -364.3947 -302.5760 29986.5204 98.1042 172.1597
ENERGY: 900000 1.9223 23.7751 5.9272 0.0000 -10561.1926 1412.4176 0.0000 0.0000 1713.9251 -7403.2254 293.0637 -9117.1505 -7415.5751 297.4041 -180.3550 -135.1916 30535.0348 126.2556 184.8522
ENERGY: 1200000 3.0782 18.5761 4.6588 0.0000 -10536.5584 1362.3655 0.0000 0.0000 1692.5169 -7455.3631 289.4031 -9147.8799 -7411.4950 297.3922 -718.8564 -654.2856 30534.5078 27.7109 80.8159
ENERGY: 1500000 2.5263 16.7366 5.9988 0.0000 -10490.8687 1391.2257 0.0000 0.0000 1759.5616 -7314.8197 300.8670 -9074.3813 -7406.9518 297.8705 -208.3334 -167.1169 30617.4242 37.3125 83.5571
TCL: Running FEP window  16: Lambda1 0.7500000000000001 Lambda2 0.8000000000000002 [dLambda 0.050000000000000044]
TCL: Setting parameter firsttimestep to 0
TCL: Setting parameter alchLambda to 0.7500000000000001
Info: NONBONDED TABLE R-SQUARED SPACING: 0.0625
Info: NONBONDED TABLE SIZE: 705 POINTS
TCL: Setting parameter alchLambda2 to 0.8000000000000002
Info: NONBONDED TABLE R-SQUARED SPACING: 0.0625
Info: NONBONDED TABLE SIZE: 705 POINTS
TCL: Running for 1500000 steps
ETITLE: TS BOND ANGLE DIHED IMPRP ELECT VDW BOUNDARY MISC KINETIC TOTAL TEMP POTENTIAL TOTALAVG TEMPAVG PRESSURE GPRESSURE VOLUME PRESSAVG GPRESSAVG
ENERGY: 0 2.5263 16.7366 5.9988 0.0000 -10490.9215 1391.4010 0.0000 0.0000 1758.6705 -7315.5884 300.7147 -9074.2588 -7315.5884 300.7147 -250.7009 -154.8490 30617.4242 -250.7009 -154.8490
ENERGY: 300000 2.3343 13.4493 5.4545 0.0000 -10634.1160 1484.2331 0.0000 0.0000 1722.5097 -7406.1352 294.5315 -9128.6449 -7404.7737 297.7405 364.2687 406.4460 30560.2380 40.8624 79.7273
ENERGY: 600000 0.5936 18.2322 5.9869 0.0000 -10614.3463 1422.3410 0.0000 0.0000 1731.4890 -7435.7036 296.0669 -9167.1925 -7393.2726 298.5041 -23.6095 -0.7635 30104.1929 -26.9804 11.7293
ENERGY: 900000 3.7862 15.7610 4.4351 0.0000 -10583.9030 1506.0990 0.0000 0.0000 1760.2443 -7293.5774 300.9838 -9053.8217 -7391.5270 297.9474 733.0576 785.8933 30343.3937 32.1544 74.0661
ENERGY: 1200000 4.7273 13.8237 6.2271 0.0000 -10660.2069 1426.1836 0.0000 0.0000 1740.8131 -7468.4322 297.6612 -9209.2452 -7392.9716 298.5605 -312.1662 -231.5335 30043.5317 8.2477 51.7985
ENERGY: 1500000 2.9728 15.5943 6.9500 0.0000 -10449.4888 1324.3874 0.0000 0.0000 1825.2268 -7274.3576 312.0951 -9099.5844 -7386.7164 299.2141 -834.4620 -784.4212 30547.3828 -22.2107 31.2768
TCL: Running FEP window  17: Lambda1 0.8000000000000002 Lambda2 0.8500000000000002 [dLambda 0.050000000000000044]
TCL: Setting parameter firsttimestep to 0
TCL: Setting parameter alchLambda to 0.8000000000000002
Info: NONBONDED TABLE R-SQUARED SPACING: 0.0625
Info: NONBONDED TABLE SIZE: 705 POINTS
TCL: Setting parameter alchLambda2 to 0.8500000000000002
Info: NONBONDED TABLE R-SQUARED SPACING: 0.0625
Info: NONBONDED TABLE SIZE: 705 POINTS
TCL: Running for 1500000 steps
ETITLE: TS BOND ANGLE DIHED IMPRP ELECT VDW BOUNDARY MISC KINETIC TOTAL TEMP POTENTIAL TOTALAVG TEMPAVG PRESSURE GPRESSURE VOLUME PRESSAVG GPRESSAVG
ENERGY: 0 2.9728 15.5943 6.9500 0.0000 -10449.5049 1325.4989 0.0000 0.0000 1824.3461 -7274.1429 311.9445 -9098.4890 -7274.1429 311.9445 -821.5623 -755.6434 30547.3828 -821.5623 -755.6434
ENERGY: 300000 3.2157 16.4055 4.7659 0.0000 -10578.7375 1396.7099 0.0000 0.0000 1731.4436 -7426.1969 296.0591 -9157.6405 -7390.3922 298.5867 -500.0160 -400.0326 30394.2523 -463.1224 -384.0708
ENERGY: 600000 3.1987 14.5768 6.0056 0.0000 -10636.4901 1457.7716 0.0000 0.0000 1768.0373 -7386.9001 302.3163 -9154.9374 -7395.1240 300.4332 459.1630 573.5323 29748.6803 -113.3547 -48.9452
ENERGY: 900000 4.3072 16.2402 6.3954 0.0000 -10639.7034 1461.9599 0.0000 0.0000 1744.1112 -7406.6895 298.2252 -9150.8007 -7386.8950 300.4343 315.1046 359.0995 30217.3762 40.4627 99.1187
ENERGY: 1200000 2.3270 19.5613 7.6624 0.0000 -10592.9385 1426.9488 0.0000 0.0000 1813.8700 -7322.5690 310.1532 -9136.4390 -7374.8441 301.9071 4.8546 72.3517 30351.2302 23.1835 87.3976
ENERGY: 1500000 2.0299 11.5546 6.6043 0.0000 -10622.6554 1434.3560 0.0000 0.0000 1763.5186 -7404.5921 301.5436 -9168.1106 -7377.3971 302.0922 251.6545 280.7333 29699.8347 15.3016 83.0574
TCL: Running FEP window  18: Lambda1 0.8500000000000002 Lambda2 0.9000000000000002 [dLambda 0.050000000000000044]
TCL: Setting parameter firsttimestep to 0
TCL: Setting parameter alchLambda to 0.8500000000000002
Info: NONBONDED TABLE R-SQUARED SPACING: 0.0625
Info: NONBONDED TABLE SIZE: 705 POINTS
TCL: Setting parameter alchLambda2 to 0.9000000000000002
Info: NONBONDED TABLE R-SQUARED SPACING: 0.0625
Info: NONBONDED TABLE SIZE: 705 POINTS
TCL: Running for 1500000 steps
ETITLE: TS BOND ANGLE DIHED IMPRP ELECT VDW BOUNDARY MISC KINETIC TOTAL TEMP POTENTIAL TOTALAVG TEMPAVG PRESSURE GPRESSURE VOLUME PRESSAVG GPRESSAVG
ENERGY: 0 2.0299 11.5546 6.6043 0.0000 -10622.6830 1435.4690 0.0000 0.0000 1762.6652 -7404.3601 301.3977 -9167.0253 -7404.3601 301.3977 191.9682 306.5336 29699.8347 191.9682 306.5336
ENERGY: 300000 4.0159 11.5121 4.3581 0.0000 -10545.4305 1365.3816 0.0000 0.0000 1706.8449 -7453.3181 291.8530 -9160.1629 -7431.0727 298.4897 -625.2049 -539.9828 30303.9759 94.2362 178.0983
ENERGY: 600000 1.6433 9.9128 4.2370 0.0000 -10616.4884 1420.8728 0.0000 0.0000 1752.6190 -7427.2036 299.6799 -9179.8226 -7443.0732 298.3781 -334.5290 -259.3498 30447.0089 -84.6391 -3.7892
ENERGY: 900000 5.9081 14.6580 6.0553 0.0000 -10638.9431 1396.0526 0.0000 0.0000 1787.6870 -7428.5820 305.6762 -9216.2690 -7435.4025 298.8476 -242.1508 -166.1102 29737.4573 -72.4809 -4.3375
ENERGY: 1200000 1.6407 16.9149 6.3841 0.0000 -10704.3779 1510.7371 0.0000 0.0000 1798.6449 -7370.0561 307.5499 -9168.7010 -7421.6763 299.8213 1070.5847 1073.8635 29578.8538 -30.4291 34.4408
ENERGY: 1500000 5.6674 13.9182 5.1132 0.0000 -10474.5497 1347.1786 0.0000 0.0000 1770.0476 -7332.6247 302.6600 -9102.6723 -7419.8553 299.7601 -744.8656 -650.5173 30492.4443 -110.1584 -44.4717
TCL: Running FEP window  19: Lambda1 0.9000000000000002 Lambda2 0.9500000000000003 [dLambda 0.050000000000000044]
TCL: Setting parameter firsttimestep to 0
TCL: Setting parameter alchLambda to 0.9000000000000002
Info: NONBONDED TABLE R-SQUARED SPACING: 0.0625
Info: NONBONDED TABLE SIZE: 705 POINTS
TCL: Setting parameter alchLambda2 to 0.9500000000000003
Info: NONBONDED TABLE R-SQUARED SPACING: 0.0625
Info: NONBONDED TABLE SIZE: 705 POINTS
TCL: Running for 1500000 steps
ETITLE: TS BOND ANGLE DIHED IMPRP ELECT VDW BOUNDARY MISC KINETIC TOTAL TEMP POTENTIAL TOTALAVG TEMPAVG PRESSURE GPRESSURE VOLUME PRESSAVG GPRESSAVG
ENERGY: 0 5.6674 13.9182 5.1132 0.0000 -10474.5730 1347.1068 0.0000 0.0000 1769.1343 -7333.6330 302.5039 -9102.7674 -7333.6330 302.5039 -716.3327 -639.0330 30492.4443 -716.3327 -639.0330
ENERGY: 300000 4.0862 14.7301 4.5152 0.0000 -10641.3956 1408.1061 0.0000 0.0000 1753.5940 -7456.3639 299.8466 -9209.9580 -7392.2910 302.2407 -527.9629 -514.6651 30582.7306 -312.8210 -269.7022
ENERGY: 600000 2.3141 15.2672 5.2711 0.0000 -10514.0783 1417.1359 0.0000 0.0000 1774.2393 -7299.8507 303.3768 -9074.0900 -7361.9882 303.2661 307.5325 290.0114 30243.3422 -215.6790 -175.5679
ENERGY: 900000 0.3479 15.2414 5.6552 0.0000 -10554.6204 1423.8020 0.0000 0.0000 1760.6204 -7348.9534 301.0481 -9109.5738 -7373.4756 302.1274 61.3362 76.4747 30573.7498 -201.6272 -157.0975
ENERGY: 1200000 1.2097 15.9693 3.1339 0.0000 -10614.5882 1444.1848 0.0000 0.0000 1753.9356 -7396.1549 299.9050 -9150.0905 -7391.6300 301.2403 270.5696 333.2488 30281.9268 -112.7454 -66.4486
ENERGY: 1500000 7.4478 16.5254 6.3396 0.0000 -10737.0955 1499.4814 0.0000 0.0000 1732.4734 -7474.8279 296.2352 -9207.3013 -7390.2993 301.2020 -31.0205 95.7512 30592.1603 -115.0185 -62.2116
TCL: Running FEP window  20: Lambda1 0.9500000000000003 Lambda2 1.0    [dLambda 0.04999999999999971]
TCL: Setting parameter firsttimestep to 0
TCL: Setting parameter alchLambda to 0.9500000000000003
Info: NONBONDED TABLE R-SQUARED SPACING: 0.0625
Info: NONBONDED TABLE SIZE: 705 POINTS
TCL: Setting parameter alchLambda2 to 1.0
Info: NONBONDED TABLE R-SQUARED SPACING: 0.0625
Info: NONBONDED TABLE SIZE: 705 POINTS
TCL: Running for 1500000 steps
ETITLE: TS BOND ANGLE DIHED IMPRP ELECT VDW BOUNDARY MISC KINETIC TOTAL TEMP POTENTIAL TOTALAVG TEMPAVG PRESSURE GPRESSURE VOLUME PRESSAVG GPRESSAVG
ENERGY: 0 7.4478 16.5254 6.3396 0.0000 -10737.0837 1499.2525 0.0000 0.0000 1731.6171 -7475.9014 296.0888 -9207.5185 -7475.9014 296.0888 13.1132 104.9608 30592.1603 13.1132 104.9608
ENERGY: 300000 5.7741 13.9292 4.6317 0.0000 -10636.6757 1456.0840 0.0000 0.0000 1796.6216 -7359.6350 307.2039 -9156.2566 -7419.9455 300.3367 246.4552 336.0522 30243.4599 249.7951 331.3028
ENERGY: 600000 1.3452 7.6429 5.5061 0.0000 -10669.1839 1396.4389 0.0000 0.0000 1754.4312 -7503.8195 299.9898 -9258.2508 -7418.2827 299.8382 -284.7508 -228.1074 29920.0395 215.0745 286.0778
ENERGY: 900000 4.2348 11.0540 6.0410 0.0000 -10599.1428 1426.7162 0.0000 0.0000 1742.4693 -7408.6275 297.9444 -9151.0968 -7406.3503 300.6255 -401.1533 -270.6102 30860.7537 208.8068 286.3888
ENERGY: 1200000 2.9264 13.9239 4.1187 0.0000 -10611.6491 1365.7860 0.0000 0.0000 1716.8428 -7508.0512 293.5626 -9224.8940 -7414.2150 299.9757 -877.8632 -817.0113 30417.8476 98.7431 171.8146
ENERGY: 1500000 1.8534 10.6921 5.6347 0.0000 -10566.0593 1413.9413 0.0000 0.0000 1762.5157 -7371.4220 301.3721 -9133.9377 -7409.9051 300.0137 -188.8170 -121.8881 30601.2358 157.9349 230.5561
TCL: Exiting due to exit command.
