Info: SIMULATION PARAMETERS:
Info: TIMESTEP               2
Info: NUMBER OF STEPS        0
Info: STEPS PER CYCLE        10
Info: PERIODIC CELL BASIS 1  31.688 0 0
Info: PERIODIC CELL BASIS 2  0 29.5203 0
Info: PERIODIC CELL BASIS 3  0 0 31.8588
Info: PERIODIC CELL CENTER   0 0 0
Info: WRAPPING WATERS AROUND PERIODIC BOUNDARIES ON OUTPUT.
Info: WRAPPING ALL CLUSTERS AROUND PERIODIC BOUNDARIES ON OUTPUT.
Info: FIRST LDB TIMESTEP     50
Info: LAST LDB TIMESTEP     -1
Info: HOM BACKGROUND SCALING 1
Info: PME BACKGROUND SCALING 1
Info: MIN ATOMS PER PATCH    40
Info: EMPTY PATCH LOAD       40 ATOMS
Info: VELOCITY FILE          mobley_7573149_equil.vel
Info: CENTER OF MASS MOVING INITIALLY? NO
Info: DIELECTRIC             1
Info: EXCLUDE                SCALED ONE-FOUR
Info: 1-4 ELECTROSTATICS SCALED BY 0.833333
Info: MODIFIED 1-4 VDW PARAMETERS WILL BE USED
Info: DCD FILENAME           mobley_7573149_prod.dcd
Info: DCD FREQUENCY          100000
Info: DCD FIRST STEP         100000
Info: DCD FILE WILL CONTAIN UNIT CELL DATA
Info: XST FILENAME           mobley_7573149_prod.xst
Info: XST FREQUENCY          100000
Info: NO VELOCITY DCD OUTPUT
Info: NO FORCE DCD OUTPUT
Info: OUTPUT FILENAME        mobley_7573149_prod
Info: BINARY OUTPUT FILES WILL BE USED
Info: RESTART FILENAME       mobley_7573149_prod.restart
Info: RESTART FREQUENCY      100000
Info: BINARY RESTART FILES WILL BE USED
Info: CUTOFF                 9
Info: PAIRLIST DISTANCE      11
Info: PAIRLIST SHRINK RATE   0.01
Info: PAIRLIST GROW RATE     0.01
Info: PAIRLIST TRIGGER       0.3
Info: PAIRLISTS PER CYCLE    2
Info: PAIRLISTS ENABLED
Info: MARGIN                 2
Info: HYDROGEN GROUP CUTOFF  2.5
Info: PATCH DIMENSION        15.5
Info: ENERGY OUTPUT STEPS    100000
Info: ENERGY EVALUATION STEPS    100000
Info: OUTPUT ENERGY PRECISION 4
Info: CROSSTERM ENERGY INCLUDED IN DIHEDRAL
Info: TIMING OUTPUT STEPS    1000000
Info: PRESSURE OUTPUT STEPS  100000
Info: ALCHEMICAL FEP ON
Info: FEP CURRENT LAMBDA VALUE     0
Info: FEP COMPARISON LAMBDA VALUE  0.05
Info: FEP INTRA-ALCHEMICAL NON-BONDED INTERACTIONS WILL BE RETAINED
Info: FEP INTRA-ALCHEMICAL BONDED INTERACTIONS WILL BE RETAINED
Info: FEP VDW SHIFTING COEFFICIENT 5
Info: FEP ELEC. ACTIVE FOR ANNIHILATED PARTICLES BETWEEN LAMBDA = 0 AND LAMBDA = 0.5
Info: FEP ELEC. ACTIVE FOR EXNIHILATED PARTICLES BETWEEN LAMBDA = 0.5 AND LAMBDA = 1
Info: FEP VDW ACTIVE FOR ANNIHILATED PARTICLES BETWEEN LAMBDA = 0 AND LAMBDA = 1
Info: FEP VDW ACTIVE FOR EXNIHILATED PARTICLES BETWEEN LAMBDA = 0 AND LAMBDA = 1
Info: FEP BOND ACTIVE FOR ANNIHILATED PARTICLES BETWEEN LAMBDA = 1 AND LAMBDA = 1
Info: FEP BOND ACTIVE FOR EXNIHILATED PARTICLES BETWEEN LAMBDA = 0 AND LAMBDA = 0
Info: LANGEVIN DYNAMICS ACTIVE
Info: LANGEVIN TEMPERATURE   300
Info: LANGEVIN USING BBK INTEGRATOR
Info: LANGEVIN DAMPING COEFFICIENT IS 1 INVERSE PS
Info: LANGEVIN DYNAMICS APPLIED TO HYDROGENS
Info: LANGEVIN PISTON PRESSURE CONTROL ACTIVE
Info:        TARGET PRESSURE IS 1.01325 BAR
Info:     OSCILLATION PERIOD IS 50 FS
Info:             DECAY TIME IS 25 FS
Info:     PISTON TEMPERATURE IS 300 K
Info:       PRESSURE CONTROL IS GROUP-BASED
Info:    INITIAL STRAIN RATE IS 0.000541906 0.000541906 0.000541906
Info:       CELL FLUCTUATION IS ISOTROPIC
Info: PARTICLE MESH EWALD (PME) ACTIVE
Info: PME TOLERANCE               1e-06
Info: PME EWALD COEFFICIENT       0.348832
Info: PME INTERPOLATION ORDER     4
Info: PME GRID DIMENSIONS         32 32 32
Info: PME MAXIMUM GRID SPACING    1
Info: PME CALCULATION WILL BE PERFORMED ON GPU
Info: FULL ELECTROSTATIC EVALUATION FREQUENCY      2
Info: USING VERLET I (r-RESPA) MTS SCHEME.
Info: C1 SPLITTING OF LONG RANGE ELECTROSTATICS
Info: PLACING ATOMS IN PATCHES BY HYDROGEN GROUPS
Info: RIGID BONDS TO HYDROGEN : ALL
Info:         ERROR TOLERANCE : 1e-08
Info:          MAX ITERATIONS : 100
Info: RIGID WATER USING SETTLE ALGORITHM
Info: RANDOM NUMBER SEED     1743848608
Info: USE HYDROGEN BONDS?    NO
Info: Using AMBER format force field!
Info: AMBER PARM FILE        mobley_7573149.prmtop
Info: COORDINATE PDB         mobley_7573149.pdb
Info: Exclusions will be read from PARM file!
Info: SCNB (VDW SCALING)     2
Info: USING ARITHMETIC MEAN TO COMBINE L-J SIGMA PARAMETERS
Info: BINARY COORDINATES     mobley_7573149_equil.coor
Info: SUMMARY OF PARAMETERS:
Info: 9 BONDS
Info: 12 ANGLES
Info:   12 HARMONIC
Info:   0 COSINE-BASED
Info: 17 DIHEDRAL
Info: 0 IMPROPER
Info: 0 CROSSTERM
Info: 0 VDW
Info: 36 VDW_PAIRS
Info: 0 NBTHOLE_PAIRS
Info: To read alchdata from file: mobley_7573149.pdb
Info: To read alchflag data from column: 5
Info: STRUCTURE SUMMARY:
Info: 2915 ATOMS
Info: 2914 BONDS
Info: 28 ANGLES
Info: 42 DIHEDRALS
Info: 0 IMPROPERS
Info: 0 CROSSTERMS
Info: 2971 EXCLUSIONS
Info: 2908 RIGID BONDS
Info: ALCH: 0 ATOMS TO DISAPPEAR IN FINAL STATE
Info: ALCH: 17 ATOMS TO APPEAR IN FINAL STATE
Info: 5837 DEGREES OF FREEDOM
Info: 973 HYDROGEN GROUPS
Info: 4 ATOMS IN LARGEST HYDROGEN GROUP
Info: 973 MIGRATION GROUPS
Info: 4 ATOMS IN LARGEST MIGRATION GROUP
Info: TOTAL MASS = 17505.6 amu
Info: TOTAL CHARGE = -9.99682e-05 e
Info: MASS DENSITY = 0.975418 g/cm^3
Info: ATOM DENSITY = 0.0978123 atoms/A^3
Info: ADDED 0 IMPLICIT EXCLUSIONS
Info: NONBONDED TABLE R-SQUARED SPACING: 0.0625
Info: NONBONDED TABLE SIZE: 705 POINTS
Info: REMOVING COM VELOCITY 0.0303913 0.0784145 -0.0800762
Info: Use 3D box decompostion in PME FFT.
Info: Updated CUDA force table with 4096 elements.
Info: Updated CUDA LJ table with 8 x 8 elements.
Info: Found 20 unique exclusion lists needing 48 bytes
TCL: Running for 1500000 steps
ETITLE: TS BOND ANGLE DIHED IMPRP ELECT VDW BOUNDARY MISC KINETIC TOTAL TEMP POTENTIAL TOTALAVG TEMPAVG PRESSURE GPRESSURE VOLUME PRESSAVG GPRESSAVG
ENERGY: 0 2.0457 7.1834 6.0169 0.0000 -10642.2104 1450.4315 0.0000 0.0000 1774.2136 -7402.3193 305.9191 -9176.5329 -7402.3193 305.9191 23.0631 123.2922 29801.9931 23.0631 123.2922
ENERGY: 300000 1.2832 5.3927 6.8046 0.0000 -10697.0638 1473.9111 0.0000 0.0000 1743.2858 -7466.3864 300.5864 -9209.6722 -7426.2670 299.7325 517.3564 552.8336 29412.7484 198.5701 276.0958
ENERGY: 600000 1.4506 3.6322 5.9179 0.0000 -10600.7147 1391.4652 0.0000 0.0000 1783.8514 -7414.3974 307.5809 -9198.2488 -7413.7821 299.9911 -278.1581 -178.7988 29783.2226 104.8156 187.4837
ENERGY: 900000 5.0699 7.9037 5.6115 0.0000 -10661.7511 1567.0931 0.0000 0.0000 1736.2724 -7339.8004 299.3771 -9076.0729 -7405.5956 299.9744 1151.7914 1163.1054 29970.8031 303.3775 372.0770
ENERGY: 1200000 4.1979 8.6286 7.5161 0.0000 -10476.0629 1353.1444 0.0000 0.0000 1703.3364 -7399.2396 293.6981 -9102.5760 -7402.1457 299.6862 -744.7789 -671.7443 30078.9333 226.8655 292.7946
ENERGY: 1500000 3.6490 11.7717 6.2378 0.0000 -10516.9216 1391.5127 0.0000 0.0000 1684.4435 -7419.3069 290.4405 -9103.7504 -7400.4515 299.5221 -191.9834 -162.4059 29637.5631 169.9969 233.0938
TCL: Running FEP window   2: Lambda1 0.05   Lambda2 0.1    [dLambda 0.05  ]
TCL: Setting parameter firsttimestep to 0
TCL: Setting parameter alchLambda to 0.05
Info: NONBONDED TABLE R-SQUARED SPACING: 0.0625
Info: NONBONDED TABLE SIZE: 705 POINTS
TCL: Setting parameter alchLambda2 to 0.1
Info: NONBONDED TABLE R-SQUARED SPACING: 0.0625
Info: NONBONDED TABLE SIZE: 705 POINTS
TCL: Running for 1500000 steps
ETITLE: TS BOND ANGLE DIHED IMPRP ELECT VDW BOUNDARY MISC KINETIC TOTAL TEMP POTENTIAL TOTALAVG TEMPAVG PRESSURE GPRESSURE VOLUME PRESSAVG GPRESSAVG
ENERGY: 0 3.6489 11.7717 6.2378 0.0000 -10516.9230 1393.6538 0.0000 0.0000 1683.6208 -7417.9899 290.2986 -9101.6107 -7417.9899 290.2986 -235.3253 -156.1844 29637.5631 -235.3253 -156.1844
ENERGY: 300000 2.3009 7.3754 5.8241 0.0000 -10567.8157 1400.3426 0.0000 0.0000 1774.9635 -7377.0092 306.0484 -9151.9727 -7407.0649 298.1522 -349.3423 -332.8039 29980.7770 -111.6604 -67.9049
ENERGY: 600000 0.7152 11.8028 6.0721 0.0000 -10578.0434 1465.2449 0.0000 0.0000 1741.8252 -7352.3831 300.3345 -9094.2083 -7391.6629 298.7847 432.2428 478.3005 29953.8860 -211.9845 -174.4094
ENERGY: 900000 1.6540 4.2731 5.0834 0.0000 -10693.5195 1498.0013 0.0000 0.0000 1731.7527 -7452.7551 298.5978 -9184.5078 -7416.9474 298.2502 190.1967 321.8017 30103.4778 -190.9339 -149.5242
ENERGY: 1200000 1.0860 3.7597 5.7205 0.0000 -10608.2669 1469.6589 0.0000 0.0000 1714.2301 -7413.8117 295.5764 -9128.0418 -7413.5241 298.7796 323.4676 415.3764 29944.4877 -73.8750 -26.4129
ENERGY: 1500000 1.1339 6.8248 7.3831 0.0000 -10552.9871 1400.7833 0.0000 0.0000 1733.7681 -7403.0940 298.9453 -9136.8621 -7418.9654 298.2494 -212.9953 -132.7007 29838.4888 -73.4147 -26.0632
TCL: Running FEP window   3: Lambda1 0.1    Lambda2 0.15000000000000002 [dLambda 0.05000000000000002]
TCL: Setting parameter firsttimestep to 0
TCL: Setting parameter alchLambda to 0.1
Info: NONBONDED TABLE R-SQUARED SPACING: 0.0625
Info: NONBONDED TABLE SIZE: 705 POINTS
TCL: Setting parameter alchLambda2 to 0.15000000000000002
Info: NONBONDED TABLE R-SQUARED SPACING: 0.0625
Info: NONBONDED TABLE SIZE: 705 POINTS
TCL: Running for 1500000 steps
ETITLE: TS BOND ANGLE DIHED IMPRP ELECT VDW BOUNDARY MISC KINETIC TOTAL TEMP POTENTIAL TOTALAVG TEMPAVG PRESSURE GPRESSURE VOLUME PRESSAVG GPRESSAVG
ENERGY: 0 1.1339 6.8248 7.3831 0.0000 -10552.9869 1402.9156 0.0000 0.0000 1732.8999 -7401.8297 298.7956 -9134.7297 -7401.8297 298.7956 -221.6149 -125.3709 29838.4888 -221.6149 -125.3709
ENERGY: 300000 0.9817 9.7967 6.4072 0.0000 -10552.0899 1385.8518 0.0000 0.0000 1744.9832 -7404.0693 300.8790 -9149.0525 -7389.2402 302.1011 -511.0780 -447.2060 30206.4479 -114.7789 -47.9312
ENERGY: 600000 1.3347 6.7441 7.1442 0.0000 -10622.7251 1434.0886 0.0000 0.0000 1784.1854 -7389.2280 307.6385 -9173.4135 -7397.1054 302.6357 -86.6112 -40.4033 29928.2856 -116.3639 -47.2428
ENERGY: 900000 3.0280 11.3645 8.2858 0.0000 -10740.5767 1527.0337 0.0000 0.0000 1722.4510 -7468.4137 296.9939 -9190.8648 -7403.6550 302.5187 665.6292 709.1923 29643.3646 -112.2618 -45.4464
ENERGY: 1200000 2.1489 5.6234 6.1863 0.0000 -10649.5935 1469.5964 0.0000 0.0000 1719.4001 -7446.6383 296.4679 -9166.0384 -7419.4817 300.8619 192.9985 239.6823 29895.8423 -141.4297 -85.3856
ENERGY: 1500000 0.6744 5.2959 4.8617 0.0000 -10588.3937 1435.4417 0.0000 0.0000 1749.1008 -7393.0192 301.5890 -9142.1199 -7418.3778 300.4209 257.6804 305.1707 29510.5804 -81.7231 -30.9179
TCL: Running FEP window   4: Lambda1 0.15000000000000002 Lambda2 0.2    [dLambda 0.04999999999999999]
TCL: Setting parameter firsttimestep to 0
TCL: Setting parameter alchLambda to 0.15000000000000002
Info: NONBONDED TABLE R-SQUARED SPACING: 0.0625
Info: NONBONDED TABLE SIZE: 705 POINTS
TCL: Setting parameter alchLambda2 to 0.2
Info: NONBONDED TABLE R-SQUARED SPACING: 0.0625
Info: NONBONDED TABLE SIZE: 705 POINTS
TCL: Running for 1500000 steps
ETITLE: TS BOND ANGLE DIHED IMPRP ELECT VDW BOUNDARY MISC KINETIC TOTAL TEMP POTENTIAL TOTALAVG TEMPAVG PRESSURE GPRESSURE VOLUME PRESSAVG GPRESSAVG
ENERGY: 0 0.6744 5.2959 4.8617 0.0000 -10588.3960 1435.5564 0.0000 0.0000 1748.2303 -7393.7772 301.4389 -9142.0075 -7393.7772 301.4389 214.9506 307.9522 29510.5804 214.9506 307.9522
ENERGY: 300000 3.4192 9.1308 6.1548 0.0000 -10634.4828 1472.3373 0.0000 0.0000 1756.0233 -7387.4174 302.7826 -9143.4407 -7361.6882 300.4049 408.7503 433.5433 29757.2627 120.0856 186.3797
ENERGY: 600000 5.9018 9.0788 5.5771 0.0000 -10565.1826 1443.1976 0.0000 0.0000 1753.1583 -7348.2689 302.2886 -9101.4272 -7379.6740 301.2862 298.2438 406.3198 30006.7135 34.0165 119.0820
ENERGY: 900000 1.4564 4.8141 5.9603 0.0000 -10674.6685 1508.2522 0.0000 0.0000 1741.3107 -7412.8746 300.2458 -9154.1854 -7392.8042 301.5733 522.2590 537.4088 29725.8497 122.0857 197.0316
ENERGY: 1200000 0.9867 8.2046 8.5801 0.0000 -10662.3453 1442.4088 0.0000 0.0000 1702.3869 -7499.7783 293.5344 -9202.1653 -7392.7618 301.7899 -27.4315 -6.4123 29680.0202 138.3647 205.0417
ENERGY: 1500000 1.0564 3.3528 4.8576 0.0000 -10548.8667 1390.5711 0.0000 0.0000 1735.2126 -7413.8162 299.1943 -9149.0288 -7390.8694 301.8909 -558.1382 -436.2113 30084.8357 80.0783 149.8758
TCL: Running FEP window   5: Lambda1 0.2    Lambda2 0.25   [dLambda 0.04999999999999999]
TCL: Setting parameter firsttimestep to 0
TCL: Setting parameter alchLambda to 0.2
Info: NONBONDED TABLE R-SQUARED SPACING: 0.0625
Info: NONBONDED TABLE SIZE: 705 POINTS
TCL: Setting parameter alchLambda2 to 0.25
Info: NONBONDED TABLE R-SQUARED SPACING: 0.0625
Info: NONBONDED TABLE SIZE: 705 POINTS
TCL: Running for 1500000 steps
ETITLE: TS BOND ANGLE DIHED IMPRP ELECT VDW BOUNDARY MISC KINETIC TOTAL TEMP POTENTIAL TOTALAVG TEMPAVG PRESSURE GPRESSURE VOLUME PRESSAVG GPRESSAVG
ENERGY: 0 1.0564 3.3528 4.8576 0.0000 -10548.8661 1391.8209 0.0000 0.0000 1734.3293 -7413.4491 299.0420 -9147.7784 -7413.4491 299.0420 -524.4015 -427.2811 30084.8357 -524.4015 -427.2811
ENERGY: 300000 0.7326 8.3246 5.7147 0.0000 -10573.1964 1416.5079 0.0000 0.0000 1697.8944 -7444.0223 292.7598 -9141.9167 -7417.9618 298.0429 7.3718 39.2884 29985.3526 -274.9021 -225.5460
ENERGY: 600000 1.7135 5.4937 8.0919 0.0000 -10545.8299 1375.3829 0.0000 0.0000 1766.9216 -7388.2263 304.6618 -9155.1479 -7395.4027 301.2190 -456.2728 -366.0271 29997.7117 -104.1719 -55.6172
ENERGY: 900000 1.3275 5.6515 6.0579 0.0000 -10772.4319 1589.2315 0.0000 0.0000 1752.3788 -7417.7847 302.1542 -9170.1635 -7386.9159 301.4273 1120.7128 1149.3095 29939.4793 -81.3852 -33.6445
ENERGY: 1200000 1.3909 7.1456 5.9884 0.0000 -10531.8849 1482.1181 0.0000 0.0000 1742.9747 -7292.2672 300.5327 -9035.2419 -7373.0331 301.2135 716.3584 806.9697 29692.7582 -82.0322 -25.9875
ENERGY: 1500000 1.7794 8.2003 5.3319 0.0000 -10636.2349 1463.1521 0.0000 0.0000 1707.9282 -7449.8430 294.4898 -9157.7712 -7385.3609 301.4230 372.7309 424.2300 29733.5539 -50.5864 8.0990
TCL: Running FEP window   6: Lambda1 0.25   Lambda2 0.3    [dLambda 0.04999999999999999]
TCL: Setting parameter firsttimestep to 0
TCL: Setting parameter alchLambda to 0.25
Info: NONBONDED TABLE R-SQUARED SPACING: 0.0625
Info: NONBONDED TABLE SIZE: 705 POINTS
TCL: Setting parameter alchLambda2 to 0.3
Info: NONBONDED TABLE R-SQUARED SPACING: 0.0625
Info: NONBONDED TABLE SIZE: 705 POINTS
TCL: Running for 1500000 steps
ETITLE: TS BOND ANGLE DIHED IMPRP ELECT VDW BOUNDARY MISC KINETIC TOTAL TEMP POTENTIAL TOTALAVG TEMPAVG PRESSURE GPRESSURE VOLUME PRESSAVG GPRESSAVG
ENERGY: 0 1.7794 8.2003 5.3319 0.0000 -10636.2350 1464.6094 0.0000 0.0000 1707.0943 -7449.2195 294.3461 -9156.3139 -7449.2195 294.3461 364.0037 433.5551 29733.5539 364.0037 433.5551
ENERGY: 300000 4.4873 7.4164 7.8615 0.0000 -10602.5824 1403.4791 0.0000 0.0000 1749.5423 -7429.7958 301.6652 -9179.3381 -7398.6813 301.3051 -224.4283 -123.2255 29655.3685 -11.3468 74.6139
ENERGY: 600000 2.2249 5.8106 5.4643 0.0000 -10437.6153 1361.0922 0.0000 0.0000 1770.4467 -7292.5766 305.2696 -9063.0234 -7390.4869 302.1108 -192.2908 -182.7771 30241.1088 -63.0843 1.1705
ENERGY: 900000 1.8022 4.4151 7.1374 0.0000 -10584.8464 1433.7396 0.0000 0.0000 1776.0750 -7361.6771 306.2401 -9137.7522 -7388.8154 301.9364 260.3421 293.8375 29773.2033 -131.7796 -61.9778
ENERGY: 1200000 3.1332 9.5549 5.4977 0.0000 -10361.3817 1304.2034 0.0000 0.0000 1688.4814 -7350.5111 291.1367 -9038.9925 -7369.4724 301.7787 -848.9949 -731.0255 29855.9974 -118.3022 -42.7562
ENERGY: 1500000 0.5895 8.0526 5.4218 0.0000 -10574.4524 1364.7049 0.0000 0.0000 1697.1600 -7498.5235 292.6331 -9195.6835 -7384.0962 301.7383 -970.9301 -932.7456 30327.9419 -204.5148 -129.9199
TCL: Running FEP window   7: Lambda1 0.3    Lambda2 0.35   [dLambda 0.04999999999999999]
TCL: Setting parameter firsttimestep to 0
TCL: Setting parameter alchLambda to 0.3
Info: NONBONDED TABLE R-SQUARED SPACING: 0.0625
Info: NONBONDED TABLE SIZE: 705 POINTS
TCL: Setting parameter alchLambda2 to 0.35
Info: NONBONDED TABLE R-SQUARED SPACING: 0.0625
Info: NONBONDED TABLE SIZE: 705 POINTS
TCL: Running for 1500000 steps
ETITLE: TS BOND ANGLE DIHED IMPRP ELECT VDW BOUNDARY MISC KINETIC TOTAL TEMP POTENTIAL TOTALAVG TEMPAVG PRESSURE GPRESSURE VOLUME PRESSAVG GPRESSAVG
ENERGY: 0 0.5895 8.0526 5.4218 0.0000 -10574.4522 1364.4130 0.0000 0.0000 1696.3004 -7499.6749 292.4849 -9195.9753 -7499.6749 292.4849 -1005.3098 -930.4837 30327.9419 -1005.3098 -930.4837
ENERGY: 300000 0.6644 7.6264 6.8597 0.0000 -10528.5688 1358.9655 0.0000 0.0000 1778.9709 -7375.4819 306.7394 -9154.4528 -7418.4769 303.0290 -636.7752 -553.9763 30253.8961 -256.1630 -198.6129
ENERGY: 600000 1.5095 9.2795 5.0035 0.0000 -10613.0099 1449.7397 0.0000 0.0000 1709.3597 -7438.1179 294.7367 -9147.4777 -7414.1202 300.6282 219.4643 331.0369 29713.6184 -190.8574 -131.7831
ENERGY: 900000 1.2729 2.7570 6.6036 0.0000 -10621.5620 1437.0327 0.0000 0.0000 1716.1521 -7457.7437 295.9078 -9173.8959 -7422.1691 299.7176 29.2792 117.5908 29685.4899 -208.1639 -143.5942
ENERGY: 1200000 2.1934 9.5132 5.5979 0.0000 -10632.3864 1440.0886 0.0000 0.0000 1752.9826 -7422.0108 302.2583 -9174.9933 -7415.1091 300.6418 99.3532 121.6350 29624.3853 -147.2357 -88.1480
ENERGY: 1500000 2.2817 7.4368 6.2231 0.0000 -10631.3679 1429.5177 0.0000 0.0000 1735.7534 -7450.1553 299.2876 -9185.9086 -7413.1502 300.9437 -226.1793 -215.2480 30063.1124 -135.6157 -76.7710
TCL: Running FEP window   8: Lambda1 0.35   Lambda2 0.39999999999999997 [dLambda 0.04999999999999999]
TCL: Setting parameter firsttimestep to 0
TCL: Setting parameter alchLambda to 0.35
Info: NONBONDED TABLE R-SQUARED SPACING: 0.0625
Info: NONBONDED TABLE SIZE: 705 POINTS
TCL: Setting parameter alchLambda2 to 0.39999999999999997
Info: NONBONDED TABLE R-SQUARED SPACING: 0.0625
Info: NONBONDED TABLE SIZE: 705 POINTS
TCL: Running for 1500000 steps
ETITLE: TS BOND ANGLE DIHED IMPRP ELECT VDW BOUNDARY MISC KINETIC TOTAL TEMP POTENTIAL TOTALAVG TEMPAVG PRESSURE GPRESSURE VOLUME PRESSAVG GPRESSAVG
ENERGY: 0 2.2817 7.4368 6.2231 0.0000 -10631.3673 1429.2259 0.0000 0.0000 1734.9095 -7451.2902 299.1421 -9186.1997 -7451.2902 299.1421 -285.0300 -212.1905 30063.1124 -285.0300 -212.1905
ENERGY: 300000 2.2383 13.5925 5.8034 0.0000 -10680.4351 1454.8789 0.0000 0.0000 1734.8167 -7469.1053 299.1261 -9203.9220 -7425.6444 298.1133 112.2616 159.1162 29780.6637 -246.1364 -194.5199
ENERGY: 600000 1.1582 9.1996 5.2662 0.0000 -10688.8953 1495.2666 0.0000 0.0000 1743.2864 -7434.7183 300.5865 -9178.0047 -7428.5136 299.0353 543.3488 599.1494 29735.1698 -11.0913 52.4528
ENERGY: 900000 1.4870 10.7780 5.9196 0.0000 -10628.3351 1508.5989 0.0000 0.0000 1732.3358 -7369.2158 298.6983 -9101.5516 -7423.0252 298.8075 768.0200 803.1866 30108.4128 54.8316 113.3672
ENERGY: 1200000 2.6458 6.3900 6.3192 0.0000 -10595.3327 1466.0555 0.0000 0.0000 1743.7626 -7370.1596 300.6686 -9113.9221 -7410.1789 299.1795 560.8352 644.0070 29493.8053 93.5026 149.6451
ENERGY: 1500000 3.7001 9.5136 5.6156 0.0000 -10679.1857 1462.9297 0.0000 0.0000 1744.8173 -7452.6094 300.8504 -9197.4267 -7407.1379 299.2147 220.9497 254.1056 29856.7100 93.9945 151.6375
TCL: Running FEP window   9: Lambda1 0.39999999999999997 Lambda2 0.44999999999999996 [dLambda 0.04999999999999999]
TCL: Setting parameter firsttimestep to 0
TCL: Setting parameter alchLambda to 0.39999999999999997
Info: NONBONDED TABLE R-SQUARED SPACING: 0.0625
Info: NONBONDED TABLE SIZE: 705 POINTS
TCL: Setting parameter alchLambda2 to 0.44999999999999996
Info: NONBONDED TABLE R-SQUARED SPACING: 0.0625
Info: NONBONDED TABLE SIZE: 705 POINTS
TCL: Running for 1500000 steps
ETITLE: TS BOND ANGLE DIHED IMPRP ELECT VDW BOUNDARY MISC KINETIC TOTAL TEMP POTENTIAL TOTALAVG TEMPAVG PRESSURE GPRESSURE VOLUME PRESSAVG GPRESSAVG
ENERGY: 0 3.7001 9.5136 5.6156 0.0000 -10679.1856 1463.1271 0.0000 0.0000 1743.9719 -7453.2573 300.7047 -9197.2292 -7453.2573 300.7047 182.5940 261.3870 29856.7100 182.5940 261.3870
ENERGY: 300000 0.8280 8.2296 5.7335 0.0000 -10463.1027 1327.7677 0.0000 0.0000 1756.6544 -7363.8895 302.8915 -9120.5440 -7353.0439 302.4249 -721.3479 -681.8800 30306.6305 -139.7443 -89.9022
ENERGY: 600000 1.0692 7.2351 5.2680 0.0000 -10535.9822 1455.5024 0.0000 0.0000 1756.6738 -7310.2338 302.8948 -9066.9076 -7358.8353 301.8174 325.6187 379.9289 30313.8020 -105.7855 -48.6745
ENERGY: 900000 1.9925 5.8887 4.3325 0.0000 -10638.9245 1447.5536 0.0000 0.0000 1772.7049 -7406.4523 305.6590 -9179.1572 -7370.6928 302.3079 341.3071 423.1737 29707.1147 -42.8467 18.7296
ENERGY: 1200000 1.4911 7.2545 5.7288 0.0000 -10673.6725 1504.8467 0.0000 0.0000 1699.4594 -7454.8920 293.0296 -9154.3513 -7394.2390 300.2673 484.7268 590.8038 30105.0139 136.4596 202.9419
ENERGY: 1500000 1.0156 5.4562 6.1827 0.0000 -10579.4802 1405.1363 0.0000 0.0000 1741.3615 -7420.3278 300.2546 -9161.6893 -7401.0958 300.1770 -400.9212 -345.3179 30337.7585 95.9723 162.2043
TCL: Running FEP window  10: Lambda1 0.44999999999999996 Lambda2 0.49999999999999994 [dLambda 0.04999999999999999]
TCL: Setting parameter firsttimestep to 0
TCL: Setting parameter alchLambda to 0.44999999999999996
Info: NONBONDED TABLE R-SQUARED SPACING: 0.0625
Info: NONBONDED TABLE SIZE: 705 POINTS
TCL: Setting parameter alchLambda2 to 0.49999999999999994
Info: NONBONDED TABLE R-SQUARED SPACING: 0.0625
Info: NONBONDED TABLE SIZE: 705 POINTS
TCL: Running for 1500000 steps
ETITLE: TS BOND ANGLE DIHED IMPRP ELECT VDW BOUNDARY MISC KINETIC TOTAL TEMP POTENTIAL TOTALAVG TEMPAVG PRESSURE GPRESSURE VOLUME PRESSAVG GPRESSAVG
ENERGY: 0 1.0156 5.4562 6.1827 0.0000 -10579.4794 1405.5322 0.0000 0.0000 1740.4729 -7420.8198 300.1014 -9161.2927 -7420.8198 300.1014 -417.0686 -338.6924 30337.7585 -417.0686 -338.6924
ENERGY: 300000 0.5296 4.2611 6.4149 0.0000 -10623.2019 1436.4942 0.0000 0.0000 1724.1970 -7451.3051 297.2950 -9175.5021 -7394.3753 303.0269 -60.3299 28.9830 30212.7349 -397.7556 -337.3385
ENERGY: 600000 1.3277 5.4255 6.2181 0.0000 -10627.9646 1459.1394 0.0000 0.0000 1761.7030 -7394.1509 303.7620 -9155.8539 -7397.1665 300.6554 388.3971 434.2237 29900.3882 -149.0611 -82.6937
ENERGY: 900000 2.0292 7.6146 5.5045 0.0000 -10540.2155 1415.6584 0.0000 0.0000 1814.4628 -7294.9459 312.8591 -9109.4088 -7396.0547 301.1158 76.4539 146.1490 29738.5270 -176.0209 -109.7138
ENERGY: 1200000 0.8980 5.4794 5.1761 0.0000 -10630.9044 1462.3852 0.0000 0.0000 1723.8881 -7433.0776 297.2417 -9156.9657 -7402.9459 300.0255 236.8761 326.6535 29788.7769 -170.7318 -95.6234
ENERGY: 1500000 1.4399 8.1916 8.1288 0.0000 -10616.9517 1444.1140 0.0000 0.0000 1790.8223 -7364.2550 308.7829 -9155.0774 -7398.7263 301.3963 406.8072 453.3711 29552.5426 -122.4324 -51.3516
TCL: Running FEP window  11: Lambda1 0.49999999999999994 Lambda2 0.5499999999999999 [dLambda 0.04999999999999999]
TCL: Setting parameter firsttimestep to 0
TCL: Setting parameter alchLambda to 0.49999999999999994
Info: NONBONDED TABLE R-SQUARED SPACING: 0.0625
Info: NONBONDED TABLE SIZE: 705 POINTS
TCL: Setting parameter alchLambda2 to 0.5499999999999999
Info: NONBONDED TABLE R-SQUARED SPACING: 0.0625
Info: NONBONDED TABLE SIZE: 705 POINTS
TCL: Running for 1500000 steps
ETITLE: TS BOND ANGLE DIHED IMPRP ELECT VDW BOUNDARY MISC KINETIC TOTAL TEMP POTENTIAL TOTALAVG TEMPAVG PRESSURE GPRESSURE VOLUME PRESSAVG GPRESSAVG
ENERGY: 0 1.4399 8.1916 8.1288 0.0000 -10616.9523 1444.5482 0.0000 0.0000 1789.9452 -7364.6986 308.6316 -9154.6438 -7364.6986 308.6316 386.5891 461.6682 29552.5426 386.5891 461.6682
ENERGY: 300000 1.8514 8.3694 4.7084 0.0000 -10681.2574 1412.5740 0.0000 0.0000 1714.2708 -7539.4833 295.5835 -9253.7542 -7444.1929 300.2100 -405.3325 -271.7055 29802.6421 -105.9439 -17.5963
ENERGY: 600000 2.3239 6.5103 5.5549 0.0000 -10456.4149 1321.3499 0.0000 0.0000 1715.8724 -7404.8034 295.8596 -9120.6758 -7435.8335 298.7734 -939.1742 -955.2869 30519.3957 -341.8460 -274.2447
ENERGY: 900000 0.3322 6.3005 8.3664 0.0000 -10726.6088 1553.8982 0.0000 0.0000 1736.8826 -7420.8289 299.4823 -9157.7115 -7440.8646 297.4042 1262.7290 1282.6067 29540.8229 -139.5108 -79.5907
ENERGY: 1200000 0.6528 5.5658 5.2730 0.0000 -10573.9705 1400.3952 0.0000 0.0000 1723.6989 -7438.3848 297.2091 -9162.0836 -7436.6050 297.8878 -285.2014 -279.2684 30096.3396 -132.6545 -72.9316
ENERGY: 1500000 1.0390 6.9049 5.3850 0.0000 -10588.5517 1402.4559 0.0000 0.0000 1683.0351 -7489.7317 290.1976 -9172.7668 -7429.1282 298.0075 -364.2978 -304.5496 30019.0074 -106.4141 -39.7030
TCL: Running FEP window  12: Lambda1 0.5499999999999999 Lambda2 0.6    [dLambda 0.050000000000000044]
TCL: Setting parameter firsttimestep to 0
TCL: Setting parameter alchLambda to 0.5499999999999999
Info: NONBONDED TABLE R-SQUARED SPACING: 0.0625
Info: NONBONDED TABLE SIZE: 705 POINTS
TCL: Setting parameter alchLambda2 to 0.6
Info: NONBONDED TABLE R-SQUARED SPACING: 0.0625
Info: NONBONDED TABLE SIZE: 705 POINTS
TCL: Running for 1500000 steps
ETITLE: TS BOND ANGLE DIHED IMPRP ELECT VDW BOUNDARY MISC KINETIC TOTAL TEMP POTENTIAL TOTALAVG TEMPAVG PRESSURE GPRESSURE VOLUME PRESSAVG GPRESSAVG
ENERGY: 0 1.0390 6.9049 5.3850 0.0000 -10588.4633 1402.6610 0.0000 0.0000 1682.1351 -7490.3383 290.0425 -9172.4734 -7490.3383 290.0425 -368.7013 -296.8966 30019.0074 -368.7013 -296.8966
ENERGY: 300000 4.9579 7.5615 6.9975 0.0000 -10580.9928 1411.2257 0.0000 0.0000 1750.4893 -7399.7609 301.8284 -9150.2502 -7469.4436 296.4498 -310.7003 -308.0621 30225.0900 -488.2069 -432.4707
ENERGY: 600000 2.4224 4.2978 4.9668 0.0000 -10430.4788 1298.3017 0.0000 0.0000 1793.2380 -7327.2521 309.1994 -9120.4901 -7418.0613 301.4763 -926.1071 -840.4801 30168.0638 -345.9282 -288.7575
ENERGY: 900000 2.8401 6.4150 5.3413 0.0000 -10459.3430 1340.5802 0.0000 0.0000 1735.8639 -7368.3024 299.3067 -9104.1663 -7412.0483 301.0717 -667.0235 -617.1685 30263.5999 -334.4620 -283.5025
ENERGY: 1200000 0.8826 8.4196 5.6790 0.0000 -10556.8941 1416.8732 0.0000 0.0000 1765.9496 -7359.0900 304.4942 -9125.0396 -7411.1155 300.5699 -34.3477 35.8529 30139.3703 -227.4555 -165.1008
ENERGY: 1500000 0.9525 13.9447 5.4999 0.0000 -10778.8142 1553.7855 0.0000 0.0000 1745.8178 -7458.8137 301.0230 -9204.6315 -7409.9370 300.7856 1041.8719 1107.3786 29619.3209 -59.8600 1.5484
TCL: Running FEP window  13: Lambda1 0.6    Lambda2 0.65   [dLambda 0.050000000000000044]
TCL: Setting parameter firsttimestep to 0
TCL: Setting parameter alchLambda to 0.6
Info: NONBONDED TABLE R-SQUARED SPACING: 0.0625
Info: NONBONDED TABLE SIZE: 705 POINTS
TCL: Setting parameter alchLambda2 to 0.65
Info: NONBONDED TABLE R-SQUARED SPACING: 0.0625
Info: NONBONDED TABLE SIZE: 705 POINTS
TCL: Running for 1500000 steps
ETITLE: TS BOND ANGLE DIHED IMPRP ELECT VDW BOUNDARY MISC KINETIC TOTAL TEMP POTENTIAL TOTALAVG TEMPAVG PRESSURE GPRESSURE VOLUME PRESSAVG GPRESSAVG
ENERGY: 0 0.9525 13.9447 5.4999 0.0000 -10778.6089 1554.5924 0.0000 0.0000 1744.9642 -7458.6553 300.8758 -9203.6194 -7458.6553 300.8758 1048.9132 1123.8922 29619.3209 1048.9132 1123.8922
ENERGY: 300000 2.5993 6.0525 5.8249 0.0000 -10613.3244 1526.6497 0.0000 0.0000 1730.6904 -7341.5075 298.4146 -9072.1979 -7423.6755 296.6129 852.1613 972.9987 30183.9903 1040.1773 1126.5629
ENERGY: 600000 0.5556 7.4343 4.9373 0.0000 -10608.4810 1426.2783 0.0000 0.0000 1723.1602 -7446.1153 297.1162 -9169.2754 -7428.2501 295.9951 -224.4181 -163.3548 30320.9106 442.0346 514.7992
ENERGY: 900000 1.7593 9.2410 5.0792 0.0000 -10462.3203 1326.3276 0.0000 0.0000 1734.6337 -7385.2795 299.0945 -9119.9132 -7415.5937 296.5008 -821.5374 -752.1953 30117.8398 266.8957 334.4501
ENERGY: 1200000 1.2954 4.7966 5.7399 0.0000 -10633.3769 1448.8166 0.0000 0.0000 1774.5898 -7398.1385 305.9840 -9172.7283 -7410.3901 298.5106 178.8081 206.3217 29958.4624 122.8500 193.3802
ENERGY: 1500000 0.5703 8.2196 8.3249 0.0000 -10506.3818 1389.0462 0.0000 0.0000 1700.5620 -7399.6589 293.2197 -9100.2209 -7414.4297 298.5674 -228.9924 -108.9946 30050.2856 80.8033 147.6289
TCL: Running FEP window  14: Lambda1 0.65   Lambda2 0.7000000000000001 [dLambda 0.050000000000000044]
TCL: Setting parameter firsttimestep to 0
TCL: Setting parameter alchLambda to 0.65
Info: NONBONDED TABLE R-SQUARED SPACING: 0.0625
Info: NONBONDED TABLE SIZE: 705 POINTS
TCL: Setting parameter alchLambda2 to 0.7000000000000001
Info: NONBONDED TABLE R-SQUARED SPACING: 0.0625
Info: NONBONDED TABLE SIZE: 705 POINTS
TCL: Running for 1500000 steps
ETITLE: TS BOND ANGLE DIHED IMPRP ELECT VDW BOUNDARY MISC KINETIC TOTAL TEMP POTENTIAL TOTALAVG TEMPAVG PRESSURE GPRESSURE VOLUME PRESSAVG GPRESSAVG
ENERGY: 0 0.5703 8.2196 8.3249 0.0000 -10506.9988 1389.6966 0.0000 0.0000 1699.7148 -7400.4727 293.0736 -9100.1875 -7400.4727 293.0736 -164.8907 -97.5042 30050.2856 -164.8907 -97.5042
ENERGY: 300000 3.2709 4.7650 5.4666 0.0000 -10524.9472 1382.6225 0.0000 0.0000 1750.7360 -7378.0863 301.8710 -9128.8223 -7379.1187 300.3256 -235.5777 -162.7899 30126.0565 7.3433 67.2421
ENERGY: 600000 1.3248 5.1736 6.0844 0.0000 -10488.4069 1396.9172 0.0000 0.0000 1734.3917 -7344.5152 299.0528 -9078.9069 -7380.1961 300.2952 -14.4478 106.8579 29852.8486 -108.2874 -30.0083
ENERGY: 900000 1.4353 6.8164 3.9855 0.0000 -10585.7061 1451.5697 0.0000 0.0000 1741.6882 -7380.2110 300.3109 -9121.8991 -7378.6153 301.1312 548.0465 603.0659 29809.6039 -38.9813 29.2626
ENERGY: 1200000 1.6633 8.7142 5.7504 0.0000 -10605.3976 1433.5494 0.0000 0.0000 1736.9769 -7418.7434 299.4986 -9155.7203 -7381.9432 300.2787 147.5879 114.5492 29855.6507 -48.6780 13.4891
ENERGY: 1500000 0.4343 6.6158 6.1523 0.0000 -10527.6193 1366.8341 0.0000 0.0000 1745.0127 -7402.5700 300.8841 -9147.5827 -7393.9552 300.3692 -524.5300 -478.4158 30306.9613 -71.7304 -3.6098
TCL: Running FEP window  15: Lambda1 0.7000000000000001 Lambda2 0.7500000000000001 [dLambda 0.050000000000000044]
TCL: Setting parameter firsttimestep to 0
TCL: Setting parameter alchLambda to 0.7000000000000001
Info: NONBONDED TABLE R-SQUARED SPACING: 0.0625
Info: NONBONDED TABLE SIZE: 705 POINTS
TCL: Setting parameter alchLambda2 to 0.7500000000000001
Info: NONBONDED TABLE R-SQUARED SPACING: 0.0625
Info: NONBONDED TABLE SIZE: 705 POINTS
TCL: Running for 1500000 steps
ETITLE: TS BOND ANGLE DIHED IMPRP ELECT VDW BOUNDARY MISC KINETIC TOTAL TEMP POTENTIAL TOTALAVG TEMPAVG PRESSURE GPRESSURE VOLUME PRESSAVG GPRESSAVG
ENERGY: 0 0.4343 6.6158 6.1523 0.0000 -10528.2350 1367.0388 0.0000 0.0000 1744.1554 -7403.8383 300.7363 -9147.9937 -7403.8383 300.7363 -549.5007 -468.7803 30306.9613 -549.5007 -468.7803
ENERGY: 300000 2.2202 8.7701 5.5348 0.0000 -10700.0121 1463.9433 0.0000 0.0000 1802.0289 -7417.5147 310.7152 -9219.5436 -7449.0371 301.1473 225.3927 341.6125 29594.7834 -3.5477 51.9105
ENERGY: 600000 0.5368 8.9607 5.5042 0.0000 -10412.6600 1349.4832 0.0000 0.0000 1752.4658 -7295.7094 302.1692 -9048.1752 -7409.0491 302.1378 -333.4683 -279.5426 30474.2600 -23.4571 29.8355
ENERGY: 900000 2.2252 6.1908 6.2123 0.0000 -10517.0077 1487.4379 0.0000 0.0000 1776.9040 -7238.0375 306.3830 -9014.9415 -7389.2740 302.1694 545.2384 691.7779 30511.5404 154.5017 213.6186
ENERGY: 1200000 0.9688 6.3868 4.1591 0.0000 -10558.7934 1384.1905 0.0000 0.0000 1710.5517 -7452.5365 294.9422 -9163.0882 -7396.0000 302.1356 -401.1142 -328.5894 30125.3973 6.7443 71.0519
ENERGY: 1500000 3.4796 6.7190 6.3288 0.0000 -10498.8440 1383.2009 0.0000 0.0000 1729.2855 -7369.8301 298.1724 -9099.1157 -7386.1750 302.5999 -301.1153 -286.5921 30088.0429 15.2062 75.8875
TCL: Running FEP window  16: Lambda1 0.7500000000000001 Lambda2 0.8000000000000002 [dLambda 0.050000000000000044]
TCL: Setting parameter firsttimestep to 0
TCL: Setting parameter alchLambda to 0.7500000000000001
Info: NONBONDED TABLE R-SQUARED SPACING: 0.0625
Info: NONBONDED TABLE SIZE: 705 POINTS
TCL: Setting parameter alchLambda2 to 0.8000000000000002
Info: NONBONDED TABLE R-SQUARED SPACING: 0.0625
Info: NONBONDED TABLE SIZE: 705 POINTS
TCL: Running for 1500000 steps
ETITLE: TS BOND ANGLE DIHED IMPRP ELECT VDW BOUNDARY MISC KINETIC TOTAL TEMP POTENTIAL TOTALAVG TEMPAVG PRESSURE GPRESSURE VOLUME PRESSAVG GPRESSAVG
ENERGY: 0 3.4796 6.7190 6.3288 0.0000 -10500.0834 1384.9505 0.0000 0.0000 1728.4060 -7370.1995 298.0207 -9098.6056 -7370.1995 298.0207 -332.2124 -262.7713 30088.0429 -332.2124 -262.7713
ENERGY: 300000 1.3767 6.9442 5.7300 0.0000 -10496.0108 1429.5394 0.0000 0.0000 1745.6856 -7306.7349 301.0002 -9052.4205 -7393.8731 299.7837 10.9562 55.2784 30461.1218 266.6896 334.0587
ENERGY: 600000 1.3972 6.3382 6.5301 0.0000 -10588.9713 1359.0396 0.0000 0.0000 1715.3009 -7500.3653 295.7611 -9215.6662 -7409.8372 300.2224 -621.0525 -520.0866 29834.4791 1.7621 74.6309
ENERGY: 900000 0.6667 5.4772 5.1835 0.0000 -10559.7189 1450.9309 0.0000 0.0000 1676.2910 -7421.1696 289.0348 -9097.4606 -7423.7625 298.9168 634.0695 659.4172 29650.4941 102.6310 164.5294
ENERGY: 1200000 0.8756 8.7692 5.0902 0.0000 -10481.7589 1396.8473 0.0000 0.0000 1784.9932 -7285.1833 307.7778 -9070.1765 -7400.6114 300.1692 -136.4167 -169.8646 30482.2642 15.1803 65.5767
ENERGY: 1500000 2.3308 6.8790 6.2224 0.0000 -10594.6977 1422.7270 0.0000 0.0000 1770.2299 -7386.3086 305.2322 -9156.5386 -7395.1481 300.6243 67.3250 114.5580 29957.4492 32.9495 89.1753
TCL: Running FEP window  17: Lambda1 0.8000000000000002 Lambda2 0.8500000000000002 [dLambda 0.050000000000000044]
TCL: Setting parameter firsttimestep to 0
TCL: Setting parameter alchLambda to 0.8000000000000002
Info: NONBONDED TABLE R-SQUARED SPACING: 0.0625
Info: NONBONDED TABLE SIZE: 705 POINTS
TCL: Setting parameter alchLambda2 to 0.8500000000000002
Info: NONBONDED TABLE R-SQUARED SPACING: 0.0625
Info: NONBONDED TABLE SIZE: 705 POINTS
TCL: Running for 1500000 steps
ETITLE: TS BOND ANGLE DIHED IMPRP ELECT VDW BOUNDARY MISC KINETIC TOTAL TEMP POTENTIAL TOTALAVG TEMPAVG PRESSURE GPRESSURE VOLUME PRESSAVG GPRESSAVG
ENERGY: 0 2.3308 6.8790 6.2224 0.0000 -10595.7443 1424.4386 0.0000 0.0000 1769.3828 -7386.4907 305.0862 -9155.8735 -7386.4907 305.0862 50.6595 142.9588 29957.4492 50.6595 142.9588
ENERGY: 300000 1.2692 5.0666 5.3593 0.0000 -10749.2457 1517.7822 0.0000 0.0000 1717.4543 -7502.3141 296.1324 -9219.7684 -7427.3288 299.5439 693.2373 823.5421 29738.5505 148.4441 241.9179
ENERGY: 600000 1.5257 6.3404 5.8350 0.0000 -10583.1130 1417.7082 0.0000 0.0000 1717.4259 -7434.2778 296.1275 -9151.7037 -7423.5621 298.3512 34.4110 74.0598 29879.6534 142.5644 227.2207
ENERGY: 900000 3.0213 9.0634 4.6554 0.0000 -10581.9729 1365.3633 0.0000 0.0000 1715.6291 -7484.2404 295.8177 -9199.8695 -7425.1689 299.1438 -581.2378 -584.9015 30147.7357 -117.9804 -43.9185
ENERGY: 1200000 2.9841 6.5781 5.6730 0.0000 -10475.7904 1428.2275 0.0000 0.0000 1748.2787 -7284.0491 301.4473 -9032.3278 -7411.7030 299.6459 106.9858 192.7583 30470.0954 -103.6703 -32.0082
ENERGY: 1500000 2.0102 4.9393 5.5792 0.0000 -10706.4127 1471.8325 0.0000 0.0000 1767.3979 -7454.6535 304.7439 -9222.0514 -7423.8669 298.7227 288.4310 323.5398 29759.4825 -101.7011 -30.5473
TCL: Running FEP window  18: Lambda1 0.8500000000000002 Lambda2 0.9000000000000002 [dLambda 0.050000000000000044]
TCL: Setting parameter firsttimestep to 0
TCL: Setting parameter alchLambda to 0.8500000000000002
Info: NONBONDED TABLE R-SQUARED SPACING: 0.0625
Info: NONBONDED TABLE SIZE: 705 POINTS
TCL: Setting parameter alchLambda2 to 0.9000000000000002
Info: NONBONDED TABLE R-SQUARED SPACING: 0.0625
Info: NONBONDED TABLE SIZE: 705 POINTS
TCL: Running for 1500000 steps
ETITLE: TS BOND ANGLE DIHED IMPRP ELECT VDW BOUNDARY MISC KINETIC TOTAL TEMP POTENTIAL TOTALAVG TEMPAVG PRESSURE GPRESSURE VOLUME PRESSAVG GPRESSAVG
ENERGY: 0 2.0102 4.9393 5.5792 0.0000 -10707.3264 1471.9973 0.0000 0.0000 1766.5242 -7456.2762 304.5932 -9222.8004 -7456.2762 304.5932 265.2187 338.0666 29759.4825 265.2187 338.0666
ENERGY: 300000 1.8908 8.7260 4.9896 0.0000 -10464.7721 1337.9540 0.0000 0.0000 1725.3460 -7385.8658 297.4931 -9111.2117 -7374.5710 302.9998 -701.6492 -649.1074 30312.5304 -317.9665 -250.8498
ENERGY: 600000 3.4613 4.5523 5.0691 0.0000 -10566.7553 1425.8494 0.0000 0.0000 1751.3263 -7376.4967 301.9728 -9127.8231 -7377.5618 301.0810 68.1729 117.4190 29985.1460 -363.7928 -299.9101
ENERGY: 900000 0.9384 5.0757 6.9261 0.0000 -10500.8637 1446.2927 0.0000 0.0000 1726.8633 -7314.7675 297.7547 -9041.6309 -7375.8841 300.6996 312.8507 392.8935 30445.2220 -180.1078 -110.4872
ENERGY: 1200000 3.1105 12.2333 5.8683 0.0000 -10697.6085 1493.7342 0.0000 0.0000 1721.2377 -7461.4245 296.7847 -9182.6622 -7385.5636 299.7065 657.6667 697.2125 29458.7340 -135.0444 -68.5874
ENERGY: 1500000 3.0161 5.7087 4.2280 0.0000 -10589.7760 1404.8031 0.0000 0.0000 1770.8165 -7401.2036 305.3334 -9172.0201 -7386.9748 300.4092 -257.0286 -172.4292 30032.0370 -107.8362 -42.2649
TCL: Running FEP window  19: Lambda1 0.9000000000000002 Lambda2 0.9500000000000003 [dLambda 0.050000000000000044]
TCL: Setting parameter firsttimestep to 0
TCL: Setting parameter alchLambda to 0.9000000000000002
Info: NONBONDED TABLE R-SQUARED SPACING: 0.0625
Info: NONBONDED TABLE SIZE: 705 POINTS
TCL: Setting parameter alchLambda2 to 0.9500000000000003
Info: NONBONDED TABLE R-SQUARED SPACING: 0.0625
Info: NONBONDED TABLE SIZE: 705 POINTS
TCL: Running for 1500000 steps
ETITLE: TS BOND ANGLE DIHED IMPRP ELECT VDW BOUNDARY MISC KINETIC TOTAL TEMP POTENTIAL TOTALAVG TEMPAVG PRESSURE GPRESSURE VOLUME PRESSAVG GPRESSAVG
ENERGY: 0 3.0162 5.7087 4.2280 0.0000 -10590.6237 1405.1483 0.0000 0.0000 1769.9796 -7402.5429 305.1891 -9172.5226 -7402.5429 305.1891 -239.9649 -154.7667 30032.0370 -239.9649 -154.7667
ENERGY: 300000 3.7162 8.3289 5.2512 0.0000 -10501.5555 1334.3253 0.0000 0.0000 1769.9544 -7379.9796 305.1847 -9149.9340 -7392.5115 302.7262 -677.9644 -642.8885 29794.1657 -332.0246 -286.9389
ENERGY: 600000 2.5325 3.5106 4.9521 0.0000 -10587.3815 1392.5049 0.0000 0.0000 1727.3671 -7456.5141 297.8416 -9183.8812 -7415.7584 302.7525 -14.8032 -43.4683 29543.8995 -343.5741 -309.5978
ENERGY: 900000 1.7354 5.2919 6.8191 0.0000 -10575.1344 1364.3988 0.0000 0.0000 1757.3240 -7439.5652 303.0069 -9196.8891 -7411.1843 302.8292 -414.5382 -393.0337 29738.8230 -344.8552 -297.6841
ENERGY: 1200000 1.4509 4.7076 5.6063 0.0000 -10559.5761 1444.4770 0.0000 0.0000 1732.5381 -7370.7962 298.7332 -9103.3343 -7408.6305 302.1519 259.1878 308.6589 30189.1064 -230.3826 -176.1891
ENERGY: 1500000 0.9233 6.8188 5.4271 0.0000 -10399.7043 1268.6423 0.0000 0.0000 1698.6560 -7419.2367 292.8911 -9117.8928 -7409.3096 301.7014 -1005.9811 -912.4647 29913.4396 -203.2988 -143.3983
TCL: Running FEP window  20: Lambda1 0.9500000000000003 Lambda2 1.0    [dLambda 0.04999999999999971]
TCL: Setting parameter firsttimestep to 0
TCL: Setting parameter alchLambda to 0.9500000000000003
Info: NONBONDED TABLE R-SQUARED SPACING: 0.0625
Info: NONBONDED TABLE SIZE: 705 POINTS
TCL: Setting parameter alchLambda2 to 1.0
Info: NONBONDED TABLE R-SQUARED SPACING: 0.0625
Info: NONBONDED TABLE SIZE: 705 POINTS
TCL: Running for 1500000 steps
ETITLE: TS BOND ANGLE DIHED IMPRP ELECT VDW BOUNDARY MISC KINETIC TOTAL TEMP POTENTIAL TOTALAVG TEMPAVG PRESSURE GPRESSURE VOLUME PRESSAVG GPRESSAVG
ENERGY: 0 0.9233 6.8188 5.4271 0.0000 -10401.2423 1269.4221 0.0000 0.0000 1697.7816 -7420.8693 292.7403 -9118.6509 -7420.8693 292.7403 -990.0479 -893.7062 29913.4396 -990.0479 -893.7062
ENERGY: 300000 1.6666 5.5508 4.8075 0.0000 -10468.0546 1338.4327 0.0000 0.0000 1739.8225 -7377.7745 299.9892 -9117.5970 -7396.6669 297.9228 -476.8461 -438.1813 30367.6200 -466.3459 -419.6913
ENERGY: 600000 2.3517 9.0266 6.3299 0.0000 -10458.3144 1376.4194 0.0000 0.0000 1754.1538 -7310.0331 302.4603 -9064.1869 -7369.2188 299.2457 -290.3820 -165.5316 30399.8288 -409.1388 -341.2025
ENERGY: 900000 3.9508 7.0945 6.0334 0.0000 -10575.2828 1409.7088 0.0000 0.0000 1708.3311 -7440.1642 294.5593 -9148.4953 -7400.9393 297.6229 -245.6239 -215.8877 30394.6778 -312.4793 -244.7755
ENERGY: 1200000 0.6091 5.5571 5.7398 0.0000 -10513.4060 1415.9572 0.0000 0.0000 1763.8282 -7321.7147 304.1284 -9085.5429 -7391.7303 298.1527 -55.7077 2.5973 30741.0138 -207.0276 -134.7923
ENERGY: 1500000 1.9547 6.7811 5.6538 0.0000 -10532.5478 1362.8561 0.0000 0.0000 1711.7419 -7443.5602 295.1474 -9155.3021 -7399.1090 297.2904 -263.4082 -195.0894 29746.6377 -133.7853 -63.0430
TCL: Exiting due to exit command.
