Info: SIMULATION PARAMETERS:
Info: TIMESTEP               2
Info: NUMBER OF STEPS        0
Info: STEPS PER CYCLE        10
Info: PERIODIC CELL BASIS 1  29.2444 0 0
Info: PERIODIC CELL BASIS 2  0 30.2604 0
Info: PERIODIC CELL BASIS 3  0 0 34.7143
Info: PERIODIC CELL CENTER   0 0 0
Info: WRAPPING WATERS AROUND PERIODIC BOUNDARIES ON OUTPUT.
Info: WRAPPING ALL CLUSTERS AROUND PERIODIC BOUNDARIES ON OUTPUT.
Info: FIRST LDB TIMESTEP     50
Info: LAST LDB TIMESTEP     -1
Info: HOM BACKGROUND SCALING 1
Info: PME BACKGROUND SCALING 1
Info: MIN ATOMS PER PATCH    40
Info: EMPTY PATCH LOAD       40 ATOMS
Info: VELOCITY FILE          mobley_49274_equil.vel
Info: CENTER OF MASS MOVING INITIALLY? NO
Info: DIELECTRIC             1
Info: EXCLUDE                SCALED ONE-FOUR
Info: 1-4 ELECTROSTATICS SCALED BY 0.833333
Info: MODIFIED 1-4 VDW PARAMETERS WILL BE USED
Info: DCD FILENAME           mobley_49274_prod.dcd
Info: DCD FREQUENCY          100000
Info: DCD FIRST STEP         100000
Info: DCD FILE WILL CONTAIN UNIT CELL DATA
Info: XST FILENAME           mobley_49274_prod.xst
Info: XST FREQUENCY          100000
Info: NO VELOCITY DCD OUTPUT
Info: NO FORCE DCD OUTPUT
Info: OUTPUT FILENAME        mobley_49274_prod
Info: BINARY OUTPUT FILES WILL BE USED
Info: RESTART FILENAME       mobley_49274_prod.restart
Info: RESTART FREQUENCY      100000
Info: BINARY RESTART FILES WILL BE USED
Info: CUTOFF                 9
Info: PAIRLIST DISTANCE      11
Info: PAIRLIST SHRINK RATE   0.01
Info: PAIRLIST GROW RATE     0.01
Info: PAIRLIST TRIGGER       0.3
Info: PAIRLISTS PER CYCLE    2
Info: PAIRLISTS ENABLED
Info: MARGIN                 2
Info: HYDROGEN GROUP CUTOFF  2.5
Info: PATCH DIMENSION        15.5
Info: ENERGY OUTPUT STEPS    100000
Info: ENERGY EVALUATION STEPS    100000
Info: OUTPUT ENERGY PRECISION 4
Info: CROSSTERM ENERGY INCLUDED IN DIHEDRAL
Info: TIMING OUTPUT STEPS    1000000
Info: PRESSURE OUTPUT STEPS  100000
Info: ALCHEMICAL FEP ON
Info: FEP CURRENT LAMBDA VALUE     0
Info: FEP COMPARISON LAMBDA VALUE  0.05
Info: FEP INTRA-ALCHEMICAL NON-BONDED INTERACTIONS WILL BE RETAINED
Info: FEP INTRA-ALCHEMICAL BONDED INTERACTIONS WILL BE RETAINED
Info: FEP VDW SHIFTING COEFFICIENT 5
Info: FEP ELEC. ACTIVE FOR ANNIHILATED PARTICLES BETWEEN LAMBDA = 0 AND LAMBDA = 0.5
Info: FEP ELEC. ACTIVE FOR EXNIHILATED PARTICLES BETWEEN LAMBDA = 0.5 AND LAMBDA = 1
Info: FEP VDW ACTIVE FOR ANNIHILATED PARTICLES BETWEEN LAMBDA = 0 AND LAMBDA = 1
Info: FEP VDW ACTIVE FOR EXNIHILATED PARTICLES BETWEEN LAMBDA = 0 AND LAMBDA = 1
Info: FEP BOND ACTIVE FOR ANNIHILATED PARTICLES BETWEEN LAMBDA = 1 AND LAMBDA = 1
Info: FEP BOND ACTIVE FOR EXNIHILATED PARTICLES BETWEEN LAMBDA = 0 AND LAMBDA = 0
Info: LANGEVIN DYNAMICS ACTIVE
Info: LANGEVIN TEMPERATURE   300
Info: LANGEVIN USING BBK INTEGRATOR
Info: LANGEVIN DAMPING COEFFICIENT IS 1 INVERSE PS
Info: LANGEVIN DYNAMICS APPLIED TO HYDROGENS
Info: LANGEVIN PISTON PRESSURE CONTROL ACTIVE
Info:        TARGET PRESSURE IS 1.01325 BAR
Info:     OSCILLATION PERIOD IS 50 FS
Info:             DECAY TIME IS 25 FS
Info:     PISTON TEMPERATURE IS 300 K
Info:       PRESSURE CONTROL IS GROUP-BASED
Info:    INITIAL STRAIN RATE IS 0.000587949 0.000587949 0.000587949
Info:       CELL FLUCTUATION IS ISOTROPIC
Info: PARTICLE MESH EWALD (PME) ACTIVE
Info: PME TOLERANCE               1e-06
Info: PME EWALD COEFFICIENT       0.348832
Info: PME INTERPOLATION ORDER     4
Info: PME GRID DIMENSIONS         32 32 36
Info: PME MAXIMUM GRID SPACING    1
Info: PME CALCULATION WILL BE PERFORMED ON GPU
Info: FULL ELECTROSTATIC EVALUATION FREQUENCY      2
Info: USING VERLET I (r-RESPA) MTS SCHEME.
Info: C1 SPLITTING OF LONG RANGE ELECTROSTATICS
Info: PLACING ATOMS IN PATCHES BY HYDROGEN GROUPS
Info: RIGID BONDS TO HYDROGEN : ALL
Info:         ERROR TOLERANCE : 1e-08
Info:          MAX ITERATIONS : 100
Info: RIGID WATER USING SETTLE ALGORITHM
Info: RANDOM NUMBER SEED     1743928329
Info: USE HYDROGEN BONDS?    NO
Info: Using AMBER format force field!
Info: AMBER PARM FILE        mobley_49274.prmtop
Info: COORDINATE PDB         mobley_49274.pdb
Info: Exclusions will be read from PARM file!
Info: SCNB (VDW SCALING)     2
Info: USING ARITHMETIC MEAN TO COMBINE L-J SIGMA PARAMETERS
Info: BINARY COORDINATES     mobley_49274_equil.coor
Info: SUMMARY OF PARAMETERS:
Info: 7 BONDS
Info: 7 ANGLES
Info:   7 HARMONIC
Info:   0 COSINE-BASED
Info: 7 DIHEDRAL
Info: 0 IMPROPER
Info: 0 CROSSTERM
Info: 0 VDW
Info: 21 VDW_PAIRS
Info: 0 NBTHOLE_PAIRS
Info: To read alchdata from file: mobley_49274.pdb
Info: To read alchflag data from column: 5
Info: STRUCTURE SUMMARY:
Info: 2986 ATOMS
Info: 2985 BONDS
Info: 32 ANGLES
Info: 44 DIHEDRALS
Info: 0 IMPROPERS
Info: 0 CROSSTERMS
Info: 3057 EXCLUSIONS
Info: 2979 RIGID BONDS
Info: ALCH: 0 ATOMS TO DISAPPEAR IN FINAL STATE
Info: ALCH: 19 ATOMS TO APPEAR IN FINAL STATE
Info: 5979 DEGREES OF FREEDOM
Info: 996 HYDROGEN GROUPS
Info: 4 ATOMS IN LARGEST HYDROGEN GROUP
Info: 996 MIGRATION GROUPS
Info: 4 ATOMS IN LARGEST MIGRATION GROUP
Info: TOTAL MASS = 17914 amu
Info: TOTAL CHARGE = 9.99961e-05 e
Info: MASS DENSITY = 0.968335 g/cm^3
Info: ATOM DENSITY = 0.0971994 atoms/A^3
Info: ADDED 0 IMPLICIT EXCLUSIONS
Info: NONBONDED TABLE R-SQUARED SPACING: 0.0625
Info: NONBONDED TABLE SIZE: 705 POINTS
Info: REMOVING COM VELOCITY 0.0510543 -0.191542 -0.0407467
Info: Use 3D box decompostion in PME FFT.
Info: Updated CUDA force table with 4096 elements.
Info: Updated CUDA LJ table with 6 x 6 elements.
Info: Found 22 unique exclusion lists needing 60 bytes
TCL: Running for 1500000 steps
ETITLE: TS BOND ANGLE DIHED IMPRP ELECT VDW BOUNDARY MISC KINETIC TOTAL TEMP POTENTIAL TOTALAVG TEMPAVG PRESSURE GPRESSURE VOLUME PRESSAVG GPRESSAVG
ENERGY: 0 1.6734 8.4565 1.9251 0.0000 -10723.3630 1412.4127 0.0000 0.0000 1796.9303 -7501.9649 302.4775 -9298.8952 -7501.9649 302.4775 -268.6720 -183.3346 30720.3444 -268.6720 -183.3346
ENERGY: 300000 2.0269 8.5709 2.8432 0.0000 -10739.8359 1421.3607 0.0000 0.0000 1777.8520 -7527.1823 299.2660 -9305.0343 -7538.4162 299.0230 -414.1954 -388.3915 31016.7307 -81.2144 -17.1979
ENERGY: 600000 2.1847 6.3323 2.0942 0.0000 -10725.1174 1406.3148 0.0000 0.0000 1828.4039 -7479.7875 307.7755 -9308.1914 -7533.3086 300.5453 -314.4227 -232.7873 30557.3626 -72.3524 -5.3094
ENERGY: 900000 2.2407 8.7457 1.9400 0.0000 -10845.0814 1425.7069 0.0000 0.0000 1748.1304 -7658.3178 294.2630 -9406.4482 -7553.7753 298.4478 -582.3553 -433.1794 30303.7201 -116.9599 -36.6372
ENERGY: 1200000 2.1763 7.1886 1.6022 0.0000 -10800.3907 1405.5461 0.0000 0.0000 1770.6721 -7613.2052 298.0575 -9383.8774 -7563.2007 298.1163 -586.5936 -545.3028 30332.5070 -176.9631 -109.8813
ENERGY: 1500000 3.2560 6.2861 3.1146 0.0000 -10741.0519 1427.9951 0.0000 0.0000 1808.6640 -7491.7362 304.4526 -9300.4002 -7560.8155 298.0951 -245.4535 -139.5190 30535.9758 -207.6393 -142.8626
TCL: Running FEP window   2: Lambda1 0.05   Lambda2 0.1    [dLambda 0.05  ]
TCL: Setting parameter firsttimestep to 0
TCL: Setting parameter alchLambda to 0.05
Info: NONBONDED TABLE R-SQUARED SPACING: 0.0625
Info: NONBONDED TABLE SIZE: 705 POINTS
TCL: Setting parameter alchLambda2 to 0.1
Info: NONBONDED TABLE R-SQUARED SPACING: 0.0625
Info: NONBONDED TABLE SIZE: 705 POINTS
TCL: Running for 1500000 steps
ETITLE: TS BOND ANGLE DIHED IMPRP ELECT VDW BOUNDARY MISC KINETIC TOTAL TEMP POTENTIAL TOTALAVG TEMPAVG PRESSURE GPRESSURE VOLUME PRESSAVG GPRESSAVG
ENERGY: 0 3.2560 6.2861 3.1146 0.0000 -10741.0508 1430.1468 0.0000 0.0000 1807.7470 -7490.5004 304.2983 -9298.2474 -7490.5004 304.2983 -215.3214 -133.8451 30535.9758 -215.3214 -133.8451
ENERGY: 300000 2.0570 7.0479 2.1122 0.0000 -10875.3373 1487.4751 0.0000 0.0000 1849.9075 -7526.7376 311.3951 -9376.6451 -7551.0887 299.1161 262.6969 300.2985 30379.6656 313.9991 391.3215
ENERGY: 600000 1.0471 10.2658 1.9388 0.0000 -10670.2232 1400.8461 0.0000 0.0000 1806.2903 -7449.8350 304.0531 -9256.1253 -7536.6251 299.7355 -417.2040 -335.7877 31067.1022 37.9613 119.3696
ENERGY: 900000 0.3461 10.2422 2.1871 0.0000 -10879.8900 1463.3761 0.0000 0.0000 1773.9672 -7629.7715 298.6121 -9403.7386 -7571.1721 299.2812 43.2369 134.4640 30108.5372 71.1569 148.9453
ENERGY: 1200000 3.1608 7.3555 1.8214 0.0000 -10848.6783 1538.0870 0.0000 0.0000 1810.4212 -7487.8323 304.7484 -9298.2535 -7569.2525 299.4860 914.5464 962.6181 29966.9140 125.5385 208.1403
ENERGY: 1500000 1.0804 10.5216 1.9891 0.0000 -10885.5180 1550.2669 0.0000 0.0000 1800.8134 -7520.8465 303.1311 -9321.6599 -7562.4692 300.1083 933.5778 966.9316 30309.0681 178.8913 251.5048
TCL: Running FEP window   3: Lambda1 0.1    Lambda2 0.15000000000000002 [dLambda 0.05000000000000002]
TCL: Setting parameter firsttimestep to 0
TCL: Setting parameter alchLambda to 0.1
Info: NONBONDED TABLE R-SQUARED SPACING: 0.0625
Info: NONBONDED TABLE SIZE: 705 POINTS
TCL: Setting parameter alchLambda2 to 0.15000000000000002
Info: NONBONDED TABLE R-SQUARED SPACING: 0.0625
Info: NONBONDED TABLE SIZE: 705 POINTS
TCL: Running for 1500000 steps
ETITLE: TS BOND ANGLE DIHED IMPRP ELECT VDW BOUNDARY MISC KINETIC TOTAL TEMP POTENTIAL TOTALAVG TEMPAVG PRESSURE GPRESSURE VOLUME PRESSAVG GPRESSAVG
ENERGY: 0 1.0804 10.5216 1.9891 0.0000 -10885.5172 1550.0598 0.0000 0.0000 1799.8980 -7521.9684 302.9770 -9321.8664 -7521.9684 302.9770 888.8389 965.5762 30309.0681 888.8389 965.5762
ENERGY: 300000 0.3485 9.8178 2.6561 0.0000 -10774.6635 1408.4916 0.0000 0.0000 1797.3330 -7556.0164 302.5453 -9353.3495 -7537.8887 303.9467 -538.4527 -390.8971 30710.6105 -12.1806 87.1057
ENERGY: 600000 3.1847 6.3279 3.6903 0.0000 -10777.2429 1471.1683 0.0000 0.0000 1776.0741 -7516.7976 298.9668 -9292.8717 -7525.0035 302.8334 199.1576 246.4638 30468.3867 60.1320 146.8476
ENERGY: 900000 1.6001 3.0412 2.4501 0.0000 -10692.4615 1408.6503 0.0000 0.0000 1714.7274 -7561.9924 288.6403 -9276.7198 -7533.2816 300.7170 -343.7598 -237.1210 30540.6017 32.1844 117.1404
ENERGY: 1200000 2.6510 7.9461 1.4958 0.0000 -10811.4852 1475.8120 0.0000 0.0000 1772.8715 -7550.7088 298.4277 -9323.5802 -7537.7979 300.4254 -136.6222 -25.0167 30956.1799 -31.2863 49.2114
ENERGY: 1500000 2.1404 6.5091 1.8045 0.0000 -10726.6034 1419.9597 0.0000 0.0000 1793.1668 -7503.0229 301.8440 -9296.1897 -7536.1705 300.7908 -155.6811 -81.3167 30918.0780 -56.3070 27.0336
TCL: Running FEP window   4: Lambda1 0.15000000000000002 Lambda2 0.2    [dLambda 0.04999999999999999]
TCL: Setting parameter firsttimestep to 0
TCL: Setting parameter alchLambda to 0.15000000000000002
Info: NONBONDED TABLE R-SQUARED SPACING: 0.0625
Info: NONBONDED TABLE SIZE: 705 POINTS
TCL: Setting parameter alchLambda2 to 0.2
Info: NONBONDED TABLE R-SQUARED SPACING: 0.0625
Info: NONBONDED TABLE SIZE: 705 POINTS
TCL: Running for 1500000 steps
ETITLE: TS BOND ANGLE DIHED IMPRP ELECT VDW BOUNDARY MISC KINETIC TOTAL TEMP POTENTIAL TOTALAVG TEMPAVG PRESSURE GPRESSURE VOLUME PRESSAVG GPRESSAVG
ENERGY: 0 2.1404 6.5091 1.8045 0.0000 -10726.6027 1421.9448 0.0000 0.0000 1792.3041 -7501.8999 301.6988 -9294.2040 -7501.8999 301.6988 -157.7210 -70.8541 30918.0780 -157.7210 -70.8541
ENERGY: 300000 1.3465 7.4699 1.8105 0.0000 -10941.8945 1542.8203 0.0000 0.0000 1765.6265 -7622.8208 297.2081 -9388.4473 -7536.9864 301.9248 450.7150 454.7143 30739.6846 -91.4841 -50.5426
ENERGY: 600000 1.1204 10.0958 1.7554 0.0000 -10728.6921 1401.7339 0.0000 0.0000 1776.9268 -7537.0598 299.1103 -9313.9866 -7544.9456 301.3145 -484.4082 -404.5075 30853.5165 -189.6144 -133.8041
ENERGY: 900000 0.9769 6.2978 2.0574 0.0000 -10895.3848 1557.2103 0.0000 0.0000 1789.7626 -7539.0799 301.2709 -9328.8424 -7542.9030 301.1630 789.0036 882.3161 30606.4987 -185.8354 -126.4398
ENERGY: 1200000 1.2433 8.8205 1.2623 0.0000 -10715.7080 1418.7663 0.0000 0.0000 1815.7290 -7469.8865 305.6419 -9285.6155 -7539.8028 301.9974 -185.4988 -86.4168 30992.6825 -121.4276 -62.0781
ENERGY: 1500000 1.0275 9.0598 1.5733 0.0000 -10747.1064 1412.6092 0.0000 0.0000 1744.5211 -7578.3156 293.6554 -9322.8367 -7536.3594 301.1571 -253.7551 -198.9927 30570.4807 -122.5855 -63.6169
TCL: Running FEP window   5: Lambda1 0.2    Lambda2 0.25   [dLambda 0.04999999999999999]
TCL: Setting parameter firsttimestep to 0
TCL: Setting parameter alchLambda to 0.2
Info: NONBONDED TABLE R-SQUARED SPACING: 0.0625
Info: NONBONDED TABLE SIZE: 705 POINTS
TCL: Setting parameter alchLambda2 to 0.25
Info: NONBONDED TABLE R-SQUARED SPACING: 0.0625
Info: NONBONDED TABLE SIZE: 705 POINTS
TCL: Running for 1500000 steps
ETITLE: TS BOND ANGLE DIHED IMPRP ELECT VDW BOUNDARY MISC KINETIC TOTAL TEMP POTENTIAL TOTALAVG TEMPAVG PRESSURE GPRESSURE VOLUME PRESSAVG GPRESSAVG
ENERGY: 0 1.0275 9.0598 1.5733 0.0000 -10747.1060 1412.8040 0.0000 0.0000 1743.6684 -7578.9731 293.5119 -9322.6414 -7578.9731 293.5119 -283.6297 -195.0834 30570.4807 -283.6297 -195.0834
ENERGY: 300000 1.1188 10.0106 1.4383 0.0000 -10755.4341 1412.5066 0.0000 0.0000 1766.8915 -7563.4682 297.4211 -9330.3597 -7546.3343 298.4286 -522.7561 -475.6179 30997.6576 -122.2477 -57.2542
ENERGY: 600000 1.4871 14.5843 1.1797 0.0000 -10799.5810 1404.9303 0.0000 0.0000 1760.7433 -7616.6563 296.3861 -9377.3996 -7546.9614 298.3835 -578.1107 -521.4929 30717.5863 -198.4903 -139.3585
ENERGY: 900000 1.4856 5.3063 2.1772 0.0000 -10734.4643 1388.5222 0.0000 0.0000 1794.1027 -7542.8703 302.0015 -9336.9730 -7543.0567 299.0154 -316.6835 -215.8720 30394.9806 -256.4687 -196.5081
ENERGY: 1200000 3.1185 5.9989 1.9527 0.0000 -10838.2372 1451.0306 0.0000 0.0000 1760.4548 -7615.6816 296.3376 -9376.1364 -7545.1054 299.9347 -243.6412 -237.7545 30548.7362 -263.9494 -202.9721
ENERGY: 1500000 1.5339 7.4012 1.9328 0.0000 -10760.4911 1455.3219 0.0000 0.0000 1801.3089 -7492.9923 303.2145 -9294.3013 -7546.5940 300.7456 225.0499 291.7723 30425.0450 -230.8236 -171.4047
TCL: Running FEP window   6: Lambda1 0.25   Lambda2 0.3    [dLambda 0.04999999999999999]
TCL: Setting parameter firsttimestep to 0
TCL: Setting parameter alchLambda to 0.25
Info: NONBONDED TABLE R-SQUARED SPACING: 0.0625
Info: NONBONDED TABLE SIZE: 705 POINTS
TCL: Setting parameter alchLambda2 to 0.3
Info: NONBONDED TABLE R-SQUARED SPACING: 0.0625
Info: NONBONDED TABLE SIZE: 705 POINTS
TCL: Running for 1500000 steps
ETITLE: TS BOND ANGLE DIHED IMPRP ELECT VDW BOUNDARY MISC KINETIC TOTAL TEMP POTENTIAL TOTALAVG TEMPAVG PRESSURE GPRESSURE VOLUME PRESSAVG GPRESSAVG
ENERGY: 0 1.5339 7.4012 1.9328 0.0000 -10760.4903 1455.4145 0.0000 0.0000 1800.4423 -7493.7656 303.0687 -9294.2079 -7493.7656 303.0687 204.7421 292.7687 30425.0450 204.7421 292.7687
ENERGY: 300000 3.8257 6.6270 2.1673 0.0000 -10868.8356 1503.2747 0.0000 0.0000 1791.5736 -7561.3673 301.5758 -9352.9409 -7563.8633 298.9635 682.2389 723.3845 29983.1756 267.2467 321.9422
ENERGY: 600000 2.5672 9.7425 1.6871 0.0000 -10732.9747 1379.4689 0.0000 0.0000 1804.1611 -7535.3479 303.6946 -9339.5089 -7551.9267 300.8182 -417.2365 -404.5491 30500.3600 185.6426 243.9081
ENERGY: 900000 1.7960 7.5113 1.4915 0.0000 -10785.9699 1442.2850 0.0000 0.0000 1794.6324 -7538.2538 302.0907 -9332.8862 -7552.1213 300.3226 -217.3084 -200.1792 31201.0575 79.5153 128.5662
ENERGY: 1200000 2.2077 10.3007 1.9928 0.0000 -10821.7663 1490.5457 0.0000 0.0000 1801.8936 -7514.8259 303.3130 -9316.7194 -7564.6732 299.7100 268.9549 293.2519 30636.1637 139.9325 197.5187
ENERGY: 1500000 1.9435 10.5402 2.1828 0.0000 -10746.5538 1412.0974 0.0000 0.0000 1797.7700 -7522.0199 302.6188 -9319.7899 -7560.3899 300.3966 -395.8054 -281.0156 30489.0795 43.3434 105.3759
TCL: Running FEP window   7: Lambda1 0.3    Lambda2 0.35   [dLambda 0.04999999999999999]
TCL: Setting parameter firsttimestep to 0
TCL: Setting parameter alchLambda to 0.3
Info: NONBONDED TABLE R-SQUARED SPACING: 0.0625
Info: NONBONDED TABLE SIZE: 705 POINTS
TCL: Setting parameter alchLambda2 to 0.35
Info: NONBONDED TABLE R-SQUARED SPACING: 0.0625
Info: NONBONDED TABLE SIZE: 705 POINTS
TCL: Running for 1500000 steps
ETITLE: TS BOND ANGLE DIHED IMPRP ELECT VDW BOUNDARY MISC KINETIC TOTAL TEMP POTENTIAL TOTALAVG TEMPAVG PRESSURE GPRESSURE VOLUME PRESSAVG GPRESSAVG
ENERGY: 0 1.9435 10.5402 2.1828 0.0000 -10746.5530 1412.6729 0.0000 0.0000 1796.8936 -7522.3200 302.4713 -9319.2136 -7522.3200 302.4713 -354.2074 -269.9891 30489.0795 -354.2074 -269.9891
ENERGY: 300000 2.2345 8.2854 1.5956 0.0000 -10888.1643 1495.5573 0.0000 0.0000 1826.9165 -7553.5749 307.5251 -9380.4914 -7511.9232 303.3423 336.3461 351.1337 30246.5012 -86.6481 -39.3500
ENERGY: 600000 1.2060 8.7791 1.8773 0.0000 -10801.3903 1480.1426 0.0000 0.0000 1719.9964 -7589.3890 289.5272 -9309.3854 -7537.2837 299.8973 112.6089 152.4834 30648.6304 14.0089 70.4632
ENERGY: 900000 2.0023 3.7093 2.2157 0.0000 -10773.3961 1417.2960 0.0000 0.0000 1804.0691 -7544.1037 303.6792 -9348.1728 -7550.6726 299.4843 -180.7376 -111.3334 30467.9730 -49.7826 6.5854
ENERGY: 1200000 1.5575 8.5710 2.6876 0.0000 -10882.8565 1473.2969 0.0000 0.0000 1799.4467 -7597.2967 302.9011 -9396.7434 -7553.8101 300.0977 -284.5912 -224.2427 30677.7670 -140.0665 -81.2558
ENERGY: 1500000 1.6748 15.1261 1.6616 0.0000 -10823.1150 1533.6773 0.0000 0.0000 1810.4880 -7460.4872 304.7597 -9270.9752 -7553.5924 300.6062 712.1407 810.1783 30580.0113 -99.0019 -33.9852
TCL: Running FEP window   8: Lambda1 0.35   Lambda2 0.39999999999999997 [dLambda 0.04999999999999999]
TCL: Setting parameter firsttimestep to 0
TCL: Setting parameter alchLambda to 0.35
Info: NONBONDED TABLE R-SQUARED SPACING: 0.0625
Info: NONBONDED TABLE SIZE: 705 POINTS
TCL: Setting parameter alchLambda2 to 0.39999999999999997
Info: NONBONDED TABLE R-SQUARED SPACING: 0.0625
Info: NONBONDED TABLE SIZE: 705 POINTS
TCL: Running for 1500000 steps
ETITLE: TS BOND ANGLE DIHED IMPRP ELECT VDW BOUNDARY MISC KINETIC TOTAL TEMP POTENTIAL TOTALAVG TEMPAVG PRESSURE GPRESSURE VOLUME PRESSAVG GPRESSAVG
ENERGY: 0 1.6748 15.1261 1.6616 0.0000 -10823.1138 1533.7803 0.0000 0.0000 1809.6103 -7461.2607 304.6119 -9270.8710 -7461.2607 304.6119 752.6575 819.6943 30580.0113 752.6575 819.6943
ENERGY: 300000 1.8841 9.8887 3.7961 0.0000 -10863.1514 1472.1737 0.0000 0.0000 1800.4152 -7574.9936 303.0641 -9375.4088 -7481.0718 305.0200 31.6623 23.6965 30753.5657 372.6932 417.8874
ENERGY: 600000 1.9296 7.3019 1.8820 0.0000 -11009.2596 1546.8537 0.0000 0.0000 1779.6395 -7671.6528 299.5669 -9451.2923 -7527.1092 303.5187 437.4214 540.7741 30265.1502 383.2677 440.8213
ENERGY: 900000 3.9847 4.6159 1.2373 0.0000 -10695.4180 1399.4327 0.0000 0.0000 1731.6093 -7554.5380 291.4820 -9286.1474 -7525.6832 303.4359 -540.4392 -495.3495 31020.2874 278.8252 326.0861
ENERGY: 1200000 1.3711 6.5780 1.2400 0.0000 -10575.6821 1302.8861 0.0000 0.0000 1817.8484 -7445.7584 305.9986 -9263.6068 -7519.0274 303.0208 -851.8181 -835.0623 30697.1724 150.3843 195.8229
ENERGY: 1500000 1.8489 8.0535 1.1160 0.0000 -10679.5284 1392.9039 0.0000 0.0000 1787.3333 -7488.2729 300.8620 -9275.6062 -7519.8827 302.8009 -632.6872 -580.7298 31390.2367 73.7538 126.7924
TCL: Running FEP window   9: Lambda1 0.39999999999999997 Lambda2 0.44999999999999996 [dLambda 0.04999999999999999]
TCL: Setting parameter firsttimestep to 0
TCL: Setting parameter alchLambda to 0.39999999999999997
Info: NONBONDED TABLE R-SQUARED SPACING: 0.0625
Info: NONBONDED TABLE SIZE: 705 POINTS
TCL: Setting parameter alchLambda2 to 0.44999999999999996
Info: NONBONDED TABLE R-SQUARED SPACING: 0.0625
Info: NONBONDED TABLE SIZE: 705 POINTS
TCL: Running for 1500000 steps
ETITLE: TS BOND ANGLE DIHED IMPRP ELECT VDW BOUNDARY MISC KINETIC TOTAL TEMP POTENTIAL TOTALAVG TEMPAVG PRESSURE GPRESSURE VOLUME PRESSAVG GPRESSAVG
ENERGY: 0 1.8490 8.0535 1.1160 0.0000 -10679.5304 1393.4522 0.0000 0.0000 1786.4424 -7488.6174 300.7121 -9275.0598 -7488.6174 300.7121 -657.6129 -574.6543 31390.2367 -657.6129 -574.6543
ENERGY: 300000 1.7321 5.6783 1.9324 0.0000 -10910.4712 1484.2923 0.0000 0.0000 1735.7687 -7681.0673 292.1822 -9416.8361 -7599.1723 295.9362 -113.8299 16.7813 30615.5264 -190.2408 -88.7983
ENERGY: 600000 1.3653 8.7085 1.8361 0.0000 -10589.4778 1307.3399 0.0000 0.0000 1747.0157 -7523.2123 294.0754 -9270.2279 -7561.8359 296.1649 -957.2280 -863.5438 30943.8640 -290.9531 -197.2856
ENERGY: 900000 2.1514 9.0370 1.7744 0.0000 -10697.2889 1355.7178 0.0000 0.0000 1760.5483 -7568.0599 296.3533 -9328.6082 -7572.0986 295.9161 -840.0881 -806.9988 30959.7501 -293.0443 -207.0556
ENERGY: 1200000 1.7486 4.9094 3.0438 0.0000 -10818.3684 1489.8935 0.0000 0.0000 1835.6211 -7483.1520 308.9903 -9318.7731 -7556.7448 298.2898 170.9312 201.9708 31010.1057 -211.5430 -133.7206
ENERGY: 1500000 2.1095 9.9866 3.1314 0.0000 -10613.6949 1375.9687 0.0000 0.0000 1779.0289 -7443.4697 299.4641 -9222.4986 -7543.6135 299.1159 -299.3599 -228.4912 30548.5370 -143.0056 -71.6948
TCL: Running FEP window  10: Lambda1 0.44999999999999996 Lambda2 0.49999999999999994 [dLambda 0.04999999999999999]
TCL: Setting parameter firsttimestep to 0
TCL: Setting parameter alchLambda to 0.44999999999999996
Info: NONBONDED TABLE R-SQUARED SPACING: 0.0625
Info: NONBONDED TABLE SIZE: 705 POINTS
TCL: Setting parameter alchLambda2 to 0.49999999999999994
Info: NONBONDED TABLE R-SQUARED SPACING: 0.0625
Info: NONBONDED TABLE SIZE: 705 POINTS
TCL: Running for 1500000 steps
ETITLE: TS BOND ANGLE DIHED IMPRP ELECT VDW BOUNDARY MISC KINETIC TOTAL TEMP POTENTIAL TOTALAVG TEMPAVG PRESSURE GPRESSURE VOLUME PRESSAVG GPRESSAVG
ENERGY: 0 2.1095 9.9866 3.1314 0.0000 -10613.6943 1375.9101 0.0000 0.0000 1778.1167 -7444.4399 299.3106 -9222.5566 -7444.4399 299.3106 -314.8997 -223.1991 30548.5370 -314.8997 -223.1991
ENERGY: 300000 1.6611 8.1279 1.8971 0.0000 -10733.3507 1415.2070 0.0000 0.0000 1790.7753 -7515.6823 301.4414 -9306.4576 -7505.9844 301.5065 5.5046 12.0288 30397.1278 -189.1653 -151.4946
ENERGY: 600000 3.0235 9.1073 1.6758 0.0000 -10668.1389 1374.1516 0.0000 0.0000 1819.5188 -7460.6619 306.2798 -9280.1807 -7506.4354 303.0934 -257.7124 -193.3158 30405.0344 -19.0247 30.3613
ENERGY: 900000 3.3048 8.6516 2.8817 0.0000 -10812.8173 1456.6353 0.0000 0.0000 1754.9500 -7586.3939 295.4109 -9341.3438 -7523.9351 301.3409 -329.7224 -247.3481 31062.6195 -15.4626 39.0553
ENERGY: 1200000 0.9624 7.3259 1.5412 0.0000 -10910.4838 1493.3508 0.0000 0.0000 1848.4733 -7558.8303 311.1537 -9407.3036 -7519.3657 302.8014 221.6598 304.5858 30556.9971 60.7453 118.0493
ENERGY: 1500000 1.0450 6.5196 2.9434 0.0000 -10806.3626 1491.2620 0.0000 0.0000 1794.0700 -7510.5226 301.9960 -9304.5926 -7523.7805 300.8488 304.7737 365.4951 30666.2250 74.3217 134.2159
TCL: Running FEP window  11: Lambda1 0.49999999999999994 Lambda2 0.5499999999999999 [dLambda 0.04999999999999999]
TCL: Setting parameter firsttimestep to 0
TCL: Setting parameter alchLambda to 0.49999999999999994
Info: NONBONDED TABLE R-SQUARED SPACING: 0.0625
Info: NONBONDED TABLE SIZE: 705 POINTS
TCL: Setting parameter alchLambda2 to 0.5499999999999999
Info: NONBONDED TABLE R-SQUARED SPACING: 0.0625
Info: NONBONDED TABLE SIZE: 705 POINTS
TCL: Running for 1500000 steps
ETITLE: TS BOND ANGLE DIHED IMPRP ELECT VDW BOUNDARY MISC KINETIC TOTAL TEMP POTENTIAL TOTALAVG TEMPAVG PRESSURE GPRESSURE VOLUME PRESSAVG GPRESSAVG
ENERGY: 0 1.0450 6.5196 2.9434 0.0000 -10806.3630 1492.2818 0.0000 0.0000 1793.1804 -7510.3927 301.8463 -9303.5731 -7510.3927 301.8463 311.7528 382.7442 30666.2250 311.7528 382.7442
ENERGY: 300000 3.9799 12.9859 1.2750 0.0000 -10783.7038 1461.3169 0.0000 0.0000 1812.6643 -7491.4819 305.1260 -9304.1462 -7525.3598 301.4772 254.1648 309.3907 30520.7644 19.7657 66.4860
ENERGY: 600000 2.3257 8.9524 2.2255 0.0000 -10827.7476 1467.5800 0.0000 0.0000 1755.7998 -7590.8641 295.5540 -9346.6640 -7549.6436 300.0515 398.4630 468.9724 30018.1176 59.8044 125.2800
ENERGY: 900000 3.0036 8.8433 2.8719 0.0000 -10864.1050 1503.7216 0.0000 0.0000 1789.4620 -7556.2026 301.2204 -9345.6646 -7554.5349 301.3337 206.9579 188.4949 30927.2940 120.4072 176.9204
ENERGY: 1200000 2.6409 9.4542 2.5158 0.0000 -10753.1541 1432.3685 0.0000 0.0000 1800.7738 -7505.4010 303.1245 -9306.1748 -7554.4349 300.5999 200.6137 208.1165 30479.3224 49.6052 110.8286
ENERGY: 1500000 2.1864 13.2927 1.4953 0.0000 -10729.6449 1419.1610 0.0000 0.0000 1779.5596 -7513.9499 299.5535 -9293.5095 -7549.5051 300.5919 -274.1652 -203.4098 31038.0731 72.2721 133.9047
TCL: Running FEP window  12: Lambda1 0.5499999999999999 Lambda2 0.6    [dLambda 0.050000000000000044]
TCL: Setting parameter firsttimestep to 0
TCL: Setting parameter alchLambda to 0.5499999999999999
Info: NONBONDED TABLE R-SQUARED SPACING: 0.0625
Info: NONBONDED TABLE SIZE: 705 POINTS
TCL: Setting parameter alchLambda2 to 0.6
Info: NONBONDED TABLE R-SQUARED SPACING: 0.0625
Info: NONBONDED TABLE SIZE: 705 POINTS
TCL: Running for 1500000 steps
ETITLE: TS BOND ANGLE DIHED IMPRP ELECT VDW BOUNDARY MISC KINETIC TOTAL TEMP POTENTIAL TOTALAVG TEMPAVG PRESSURE GPRESSURE VOLUME PRESSAVG GPRESSAVG
ENERGY: 0 2.1864 13.2927 1.4953 0.0000 -10729.5942 1418.8628 0.0000 0.0000 1778.6736 -7515.0834 299.4043 -9293.7570 -7515.0834 299.4043 -276.7327 -197.4007 31038.0731 -276.7327 -197.4007
ENERGY: 300000 1.3159 7.8938 1.6787 0.0000 -10804.9529 1437.9397 0.0000 0.0000 1769.8793 -7586.2455 297.9240 -9356.1248 -7549.4265 299.8415 15.6383 83.1379 30451.8646 49.9958 136.6596
ENERGY: 600000 1.6165 9.6586 1.4933 0.0000 -10661.8578 1377.0064 0.0000 0.0000 1765.3650 -7506.7180 297.1641 -9272.0830 -7559.3897 298.8609 -652.5478 -571.6855 31414.5577 -79.0810 0.5025
ENERGY: 900000 2.5911 8.3703 1.2160 0.0000 -10935.7297 1481.6616 0.0000 0.0000 1760.9219 -7680.9689 296.4162 -9441.8908 -7589.6850 298.1607 157.2280 199.3268 30573.6748 -63.6885 17.1709
ENERGY: 1200000 5.7422 11.8527 1.1547 0.0000 -10692.5934 1372.4896 0.0000 0.0000 1748.2682 -7553.0859 294.2862 -9301.3541 -7588.9700 298.1083 -858.3539 -749.3493 30957.7727 1.7943 74.1545
ENERGY: 1500000 1.3412 8.0886 2.3605 0.0000 -10640.3731 1326.0215 0.0000 0.0000 1869.7220 -7432.8392 314.7305 -9302.5613 -7567.8575 299.9403 -848.5505 -826.9510 30942.4805 -213.8582 -147.6648
TCL: Running FEP window  13: Lambda1 0.6    Lambda2 0.65   [dLambda 0.050000000000000044]
TCL: Setting parameter firsttimestep to 0
TCL: Setting parameter alchLambda to 0.6
Info: NONBONDED TABLE R-SQUARED SPACING: 0.0625
Info: NONBONDED TABLE SIZE: 705 POINTS
TCL: Setting parameter alchLambda2 to 0.65
Info: NONBONDED TABLE R-SQUARED SPACING: 0.0625
Info: NONBONDED TABLE SIZE: 705 POINTS
TCL: Running for 1500000 steps
ETITLE: TS BOND ANGLE DIHED IMPRP ELECT VDW BOUNDARY MISC KINETIC TOTAL TEMP POTENTIAL TOTALAVG TEMPAVG PRESSURE GPRESSURE VOLUME PRESSAVG GPRESSAVG
ENERGY: 0 1.3412 8.0885 2.3605 0.0000 -10640.3937 1325.4266 0.0000 0.0000 1868.8892 -7434.2876 314.5903 -9303.1769 -7434.2876 314.5903 -903.6332 -827.3492 30942.4805 -903.6332 -827.3492
ENERGY: 300000 1.5613 13.1128 4.0618 0.0000 -10768.1271 1486.2737 0.0000 0.0000 1805.1501 -7457.9674 303.8611 -9263.1175 -7510.7976 302.8369 659.3594 708.4181 30461.7303 283.3172 342.4928
ENERGY: 600000 2.4052 9.4561 2.0261 0.0000 -10803.5298 1410.8220 0.0000 0.0000 1796.9098 -7581.9105 302.4740 -9378.8203 -7534.6346 301.4978 -325.7297 -278.3487 30676.1569 171.8633 229.8822
ENERGY: 900000 2.3304 10.9356 2.3485 0.0000 -10962.4552 1550.0318 0.0000 0.0000 1794.2134 -7602.5955 302.0202 -9396.8089 -7549.2916 302.0090 121.4339 157.8740 31300.0353 85.1796 151.6424
ENERGY: 1200000 0.5698 7.3849 1.3605 0.0000 -10995.2827 1557.3370 0.0000 0.0000 1728.1260 -7700.5045 290.8957 -9428.6305 -7556.5483 301.7719 633.3590 720.4150 30489.0989 108.7077 167.6676
ENERGY: 1500000 3.6827 10.0424 2.3418 0.0000 -10701.7112 1336.5854 0.0000 0.0000 1767.5256 -7581.5333 297.5278 -9349.0588 -7558.8468 301.2823 -787.5671 -717.2369 30439.2306 14.1841 73.8080
TCL: Running FEP window  14: Lambda1 0.65   Lambda2 0.7000000000000001 [dLambda 0.050000000000000044]
TCL: Setting parameter firsttimestep to 0
TCL: Setting parameter alchLambda to 0.65
Info: NONBONDED TABLE R-SQUARED SPACING: 0.0625
Info: NONBONDED TABLE SIZE: 705 POINTS
TCL: Setting parameter alchLambda2 to 0.7000000000000001
Info: NONBONDED TABLE R-SQUARED SPACING: 0.0625
Info: NONBONDED TABLE SIZE: 705 POINTS
TCL: Running for 1500000 steps
ETITLE: TS BOND ANGLE DIHED IMPRP ELECT VDW BOUNDARY MISC KINETIC TOTAL TEMP POTENTIAL TOTALAVG TEMPAVG PRESSURE GPRESSURE VOLUME PRESSAVG GPRESSAVG
ENERGY: 0 3.6827 10.0424 2.3418 0.0000 -10701.9350 1336.4772 0.0000 0.0000 1766.6395 -7582.7514 297.3786 -9349.3909 -7582.7514 297.3786 -787.7581 -711.0203 30439.2306 -787.7581 -711.0203
ENERGY: 300000 3.3394 9.7660 1.5705 0.0000 -10810.4179 1486.9000 0.0000 0.0000 1800.7692 -7508.0728 303.1237 -9308.8420 -7512.0897 304.3757 323.2747 396.6447 30864.4762 193.2496 223.1071
ENERGY: 600000 2.0488 9.3161 3.5511 0.0000 -10694.1326 1374.8035 0.0000 0.0000 1718.8703 -7585.5426 289.3376 -9304.4130 -7527.1311 299.8343 -588.8190 -503.1953 30879.0694 -29.1348 14.6255
ENERGY: 900000 2.1925 10.5604 2.0991 0.0000 -10852.2408 1463.3596 0.0000 0.0000 1788.4661 -7585.5632 301.0527 -9374.0293 -7543.4523 300.0584 103.1004 79.6394 30664.3989 -49.2452 0.6523
ENERGY: 1200000 0.8482 8.3124 1.5837 0.0000 -10703.9587 1389.4069 0.0000 0.0000 1774.3765 -7529.4310 298.6810 -9303.8075 -7530.4988 300.7989 -420.6773 -353.5090 30640.4335 -179.9530 -123.8562
ENERGY: 1500000 1.1539 11.6149 1.6361 0.0000 -10840.5045 1488.4404 0.0000 0.0000 1777.5124 -7560.1468 299.2089 -9337.6593 -7536.7135 300.7457 310.2461 399.5749 30696.7567 -124.9289 -70.5493
TCL: Running FEP window  15: Lambda1 0.7000000000000001 Lambda2 0.7500000000000001 [dLambda 0.050000000000000044]
TCL: Setting parameter firsttimestep to 0
TCL: Setting parameter alchLambda to 0.7000000000000001
Info: NONBONDED TABLE R-SQUARED SPACING: 0.0625
Info: NONBONDED TABLE SIZE: 705 POINTS
TCL: Setting parameter alchLambda2 to 0.7500000000000001
Info: NONBONDED TABLE R-SQUARED SPACING: 0.0625
Info: NONBONDED TABLE SIZE: 705 POINTS
TCL: Running for 1500000 steps
ETITLE: TS BOND ANGLE DIHED IMPRP ELECT VDW BOUNDARY MISC KINETIC TOTAL TEMP POTENTIAL TOTALAVG TEMPAVG PRESSURE GPRESSURE VOLUME PRESSAVG GPRESSAVG
ENERGY: 0 1.1539 11.6149 1.6361 0.0000 -10840.6652 1488.4999 0.0000 0.0000 1776.6297 -7561.1309 299.0603 -9337.7605 -7561.1309 299.0603 336.9817 411.2553 30696.7567 336.9817 411.2553
ENERGY: 300000 2.9245 11.0437 3.1374 0.0000 -10804.5332 1461.7748 0.0000 0.0000 1803.2740 -7522.3789 303.5453 -9325.6529 -7568.4647 298.2227 101.4150 140.8853 31010.7752 -15.6244 37.0483
ENERGY: 600000 0.4355 10.5847 2.1043 0.0000 -10722.2106 1362.5981 0.0000 0.0000 1759.2050 -7587.2830 296.1272 -9346.4881 -7565.1262 299.0631 -779.0524 -689.7612 30835.8398 -76.6271 -9.8394
ENERGY: 900000 2.3446 10.0179 1.3627 0.0000 -10766.5016 1416.1814 0.0000 0.0000 1808.0917 -7528.5033 304.3563 -9336.5951 -7563.3950 298.2730 -312.5514 -222.4174 30589.3675 -43.6532 23.7911
ENERGY: 1200000 2.8245 11.0029 1.8335 0.0000 -10808.6181 1522.7048 0.0000 0.0000 1797.8950 -7472.3574 302.6399 -9270.2524 -7547.2174 299.1759 768.3191 779.1740 30833.5627 -22.4432 35.3178
ENERGY: 1500000 2.7119 11.1114 2.3030 0.0000 -10669.6990 1388.5675 0.0000 0.0000 1794.7375 -7470.2678 302.1084 -9265.0053 -7539.4224 299.5224 -592.3760 -517.2135 31165.8258 -54.0457 5.8089
TCL: Running FEP window  16: Lambda1 0.7500000000000001 Lambda2 0.8000000000000002 [dLambda 0.050000000000000044]
TCL: Setting parameter firsttimestep to 0
TCL: Setting parameter alchLambda to 0.7500000000000001
Info: NONBONDED TABLE R-SQUARED SPACING: 0.0625
Info: NONBONDED TABLE SIZE: 705 POINTS
TCL: Setting parameter alchLambda2 to 0.8000000000000002
Info: NONBONDED TABLE R-SQUARED SPACING: 0.0625
Info: NONBONDED TABLE SIZE: 705 POINTS
TCL: Running for 1500000 steps
ETITLE: TS BOND ANGLE DIHED IMPRP ELECT VDW BOUNDARY MISC KINETIC TOTAL TEMP POTENTIAL TOTALAVG TEMPAVG PRESSURE GPRESSURE VOLUME PRESSAVG GPRESSAVG
ENERGY: 0 2.7119 11.1114 2.3030 0.0000 -10669.6337 1387.9103 0.0000 0.0000 1793.8352 -7471.7620 301.9565 -9265.5972 -7471.7620 301.9565 -607.5264 -514.3547 31165.8258 -607.5264 -514.3547
ENERGY: 300000 2.4755 11.3319 3.5862 0.0000 -10716.8658 1345.0420 0.0000 0.0000 1771.6151 -7582.8151 298.2162 -9354.4302 -7523.3566 301.0448 -731.9066 -683.9446 30720.8691 -227.8944 -171.5077
ENERGY: 600000 1.1523 3.7205 2.7116 0.0000 -10728.3733 1400.6978 0.0000 0.0000 1770.6263 -7549.4649 298.0497 -9320.0911 -7534.3426 301.6269 -488.6287 -424.3239 31054.6194 -76.2983 -30.6065
ENERGY: 900000 1.8747 9.6182 1.3232 0.0000 -10810.2838 1441.5050 0.0000 0.0000 1756.6918 -7599.2710 295.7041 -9355.9628 -7556.5231 300.1681 -87.9873 -54.2906 30470.7514 -141.9252 -93.6430
ENERGY: 1200000 0.4839 10.9694 1.6928 0.0000 -10854.0294 1559.1484 0.0000 0.0000 1743.8270 -7537.9079 293.5386 -9281.7349 -7548.5388 299.8444 1166.4667 1237.8805 30165.5553 67.6576 119.3152
ENERGY: 1500000 0.7616 5.0757 3.0096 0.0000 -10840.5497 1519.4176 0.0000 0.0000 1795.5970 -7516.6882 302.2531 -9312.2852 -7541.6593 300.5855 877.7798 923.2842 30291.8922 132.5078 184.4748
TCL: Running FEP window  17: Lambda1 0.8000000000000002 Lambda2 0.8500000000000002 [dLambda 0.050000000000000044]
TCL: Setting parameter firsttimestep to 0
TCL: Setting parameter alchLambda to 0.8000000000000002
Info: NONBONDED TABLE R-SQUARED SPACING: 0.0625
Info: NONBONDED TABLE SIZE: 705 POINTS
TCL: Setting parameter alchLambda2 to 0.8500000000000002
Info: NONBONDED TABLE R-SQUARED SPACING: 0.0625
Info: NONBONDED TABLE SIZE: 705 POINTS
TCL: Running for 1500000 steps
ETITLE: TS BOND ANGLE DIHED IMPRP ELECT VDW BOUNDARY MISC KINETIC TOTAL TEMP POTENTIAL TOTALAVG TEMPAVG PRESSURE GPRESSURE VOLUME PRESSAVG GPRESSAVG
ENERGY: 0 0.7616 5.0757 3.0096 0.0000 -10840.9408 1518.9417 0.0000 0.0000 1794.7268 -7518.4254 302.1066 -9313.1522 -7518.4254 302.1066 850.7897 927.7742 30291.8922 850.7897 927.7742
ENERGY: 300000 1.0749 8.6365 2.5363 0.0000 -10760.0095 1424.1743 0.0000 0.0000 1754.5694 -7569.0181 295.3469 -9323.5875 -7519.0752 303.1641 -403.6098 -359.7196 31075.5853 -27.4450 32.2800
ENERGY: 600000 3.1698 6.2388 2.5499 0.0000 -10868.8027 1501.8400 0.0000 0.0000 1754.7694 -7600.2347 295.3805 -9355.0041 -7548.2999 301.1750 218.1133 300.2936 30897.3251 225.8116 300.0206
ENERGY: 900000 1.6818 8.7440 2.0854 0.0000 -10512.9245 1316.2960 0.0000 0.0000 1782.9909 -7401.1264 300.1311 -9184.1173 -7528.2122 301.1417 -747.9580 -730.3527 31355.4542 -93.8455 -27.0978
ENERGY: 1200000 2.5129 7.0950 1.4639 0.0000 -10976.6390 1533.5812 0.0000 0.0000 1812.5698 -7619.4163 305.1101 -9431.9860 -7540.4500 301.3108 307.3958 354.9271 30772.0156 -83.8116 -10.7927
ENERGY: 1500000 1.7992 9.8299 1.3229 0.0000 -10830.0211 1438.5951 0.0000 0.0000 1778.7921 -7599.6819 299.4243 -9378.4740 -7543.5520 301.1862 35.1627 149.0585 30341.9018 -59.2606 9.1601
TCL: Running FEP window  18: Lambda1 0.8500000000000002 Lambda2 0.9000000000000002 [dLambda 0.050000000000000044]
TCL: Setting parameter firsttimestep to 0
TCL: Setting parameter alchLambda to 0.8500000000000002
Info: NONBONDED TABLE R-SQUARED SPACING: 0.0625
Info: NONBONDED TABLE SIZE: 705 POINTS
TCL: Setting parameter alchLambda2 to 0.9000000000000002
Info: NONBONDED TABLE R-SQUARED SPACING: 0.0625
Info: NONBONDED TABLE SIZE: 705 POINTS
TCL: Running for 1500000 steps
ETITLE: TS BOND ANGLE DIHED IMPRP ELECT VDW BOUNDARY MISC KINETIC TOTAL TEMP POTENTIAL TOTALAVG TEMPAVG PRESSURE GPRESSURE VOLUME PRESSAVG GPRESSAVG
ENERGY: 0 1.7992 9.8299 1.3229 0.0000 -10830.1586 1438.1395 0.0000 0.0000 1777.8896 -7601.1775 299.2724 -9379.0672 -7601.1775 299.2724 63.5381 158.5193 30341.9018 63.5381 158.5193
ENERGY: 300000 6.6577 10.8075 2.0975 0.0000 -10721.2977 1434.3574 0.0000 0.0000 1832.0097 -7435.3678 308.3824 -9267.3775 -7547.4115 301.4719 -61.4316 29.7707 30941.8210 -4.9426 78.6384
ENERGY: 600000 1.4662 10.6496 1.9281 0.0000 -10870.5099 1486.6996 0.0000 0.0000 1775.7329 -7594.0335 298.9093 -9369.7665 -7563.7013 301.2163 120.7421 179.2356 30678.6438 45.3759 106.8935
ENERGY: 900000 3.1562 10.8381 1.4911 0.0000 -10765.7796 1466.8419 0.0000 0.0000 1728.6168 -7554.8356 290.9783 -9283.4524 -7557.0695 300.1132 -125.9451 -20.5794 31289.8359 118.6657 178.4789
ENERGY: 1200000 0.5696 8.2443 3.3216 0.0000 -10754.6275 1447.2800 0.0000 0.0000 1825.0742 -7470.1378 307.2149 -9295.2120 -7546.2533 300.7902 177.0319 226.3931 30617.5557 62.5003 123.6566
ENERGY: 1500000 5.8267 7.4258 2.1092 0.0000 -10816.6960 1416.4898 0.0000 0.0000 1718.5086 -7666.3359 289.2768 -9384.8445 -7557.1922 299.6325 -319.1091 -309.6301 30419.6933 43.2858 104.6173
TCL: Running FEP window  19: Lambda1 0.9000000000000002 Lambda2 0.9500000000000003 [dLambda 0.050000000000000044]
TCL: Setting parameter firsttimestep to 0
TCL: Setting parameter alchLambda to 0.9000000000000002
Info: NONBONDED TABLE R-SQUARED SPACING: 0.0625
Info: NONBONDED TABLE SIZE: 705 POINTS
TCL: Setting parameter alchLambda2 to 0.9500000000000003
Info: NONBONDED TABLE R-SQUARED SPACING: 0.0625
Info: NONBONDED TABLE SIZE: 705 POINTS
TCL: Running for 1500000 steps
ETITLE: TS BOND ANGLE DIHED IMPRP ELECT VDW BOUNDARY MISC KINETIC TOTAL TEMP POTENTIAL TOTALAVG TEMPAVG PRESSURE GPRESSURE VOLUME PRESSAVG GPRESSAVG
ENERGY: 0 5.8267 7.4258 2.1092 0.0000 -10816.7260 1416.7066 0.0000 0.0000 1717.6332 -7667.0244 289.1294 -9384.6577 -7667.0244 289.1294 -371.0439 -295.7876 30419.6933 -371.0439 -295.7876
ENERGY: 300000 3.0670 5.9570 2.0746 0.0000 -10754.5263 1376.4610 0.0000 0.0000 1779.1938 -7587.7729 299.4919 -9366.9667 -7602.5590 296.5615 -705.8454 -630.8253 31004.6672 -255.6160 -191.4009
ENERGY: 600000 2.1779 7.6149 2.9975 0.0000 -10717.4989 1399.4553 0.0000 0.0000 1765.0176 -7540.2358 297.1056 -9305.2534 -7562.1651 299.1295 -538.7971 -419.9377 31067.5284 -363.7228 -288.3249
ENERGY: 900000 0.7958 8.9648 1.1992 0.0000 -10783.8743 1402.4784 0.0000 0.0000 1786.7970 -7583.6392 300.7718 -9370.4362 -7558.9773 299.8054 -397.4730 -250.9193 30656.8136 -301.7296 -212.6870
ENERGY: 1200000 3.6662 8.3834 1.8881 0.0000 -10687.5211 1384.3717 0.0000 0.0000 1766.2323 -7522.9795 297.3101 -9289.2118 -7551.1579 300.3385 -550.1725 -535.9463 31122.4137 -356.7582 -274.3198
ENERGY: 1500000 3.2720 7.2487 3.5867 0.0000 -10663.4737 1406.3386 0.0000 0.0000 1779.7423 -7463.2855 299.5842 -9243.0278 -7545.6214 300.4930 -7.6272 59.3984 30454.8094 -273.1556 -194.8540
TCL: Running FEP window  20: Lambda1 0.9500000000000003 Lambda2 1.0    [dLambda 0.04999999999999971]
TCL: Setting parameter firsttimestep to 0
TCL: Setting parameter alchLambda to 0.9500000000000003
Info: NONBONDED TABLE R-SQUARED SPACING: 0.0625
Info: NONBONDED TABLE SIZE: 705 POINTS
TCL: Setting parameter alchLambda2 to 1.0
Info: NONBONDED TABLE R-SQUARED SPACING: 0.0625
Info: NONBONDED TABLE SIZE: 705 POINTS
TCL: Running for 1500000 steps
ETITLE: TS BOND ANGLE DIHED IMPRP ELECT VDW BOUNDARY MISC KINETIC TOTAL TEMP POTENTIAL TOTALAVG TEMPAVG PRESSURE GPRESSURE VOLUME PRESSAVG GPRESSAVG
ENERGY: 0 3.2720 7.2487 3.5867 0.0000 -10663.4568 1406.8058 0.0000 0.0000 1778.8204 -7463.7233 299.4290 -9242.5437 -7463.7233 299.4290 0.7943 82.8610 30454.8094 0.7943 82.8610
ENERGY: 300000 1.9828 9.4048 1.4295 0.0000 -10739.9799 1399.8886 0.0000 0.0000 1820.9752 -7506.2991 306.5250 -9327.2743 -7571.5525 296.4738 -159.7570 -98.4771 30302.6551 -141.2497 -58.3687
ENERGY: 600000 1.4536 10.0933 2.9934 0.0000 -10871.1705 1506.1039 0.0000 0.0000 1767.4382 -7583.0881 297.5131 -9350.5263 -7556.1043 298.0075 383.2650 431.0442 30611.8945 -270.7009 -196.4921
ENERGY: 900000 1.5841 5.6241 1.0658 0.0000 -10719.6134 1387.2165 0.0000 0.0000 1748.5593 -7575.5637 294.3352 -9324.1230 -7569.3260 297.1898 -466.8043 -419.9049 31076.2889 -287.7530 -216.0372
ENERGY: 1200000 2.7349 8.4147 2.5585 0.0000 -10841.0980 1450.1032 0.0000 0.0000 1788.4124 -7588.8743 301.0437 -9377.2867 -7569.5336 298.2024 -91.6844 -103.0832 30850.9810 -246.1003 -182.4352
ENERGY: 1500000 4.4027 8.0628 1.8355 0.0000 -10694.9174 1347.6717 0.0000 0.0000 1833.7465 -7499.1982 308.6748 -9332.9447 -7561.8958 299.6127 -533.0317 -477.3612 30540.4696 -240.1356 -180.2238
TCL: Exiting due to exit command.
