Info: SIMULATION PARAMETERS:
Info: TIMESTEP               2
Info: NUMBER OF STEPS        0
Info: STEPS PER CYCLE        10
Info: PERIODIC CELL BASIS 1  30.7456 0 0
Info: PERIODIC CELL BASIS 2  0 31.4425 0
Info: PERIODIC CELL BASIS 3  0 0 31.3238
Info: PERIODIC CELL CENTER   0 0 0
Info: WRAPPING WATERS AROUND PERIODIC BOUNDARIES ON OUTPUT.
Info: WRAPPING ALL CLUSTERS AROUND PERIODIC BOUNDARIES ON OUTPUT.
Info: FIRST LDB TIMESTEP     50
Info: LAST LDB TIMESTEP     -1
Info: HOM BACKGROUND SCALING 1
Info: PME BACKGROUND SCALING 1
Info: MIN ATOMS PER PATCH    40
Info: EMPTY PATCH LOAD       40 ATOMS
Info: VELOCITY FILE          mobley_8427539_equil.vel
Info: CENTER OF MASS MOVING INITIALLY? NO
Info: DIELECTRIC             1
Info: EXCLUDE                SCALED ONE-FOUR
Info: 1-4 ELECTROSTATICS SCALED BY 0.833333
Info: MODIFIED 1-4 VDW PARAMETERS WILL BE USED
Info: DCD FILENAME           mobley_8427539_prod.dcd
Info: DCD FREQUENCY          100000
Info: DCD FIRST STEP         100000
Info: DCD FILE WILL CONTAIN UNIT CELL DATA
Info: XST FILENAME           mobley_8427539_prod.xst
Info: XST FREQUENCY          100000
Info: NO VELOCITY DCD OUTPUT
Info: NO FORCE DCD OUTPUT
Info: OUTPUT FILENAME        mobley_8427539_prod
Info: BINARY OUTPUT FILES WILL BE USED
Info: RESTART FILENAME       mobley_8427539_prod.restart
Info: RESTART FREQUENCY      100000
Info: BINARY RESTART FILES WILL BE USED
Info: CUTOFF                 9
Info: PAIRLIST DISTANCE      11
Info: PAIRLIST SHRINK RATE   0.01
Info: PAIRLIST GROW RATE     0.01
Info: PAIRLIST TRIGGER       0.3
Info: PAIRLISTS PER CYCLE    2
Info: PAIRLISTS ENABLED
Info: MARGIN                 2
Info: HYDROGEN GROUP CUTOFF  2.5
Info: PATCH DIMENSION        15.5
Info: ENERGY OUTPUT STEPS    100000
Info: ENERGY EVALUATION STEPS    100000
Info: OUTPUT ENERGY PRECISION 4
Info: CROSSTERM ENERGY INCLUDED IN DIHEDRAL
Info: TIMING OUTPUT STEPS    1000000
Info: PRESSURE OUTPUT STEPS  100000
Info: ALCHEMICAL FEP ON
Info: FEP CURRENT LAMBDA VALUE     1
Info: FEP COMPARISON LAMBDA VALUE  0.95
Info: FEP INTRA-ALCHEMICAL NON-BONDED INTERACTIONS WILL BE RETAINED
Info: FEP INTRA-ALCHEMICAL BONDED INTERACTIONS WILL BE RETAINED
Info: FEP VDW SHIFTING COEFFICIENT 5
Info: FEP ELEC. ACTIVE FOR ANNIHILATED PARTICLES BETWEEN LAMBDA = 0 AND LAMBDA = 0.5
Info: FEP ELEC. ACTIVE FOR EXNIHILATED PARTICLES BETWEEN LAMBDA = 0.5 AND LAMBDA = 1
Info: FEP VDW ACTIVE FOR ANNIHILATED PARTICLES BETWEEN LAMBDA = 0 AND LAMBDA = 1
Info: FEP VDW ACTIVE FOR EXNIHILATED PARTICLES BETWEEN LAMBDA = 0 AND LAMBDA = 1
Info: FEP BOND ACTIVE FOR ANNIHILATED PARTICLES BETWEEN LAMBDA = 1 AND LAMBDA = 1
Info: FEP BOND ACTIVE FOR EXNIHILATED PARTICLES BETWEEN LAMBDA = 0 AND LAMBDA = 0
Info: LANGEVIN DYNAMICS ACTIVE
Info: LANGEVIN TEMPERATURE   300
Info: LANGEVIN USING BBK INTEGRATOR
Info: LANGEVIN DAMPING COEFFICIENT IS 1 INVERSE PS
Info: LANGEVIN DYNAMICS APPLIED TO HYDROGENS
Info: LANGEVIN PISTON PRESSURE CONTROL ACTIVE
Info:        TARGET PRESSURE IS 1.01325 BAR
Info:     OSCILLATION PERIOD IS 50 FS
Info:             DECAY TIME IS 25 FS
Info:     PISTON TEMPERATURE IS 300 K
Info:       PRESSURE CONTROL IS GROUP-BASED
Info:    INITIAL STRAIN RATE IS 0.000352404 0.000352404 0.000352404
Info:       CELL FLUCTUATION IS ISOTROPIC
Info: PARTICLE MESH EWALD (PME) ACTIVE
Info: PME TOLERANCE               1e-06
Info: PME EWALD COEFFICIENT       0.348832
Info: PME INTERPOLATION ORDER     4
Info: PME GRID DIMENSIONS         32 32 32
Info: PME MAXIMUM GRID SPACING    1
Info: PME CALCULATION WILL BE PERFORMED ON GPU
Info: FULL ELECTROSTATIC EVALUATION FREQUENCY      2
Info: USING VERLET I (r-RESPA) MTS SCHEME.
Info: C1 SPLITTING OF LONG RANGE ELECTROSTATICS
Info: PLACING ATOMS IN PATCHES BY HYDROGEN GROUPS
Info: RIGID BONDS TO HYDROGEN : ALL
Info:         ERROR TOLERANCE : 1e-08
Info:          MAX ITERATIONS : 100
Info: RIGID WATER USING SETTLE ALGORITHM
Info: RANDOM NUMBER SEED     1743725817
Info: USE HYDROGEN BONDS?    NO
Info: Using AMBER format force field!
Info: AMBER PARM FILE        mobley_8427539.prmtop
Info: COORDINATE PDB         mobley_8427539.pdb
Info: Exclusions will be read from PARM file!
Info: SCNB (VDW SCALING)     2
Info: USING ARITHMETIC MEAN TO COMBINE L-J SIGMA PARAMETERS
Info: BINARY COORDINATES     mobley_8427539_equil.coor
Info: SUMMARY OF PARAMETERS:
Info: 8 BONDS
Info: 9 ANGLES
Info:   9 HARMONIC
Info:   0 COSINE-BASED
Info: 12 DIHEDRAL
Info: 0 IMPROPER
Info: 0 CROSSTERM
Info: 0 VDW
Info: 36 VDW_PAIRS
Info: 0 NBTHOLE_PAIRS
Info: To read alchdata from file: mobley_8427539.pdb
Info: To read alchflag data from column: 5
Info: STRUCTURE SUMMARY:
Info: 2973 ATOMS
Info: 2972 BONDS
Info: 18 ANGLES
Info: 28 DIHEDRALS
Info: 0 IMPROPERS
Info: 0 CROSSTERMS
Info: 3009 EXCLUSIONS
Info: 2968 RIGID BONDS
Info: ALCH: 0 ATOMS TO DISAPPEAR IN FINAL STATE
Info: ALCH: 12 ATOMS TO APPEAR IN FINAL STATE
Info: 5951 DEGREES OF FREEDOM
Info: 992 HYDROGEN GROUPS
Info: 4 ATOMS IN LARGEST HYDROGEN GROUP
Info: 992 MIGRATION GROUPS
Info: 4 ATOMS IN LARGEST MIGRATION GROUP
Info: TOTAL MASS = 17854.9 amu
Info: TOTAL CHARGE = 0.00019991 e
Info: MASS DENSITY = 0.979135 g/cm^3
Info: ATOM DENSITY = 0.0981795 atoms/A^3
Info: ADDED 0 IMPLICIT EXCLUSIONS
Info: NONBONDED TABLE R-SQUARED SPACING: 0.0625
Info: NONBONDED TABLE SIZE: 705 POINTS
Info: REMOVING COM VELOCITY -0.024431 -0.233284 0.300096
Info: Use 3D box decompostion in PME FFT.
Info: Updated CUDA force table with 4096 elements.
Info: Updated CUDA LJ table with 8 x 8 elements.
Info: Found 15 unique exclusion lists needing 28 bytes
TCL: Running for 1500000 steps
ETITLE: TS BOND ANGLE DIHED IMPRP ELECT VDW BOUNDARY MISC KINETIC TOTAL TEMP POTENTIAL TOTALAVG TEMPAVG PRESSURE GPRESSURE VOLUME PRESSAVG GPRESSAVG
ENERGY: 0 0.3263 2.8018 8.0813 0.0000 -10780.3871 1434.4294 0.0000 0.0000 1800.1523 -7534.5960 304.4456 -9334.7483 -7534.5960 304.4456 137.5182 224.1409 30281.2570 137.5182 224.1409
ENERGY: 300000 2.6564 4.3109 6.2162 0.0000 -10818.0896 1426.1956 0.0000 0.0000 1772.8257 -7605.8848 299.8241 -9378.7105 -7614.6311 300.4638 -315.2520 -235.8549 31008.8882 -15.8853 67.4505
ENERGY: 600000 3.1750 3.3069 5.4031 0.0000 -10880.6860 1448.7354 0.0000 0.0000 1803.7690 -7616.2966 305.0573 -9420.0656 -7604.8586 301.7930 -59.7723 -3.1995 30570.9756 180.2211 258.5516
ENERGY: 900000 1.0398 3.4072 5.4782 0.0000 -10926.0463 1540.1018 0.0000 0.0000 1763.5376 -7612.4817 298.2532 -9376.0193 -7596.7041 301.0384 706.7178 790.9504 30340.6242 234.6548 296.6366
ENERGY: 1200000 2.6767 3.1685 6.2518 0.0000 -10817.3612 1414.3785 0.0000 0.0000 1795.8722 -7595.0136 303.7217 -9390.8858 -7611.3017 301.2205 -327.8012 -285.9159 30547.2741 186.4854 245.7685
ENERGY: 1500000 1.5412 7.2676 6.8385 0.0000 -10953.0969 1457.8909 0.0000 0.0000 1741.5752 -7737.9836 294.5389 -9479.5588 -7619.3655 301.2287 -256.9222 -168.5893 30449.3844 238.3934 295.9027
TCL: Running FEP window   2: Lambda1 0.95   Lambda2 0.8999999999999999 [dLambda -0.050000000000000044]
TCL: Setting parameter firsttimestep to 0
TCL: Setting parameter alchLambda to 0.95
Info: NONBONDED TABLE R-SQUARED SPACING: 0.0625
Info: NONBONDED TABLE SIZE: 705 POINTS
TCL: Setting parameter alchLambda2 to 0.8999999999999999
Info: NONBONDED TABLE R-SQUARED SPACING: 0.0625
Info: NONBONDED TABLE SIZE: 705 POINTS
TCL: Running for 1500000 steps
ETITLE: TS BOND ANGLE DIHED IMPRP ELECT VDW BOUNDARY MISC KINETIC TOTAL TEMP POTENTIAL TOTALAVG TEMPAVG PRESSURE GPRESSURE VOLUME PRESSAVG GPRESSAVG
ENERGY: 0 1.5412 7.2676 6.8385 0.0000 -10950.9802 1457.9005 0.0000 0.0000 1740.6617 -7736.7707 294.3844 -9477.4324 -7736.7707 294.3844 -242.3349 -174.2579 30449.3844 -242.3349 -174.2579
ENERGY: 300000 1.4079 5.4646 8.0655 0.0000 -10804.9838 1424.5182 0.0000 0.0000 1766.1737 -7599.3539 298.6990 -9365.5275 -7619.1444 299.2324 -191.2073 -103.2233 30748.3022 -89.1539 15.6320
ENERGY: 600000 1.1564 1.9330 7.6906 0.0000 -10719.2410 1367.9725 0.0000 0.0000 1768.4731 -7572.0153 299.0879 -9340.4884 -7600.6768 300.3294 -437.8594 -366.5518 30400.9274 -97.7991 -1.4440
ENERGY: 900000 1.7999 3.9329 6.3934 0.0000 -10579.7631 1307.4748 0.0000 0.0000 1801.8706 -7458.2915 304.7362 -9260.1621 -7575.6774 301.2132 -703.3118 -700.8916 30473.0291 -154.0288 -81.0380
ENERGY: 1200000 2.7808 5.0977 7.3901 0.0000 -10756.0003 1380.7095 0.0000 0.0000 1757.9486 -7602.0735 297.3080 -9360.0221 -7586.3087 300.6423 -648.0224 -595.2118 31070.8901 -179.5779 -109.8331
ENERGY: 1500000 0.2993 6.8815 5.6495 0.0000 -10738.5554 1407.5019 0.0000 0.0000 1795.0779 -7523.1453 303.5874 -9318.2233 -7583.4163 300.9531 -203.4803 -94.3625 30338.1212 -171.6005 -106.5530
TCL: Running FEP window   3: Lambda1 0.8999999999999999 Lambda2 0.8499999999999999 [dLambda -0.050000000000000044]
TCL: Setting parameter firsttimestep to 0
TCL: Setting parameter alchLambda to 0.8999999999999999
Info: NONBONDED TABLE R-SQUARED SPACING: 0.0625
Info: NONBONDED TABLE SIZE: 705 POINTS
TCL: Setting parameter alchLambda2 to 0.8499999999999999
Info: NONBONDED TABLE R-SQUARED SPACING: 0.0625
Info: NONBONDED TABLE SIZE: 705 POINTS
TCL: Running for 1500000 steps
ETITLE: TS BOND ANGLE DIHED IMPRP ELECT VDW BOUNDARY MISC KINETIC TOTAL TEMP POTENTIAL TOTALAVG TEMPAVG PRESSURE GPRESSURE VOLUME PRESSAVG GPRESSAVG
ENERGY: 0 0.2993 6.8815 5.6495 0.0000 -10735.7261 1406.2383 0.0000 0.0000 1794.1874 -7522.4700 303.4368 -9316.6575 -7522.4700 303.4368 -188.0797 -107.5166 30338.1212 -188.0797 -107.5166
ENERGY: 300000 1.2608 3.7302 7.2389 0.0000 -10796.6392 1464.2560 0.0000 0.0000 1805.9087 -7514.2445 305.4191 -9320.1533 -7571.2917 301.4917 187.3487 226.6692 30927.3828 -76.0657 6.8509
ENERGY: 600000 1.6820 5.3028 6.3056 0.0000 -11033.7352 1616.3731 0.0000 0.0000 1793.7821 -7610.2896 303.3682 -9404.0717 -7582.6988 301.9311 1349.6040 1389.8969 30515.2214 323.1414 384.6241
ENERGY: 900000 0.4014 4.7544 7.1918 0.0000 -10799.3817 1402.0776 0.0000 0.0000 1743.8529 -7641.1037 294.9241 -9384.9565 -7583.6923 301.9285 -260.8888 -288.1716 30736.6439 169.4394 217.0341
ENERGY: 1200000 3.0094 4.8449 6.8671 0.0000 -10864.1859 1420.2376 0.0000 0.0000 1757.5840 -7671.6429 297.2464 -9429.2269 -7592.9301 300.6232 -144.3205 -136.7213 30081.7459 98.1540 141.5874
ENERGY: 1500000 2.7072 5.7434 6.7154 0.0000 -10940.6445 1498.9858 0.0000 0.0000 1783.9741 -7642.5186 301.7095 -9426.4927 -7589.5501 300.7667 431.7241 461.8882 30481.0778 155.6006 200.3242
TCL: Running FEP window   4: Lambda1 0.8499999999999999 Lambda2 0.7999999999999998 [dLambda -0.050000000000000044]
TCL: Setting parameter firsttimestep to 0
TCL: Setting parameter alchLambda to 0.8499999999999999
Info: NONBONDED TABLE R-SQUARED SPACING: 0.0625
Info: NONBONDED TABLE SIZE: 705 POINTS
TCL: Setting parameter alchLambda2 to 0.7999999999999998
Info: NONBONDED TABLE R-SQUARED SPACING: 0.0625
Info: NONBONDED TABLE SIZE: 705 POINTS
TCL: Running for 1500000 steps
ETITLE: TS BOND ANGLE DIHED IMPRP ELECT VDW BOUNDARY MISC KINETIC TOTAL TEMP POTENTIAL TOTALAVG TEMPAVG PRESSURE GPRESSURE VOLUME PRESSAVG GPRESSAVG
ENERGY: 0 2.7072 5.7434 6.7154 0.0000 -10937.6891 1498.1367 0.0000 0.0000 1783.0887 -7641.2977 301.5598 -9424.3865 -7641.2977 301.5598 377.6656 445.3831 30481.0778 377.6656 445.3831
ENERGY: 300000 1.3279 3.9417 6.1891 0.0000 -10803.4968 1400.6876 0.0000 0.0000 1780.5986 -7610.7518 301.1386 -9391.3505 -7598.4033 301.3262 -783.1696 -673.9084 31097.3300 -83.7146 -18.4116
ENERGY: 600000 0.5870 3.3700 7.2894 0.0000 -10813.6263 1399.2287 0.0000 0.0000 1742.1099 -7661.0413 294.6293 -9403.1512 -7614.5637 299.0972 -543.9626 -368.2218 30400.7875 -142.9516 -82.6272
ENERGY: 900000 1.3824 7.7735 7.0477 0.0000 -10739.9163 1395.4771 0.0000 0.0000 1730.9023 -7597.3333 292.7339 -9328.2356 -7597.9729 298.8784 -252.2061 -212.2383 30279.6842 -213.1176 -149.5494
ENERGY: 1200000 0.9401 7.3686 7.3802 0.0000 -10824.7649 1422.6334 0.0000 0.0000 1786.1640 -7600.2786 302.0799 -9386.4426 -7597.9240 299.9533 -168.9308 -98.9616 30530.6434 -190.9542 -126.7670
ENERGY: 1500000 4.2028 6.9590 7.4947 0.0000 -10743.1762 1392.3309 0.0000 0.0000 1814.1338 -7518.0551 306.8102 -9332.1889 -7584.5436 300.6880 -291.0557 -296.6958 30960.8003 -111.3172 -53.2417
TCL: Running FEP window   5: Lambda1 0.7999999999999998 Lambda2 0.7499999999999998 [dLambda -0.050000000000000044]
TCL: Setting parameter firsttimestep to 0
TCL: Setting parameter alchLambda to 0.7999999999999998
Info: NONBONDED TABLE R-SQUARED SPACING: 0.0625
Info: NONBONDED TABLE SIZE: 705 POINTS
TCL: Setting parameter alchLambda2 to 0.7499999999999998
Info: NONBONDED TABLE R-SQUARED SPACING: 0.0625
Info: NONBONDED TABLE SIZE: 705 POINTS
TCL: Running for 1500000 steps
ETITLE: TS BOND ANGLE DIHED IMPRP ELECT VDW BOUNDARY MISC KINETIC TOTAL TEMP POTENTIAL TOTALAVG TEMPAVG PRESSURE GPRESSURE VOLUME PRESSAVG GPRESSAVG
ENERGY: 0 4.2028 6.9590 7.4947 0.0000 -10740.2249 1391.6260 0.0000 0.0000 1813.2277 -7516.7148 306.6569 -9329.9425 -7516.7148 306.6569 -377.8387 -305.6682 30960.8003 -377.8387 -305.6682
ENERGY: 300000 1.0985 2.2506 6.1873 0.0000 -10619.5414 1347.2668 0.0000 0.0000 1771.3350 -7491.4032 299.5719 -9262.7382 -7540.8391 300.2274 -541.9282 -464.8927 30885.5964 -328.4784 -254.3512
ENERGY: 600000 0.5184 4.6020 8.1166 0.0000 -10816.3327 1457.8658 0.0000 0.0000 1768.4032 -7576.8268 299.0761 -9345.2300 -7590.0627 299.6498 20.4626 108.2861 30632.9455 -346.8603 -276.8919
ENERGY: 900000 3.6282 8.3822 5.8808 0.0000 -10767.6829 1391.2577 0.0000 0.0000 1745.8925 -7612.6415 295.2691 -9358.5340 -7596.7120 298.9663 -639.7795 -636.0738 30963.8353 -420.8321 -360.2869
ENERGY: 1200000 0.9094 3.0022 6.3114 0.0000 -10721.3340 1413.7673 0.0000 0.0000 1848.1050 -7449.2388 312.5554 -9297.3438 -7587.0362 299.9672 -228.2191 -140.9620 30806.4801 -404.1171 -342.5324
ENERGY: 1500000 1.3782 6.6028 5.4361 0.0000 -10898.6250 1528.3583 0.0000 0.0000 1772.8033 -7584.0464 299.8203 -9356.8497 -7586.3763 300.7416 416.1887 456.6523 30883.6539 -293.1011 -239.0710
TCL: Running FEP window   6: Lambda1 0.7499999999999998 Lambda2 0.6999999999999997 [dLambda -0.050000000000000044]
TCL: Setting parameter firsttimestep to 0
TCL: Setting parameter alchLambda to 0.7499999999999998
Info: NONBONDED TABLE R-SQUARED SPACING: 0.0625
Info: NONBONDED TABLE SIZE: 705 POINTS
TCL: Setting parameter alchLambda2 to 0.6999999999999997
Info: NONBONDED TABLE R-SQUARED SPACING: 0.0625
Info: NONBONDED TABLE SIZE: 705 POINTS
TCL: Running for 1500000 steps
ETITLE: TS BOND ANGLE DIHED IMPRP ELECT VDW BOUNDARY MISC KINETIC TOTAL TEMP POTENTIAL TOTALAVG TEMPAVG PRESSURE GPRESSURE VOLUME PRESSAVG GPRESSAVG
ENERGY: 0 1.3782 6.6028 5.4361 0.0000 -10897.0799 1527.5692 0.0000 0.0000 1771.9243 -7584.1693 299.6716 -9356.0936 -7584.1693 299.6716 366.7963 442.1157 30883.6539 366.7963 442.1157
ENERGY: 300000 0.6225 10.1203 6.1545 0.0000 -10832.3589 1426.8629 0.0000 0.0000 1766.2612 -7622.3376 298.7138 -9388.5987 -7601.7989 297.4667 -373.5535 -325.2419 30589.5395 -6.1934 56.4162
ENERGY: 600000 1.0982 5.5656 7.2906 0.0000 -10740.9992 1366.0267 0.0000 0.0000 1742.7968 -7618.2212 294.7455 -9361.0181 -7603.5967 296.6406 -788.1113 -685.5690 30712.0482 -190.4580 -118.4152
ENERGY: 900000 0.7456 1.7675 7.2310 0.0000 -10826.0513 1526.6841 0.0000 0.0000 1747.9567 -7541.6664 295.6182 -9289.6230 -7588.3556 297.2063 932.8625 938.8510 30551.6258 40.3469 94.8778
ENERGY: 1200000 0.4012 5.2068 7.2904 0.0000 -10912.5852 1499.6929 0.0000 0.0000 1753.2307 -7646.7631 296.5101 -9399.9939 -7605.4925 296.6661 221.6376 261.2547 30550.0283 101.0147 154.3764
ENERGY: 1500000 0.6868 2.4368 7.2057 0.0000 -10748.0895 1402.8895 0.0000 0.0000 1759.3875 -7575.4831 297.5514 -9334.8707 -7603.2628 297.1651 -296.7551 -217.5550 30704.8438 56.3035 107.9021
TCL: Running FEP window   7: Lambda1 0.6999999999999997 Lambda2 0.6499999999999997 [dLambda -0.050000000000000044]
TCL: Setting parameter firsttimestep to 0
TCL: Setting parameter alchLambda to 0.6999999999999997
Info: NONBONDED TABLE R-SQUARED SPACING: 0.0625
Info: NONBONDED TABLE SIZE: 705 POINTS
TCL: Setting parameter alchLambda2 to 0.6499999999999997
Info: NONBONDED TABLE R-SQUARED SPACING: 0.0625
Info: NONBONDED TABLE SIZE: 705 POINTS
TCL: Running for 1500000 steps
ETITLE: TS BOND ANGLE DIHED IMPRP ELECT VDW BOUNDARY MISC KINETIC TOTAL TEMP POTENTIAL TOTALAVG TEMPAVG PRESSURE GPRESSURE VOLUME PRESSAVG GPRESSAVG
ENERGY: 0 0.6868 2.4368 7.2057 0.0000 -10746.7801 1402.9993 0.0000 0.0000 1758.5345 -7574.9171 297.4071 -9333.4516 -7574.9171 297.4071 -302.9058 -221.0521 30704.8438 -302.9058 -221.0521
ENERGY: 300000 0.6955 4.3398 5.6075 0.0000 -10763.1739 1395.6122 0.0000 0.0000 1725.8802 -7631.0386 291.8845 -9356.9189 -7601.9792 297.5755 -424.6526 -392.2883 30707.3175 -123.1602 -59.9982
ENERGY: 600000 0.6933 4.6710 6.1729 0.0000 -10832.0208 1444.0596 0.0000 0.0000 1819.2664 -7557.1577 307.6782 -9376.4241 -7598.6459 300.1600 27.8307 112.8441 30408.8793 -153.9154 -86.4011
ENERGY: 900000 4.0191 4.6910 6.7740 0.0000 -10909.1038 1455.3257 0.0000 0.0000 1800.4130 -7637.8809 304.4897 -9438.2940 -7615.3123 300.2614 -126.8911 -95.7482 30614.9956 -216.0107 -152.2203
ENERGY: 1200000 3.5156 5.3333 6.1957 0.0000 -10804.1813 1449.1573 0.0000 0.0000 1728.3388 -7611.6406 292.3003 -9339.9794 -7609.8379 299.7209 -102.7561 57.5476 30793.4255 -183.9959 -119.5085
ENERGY: 1500000 1.2914 5.4959 5.8025 0.0000 -10841.8662 1448.2758 0.0000 0.0000 1752.1528 -7628.8478 296.3278 -9381.0006 -7608.5811 298.9930 -49.5291 -4.7472 30561.8205 -97.7841 -37.6044
TCL: Running FEP window   8: Lambda1 0.6499999999999997 Lambda2 0.5999999999999996 [dLambda -0.050000000000000044]
TCL: Setting parameter firsttimestep to 0
TCL: Setting parameter alchLambda to 0.6499999999999997
Info: NONBONDED TABLE R-SQUARED SPACING: 0.0625
Info: NONBONDED TABLE SIZE: 705 POINTS
TCL: Setting parameter alchLambda2 to 0.5999999999999996
Info: NONBONDED TABLE R-SQUARED SPACING: 0.0625
Info: NONBONDED TABLE SIZE: 705 POINTS
TCL: Running for 1500000 steps
ETITLE: TS BOND ANGLE DIHED IMPRP ELECT VDW BOUNDARY MISC KINETIC TOTAL TEMP POTENTIAL TOTALAVG TEMPAVG PRESSURE GPRESSURE VOLUME PRESSAVG GPRESSAVG
ENERGY: 0 1.2914 5.4959 5.8025 0.0000 -10840.8459 1448.5444 0.0000 0.0000 1751.2907 -7628.4210 296.1820 -9379.7117 -7628.4210 296.1820 -85.6407 -4.9887 30561.8205 -85.6407 -4.9887
ENERGY: 300000 0.9400 8.8968 10.3215 0.0000 -10855.4601 1483.0830 0.0000 0.0000 1776.3304 -7575.8883 300.4168 -9352.2187 -7554.4925 301.0777 390.2795 378.3128 30514.4975 143.9765 215.9774
ENERGY: 600000 2.6941 3.4601 6.7937 0.0000 -11069.7666 1600.9751 0.0000 0.0000 1768.1333 -7687.7103 299.0305 -9455.8436 -7572.0951 300.0037 1026.7676 1066.6442 30354.7008 227.2667 295.8774
ENERGY: 900000 3.6778 2.4998 6.1002 0.0000 -10848.2324 1531.5167 0.0000 0.0000 1778.1604 -7526.2774 300.7263 -9304.4378 -7581.9730 300.3819 545.1448 686.7345 30898.7890 185.6671 260.2328
ENERGY: 1200000 1.4570 3.9142 6.3890 0.0000 -10993.6688 1587.8179 0.0000 0.0000 1792.4924 -7601.5984 303.1501 -9394.0908 -7583.7450 300.1597 845.1997 956.4835 30476.4431 233.9337 311.2166
ENERGY: 1500000 2.1867 5.6147 6.2086 0.0000 -10962.7592 1520.6016 0.0000 0.0000 1679.8763 -7748.2711 284.1043 -9428.1474 -7589.1592 299.9309 306.3381 416.9979 30236.0279 175.0678 252.4670
TCL: Running FEP window   9: Lambda1 0.5999999999999996 Lambda2 0.5499999999999996 [dLambda -0.050000000000000044]
TCL: Setting parameter firsttimestep to 0
TCL: Setting parameter alchLambda to 0.5999999999999996
Info: NONBONDED TABLE R-SQUARED SPACING: 0.0625
Info: NONBONDED TABLE SIZE: 705 POINTS
TCL: Setting parameter alchLambda2 to 0.5499999999999996
Info: NONBONDED TABLE R-SQUARED SPACING: 0.0625
Info: NONBONDED TABLE SIZE: 705 POINTS
TCL: Running for 1500000 steps
ETITLE: TS BOND ANGLE DIHED IMPRP ELECT VDW BOUNDARY MISC KINETIC TOTAL TEMP POTENTIAL TOTALAVG TEMPAVG PRESSURE GPRESSURE VOLUME PRESSAVG GPRESSAVG
ENERGY: 0 2.1868 5.6147 6.2086 0.0000 -10962.6510 1521.0123 0.0000 0.0000 1678.9945 -7748.6341 283.9551 -9427.6286 -7748.6341 283.9551 341.3116 418.8799 30236.0279 341.3116 418.8799
ENERGY: 300000 3.3671 4.1443 6.5921 0.0000 -10829.6813 1449.1688 0.0000 0.0000 1736.0218 -7630.3870 293.5997 -9366.4088 -7644.3961 291.5377 -94.7752 -14.0799 30907.8490 -157.6661 -84.9565
ENERGY: 600000 3.8561 6.8969 7.4038 0.0000 -10855.3067 1430.7003 0.0000 0.0000 1757.9383 -7648.5113 297.3063 -9406.4496 -7650.5565 294.0697 -106.0479 18.2768 30208.4640 -199.7003 -114.8677
ENERGY: 900000 0.5995 2.9608 8.7600 0.0000 -10774.7726 1487.7219 0.0000 0.0000 1795.7919 -7478.9385 303.7082 -9274.7304 -7639.0120 294.2309 459.9485 551.8380 30673.0539 -138.8887 -61.7603
ENERGY: 1200000 0.2562 3.7709 7.5853 0.0000 -10726.7514 1401.9978 0.0000 0.0000 1751.3429 -7561.7982 296.1908 -9313.1411 -7632.8420 294.6602 -147.4484 -102.9200 30447.5453 -103.6940 -29.9375
ENERGY: 1500000 1.9318 5.1695 11.0866 0.0000 -10718.6592 1332.1337 0.0000 0.0000 1834.5475 -7533.7901 310.2626 -9368.3376 -7628.0933 296.0996 -1133.2063 -979.6052 30897.0570 -188.1949 -110.3553
TCL: Running FEP window  10: Lambda1 0.5499999999999996 Lambda2 0.4999999999999996 [dLambda -0.04999999999999999]
TCL: Setting parameter firsttimestep to 0
TCL: Setting parameter alchLambda to 0.5499999999999996
Info: NONBONDED TABLE R-SQUARED SPACING: 0.0625
Info: NONBONDED TABLE SIZE: 705 POINTS
TCL: Setting parameter alchLambda2 to 0.4999999999999996
Info: NONBONDED TABLE R-SQUARED SPACING: 0.0625
Info: NONBONDED TABLE SIZE: 705 POINTS
TCL: Running for 1500000 steps
ETITLE: TS BOND ANGLE DIHED IMPRP ELECT VDW BOUNDARY MISC KINETIC TOTAL TEMP POTENTIAL TOTALAVG TEMPAVG PRESSURE GPRESSURE VOLUME PRESSAVG GPRESSAVG
ENERGY: 0 1.9318 5.1695 11.0866 0.0000 -10718.3242 1332.4176 0.0000 0.0000 1833.6668 -7534.0519 310.1136 -9367.7187 -7534.0519 310.1136 -1066.1151 -981.8736 30897.0570 -1066.1151 -981.8736
ENERGY: 300000 1.0964 5.4365 6.8067 0.0000 -10854.0704 1502.9402 0.0000 0.0000 1807.7227 -7530.0679 305.7259 -9337.7906 -7556.6193 303.5699 398.4695 450.5243 30958.4916 -324.5636 -258.3751
ENERGY: 600000 0.7969 4.4812 7.0096 0.0000 -10775.0846 1463.5600 0.0000 0.0000 1791.1189 -7508.1181 302.9178 -9299.2370 -7564.9793 303.3345 158.9790 229.4566 31083.0743 -168.8752 -113.5537
ENERGY: 900000 1.1448 2.0725 6.7154 0.0000 -10927.0505 1532.0330 0.0000 0.0000 1811.9942 -7573.0905 306.4483 -9385.0848 -7572.7194 302.2642 775.7847 787.5751 30298.6289 -69.2801 -12.2412
ENERGY: 1200000 1.8114 3.8747 7.7456 0.0000 -10720.9002 1362.1874 0.0000 0.0000 1725.2948 -7619.9863 291.7855 -9345.2811 -7567.6750 302.3297 -873.7136 -796.4329 30966.5413 -160.8203 -96.2507
ENERGY: 1500000 1.0699 4.5584 5.8912 0.0000 -10678.9167 1378.3267 0.0000 0.0000 1839.1032 -7449.9673 311.0330 -9289.0705 -7559.0478 302.7434 -453.6435 -356.2687 30946.7056 -172.7120 -106.4588
TCL: Running FEP window  11: Lambda1 0.4999999999999996 Lambda2 0.4499999999999996 [dLambda -0.04999999999999999]
TCL: Setting parameter firsttimestep to 0
TCL: Setting parameter alchLambda to 0.4999999999999996
Info: NONBONDED TABLE R-SQUARED SPACING: 0.0625
Info: NONBONDED TABLE SIZE: 705 POINTS
TCL: Setting parameter alchLambda2 to 0.4499999999999996
Info: NONBONDED TABLE R-SQUARED SPACING: 0.0625
Info: NONBONDED TABLE SIZE: 705 POINTS
TCL: Running for 1500000 steps
ETITLE: TS BOND ANGLE DIHED IMPRP ELECT VDW BOUNDARY MISC KINETIC TOTAL TEMP POTENTIAL TOTALAVG TEMPAVG PRESSURE GPRESSURE VOLUME PRESSAVG GPRESSAVG
ENERGY: 0 1.0699 4.5584 5.8912 0.0000 -10679.3724 1378.8037 0.0000 0.0000 1838.2377 -7450.8116 310.8867 -9289.0493 -7450.8116 310.8867 -432.5791 -356.6816 30946.7056 -432.5791 -356.6816
ENERGY: 300000 3.3019 4.0324 5.8488 0.0000 -10784.2355 1403.8247 0.0000 0.0000 1768.4090 -7598.8187 299.0771 -9367.2277 -7562.8074 300.2726 -427.2152 -364.0009 30553.3378 -339.1339 -284.4493
ENERGY: 600000 3.5058 5.1958 6.8256 0.0000 -10734.8004 1459.7058 0.0000 0.0000 1774.3091 -7485.2583 300.0749 -9259.5674 -7548.9156 301.0535 218.2497 245.2104 30801.0236 -253.2670 -202.2748
ENERGY: 900000 0.0773 2.6109 6.3197 0.0000 -10875.1285 1443.4748 0.0000 0.0000 1756.2424 -7666.4033 297.0194 -9422.6457 -7572.2465 301.4860 -143.4567 -124.9924 30427.5825 -252.0256 -204.5162
ENERGY: 1200000 0.1850 4.5218 6.4028 0.0000 -10844.6501 1459.6840 0.0000 0.0000 1777.9783 -7595.8782 300.6955 -9373.8565 -7567.1187 302.4081 -207.3374 -173.6458 30982.4640 -115.7227 -71.1152
ENERGY: 1500000 1.1923 3.3145 5.5483 0.0000 -10926.8401 1516.9344 0.0000 0.0000 1768.5913 -7631.2592 299.1079 -9399.8505 -7577.6839 301.5293 278.6173 278.2313 30669.2854 -56.6333 -16.0882
TCL: Running FEP window  12: Lambda1 0.4499999999999996 Lambda2 0.39999999999999963 [dLambda -0.04999999999999999]
TCL: Setting parameter firsttimestep to 0
TCL: Setting parameter alchLambda to 0.4499999999999996
Info: NONBONDED TABLE R-SQUARED SPACING: 0.0625
Info: NONBONDED TABLE SIZE: 705 POINTS
TCL: Setting parameter alchLambda2 to 0.39999999999999963
Info: NONBONDED TABLE R-SQUARED SPACING: 0.0625
Info: NONBONDED TABLE SIZE: 705 POINTS
TCL: Running for 1500000 steps
ETITLE: TS BOND ANGLE DIHED IMPRP ELECT VDW BOUNDARY MISC KINETIC TOTAL TEMP POTENTIAL TOTALAVG TEMPAVG PRESSURE GPRESSURE VOLUME PRESSAVG GPRESSAVG
ENERGY: 0 1.1923 3.3145 5.5483 0.0000 -10926.8395 1517.3445 0.0000 0.0000 1767.7333 -7631.7065 298.9628 -9399.4398 -7631.7065 298.9628 208.5026 275.8198 30669.2854 208.5026 275.8198
ENERGY: 300000 2.4961 4.5620 6.4971 0.0000 -10859.7563 1430.9730 0.0000 0.0000 1753.9656 -7661.2624 296.6344 -9415.2280 -7608.7176 300.6668 -194.9937 -194.3476 30348.3313 97.3413 136.1004
ENERGY: 600000 4.2696 6.6198 7.6454 0.0000 -10933.9840 1506.5202 0.0000 0.0000 1774.4941 -7634.4348 300.1062 -9408.9289 -7611.6069 299.9024 721.9469 771.3633 29858.7424 -23.7648 33.6637
ENERGY: 900000 0.7040 4.5275 5.4272 0.0000 -10787.6256 1451.6161 0.0000 0.0000 1784.7711 -7540.5797 301.8443 -9325.3508 -7611.4731 299.3686 369.6727 439.3334 30359.1548 -41.8789 13.6811
ENERGY: 1200000 3.8557 3.4069 5.5473 0.0000 -10696.7222 1336.2886 0.0000 0.0000 1731.7157 -7615.9080 292.8714 -9347.6237 -7607.8989 298.4818 -910.3202 -808.7488 30720.6334 -47.3452 15.9242
ENERGY: 1500000 0.3514 4.9131 6.2459 0.0000 -10848.9037 1438.7523 0.0000 0.0000 1816.8746 -7581.7664 307.2737 -9398.6410 -7602.9105 299.3732 -356.4290 -256.3205 30693.4577 -95.9205 -32.6438
TCL: Running FEP window  13: Lambda1 0.39999999999999963 Lambda2 0.34999999999999964 [dLambda -0.04999999999999999]
TCL: Setting parameter firsttimestep to 0
TCL: Setting parameter alchLambda to 0.39999999999999963
Info: NONBONDED TABLE R-SQUARED SPACING: 0.0625
Info: NONBONDED TABLE SIZE: 705 POINTS
TCL: Setting parameter alchLambda2 to 0.34999999999999964
Info: NONBONDED TABLE R-SQUARED SPACING: 0.0625
Info: NONBONDED TABLE SIZE: 705 POINTS
TCL: Running for 1500000 steps
ETITLE: TS BOND ANGLE DIHED IMPRP ELECT VDW BOUNDARY MISC KINETIC TOTAL TEMP POTENTIAL TOTALAVG TEMPAVG PRESSURE GPRESSURE VOLUME PRESSAVG GPRESSAVG
ENERGY: 0 0.3514 4.9131 6.2459 0.0000 -10848.9037 1438.9120 0.0000 0.0000 1816.0211 -7582.4602 307.1293 -9398.4813 -7582.4602 307.1293 -334.9468 -259.6462 30693.4577 -334.9468 -259.6462
ENERGY: 300000 4.7901 3.0086 7.3406 0.0000 -10848.8946 1481.9241 0.0000 0.0000 1756.0914 -7595.7397 296.9939 -9351.8311 -7558.3143 302.5471 183.1753 287.3942 30266.8211 288.1799 374.8559
ENERGY: 600000 3.7316 5.3676 6.7895 0.0000 -10835.6760 1453.9658 0.0000 0.0000 1789.3521 -7576.4693 302.6190 -9365.8214 -7557.5290 302.3183 93.2888 162.3713 30350.6935 269.0977 348.8956
ENERGY: 900000 1.8777 4.3372 7.0524 0.0000 -10818.9598 1474.8202 0.0000 0.0000 1770.7629 -7560.1094 299.4752 -9330.8723 -7557.0073 302.7183 252.5405 324.8407 30800.3520 198.9301 275.1347
ENERGY: 1200000 3.1985 5.7569 8.1510 0.0000 -10809.5589 1458.7215 0.0000 0.0000 1827.4656 -7506.2654 309.0649 -9333.7311 -7555.3464 302.7731 64.0656 161.2619 30663.5647 126.8858 205.4972
ENERGY: 1500000 1.0679 5.0308 8.5876 0.0000 -10803.7907 1432.5662 0.0000 0.0000 1820.0140 -7536.5242 307.8046 -9356.5381 -7558.7753 302.6261 66.9272 106.2620 30514.4649 87.8181 166.6510
TCL: Running FEP window  14: Lambda1 0.34999999999999964 Lambda2 0.29999999999999966 [dLambda -0.04999999999999999]
TCL: Setting parameter firsttimestep to 0
TCL: Setting parameter alchLambda to 0.34999999999999964
Info: NONBONDED TABLE R-SQUARED SPACING: 0.0625
Info: NONBONDED TABLE SIZE: 705 POINTS
TCL: Setting parameter alchLambda2 to 0.29999999999999966
Info: NONBONDED TABLE R-SQUARED SPACING: 0.0625
Info: NONBONDED TABLE SIZE: 705 POINTS
TCL: Running for 1500000 steps
ETITLE: TS BOND ANGLE DIHED IMPRP ELECT VDW BOUNDARY MISC KINETIC TOTAL TEMP POTENTIAL TOTALAVG TEMPAVG PRESSURE GPRESSURE VOLUME PRESSAVG GPRESSAVG
ENERGY: 0 1.0679 5.0308 8.5876 0.0000 -10803.7896 1432.9610 0.0000 0.0000 1819.1077 -7537.0346 307.6514 -9356.1423 -7537.0346 307.6514 18.9009 105.9281 30514.4649 18.9009 105.9281
ENERGY: 300000 0.3507 5.6031 8.0150 0.0000 -10784.9774 1428.2577 0.0000 0.0000 1777.9878 -7564.7630 300.6971 -9342.7508 -7579.3551 303.7823 -179.1681 -85.8262 30642.8422 -86.4298 3.0700
ENERGY: 600000 0.5876 3.1250 6.1050 0.0000 -10786.4451 1480.1635 0.0000 0.0000 1736.1688 -7560.2953 293.6246 -9296.4641 -7568.6464 301.8293 158.5541 236.0304 30876.2913 11.9167 86.8086
ENERGY: 900000 1.1590 5.0860 5.7437 0.0000 -10616.7281 1304.2004 0.0000 0.0000 1794.8378 -7505.7011 303.5468 -9300.5389 -7554.1308 301.8765 -973.6262 -921.1854 30682.5018 -186.9988 -110.2464
ENERGY: 1200000 1.8714 6.0357 7.3362 0.0000 -10852.9681 1417.7573 0.0000 0.0000 1787.3120 -7632.6555 302.2740 -9419.9675 -7566.5761 301.4917 -687.3990 -625.1345 30692.6727 -133.2826 -57.8237
ENERGY: 1500000 2.3775 6.5574 6.4874 0.0000 -10900.8350 1482.9977 0.0000 0.0000 1733.7753 -7668.6397 293.2198 -9402.4150 -7569.9293 300.5931 283.6779 389.8814 30119.2023 -173.3105 -99.5521
TCL: Running FEP window  15: Lambda1 0.29999999999999966 Lambda2 0.24999999999999967 [dLambda -0.04999999999999999]
TCL: Setting parameter firsttimestep to 0
TCL: Setting parameter alchLambda to 0.29999999999999966
Info: NONBONDED TABLE R-SQUARED SPACING: 0.0625
Info: NONBONDED TABLE SIZE: 705 POINTS
TCL: Setting parameter alchLambda2 to 0.24999999999999967
Info: NONBONDED TABLE R-SQUARED SPACING: 0.0625
Info: NONBONDED TABLE SIZE: 705 POINTS
TCL: Running for 1500000 steps
ETITLE: TS BOND ANGLE DIHED IMPRP ELECT VDW BOUNDARY MISC KINETIC TOTAL TEMP POTENTIAL TOTALAVG TEMPAVG PRESSURE GPRESSURE VOLUME PRESSAVG GPRESSAVG
ENERGY: 0 2.3775 6.5574 6.4874 0.0000 -10900.8356 1482.9013 0.0000 0.0000 1732.9233 -7669.5887 293.0757 -9402.5119 -7669.5887 293.0757 306.3918 386.8351 30119.2023 306.3918 386.8351
ENERGY: 300000 0.7051 5.6854 6.2386 0.0000 -10908.9626 1487.8963 0.0000 0.0000 1746.8649 -7661.5723 295.4335 -9408.4372 -7645.0713 298.1072 47.1803 57.2278 30742.7651 21.8728 82.0742
ENERGY: 600000 2.4575 3.2960 6.9406 0.0000 -10823.0817 1458.3663 0.0000 0.0000 1721.4035 -7630.6178 291.1274 -9352.0213 -7628.7624 298.0665 18.2799 144.2019 30499.7072 -19.6097 63.9105
ENERGY: 900000 0.4239 2.7290 6.3962 0.0000 -10864.4418 1411.2609 0.0000 0.0000 1734.5708 -7709.0611 293.3543 -9443.6319 -7632.7552 297.5381 -354.0971 -306.4936 30312.9538 -68.6783 9.3596
ENERGY: 1200000 0.9260 3.7932 6.5390 0.0000 -10696.4258 1338.6248 0.0000 0.0000 1827.8826 -7518.6603 309.1354 -9346.5429 -7612.3796 298.5106 -1003.3205 -985.2829 30967.7600 -115.8236 -46.5098
ENERGY: 1500000 0.9278 4.0762 5.6213 0.0000 -10834.7108 1473.4666 0.0000 0.0000 1766.4123 -7584.2067 298.7394 -9350.6191 -7608.6279 298.0834 -25.1897 114.1355 30562.3734 -144.3106 -70.8236
TCL: Running FEP window  16: Lambda1 0.24999999999999967 Lambda2 0.19999999999999968 [dLambda -0.04999999999999999]
TCL: Setting parameter firsttimestep to 0
TCL: Setting parameter alchLambda to 0.24999999999999967
Info: NONBONDED TABLE R-SQUARED SPACING: 0.0625
Info: NONBONDED TABLE SIZE: 705 POINTS
TCL: Setting parameter alchLambda2 to 0.19999999999999968
Info: NONBONDED TABLE R-SQUARED SPACING: 0.0625
Info: NONBONDED TABLE SIZE: 705 POINTS
TCL: Running for 1500000 steps
ETITLE: TS BOND ANGLE DIHED IMPRP ELECT VDW BOUNDARY MISC KINETIC TOTAL TEMP POTENTIAL TOTALAVG TEMPAVG PRESSURE GPRESSURE VOLUME PRESSAVG GPRESSAVG
ENERGY: 0 0.9278 4.0762 5.6213 0.0000 -10834.7106 1473.4632 0.0000 0.0000 1765.5344 -7585.0878 298.5909 -9350.6222 -7585.0878 298.5909 25.0058 111.2754 30562.3734 25.0058 111.2754
ENERGY: 300000 0.3710 7.2402 7.0028 0.0000 -10726.4547 1397.8953 0.0000 0.0000 1797.9653 -7515.9802 304.0757 -9313.9455 -7533.2669 301.9965 -304.8754 -265.1662 30699.1524 -297.1195 -220.8364
ENERGY: 600000 2.9837 6.1584 6.3594 0.0000 -10848.5898 1496.2001 0.0000 0.0000 1792.2360 -7544.6522 303.1068 -9336.8882 -7550.9045 300.5828 344.6149 428.9732 30780.0176 -99.6517 -35.5468
ENERGY: 900000 2.2499 5.2151 5.3612 0.0000 -10697.1190 1392.7518 0.0000 0.0000 1779.4366 -7512.1043 300.9421 -9291.5409 -7537.7734 302.1209 -238.3258 -127.1599 30489.9697 -84.8613 -14.8372
ENERGY: 1200000 1.9316 4.4808 6.7345 0.0000 -10743.1021 1384.0519 0.0000 0.0000 1776.8280 -7569.0752 300.5009 -9345.9032 -7542.0410 302.7011 -582.2156 -492.3111 30864.3541 -126.1777 -65.2098
ENERGY: 1500000 0.2546 5.9054 6.5809 0.0000 -10733.8779 1347.8769 0.0000 0.0000 1788.3821 -7584.8780 302.4550 -9373.2601 -7553.8001 302.5778 -856.2457 -793.4443 30733.4468 -147.0604 -92.6068
TCL: Running FEP window  17: Lambda1 0.19999999999999968 Lambda2 0.1499999999999997 [dLambda -0.04999999999999999]
TCL: Setting parameter firsttimestep to 0
TCL: Setting parameter alchLambda to 0.19999999999999968
Info: NONBONDED TABLE R-SQUARED SPACING: 0.0625
Info: NONBONDED TABLE SIZE: 705 POINTS
TCL: Setting parameter alchLambda2 to 0.1499999999999997
Info: NONBONDED TABLE R-SQUARED SPACING: 0.0625
Info: NONBONDED TABLE SIZE: 705 POINTS
TCL: Running for 1500000 steps
ETITLE: TS BOND ANGLE DIHED IMPRP ELECT VDW BOUNDARY MISC KINETIC TOTAL TEMP POTENTIAL TOTALAVG TEMPAVG PRESSURE GPRESSURE VOLUME PRESSAVG GPRESSAVG
ENERGY: 0 0.2546 5.9054 6.5809 0.0000 -10733.8773 1347.2157 0.0000 0.0000 1787.4752 -7586.4455 302.3016 -9373.9207 -7586.4455 302.3016 -892.2782 -801.1287 30733.4468 -892.2782 -801.1287
ENERGY: 300000 3.2178 6.9910 5.6765 0.0000 -10819.6083 1415.2076 0.0000 0.0000 1811.1202 -7577.3951 306.3005 -9388.5153 -7584.8910 303.6715 -155.3096 -149.9381 30126.3858 -171.0962 -75.9973
ENERGY: 600000 0.9229 6.4914 7.6625 0.0000 -10767.1064 1434.6913 0.0000 0.0000 1729.0529 -7588.2854 292.4211 -9317.3383 -7594.9287 301.8272 -207.6225 -119.7518 30632.4392 -275.8276 -187.2831
ENERGY: 900000 1.5058 8.4934 6.9817 0.0000 -10717.0296 1381.6467 0.0000 0.0000 1824.1171 -7494.2848 308.4986 -9318.4019 -7590.7350 302.0569 -530.3414 -436.8773 30951.2713 -335.6517 -244.4696
ENERGY: 1200000 2.0263 5.3692 6.5475 0.0000 -11051.9163 1646.1107 0.0000 0.0000 1802.3518 -7589.5110 304.8176 -9391.8627 -7589.2495 301.9117 1683.8829 1733.9923 30109.3708 -152.7712 -68.0744
ENERGY: 1500000 1.3714 6.8019 5.8402 0.0000 -10811.1133 1428.4232 0.0000 0.0000 1779.5970 -7589.0796 300.9692 -9368.6766 -7595.8994 301.5040 -210.7170 -167.3714 30619.0001 -162.4296 -79.2522
TCL: Running FEP window  18: Lambda1 0.1499999999999997 Lambda2 0.09999999999999969 [dLambda -0.05 ]
TCL: Setting parameter firsttimestep to 0
TCL: Setting parameter alchLambda to 0.1499999999999997
Info: NONBONDED TABLE R-SQUARED SPACING: 0.0625
Info: NONBONDED TABLE SIZE: 705 POINTS
TCL: Setting parameter alchLambda2 to 0.09999999999999969
Info: NONBONDED TABLE R-SQUARED SPACING: 0.0625
Info: NONBONDED TABLE SIZE: 705 POINTS
TCL: Running for 1500000 steps
ETITLE: TS BOND ANGLE DIHED IMPRP ELECT VDW BOUNDARY MISC KINETIC TOTAL TEMP POTENTIAL TOTALAVG TEMPAVG PRESSURE GPRESSURE VOLUME PRESSAVG GPRESSAVG
ENERGY: 0 1.3714 6.8019 5.8402 0.0000 -10811.1129 1427.8032 0.0000 0.0000 1778.7029 -7590.5933 300.8180 -9369.2962 -7590.5933 300.8180 -246.5306 -174.3456 30619.0001 -246.5306 -174.3456
ENERGY: 300000 0.8936 7.9320 6.8836 0.0000 -10778.5017 1416.3813 0.0000 0.0000 1785.1992 -7561.2120 301.9167 -9346.4113 -7556.9289 302.0445 -115.8199 -91.9570 30387.1852 108.5422 167.0492
ENERGY: 600000 0.3651 6.3379 6.5746 0.0000 -11063.3088 1622.3887 0.0000 0.0000 1781.2455 -7646.3969 301.2480 -9427.6424 -7604.6292 300.2451 1192.2976 1231.9037 30216.4893 309.9362 372.8517
ENERGY: 900000 2.6220 2.8840 6.8865 0.0000 -10880.3357 1467.5394 0.0000 0.0000 1775.3761 -7625.0277 300.2554 -9400.4039 -7596.3357 300.8472 58.1424 141.0221 30498.6858 32.8786 93.5374
ENERGY: 1200000 0.4565 6.1194 5.6831 0.0000 -10959.0146 1555.3669 0.0000 0.0000 1777.4650 -7613.9238 300.6087 -9391.3888 -7607.0581 300.6934 707.5872 848.9800 30224.3400 115.5289 182.3503
ENERGY: 1500000 0.9714 4.8478 5.3773 0.0000 -10931.5798 1508.2504 0.0000 0.0000 1791.8773 -7620.2556 303.0461 -9412.1329 -7605.4951 300.7122 347.6393 438.3226 30444.4940 187.6990 253.5575
TCL: Running FEP window  19: Lambda1 0.09999999999999969 Lambda2 0.049999999999999684 [dLambda -0.05 ]
TCL: Setting parameter firsttimestep to 0
TCL: Setting parameter alchLambda to 0.09999999999999969
Info: NONBONDED TABLE R-SQUARED SPACING: 0.0625
Info: NONBONDED TABLE SIZE: 705 POINTS
TCL: Setting parameter alchLambda2 to 0.049999999999999684
Info: NONBONDED TABLE R-SQUARED SPACING: 0.0625
Info: NONBONDED TABLE SIZE: 705 POINTS
TCL: Running for 1500000 steps
ETITLE: TS BOND ANGLE DIHED IMPRP ELECT VDW BOUNDARY MISC KINETIC TOTAL TEMP POTENTIAL TOTALAVG TEMPAVG PRESSURE GPRESSURE VOLUME PRESSAVG GPRESSAVG
ENERGY: 0 0.9714 4.8478 5.3773 0.0000 -10931.5791 1508.5807 0.0000 0.0000 1791.0272 -7620.7748 302.9023 -9411.8020 -7620.7748 302.9023 347.6434 439.1938 30444.4940 347.6434 439.1938
ENERGY: 300000 1.0768 7.0818 6.5990 0.0000 -10843.7984 1439.9839 0.0000 0.0000 1756.8587 -7632.1981 297.1237 -9389.0568 -7597.9555 302.7027 -349.5957 -337.1853 30735.4172 -82.6145 -9.8308
ENERGY: 600000 2.5895 9.0210 7.0129 0.0000 -10905.8161 1579.0260 0.0000 0.0000 1781.7192 -7526.4475 301.3281 -9308.1668 -7593.1635 302.3339 875.6934 987.8845 30542.0882 -47.0150 31.5495
ENERGY: 900000 2.1777 5.4985 6.2101 0.0000 -10784.8212 1495.9945 0.0000 0.0000 1749.5916 -7525.3488 295.8947 -9274.9404 -7592.5877 301.4800 497.3537 539.5566 30586.1779 106.9508 176.6209
ENERGY: 1200000 0.2921 5.1940 6.6916 0.0000 -10861.3077 1450.2291 0.0000 0.0000 1767.0423 -7631.8586 298.8460 -9398.9010 -7578.8400 302.2379 -166.8066 -160.0471 30529.7483 9.0224 71.1790
ENERGY: 1500000 0.8869 9.0812 5.6222 0.0000 -11040.8279 1671.8533 0.0000 0.0000 1809.1439 -7544.2403 305.9663 -9353.3843 -7567.7942 302.9725 1998.9785 2075.0509 30007.9497 181.4662 244.4940
TCL: Running FEP window  20: Lambda1 0.049999999999999684 Lambda2 0.0    [dLambda -0.049999999999999684]
TCL: Setting parameter firsttimestep to 0
TCL: Setting parameter alchLambda to 0.049999999999999684
Info: NONBONDED TABLE R-SQUARED SPACING: 0.0625
Info: NONBONDED TABLE SIZE: 705 POINTS
TCL: Setting parameter alchLambda2 to 0.0
Info: NONBONDED TABLE R-SQUARED SPACING: 0.0625
Info: NONBONDED TABLE SIZE: 705 POINTS
TCL: Running for 1500000 steps
ETITLE: TS BOND ANGLE DIHED IMPRP ELECT VDW BOUNDARY MISC KINETIC TOTAL TEMP POTENTIAL TOTALAVG TEMPAVG PRESSURE GPRESSURE VOLUME PRESSAVG GPRESSAVG
ENERGY: 0 0.8869 9.0812 5.6222 0.0000 -11040.8280 1671.5332 0.0000 0.0000 1808.2450 -7545.4595 305.8142 -9353.7045 -7545.4595 305.8142 2009.3519 2073.9699 30007.9497 2009.3519 2073.9699
ENERGY: 300000 0.8857 3.2824 5.8039 0.0000 -10810.0387 1424.5303 0.0000 0.0000 1803.4195 -7572.1168 304.9981 -9375.5364 -7558.4729 304.1712 -292.2640 -168.9920 30437.7810 380.1990 468.5376
ENERGY: 600000 0.2815 2.9163 5.9020 0.0000 -10703.3253 1379.5115 0.0000 0.0000 1799.0383 -7515.6756 304.2572 -9314.7139 -7544.1108 304.3456 -694.8411 -586.4446 30943.6624 203.0015 290.2401
ENERGY: 900000 1.0840 3.1987 6.4467 0.0000 -10806.0600 1452.7690 0.0000 0.0000 1803.6642 -7538.8974 305.0395 -9342.5616 -7557.0426 302.9394 -179.7799 -77.4133 30660.8306 37.5033 125.0125
ENERGY: 1200000 1.5909 5.2899 6.9655 0.0000 -10683.6468 1398.4145 0.0000 0.0000 1782.5182 -7488.8677 301.4633 -9271.3859 -7549.1370 302.3423 -224.8300 -160.3741 30649.0066 -31.1624 49.5023
ENERGY: 1500000 0.1167 4.9819 6.5140 0.0000 -10831.1505 1532.6713 0.0000 0.0000 1749.1176 -7537.7489 295.8145 -9286.8665 -7557.0477 301.2106 498.5489 541.6335 30881.3272 12.3390 90.4023
TCL: Exiting due to exit command.
