Info: SIMULATION PARAMETERS:
Info: TIMESTEP               2
Info: NUMBER OF STEPS        0
Info: STEPS PER CYCLE        10
Info: PERIODIC CELL BASIS 1  31.3962 0 0
Info: PERIODIC CELL BASIS 2  0 29.9703 0
Info: PERIODIC CELL BASIS 3  0 0 31.6665
Info: PERIODIC CELL CENTER   0 0 0
Info: WRAPPING WATERS AROUND PERIODIC BOUNDARIES ON OUTPUT.
Info: WRAPPING ALL CLUSTERS AROUND PERIODIC BOUNDARIES ON OUTPUT.
Info: FIRST LDB TIMESTEP     50
Info: LAST LDB TIMESTEP     -1
Info: HOM BACKGROUND SCALING 1
Info: PME BACKGROUND SCALING 1
Info: MIN ATOMS PER PATCH    40
Info: EMPTY PATCH LOAD       40 ATOMS
Info: VELOCITY FILE          mobley_8705848_equil.vel
Info: CENTER OF MASS MOVING INITIALLY? NO
Info: DIELECTRIC             1
Info: EXCLUDE                SCALED ONE-FOUR
Info: 1-4 ELECTROSTATICS SCALED BY 0.833333
Info: MODIFIED 1-4 VDW PARAMETERS WILL BE USED
Info: DCD FILENAME           mobley_8705848_prod.dcd
Info: DCD FREQUENCY          100000
Info: DCD FIRST STEP         100000
Info: DCD FILE WILL CONTAIN UNIT CELL DATA
Info: XST FILENAME           mobley_8705848_prod.xst
Info: XST FREQUENCY          100000
Info: NO VELOCITY DCD OUTPUT
Info: NO FORCE DCD OUTPUT
Info: OUTPUT FILENAME        mobley_8705848_prod
Info: BINARY OUTPUT FILES WILL BE USED
Info: RESTART FILENAME       mobley_8705848_prod.restart
Info: RESTART FREQUENCY      100000
Info: BINARY RESTART FILES WILL BE USED
Info: CUTOFF                 9
Info: PAIRLIST DISTANCE      11
Info: PAIRLIST SHRINK RATE   0.01
Info: PAIRLIST GROW RATE     0.01
Info: PAIRLIST TRIGGER       0.3
Info: PAIRLISTS PER CYCLE    2
Info: PAIRLISTS ENABLED
Info: MARGIN                 2
Info: HYDROGEN GROUP CUTOFF  2.5
Info: PATCH DIMENSION        15.5
Info: ENERGY OUTPUT STEPS    100000
Info: ENERGY EVALUATION STEPS    100000
Info: OUTPUT ENERGY PRECISION 4
Info: CROSSTERM ENERGY INCLUDED IN DIHEDRAL
Info: TIMING OUTPUT STEPS    1000000
Info: PRESSURE OUTPUT STEPS  100000
Info: ALCHEMICAL FEP ON
Info: FEP CURRENT LAMBDA VALUE     1
Info: FEP COMPARISON LAMBDA VALUE  0.95
Info: FEP INTRA-ALCHEMICAL NON-BONDED INTERACTIONS WILL BE RETAINED
Info: FEP INTRA-ALCHEMICAL BONDED INTERACTIONS WILL BE RETAINED
Info: FEP VDW SHIFTING COEFFICIENT 5
Info: FEP ELEC. ACTIVE FOR ANNIHILATED PARTICLES BETWEEN LAMBDA = 0 AND LAMBDA = 0.5
Info: FEP ELEC. ACTIVE FOR EXNIHILATED PARTICLES BETWEEN LAMBDA = 0.5 AND LAMBDA = 1
Info: FEP VDW ACTIVE FOR ANNIHILATED PARTICLES BETWEEN LAMBDA = 0 AND LAMBDA = 1
Info: FEP VDW ACTIVE FOR EXNIHILATED PARTICLES BETWEEN LAMBDA = 0 AND LAMBDA = 1
Info: FEP BOND ACTIVE FOR ANNIHILATED PARTICLES BETWEEN LAMBDA = 1 AND LAMBDA = 1
Info: FEP BOND ACTIVE FOR EXNIHILATED PARTICLES BETWEEN LAMBDA = 0 AND LAMBDA = 0
Info: LANGEVIN DYNAMICS ACTIVE
Info: LANGEVIN TEMPERATURE   300
Info: LANGEVIN USING BBK INTEGRATOR
Info: LANGEVIN DAMPING COEFFICIENT IS 1 INVERSE PS
Info: LANGEVIN DYNAMICS APPLIED TO HYDROGENS
Info: LANGEVIN PISTON PRESSURE CONTROL ACTIVE
Info:        TARGET PRESSURE IS 1.01325 BAR
Info:     OSCILLATION PERIOD IS 50 FS
Info:             DECAY TIME IS 25 FS
Info:     PISTON TEMPERATURE IS 300 K
Info:       PRESSURE CONTROL IS GROUP-BASED
Info:    INITIAL STRAIN RATE IS -0.000142178 -0.000142178 -0.000142178
Info:       CELL FLUCTUATION IS ISOTROPIC
Info: PARTICLE MESH EWALD (PME) ACTIVE
Info: PME TOLERANCE               1e-06
Info: PME EWALD COEFFICIENT       0.348832
Info: PME INTERPOLATION ORDER     4
Info: PME GRID DIMENSIONS         32 32 32
Info: PME MAXIMUM GRID SPACING    1
Info: PME CALCULATION WILL BE PERFORMED ON GPU
Info: FULL ELECTROSTATIC EVALUATION FREQUENCY      2
Info: USING VERLET I (r-RESPA) MTS SCHEME.
Info: C1 SPLITTING OF LONG RANGE ELECTROSTATICS
Info: PLACING ATOMS IN PATCHES BY HYDROGEN GROUPS
Info: RIGID BONDS TO HYDROGEN : ALL
Info:         ERROR TOLERANCE : 1e-08
Info:          MAX ITERATIONS : 100
Info: RIGID WATER USING SETTLE ALGORITHM
Info: RANDOM NUMBER SEED     1743878778
Info: USE HYDROGEN BONDS?    NO
Info: Using AMBER format force field!
Info: AMBER PARM FILE        mobley_8705848.prmtop
Info: COORDINATE PDB         mobley_8705848.pdb
Info: Exclusions will be read from PARM file!
Info: SCNB (VDW SCALING)     2
Info: USING ARITHMETIC MEAN TO COMBINE L-J SIGMA PARAMETERS
Info: BINARY COORDINATES     mobley_8705848_equil.coor
Info: SUMMARY OF PARAMETERS:
Info: 7 BONDS
Info: 8 ANGLES
Info:   8 HARMONIC
Info:   0 COSINE-BASED
Info: 4 DIHEDRAL
Info: 0 IMPROPER
Info: 0 CROSSTERM
Info: 0 VDW
Info: 28 VDW_PAIRS
Info: 0 NBTHOLE_PAIRS
Info: To read alchdata from file: mobley_8705848.pdb
Info: To read alchflag data from column: 5
Info: STRUCTURE SUMMARY:
Info: 2917 ATOMS
Info: 2916 BONDS
Info: 39 ANGLES
Info: 52 DIHEDRALS
Info: 0 IMPROPERS
Info: 0 CROSSTERMS
Info: 3003 EXCLUSIONS
Info: 2910 RIGID BONDS
Info: ALCH: 0 ATOMS TO DISAPPEAR IN FINAL STATE
Info: ALCH: 22 ATOMS TO APPEAR IN FINAL STATE
Info: 5841 DEGREES OF FREEDOM
Info: 972 HYDROGEN GROUPS
Info: 4 ATOMS IN LARGEST HYDROGEN GROUP
Info: 972 MIGRATION GROUPS
Info: 4 ATOMS IN LARGEST MIGRATION GROUP
Info: TOTAL MASS = 17486.6 amu
Info: TOTAL CHARGE = -0.000199944 e
Info: MASS DENSITY = 0.974536 g/cm^3
Info: ATOM DENSITY = 0.0978969 atoms/A^3
Info: ADDED 0 IMPLICIT EXCLUSIONS
Info: NONBONDED TABLE R-SQUARED SPACING: 0.0625
Info: NONBONDED TABLE SIZE: 705 POINTS
Info: REMOVING COM VELOCITY -0.0646841 -0.0128394 -0.0588088
Info: Use 3D box decompostion in PME FFT.
Info: Updated CUDA force table with 4096 elements.
Info: Updated CUDA LJ table with 7 x 7 elements.
Info: Found 25 unique exclusion lists needing 72 bytes
TCL: Running for 1500000 steps
ETITLE: TS BOND ANGLE DIHED IMPRP ELECT VDW BOUNDARY MISC KINETIC TOTAL TEMP POTENTIAL TOTALAVG TEMPAVG PRESSURE GPRESSURE VOLUME PRESSAVG GPRESSAVG
ENERGY: 0 1.1328 10.6509 2.8498 0.0000 -10635.1657 1474.6102 0.0000 0.0000 1748.2372 -7397.6848 301.2337 -9145.9220 -7397.6848 301.2337 606.4497 699.5069 29796.6598 606.4497 699.5069
ENERGY: 300000 1.6880 16.4724 6.5585 0.0000 -10449.4052 1305.0698 0.0000 0.0000 1740.2297 -7379.3868 299.8539 -9119.6165 -7376.3188 301.9405 -512.0284 -436.3956 29786.4027 -127.6294 -79.1059
ENERGY: 600000 2.6769 13.8737 5.2287 0.0000 -10682.5666 1434.7334 0.0000 0.0000 1773.4962 -7452.5577 305.5860 -9226.0539 -7401.8529 302.1422 -451.1510 -348.0283 30421.5545 -201.2709 -145.1116
ENERGY: 900000 4.5948 13.8230 3.6870 0.0000 -10570.6521 1399.6320 0.0000 0.0000 1730.8255 -7418.0899 298.2335 -9148.9154 -7396.6876 301.5073 -55.3075 15.5145 29945.8808 -147.2565 -98.2141
ENERGY: 1200000 1.2358 13.1265 4.8600 0.0000 -10654.3591 1478.9000 0.0000 0.0000 1737.6280 -7418.6089 299.4056 -9156.2369 -7394.7422 300.8435 185.2698 202.2918 30586.0037 -66.5971 -15.8775
ENERGY: 1500000 1.1081 10.2712 3.3809 0.0000 -10661.4115 1410.0403 0.0000 0.0000 1720.2905 -7516.3206 296.4183 -9236.6110 -7396.5577 300.5283 -245.5349 -119.2765 29810.2164 -172.1787 -113.8325
TCL: Running FEP window   2: Lambda1 0.95   Lambda2 0.8999999999999999 [dLambda -0.050000000000000044]
TCL: Setting parameter firsttimestep to 0
TCL: Setting parameter alchLambda to 0.95
Info: NONBONDED TABLE R-SQUARED SPACING: 0.0625
Info: NONBONDED TABLE SIZE: 705 POINTS
TCL: Setting parameter alchLambda2 to 0.8999999999999999
Info: NONBONDED TABLE R-SQUARED SPACING: 0.0625
Info: NONBONDED TABLE SIZE: 705 POINTS
TCL: Running for 1500000 steps
ETITLE: TS BOND ANGLE DIHED IMPRP ELECT VDW BOUNDARY MISC KINETIC TOTAL TEMP POTENTIAL TOTALAVG TEMPAVG PRESSURE GPRESSURE VOLUME PRESSAVG GPRESSAVG
ENERGY: 0 1.1081 10.2712 3.3809 0.0000 -10660.1791 1409.5112 0.0000 0.0000 1719.4271 -7516.4806 296.2695 -9235.9076 -7516.4806 296.2695 -222.2351 -138.1488 29810.2164 -222.2351 -138.1488
ENERGY: 300000 2.2783 10.3495 4.5972 0.0000 -10514.2707 1370.5432 0.0000 0.0000 1763.7523 -7362.7501 303.9070 -9126.5023 -7405.3080 302.2648 -264.9420 -235.7820 29823.9905 -404.1038 -330.9836
ENERGY: 600000 1.6946 8.5982 1.9239 0.0000 -10582.4237 1395.4279 0.0000 0.0000 1764.5034 -7410.2757 304.0365 -9174.7791 -7398.1712 301.3960 81.3852 112.7118 29480.4503 -434.1769 -354.1730
ENERGY: 900000 2.1245 8.6589 2.4149 0.0000 -10648.0474 1421.5330 0.0000 0.0000 1729.2768 -7484.0394 297.9667 -9213.3161 -7410.6577 300.2610 -143.5023 -121.4264 29986.5482 -297.3164 -228.4396
ENERGY: 1200000 2.5035 8.6135 3.6994 0.0000 -10672.6729 1480.6884 0.0000 0.0000 1725.9226 -7451.2455 297.3887 -9177.1680 -7415.9336 299.0698 432.9514 495.3052 29797.2838 -221.3881 -156.2408
ENERGY: 1500000 0.5519 10.3461 7.3018 0.0000 -10557.1618 1396.2014 0.0000 0.0000 1730.3597 -7412.4009 298.1533 -9142.7606 -7402.8558 299.6971 -166.2143 -122.3527 30099.2006 -205.8633 -143.6081
TCL: Running FEP window   3: Lambda1 0.8999999999999999 Lambda2 0.8499999999999999 [dLambda -0.050000000000000044]
TCL: Setting parameter firsttimestep to 0
TCL: Setting parameter alchLambda to 0.8999999999999999
Info: NONBONDED TABLE R-SQUARED SPACING: 0.0625
Info: NONBONDED TABLE SIZE: 705 POINTS
TCL: Setting parameter alchLambda2 to 0.8499999999999999
Info: NONBONDED TABLE R-SQUARED SPACING: 0.0625
Info: NONBONDED TABLE SIZE: 705 POINTS
TCL: Running for 1500000 steps
ETITLE: TS BOND ANGLE DIHED IMPRP ELECT VDW BOUNDARY MISC KINETIC TOTAL TEMP POTENTIAL TOTALAVG TEMPAVG PRESSURE GPRESSURE VOLUME PRESSAVG GPRESSAVG
ENERGY: 0 0.5519 10.3460 7.3018 0.0000 -10556.3580 1396.8076 0.0000 0.0000 1729.5107 -7411.8399 298.0070 -9141.3506 -7411.8399 298.0070 -207.8807 -124.2180 30099.2006 -207.8807 -124.2180
ENERGY: 300000 1.9422 13.5781 2.7737 0.0000 -10488.3003 1365.6662 0.0000 0.0000 1844.1855 -7260.1546 317.7663 -9104.3401 -7363.3332 304.0485 -305.7851 -207.2156 30277.4282 -66.5414 16.5321
ENERGY: 600000 2.6242 11.8655 4.7321 0.0000 -10460.9321 1366.1938 0.0000 0.0000 1792.7710 -7282.7456 308.9072 -9075.5166 -7352.6839 304.9323 -221.9028 -134.0763 30194.3186 -72.8178 0.6467
ENERGY: 900000 1.9433 13.6247 3.5775 0.0000 -10625.7126 1471.0434 0.0000 0.0000 1761.5354 -7373.9883 303.5251 -9135.5237 -7373.3593 304.0300 619.9362 682.6315 29827.4429 86.6382 149.1439
ENERGY: 1200000 0.5605 12.2650 3.4304 0.0000 -10710.1432 1495.7145 0.0000 0.0000 1743.6343 -7454.5385 300.4406 -9198.1728 -7383.2134 303.3957 258.5351 339.1485 30331.2732 19.4998 84.4160
ENERGY: 1500000 1.9812 8.7813 3.9607 0.0000 -10506.1964 1385.6249 0.0000 0.0000 1747.3929 -7358.4554 301.0882 -9105.8482 -7389.5405 302.0740 -187.6229 -133.5018 30076.5301 -16.9192 46.4155
TCL: Running FEP window   4: Lambda1 0.8499999999999999 Lambda2 0.7999999999999998 [dLambda -0.050000000000000044]
TCL: Setting parameter firsttimestep to 0
TCL: Setting parameter alchLambda to 0.8499999999999999
Info: NONBONDED TABLE R-SQUARED SPACING: 0.0625
Info: NONBONDED TABLE SIZE: 705 POINTS
TCL: Setting parameter alchLambda2 to 0.7999999999999998
Info: NONBONDED TABLE R-SQUARED SPACING: 0.0625
Info: NONBONDED TABLE SIZE: 705 POINTS
TCL: Running for 1500000 steps
ETITLE: TS BOND ANGLE DIHED IMPRP ELECT VDW BOUNDARY MISC KINETIC TOTAL TEMP POTENTIAL TOTALAVG TEMPAVG PRESSURE GPRESSURE VOLUME PRESSAVG GPRESSAVG
ENERGY: 0 1.9812 8.7813 3.9607 0.0000 -10505.3681 1385.8861 0.0000 0.0000 1746.5155 -7358.2433 300.9370 -9104.7588 -7358.2433 300.9370 -228.8277 -143.3081 30076.5301 -228.8277 -143.3081
ENERGY: 300000 1.1292 13.3499 7.8373 0.0000 -10548.8172 1361.7910 0.0000 0.0000 1701.7771 -7462.9326 293.2283 -9164.7097 -7359.9753 301.4041 -572.8036 -450.0375 29849.9253 -189.3376 -127.4050
ENERGY: 600000 2.6142 8.3205 1.9570 0.0000 -10571.9243 1403.5250 0.0000 0.0000 1739.3279 -7416.1797 299.6985 -9155.5076 -7371.4201 301.0196 -179.8577 -146.9017 30243.9098 -130.3852 -67.3139
ENERGY: 900000 1.7493 10.9320 4.4487 0.0000 -10639.9748 1449.4975 0.0000 0.0000 1679.0743 -7494.2730 289.3164 -9173.3473 -7387.1871 300.3601 255.4004 327.5716 29702.1836 -75.8032 -14.7279
ENERGY: 1200000 1.5171 7.2436 4.2813 0.0000 -10590.0680 1453.1469 0.0000 0.0000 1699.9237 -7423.9553 292.9089 -9123.8790 -7397.8669 299.0323 -20.9619 67.0998 30277.4696 -35.7266 26.7624
ENERGY: 1500000 2.5238 12.6218 3.5150 0.0000 -10606.1337 1503.3398 0.0000 0.0000 1782.5786 -7301.5547 307.1510 -9084.1334 -7380.9371 299.9772 832.9940 860.7948 30285.0232 0.2498 60.6130
TCL: Running FEP window   5: Lambda1 0.7999999999999998 Lambda2 0.7499999999999998 [dLambda -0.050000000000000044]
TCL: Setting parameter firsttimestep to 0
TCL: Setting parameter alchLambda to 0.7999999999999998
Info: NONBONDED TABLE R-SQUARED SPACING: 0.0625
Info: NONBONDED TABLE SIZE: 705 POINTS
TCL: Setting parameter alchLambda2 to 0.7499999999999998
Info: NONBONDED TABLE R-SQUARED SPACING: 0.0625
Info: NONBONDED TABLE SIZE: 705 POINTS
TCL: Running for 1500000 steps
ETITLE: TS BOND ANGLE DIHED IMPRP ELECT VDW BOUNDARY MISC KINETIC TOTAL TEMP POTENTIAL TOTALAVG TEMPAVG PRESSURE GPRESSURE VOLUME PRESSAVG GPRESSAVG
ENERGY: 0 2.5238 12.6218 3.5150 0.0000 -10605.0444 1503.5107 0.0000 0.0000 1781.6675 -7301.2056 306.9940 -9082.8731 -7301.2056 306.9940 770.5892 851.8507 30285.0232 770.5892 851.8507
ENERGY: 300000 1.0148 10.5802 3.7804 0.0000 -10720.2076 1525.5184 0.0000 0.0000 1714.8478 -7464.4660 295.4805 -9179.3139 -7398.6225 298.8757 1083.6797 1128.0676 29259.9455 608.9852 631.1649
ENERGY: 600000 2.9978 10.4984 2.6210 0.0000 -10575.5772 1471.7377 0.0000 0.0000 1740.8420 -7346.8803 299.9594 -9087.7223 -7383.8798 298.8853 447.3517 501.7794 30177.9811 482.8603 511.1056
ENERGY: 900000 0.1803 9.3014 2.9405 0.0000 -10529.4821 1338.1882 0.0000 0.0000 1744.2749 -7434.5967 300.5510 -9178.8716 -7389.5788 299.5487 -726.3415 -696.2012 30021.9893 239.9405 269.7350
ENERGY: 1200000 1.1702 8.6815 5.1541 0.0000 -10692.2870 1491.6806 0.0000 0.0000 1736.4775 -7449.1231 299.2074 -9185.6006 -7387.4124 299.8397 526.7365 637.6759 29676.0491 262.0981 300.8016
ENERGY: 1500000 1.3467 10.2265 1.6784 0.0000 -10536.9935 1413.7840 0.0000 0.0000 1746.4028 -7363.5550 300.9176 -9109.9579 -7379.4365 299.2631 112.6623 204.9805 29858.6506 237.8585 279.2324
TCL: Running FEP window   6: Lambda1 0.7499999999999998 Lambda2 0.6999999999999997 [dLambda -0.050000000000000044]
TCL: Setting parameter firsttimestep to 0
TCL: Setting parameter alchLambda to 0.7499999999999998
Info: NONBONDED TABLE R-SQUARED SPACING: 0.0625
Info: NONBONDED TABLE SIZE: 705 POINTS
TCL: Setting parameter alchLambda2 to 0.6999999999999997
Info: NONBONDED TABLE R-SQUARED SPACING: 0.0625
Info: NONBONDED TABLE SIZE: 705 POINTS
TCL: Running for 1500000 steps
ETITLE: TS BOND ANGLE DIHED IMPRP ELECT VDW BOUNDARY MISC KINETIC TOTAL TEMP POTENTIAL TOTALAVG TEMPAVG PRESSURE GPRESSURE VOLUME PRESSAVG GPRESSAVG
ENERGY: 0 1.3467 10.2265 1.6784 0.0000 -10536.0180 1413.4855 0.0000 0.0000 1745.5166 -7363.7642 300.7649 -9109.2808 -7363.7642 300.7649 109.4561 195.2829 29858.6506 109.4561 195.2829
ENERGY: 300000 1.5935 12.8527 3.3900 0.0000 -10494.3440 1351.5910 0.0000 0.0000 1754.6301 -7370.2867 302.3352 -9124.9168 -7433.7497 299.4675 -732.3281 -620.3061 30337.0984 -110.5567 -38.0364
ENERGY: 600000 2.9353 13.3288 3.1127 0.0000 -10499.8069 1437.7212 0.0000 0.0000 1726.1564 -7316.5525 297.4290 -9042.7089 -7396.0111 300.5757 266.8862 329.3073 30235.6161 67.9717 131.9550
ENERGY: 900000 0.6906 10.7125 2.7188 0.0000 -10631.6147 1465.6630 0.0000 0.0000 1799.5770 -7352.2527 310.0799 -9151.8297 -7388.7999 301.6732 450.0107 560.2165 29695.6779 113.9398 174.4575
ENERGY: 1200000 3.3418 12.3260 6.8685 0.0000 -10463.5931 1354.0741 0.0000 0.0000 1751.4181 -7335.5645 301.7818 -9086.9827 -7392.1470 301.8648 -435.2876 -310.3830 30066.0899 105.3551 161.5327
ENERGY: 1500000 1.6734 12.2090 2.3906 0.0000 -10586.5156 1423.5081 0.0000 0.0000 1719.7857 -7426.9487 296.3313 -9146.7344 -7395.5089 301.3361 185.4021 197.5381 29880.8206 60.2209 116.5788
TCL: Running FEP window   7: Lambda1 0.6999999999999997 Lambda2 0.6499999999999997 [dLambda -0.050000000000000044]
TCL: Setting parameter firsttimestep to 0
TCL: Setting parameter alchLambda to 0.6999999999999997
Info: NONBONDED TABLE R-SQUARED SPACING: 0.0625
Info: NONBONDED TABLE SIZE: 705 POINTS
TCL: Setting parameter alchLambda2 to 0.6499999999999997
Info: NONBONDED TABLE R-SQUARED SPACING: 0.0625
Info: NONBONDED TABLE SIZE: 705 POINTS
TCL: Running for 1500000 steps
ETITLE: TS BOND ANGLE DIHED IMPRP ELECT VDW BOUNDARY MISC KINETIC TOTAL TEMP POTENTIAL TOTALAVG TEMPAVG PRESSURE GPRESSURE VOLUME PRESSAVG GPRESSAVG
ENERGY: 0 1.6734 12.2090 2.3906 0.0000 -10585.0016 1423.1013 0.0000 0.0000 1718.9070 -7426.7202 296.1799 -9145.6272 -7426.7202 296.1799 109.2413 182.2121 29880.8206 109.2413 182.2121
ENERGY: 300000 1.4873 12.0439 2.4002 0.0000 -10675.1989 1501.6529 0.0000 0.0000 1808.2485 -7349.3663 311.5741 -9157.6147 -7358.2839 302.9238 510.4014 671.5709 29975.4171 -188.2156 -88.0149
ENERGY: 600000 4.6101 7.0526 2.3173 0.0000 -10710.4068 1521.6734 0.0000 0.0000 1703.8071 -7470.9462 293.5781 -9174.7534 -7390.7168 299.7027 822.5900 834.4481 29561.5256 -13.6680 59.1210
ENERGY: 900000 0.7683 16.7315 2.9835 0.0000 -10494.9783 1379.3799 0.0000 0.0000 1731.9829 -7363.1322 298.4330 -9095.1151 -7399.9045 298.7171 -364.4956 -306.7890 30293.7916 0.8811 65.2423
ENERGY: 1200000 5.6463 7.7262 2.4587 0.0000 -10626.9342 1478.0500 0.0000 0.0000 1738.4769 -7394.5761 299.5519 -9133.0530 -7386.6494 298.2134 237.3387 306.8781 30127.0031 -39.4310 16.0078
ENERGY: 1500000 2.5219 10.6033 2.6741 0.0000 -10552.7001 1385.3267 0.0000 0.0000 1724.3947 -7427.1794 297.1254 -9151.5741 -7386.9954 297.7760 -61.2518 -19.1168 29555.3941 -31.5542 23.7049
TCL: Running FEP window   8: Lambda1 0.6499999999999997 Lambda2 0.5999999999999996 [dLambda -0.050000000000000044]
TCL: Setting parameter firsttimestep to 0
TCL: Setting parameter alchLambda to 0.6499999999999997
Info: NONBONDED TABLE R-SQUARED SPACING: 0.0625
Info: NONBONDED TABLE SIZE: 705 POINTS
TCL: Setting parameter alchLambda2 to 0.5999999999999996
Info: NONBONDED TABLE R-SQUARED SPACING: 0.0625
Info: NONBONDED TABLE SIZE: 705 POINTS
TCL: Running for 1500000 steps
ETITLE: TS BOND ANGLE DIHED IMPRP ELECT VDW BOUNDARY MISC KINETIC TOTAL TEMP POTENTIAL TOTALAVG TEMPAVG PRESSURE GPRESSURE VOLUME PRESSAVG GPRESSAVG
ENERGY: 0 2.5219 10.6033 2.6741 0.0000 -10551.8941 1384.5665 0.0000 0.0000 1723.5181 -7428.0103 296.9744 -9151.5284 -7428.0103 296.9744 -120.0905 -36.7706 29555.3941 -120.0905 -36.7706
ENERGY: 300000 2.1280 9.5222 3.6925 0.0000 -10765.3494 1530.9308 0.0000 0.0000 1736.3917 -7482.6842 299.1926 -9219.0759 -7397.6377 299.6330 770.5917 813.0604 29763.9180 79.7231 146.2756
ENERGY: 600000 2.0692 9.1134 3.8754 0.0000 -10428.4604 1306.6615 0.0000 0.0000 1715.9215 -7390.8193 295.6655 -9106.7408 -7391.5972 299.3822 -954.8346 -915.4597 30395.9316 -89.3189 -23.2009
ENERGY: 900000 1.4649 14.2721 3.0256 0.0000 -10517.7241 1362.6307 0.0000 0.0000 1740.3497 -7395.9811 299.8746 -9136.3308 -7380.3726 298.7981 -580.7664 -538.2723 30449.5914 -203.9147 -148.8812
ENERGY: 1200000 1.2487 14.4301 4.8187 0.0000 -10523.3581 1391.6673 0.0000 0.0000 1717.9181 -7393.2752 296.0095 -9111.1932 -7385.7536 298.8789 -106.9932 -64.5235 29966.9420 -152.0249 -104.3369
ENERGY: 1500000 0.4329 12.5501 3.5633 0.0000 -10534.1580 1416.9851 0.0000 0.0000 1801.1127 -7299.5139 310.3445 -9100.6266 -7383.1163 299.2631 23.1544 107.9628 30309.4963 -159.2899 -107.2882
TCL: Running FEP window   9: Lambda1 0.5999999999999996 Lambda2 0.5499999999999996 [dLambda -0.050000000000000044]
TCL: Setting parameter firsttimestep to 0
TCL: Setting parameter alchLambda to 0.5999999999999996
Info: NONBONDED TABLE R-SQUARED SPACING: 0.0625
Info: NONBONDED TABLE SIZE: 705 POINTS
TCL: Setting parameter alchLambda2 to 0.5499999999999996
Info: NONBONDED TABLE R-SQUARED SPACING: 0.0625
Info: NONBONDED TABLE SIZE: 705 POINTS
TCL: Running for 1500000 steps
ETITLE: TS BOND ANGLE DIHED IMPRP ELECT VDW BOUNDARY MISC KINETIC TOTAL TEMP POTENTIAL TOTALAVG TEMPAVG PRESSURE GPRESSURE VOLUME PRESSAVG GPRESSAVG
ENERGY: 0 0.4329 12.5501 3.5633 0.0000 -10532.9803 1416.7192 0.0000 0.0000 1800.2420 -7299.4728 310.1945 -9099.7148 -7299.4728 310.1945 8.2320 95.2914 30309.4963 8.2320 95.2914
ENERGY: 300000 0.7709 14.9265 2.2662 0.0000 -10474.4218 1309.6589 0.0000 0.0000 1745.5114 -7401.2879 300.7640 -9146.7993 -7369.4743 303.8847 -722.5332 -637.9942 29774.7280 -149.4189 -73.5875
ENERGY: 600000 1.7793 15.4929 2.8835 0.0000 -10562.3550 1374.4012 0.0000 0.0000 1779.3554 -7388.4426 306.5956 -9167.7980 -7367.6518 303.5714 -256.1844 -183.2774 29747.6080 -73.9535 -8.1195
ENERGY: 900000 0.5485 13.9795 3.9696 0.0000 -10456.7435 1341.2434 0.0000 0.0000 1726.0377 -7370.9647 297.4086 -9097.0024 -7372.6998 303.1336 -706.0311 -646.1989 30273.2556 -79.4788 -16.9449
ENERGY: 1200000 0.8470 7.3781 2.1470 0.0000 -10583.9889 1440.9879 0.0000 0.0000 1761.1219 -7371.5070 303.4538 -9132.6288 -7369.1089 302.6483 448.1961 536.0893 29711.5783 -75.1384 -12.5228
ENERGY: 1500000 0.9208 11.9197 3.0374 0.0000 -10583.4274 1379.0039 0.0000 0.0000 1784.3807 -7404.1650 307.4615 -9188.5457 -7376.2582 302.3235 -274.9012 -247.9679 29543.2656 -20.9821 44.9167
TCL: Running FEP window  10: Lambda1 0.5499999999999996 Lambda2 0.4999999999999996 [dLambda -0.04999999999999999]
TCL: Setting parameter firsttimestep to 0
TCL: Setting parameter alchLambda to 0.5499999999999996
Info: NONBONDED TABLE R-SQUARED SPACING: 0.0625
Info: NONBONDED TABLE SIZE: 705 POINTS
TCL: Setting parameter alchLambda2 to 0.4999999999999996
Info: NONBONDED TABLE R-SQUARED SPACING: 0.0625
Info: NONBONDED TABLE SIZE: 705 POINTS
TCL: Running for 1500000 steps
ETITLE: TS BOND ANGLE DIHED IMPRP ELECT VDW BOUNDARY MISC KINETIC TOTAL TEMP POTENTIAL TOTALAVG TEMPAVG PRESSURE GPRESSURE VOLUME PRESSAVG GPRESSAVG
ENERGY: 0 0.9208 11.9197 3.0374 0.0000 -10583.4832 1379.2720 0.0000 0.0000 1783.4919 -7404.8415 307.3083 -9188.3334 -7404.8415 307.3083 -347.2026 -254.7123 29543.2656 -347.2026 -254.7123
ENERGY: 300000 0.9093 9.9419 4.4176 0.0000 -10608.2408 1400.1534 0.0000 0.0000 1722.6081 -7470.2105 296.8176 -9192.8186 -7428.3934 302.7446 -209.4288 -149.2382 29824.4433 -363.0370 -305.1994
ENERGY: 600000 0.7934 14.8406 2.7559 0.0000 -10709.7827 1527.4019 0.0000 0.0000 1784.4712 -7379.5198 307.4771 -9163.9910 -7408.3475 302.9823 940.4525 992.9785 29723.8480 -104.7874 -48.0523
ENERGY: 900000 0.7715 13.6553 2.5834 0.0000 -10653.6381 1461.9126 0.0000 0.0000 1747.2251 -7427.4903 301.0593 -9174.7154 -7410.6769 301.9814 288.0052 346.5246 29842.1624 -114.7252 -56.1387
ENERGY: 1200000 0.7651 16.1241 3.0764 0.0000 -10552.8779 1419.7044 0.0000 0.0000 1728.9421 -7384.2658 297.9090 -9113.2079 -7399.4207 302.5942 160.8152 211.4912 29766.0473 -162.3493 -95.8418
ENERGY: 1500000 0.8628 11.0113 5.4201 0.0000 -10642.2479 1478.5524 0.0000 0.0000 1688.7335 -7457.6679 290.9808 -9146.4013 -7402.9212 301.6268 751.8445 838.3274 29361.5345 -132.3571 -63.8738
TCL: Running FEP window  11: Lambda1 0.4999999999999996 Lambda2 0.4499999999999996 [dLambda -0.04999999999999999]
TCL: Setting parameter firsttimestep to 0
TCL: Setting parameter alchLambda to 0.4999999999999996
Info: NONBONDED TABLE R-SQUARED SPACING: 0.0625
Info: NONBONDED TABLE SIZE: 705 POINTS
TCL: Setting parameter alchLambda2 to 0.4499999999999996
Info: NONBONDED TABLE R-SQUARED SPACING: 0.0625
Info: NONBONDED TABLE SIZE: 705 POINTS
TCL: Running for 1500000 steps
ETITLE: TS BOND ANGLE DIHED IMPRP ELECT VDW BOUNDARY MISC KINETIC TOTAL TEMP POTENTIAL TOTALAVG TEMPAVG PRESSURE GPRESSURE VOLUME PRESSAVG GPRESSAVG
ENERGY: 0 0.8628 11.0113 5.4201 0.0000 -10642.3035 1478.2269 0.0000 0.0000 1687.8655 -7458.9169 290.8312 -9146.7823 -7458.9169 290.8312 762.1481 826.3279 29361.5345 762.1481 826.3279
ENERGY: 300000 0.9616 9.9236 5.0939 0.0000 -10672.7927 1436.9389 0.0000 0.0000 1765.1516 -7454.7232 304.1481 -9219.8747 -7376.8115 303.8577 -241.1937 -160.0075 30049.2608 298.8739 363.7134
ENERGY: 600000 2.1220 8.4358 1.9378 0.0000 -10594.3615 1449.9032 0.0000 0.0000 1716.3728 -7415.5899 295.7432 -9131.9627 -7382.4544 301.0233 90.7210 130.4466 30257.5834 146.8322 193.9082
ENERGY: 900000 2.1562 8.8541 3.1241 0.0000 -10580.0776 1415.6924 0.0000 0.0000 1750.1787 -7400.0721 301.5682 -9150.2507 -7379.2052 300.9204 -51.2321 31.4297 29917.9903 19.1963 76.6473
ENERGY: 1200000 1.1979 10.8798 3.3653 0.0000 -10675.3700 1459.6949 0.0000 0.0000 1702.5280 -7497.7043 293.3577 -9200.2323 -7394.8481 299.1396 163.2751 247.0902 29645.7682 -31.0371 30.6053
ENERGY: 1500000 0.5613 7.5903 7.6285 0.0000 -10420.8811 1339.7589 0.0000 0.0000 1825.6028 -7239.7391 314.5643 -9065.3419 -7383.2564 300.3173 -427.2490 -440.3338 30514.5691 -67.3634 -9.5676
TCL: Running FEP window  12: Lambda1 0.4499999999999996 Lambda2 0.39999999999999963 [dLambda -0.04999999999999999]
TCL: Setting parameter firsttimestep to 0
TCL: Setting parameter alchLambda to 0.4499999999999996
Info: NONBONDED TABLE R-SQUARED SPACING: 0.0625
Info: NONBONDED TABLE SIZE: 705 POINTS
TCL: Setting parameter alchLambda2 to 0.39999999999999963
Info: NONBONDED TABLE R-SQUARED SPACING: 0.0625
Info: NONBONDED TABLE SIZE: 705 POINTS
TCL: Running for 1500000 steps
ETITLE: TS BOND ANGLE DIHED IMPRP ELECT VDW BOUNDARY MISC KINETIC TOTAL TEMP POTENTIAL TOTALAVG TEMPAVG PRESSURE GPRESSURE VOLUME PRESSAVG GPRESSAVG
ENERGY: 0 0.5613 7.5903 7.6285 0.0000 -10420.8790 1340.1221 0.0000 0.0000 1824.7365 -7240.2402 314.4151 -9064.9767 -7240.2402 314.4151 -515.0325 -442.8545 30514.5691 -515.0325 -442.8545
ENERGY: 300000 2.3514 13.8215 3.3112 0.0000 -10446.0151 1336.8036 0.0000 0.0000 1730.0500 -7359.6773 298.0999 -9089.7273 -7313.9963 305.9857 -809.0183 -796.7083 30399.2584 -178.6723 -115.2167
ENERGY: 600000 5.0188 10.6316 2.4267 0.0000 -10461.3061 1340.1088 0.0000 0.0000 1750.8975 -7352.2227 301.6921 -9103.1202 -7354.1591 302.0658 -874.1827 -783.6672 30368.7195 -244.3098 -190.0129
ENERGY: 900000 2.1330 7.5233 3.1749 0.0000 -10550.4021 1476.6980 0.0000 0.0000 1771.7273 -7289.1457 305.2812 -9060.8729 -7365.2596 300.9275 554.6975 601.1088 30221.4181 -165.4125 -99.0082
ENERGY: 1200000 2.8711 9.9437 4.2417 0.0000 -10616.8842 1469.8089 0.0000 0.0000 1765.7187 -7364.3001 304.2459 -9130.0188 -7369.0693 302.4217 212.2200 255.5102 30385.9766 -58.5429 -1.4855
ENERGY: 1500000 1.2420 11.0173 3.7028 0.0000 -10670.4248 1434.8090 0.0000 0.0000 1716.2254 -7503.4282 295.7178 -9219.6536 -7380.4669 302.0888 100.0268 170.5971 29263.4142 -25.4686 32.4772
TCL: Running FEP window  13: Lambda1 0.39999999999999963 Lambda2 0.34999999999999964 [dLambda -0.04999999999999999]
TCL: Setting parameter firsttimestep to 0
TCL: Setting parameter alchLambda to 0.39999999999999963
Info: NONBONDED TABLE R-SQUARED SPACING: 0.0625
Info: NONBONDED TABLE SIZE: 705 POINTS
TCL: Setting parameter alchLambda2 to 0.34999999999999964
Info: NONBONDED TABLE R-SQUARED SPACING: 0.0625
Info: NONBONDED TABLE SIZE: 705 POINTS
TCL: Running for 1500000 steps
ETITLE: TS BOND ANGLE DIHED IMPRP ELECT VDW BOUNDARY MISC KINETIC TOTAL TEMP POTENTIAL TOTALAVG TEMPAVG PRESSURE GPRESSURE VOLUME PRESSAVG GPRESSAVG
ENERGY: 0 1.2420 11.0173 3.7028 0.0000 -10670.4247 1435.1490 0.0000 0.0000 1715.3349 -7503.9786 295.5644 -9219.3135 -7503.9786 295.5644 101.3788 168.0007 29263.4142 101.3788 168.0007
ENERGY: 300000 1.0762 14.0185 2.7839 0.0000 -10560.3419 1426.1566 0.0000 0.0000 1778.6093 -7337.6974 306.4670 -9116.3067 -7414.7553 296.4279 -54.1358 -13.4464 30412.7391 27.2641 102.5652
ENERGY: 600000 2.0207 10.8115 3.3783 0.0000 -10636.8717 1504.3066 0.0000 0.0000 1748.6952 -7367.6594 301.3126 -9116.3545 -7411.9472 296.6656 733.2130 771.8791 29951.2386 -76.1880 8.4007
ENERGY: 900000 0.6325 13.4576 3.3984 0.0000 -10516.7599 1341.7973 0.0000 0.0000 1698.8048 -7458.6693 292.7161 -9157.4742 -7406.5063 297.8302 -602.8086 -532.8417 29641.5531 16.8805 93.5489
ENERGY: 1200000 1.9845 14.5656 1.8152 0.0000 -10500.6215 1341.1397 0.0000 0.0000 1672.0617 -7469.0547 288.1081 -9141.1165 -7404.8475 297.1664 -733.6547 -644.6870 29905.6903 -42.0015 28.5400
ENERGY: 1500000 3.2058 14.3337 2.5263 0.0000 -10515.3274 1329.6474 0.0000 0.0000 1767.9815 -7397.6327 304.6358 -9165.6142 -7406.6235 297.9768 -623.2391 -579.3264 29502.2185 -38.3729 35.3976
TCL: Running FEP window  14: Lambda1 0.34999999999999964 Lambda2 0.29999999999999966 [dLambda -0.04999999999999999]
TCL: Setting parameter firsttimestep to 0
TCL: Setting parameter alchLambda to 0.34999999999999964
Info: NONBONDED TABLE R-SQUARED SPACING: 0.0625
Info: NONBONDED TABLE SIZE: 705 POINTS
TCL: Setting parameter alchLambda2 to 0.29999999999999966
Info: NONBONDED TABLE R-SQUARED SPACING: 0.0625
Info: NONBONDED TABLE SIZE: 705 POINTS
TCL: Running for 1500000 steps
ETITLE: TS BOND ANGLE DIHED IMPRP ELECT VDW BOUNDARY MISC KINETIC TOTAL TEMP POTENTIAL TOTALAVG TEMPAVG PRESSURE GPRESSURE VOLUME PRESSAVG GPRESSAVG
ENERGY: 0 3.2058 14.3337 2.5263 0.0000 -10515.3280 1329.7866 0.0000 0.0000 1767.1456 -7398.3300 304.4917 -9165.4756 -7398.3300 304.4917 -669.3451 -581.7231 29502.2185 -669.3451 -581.7231
ENERGY: 300000 0.5382 10.9325 4.1841 0.0000 -10608.6721 1462.1316 0.0000 0.0000 1763.2980 -7367.5877 303.8288 -9130.8857 -7390.6686 303.1026 472.6463 609.3700 29527.0804 -304.2943 -213.2510
ENERGY: 600000 4.4141 6.8310 4.2753 0.0000 -10636.2679 1446.8450 0.0000 0.0000 1734.7139 -7439.1886 298.9035 -9173.9025 -7405.4972 300.3357 -46.8707 35.3911 29820.5757 -300.2089 -213.6466
ENERGY: 900000 0.9367 10.9954 6.0080 0.0000 -10403.2589 1318.4773 0.0000 0.0000 1759.9405 -7306.9010 303.2502 -9066.8414 -7392.6004 300.1441 -472.5259 -478.8622 30030.8508 -143.4511 -70.3742
ENERGY: 1200000 1.4434 9.5760 4.0722 0.0000 -10691.9218 1484.3590 0.0000 0.0000 1738.4190 -7454.0522 299.5419 -9192.4712 -7385.8406 300.6814 622.2072 680.5365 29466.7755 44.1238 109.4206
ENERGY: 1500000 0.9075 8.9393 4.2852 0.0000 -10574.8594 1366.6524 0.0000 0.0000 1718.0573 -7476.0178 296.0335 -9194.0751 -7388.6568 301.1147 -848.9305 -841.9526 30116.3937 -33.7417 28.5598
TCL: Running FEP window  15: Lambda1 0.29999999999999966 Lambda2 0.24999999999999967 [dLambda -0.04999999999999999]
TCL: Setting parameter firsttimestep to 0
TCL: Setting parameter alchLambda to 0.29999999999999966
Info: NONBONDED TABLE R-SQUARED SPACING: 0.0625
Info: NONBONDED TABLE SIZE: 705 POINTS
TCL: Setting parameter alchLambda2 to 0.24999999999999967
Info: NONBONDED TABLE R-SQUARED SPACING: 0.0625
Info: NONBONDED TABLE SIZE: 705 POINTS
TCL: Running for 1500000 steps
ETITLE: TS BOND ANGLE DIHED IMPRP ELECT VDW BOUNDARY MISC KINETIC TOTAL TEMP POTENTIAL TOTALAVG TEMPAVG PRESSURE GPRESSURE VOLUME PRESSAVG GPRESSAVG
ENERGY: 0 0.9075 8.9393 4.2852 0.0000 -10574.8582 1367.1122 0.0000 0.0000 1717.2168 -7476.3972 295.8887 -9193.6140 -7476.3972 295.8887 -929.5096 -843.4355 30116.3937 -929.5096 -843.4355
ENERGY: 300000 1.1200 8.4576 2.8364 0.0000 -10568.8767 1490.3066 0.0000 0.0000 1763.8458 -7302.3103 303.9232 -9066.1562 -7382.9694 299.7312 706.2241 830.1179 30001.1947 20.8176 104.5048
ENERGY: 600000 1.3723 10.0815 4.5627 0.0000 -10629.5174 1427.8965 0.0000 0.0000 1706.5086 -7479.0958 294.0435 -9185.6044 -7393.0535 300.3827 -360.5491 -276.3887 30338.2736 105.1967 171.0637
ENERGY: 900000 2.4619 12.4612 5.6272 0.0000 -10526.2621 1410.1805 0.0000 0.0000 1790.0075 -7305.5238 308.4310 -9095.5313 -7395.9259 300.4297 -77.4648 -4.2950 30255.5872 -23.4259 47.9692
ENERGY: 1200000 2.6009 6.7377 5.0225 0.0000 -10545.2140 1411.1475 0.0000 0.0000 1712.5219 -7407.1836 295.0797 -9119.7054 -7399.2865 300.0461 -396.8488 -303.9960 30253.5848 -57.0023 14.2495
ENERGY: 1500000 0.6721 8.7007 2.1224 0.0000 -10497.3337 1355.4320 0.0000 0.0000 1729.7439 -7400.6626 298.0472 -9130.4065 -7389.8811 300.7952 -377.3835 -317.5553 29626.8028 -31.4858 44.3684
TCL: Running FEP window  16: Lambda1 0.24999999999999967 Lambda2 0.19999999999999968 [dLambda -0.04999999999999999]
TCL: Setting parameter firsttimestep to 0
TCL: Setting parameter alchLambda to 0.24999999999999967
Info: NONBONDED TABLE R-SQUARED SPACING: 0.0625
Info: NONBONDED TABLE SIZE: 705 POINTS
TCL: Setting parameter alchLambda2 to 0.19999999999999968
Info: NONBONDED TABLE R-SQUARED SPACING: 0.0625
Info: NONBONDED TABLE SIZE: 705 POINTS
TCL: Running for 1500000 steps
ETITLE: TS BOND ANGLE DIHED IMPRP ELECT VDW BOUNDARY MISC KINETIC TOTAL TEMP POTENTIAL TOTALAVG TEMPAVG PRESSURE GPRESSURE VOLUME PRESSAVG GPRESSAVG
ENERGY: 0 0.6721 8.7007 2.1224 0.0000 -10497.3333 1355.8828 0.0000 0.0000 1728.8325 -7401.1228 297.8901 -9129.9553 -7401.1228 297.8901 -404.9411 -322.0921 29626.8028 -404.9411 -322.0921
ENERGY: 300000 1.7876 13.9126 3.7627 0.0000 -10430.6027 1348.6075 0.0000 0.0000 1746.6457 -7315.8867 300.9595 -9062.5323 -7344.2287 299.8859 -535.6388 -445.1897 30143.8361 -275.3759 -174.2924
ENERGY: 600000 2.3255 11.8929 2.6290 0.0000 -10581.7519 1424.4992 0.0000 0.0000 1713.8870 -7426.5185 295.3149 -9140.4055 -7376.8522 299.9044 -56.9566 -7.0439 29860.6810 -311.0672 -221.6634
ENERGY: 900000 1.0046 13.5034 4.8386 0.0000 -10574.7985 1400.2050 0.0000 0.0000 1700.6755 -7454.5714 293.0385 -9155.2468 -7382.4269 300.3634 -300.3962 -243.4662 29973.8483 -248.5829 -162.6757
ENERGY: 1200000 1.6308 11.4107 2.4021 0.0000 -10674.5522 1492.5681 0.0000 0.0000 1750.8946 -7415.6458 301.6916 -9166.5405 -7379.4663 301.4867 567.7074 627.5300 29577.6917 -223.0889 -141.6839
ENERGY: 1500000 1.1526 8.4650 4.3962 0.0000 -10545.2070 1410.7393 0.0000 0.0000 1753.8111 -7366.6428 302.1941 -9120.4539 -7385.9937 301.0653 -158.8439 -102.1848 30209.9755 -169.0188 -93.9079
TCL: Running FEP window  17: Lambda1 0.19999999999999968 Lambda2 0.1499999999999997 [dLambda -0.04999999999999999]
TCL: Setting parameter firsttimestep to 0
TCL: Setting parameter alchLambda to 0.19999999999999968
Info: NONBONDED TABLE R-SQUARED SPACING: 0.0625
Info: NONBONDED TABLE SIZE: 705 POINTS
TCL: Setting parameter alchLambda2 to 0.1499999999999997
Info: NONBONDED TABLE R-SQUARED SPACING: 0.0625
Info: NONBONDED TABLE SIZE: 705 POINTS
TCL: Running for 1500000 steps
ETITLE: TS BOND ANGLE DIHED IMPRP ELECT VDW BOUNDARY MISC KINETIC TOTAL TEMP POTENTIAL TOTALAVG TEMPAVG PRESSURE GPRESSURE VOLUME PRESSAVG GPRESSAVG
ENERGY: 0 1.1526 8.4650 4.3962 0.0000 -10545.2070 1410.1473 0.0000 0.0000 1752.9419 -7368.1040 302.0443 -9121.0459 -7368.1040 302.0443 -191.5999 -109.7297 30209.9755 -191.5999 -109.7297
ENERGY: 300000 1.1111 11.2222 2.5381 0.0000 -10608.6917 1440.0334 0.0000 0.0000 1721.9643 -7431.8226 296.7067 -9153.7869 -7379.1353 300.3192 245.9423 269.2296 29539.1264 104.2853 165.0107
ENERGY: 600000 1.9638 11.9828 5.7416 0.0000 -10711.7409 1487.3915 0.0000 0.0000 1753.3554 -7451.3057 302.1156 -9204.6611 -7389.0370 299.6704 266.3401 366.9253 29883.5089 12.0652 65.9559
ENERGY: 900000 1.3126 17.8281 2.7263 0.0000 -10623.8872 1510.4425 0.0000 0.0000 1723.2104 -7368.3672 296.9214 -9091.5777 -7400.3818 298.8723 779.4231 800.3231 29739.4473 103.8717 151.3228
ENERGY: 1200000 1.2334 8.7790 3.3660 0.0000 -10558.1367 1399.9410 0.0000 0.0000 1720.1453 -7424.6719 296.3933 -9144.8173 -7405.8469 298.7973 -337.7915 -274.5572 29898.4869 41.0468 93.1018
ENERGY: 1500000 1.3263 13.6832 3.7237 0.0000 -10544.9907 1454.9735 0.0000 0.0000 1805.8307 -7265.4533 311.1575 -9071.2840 -7393.1361 299.5196 561.7316 600.5223 29940.1546 34.2869 84.8836
TCL: Running FEP window  18: Lambda1 0.1499999999999997 Lambda2 0.09999999999999969 [dLambda -0.05 ]
TCL: Setting parameter firsttimestep to 0
TCL: Setting parameter alchLambda to 0.1499999999999997
Info: NONBONDED TABLE R-SQUARED SPACING: 0.0625
Info: NONBONDED TABLE SIZE: 705 POINTS
TCL: Setting parameter alchLambda2 to 0.09999999999999969
Info: NONBONDED TABLE R-SQUARED SPACING: 0.0625
Info: NONBONDED TABLE SIZE: 705 POINTS
TCL: Running for 1500000 steps
ETITLE: TS BOND ANGLE DIHED IMPRP ELECT VDW BOUNDARY MISC KINETIC TOTAL TEMP POTENTIAL TOTALAVG TEMPAVG PRESSURE GPRESSURE VOLUME PRESSAVG GPRESSAVG
ENERGY: 0 1.3263 13.6832 3.7237 0.0000 -10544.9897 1455.1916 0.0000 0.0000 1804.9773 -7266.0876 311.0104 -9071.0650 -7266.0876 311.0104 508.1441 593.6089 29940.1546 508.1441 593.6089
ENERGY: 300000 0.8567 12.1217 2.5927 0.0000 -10548.2262 1418.3545 0.0000 0.0000 1656.1467 -7458.1539 285.3658 -9114.3006 -7351.7196 299.0645 -65.6661 -20.4388 30012.9269 160.6074 218.9643
ENERGY: 600000 3.9661 11.5856 6.6111 0.0000 -10542.5765 1424.9674 0.0000 0.0000 1753.8699 -7341.5764 302.2042 -9095.4462 -7351.4477 300.8621 353.2166 390.6283 29365.5359 118.0432 180.0803
ENERGY: 900000 1.2520 9.1573 3.3842 0.0000 -10543.8552 1405.7373 0.0000 0.0000 1767.3251 -7356.9993 304.5227 -9124.3244 -7367.3342 301.3040 -168.1178 -95.6004 30198.2207 -14.0196 37.5993
ENERGY: 1200000 2.1859 8.8359 3.6573 0.0000 -10605.6137 1481.0631 0.0000 0.0000 1805.0586 -7304.8128 311.0244 -9109.8714 -7351.9357 302.9630 336.1463 377.3506 30092.3265 -32.5474 22.6157
ENERGY: 1500000 1.5427 12.1813 3.2563 0.0000 -10596.4681 1448.6388 0.0000 0.0000 1747.3157 -7383.5333 301.0749 -9130.8490 -7361.9814 302.1348 150.2488 165.7805 30006.3556 -13.2012 39.7943
TCL: Running FEP window  19: Lambda1 0.09999999999999969 Lambda2 0.049999999999999684 [dLambda -0.05 ]
TCL: Setting parameter firsttimestep to 0
TCL: Setting parameter alchLambda to 0.09999999999999969
Info: NONBONDED TABLE R-SQUARED SPACING: 0.0625
Info: NONBONDED TABLE SIZE: 705 POINTS
TCL: Setting parameter alchLambda2 to 0.049999999999999684
Info: NONBONDED TABLE R-SQUARED SPACING: 0.0625
Info: NONBONDED TABLE SIZE: 705 POINTS
TCL: Running for 1500000 steps
ETITLE: TS BOND ANGLE DIHED IMPRP ELECT VDW BOUNDARY MISC KINETIC TOTAL TEMP POTENTIAL TOTALAVG TEMPAVG PRESSURE GPRESSURE VOLUME PRESSAVG GPRESSAVG
ENERGY: 0 1.5427 12.1813 3.2563 0.0000 -10596.4687 1448.1907 0.0000 0.0000 1746.4882 -7384.8095 300.9323 -9131.2977 -7384.8095 300.9323 77.6500 159.0919 30006.3556 77.6500 159.0919
ENERGY: 300000 0.9290 13.5566 3.8854 0.0000 -10493.8762 1389.0097 0.0000 0.0000 1705.2238 -7381.2718 293.8222 -9086.4955 -7357.6201 300.2500 -330.0662 -257.3039 30021.1704 -42.5425 16.8942
ENERGY: 600000 0.7078 12.0479 2.5737 0.0000 -10618.8829 1489.0280 0.0000 0.0000 1768.3453 -7346.1800 304.6985 -9114.5253 -7372.5014 301.5159 456.5915 534.7225 30072.2862 140.7894 205.3939
ENERGY: 900000 2.0116 13.1814 2.7156 0.0000 -10544.4036 1337.6410 0.0000 0.0000 1726.0927 -7462.7613 297.4180 -9188.8540 -7392.6431 301.0945 -740.7684 -694.7408 29426.2097 41.6142 106.5047
ENERGY: 1200000 3.2967 9.2009 2.5498 0.0000 -10552.9035 1410.3179 0.0000 0.0000 1722.2237 -7405.3144 296.7514 -9127.5381 -7387.3148 301.1939 -264.6575 -224.5814 30012.0563 26.4113 94.9215
ENERGY: 1500000 0.7790 8.3839 2.5142 0.0000 -10648.5183 1472.3738 0.0000 0.0000 1745.8279 -7418.6396 300.8185 -9164.4675 -7396.0080 301.0269 416.2420 444.2851 29557.9450 12.7566 75.5410
TCL: Running FEP window  20: Lambda1 0.049999999999999684 Lambda2 0.0    [dLambda -0.049999999999999684]
TCL: Setting parameter firsttimestep to 0
TCL: Setting parameter alchLambda to 0.049999999999999684
Info: NONBONDED TABLE R-SQUARED SPACING: 0.0625
Info: NONBONDED TABLE SIZE: 705 POINTS
TCL: Setting parameter alchLambda2 to 0.0
Info: NONBONDED TABLE R-SQUARED SPACING: 0.0625
Info: NONBONDED TABLE SIZE: 705 POINTS
TCL: Running for 1500000 steps
ETITLE: TS BOND ANGLE DIHED IMPRP ELECT VDW BOUNDARY MISC KINETIC TOTAL TEMP POTENTIAL TOTALAVG TEMPAVG PRESSURE GPRESSURE VOLUME PRESSAVG GPRESSAVG
ENERGY: 0 0.7790 8.3839 2.5142 0.0000 -10648.5188 1472.0208 0.0000 0.0000 1744.9544 -7419.8666 300.6680 -9164.8210 -7419.8666 300.6680 348.2122 440.3131 29557.9450 348.2122 440.3131
ENERGY: 300000 2.4865 11.2524 3.2307 0.0000 -10445.8635 1272.1629 0.0000 0.0000 1712.1251 -7444.6059 295.0113 -9156.7309 -7395.4935 299.9122 -1284.1904 -1256.3450 29648.8508 -265.8100 -191.3873
ENERGY: 600000 3.1749 10.4870 3.2136 0.0000 -10592.7455 1474.4384 0.0000 0.0000 1724.9570 -7376.4746 297.2223 -9101.4316 -7369.8675 300.5525 419.7326 474.7783 29779.7915 -54.9291 14.7952
ENERGY: 900000 1.8663 8.7827 2.7061 0.0000 -10437.6182 1388.1994 0.0000 0.0000 1732.0340 -7304.0297 298.4418 -9036.0637 -7375.5743 299.0805 16.0217 37.3793 30202.6808 52.1702 115.0401
ENERGY: 1200000 1.0662 15.6521 3.8414 0.0000 -10641.8274 1438.5921 0.0000 0.0000 1745.1039 -7437.5716 300.6938 -9182.6755 -7382.1882 299.0807 71.5876 178.6006 29520.3302 134.3371 200.4141
ENERGY: 1500000 1.1605 10.2328 4.8702 0.0000 -10553.5898 1452.3758 0.0000 0.0000 1773.8773 -7311.0732 305.6517 -9084.9505 -7383.3636 298.8706 105.6392 109.5929 30367.0963 110.9257 170.2170
TCL: Exiting due to exit command.
