Info: SIMULATION PARAMETERS:
Info: TIMESTEP               2
Info: NUMBER OF STEPS        0
Info: STEPS PER CYCLE        10
Info: PERIODIC CELL BASIS 1  32.3577 0 0
Info: PERIODIC CELL BASIS 2  0 30.2955 0
Info: PERIODIC CELL BASIS 3  0 0 31.5194
Info: PERIODIC CELL CENTER   0 0 0
Info: WRAPPING WATERS AROUND PERIODIC BOUNDARIES ON OUTPUT.
Info: WRAPPING ALL CLUSTERS AROUND PERIODIC BOUNDARIES ON OUTPUT.
Info: FIRST LDB TIMESTEP     50
Info: LAST LDB TIMESTEP     -1
Info: HOM BACKGROUND SCALING 1
Info: PME BACKGROUND SCALING 1
Info: MIN ATOMS PER PATCH    40
Info: EMPTY PATCH LOAD       40 ATOMS
Info: VELOCITY FILE          mobley_3269819_equil.vel
Info: CENTER OF MASS MOVING INITIALLY? NO
Info: DIELECTRIC             1
Info: EXCLUDE                SCALED ONE-FOUR
Info: 1-4 ELECTROSTATICS SCALED BY 0.833333
Info: MODIFIED 1-4 VDW PARAMETERS WILL BE USED
Info: DCD FILENAME           mobley_3269819_prod.dcd
Info: DCD FREQUENCY          100000
Info: DCD FIRST STEP         100000
Info: DCD FILE WILL CONTAIN UNIT CELL DATA
Info: XST FILENAME           mobley_3269819_prod.xst
Info: XST FREQUENCY          100000
Info: NO VELOCITY DCD OUTPUT
Info: NO FORCE DCD OUTPUT
Info: OUTPUT FILENAME        mobley_3269819_prod
Info: BINARY OUTPUT FILES WILL BE USED
Info: RESTART FILENAME       mobley_3269819_prod.restart
Info: RESTART FREQUENCY      100000
Info: BINARY RESTART FILES WILL BE USED
Info: CUTOFF                 9
Info: PAIRLIST DISTANCE      11
Info: PAIRLIST SHRINK RATE   0.01
Info: PAIRLIST GROW RATE     0.01
Info: PAIRLIST TRIGGER       0.3
Info: PAIRLISTS PER CYCLE    2
Info: PAIRLISTS ENABLED
Info: MARGIN                 2
Info: HYDROGEN GROUP CUTOFF  2.5
Info: PATCH DIMENSION        15.5
Info: ENERGY OUTPUT STEPS    100000
Info: ENERGY EVALUATION STEPS    100000
Info: OUTPUT ENERGY PRECISION 4
Info: CROSSTERM ENERGY INCLUDED IN DIHEDRAL
Info: TIMING OUTPUT STEPS    1000000
Info: PRESSURE OUTPUT STEPS  100000
Info: ALCHEMICAL FEP ON
Info: FEP CURRENT LAMBDA VALUE     0
Info: FEP COMPARISON LAMBDA VALUE  0.05
Info: FEP INTRA-ALCHEMICAL NON-BONDED INTERACTIONS WILL BE RETAINED
Info: FEP INTRA-ALCHEMICAL BONDED INTERACTIONS WILL BE RETAINED
Info: FEP VDW SHIFTING COEFFICIENT 5
Info: FEP ELEC. ACTIVE FOR ANNIHILATED PARTICLES BETWEEN LAMBDA = 0 AND LAMBDA = 0.5
Info: FEP ELEC. ACTIVE FOR EXNIHILATED PARTICLES BETWEEN LAMBDA = 0.5 AND LAMBDA = 1
Info: FEP VDW ACTIVE FOR ANNIHILATED PARTICLES BETWEEN LAMBDA = 0 AND LAMBDA = 1
Info: FEP VDW ACTIVE FOR EXNIHILATED PARTICLES BETWEEN LAMBDA = 0 AND LAMBDA = 1
Info: FEP BOND ACTIVE FOR ANNIHILATED PARTICLES BETWEEN LAMBDA = 1 AND LAMBDA = 1
Info: FEP BOND ACTIVE FOR EXNIHILATED PARTICLES BETWEEN LAMBDA = 0 AND LAMBDA = 0
Info: LANGEVIN DYNAMICS ACTIVE
Info: LANGEVIN TEMPERATURE   300
Info: LANGEVIN USING BBK INTEGRATOR
Info: LANGEVIN DAMPING COEFFICIENT IS 1 INVERSE PS
Info: LANGEVIN DYNAMICS APPLIED TO HYDROGENS
Info: LANGEVIN PISTON PRESSURE CONTROL ACTIVE
Info:        TARGET PRESSURE IS 1.01325 BAR
Info:     OSCILLATION PERIOD IS 50 FS
Info:             DECAY TIME IS 25 FS
Info:     PISTON TEMPERATURE IS 300 K
Info:       PRESSURE CONTROL IS GROUP-BASED
Info:    INITIAL STRAIN RATE IS -7.05856e-06 -7.05856e-06 -7.05856e-06
Info:       CELL FLUCTUATION IS ISOTROPIC
Info: PARTICLE MESH EWALD (PME) ACTIVE
Info: PME TOLERANCE               1e-06
Info: PME EWALD COEFFICIENT       0.348832
Info: PME INTERPOLATION ORDER     4
Info: PME GRID DIMENSIONS         36 32 32
Info: PME MAXIMUM GRID SPACING    1
Info: PME CALCULATION WILL BE PERFORMED ON GPU
Info: FULL ELECTROSTATIC EVALUATION FREQUENCY      2
Info: USING VERLET I (r-RESPA) MTS SCHEME.
Info: C1 SPLITTING OF LONG RANGE ELECTROSTATICS
Info: PLACING ATOMS IN PATCHES BY HYDROGEN GROUPS
Info: RIGID BONDS TO HYDROGEN : ALL
Info:         ERROR TOLERANCE : 1e-08
Info:          MAX ITERATIONS : 100
Info: RIGID WATER USING SETTLE ALGORITHM
Info: RANDOM NUMBER SEED     1743789736
Info: USE HYDROGEN BONDS?    NO
Info: Using AMBER format force field!
Info: AMBER PARM FILE        mobley_3269819.prmtop
Info: COORDINATE PDB         mobley_3269819.pdb
Info: Exclusions will be read from PARM file!
Info: SCNB (VDW SCALING)     2
Info: USING ARITHMETIC MEAN TO COMBINE L-J SIGMA PARAMETERS
Info: BINARY COORDINATES     mobley_3269819_equil.coor
Info: SUMMARY OF PARAMETERS:
Info: 7 BONDS
Info: 8 ANGLES
Info:   8 HARMONIC
Info:   0 COSINE-BASED
Info: 3 DIHEDRAL
Info: 0 IMPROPER
Info: 0 CROSSTERM
Info: 0 VDW
Info: 15 VDW_PAIRS
Info: 0 NBTHOLE_PAIRS
Info: To read alchdata from file: mobley_3269819.pdb
Info: To read alchflag data from column: 5
Info: STRUCTURE SUMMARY:
Info: 2932 ATOMS
Info: 2933 BONDS
Info: 36 ANGLES
Info: 64 DIHEDRALS
Info: 0 IMPROPERS
Info: 0 CROSSTERMS
Info: 3015 EXCLUSIONS
Info: 2913 RIGID BONDS
Info: ALCH: 0 ATOMS TO DISAPPEAR IN FINAL STATE
Info: ALCH: 22 ATOMS TO APPEAR IN FINAL STATE
Info: 5883 DEGREES OF FREEDOM
Info: 989 HYDROGEN GROUPS
Info: 3 ATOMS IN LARGEST HYDROGEN GROUP
Info: 989 MIGRATION GROUPS
Info: 3 ATOMS IN LARGEST MIGRATION GROUP
Info: TOTAL MASS = 17870.8 amu
Info: TOTAL CHARGE = 0.000400005 e
Info: MASS DENSITY = 0.96044 g/cm^3
Info: ATOM DENSITY = 0.0948923 atoms/A^3
Info: ADDED 0 IMPLICIT EXCLUSIONS
Info: NONBONDED TABLE R-SQUARED SPACING: 0.0625
Info: NONBONDED TABLE SIZE: 705 POINTS
Info: REMOVING COM VELOCITY 0.183116 -0.104435 -0.0407796
Info: Use 3D box decompostion in PME FFT.
Info: Updated CUDA force table with 4096 elements.
Info: Updated CUDA LJ table with 5 x 5 elements.
Info: Found 21 unique exclusion lists needing 60 bytes
TCL: Running for 1500000 steps
ETITLE: TS BOND ANGLE DIHED IMPRP ELECT VDW BOUNDARY MISC KINETIC TOTAL TEMP POTENTIAL TOTALAVG TEMPAVG PRESSURE GPRESSURE VOLUME PRESSAVG GPRESSAVG
ENERGY: 0 8.6713 5.6288 12.6887 0.0000 -10432.2232 1390.1487 0.0000 0.0000 1782.1547 -7232.9309 304.8856 -9015.0857 -7232.9309 304.8856 -503.7936 -429.4474 30898.1971 -503.7936 -429.4474
ENERGY: 300000 4.7554 7.3881 13.6824 0.0000 -10573.3922 1382.3953 0.0000 0.0000 1727.7339 -7437.4372 295.5755 -9165.1710 -7319.4350 302.0887 -526.7497 -472.1217 30252.5805 -536.8747 -459.8009
ENERGY: 600000 5.4771 2.3800 13.6221 0.0000 -10441.2495 1351.3946 0.0000 0.0000 1782.9099 -7285.4656 305.0148 -9068.3755 -7344.5857 301.5198 -570.9677 -508.1373 30558.8203 -396.5709 -341.3058
ENERGY: 900000 7.3497 5.8286 11.3248 0.0000 -10566.3827 1405.0727 0.0000 0.0000 1711.6726 -7425.1343 292.8277 -9136.8069 -7357.6530 300.0861 -550.9715 -470.7110 30512.3999 -366.9041 -302.8288
ENERGY: 1200000 8.8161 3.4014 11.8334 0.0000 -10570.0233 1339.3565 0.0000 0.0000 1708.0413 -7498.5746 292.2065 -9206.6159 -7372.5516 299.5097 -863.7376 -823.6672 29608.2891 -358.3698 -300.5024
ENERGY: 1500000 3.6448 5.7888 11.7943 0.0000 -10623.8651 1387.9164 0.0000 0.0000 1782.0583 -7432.6624 304.8691 -9214.7207 -7379.3323 300.5905 -327.2727 -247.8547 29818.7615 -296.1341 -234.1650
TCL: Running FEP window   2: Lambda1 0.05   Lambda2 0.1    [dLambda 0.05  ]
TCL: Setting parameter firsttimestep to 0
TCL: Setting parameter alchLambda to 0.05
Info: NONBONDED TABLE R-SQUARED SPACING: 0.0625
Info: NONBONDED TABLE SIZE: 705 POINTS
TCL: Setting parameter alchLambda2 to 0.1
Info: NONBONDED TABLE R-SQUARED SPACING: 0.0625
Info: NONBONDED TABLE SIZE: 705 POINTS
TCL: Running for 1500000 steps
ETITLE: TS BOND ANGLE DIHED IMPRP ELECT VDW BOUNDARY MISC KINETIC TOTAL TEMP POTENTIAL TOTALAVG TEMPAVG PRESSURE GPRESSURE VOLUME PRESSAVG GPRESSAVG
ENERGY: 0 3.6448 5.7888 11.7943 0.0000 -10623.8650 1392.7877 0.0000 0.0000 1781.2060 -7428.6434 304.7233 -9209.8494 -7428.6434 304.7233 -314.6012 -233.5967 29818.7615 -314.6012 -233.5967
ENERGY: 300000 9.0404 7.8151 15.3396 0.0000 -10614.6154 1479.3077 0.0000 0.0000 1763.6052 -7339.5074 301.7122 -9103.1126 -7423.4371 298.2986 652.3146 670.1390 29875.2580 113.4941 186.6149
ENERGY: 600000 6.8357 4.4855 13.1592 0.0000 -10534.7212 1376.4144 0.0000 0.0000 1736.5768 -7397.2498 297.0883 -9133.8265 -7420.0778 297.4866 -819.5848 -810.8810 30497.3150 -71.6224 -15.4026
ENERGY: 900000 5.2012 4.4509 10.0952 0.0000 -10587.3742 1392.1331 0.0000 0.0000 1777.2250 -7398.2687 304.0423 -9175.4937 -7405.0569 298.5806 -128.3807 -87.0838 29246.4461 -56.4921 5.6532
ENERGY: 1200000 7.6606 3.7734 15.3861 0.0000 -10650.1153 1476.0300 0.0000 0.0000 1701.1081 -7446.1571 291.0204 -9147.2652 -7400.4913 298.4438 -56.6371 58.9188 30297.4196 -101.9248 -27.1647
ENERGY: 1500000 12.7643 4.7885 13.2791 0.0000 -10732.9497 1491.0133 0.0000 0.0000 1715.8977 -7495.2068 293.5506 -9211.1045 -7404.0296 298.7679 154.8648 225.1179 29402.8386 -129.4043 -53.7157
TCL: Running FEP window   3: Lambda1 0.1    Lambda2 0.15000000000000002 [dLambda 0.05000000000000002]
TCL: Setting parameter firsttimestep to 0
TCL: Setting parameter alchLambda to 0.1
Info: NONBONDED TABLE R-SQUARED SPACING: 0.0625
Info: NONBONDED TABLE SIZE: 705 POINTS
TCL: Setting parameter alchLambda2 to 0.15000000000000002
Info: NONBONDED TABLE R-SQUARED SPACING: 0.0625
Info: NONBONDED TABLE SIZE: 705 POINTS
TCL: Running for 1500000 steps
ETITLE: TS BOND ANGLE DIHED IMPRP ELECT VDW BOUNDARY MISC KINETIC TOTAL TEMP POTENTIAL TOTALAVG TEMPAVG PRESSURE GPRESSURE VOLUME PRESSAVG GPRESSAVG
ENERGY: 0 12.7643 4.7885 13.2791 0.0000 -10732.9495 1498.3633 0.0000 0.0000 1715.0600 -7488.6942 293.4073 -9203.7542 -7488.6942 293.4073 162.0547 248.9865 29402.8386 162.0547 248.9865
ENERGY: 300000 6.5832 6.1300 10.4108 0.0000 -10574.6932 1444.3113 0.0000 0.0000 1738.2979 -7368.9600 297.3827 -9107.2579 -7412.8359 294.9134 -34.2085 -43.5165 30203.0150 -54.2449 0.3457
ENERGY: 600000 5.9823 7.5995 13.5634 0.0000 -10634.7956 1506.4799 0.0000 0.0000 1732.9441 -7368.2264 296.4668 -9101.1705 -7413.4067 294.2926 778.4693 850.1492 30041.7697 97.1749 159.7864
ENERGY: 900000 7.0649 2.4192 10.5149 0.0000 -10738.5141 1534.4735 0.0000 0.0000 1749.0555 -7434.9860 299.2231 -9184.0415 -7408.1903 297.3918 747.6272 849.8842 29649.3622 243.4145 308.8490
ENERGY: 1200000 13.8184 6.2986 8.8770 0.0000 -10555.6342 1405.5887 0.0000 0.0000 1712.1792 -7408.8724 292.9144 -9121.0516 -7413.7180 297.2335 -612.3576 -474.0674 30292.7792 283.5721 356.6220
ENERGY: 1500000 5.1950 6.1134 8.6581 0.0000 -10548.6009 1366.2027 0.0000 0.0000 1732.2881 -7430.1436 296.3546 -9162.4317 -7408.9019 297.5674 -533.0135 -482.6093 29790.0759 161.7827 235.6235
TCL: Running FEP window   4: Lambda1 0.15000000000000002 Lambda2 0.2    [dLambda 0.04999999999999999]
TCL: Setting parameter firsttimestep to 0
TCL: Setting parameter alchLambda to 0.15000000000000002
Info: NONBONDED TABLE R-SQUARED SPACING: 0.0625
Info: NONBONDED TABLE SIZE: 705 POINTS
TCL: Setting parameter alchLambda2 to 0.2
Info: NONBONDED TABLE R-SQUARED SPACING: 0.0625
Info: NONBONDED TABLE SIZE: 705 POINTS
TCL: Running for 1500000 steps
ETITLE: TS BOND ANGLE DIHED IMPRP ELECT VDW BOUNDARY MISC KINETIC TOTAL TEMP POTENTIAL TOTALAVG TEMPAVG PRESSURE GPRESSURE VOLUME PRESSAVG GPRESSAVG
ENERGY: 0 5.1950 6.1134 8.6581 0.0000 -10548.6002 1368.9936 0.0000 0.0000 1731.4031 -7428.2369 296.2032 -9159.6401 -7428.2369 296.2032 -547.8931 -462.6407 29790.0759 -547.8931 -462.6407
ENERGY: 300000 5.6822 5.3430 11.9701 0.0000 -10462.6532 1320.5566 0.0000 0.0000 1777.5056 -7341.5958 304.0903 -9119.1013 -7389.5755 300.0644 -619.9756 -630.4198 29933.2139 -359.1186 -315.0745
ENERGY: 600000 7.8206 5.8029 18.6621 0.0000 -10581.0785 1334.5114 0.0000 0.0000 1799.8489 -7414.4327 307.9127 -9214.2816 -7389.5627 300.7536 -1255.5028 -1198.7488 30315.7564 -519.6854 -460.9224
ENERGY: 900000 4.8676 7.8518 10.0068 0.0000 -10565.6000 1408.1259 0.0000 0.0000 1740.1424 -7394.6055 297.6983 -9134.7479 -7382.9708 300.7672 -62.8581 -69.4948 29803.2655 -256.7411 -205.8454
ENERGY: 1200000 7.1104 6.3365 8.6025 0.0000 -10577.9505 1452.9037 0.0000 0.0000 1714.5266 -7388.4708 293.3160 -9102.9974 -7381.8495 299.9770 337.0254 389.1069 29966.5318 -127.7908 -78.9399
ENERGY: 1500000 5.6657 4.7294 12.5975 0.0000 -10687.7928 1473.1824 0.0000 0.0000 1699.9877 -7491.6302 290.8287 -9191.6178 -7390.8160 299.6987 91.8940 215.0038 30084.5050 -158.9649 -101.8431
TCL: Running FEP window   5: Lambda1 0.2    Lambda2 0.25   [dLambda 0.04999999999999999]
TCL: Setting parameter firsttimestep to 0
TCL: Setting parameter alchLambda to 0.2
Info: NONBONDED TABLE R-SQUARED SPACING: 0.0625
Info: NONBONDED TABLE SIZE: 705 POINTS
TCL: Setting parameter alchLambda2 to 0.25
Info: NONBONDED TABLE R-SQUARED SPACING: 0.0625
Info: NONBONDED TABLE SIZE: 705 POINTS
TCL: Running for 1500000 steps
ETITLE: TS BOND ANGLE DIHED IMPRP ELECT VDW BOUNDARY MISC KINETIC TOTAL TEMP POTENTIAL TOTALAVG TEMPAVG PRESSURE GPRESSURE VOLUME PRESSAVG GPRESSAVG
ENERGY: 0 5.6657 4.7294 12.5975 0.0000 -10687.7939 1472.8470 0.0000 0.0000 1699.1281 -7492.8263 290.6817 -9191.9544 -7492.8263 290.6817 128.4999 213.4849 30084.5050 128.4999 213.4849
ENERGY: 300000 6.4348 5.6236 12.2183 0.0000 -10578.6984 1423.2704 0.0000 0.0000 1700.7039 -7430.4474 290.9513 -9131.1513 -7474.1826 294.2936 116.5364 185.2414 29700.1200 128.9339 189.1624
ENERGY: 600000 6.7893 6.3193 13.1272 0.0000 -10649.9018 1535.5383 0.0000 0.0000 1771.6475 -7316.4803 303.0881 -9088.1278 -7426.8148 297.2881 1353.8485 1402.0655 29742.1368 318.9182 369.3917
ENERGY: 900000 4.9568 5.5497 11.1611 0.0000 -10587.3526 1430.8051 0.0000 0.0000 1726.5532 -7408.3268 295.3735 -9134.8799 -7413.2884 297.5030 -219.5489 -172.8697 30458.4670 93.6860 138.8894
ENERGY: 1200000 5.2619 3.6738 10.0943 0.0000 -10571.1342 1434.2026 0.0000 0.0000 1769.5830 -7348.3186 302.7349 -9117.9016 -7404.8196 298.7636 17.8708 141.0716 29998.7708 56.7120 110.6088
ENERGY: 1500000 10.0059 6.8041 10.7085 0.0000 -10734.5044 1534.1707 0.0000 0.0000 1789.2830 -7383.5322 306.1051 -9172.8153 -7394.2441 300.5878 876.2666 961.4789 29551.5700 75.7400 132.6540
TCL: Running FEP window   6: Lambda1 0.25   Lambda2 0.3    [dLambda 0.04999999999999999]
TCL: Setting parameter firsttimestep to 0
TCL: Setting parameter alchLambda to 0.25
Info: NONBONDED TABLE R-SQUARED SPACING: 0.0625
Info: NONBONDED TABLE SIZE: 705 POINTS
TCL: Setting parameter alchLambda2 to 0.3
Info: NONBONDED TABLE R-SQUARED SPACING: 0.0625
Info: NONBONDED TABLE SIZE: 705 POINTS
TCL: Running for 1500000 steps
ETITLE: TS BOND ANGLE DIHED IMPRP ELECT VDW BOUNDARY MISC KINETIC TOTAL TEMP POTENTIAL TOTALAVG TEMPAVG PRESSURE GPRESSURE VOLUME PRESSAVG GPRESSAVG
ENERGY: 0 10.0059 6.8041 10.7085 0.0000 -10734.5046 1534.0467 0.0000 0.0000 1788.4048 -7384.5346 305.9549 -9172.9395 -7384.5346 305.9549 883.8591 966.7418 29551.5700 883.8591 966.7418
ENERGY: 300000 7.3695 7.0685 13.8630 0.0000 -10663.3538 1466.7258 0.0000 0.0000 1771.2820 -7397.0450 303.0256 -9168.3271 -7393.8453 303.5048 644.2181 582.4045 29455.0733 445.0943 481.4151
ENERGY: 600000 9.0069 6.5303 8.0147 0.0000 -10788.7596 1546.1669 0.0000 0.0000 1755.6818 -7463.3591 300.3567 -9219.0409 -7400.4310 300.8314 629.2943 705.7665 29922.9056 98.3740 143.4370
ENERGY: 900000 9.0140 3.7946 9.9788 0.0000 -10429.9394 1333.8498 0.0000 0.0000 1804.5598 -7268.7424 308.7186 -9073.3022 -7378.5617 301.9292 -561.0544 -495.1051 30535.7121 -59.4569 -10.6384
ENERGY: 1200000 5.3437 3.7292 9.6763 0.0000 -10603.5380 1492.1373 0.0000 0.0000 1716.3122 -7376.3394 293.6215 -9092.6516 -7381.6152 301.5174 374.6920 397.2342 30660.1892 45.6426 88.9946
ENERGY: 1500000 8.0931 5.7058 12.1481 0.0000 -10483.8434 1357.4990 0.0000 0.0000 1742.8728 -7357.5247 298.1654 -9100.3974 -7373.9334 301.4994 -673.7687 -646.5888 30169.3905 9.8452 55.6353
TCL: Running FEP window   7: Lambda1 0.3    Lambda2 0.35   [dLambda 0.04999999999999999]
TCL: Setting parameter firsttimestep to 0
TCL: Setting parameter alchLambda to 0.3
Info: NONBONDED TABLE R-SQUARED SPACING: 0.0625
Info: NONBONDED TABLE SIZE: 705 POINTS
TCL: Setting parameter alchLambda2 to 0.35
Info: NONBONDED TABLE R-SQUARED SPACING: 0.0625
Info: NONBONDED TABLE SIZE: 705 POINTS
TCL: Running for 1500000 steps
ETITLE: TS BOND ANGLE DIHED IMPRP ELECT VDW BOUNDARY MISC KINETIC TOTAL TEMP POTENTIAL TOTALAVG TEMPAVG PRESSURE GPRESSURE VOLUME PRESSAVG GPRESSAVG
ENERGY: 0 8.0931 5.7058 12.1481 0.0000 -10483.8441 1358.3948 0.0000 0.0000 1742.0106 -7357.4918 298.0179 -9099.5024 -7357.4918 298.0179 -709.9998 -630.1967 30169.3905 -709.9998 -630.1967
ENERGY: 300000 7.3031 7.3830 12.5904 0.0000 -10807.9149 1580.6626 0.0000 0.0000 1735.7459 -7464.2300 296.9461 -9199.9758 -7424.7906 296.6753 1377.1689 1425.2365 29530.2449 351.5959 383.0180
ENERGY: 600000 5.0222 7.0233 13.3930 0.0000 -10428.7212 1336.4555 0.0000 0.0000 1727.9897 -7338.8375 295.6192 -9066.8272 -7405.4415 297.1190 -657.6352 -586.1736 30793.6467 178.7724 231.2948
ENERGY: 900000 10.0543 6.1947 9.4324 0.0000 -10545.8848 1389.5085 0.0000 0.0000 1781.3897 -7349.3051 304.7547 -9130.6948 -7402.3796 298.9320 -495.4401 -426.9416 30197.9668 92.5308 138.1732
ENERGY: 1200000 6.3182 2.6915 10.9593 0.0000 -10673.3939 1513.5821 0.0000 0.0000 1754.7279 -7385.1150 300.1935 -9139.8429 -7390.0170 298.7621 810.5729 826.2471 29917.8781 98.9153 145.8505
ENERGY: 1500000 5.9064 4.0083 13.5782 0.0000 -10622.1272 1396.0237 0.0000 0.0000 1753.9503 -7448.6603 300.0605 -9202.6105 -7393.5561 299.3117 -486.5795 -449.4400 30052.1210 21.8227 74.3138
TCL: Running FEP window   8: Lambda1 0.35   Lambda2 0.39999999999999997 [dLambda 0.04999999999999999]
TCL: Setting parameter firsttimestep to 0
TCL: Setting parameter alchLambda to 0.35
Info: NONBONDED TABLE R-SQUARED SPACING: 0.0625
Info: NONBONDED TABLE SIZE: 705 POINTS
TCL: Setting parameter alchLambda2 to 0.39999999999999997
Info: NONBONDED TABLE R-SQUARED SPACING: 0.0625
Info: NONBONDED TABLE SIZE: 705 POINTS
TCL: Running for 1500000 steps
ETITLE: TS BOND ANGLE DIHED IMPRP ELECT VDW BOUNDARY MISC KINETIC TOTAL TEMP POTENTIAL TOTALAVG TEMPAVG PRESSURE GPRESSURE VOLUME PRESSAVG GPRESSAVG
ENERGY: 0 5.9064 4.0083 13.5782 0.0000 -10622.1282 1395.5822 0.0000 0.0000 1753.0544 -7449.9987 299.9072 -9203.0531 -7449.9987 299.9072 -515.0942 -444.1776 30052.1210 -515.0942 -444.1776
ENERGY: 300000 5.0074 4.5267 14.6457 0.0000 -10464.4945 1357.8275 0.0000 0.0000 1724.6099 -7357.8774 295.0410 -9082.4873 -7395.2472 300.0105 -646.6842 -532.6124 30481.4878 -501.0253 -429.2873
ENERGY: 600000 7.9155 3.4744 10.0989 0.0000 -10545.2088 1432.2606 0.0000 0.0000 1718.1969 -7373.2625 293.9439 -9091.4594 -7355.0044 300.2391 -33.5383 113.7956 30360.8494 -408.7119 -324.6554
ENERGY: 900000 2.6914 6.9750 15.4207 0.0000 -10615.0734 1425.3200 0.0000 0.0000 1701.7641 -7462.9020 291.1326 -9164.6661 -7378.8359 298.8803 -153.8332 -63.5350 29995.2117 -332.3125 -252.7261
ENERGY: 1200000 12.7203 4.6391 11.2656 0.0000 -10603.9289 1413.6447 0.0000 0.0000 1806.9210 -7354.7382 309.1226 -9161.6592 -7371.9400 299.9838 -282.6988 -144.3888 30708.8639 -255.3712 -172.1835
ENERGY: 1500000 5.2547 6.6637 16.0375 0.0000 -10694.2610 1503.7446 0.0000 0.0000 1731.5980 -7430.9623 296.2365 -9162.5604 -7379.0107 299.9318 347.8084 405.4101 30345.8966 -215.5507 -132.8609
TCL: Running FEP window   9: Lambda1 0.39999999999999997 Lambda2 0.44999999999999996 [dLambda 0.04999999999999999]
TCL: Setting parameter firsttimestep to 0
TCL: Setting parameter alchLambda to 0.39999999999999997
Info: NONBONDED TABLE R-SQUARED SPACING: 0.0625
Info: NONBONDED TABLE SIZE: 705 POINTS
TCL: Setting parameter alchLambda2 to 0.44999999999999996
Info: NONBONDED TABLE R-SQUARED SPACING: 0.0625
Info: NONBONDED TABLE SIZE: 705 POINTS
TCL: Running for 1500000 steps
ETITLE: TS BOND ANGLE DIHED IMPRP ELECT VDW BOUNDARY MISC KINETIC TOTAL TEMP POTENTIAL TOTALAVG TEMPAVG PRESSURE GPRESSURE VOLUME PRESSAVG GPRESSAVG
ENERGY: 0 5.2547 6.6637 16.0375 0.0000 -10694.2598 1503.1311 0.0000 0.0000 1730.7506 -7432.4221 296.0916 -9163.1727 -7432.4221 296.0916 321.1887 410.7621 30345.8966 321.1887 410.7621
ENERGY: 300000 5.1161 2.5968 11.5228 0.0000 -10703.5898 1487.1202 0.0000 0.0000 1741.2812 -7455.9527 297.8931 -9197.2340 -7440.4374 297.1468 452.5473 500.8533 29901.9866 -34.6792 55.9906
ENERGY: 600000 6.7378 7.5905 10.9980 0.0000 -10478.3283 1341.0604 0.0000 0.0000 1737.3082 -7374.6334 297.2134 -9111.9416 -7451.9265 294.5363 -948.4748 -935.8752 30798.5566 -140.8893 -67.4995
ENERGY: 900000 5.4958 7.3175 9.0246 0.0000 -10624.0830 1395.4368 0.0000 0.0000 1854.6864 -7352.1219 317.2941 -9206.8082 -7437.4684 297.4501 -446.5313 -381.0827 30247.7341 -40.4956 31.1079
ENERGY: 1200000 5.5875 3.1220 10.4241 0.0000 -10670.0336 1496.9960 0.0000 0.0000 1764.3542 -7389.5498 301.8404 -9153.9040 -7425.9822 297.2192 467.5887 518.2495 30462.3355 -54.5378 16.4698
ENERGY: 1500000 7.1604 4.6984 11.6591 0.0000 -10557.9822 1420.2159 0.0000 0.0000 1859.1782 -7255.0702 318.0626 -9114.2484 -7415.1837 298.9502 32.9559 59.8811 30415.4472 -112.7503 -47.8885
TCL: Running FEP window  10: Lambda1 0.44999999999999996 Lambda2 0.49999999999999994 [dLambda 0.04999999999999999]
TCL: Setting parameter firsttimestep to 0
TCL: Setting parameter alchLambda to 0.44999999999999996
Info: NONBONDED TABLE R-SQUARED SPACING: 0.0625
Info: NONBONDED TABLE SIZE: 705 POINTS
TCL: Setting parameter alchLambda2 to 0.49999999999999994
Info: NONBONDED TABLE R-SQUARED SPACING: 0.0625
Info: NONBONDED TABLE SIZE: 705 POINTS
TCL: Running for 1500000 steps
ETITLE: TS BOND ANGLE DIHED IMPRP ELECT VDW BOUNDARY MISC KINETIC TOTAL TEMP POTENTIAL TOTALAVG TEMPAVG PRESSURE GPRESSURE VOLUME PRESSAVG GPRESSAVG
ENERGY: 0 7.1604 4.6984 11.6591 0.0000 -10557.9818 1420.0450 0.0000 0.0000 1858.3273 -7256.0916 317.9170 -9114.4188 -7256.0916 317.9170 -14.6212 69.8367 30415.4472 -14.6212 69.8367
ENERGY: 300000 9.4448 5.2512 8.0068 0.0000 -10554.7033 1425.5758 0.0000 0.0000 1761.0466 -7345.3781 301.2745 -9106.4247 -7328.8548 302.8042 200.4675 201.3178 30190.2969 103.1209 164.4685
ENERGY: 600000 8.3313 4.2124 11.8465 0.0000 -10512.4186 1419.2985 0.0000 0.0000 1787.0213 -7281.7086 305.7182 -9068.7299 -7331.7738 304.2801 60.3413 87.0180 30439.2270 0.7125 44.0962
ENERGY: 900000 8.3557 5.6586 9.6115 0.0000 -10529.2235 1444.5678 0.0000 0.0000 1797.2922 -7263.7376 307.4753 -9061.0298 -7336.3147 304.1082 -5.1254 75.1086 30537.8767 74.1279 124.4482
ENERGY: 1200000 5.1145 8.5921 12.3456 0.0000 -10594.0666 1421.3128 0.0000 0.0000 1767.0057 -7379.6959 302.2940 -9146.7015 -7341.7103 304.5331 132.2424 188.4240 30146.5098 77.3185 130.0358
ENERGY: 1500000 6.6637 4.6998 9.9302 0.0000 -10454.1914 1318.4393 0.0000 0.0000 1798.5359 -7315.9225 307.6881 -9114.4583 -7342.4523 304.5915 -707.4691 -657.5546 30118.6114 -38.6360 18.3504
TCL: Running FEP window  11: Lambda1 0.49999999999999994 Lambda2 0.5499999999999999 [dLambda 0.04999999999999999]
TCL: Setting parameter firsttimestep to 0
TCL: Setting parameter alchLambda to 0.49999999999999994
Info: NONBONDED TABLE R-SQUARED SPACING: 0.0625
Info: NONBONDED TABLE SIZE: 705 POINTS
TCL: Setting parameter alchLambda2 to 0.5499999999999999
Info: NONBONDED TABLE R-SQUARED SPACING: 0.0625
Info: NONBONDED TABLE SIZE: 705 POINTS
TCL: Running for 1500000 steps
ETITLE: TS BOND ANGLE DIHED IMPRP ELECT VDW BOUNDARY MISC KINETIC TOTAL TEMP POTENTIAL TOTALAVG TEMPAVG PRESSURE GPRESSURE VOLUME PRESSAVG GPRESSAVG
ENERGY: 0 6.6637 4.6998 9.9302 0.0000 -10454.1911 1318.6126 0.0000 0.0000 1797.6816 -7316.6031 307.5419 -9114.2847 -7316.6031 307.5419 -735.4089 -641.8725 30118.6114 -735.4089 -641.8725
ENERGY: 300000 4.6997 5.4308 13.5001 0.0000 -10670.5847 1545.6983 0.0000 0.0000 1759.0320 -7342.2238 300.9298 -9101.2558 -7354.6885 302.2529 989.4695 1115.6294 30038.3932 -163.9597 -90.7515
ENERGY: 600000 4.8183 5.0353 8.9356 0.0000 -10795.5970 1550.7308 0.0000 0.0000 1769.3337 -7456.7432 302.6922 -9226.0769 -7380.9752 303.2478 618.0855 733.2632 30179.4115 -4.2958 64.8233
ENERGY: 900000 4.9143 5.5538 15.4075 0.0000 -10638.7134 1453.3608 0.0000 0.0000 1826.8823 -7332.5946 312.5375 -9159.4770 -7372.0769 304.2546 90.4855 99.7511 30417.3159 141.2289 197.8952
ENERGY: 1200000 7.6770 2.6571 12.5516 0.0000 -10562.7642 1381.2700 0.0000 0.0000 1747.1250 -7411.4835 298.8928 -9158.6085 -7379.7715 303.5753 -736.7369 -654.2929 30605.9297 81.2407 144.1354
ENERGY: 1500000 2.5866 8.5419 8.2061 0.0000 -10574.3299 1447.7108 0.0000 0.0000 1743.1129 -7364.1716 298.2065 -9107.2845 -7375.8680 302.8547 282.8952 324.2225 30750.6896 48.9244 107.9010
TCL: Running FEP window  12: Lambda1 0.5499999999999999 Lambda2 0.6    [dLambda 0.050000000000000044]
TCL: Setting parameter firsttimestep to 0
TCL: Setting parameter alchLambda to 0.5499999999999999
Info: NONBONDED TABLE R-SQUARED SPACING: 0.0625
Info: NONBONDED TABLE SIZE: 705 POINTS
TCL: Setting parameter alchLambda2 to 0.6
Info: NONBONDED TABLE R-SQUARED SPACING: 0.0625
Info: NONBONDED TABLE SIZE: 705 POINTS
TCL: Running for 1500000 steps
ETITLE: TS BOND ANGLE DIHED IMPRP ELECT VDW BOUNDARY MISC KINETIC TOTAL TEMP POTENTIAL TOTALAVG TEMPAVG PRESSURE GPRESSURE VOLUME PRESSAVG GPRESSAVG
ENERGY: 0 2.5866 8.5419 8.2061 0.0000 -10574.2567 1448.2464 0.0000 0.0000 1742.2425 -7364.4332 298.0576 -9106.6757 -7364.4332 298.0576 248.2215 341.0446 30750.6896 248.2215 341.0446
ENERGY: 300000 3.7149 4.5347 10.0469 0.0000 -10524.8109 1363.5713 0.0000 0.0000 1759.7069 -7383.2362 301.0453 -9142.9431 -7394.0111 299.6809 -217.4240 -174.4632 29874.8233 -309.8031 -221.9601
ENERGY: 600000 3.5408 6.8401 9.9050 0.0000 -10539.5121 1412.4714 0.0000 0.0000 1776.8369 -7329.9179 303.9759 -9106.7548 -7397.0919 298.1374 150.5199 188.2129 30419.8499 -200.4533 -146.7822
ENERGY: 900000 5.5891 6.6901 11.7010 0.0000 -10554.1797 1462.0145 0.0000 0.0000 1795.4142 -7272.7709 307.1540 -9068.1850 -7396.0577 299.5590 312.5201 366.4096 30502.8654 -136.7148 -77.6265
ENERGY: 1200000 9.0725 6.3642 9.1168 0.0000 -10577.6103 1405.9501 0.0000 0.0000 1769.6889 -7377.4178 302.7530 -9147.1067 -7387.1256 300.0601 -354.0775 -341.2445 30526.1824 -105.8783 -51.2476
ENERGY: 1500000 6.7359 4.5923 10.7848 0.0000 -10634.9046 1470.2474 0.0000 0.0000 1827.0762 -7315.4680 312.5707 -9142.5442 -7381.4192 301.1162 267.0925 366.0189 30172.3986 -90.4426 -35.1673
TCL: Running FEP window  13: Lambda1 0.6    Lambda2 0.65   [dLambda 0.050000000000000044]
TCL: Setting parameter firsttimestep to 0
TCL: Setting parameter alchLambda to 0.6
Info: NONBONDED TABLE R-SQUARED SPACING: 0.0625
Info: NONBONDED TABLE SIZE: 705 POINTS
TCL: Setting parameter alchLambda2 to 0.65
Info: NONBONDED TABLE R-SQUARED SPACING: 0.0625
Info: NONBONDED TABLE SIZE: 705 POINTS
TCL: Running for 1500000 steps
ETITLE: TS BOND ANGLE DIHED IMPRP ELECT VDW BOUNDARY MISC KINETIC TOTAL TEMP POTENTIAL TOTALAVG TEMPAVG PRESSURE GPRESSURE VOLUME PRESSAVG GPRESSAVG
ENERGY: 0 6.7359 4.5923 10.7848 0.0000 -10634.8111 1469.9437 0.0000 0.0000 1826.1866 -7316.5679 312.4185 -9142.7545 -7316.5679 312.4185 295.2362 377.9370 30172.3986 295.2362 377.9370
ENERGY: 300000 4.9596 7.1917 8.3944 0.0000 -10564.7336 1362.7920 0.0000 0.0000 1752.7671 -7428.6288 299.8581 -9181.3958 -7377.8373 304.5005 -652.5857 -602.2357 30428.8089 53.9598 114.5307
ENERGY: 600000 12.7047 4.7081 11.7735 0.0000 -10675.1239 1466.5543 0.0000 0.0000 1721.5111 -7457.8723 294.5109 -9179.3834 -7381.5948 303.1219 -175.5107 -126.1748 30697.8875 -19.4253 50.9389
ENERGY: 900000 5.5638 4.5088 9.0303 0.0000 -10624.1756 1445.0463 0.0000 0.0000 1755.9527 -7404.0738 300.4031 -9160.0264 -7382.7109 301.7007 119.5844 163.0017 30191.5630 -53.2189 21.6684
ENERGY: 1200000 9.1524 3.8197 15.2864 0.0000 -10626.4326 1419.6549 0.0000 0.0000 1717.1052 -7461.4140 293.7571 -9178.5192 -7389.3808 301.9891 -316.7650 -268.3304 30329.3737 -132.1268 -61.4582
ENERGY: 1500000 6.3772 3.1043 8.3086 0.0000 -10621.3147 1451.8239 0.0000 0.0000 1720.7351 -7430.9655 294.3781 -9151.7006 -7401.1454 300.9303 356.2357 434.2721 29990.1056 -99.5366 -29.8152
TCL: Running FEP window  14: Lambda1 0.65   Lambda2 0.7000000000000001 [dLambda 0.050000000000000044]
TCL: Setting parameter firsttimestep to 0
TCL: Setting parameter alchLambda to 0.65
Info: NONBONDED TABLE R-SQUARED SPACING: 0.0625
Info: NONBONDED TABLE SIZE: 705 POINTS
TCL: Setting parameter alchLambda2 to 0.7000000000000001
Info: NONBONDED TABLE R-SQUARED SPACING: 0.0625
Info: NONBONDED TABLE SIZE: 705 POINTS
TCL: Running for 1500000 steps
ETITLE: TS BOND ANGLE DIHED IMPRP ELECT VDW BOUNDARY MISC KINETIC TOTAL TEMP POTENTIAL TOTALAVG TEMPAVG PRESSURE GPRESSURE VOLUME PRESSAVG GPRESSAVG
ENERGY: 0 6.3772 3.1043 8.3086 0.0000 -10620.9956 1451.3619 0.0000 0.0000 1719.8605 -7431.9830 294.2285 -9151.8435 -7431.9830 294.2285 380.9266 447.4308 29990.1056 380.9266 447.4308
ENERGY: 300000 7.9092 8.6870 9.6505 0.0000 -10537.9761 1402.5318 0.0000 0.0000 1776.8648 -7332.3327 303.9806 -9109.1975 -7344.8761 302.6771 -92.5199 36.7022 30695.5214 83.9654 175.5167
ENERGY: 600000 5.5758 4.7484 13.1749 0.0000 -10622.5798 1422.4870 0.0000 0.0000 1796.0948 -7380.4989 307.2704 -9176.5937 -7363.5618 303.3635 219.6587 250.7034 30013.4125 30.8183 113.1088
ENERGY: 900000 4.6931 7.1045 10.1048 0.0000 -10519.4819 1401.1698 0.0000 0.0000 1788.2295 -7308.1802 305.9249 -9096.4098 -7366.8604 302.3784 111.1763 221.1124 30292.0900 80.3403 159.9137
ENERGY: 1200000 9.7045 7.3151 14.2065 0.0000 -10533.3248 1423.0822 0.0000 0.0000 1786.6010 -7292.4156 305.6463 -9079.0166 -7364.7130 302.8153 140.3711 208.2401 30496.4887 101.7251 165.2845
ENERGY: 1500000 5.9196 4.2122 12.7701 0.0000 -10651.5276 1462.6653 0.0000 0.0000 1730.2754 -7435.6850 296.0103 -9165.9603 -7371.6993 301.5864 -192.2794 -80.0108 30649.1373 51.1422 116.2621
TCL: Running FEP window  15: Lambda1 0.7000000000000001 Lambda2 0.7500000000000001 [dLambda 0.050000000000000044]
TCL: Setting parameter firsttimestep to 0
TCL: Setting parameter alchLambda to 0.7000000000000001
Info: NONBONDED TABLE R-SQUARED SPACING: 0.0625
Info: NONBONDED TABLE SIZE: 705 POINTS
TCL: Setting parameter alchLambda2 to 0.7500000000000001
Info: NONBONDED TABLE R-SQUARED SPACING: 0.0625
Info: NONBONDED TABLE SIZE: 705 POINTS
TCL: Running for 1500000 steps
ETITLE: TS BOND ANGLE DIHED IMPRP ELECT VDW BOUNDARY MISC KINETIC TOTAL TEMP POTENTIAL TOTALAVG TEMPAVG PRESSURE GPRESSURE VOLUME PRESSAVG GPRESSAVG
ENERGY: 0 5.9196 4.2122 12.7701 0.0000 -10651.8245 1462.0760 0.0000 0.0000 1729.4328 -7437.4137 295.8661 -9166.8465 -7437.4137 295.8661 -135.3076 -68.6417 30649.1373 -135.3076 -68.6417
ENERGY: 300000 5.3457 7.8085 11.7043 0.0000 -10527.1933 1449.5890 0.0000 0.0000 1736.9789 -7315.7668 297.1571 -9052.7457 -7374.5252 299.5879 306.2732 428.6326 30381.2060 -135.1828 -13.7403
ENERGY: 600000 6.2764 7.4666 8.1514 0.0000 -10672.2318 1490.0018 0.0000 0.0000 1764.3363 -7395.9993 301.8373 -9160.3356 -7373.1878 300.7102 225.0862 255.4585 30718.5555 40.6256 132.0773
ENERGY: 900000 8.4134 3.6703 10.9842 0.0000 -10505.5202 1311.8369 0.0000 0.0000 1737.8491 -7432.7662 297.3060 -9170.6154 -7390.0453 299.2262 -1273.6810 -1275.7015 30645.5376 -213.6665 -145.3364
ENERGY: 1200000 6.5266 3.5504 11.1813 0.0000 -10541.5823 1412.2737 0.0000 0.0000 1735.7033 -7372.3471 296.9388 -9108.0503 -7394.5188 298.6083 -241.5420 -169.2733 30708.5139 -204.3878 -140.8660
ENERGY: 1500000 12.7005 4.7232 12.9214 0.0000 -10585.4505 1406.1597 0.0000 0.0000 1773.5921 -7375.3536 303.4207 -9148.9457 -7393.6506 299.1640 -246.2321 -203.2593 30471.6676 -237.6686 -173.6200
TCL: Running FEP window  16: Lambda1 0.7500000000000001 Lambda2 0.8000000000000002 [dLambda 0.050000000000000044]
TCL: Setting parameter firsttimestep to 0
TCL: Setting parameter alchLambda to 0.7500000000000001
Info: NONBONDED TABLE R-SQUARED SPACING: 0.0625
Info: NONBONDED TABLE SIZE: 705 POINTS
TCL: Setting parameter alchLambda2 to 0.8000000000000002
Info: NONBONDED TABLE R-SQUARED SPACING: 0.0625
Info: NONBONDED TABLE SIZE: 705 POINTS
TCL: Running for 1500000 steps
ETITLE: TS BOND ANGLE DIHED IMPRP ELECT VDW BOUNDARY MISC KINETIC TOTAL TEMP POTENTIAL TOTALAVG TEMPAVG PRESSURE GPRESSURE VOLUME PRESSAVG GPRESSAVG
ENERGY: 0 12.7005 4.7232 12.9214 0.0000 -10585.5138 1405.5795 0.0000 0.0000 1772.6849 -7376.9044 303.2655 -9149.5893 -7376.9044 303.2655 -266.6984 -191.4363 30471.6676 -266.6984 -191.4363
ENERGY: 300000 8.9710 5.5585 5.9343 0.0000 -10674.4886 1519.8743 0.0000 0.0000 1744.9661 -7389.1844 298.5235 -9134.1505 -7393.6642 301.1296 1014.1319 1098.7975 30163.6368 133.3562 206.4221
ENERGY: 600000 9.4540 5.2553 11.0002 0.0000 -10592.1272 1388.8087 0.0000 0.0000 1713.5805 -7464.0285 293.1541 -9177.6090 -7426.1116 298.2026 -578.6847 -509.6051 30508.0585 132.4433 202.5378
ENERGY: 900000 8.7352 4.4194 11.6247 0.0000 -10684.3585 1508.1125 0.0000 0.0000 1789.9576 -7361.5091 306.2205 -9151.4667 -7425.1402 298.0593 921.7827 1011.1845 29936.7252 243.6128 318.2737
ENERGY: 1200000 6.1146 6.0177 12.8507 0.0000 -10398.4076 1302.7709 0.0000 0.0000 1793.3943 -7277.2593 306.8085 -9070.6537 -7414.9852 298.4382 -1239.8196 -1168.0015 31249.6039 180.5889 256.9551
ENERGY: 1500000 6.7945 3.1517 11.7804 0.0000 -10600.7554 1379.5611 0.0000 0.0000 1773.5205 -7425.9472 303.4085 -9199.4677 -7422.4594 297.6598 -615.3348 -533.7042 30317.8207 82.6830 157.8695
TCL: Running FEP window  17: Lambda1 0.8000000000000002 Lambda2 0.8500000000000002 [dLambda 0.050000000000000044]
TCL: Setting parameter firsttimestep to 0
TCL: Setting parameter alchLambda to 0.8000000000000002
Info: NONBONDED TABLE R-SQUARED SPACING: 0.0625
Info: NONBONDED TABLE SIZE: 705 POINTS
TCL: Setting parameter alchLambda2 to 0.8500000000000002
Info: NONBONDED TABLE R-SQUARED SPACING: 0.0625
Info: NONBONDED TABLE SIZE: 705 POINTS
TCL: Running for 1500000 steps
ETITLE: TS BOND ANGLE DIHED IMPRP ELECT VDW BOUNDARY MISC KINETIC TOTAL TEMP POTENTIAL TOTALAVG TEMPAVG PRESSURE GPRESSURE VOLUME PRESSAVG GPRESSAVG
ENERGY: 0 6.7945 3.1517 11.7804 0.0000 -10600.8118 1379.2930 0.0000 0.0000 1772.6607 -7427.1315 303.2614 -9199.7922 -7427.1315 303.2614 -601.5286 -516.5475 30317.8207 -601.5286 -516.5475
ENERGY: 300000 7.8340 7.2598 10.4926 0.0000 -10518.8846 1418.9989 0.0000 0.0000 1766.7481 -7307.5512 302.2499 -9074.2993 -7368.0325 302.2604 204.2244 298.3324 30451.2937 -86.4255 -11.0211
ENERGY: 600000 6.5504 3.0773 13.1077 0.0000 -10572.3398 1414.4238 0.0000 0.0000 1706.2361 -7428.9446 291.8977 -9135.1807 -7389.5997 299.7474 -6.0562 10.5592 30188.7822 34.6792 106.6367
ENERGY: 900000 4.8244 3.4898 9.0865 0.0000 -10597.3515 1462.5543 0.0000 0.0000 1725.1543 -7392.2422 295.1342 -9117.3964 -7386.4000 300.6847 191.0867 244.5622 30786.7974 121.3209 181.3905
ENERGY: 1200000 8.6704 5.9944 8.2529 0.0000 -10592.3828 1421.7109 0.0000 0.0000 1822.1354 -7325.6189 311.7254 -9147.7543 -7377.6037 300.9350 204.8626 375.6274 30024.3183 127.8440 197.3529
ENERGY: 1500000 6.6158 5.9587 8.6801 0.0000 -10685.6176 1457.7864 0.0000 0.0000 1817.0470 -7389.5296 310.8549 -9206.5766 -7375.6841 301.7388 174.5267 231.7941 30026.9440 79.7858 150.5600
TCL: Running FEP window  18: Lambda1 0.8500000000000002 Lambda2 0.9000000000000002 [dLambda 0.050000000000000044]
TCL: Setting parameter firsttimestep to 0
TCL: Setting parameter alchLambda to 0.8500000000000002
Info: NONBONDED TABLE R-SQUARED SPACING: 0.0625
Info: NONBONDED TABLE SIZE: 705 POINTS
TCL: Setting parameter alchLambda2 to 0.9000000000000002
Info: NONBONDED TABLE R-SQUARED SPACING: 0.0625
Info: NONBONDED TABLE SIZE: 705 POINTS
TCL: Running for 1500000 steps
ETITLE: TS BOND ANGLE DIHED IMPRP ELECT VDW BOUNDARY MISC KINETIC TOTAL TEMP POTENTIAL TOTALAVG TEMPAVG PRESSURE GPRESSURE VOLUME PRESSAVG GPRESSAVG
ENERGY: 0 6.6158 5.9587 8.6801 0.0000 -10685.8334 1457.2718 0.0000 0.0000 1816.1675 -7391.1395 310.7044 -9207.3070 -7391.1395 310.7044 161.3609 245.0568 30026.9440 161.3609 245.0568
ENERGY: 300000 6.8542 4.9705 8.2987 0.0000 -10586.6953 1417.2243 0.0000 0.0000 1806.0547 -7343.2930 308.9744 -9149.3476 -7392.6301 305.5022 -211.2243 -125.8178 30477.4833 -68.9925 -8.1778
ENERGY: 600000 4.3983 6.1731 9.5477 0.0000 -10487.9474 1300.3518 0.0000 0.0000 1770.2432 -7397.2333 302.8478 -9167.4766 -7386.6479 304.0979 -1204.1024 -1196.5923 30756.4386 -228.0182 -182.0261
ENERGY: 900000 9.4143 7.3687 13.5290 0.0000 -10655.8549 1479.9287 0.0000 0.0000 1806.2599 -7339.3544 309.0095 -9145.6143 -7377.6357 304.7293 728.7502 807.5812 30113.8492 -99.6464 -43.6014
ENERGY: 1200000 4.9413 5.8110 12.2687 0.0000 -10451.5230 1316.4694 0.0000 0.0000 1775.3523 -7336.6804 303.7219 -9112.0327 -7378.3126 303.7786 -1062.6028 -979.7214 30823.8456 -208.5746 -146.4804
ENERGY: 1500000 4.2540 5.0883 15.1706 0.0000 -10659.2616 1475.2318 0.0000 0.0000 1805.2517 -7354.2652 308.8370 -9159.5169 -7376.0153 303.6027 443.8531 510.4485 30333.7527 -154.1711 -88.8925
TCL: Running FEP window  19: Lambda1 0.9000000000000002 Lambda2 0.9500000000000003 [dLambda 0.050000000000000044]
TCL: Setting parameter firsttimestep to 0
TCL: Setting parameter alchLambda to 0.9000000000000002
Info: NONBONDED TABLE R-SQUARED SPACING: 0.0625
Info: NONBONDED TABLE SIZE: 705 POINTS
TCL: Setting parameter alchLambda2 to 0.9500000000000003
Info: NONBONDED TABLE R-SQUARED SPACING: 0.0625
Info: NONBONDED TABLE SIZE: 705 POINTS
TCL: Running for 1500000 steps
ETITLE: TS BOND ANGLE DIHED IMPRP ELECT VDW BOUNDARY MISC KINETIC TOTAL TEMP POTENTIAL TOTALAVG TEMPAVG PRESSURE GPRESSURE VOLUME PRESSAVG GPRESSAVG
ENERGY: 0 4.2540 5.0883 15.1706 0.0000 -10659.2289 1474.5487 0.0000 0.0000 1804.3919 -7355.7753 308.6899 -9160.1673 -7355.7753 308.6899 453.3076 525.8837 30333.7527 453.3076 525.8837
ENERGY: 300000 6.8154 5.4288 12.3086 0.0000 -10749.6592 1538.1015 0.0000 0.0000 1765.0745 -7421.9304 301.9636 -9187.0049 -7429.3118 300.7779 957.8519 985.6209 30237.0224 189.9030 243.5741
ENERGY: 600000 5.9160 2.1995 13.0812 0.0000 -10645.2590 1432.3793 0.0000 0.0000 1790.9181 -7400.7650 306.3848 -9191.6830 -7423.5658 301.2214 -29.6216 60.1366 30015.4325 147.8071 222.9087
ENERGY: 900000 5.5156 3.4880 11.5920 0.0000 -10448.9295 1321.2332 0.0000 0.0000 1719.9785 -7387.1222 294.2487 -9107.1007 -7411.5214 299.4177 -655.6324 -646.3137 30457.3947 185.7621 250.8056
ENERGY: 1200000 7.3978 4.3692 10.8523 0.0000 -10543.5601 1345.8353 0.0000 0.0000 1749.0110 -7426.0946 299.2155 -9175.1055 -7403.6441 299.7699 -863.9733 -797.4809 30728.2889 17.8406 85.0974
ENERGY: 1500000 5.5641 5.6664 9.7851 0.0000 -10563.9066 1392.6325 0.0000 0.0000 1780.7137 -7369.5448 304.6391 -9150.2584 -7396.1773 300.5801 -187.3380 -133.1330 30664.8438 -15.3792 48.4355
TCL: Running FEP window  20: Lambda1 0.9500000000000003 Lambda2 1.0    [dLambda 0.04999999999999971]
TCL: Setting parameter firsttimestep to 0
TCL: Setting parameter alchLambda to 0.9500000000000003
Info: NONBONDED TABLE R-SQUARED SPACING: 0.0625
Info: NONBONDED TABLE SIZE: 705 POINTS
TCL: Setting parameter alchLambda2 to 1.0
Info: NONBONDED TABLE R-SQUARED SPACING: 0.0625
Info: NONBONDED TABLE SIZE: 705 POINTS
TCL: Running for 1500000 steps
ETITLE: TS BOND ANGLE DIHED IMPRP ELECT VDW BOUNDARY MISC KINETIC TOTAL TEMP POTENTIAL TOTALAVG TEMPAVG PRESSURE GPRESSURE VOLUME PRESSAVG GPRESSAVG
ENERGY: 0 5.5641 5.6664 9.7851 0.0000 -10564.0473 1392.1549 0.0000 0.0000 1779.8172 -7371.0597 304.4857 -9150.8769 -7371.0597 304.4857 -187.7619 -115.6774 30664.8438 -187.7619 -115.6774
ENERGY: 300000 2.6935 4.9356 15.0937 0.0000 -10543.1213 1435.5435 0.0000 0.0000 1723.7543 -7361.1007 294.8946 -9084.8550 -7367.0793 300.7955 654.5904 669.5248 30086.1651 287.8719 331.7552
ENERGY: 600000 2.3687 3.7001 10.0395 0.0000 -10578.3364 1407.1973 0.0000 0.0000 1730.8465 -7424.1843 296.1080 -9155.0308 -7400.2045 298.2368 221.1598 287.4108 30249.1864 250.6701 298.0126
ENERGY: 900000 5.3949 7.1782 14.2393 0.0000 -10488.8459 1370.7561 0.0000 0.0000 1719.0488 -7372.2286 294.0896 -9091.2774 -7390.0732 299.2584 -302.1773 -205.9908 30690.4023 197.5581 253.0058
ENERGY: 1200000 11.6117 5.4078 7.5040 0.0000 -10595.5807 1388.0828 0.0000 0.0000 1719.4035 -7463.5709 294.1503 -9182.9744 -7410.9888 298.0034 -419.3072 -310.0127 29868.4050 -11.3052 52.9256
ENERGY: 1500000 7.8649 6.2366 8.7214 0.0000 -10575.9357 1398.6235 0.0000 0.0000 1789.4970 -7364.9923 306.1417 -9154.4893 -7403.7336 298.8283 -289.2831 -186.2636 30113.8928 62.2000 128.7686
TCL: Exiting due to exit command.
