Info: SIMULATION PARAMETERS:
Info: TIMESTEP               2
Info: NUMBER OF STEPS        0
Info: STEPS PER CYCLE        10
Info: PERIODIC CELL BASIS 1  30.4257 0 0
Info: PERIODIC CELL BASIS 2  0 31.4966 0
Info: PERIODIC CELL BASIS 3  0 0 32.1975
Info: PERIODIC CELL CENTER   0 0 0
Info: WRAPPING WATERS AROUND PERIODIC BOUNDARIES ON OUTPUT.
Info: WRAPPING ALL CLUSTERS AROUND PERIODIC BOUNDARIES ON OUTPUT.
Info: FIRST LDB TIMESTEP     50
Info: LAST LDB TIMESTEP     -1
Info: HOM BACKGROUND SCALING 1
Info: PME BACKGROUND SCALING 1
Info: MIN ATOMS PER PATCH    40
Info: EMPTY PATCH LOAD       40 ATOMS
Info: VELOCITY FILE          mobley_6978427_equil.vel
Info: CENTER OF MASS MOVING INITIALLY? NO
Info: DIELECTRIC             1
Info: EXCLUDE                SCALED ONE-FOUR
Info: 1-4 ELECTROSTATICS SCALED BY 0.833333
Info: MODIFIED 1-4 VDW PARAMETERS WILL BE USED
Info: DCD FILENAME           mobley_6978427_prod.dcd
Info: DCD FREQUENCY          100000
Info: DCD FIRST STEP         100000
Info: DCD FILE WILL CONTAIN UNIT CELL DATA
Info: XST FILENAME           mobley_6978427_prod.xst
Info: XST FREQUENCY          100000
Info: NO VELOCITY DCD OUTPUT
Info: NO FORCE DCD OUTPUT
Info: OUTPUT FILENAME        mobley_6978427_prod
Info: BINARY OUTPUT FILES WILL BE USED
Info: RESTART FILENAME       mobley_6978427_prod.restart
Info: RESTART FREQUENCY      100000
Info: BINARY RESTART FILES WILL BE USED
Info: CUTOFF                 9
Info: PAIRLIST DISTANCE      11
Info: PAIRLIST SHRINK RATE   0.01
Info: PAIRLIST GROW RATE     0.01
Info: PAIRLIST TRIGGER       0.3
Info: PAIRLISTS PER CYCLE    2
Info: PAIRLISTS ENABLED
Info: MARGIN                 2
Info: HYDROGEN GROUP CUTOFF  2.5
Info: PATCH DIMENSION        15.5
Info: ENERGY OUTPUT STEPS    100000
Info: ENERGY EVALUATION STEPS    100000
Info: OUTPUT ENERGY PRECISION 4
Info: CROSSTERM ENERGY INCLUDED IN DIHEDRAL
Info: TIMING OUTPUT STEPS    1000000
Info: PRESSURE OUTPUT STEPS  100000
Info: ALCHEMICAL FEP ON
Info: FEP CURRENT LAMBDA VALUE     0
Info: FEP COMPARISON LAMBDA VALUE  0.05
Info: FEP INTRA-ALCHEMICAL NON-BONDED INTERACTIONS WILL BE RETAINED
Info: FEP INTRA-ALCHEMICAL BONDED INTERACTIONS WILL BE RETAINED
Info: FEP VDW SHIFTING COEFFICIENT 5
Info: FEP ELEC. ACTIVE FOR ANNIHILATED PARTICLES BETWEEN LAMBDA = 0 AND LAMBDA = 0.5
Info: FEP ELEC. ACTIVE FOR EXNIHILATED PARTICLES BETWEEN LAMBDA = 0.5 AND LAMBDA = 1
Info: FEP VDW ACTIVE FOR ANNIHILATED PARTICLES BETWEEN LAMBDA = 0 AND LAMBDA = 1
Info: FEP VDW ACTIVE FOR EXNIHILATED PARTICLES BETWEEN LAMBDA = 0 AND LAMBDA = 1
Info: FEP BOND ACTIVE FOR ANNIHILATED PARTICLES BETWEEN LAMBDA = 1 AND LAMBDA = 1
Info: FEP BOND ACTIVE FOR EXNIHILATED PARTICLES BETWEEN LAMBDA = 0 AND LAMBDA = 0
Info: LANGEVIN DYNAMICS ACTIVE
Info: LANGEVIN TEMPERATURE   300
Info: LANGEVIN USING BBK INTEGRATOR
Info: LANGEVIN DAMPING COEFFICIENT IS 1 INVERSE PS
Info: LANGEVIN DYNAMICS APPLIED TO HYDROGENS
Info: LANGEVIN PISTON PRESSURE CONTROL ACTIVE
Info:        TARGET PRESSURE IS 1.01325 BAR
Info:     OSCILLATION PERIOD IS 50 FS
Info:             DECAY TIME IS 25 FS
Info:     PISTON TEMPERATURE IS 300 K
Info:       PRESSURE CONTROL IS GROUP-BASED
Info:    INITIAL STRAIN RATE IS -0.000138175 -0.000138175 -0.000138175
Info:       CELL FLUCTUATION IS ISOTROPIC
Info: PARTICLE MESH EWALD (PME) ACTIVE
Info: PME TOLERANCE               1e-06
Info: PME EWALD COEFFICIENT       0.348832
Info: PME INTERPOLATION ORDER     4
Info: PME GRID DIMENSIONS         32 32 36
Info: PME MAXIMUM GRID SPACING    1
Info: PME CALCULATION WILL BE PERFORMED ON GPU
Info: FULL ELECTROSTATIC EVALUATION FREQUENCY      2
Info: USING VERLET I (r-RESPA) MTS SCHEME.
Info: C1 SPLITTING OF LONG RANGE ELECTROSTATICS
Info: PLACING ATOMS IN PATCHES BY HYDROGEN GROUPS
Info: RIGID BONDS TO HYDROGEN : ALL
Info:         ERROR TOLERANCE : 1e-08
Info:          MAX ITERATIONS : 100
Info: RIGID WATER USING SETTLE ALGORITHM
Info: RANDOM NUMBER SEED     1743821807
Info: USE HYDROGEN BONDS?    NO
Info: Using AMBER format force field!
Info: AMBER PARM FILE        mobley_6978427.prmtop
Info: COORDINATE PDB         mobley_6978427.pdb
Info: Exclusions will be read from PARM file!
Info: SCNB (VDW SCALING)     2
Info: USING ARITHMETIC MEAN TO COMBINE L-J SIGMA PARAMETERS
Info: BINARY COORDINATES     mobley_6978427_equil.coor
Info: SUMMARY OF PARAMETERS:
Info: 9 BONDS
Info: 11 ANGLES
Info:   11 HARMONIC
Info:   0 COSINE-BASED
Info: 16 DIHEDRAL
Info: 0 IMPROPER
Info: 0 CROSSTERM
Info: 0 VDW
Info: 36 VDW_PAIRS
Info: 0 NBTHOLE_PAIRS
Info: To read alchdata from file: mobley_6978427.pdb
Info: To read alchflag data from column: 5
Info: STRUCTURE SUMMARY:
Info: 2961 ATOMS
Info: 2961 BONDS
Info: 46 ANGLES
Info: 83 DIHEDRALS
Info: 0 IMPROPERS
Info: 0 CROSSTERMS
Info: 3069 EXCLUSIONS
Info: 2951 RIGID BONDS
Info: ALCH: 0 ATOMS TO DISAPPEAR IN FINAL STATE
Info: ALCH: 24 ATOMS TO APPEAR IN FINAL STATE
Info: 5932 DEGREES OF FREEDOM
Info: 989 HYDROGEN GROUPS
Info: 4 ATOMS IN LARGEST HYDROGEN GROUP
Info: 989 MIGRATION GROUPS
Info: 4 ATOMS IN LARGEST MIGRATION GROUP
Info: TOTAL MASS = 17779.9 amu
Info: TOTAL CHARGE = -0.000199955 e
Info: MASS DENSITY = 0.956891 g/cm^3
Info: ATOM DENSITY = 0.0959651 atoms/A^3
Info: ADDED 0 IMPLICIT EXCLUSIONS
Info: NONBONDED TABLE R-SQUARED SPACING: 0.0625
Info: NONBONDED TABLE SIZE: 705 POINTS
Info: REMOVING COM VELOCITY 0.101614 0.00542003 -0.0965352
Info: Use 3D box decompostion in PME FFT.
Info: Updated CUDA force table with 4096 elements.
Info: Updated CUDA LJ table with 8 x 8 elements.
Info: Found 27 unique exclusion lists needing 80 bytes
TCL: Running for 1500000 steps
ETITLE: TS BOND ANGLE DIHED IMPRP ELECT VDW BOUNDARY MISC KINETIC TOTAL TEMP POTENTIAL TOTALAVG TEMPAVG PRESSURE GPRESSURE VOLUME PRESSAVG GPRESSAVG
ENERGY: 0 2.2343 14.3469 5.0655 0.0000 -10637.3312 1408.5150 0.0000 0.0000 1754.9529 -7452.2166 297.7520 -9207.1695 -7452.2166 297.7520 -418.5513 -337.0536 30854.9568 -418.5513 -337.0536
ENERGY: 300000 2.8199 9.7144 5.5373 0.0000 -10642.3424 1401.0843 0.0000 0.0000 1772.8896 -7450.2970 300.7952 -9223.1866 -7471.8628 298.7323 -56.2668 -12.9899 30078.7449 -179.8677 -111.9730
ENERGY: 600000 3.3194 13.5943 5.4503 0.0000 -10708.3013 1418.3886 0.0000 0.0000 1761.0513 -7506.4975 298.7867 -9267.5488 -7468.4621 299.4873 -283.5466 -296.9117 30174.8705 -60.7327 -11.0599
ENERGY: 900000 4.1987 12.6845 4.4727 0.0000 -10473.7241 1305.7472 0.0000 0.0000 1761.4581 -7385.1630 298.8557 -9146.6211 -7460.1788 299.4955 -978.2115 -954.4804 30464.9241 -246.5209 -194.4831
ENERGY: 1200000 6.1867 13.8753 4.6733 0.0000 -10670.7300 1456.9048 0.0000 0.0000 1809.1143 -7379.9755 306.9412 -9189.0899 -7446.4538 301.1854 180.4196 214.3418 30276.8338 -130.0115 -73.9659
ENERGY: 1500000 5.2307 13.9524 4.6177 0.0000 -10623.8210 1361.7150 0.0000 0.0000 1792.7752 -7445.5300 304.1691 -9238.3052 -7451.2343 301.7837 -650.6643 -579.7246 30296.0721 -178.9697 -121.4409
TCL: Running FEP window   2: Lambda1 0.05   Lambda2 0.1    [dLambda 0.05  ]
TCL: Setting parameter firsttimestep to 0
TCL: Setting parameter alchLambda to 0.05
Info: NONBONDED TABLE R-SQUARED SPACING: 0.0625
Info: NONBONDED TABLE SIZE: 705 POINTS
TCL: Setting parameter alchLambda2 to 0.1
Info: NONBONDED TABLE R-SQUARED SPACING: 0.0625
Info: NONBONDED TABLE SIZE: 705 POINTS
TCL: Running for 1500000 steps
ETITLE: TS BOND ANGLE DIHED IMPRP ELECT VDW BOUNDARY MISC KINETIC TOTAL TEMP POTENTIAL TOTALAVG TEMPAVG PRESSURE GPRESSURE VOLUME PRESSAVG GPRESSAVG
ENERGY: 0 5.2307 13.9524 4.6177 0.0000 -10623.8203 1366.9946 0.0000 0.0000 1791.8974 -7441.1275 304.0202 -9233.0249 -7441.1275 304.0202 -647.3190 -570.9629 30296.0721 -647.3190 -570.9629
ENERGY: 300000 2.5534 15.2801 4.5843 0.0000 -10778.5881 1486.0536 0.0000 0.0000 1753.0218 -7517.0950 297.4244 -9270.1168 -7513.7673 297.3901 170.1155 199.6643 30210.1024 92.2500 168.5820
ENERGY: 600000 4.4614 12.6934 5.8251 0.0000 -10720.9699 1432.3900 0.0000 0.0000 1832.0858 -7433.5142 310.8387 -9265.6000 -7498.3679 299.5493 -13.7068 41.9192 30194.1101 -61.0490 -11.6194
ENERGY: 900000 2.5898 10.4169 4.3210 0.0000 -10681.5651 1439.7391 0.0000 0.0000 1729.7116 -7494.7867 293.4695 -9224.4982 -7478.2117 299.6865 -101.9482 12.6522 30176.8369 -79.6957 -14.4571
ENERGY: 1200000 2.3037 11.6470 5.0568 0.0000 -10611.2954 1386.5225 0.0000 0.0000 1708.2589 -7497.5065 289.8297 -9205.7654 -7481.5237 298.7769 -413.1541 -371.6793 30284.6553 -45.1504 14.0333
ENERGY: 1500000 1.9811 11.2540 4.5963 0.0000 -10691.9961 1448.8432 0.0000 0.0000 1791.7318 -7433.5898 303.9921 -9225.3216 -7479.4064 299.2684 235.6970 276.2958 30023.2033 12.0055 70.6366
TCL: Running FEP window   3: Lambda1 0.1    Lambda2 0.15000000000000002 [dLambda 0.05000000000000002]
TCL: Setting parameter firsttimestep to 0
TCL: Setting parameter alchLambda to 0.1
Info: NONBONDED TABLE R-SQUARED SPACING: 0.0625
Info: NONBONDED TABLE SIZE: 705 POINTS
TCL: Setting parameter alchLambda2 to 0.15000000000000002
Info: NONBONDED TABLE R-SQUARED SPACING: 0.0625
Info: NONBONDED TABLE SIZE: 705 POINTS
TCL: Running for 1500000 steps
ETITLE: TS BOND ANGLE DIHED IMPRP ELECT VDW BOUNDARY MISC KINETIC TOTAL TEMP POTENTIAL TOTALAVG TEMPAVG PRESSURE GPRESSURE VOLUME PRESSAVG GPRESSAVG
ENERGY: 0 1.9811 11.2540 4.5963 0.0000 -10691.9958 1449.5662 0.0000 0.0000 1790.8836 -7433.7147 303.8482 -9224.5983 -7433.7147 303.8482 208.3919 280.2180 30023.2033 208.3919 280.2180
ENERGY: 300000 2.7720 7.5964 5.1593 0.0000 -10696.6198 1431.9487 0.0000 0.0000 1793.2808 -7455.8624 304.2549 -9249.1432 -7421.1120 303.9185 -234.6902 -137.9193 30605.6228 323.6790 381.1646
ENERGY: 600000 4.2907 10.6716 8.2701 0.0000 -10568.4286 1427.9027 0.0000 0.0000 1761.9470 -7355.3465 298.9387 -9117.2934 -7432.3992 300.5806 22.5718 41.6144 30567.3801 136.7012 187.7102
ENERGY: 900000 2.3018 9.8247 4.8058 0.0000 -10508.0664 1357.8187 0.0000 0.0000 1817.3738 -7315.9416 308.3426 -9133.3154 -7437.5467 301.4788 -343.4457 -362.2567 30567.6157 52.1493 96.8314
ENERGY: 1200000 1.9663 12.8388 5.9303 0.0000 -10754.2558 1454.1346 0.0000 0.0000 1777.6392 -7501.7466 301.6011 -9279.3858 -7450.6560 301.3560 114.2687 171.0776 30242.3078 103.3743 149.7877
ENERGY: 1500000 1.0908 12.9841 3.9554 0.0000 -10714.3618 1450.6589 0.0000 0.0000 1780.5693 -7465.1033 302.0982 -9245.6726 -7453.3183 300.9548 200.7946 277.3351 30107.0836 23.5145 71.5442
TCL: Running FEP window   4: Lambda1 0.15000000000000002 Lambda2 0.2    [dLambda 0.04999999999999999]
TCL: Setting parameter firsttimestep to 0
TCL: Setting parameter alchLambda to 0.15000000000000002
Info: NONBONDED TABLE R-SQUARED SPACING: 0.0625
Info: NONBONDED TABLE SIZE: 705 POINTS
TCL: Setting parameter alchLambda2 to 0.2
Info: NONBONDED TABLE R-SQUARED SPACING: 0.0625
Info: NONBONDED TABLE SIZE: 705 POINTS
TCL: Running for 1500000 steps
ETITLE: TS BOND ANGLE DIHED IMPRP ELECT VDW BOUNDARY MISC KINETIC TOTAL TEMP POTENTIAL TOTALAVG TEMPAVG PRESSURE GPRESSURE VOLUME PRESSAVG GPRESSAVG
ENERGY: 0 1.0908 12.9841 3.9554 0.0000 -10714.3635 1451.1183 0.0000 0.0000 1779.6945 -7465.5204 301.9498 -9245.2149 -7465.5204 301.9498 185.2711 282.0197 30107.0836 185.2711 282.0197
ENERGY: 300000 4.1035 13.1321 4.7770 0.0000 -10634.9746 1438.9137 0.0000 0.0000 1712.0207 -7462.0276 290.4680 -9174.0482 -7473.7902 297.3437 -120.2286 -64.9127 30689.6595 -28.4013 31.5712
ENERGY: 600000 6.2898 11.2668 4.1868 0.0000 -10564.1246 1338.0419 0.0000 0.0000 1730.6658 -7473.6735 293.6314 -9204.3393 -7471.2434 297.1533 -767.1963 -663.0493 29988.1712 -293.3089 -224.1869
ENERGY: 900000 1.3485 8.6169 5.1922 0.0000 -10619.0251 1438.5396 0.0000 0.0000 1780.6479 -7384.6801 302.1115 -9165.3279 -7454.9333 298.0825 103.3829 178.2253 30476.3435 -212.4951 -140.1799
ENERGY: 1200000 3.7706 15.9681 5.3519 0.0000 -10606.9812 1392.8976 0.0000 0.0000 1751.6328 -7437.3602 297.1887 -9188.9931 -7451.1809 299.4002 -377.3257 -300.7867 30205.7201 -201.1197 -132.0777
ENERGY: 1500000 4.7233 10.1337 5.0784 0.0000 -10714.9867 1400.8344 0.0000 0.0000 1713.9539 -7580.2630 290.7960 -9294.2169 -7467.9540 298.2083 -688.1876 -677.6189 30317.0806 -302.9362 -237.4678
TCL: Running FEP window   5: Lambda1 0.2    Lambda2 0.25   [dLambda 0.04999999999999999]
TCL: Setting parameter firsttimestep to 0
TCL: Setting parameter alchLambda to 0.2
Info: NONBONDED TABLE R-SQUARED SPACING: 0.0625
Info: NONBONDED TABLE SIZE: 705 POINTS
TCL: Setting parameter alchLambda2 to 0.25
Info: NONBONDED TABLE R-SQUARED SPACING: 0.0625
Info: NONBONDED TABLE SIZE: 705 POINTS
TCL: Running for 1500000 steps
ETITLE: TS BOND ANGLE DIHED IMPRP ELECT VDW BOUNDARY MISC KINETIC TOTAL TEMP POTENTIAL TOTALAVG TEMPAVG PRESSURE GPRESSURE VOLUME PRESSAVG GPRESSAVG
ENERGY: 0 4.7233 10.1337 5.0784 0.0000 -10714.9863 1403.0292 0.0000 0.0000 1713.0490 -7578.9728 290.6424 -9292.0217 -7578.9728 290.6424 -751.1714 -663.0663 30317.0806 -751.1714 -663.0663
ENERGY: 300000 4.3717 12.3988 4.0224 0.0000 -10646.6164 1380.0878 0.0000 0.0000 1754.1050 -7491.6305 297.6082 -9245.7355 -7469.9429 299.1860 -762.7599 -735.1603 30663.9477 -97.5673 -45.4976
ENERGY: 600000 3.7881 11.4003 4.0777 0.0000 -10608.6889 1323.3735 0.0000 0.0000 1827.5684 -7438.4809 310.0722 -9266.0493 -7476.3660 301.9449 -1071.4879 -989.7920 30389.8620 -173.0924 -102.7660
ENERGY: 900000 4.9235 14.9741 5.0598 0.0000 -10667.0209 1432.3932 0.0000 0.0000 1769.6649 -7440.0055 300.2481 -9209.6704 -7461.5723 302.5270 -217.8176 -171.7244 30620.1051 -161.8779 -92.2939
ENERGY: 1200000 4.7954 8.8691 4.6450 0.0000 -10629.2801 1424.4698 0.0000 0.0000 1717.4249 -7469.0759 291.3849 -9186.5008 -7459.2374 302.1208 -8.4593 92.7451 30303.5221 -187.1054 -119.5400
ENERGY: 1500000 1.8628 13.7133 6.4531 0.0000 -10687.3931 1454.0569 0.0000 0.0000 1751.7253 -7459.5816 297.2044 -9211.3069 -7463.5261 301.6917 192.8102 317.1537 29946.7213 -151.1971 -83.3561
TCL: Running FEP window   6: Lambda1 0.25   Lambda2 0.3    [dLambda 0.04999999999999999]
TCL: Setting parameter firsttimestep to 0
TCL: Setting parameter alchLambda to 0.25
Info: NONBONDED TABLE R-SQUARED SPACING: 0.0625
Info: NONBONDED TABLE SIZE: 705 POINTS
TCL: Setting parameter alchLambda2 to 0.3
Info: NONBONDED TABLE R-SQUARED SPACING: 0.0625
Info: NONBONDED TABLE SIZE: 705 POINTS
TCL: Running for 1500000 steps
ETITLE: TS BOND ANGLE DIHED IMPRP ELECT VDW BOUNDARY MISC KINETIC TOTAL TEMP POTENTIAL TOTALAVG TEMPAVG PRESSURE GPRESSURE VOLUME PRESSAVG GPRESSAVG
ENERGY: 0 1.8628 13.7133 6.4531 0.0000 -10687.3932 1453.8731 0.0000 0.0000 1750.8444 -7460.6465 297.0550 -9211.4909 -7460.6465 297.0550 216.1381 318.1235 29946.7213 216.1381 318.1235
ENERGY: 300000 6.8566 6.8180 4.5589 0.0000 -10647.2810 1410.6678 0.0000 0.0000 1762.4038 -7455.9759 299.0162 -9218.3796 -7467.0644 296.5376 -191.4615 -135.8934 30198.2376 79.8326 156.9667
ENERGY: 600000 2.2431 9.6020 4.2509 0.0000 -10596.4150 1423.4663 0.0000 0.0000 1803.1521 -7353.7007 305.9297 -9156.8527 -7448.2676 298.6802 93.4111 195.6037 30341.1766 46.7822 135.5295
ENERGY: 900000 2.1307 9.2669 7.6150 0.0000 -10682.6050 1429.4336 0.0000 0.0000 1727.9100 -7506.2489 293.1638 -9234.1588 -7453.6530 298.9091 -93.7834 8.4977 30121.2255 -6.0595 80.0095
ENERGY: 1200000 5.4048 9.3184 4.2563 0.0000 -10737.1099 1472.7891 0.0000 0.0000 1730.3024 -7515.0389 293.5697 -9245.3413 -7466.0008 297.4990 156.0874 181.2303 30184.7628 -44.3380 38.5435
ENERGY: 1500000 3.9548 9.2416 5.1560 0.0000 -10786.6279 1458.3201 0.0000 0.0000 1752.1023 -7557.8533 297.2684 -9309.9555 -7468.9050 297.4450 -255.1349 -196.1224 30271.8538 -67.9533 8.0382
TCL: Running FEP window   7: Lambda1 0.3    Lambda2 0.35   [dLambda 0.04999999999999999]
TCL: Setting parameter firsttimestep to 0
TCL: Setting parameter alchLambda to 0.3
Info: NONBONDED TABLE R-SQUARED SPACING: 0.0625
Info: NONBONDED TABLE SIZE: 705 POINTS
TCL: Setting parameter alchLambda2 to 0.35
Info: NONBONDED TABLE R-SQUARED SPACING: 0.0625
Info: NONBONDED TABLE SIZE: 705 POINTS
TCL: Running for 1500000 steps
ETITLE: TS BOND ANGLE DIHED IMPRP ELECT VDW BOUNDARY MISC KINETIC TOTAL TEMP POTENTIAL TOTALAVG TEMPAVG PRESSURE GPRESSURE VOLUME PRESSAVG GPRESSAVG
ENERGY: 0 3.9548 9.2416 5.1560 0.0000 -10786.6283 1458.0681 0.0000 0.0000 1751.1946 -7559.0133 297.1144 -9310.2079 -7559.0133 297.1144 -263.9346 -190.6323 30271.8538 -263.9346 -190.6323
ENERGY: 300000 5.1723 9.0110 4.6976 0.0000 -10726.8714 1414.9500 0.0000 0.0000 1760.0986 -7532.9420 298.6251 -9293.0406 -7477.3926 299.4364 -685.5562 -585.2039 30411.5963 -444.6270 -353.5551
ENERGY: 600000 3.3069 11.6911 4.2219 0.0000 -10776.7430 1428.0274 0.0000 0.0000 1780.5712 -7548.9246 302.0985 -9329.4957 -7485.8595 301.5482 -280.2915 -222.7966 30140.0962 -386.8267 -303.9410
ENERGY: 900000 3.5755 9.1639 5.4884 0.0000 -10593.1845 1377.1772 0.0000 0.0000 1778.3784 -7419.4011 301.7265 -9197.7794 -7478.6832 301.6164 -557.6754 -465.5173 30527.5861 -362.5065 -284.6350
ENERGY: 1200000 2.3940 13.5611 4.7440 0.0000 -10749.0721 1491.1664 0.0000 0.0000 1754.9472 -7482.2595 297.7510 -9237.2066 -7483.6954 301.2385 476.9201 466.6843 30205.8163 -273.5805 -200.1360
ENERGY: 1500000 2.8403 9.5257 5.5910 0.0000 -10687.2529 1430.6815 0.0000 0.0000 1755.0414 -7483.5730 297.7670 -9238.6144 -7482.2088 300.5881 -144.0076 -61.6253 30362.8166 -243.3439 -170.1105
TCL: Running FEP window   8: Lambda1 0.35   Lambda2 0.39999999999999997 [dLambda 0.04999999999999999]
TCL: Setting parameter firsttimestep to 0
TCL: Setting parameter alchLambda to 0.35
Info: NONBONDED TABLE R-SQUARED SPACING: 0.0625
Info: NONBONDED TABLE SIZE: 705 POINTS
TCL: Setting parameter alchLambda2 to 0.39999999999999997
Info: NONBONDED TABLE R-SQUARED SPACING: 0.0625
Info: NONBONDED TABLE SIZE: 705 POINTS
TCL: Running for 1500000 steps
ETITLE: TS BOND ANGLE DIHED IMPRP ELECT VDW BOUNDARY MISC KINETIC TOTAL TEMP POTENTIAL TOTALAVG TEMPAVG PRESSURE GPRESSURE VOLUME PRESSAVG GPRESSAVG
ENERGY: 0 2.8403 9.5257 5.5910 0.0000 -10687.2513 1431.1936 0.0000 0.0000 1754.1880 -7483.9127 297.6222 -9238.1006 -7483.9127 297.6222 -140.2034 -51.8564 30362.8166 -140.2034 -51.8564
ENERGY: 300000 2.0743 11.3644 5.0495 0.0000 -10802.5880 1514.8287 0.0000 0.0000 1776.9081 -7492.3631 301.4770 -9269.2712 -7497.3490 301.1635 695.3496 758.2222 30025.8222 115.8088 200.9281
ENERGY: 600000 5.2613 9.9432 6.0544 0.0000 -10663.3945 1489.0972 0.0000 0.0000 1764.3921 -7388.6463 299.3535 -9153.0384 -7460.9571 301.0462 877.2584 939.0926 30228.2506 160.0181 237.6329
ENERGY: 900000 2.5621 14.9940 5.2855 0.0000 -10672.8492 1430.0099 0.0000 0.0000 1775.8896 -7444.1080 301.3042 -9219.9976 -7457.2333 300.6398 -314.5713 -161.9951 30758.1963 43.6499 120.3889
ENERGY: 1200000 3.7505 20.0811 5.6724 0.0000 -10690.0455 1438.3159 0.0000 0.0000 1748.2098 -7474.0158 296.6080 -9222.2256 -7467.9570 299.8676 -88.0619 -46.0951 30496.3936 46.6217 124.8927
ENERGY: 1500000 6.8234 10.6100 4.7149 0.0000 -10602.2432 1405.1837 0.0000 0.0000 1817.0940 -7357.8173 308.2951 -9174.9114 -7456.0831 301.3754 -238.5823 -212.3376 30566.0011 4.9830 73.3967
TCL: Running FEP window   9: Lambda1 0.39999999999999997 Lambda2 0.44999999999999996 [dLambda 0.04999999999999999]
TCL: Setting parameter firsttimestep to 0
TCL: Setting parameter alchLambda to 0.39999999999999997
Info: NONBONDED TABLE R-SQUARED SPACING: 0.0625
Info: NONBONDED TABLE SIZE: 705 POINTS
TCL: Setting parameter alchLambda2 to 0.44999999999999996
Info: NONBONDED TABLE R-SQUARED SPACING: 0.0625
Info: NONBONDED TABLE SIZE: 705 POINTS
TCL: Running for 1500000 steps
ETITLE: TS BOND ANGLE DIHED IMPRP ELECT VDW BOUNDARY MISC KINETIC TOTAL TEMP POTENTIAL TOTALAVG TEMPAVG PRESSURE GPRESSURE VOLUME PRESSAVG GPRESSAVG
ENERGY: 0 6.8234 10.6100 4.7149 0.0000 -10602.2417 1405.1786 0.0000 0.0000 1816.1835 -7358.7313 308.1406 -9174.9149 -7358.7313 308.1406 -291.3268 -205.1772 30566.0011 -291.3268 -205.1772
ENERGY: 300000 2.5238 6.7567 4.5159 0.0000 -10626.8345 1441.1549 0.0000 0.0000 1711.6403 -7460.2430 290.4034 -9171.8832 -7443.7272 298.0308 -88.3162 -18.8072 31064.6338 -175.7986 -117.3277
ENERGY: 600000 1.6022 14.2547 4.7304 0.0000 -10678.4849 1385.6568 0.0000 0.0000 1799.8083 -7472.4326 305.3624 -9272.2409 -7471.2239 297.7201 -373.0374 -296.1336 30064.4326 -153.9404 -86.2463
ENERGY: 900000 2.7385 11.8219 4.7268 0.0000 -10758.8871 1504.6807 0.0000 0.0000 1833.6022 -7401.3169 311.0960 -9234.9192 -7461.9049 299.8119 656.5520 671.5702 29933.4545 -149.7594 -100.2568
ENERGY: 1200000 5.1475 12.2455 4.1997 0.0000 -10564.8657 1337.2595 0.0000 0.0000 1765.6557 -7440.3577 299.5679 -9206.0134 -7464.4663 299.3851 -1088.0192 -1026.9679 31133.8322 -177.8265 -125.9734
ENERGY: 1500000 2.0188 7.7095 6.7665 0.0000 -10568.0902 1353.2477 0.0000 0.0000 1736.8502 -7461.4976 294.6806 -9198.3478 -7470.0388 299.4951 -721.9047 -647.6870 30563.2531 -232.2279 -174.1377
TCL: Running FEP window  10: Lambda1 0.44999999999999996 Lambda2 0.49999999999999994 [dLambda 0.04999999999999999]
TCL: Setting parameter firsttimestep to 0
TCL: Setting parameter alchLambda to 0.44999999999999996
Info: NONBONDED TABLE R-SQUARED SPACING: 0.0625
Info: NONBONDED TABLE SIZE: 705 POINTS
TCL: Setting parameter alchLambda2 to 0.49999999999999994
Info: NONBONDED TABLE R-SQUARED SPACING: 0.0625
Info: NONBONDED TABLE SIZE: 705 POINTS
TCL: Running for 1500000 steps
ETITLE: TS BOND ANGLE DIHED IMPRP ELECT VDW BOUNDARY MISC KINETIC TOTAL TEMP POTENTIAL TOTALAVG TEMPAVG PRESSURE GPRESSURE VOLUME PRESSAVG GPRESSAVG
ENERGY: 0 2.0188 7.7095 6.7665 0.0000 -10568.0903 1353.9175 0.0000 0.0000 1735.9411 -7461.7369 294.5264 -9197.6780 -7461.7369 294.5264 -711.6576 -632.5090 30563.2531 -711.6576 -632.5090
ENERGY: 300000 1.5028 9.4161 3.6685 0.0000 -10709.0343 1411.6217 0.0000 0.0000 1789.1131 -7493.7122 303.5478 -9282.8253 -7468.1088 301.3339 -494.9622 -432.2768 30512.7191 -233.5069 -186.9514
ENERGY: 600000 1.3651 13.5750 4.5777 0.0000 -10738.5333 1468.9751 0.0000 0.0000 1820.1588 -7429.8818 308.8151 -9250.0405 -7461.1482 302.3582 519.6585 563.7507 29832.8735 -30.1290 18.2826
ENERGY: 900000 2.0936 12.3459 4.0169 0.0000 -10817.3815 1492.4259 0.0000 0.0000 1784.9607 -7521.5385 302.8433 -9306.4992 -7471.0873 301.8687 162.3177 242.3916 30157.3523 -22.0277 35.0539
ENERGY: 1200000 2.1027 15.3710 4.5908 0.0000 -10702.5176 1437.5432 0.0000 0.0000 1737.0715 -7505.8383 294.7182 -9242.9098 -7467.4630 300.9823 -368.9531 -301.8668 31015.3152 -129.4796 -66.5710
ENERGY: 1500000 4.5311 10.5195 4.0757 0.0000 -10593.2560 1349.2623 0.0000 0.0000 1729.3206 -7495.5468 293.4031 -9224.8675 -7466.8964 300.5650 -978.7683 -911.6033 30750.7264 -179.5761 -116.1931
TCL: Running FEP window  11: Lambda1 0.49999999999999994 Lambda2 0.5499999999999999 [dLambda 0.04999999999999999]
TCL: Setting parameter firsttimestep to 0
TCL: Setting parameter alchLambda to 0.49999999999999994
Info: NONBONDED TABLE R-SQUARED SPACING: 0.0625
Info: NONBONDED TABLE SIZE: 705 POINTS
TCL: Setting parameter alchLambda2 to 0.5499999999999999
Info: NONBONDED TABLE R-SQUARED SPACING: 0.0625
Info: NONBONDED TABLE SIZE: 705 POINTS
TCL: Running for 1500000 steps
ETITLE: TS BOND ANGLE DIHED IMPRP ELECT VDW BOUNDARY MISC KINETIC TOTAL TEMP POTENTIAL TOTALAVG TEMPAVG PRESSURE GPRESSURE VOLUME PRESSAVG GPRESSAVG
ENERGY: 0 4.5311 10.5195 4.0757 0.0000 -10593.2563 1348.7987 0.0000 0.0000 1728.4676 -7496.8637 293.2584 -9225.3313 -7496.8637 293.2584 -985.2355 -904.7931 30750.7264 -985.2355 -904.7931
ENERGY: 300000 5.0622 18.3174 5.2417 0.0000 -10641.3747 1377.0694 0.0000 0.0000 1750.9101 -7484.7738 297.0661 -9235.6839 -7479.1878 296.0979 -667.5627 -644.7045 30690.7021 -601.9932 -529.9625
ENERGY: 600000 4.1122 10.4426 3.5992 0.0000 -10619.3855 1371.5191 0.0000 0.0000 1707.2888 -7522.4237 289.6651 -9229.7124 -7480.2683 295.4487 -832.4186 -744.3004 30874.2662 -546.5736 -469.4298
ENERGY: 900000 1.4676 15.0053 6.1923 0.0000 -10627.7607 1386.8386 0.0000 0.0000 1719.7071 -7498.5498 291.7721 -9218.2569 -7480.4054 295.5877 -347.0908 -307.6676 30333.1331 -447.5875 -381.5980
ENERGY: 1200000 4.9058 15.1753 4.8013 0.0000 -10694.4041 1427.2460 0.0000 0.0000 1791.6192 -7450.6565 303.9730 -9242.2757 -7477.8205 297.4529 -157.7359 -112.0870 30325.1171 -328.7842 -256.6318
ENERGY: 1500000 4.7906 8.8639 4.4675 0.0000 -10676.6629 1405.9792 0.0000 0.0000 1768.1200 -7484.4417 299.9860 -9252.5617 -7479.4360 298.3005 -574.3946 -460.4164 30542.9962 -300.2110 -230.6754
TCL: Running FEP window  12: Lambda1 0.5499999999999999 Lambda2 0.6    [dLambda 0.050000000000000044]
TCL: Setting parameter firsttimestep to 0
TCL: Setting parameter alchLambda to 0.5499999999999999
Info: NONBONDED TABLE R-SQUARED SPACING: 0.0625
Info: NONBONDED TABLE SIZE: 705 POINTS
TCL: Setting parameter alchLambda2 to 0.6
Info: NONBONDED TABLE R-SQUARED SPACING: 0.0625
Info: NONBONDED TABLE SIZE: 705 POINTS
TCL: Running for 1500000 steps
ETITLE: TS BOND ANGLE DIHED IMPRP ELECT VDW BOUNDARY MISC KINETIC TOTAL TEMP POTENTIAL TOTALAVG TEMPAVG PRESSURE GPRESSURE VOLUME PRESSAVG GPRESSAVG
ENERGY: 0 4.7906 8.8639 4.4675 0.0000 -10676.2956 1405.5581 0.0000 0.0000 1767.2113 -7485.4042 299.8318 -9252.6155 -7485.4042 299.8318 -536.6661 -452.8316 30542.9962 -536.6661 -452.8316
ENERGY: 300000 3.3915 11.1368 5.1736 0.0000 -10497.6331 1321.9738 0.0000 0.0000 1822.1545 -7333.8028 309.1537 -9155.9574 -7446.8194 302.6845 -840.3221 -765.3007 30695.9035 -229.9156 -160.1550
ENERGY: 600000 3.5264 11.5735 4.6966 0.0000 -10748.6882 1467.1421 0.0000 0.0000 1811.1360 -7450.6136 307.2842 -9261.7496 -7464.0425 302.7591 387.8290 412.0097 30096.5557 19.6172 68.9831
ENERGY: 900000 3.0061 9.7348 4.4169 0.0000 -10624.6072 1354.7578 0.0000 0.0000 1760.7618 -7491.9298 298.7376 -9252.6916 -7469.9694 302.4686 -728.2256 -705.4474 30765.5171 -57.0509 -9.7848
ENERGY: 1200000 6.2376 10.6908 4.5683 0.0000 -10789.6264 1526.2698 0.0000 0.0000 1781.6158 -7460.2442 302.2757 -9241.8600 -7466.4797 301.4499 701.0588 790.4642 30123.0598 -74.9708 -21.2777
ENERGY: 1500000 2.8324 8.6561 4.5628 0.0000 -10755.7807 1499.7772 0.0000 0.0000 1844.2017 -7395.7506 312.8943 -9239.9523 -7464.0391 301.8411 435.2725 547.0370 30310.7548 -5.4814 45.5531
TCL: Running FEP window  13: Lambda1 0.6    Lambda2 0.65   [dLambda 0.050000000000000044]
TCL: Setting parameter firsttimestep to 0
TCL: Setting parameter alchLambda to 0.6
Info: NONBONDED TABLE R-SQUARED SPACING: 0.0625
Info: NONBONDED TABLE SIZE: 705 POINTS
TCL: Setting parameter alchLambda2 to 0.65
Info: NONBONDED TABLE R-SQUARED SPACING: 0.0625
Info: NONBONDED TABLE SIZE: 705 POINTS
TCL: Running for 1500000 steps
ETITLE: TS BOND ANGLE DIHED IMPRP ELECT VDW BOUNDARY MISC KINETIC TOTAL TEMP POTENTIAL TOTALAVG TEMPAVG PRESSURE GPRESSURE VOLUME PRESSAVG GPRESSAVG
ENERGY: 0 2.8324 8.6561 4.5628 0.0000 -10755.7560 1499.2075 0.0000 0.0000 1843.3261 -7397.1712 312.7458 -9240.4974 -7397.1712 312.7458 484.7450 553.1323 30310.7548 484.7450 553.1323
ENERGY: 300000 2.3071 8.6526 4.2070 0.0000 -10720.2199 1465.8277 0.0000 0.0000 1793.9562 -7445.2692 304.3695 -9239.2254 -7420.5200 305.7209 279.5616 253.2561 30428.2362 236.2848 265.0366
ENERGY: 600000 2.1434 11.7683 4.5225 0.0000 -10585.3513 1361.5653 0.0000 0.0000 1801.4403 -7403.9115 305.6392 -9205.3518 -7425.4471 305.3779 -856.3858 -842.1181 30947.8609 41.9613 71.7953
ENERGY: 900000 1.4893 11.4905 4.6197 0.0000 -10724.7685 1472.9778 0.0000 0.0000 1745.9052 -7488.2859 296.2170 -9234.1911 -7447.9929 302.5266 155.1613 259.9061 30455.2355 -35.2514 6.8370
ENERGY: 1200000 5.3480 10.1769 5.6973 0.0000 -10670.2103 1389.9423 0.0000 0.0000 1803.9122 -7455.1336 306.0586 -9259.0458 -7453.0327 301.6005 -395.7758 -289.6785 30394.2342 -137.1460 -91.7216
ENERGY: 1500000 3.5575 10.9778 4.5875 0.0000 -10877.8808 1570.0374 0.0000 0.0000 1788.2029 -7500.5178 303.3933 -9288.7206 -7453.8051 301.5430 902.7419 904.8341 30428.9520 -114.2259 -74.9033
TCL: Running FEP window  14: Lambda1 0.65   Lambda2 0.7000000000000001 [dLambda 0.050000000000000044]
TCL: Setting parameter firsttimestep to 0
TCL: Setting parameter alchLambda to 0.65
Info: NONBONDED TABLE R-SQUARED SPACING: 0.0625
Info: NONBONDED TABLE SIZE: 705 POINTS
TCL: Setting parameter alchLambda2 to 0.7000000000000001
Info: NONBONDED TABLE R-SQUARED SPACING: 0.0625
Info: NONBONDED TABLE SIZE: 705 POINTS
TCL: Running for 1500000 steps
ETITLE: TS BOND ANGLE DIHED IMPRP ELECT VDW BOUNDARY MISC KINETIC TOTAL TEMP POTENTIAL TOTALAVG TEMPAVG PRESSURE GPRESSURE VOLUME PRESSAVG GPRESSAVG
ENERGY: 0 3.5575 10.9778 4.5875 0.0000 -10878.1895 1570.3574 0.0000 0.0000 1787.3297 -7501.3796 303.2452 -9288.7093 -7501.3796 303.2452 834.5628 914.9562 30428.9520 834.5628 914.9562
ENERGY: 300000 5.4980 10.9787 5.8061 0.0000 -10734.6422 1467.7997 0.0000 0.0000 1764.4916 -7480.0681 299.3704 -9244.5597 -7482.1910 300.7378 27.1017 79.5432 30608.7814 357.7950 409.0382
ENERGY: 600000 1.2087 15.1125 7.2218 0.0000 -10671.3043 1405.5305 0.0000 0.0000 1780.5503 -7461.6804 302.0950 -9242.2308 -7475.8845 301.3106 -221.5996 -104.2514 30220.4185 22.1301 87.0745
ENERGY: 900000 2.0654 15.8964 3.5705 0.0000 -10839.9594 1520.5875 0.0000 0.0000 1713.6335 -7584.2060 290.7416 -9297.8395 -7475.6659 300.4839 421.5609 445.0290 30440.0580 -38.5642 18.4869
ENERGY: 1200000 3.4317 18.6208 5.0689 0.0000 -10720.9230 1527.1732 0.0000 0.0000 1817.7776 -7348.8509 308.4111 -9166.6285 -7462.9990 301.4050 936.3250 935.1641 30522.7564 -13.3093 39.4167
ENERGY: 1500000 5.4490 10.7637 4.3462 0.0000 -10580.8948 1367.0617 0.0000 0.0000 1785.9673 -7407.3069 303.0140 -9193.2742 -7450.7004 301.7011 -702.6350 -645.1181 31009.7985 -83.3400 -33.5665
TCL: Running FEP window  15: Lambda1 0.7000000000000001 Lambda2 0.7500000000000001 [dLambda 0.050000000000000044]
TCL: Setting parameter firsttimestep to 0
TCL: Setting parameter alchLambda to 0.7000000000000001
Info: NONBONDED TABLE R-SQUARED SPACING: 0.0625
Info: NONBONDED TABLE SIZE: 705 POINTS
TCL: Setting parameter alchLambda2 to 0.7500000000000001
Info: NONBONDED TABLE R-SQUARED SPACING: 0.0625
Info: NONBONDED TABLE SIZE: 705 POINTS
TCL: Running for 1500000 steps
ETITLE: TS BOND ANGLE DIHED IMPRP ELECT VDW BOUNDARY MISC KINETIC TOTAL TEMP POTENTIAL TOTALAVG TEMPAVG PRESSURE GPRESSURE VOLUME PRESSAVG GPRESSAVG
ENERGY: 0 5.4490 10.7637 4.3462 0.0000 -10581.6798 1368.1172 0.0000 0.0000 1785.0741 -7407.9297 302.8625 -9193.0038 -7407.9297 302.8625 -703.0600 -624.7565 31009.7985 -703.0600 -624.7565
ENERGY: 300000 2.5073 10.3367 5.6195 0.0000 -10667.9197 1420.1482 0.0000 0.0000 1835.2947 -7394.0134 311.3831 -9229.3080 -7434.7407 301.9310 129.4812 241.9181 30052.6493 -138.8499 -24.3952
ENERGY: 600000 3.5009 12.5851 5.0961 0.0000 -10762.4065 1465.6228 0.0000 0.0000 1754.5814 -7521.0203 297.6890 -9275.6016 -7465.5274 300.2857 26.4531 77.7120 30308.7921 133.2803 202.1555
ENERGY: 900000 5.5713 9.7159 4.2575 0.0000 -10841.2547 1521.0692 0.0000 0.0000 1783.6322 -7517.0086 302.6179 -9300.6409 -7449.3633 299.9001 537.2869 569.6763 30364.3465 45.7494 108.5970
ENERGY: 1200000 6.0807 13.6554 6.4053 0.0000 -10562.9416 1362.2591 0.0000 0.0000 1814.8872 -7359.6539 307.9207 -9174.5411 -7449.5478 300.0254 -270.5778 -190.2697 30479.6987 71.1399 131.8136
ENERGY: 1500000 3.9458 8.1766 4.7888 0.0000 -10720.7184 1441.7105 0.0000 0.0000 1801.9124 -7460.1842 305.7193 -9262.0966 -7456.7509 301.0100 264.4855 395.6822 30104.5790 169.9766 234.8448
TCL: Running FEP window  16: Lambda1 0.7500000000000001 Lambda2 0.8000000000000002 [dLambda 0.050000000000000044]
TCL: Setting parameter firsttimestep to 0
TCL: Setting parameter alchLambda to 0.7500000000000001
Info: NONBONDED TABLE R-SQUARED SPACING: 0.0625
Info: NONBONDED TABLE SIZE: 705 POINTS
TCL: Setting parameter alchLambda2 to 0.8000000000000002
Info: NONBONDED TABLE R-SQUARED SPACING: 0.0625
Info: NONBONDED TABLE SIZE: 705 POINTS
TCL: Running for 1500000 steps
ETITLE: TS BOND ANGLE DIHED IMPRP ELECT VDW BOUNDARY MISC KINETIC TOTAL TEMP POTENTIAL TOTALAVG TEMPAVG PRESSURE GPRESSURE VOLUME PRESSAVG GPRESSAVG
ENERGY: 0 3.9458 8.1766 4.7888 0.0000 -10721.0296 1441.3651 0.0000 0.0000 1801.0851 -7461.6682 305.5790 -9262.7532 -7461.6682 305.5790 320.4890 404.7370 30104.5790 320.4890 404.7370
ENERGY: 300000 3.1733 9.5763 4.7641 0.0000 -10599.9257 1395.0064 0.0000 0.0000 1749.1116 -7438.2940 296.7610 -9187.4055 -7459.2457 299.9450 -352.2562 -268.8275 30680.8498 -124.4828 -56.7070
ENERGY: 600000 1.0930 15.4543 4.0571 0.0000 -10725.5851 1442.1050 0.0000 0.0000 1688.5191 -7574.3568 286.4806 -9262.8758 -7478.7698 299.0483 7.9363 69.0418 30301.3821 -52.8647 -2.3772
ENERGY: 900000 2.5243 8.3208 4.5557 0.0000 -10594.4800 1420.8220 0.0000 0.0000 1777.0431 -7381.2143 301.4999 -9158.2574 -7470.3602 299.5541 -207.0871 -112.5906 31011.4702 -97.7587 -44.2408
ENERGY: 1200000 1.6746 8.7395 4.3606 0.0000 -10840.2060 1475.4982 0.0000 0.0000 1807.2367 -7542.6964 306.6227 -9349.9331 -7468.7849 300.6797 200.9140 256.1887 30184.9862 -21.6328 28.6332
ENERGY: 1500000 2.6854 12.9574 4.8897 0.0000 -10711.6367 1426.6289 0.0000 0.0000 1728.0259 -7536.4495 293.1835 -9264.4754 -7464.5340 300.5648 -38.9449 -21.0714 30301.7264 -98.7615 -40.2941
TCL: Running FEP window  17: Lambda1 0.8000000000000002 Lambda2 0.8500000000000002 [dLambda 0.050000000000000044]
TCL: Setting parameter firsttimestep to 0
TCL: Setting parameter alchLambda to 0.8000000000000002
Info: NONBONDED TABLE R-SQUARED SPACING: 0.0625
Info: NONBONDED TABLE SIZE: 705 POINTS
TCL: Setting parameter alchLambda2 to 0.8500000000000002
Info: NONBONDED TABLE R-SQUARED SPACING: 0.0625
Info: NONBONDED TABLE SIZE: 705 POINTS
TCL: Running for 1500000 steps
ETITLE: TS BOND ANGLE DIHED IMPRP ELECT VDW BOUNDARY MISC KINETIC TOTAL TEMP POTENTIAL TOTALAVG TEMPAVG PRESSURE GPRESSURE VOLUME PRESSAVG GPRESSAVG
ENERGY: 0 2.6854 12.9574 4.8897 0.0000 -10712.7825 1427.2996 0.0000 0.0000 1727.1438 -7537.8066 293.0338 -9264.9504 -7537.8066 293.0338 -90.1522 -2.3862 30301.7264 -90.1522 -2.3862
ENERGY: 300000 2.0817 16.6448 5.3580 0.0000 -10618.4349 1364.3737 0.0000 0.0000 1764.0717 -7465.9050 299.2991 -9229.9767 -7483.3625 300.0603 -392.4438 -376.3847 30265.7068 -360.9446 -310.6289
ENERGY: 600000 4.5748 8.0820 3.7495 0.0000 -10618.8557 1385.3238 0.0000 0.0000 1812.5211 -7404.6045 307.5193 -9217.1256 -7479.7351 300.4957 -325.9365 -180.4667 30445.3086 -350.8890 -280.7878
ENERGY: 900000 5.8052 10.7335 4.2283 0.0000 -10906.6344 1551.7435 0.0000 0.0000 1796.4007 -7537.7233 304.7842 -9334.1240 -7491.7017 299.3898 790.7642 897.6610 29986.3075 -185.5330 -115.5731
ENERGY: 1200000 2.2772 11.8021 3.9919 0.0000 -10647.3982 1410.8061 0.0000 0.0000 1813.7296 -7404.7913 307.7243 -9218.5209 -7487.2906 300.1688 59.6372 140.3398 30261.6491 -176.3596 -98.6702
ENERGY: 1500000 4.0731 10.5024 5.4561 0.0000 -10737.8102 1434.9715 0.0000 0.0000 1762.0896 -7520.7176 298.9628 -9282.8072 -7484.2710 300.0306 -350.1885 -283.1734 30724.0309 -183.5740 -110.8601
TCL: Running FEP window  18: Lambda1 0.8500000000000002 Lambda2 0.9000000000000002 [dLambda 0.050000000000000044]
TCL: Setting parameter firsttimestep to 0
TCL: Setting parameter alchLambda to 0.8500000000000002
Info: NONBONDED TABLE R-SQUARED SPACING: 0.0625
Info: NONBONDED TABLE SIZE: 705 POINTS
TCL: Setting parameter alchLambda2 to 0.9000000000000002
Info: NONBONDED TABLE R-SQUARED SPACING: 0.0625
Info: NONBONDED TABLE SIZE: 705 POINTS
TCL: Running for 1500000 steps
ETITLE: TS BOND ANGLE DIHED IMPRP ELECT VDW BOUNDARY MISC KINETIC TOTAL TEMP POTENTIAL TOTALAVG TEMPAVG PRESSURE GPRESSURE VOLUME PRESSAVG GPRESSAVG
ENERGY: 0 4.0731 10.5024 5.4561 0.0000 -10738.9627 1434.8568 0.0000 0.0000 1761.2392 -7522.8352 298.8186 -9284.0744 -7522.8352 298.8186 -361.4884 -273.3319 30724.0309 -361.4884 -273.3319
ENERGY: 300000 5.7737 18.3243 5.4454 0.0000 -10732.6695 1404.2241 0.0000 0.0000 1788.7611 -7510.1408 303.4880 -9298.9020 -7503.2132 298.7980 -156.7403 -106.0157 30277.7589 -53.6265 -11.7216
ENERGY: 600000 1.9500 12.4843 4.3655 0.0000 -10683.9605 1407.0755 0.0000 0.0000 1762.6793 -7495.4059 299.0629 -9258.0852 -7504.0729 297.4500 -401.6039 -314.0386 30571.0897 -69.7844 -14.4732
ENERGY: 900000 4.3562 12.7977 4.5831 0.0000 -10538.8242 1366.1392 0.0000 0.0000 1766.1031 -7384.8449 299.6438 -9150.9480 -7486.8574 298.8671 -585.5280 -495.6855 31048.5931 -111.1120 -50.7758
ENERGY: 1200000 2.4743 13.6838 5.0469 0.0000 -10656.7378 1436.5210 0.0000 0.0000 1802.4727 -7396.5390 305.8144 -9199.0117 -7474.7488 299.3355 69.0023 130.8928 30606.8635 -98.5229 -37.2465
ENERGY: 1500000 1.4346 8.1197 3.6290 0.0000 -10783.7928 1468.8164 0.0000 0.0000 1793.7033 -7508.0896 304.3266 -9301.7929 -7475.7295 299.9593 308.1427 412.2334 29996.8496 -153.3466 -84.7104
TCL: Running FEP window  19: Lambda1 0.9000000000000002 Lambda2 0.9500000000000003 [dLambda 0.050000000000000044]
TCL: Setting parameter firsttimestep to 0
TCL: Setting parameter alchLambda to 0.9000000000000002
Info: NONBONDED TABLE R-SQUARED SPACING: 0.0625
Info: NONBONDED TABLE SIZE: 705 POINTS
TCL: Setting parameter alchLambda2 to 0.9500000000000003
Info: NONBONDED TABLE R-SQUARED SPACING: 0.0625
Info: NONBONDED TABLE SIZE: 705 POINTS
TCL: Running for 1500000 steps
ETITLE: TS BOND ANGLE DIHED IMPRP ELECT VDW BOUNDARY MISC KINETIC TOTAL TEMP POTENTIAL TOTALAVG TEMPAVG PRESSURE GPRESSURE VOLUME PRESSAVG GPRESSAVG
ENERGY: 0 1.4346 8.1197 3.6290 0.0000 -10785.0620 1470.0107 0.0000 0.0000 1792.8195 -7509.0484 304.1766 -9301.8679 -7509.0484 304.1766 345.7087 440.0184 29996.8496 345.7087 440.0184
ENERGY: 300000 4.1115 9.6910 5.3758 0.0000 -10802.6308 1479.3718 0.0000 0.0000 1823.1647 -7480.9161 309.3251 -9304.0808 -7454.5067 306.4748 372.0832 397.0824 30446.9273 169.0897 208.3393
ENERGY: 600000 5.2753 9.4581 4.9518 0.0000 -10776.9182 1409.1117 0.0000 0.0000 1759.9912 -7588.1300 298.6068 -9348.1212 -7460.6103 304.5509 -650.2392 -513.1446 30261.4226 -132.6010 -71.7030
ENERGY: 900000 2.0249 9.9443 4.7157 0.0000 -10670.2789 1457.6887 0.0000 0.0000 1755.9954 -7439.9099 297.9289 -9195.9052 -7459.6521 303.7948 212.7677 218.9867 30662.1156 -143.8097 -88.5421
ENERGY: 1200000 3.9237 13.4593 5.7349 0.0000 -10793.7701 1450.2643 0.0000 0.0000 1803.2698 -7517.1182 305.9496 -9320.3879 -7470.2232 302.3323 -142.2658 -136.6677 30381.2041 -147.7442 -101.3833
ENERGY: 1500000 5.2376 8.9051 4.8066 0.0000 -10719.9307 1483.1796 0.0000 0.0000 1766.5579 -7451.2439 299.7210 -9217.8018 -7469.8567 301.9482 586.8651 673.1122 30150.4041 -84.9755 -31.4572
TCL: Running FEP window  20: Lambda1 0.9500000000000003 Lambda2 1.0    [dLambda 0.04999999999999971]
TCL: Setting parameter firsttimestep to 0
TCL: Setting parameter alchLambda to 0.9500000000000003
Info: NONBONDED TABLE R-SQUARED SPACING: 0.0625
Info: NONBONDED TABLE SIZE: 705 POINTS
TCL: Setting parameter alchLambda2 to 1.0
Info: NONBONDED TABLE R-SQUARED SPACING: 0.0625
Info: NONBONDED TABLE SIZE: 705 POINTS
TCL: Running for 1500000 steps
ETITLE: TS BOND ANGLE DIHED IMPRP ELECT VDW BOUNDARY MISC KINETIC TOTAL TEMP POTENTIAL TOTALAVG TEMPAVG PRESSURE GPRESSURE VOLUME PRESSAVG GPRESSAVG
ENERGY: 0 5.2376 8.9051 4.8066 0.0000 -10720.8294 1483.8602 0.0000 0.0000 1765.6768 -7452.3431 299.5715 -9218.0199 -7452.3431 299.5715 628.2358 700.4588 30150.4041 628.2358 700.4588
ENERGY: 300000 1.6711 11.6476 4.8953 0.0000 -10759.9114 1435.4325 0.0000 0.0000 1754.8642 -7551.4007 297.7370 -9306.2649 -7493.4770 300.1155 -146.6142 -69.5536 30413.3400 114.5336 179.7580
ENERGY: 600000 6.5459 10.8178 7.5157 0.0000 -10794.0540 1445.3802 0.0000 0.0000 1807.8184 -7515.9759 306.7214 -9323.7944 -7498.1165 301.3793 -416.9628 -301.2249 30517.4538 -129.4974 -69.5975
ENERGY: 900000 4.6183 8.5321 3.6965 0.0000 -10788.1220 1510.3366 0.0000 0.0000 1835.1185 -7425.8200 311.3532 -9260.9385 -7488.5367 302.2689 672.3792 718.4161 30426.8340 -96.8577 -47.4912
ENERGY: 1200000 2.3075 16.8775 5.3975 0.0000 -10813.0705 1539.5939 0.0000 0.0000 1778.6781 -7470.2159 301.7773 -9248.8941 -7489.2550 302.5275 864.8696 928.2250 30418.4744 -59.9430 -6.9971
ENERGY: 1500000 3.9050 11.2659 4.9071 0.0000 -10660.7176 1461.8332 0.0000 0.0000 1731.7334 -7447.0730 293.8125 -9178.8064 -7482.0742 300.8656 365.6676 346.8836 30869.4074 -104.3166 -51.7981
TCL: Exiting due to exit command.
