Info: SIMULATION PARAMETERS:
Info: TIMESTEP               2
Info: NUMBER OF STEPS        0
Info: STEPS PER CYCLE        10
Info: PERIODIC CELL BASIS 1  32.3656 0 0
Info: PERIODIC CELL BASIS 2  0 30.6886 0
Info: PERIODIC CELL BASIS 3  0 0 30.9168
Info: PERIODIC CELL CENTER   0 0 0
Info: WRAPPING WATERS AROUND PERIODIC BOUNDARIES ON OUTPUT.
Info: WRAPPING ALL CLUSTERS AROUND PERIODIC BOUNDARIES ON OUTPUT.
Info: FIRST LDB TIMESTEP     50
Info: LAST LDB TIMESTEP     -1
Info: HOM BACKGROUND SCALING 1
Info: PME BACKGROUND SCALING 1
Info: MIN ATOMS PER PATCH    40
Info: EMPTY PATCH LOAD       40 ATOMS
Info: VELOCITY FILE          mobley_8311303_equil.vel
Info: CENTER OF MASS MOVING INITIALLY? NO
Info: DIELECTRIC             1
Info: EXCLUDE                SCALED ONE-FOUR
Info: 1-4 ELECTROSTATICS SCALED BY 0.833333
Info: MODIFIED 1-4 VDW PARAMETERS WILL BE USED
Info: DCD FILENAME           mobley_8311303_prod.dcd
Info: DCD FREQUENCY          100000
Info: DCD FIRST STEP         100000
Info: DCD FILE WILL CONTAIN UNIT CELL DATA
Info: XST FILENAME           mobley_8311303_prod.xst
Info: XST FREQUENCY          100000
Info: NO VELOCITY DCD OUTPUT
Info: NO FORCE DCD OUTPUT
Info: OUTPUT FILENAME        mobley_8311303_prod
Info: BINARY OUTPUT FILES WILL BE USED
Info: RESTART FILENAME       mobley_8311303_prod.restart
Info: RESTART FREQUENCY      100000
Info: BINARY RESTART FILES WILL BE USED
Info: CUTOFF                 9
Info: PAIRLIST DISTANCE      11
Info: PAIRLIST SHRINK RATE   0.01
Info: PAIRLIST GROW RATE     0.01
Info: PAIRLIST TRIGGER       0.3
Info: PAIRLISTS PER CYCLE    2
Info: PAIRLISTS ENABLED
Info: MARGIN                 2
Info: HYDROGEN GROUP CUTOFF  2.5
Info: PATCH DIMENSION        15.5
Info: ENERGY OUTPUT STEPS    100000
Info: ENERGY EVALUATION STEPS    100000
Info: OUTPUT ENERGY PRECISION 4
Info: CROSSTERM ENERGY INCLUDED IN DIHEDRAL
Info: TIMING OUTPUT STEPS    1000000
Info: PRESSURE OUTPUT STEPS  100000
Info: ALCHEMICAL FEP ON
Info: FEP CURRENT LAMBDA VALUE     1
Info: FEP COMPARISON LAMBDA VALUE  0.95
Info: FEP INTRA-ALCHEMICAL NON-BONDED INTERACTIONS WILL BE RETAINED
Info: FEP INTRA-ALCHEMICAL BONDED INTERACTIONS WILL BE RETAINED
Info: FEP VDW SHIFTING COEFFICIENT 5
Info: FEP ELEC. ACTIVE FOR ANNIHILATED PARTICLES BETWEEN LAMBDA = 0 AND LAMBDA = 0.5
Info: FEP ELEC. ACTIVE FOR EXNIHILATED PARTICLES BETWEEN LAMBDA = 0.5 AND LAMBDA = 1
Info: FEP VDW ACTIVE FOR ANNIHILATED PARTICLES BETWEEN LAMBDA = 0 AND LAMBDA = 1
Info: FEP VDW ACTIVE FOR EXNIHILATED PARTICLES BETWEEN LAMBDA = 0 AND LAMBDA = 1
Info: FEP BOND ACTIVE FOR ANNIHILATED PARTICLES BETWEEN LAMBDA = 1 AND LAMBDA = 1
Info: FEP BOND ACTIVE FOR EXNIHILATED PARTICLES BETWEEN LAMBDA = 0 AND LAMBDA = 0
Info: LANGEVIN DYNAMICS ACTIVE
Info: LANGEVIN TEMPERATURE   300
Info: LANGEVIN USING BBK INTEGRATOR
Info: LANGEVIN DAMPING COEFFICIENT IS 1 INVERSE PS
Info: LANGEVIN DYNAMICS APPLIED TO HYDROGENS
Info: LANGEVIN PISTON PRESSURE CONTROL ACTIVE
Info:        TARGET PRESSURE IS 1.01325 BAR
Info:     OSCILLATION PERIOD IS 50 FS
Info:             DECAY TIME IS 25 FS
Info:     PISTON TEMPERATURE IS 300 K
Info:       PRESSURE CONTROL IS GROUP-BASED
Info:    INITIAL STRAIN RATE IS 0.000244155 0.000244155 0.000244155
Info:       CELL FLUCTUATION IS ISOTROPIC
Info: PARTICLE MESH EWALD (PME) ACTIVE
Info: PME TOLERANCE               1e-06
Info: PME EWALD COEFFICIENT       0.348832
Info: PME INTERPOLATION ORDER     4
Info: PME GRID DIMENSIONS         36 32 32
Info: PME MAXIMUM GRID SPACING    1
Info: PME CALCULATION WILL BE PERFORMED ON GPU
Info: FULL ELECTROSTATIC EVALUATION FREQUENCY      2
Info: USING VERLET I (r-RESPA) MTS SCHEME.
Info: C1 SPLITTING OF LONG RANGE ELECTROSTATICS
Info: PLACING ATOMS IN PATCHES BY HYDROGEN GROUPS
Info: RIGID BONDS TO HYDROGEN : ALL
Info:         ERROR TOLERANCE : 1e-08
Info:          MAX ITERATIONS : 100
Info: RIGID WATER USING SETTLE ALGORITHM
Info: RANDOM NUMBER SEED     1743828435
Info: USE HYDROGEN BONDS?    NO
Info: Using AMBER format force field!
Info: AMBER PARM FILE        mobley_8311303.prmtop
Info: COORDINATE PDB         mobley_8311303.pdb
Info: Exclusions will be read from PARM file!
Info: SCNB (VDW SCALING)     2
Info: USING ARITHMETIC MEAN TO COMBINE L-J SIGMA PARAMETERS
Info: BINARY COORDINATES     mobley_8311303_equil.coor
Info: SUMMARY OF PARAMETERS:
Info: 7 BONDS
Info: 8 ANGLES
Info:   8 HARMONIC
Info:   0 COSINE-BASED
Info: 3 DIHEDRAL
Info: 0 IMPROPER
Info: 0 CROSSTERM
Info: 0 VDW
Info: 15 VDW_PAIRS
Info: 0 NBTHOLE_PAIRS
Info: To read alchdata from file: mobley_8311303.pdb
Info: To read alchflag data from column: 5
Info: STRUCTURE SUMMARY:
Info: 2938 ATOMS
Info: 2939 BONDS
Info: 36 ANGLES
Info: 64 DIHEDRALS
Info: 0 IMPROPERS
Info: 0 CROSSTERMS
Info: 3021 EXCLUSIONS
Info: 2920 RIGID BONDS
Info: ALCH: 0 ATOMS TO DISAPPEAR IN FINAL STATE
Info: ALCH: 22 ATOMS TO APPEAR IN FINAL STATE
Info: 5894 DEGREES OF FREEDOM
Info: 990 HYDROGEN GROUPS
Info: 3 ATOMS IN LARGEST HYDROGEN GROUP
Info: 990 MIGRATION GROUPS
Info: 3 ATOMS IN LARGEST MIGRATION GROUP
Info: TOTAL MASS = 17872.4 amu
Info: TOTAL CHARGE = 0.000100008 e
Info: MASS DENSITY = 0.96647 g/cm^3
Info: ATOM DENSITY = 0.0956749 atoms/A^3
Info: ADDED 0 IMPLICIT EXCLUSIONS
Info: NONBONDED TABLE R-SQUARED SPACING: 0.0625
Info: NONBONDED TABLE SIZE: 705 POINTS
Info: REMOVING COM VELOCITY -0.132765 0.0252332 -0.0523298
Info: Use 3D box decompostion in PME FFT.
Info: Updated CUDA force table with 4096 elements.
Info: Updated CUDA LJ table with 5 x 5 elements.
Info: Found 25 unique exclusion lists needing 76 bytes
TCL: Running for 1500000 steps
ETITLE: TS BOND ANGLE DIHED IMPRP ELECT VDW BOUNDARY MISC KINETIC TOTAL TEMP POTENTIAL TOTALAVG TEMPAVG PRESSURE GPRESSURE VOLUME PRESSAVG GPRESSAVG
ENERGY: 0 9.1646 6.7451 13.5840 0.0000 -10437.4632 1335.0806 0.0000 0.0000 1724.8218 -7348.0671 294.5266 -9072.8889 -7348.0671 294.5266 -729.2546 -637.3721 30708.1694 -729.2546 -637.3721
ENERGY: 300000 6.1014 2.2502 9.8062 0.0000 -10740.6780 1523.1109 0.0000 0.0000 1740.6358 -7458.7734 297.2269 -9199.4093 -7416.7784 295.8760 840.8803 812.1027 30098.3690 -106.3512 -66.2289
ENERGY: 600000 5.8837 5.5354 13.7273 0.0000 -10715.6197 1516.5126 0.0000 0.0000 1797.7894 -7376.1715 306.9864 -9173.9609 -7425.8780 296.6903 858.1917 896.2473 30687.0416 52.1070 103.5537
ENERGY: 900000 3.6890 4.8684 12.6530 0.0000 -10476.5755 1378.2915 0.0000 0.0000 1778.5987 -7298.4750 303.7094 -9077.0737 -7408.1764 297.2227 -213.4825 -106.0879 30473.4696 -74.3065 -22.4997
ENERGY: 1200000 7.4336 6.3522 13.4227 0.0000 -10570.3911 1359.1730 0.0000 0.0000 1740.5537 -7443.4559 297.2129 -9184.0096 -7412.8828 298.1971 -761.8775 -688.6722 31063.5794 -203.6851 -152.1780
ENERGY: 1500000 6.5721 5.5598 9.0098 0.0000 -10650.3747 1412.1537 0.0000 0.0000 1775.2024 -7441.8769 303.1294 -9217.0793 -7415.9371 299.0195 -201.4176 -170.2622 30389.6173 -221.3333 -175.9921
TCL: Running FEP window   2: Lambda1 0.95   Lambda2 0.8999999999999999 [dLambda -0.050000000000000044]
TCL: Setting parameter firsttimestep to 0
TCL: Setting parameter alchLambda to 0.95
Info: NONBONDED TABLE R-SQUARED SPACING: 0.0625
Info: NONBONDED TABLE SIZE: 705 POINTS
TCL: Setting parameter alchLambda2 to 0.8999999999999999
Info: NONBONDED TABLE R-SQUARED SPACING: 0.0625
Info: NONBONDED TABLE SIZE: 705 POINTS
TCL: Running for 1500000 steps
ETITLE: TS BOND ANGLE DIHED IMPRP ELECT VDW BOUNDARY MISC KINETIC TOTAL TEMP POTENTIAL TOTALAVG TEMPAVG PRESSURE GPRESSURE VOLUME PRESSAVG GPRESSAVG
ENERGY: 0 6.5721 5.5598 9.0098 0.0000 -10650.0004 1412.3744 0.0000 0.0000 1774.3303 -7442.1539 302.9805 -9216.4842 -7442.1539 302.9805 -270.8744 -187.0228 30389.6173 -270.8744 -187.0228
ENERGY: 300000 7.2266 6.0411 13.8222 0.0000 -10468.6492 1357.4622 0.0000 0.0000 1797.8611 -7286.2360 306.9986 -9084.0971 -7388.6609 302.4449 -508.3679 -468.7235 30802.9560 -55.4733 10.2136
ENERGY: 600000 4.9485 4.8468 12.1270 0.0000 -10555.7972 1360.6653 0.0000 0.0000 1730.5207 -7442.6888 295.4997 -9173.2095 -7413.7222 301.4491 -719.1827 -651.8785 30812.2021 -61.3366 8.7343
ENERGY: 900000 5.2010 7.7180 11.5377 0.0000 -10604.7016 1410.1312 0.0000 0.0000 1727.8792 -7442.2344 295.0486 -9170.1136 -7411.3324 299.4471 -335.0998 -267.8895 30640.7977 -0.8314 62.2551
ENERGY: 1200000 7.8851 7.4292 9.6081 0.0000 -10745.0885 1506.2875 0.0000 0.0000 1712.7737 -7501.1049 292.4693 -9213.8785 -7411.5119 299.1681 709.5567 725.6967 30103.7078 48.5674 108.3475
ENERGY: 1500000 4.8438 3.7887 12.9398 0.0000 -10567.8570 1422.1387 0.0000 0.0000 1727.2082 -7396.9377 294.9341 -9124.1460 -7413.1387 299.0817 254.9593 320.6981 30406.9574 21.9073 81.9080
TCL: Running FEP window   3: Lambda1 0.8999999999999999 Lambda2 0.8499999999999999 [dLambda -0.050000000000000044]
TCL: Setting parameter firsttimestep to 0
TCL: Setting parameter alchLambda to 0.8999999999999999
Info: NONBONDED TABLE R-SQUARED SPACING: 0.0625
Info: NONBONDED TABLE SIZE: 705 POINTS
TCL: Setting parameter alchLambda2 to 0.8499999999999999
Info: NONBONDED TABLE R-SQUARED SPACING: 0.0625
Info: NONBONDED TABLE SIZE: 705 POINTS
TCL: Running for 1500000 steps
ETITLE: TS BOND ANGLE DIHED IMPRP ELECT VDW BOUNDARY MISC KINETIC TOTAL TEMP POTENTIAL TOTALAVG TEMPAVG PRESSURE GPRESSURE VOLUME PRESSAVG GPRESSAVG
ENERGY: 0 4.8438 3.7887 12.9398 0.0000 -10567.4909 1423.1337 0.0000 0.0000 1726.3621 -7396.4228 294.7896 -9122.7849 -7396.4228 294.7896 229.5921 315.5843 30406.9574 229.5921 315.5843
ENERGY: 300000 7.6255 4.2114 11.0250 0.0000 -10573.6910 1344.5084 0.0000 0.0000 1767.5639 -7438.7567 301.8251 -9206.3206 -7431.2262 299.9504 -660.3847 -658.8912 30733.7677 -61.3400 -22.7835
ENERGY: 600000 4.5774 6.6178 14.5268 0.0000 -10671.0876 1471.9360 0.0000 0.0000 1737.0410 -7436.3886 296.6131 -9173.4296 -7416.6299 299.6467 292.3512 342.1977 30398.7422 -70.1141 -25.5973
ENERGY: 900000 7.8370 6.2920 14.8605 0.0000 -10599.4021 1463.3634 0.0000 0.0000 1791.7616 -7315.2876 305.9571 -9107.0491 -7396.8805 300.3799 451.5752 497.4778 30335.1684 9.2488 49.1631
ENERGY: 1200000 5.5101 5.4514 11.1677 0.0000 -10626.0883 1491.1210 0.0000 0.0000 1758.9641 -7353.8740 300.3566 -9112.8382 -7391.7145 300.1957 856.8708 896.2302 30333.3425 57.8796 98.3667
ENERGY: 1500000 8.7411 7.3020 11.5753 0.0000 -10602.1775 1427.2300 0.0000 0.0000 1755.5848 -7391.7444 299.7796 -9147.3292 -7393.7214 300.0642 159.3260 255.6645 30145.3598 49.1652 96.3903
TCL: Running FEP window   4: Lambda1 0.8499999999999999 Lambda2 0.7999999999999998 [dLambda -0.050000000000000044]
TCL: Setting parameter firsttimestep to 0
TCL: Setting parameter alchLambda to 0.8499999999999999
Info: NONBONDED TABLE R-SQUARED SPACING: 0.0625
Info: NONBONDED TABLE SIZE: 705 POINTS
TCL: Setting parameter alchLambda2 to 0.7999999999999998
Info: NONBONDED TABLE R-SQUARED SPACING: 0.0625
Info: NONBONDED TABLE SIZE: 705 POINTS
TCL: Running for 1500000 steps
ETITLE: TS BOND ANGLE DIHED IMPRP ELECT VDW BOUNDARY MISC KINETIC TOTAL TEMP POTENTIAL TOTALAVG TEMPAVG PRESSURE GPRESSURE VOLUME PRESSAVG GPRESSAVG
ENERGY: 0 8.7411 7.3020 11.5753 0.0000 -10602.1459 1428.1457 0.0000 0.0000 1754.6886 -7391.6932 299.6266 -9146.3818 -7391.6932 299.6266 167.7339 248.4275 30145.3598 167.7339 248.4275
ENERGY: 300000 5.2676 2.6120 11.0338 0.0000 -10555.9301 1430.0217 0.0000 0.0000 1754.4181 -7352.5768 299.5804 -9106.9949 -7379.1240 301.2047 475.5872 500.6253 30525.0822 13.9489 77.0758
ENERGY: 600000 4.6244 4.3877 14.4016 0.0000 -10695.9023 1496.1338 0.0000 0.0000 1768.8224 -7407.5325 302.0400 -9176.3548 -7382.7006 301.6046 707.4616 713.8419 30556.2663 152.0000 215.9010
ENERGY: 900000 7.7737 2.7145 9.8142 0.0000 -10604.4990 1433.6047 0.0000 0.0000 1769.0760 -7381.5160 302.0833 -9150.5920 -7387.1076 300.9108 49.2316 192.4933 30564.0131 19.9224 93.2667
ENERGY: 1200000 2.9223 3.5002 10.4095 0.0000 -10647.3695 1425.3821 0.0000 0.0000 1741.4109 -7463.7445 297.3593 -9205.1554 -7389.8891 301.0983 95.8168 154.2893 30082.4383 80.2478 145.8177
ENERGY: 1500000 11.2320 6.7460 9.4797 0.0000 -10541.5695 1336.3735 0.0000 0.0000 1785.0099 -7392.7284 304.8041 -9177.7383 -7396.1283 300.9679 -775.2511 -703.6733 30462.5342 6.8430 67.3443
TCL: Running FEP window   5: Lambda1 0.7999999999999998 Lambda2 0.7499999999999998 [dLambda -0.050000000000000044]
TCL: Setting parameter firsttimestep to 0
TCL: Setting parameter alchLambda to 0.7999999999999998
Info: NONBONDED TABLE R-SQUARED SPACING: 0.0625
Info: NONBONDED TABLE SIZE: 705 POINTS
TCL: Setting parameter alchLambda2 to 0.7499999999999998
Info: NONBONDED TABLE R-SQUARED SPACING: 0.0625
Info: NONBONDED TABLE SIZE: 705 POINTS
TCL: Running for 1500000 steps
ETITLE: TS BOND ANGLE DIHED IMPRP ELECT VDW BOUNDARY MISC KINETIC TOTAL TEMP POTENTIAL TOTALAVG TEMPAVG PRESSURE GPRESSURE VOLUME PRESSAVG GPRESSAVG
ENERGY: 0 11.2320 6.7460 9.4797 0.0000 -10540.7711 1337.4550 0.0000 0.0000 1784.1823 -7391.6761 304.6628 -9175.8584 -7391.6761 304.6628 -790.6693 -710.0648 30462.5342 -790.6693 -710.0648
ENERGY: 300000 4.1222 3.3593 13.6261 0.0000 -10626.4957 1442.7538 0.0000 0.0000 1733.1189 -7429.5154 295.9434 -9162.6343 -7385.7121 299.7181 69.6243 173.4626 31025.6293 -46.3509 12.1814
ENERGY: 600000 6.6193 5.6129 13.8767 0.0000 -10785.9628 1539.0148 0.0000 0.0000 1775.4932 -7445.3458 303.1791 -9220.8390 -7395.6426 299.2359 910.9824 914.7436 30243.0356 99.2580 149.8940
ENERGY: 900000 4.0667 6.1793 12.8696 0.0000 -10727.8564 1478.1808 0.0000 0.0000 1772.6400 -7453.9200 302.6919 -9226.5600 -7408.3372 299.9327 346.7547 406.2158 30236.7339 63.2989 125.0724
ENERGY: 1200000 7.0957 3.3705 13.0425 0.0000 -10576.5695 1456.4347 0.0000 0.0000 1753.4275 -7343.1986 299.4112 -9096.6261 -7414.3412 299.5769 723.2950 795.9452 30098.3760 78.2798 141.1146
ENERGY: 1500000 3.5326 5.4080 11.5352 0.0000 -10558.4800 1444.7981 0.0000 0.0000 1789.5326 -7303.6735 305.5764 -9093.2061 -7396.2339 300.2757 369.2428 423.3490 30484.3248 106.3355 166.5972
TCL: Running FEP window   6: Lambda1 0.7499999999999998 Lambda2 0.6999999999999997 [dLambda -0.050000000000000044]
TCL: Setting parameter firsttimestep to 0
TCL: Setting parameter alchLambda to 0.7499999999999998
Info: NONBONDED TABLE R-SQUARED SPACING: 0.0625
Info: NONBONDED TABLE SIZE: 705 POINTS
TCL: Setting parameter alchLambda2 to 0.6999999999999997
Info: NONBONDED TABLE R-SQUARED SPACING: 0.0625
Info: NONBONDED TABLE SIZE: 705 POINTS
TCL: Running for 1500000 steps
ETITLE: TS BOND ANGLE DIHED IMPRP ELECT VDW BOUNDARY MISC KINETIC TOTAL TEMP POTENTIAL TOTALAVG TEMPAVG PRESSURE GPRESSURE VOLUME PRESSAVG GPRESSAVG
ENERGY: 0 3.5326 5.4080 11.5352 0.0000 -10557.9250 1445.4316 0.0000 0.0000 1788.6782 -7303.3394 305.4305 -9092.0176 -7303.3394 305.4305 338.1586 413.1292 30484.3248 338.1586 413.1292
ENERGY: 300000 12.5785 5.2554 10.7094 0.0000 -10654.5094 1403.7392 0.0000 0.0000 1754.3107 -7467.9161 299.5620 -9222.2268 -7379.9720 302.1856 -298.5383 -278.2115 30304.7657 -249.7824 -201.6810
ENERGY: 600000 8.9314 9.4735 16.4921 0.0000 -10763.2548 1563.6867 0.0000 0.0000 1769.2213 -7395.4497 302.1081 -9164.6710 -7406.5613 300.5620 1110.2511 1109.8078 29905.5457 257.1918 298.2304
ENERGY: 900000 7.0091 3.9924 9.7468 0.0000 -10523.3266 1376.6554 0.0000 0.0000 1757.2001 -7368.7229 300.0554 -9125.9230 -7401.9652 301.2510 -195.7375 -78.7580 30226.8235 69.7700 118.6116
ENERGY: 1200000 3.2126 5.2395 16.1669 0.0000 -10775.1396 1576.5055 0.0000 0.0000 1729.6503 -7444.3649 295.3511 -9174.0151 -7406.8755 300.6026 1194.7379 1195.8050 30206.4405 199.7397 249.5550
ENERGY: 1500000 8.8574 6.9422 14.2838 0.0000 -10528.9417 1341.7088 0.0000 0.0000 1772.7665 -7384.3830 302.7135 -9157.1495 -7396.7705 300.9654 -995.2074 -896.6476 30457.1707 66.8349 118.1877
TCL: Running FEP window   7: Lambda1 0.6999999999999997 Lambda2 0.6499999999999997 [dLambda -0.050000000000000044]
TCL: Setting parameter firsttimestep to 0
TCL: Setting parameter alchLambda to 0.6999999999999997
Info: NONBONDED TABLE R-SQUARED SPACING: 0.0625
Info: NONBONDED TABLE SIZE: 705 POINTS
TCL: Setting parameter alchLambda2 to 0.6499999999999997
Info: NONBONDED TABLE R-SQUARED SPACING: 0.0625
Info: NONBONDED TABLE SIZE: 705 POINTS
TCL: Running for 1500000 steps
ETITLE: TS BOND ANGLE DIHED IMPRP ELECT VDW BOUNDARY MISC KINETIC TOTAL TEMP POTENTIAL TOTALAVG TEMPAVG PRESSURE GPRESSURE VOLUME PRESSAVG GPRESSAVG
ENERGY: 0 8.8574 6.9422 14.2838 0.0000 -10528.5651 1342.3199 0.0000 0.0000 1771.8927 -7384.2691 302.5643 -9156.1618 -7384.2691 302.5643 -991.8796 -907.5784 30457.1707 -991.8796 -907.5784
ENERGY: 300000 5.0450 7.3129 12.2700 0.0000 -10523.6965 1425.7240 0.0000 0.0000 1800.6578 -7272.6868 307.4762 -9073.3446 -7380.5918 301.0762 191.3148 266.4233 30696.2136 -412.0004 -349.0016
ENERGY: 600000 6.4145 4.4743 11.1178 0.0000 -10642.6556 1429.1057 0.0000 0.0000 1738.1417 -7453.4016 296.8010 -9191.5433 -7374.1752 302.0651 70.9106 168.0916 29864.6236 -155.1740 -84.2689
ENERGY: 900000 4.7910 7.4166 10.7584 0.0000 -10569.0964 1391.0812 0.0000 0.0000 1810.5413 -7344.5079 309.1638 -9155.0492 -7368.7906 301.9966 -635.8558 -532.9375 31011.0659 -300.3245 -219.5147
ENERGY: 1200000 7.0349 5.1078 10.6405 0.0000 -10618.0982 1426.8151 0.0000 0.0000 1735.3595 -7433.1405 296.3260 -9168.5000 -7377.9691 301.3819 104.6169 179.2963 30049.4013 -242.9139 -161.7663
ENERGY: 1500000 5.0716 2.9867 15.7644 0.0000 -10480.8752 1297.8711 0.0000 0.0000 1762.4140 -7396.7675 300.9457 -9159.1815 -7377.7619 301.5933 -1405.9149 -1361.9466 30985.5969 -318.3097 -243.8512
TCL: Running FEP window   8: Lambda1 0.6499999999999997 Lambda2 0.5999999999999996 [dLambda -0.050000000000000044]
TCL: Setting parameter firsttimestep to 0
TCL: Setting parameter alchLambda to 0.6499999999999997
Info: NONBONDED TABLE R-SQUARED SPACING: 0.0625
Info: NONBONDED TABLE SIZE: 705 POINTS
TCL: Setting parameter alchLambda2 to 0.5999999999999996
Info: NONBONDED TABLE R-SQUARED SPACING: 0.0625
Info: NONBONDED TABLE SIZE: 705 POINTS
TCL: Running for 1500000 steps
ETITLE: TS BOND ANGLE DIHED IMPRP ELECT VDW BOUNDARY MISC KINETIC TOTAL TEMP POTENTIAL TOTALAVG TEMPAVG PRESSURE GPRESSURE VOLUME PRESSAVG GPRESSAVG
ENERGY: 0 5.0716 2.9867 15.7644 0.0000 -10480.6835 1298.7933 0.0000 0.0000 1761.5065 -7396.5611 300.7908 -9158.0676 -7396.5611 300.7908 -1447.8899 -1369.9764 30985.5969 -1447.8899 -1369.9764
ENERGY: 300000 6.8320 2.4267 12.7243 0.0000 -10462.4720 1341.5266 0.0000 0.0000 1735.0969 -7363.8655 296.2811 -9098.9625 -7360.9701 299.3596 -730.5566 -651.1233 30973.2399 -661.2492 -589.0568
ENERGY: 600000 4.0041 3.8096 9.9355 0.0000 -10794.0241 1605.0683 0.0000 0.0000 1737.7878 -7433.4188 296.7406 -9171.2065 -7381.2227 299.5748 1864.9905 1967.4867 29731.4013 32.2240 94.5297
ENERGY: 900000 7.6472 5.0186 11.5031 0.0000 -10585.4911 1394.6739 0.0000 0.0000 1754.2788 -7412.3695 299.5566 -9166.6483 -7390.4380 297.6672 -181.2886 -130.8842 30274.9081 55.4038 114.0485
ENERGY: 1200000 6.6869 6.4963 14.2941 0.0000 -10717.2303 1527.6276 0.0000 0.0000 1786.3526 -7375.7728 305.0334 -9162.1253 -7389.0918 298.3828 944.6663 1094.4982 29922.4372 127.4395 186.7370
ENERGY: 1500000 7.1797 2.9458 8.3760 0.0000 -10707.3164 1482.2487 0.0000 0.0000 1751.1417 -7455.4246 299.0209 -9206.5663 -7385.0514 299.3615 257.1636 272.5047 30236.6869 173.9079 231.3973
TCL: Running FEP window   9: Lambda1 0.5999999999999996 Lambda2 0.5499999999999996 [dLambda -0.050000000000000044]
TCL: Setting parameter firsttimestep to 0
TCL: Setting parameter alchLambda to 0.5999999999999996
Info: NONBONDED TABLE R-SQUARED SPACING: 0.0625
Info: NONBONDED TABLE SIZE: 705 POINTS
TCL: Setting parameter alchLambda2 to 0.5499999999999996
Info: NONBONDED TABLE R-SQUARED SPACING: 0.0625
Info: NONBONDED TABLE SIZE: 705 POINTS
TCL: Running for 1500000 steps
ETITLE: TS BOND ANGLE DIHED IMPRP ELECT VDW BOUNDARY MISC KINETIC TOTAL TEMP POTENTIAL TOTALAVG TEMPAVG PRESSURE GPRESSURE VOLUME PRESSAVG GPRESSAVG
ENERGY: 0 7.1797 2.9458 8.3760 0.0000 -10707.0124 1482.0635 0.0000 0.0000 1750.2772 -7456.1704 298.8733 -9206.4476 -7456.1704 298.8733 175.3497 255.5664 30236.6869 175.3497 255.5664
ENERGY: 300000 8.3326 4.7714 10.3698 0.0000 -10580.5055 1409.4225 0.0000 0.0000 1771.5638 -7376.0454 302.5081 -9147.6093 -7427.0946 300.5027 -317.7157 -246.5462 30730.8012 -351.1758 -304.8182
ENERGY: 600000 7.4597 3.6682 15.0910 0.0000 -10589.8005 1431.9946 0.0000 0.0000 1727.5456 -7404.0415 294.9917 -9131.5871 -7412.6025 299.3093 -106.4801 -33.0023 30500.8796 -150.6285 -100.6037
ENERGY: 900000 9.3815 4.6733 14.7951 0.0000 -10594.0359 1460.1084 0.0000 0.0000 1764.9835 -7340.0941 301.3845 -9105.0776 -7384.0592 301.1751 243.0516 257.9608 30469.8289 -84.7202 -40.3367
ENERGY: 1200000 8.4557 4.0032 9.7522 0.0000 -10711.8039 1506.7196 0.0000 0.0000 1842.7874 -7340.0858 314.6701 -9182.8732 -7389.5803 301.7709 715.9012 786.5460 30076.6304 31.1754 76.2491
ENERGY: 1500000 4.7729 4.8359 11.4892 0.0000 -10665.0057 1480.9312 0.0000 0.0000 1774.3058 -7388.6707 302.9763 -9162.9765 -7396.7645 301.2923 66.9096 154.1114 30777.4630 70.2223 115.6048
TCL: Running FEP window  10: Lambda1 0.5499999999999996 Lambda2 0.4999999999999996 [dLambda -0.04999999999999999]
TCL: Setting parameter firsttimestep to 0
TCL: Setting parameter alchLambda to 0.5499999999999996
Info: NONBONDED TABLE R-SQUARED SPACING: 0.0625
Info: NONBONDED TABLE SIZE: 705 POINTS
TCL: Setting parameter alchLambda2 to 0.4999999999999996
Info: NONBONDED TABLE R-SQUARED SPACING: 0.0625
Info: NONBONDED TABLE SIZE: 705 POINTS
TCL: Running for 1500000 steps
ETITLE: TS BOND ANGLE DIHED IMPRP ELECT VDW BOUNDARY MISC KINETIC TOTAL TEMP POTENTIAL TOTALAVG TEMPAVG PRESSURE GPRESSURE VOLUME PRESSAVG GPRESSAVG
ENERGY: 0 4.7729 4.8359 11.4892 0.0000 -10664.5577 1481.8413 0.0000 0.0000 1773.4809 -7388.1375 302.8355 -9161.6184 -7388.1375 302.8355 71.9868 149.8091 30777.4630 71.9868 149.8091
ENERGY: 300000 6.1830 9.0033 9.2034 0.0000 -10633.0664 1396.5119 0.0000 0.0000 1758.1582 -7454.0067 300.2190 -9212.1649 -7453.2695 300.5868 -419.9081 -319.3225 30510.3436 -184.1786 -117.1038
ENERGY: 600000 4.4334 6.4503 11.4544 0.0000 -10658.8806 1445.2360 0.0000 0.0000 1750.7255 -7440.5810 298.9498 -9191.3065 -7433.4513 299.1993 303.6095 327.7191 29969.3521 -205.8083 -149.3358
ENERGY: 900000 4.3855 4.9616 15.5437 0.0000 -10746.4502 1537.1012 0.0000 0.0000 1794.8021 -7389.6561 306.4763 -9184.4582 -7425.2156 300.1599 626.0663 742.4909 30563.3143 175.7363 243.0613
ENERGY: 1200000 3.9780 5.4840 13.5389 0.0000 -10443.7055 1324.9870 0.0000 0.0000 1778.5513 -7317.1663 303.7013 -9095.7176 -7420.7407 300.2631 -876.3396 -773.7724 30651.9779 77.8852 150.2153
ENERGY: 1500000 5.7317 6.0669 12.0576 0.0000 -10661.2303 1439.5973 0.0000 0.0000 1776.8795 -7420.8973 303.4158 -9197.7768 -7415.4206 300.5478 -41.0528 30.9204 30271.4688 67.6207 134.8870
TCL: Running FEP window  11: Lambda1 0.4999999999999996 Lambda2 0.4499999999999996 [dLambda -0.04999999999999999]
TCL: Setting parameter firsttimestep to 0
TCL: Setting parameter alchLambda to 0.4999999999999996
Info: NONBONDED TABLE R-SQUARED SPACING: 0.0625
Info: NONBONDED TABLE SIZE: 705 POINTS
TCL: Setting parameter alchLambda2 to 0.4499999999999996
Info: NONBONDED TABLE R-SQUARED SPACING: 0.0625
Info: NONBONDED TABLE SIZE: 705 POINTS
TCL: Running for 1500000 steps
ETITLE: TS BOND ANGLE DIHED IMPRP ELECT VDW BOUNDARY MISC KINETIC TOTAL TEMP POTENTIAL TOTALAVG TEMPAVG PRESSURE GPRESSURE VOLUME PRESSAVG GPRESSAVG
ENERGY: 0 5.7317 6.0669 12.0576 0.0000 -10661.1380 1440.2531 0.0000 0.0000 1776.0061 -7421.0225 303.2667 -9197.0286 -7421.0225 303.2667 -65.7048 22.9728 30271.4688 -65.7048 22.9728
ENERGY: 300000 6.8377 3.1945 13.4555 0.0000 -10488.6705 1322.8501 0.0000 0.0000 1729.2578 -7413.0749 295.2841 -9142.3328 -7430.0828 297.4781 -836.7804 -766.5921 30176.9371 -129.4268 -66.1808
ENERGY: 600000 5.4421 5.6811 13.6802 0.0000 -10744.1517 1482.7498 0.0000 0.0000 1743.2104 -7493.3880 297.6666 -9236.5985 -7446.5229 297.6618 253.5137 302.2864 30628.4820 -88.0587 -25.8587
ENERGY: 900000 7.4207 5.6876 10.2621 0.0000 -10517.8353 1411.8648 0.0000 0.0000 1826.7429 -7255.8572 311.9304 -9082.6002 -7422.1449 299.0871 -83.6139 -59.1109 30250.5348 -20.9439 46.4983
ENERGY: 1200000 9.1165 6.3996 11.9258 0.0000 -10677.3723 1431.2807 0.0000 0.0000 1734.0206 -7484.6291 296.0973 -9218.6497 -7418.0873 298.8307 -244.8809 -264.8006 30250.1061 -122.0830 -61.4702
ENERGY: 1500000 6.9492 3.3858 10.9006 0.0000 -10785.7812 1570.6044 0.0000 0.0000 1818.2571 -7375.6841 310.4814 -9193.9412 -7404.8821 299.7995 935.6187 1036.7262 30256.4167 -17.8280 40.7692
TCL: Running FEP window  12: Lambda1 0.4499999999999996 Lambda2 0.39999999999999963 [dLambda -0.04999999999999999]
TCL: Setting parameter firsttimestep to 0
TCL: Setting parameter alchLambda to 0.4499999999999996
Info: NONBONDED TABLE R-SQUARED SPACING: 0.0625
Info: NONBONDED TABLE SIZE: 705 POINTS
TCL: Setting parameter alchLambda2 to 0.39999999999999963
Info: NONBONDED TABLE R-SQUARED SPACING: 0.0625
Info: NONBONDED TABLE SIZE: 705 POINTS
TCL: Running for 1500000 steps
ETITLE: TS BOND ANGLE DIHED IMPRP ELECT VDW BOUNDARY MISC KINETIC TOTAL TEMP POTENTIAL TOTALAVG TEMPAVG PRESSURE GPRESSURE VOLUME PRESSAVG GPRESSAVG
ENERGY: 0 6.9492 3.3858 10.9006 0.0000 -10785.7808 1570.8490 0.0000 0.0000 1817.4035 -7376.2927 310.3356 -9193.6962 -7376.2927 310.3356 942.0028 1025.3968 30256.4167 942.0028 1025.3968
ENERGY: 300000 5.3427 3.7655 11.6346 0.0000 -10681.3020 1437.9853 0.0000 0.0000 1798.8634 -7423.7106 307.1697 -9222.5740 -7387.0281 304.8336 26.4021 52.3466 29847.1497 31.1255 107.6594
ENERGY: 600000 9.0311 8.4071 10.6726 0.0000 -10567.9707 1357.0447 0.0000 0.0000 1775.5671 -7407.2481 303.1917 -9182.8152 -7408.5186 302.2375 -259.1674 -253.2016 30040.2024 -126.7647 -71.9734
ENERGY: 900000 7.5178 7.0430 8.9579 0.0000 -10584.4106 1405.7878 0.0000 0.0000 1736.0194 -7419.0848 296.4386 -9155.1041 -7404.9158 301.6896 -339.9775 -219.5553 30478.8973 -119.4181 -56.8829
ENERGY: 1200000 6.6586 3.6186 10.3030 0.0000 -10664.3990 1495.7139 0.0000 0.0000 1736.0183 -7412.0867 296.4385 -9148.1050 -7402.6990 301.1838 396.1371 372.3770 30303.9551 -58.0769 -2.9735
ENERGY: 1500000 3.2877 5.1046 9.7594 0.0000 -10485.2081 1396.1835 0.0000 0.0000 1742.7738 -7328.0992 297.5920 -9070.8730 -7402.2373 300.4437 -56.5959 28.3377 30410.4105 9.1303 69.2925
TCL: Running FEP window  13: Lambda1 0.39999999999999963 Lambda2 0.34999999999999964 [dLambda -0.04999999999999999]
TCL: Setting parameter firsttimestep to 0
TCL: Setting parameter alchLambda to 0.39999999999999963
Info: NONBONDED TABLE R-SQUARED SPACING: 0.0625
Info: NONBONDED TABLE SIZE: 705 POINTS
TCL: Setting parameter alchLambda2 to 0.34999999999999964
Info: NONBONDED TABLE R-SQUARED SPACING: 0.0625
Info: NONBONDED TABLE SIZE: 705 POINTS
TCL: Running for 1500000 steps
ETITLE: TS BOND ANGLE DIHED IMPRP ELECT VDW BOUNDARY MISC KINETIC TOTAL TEMP POTENTIAL TOTALAVG TEMPAVG PRESSURE GPRESSURE VOLUME PRESSAVG GPRESSAVG
ENERGY: 0 3.2877 5.1046 9.7594 0.0000 -10485.2077 1396.4309 0.0000 0.0000 1741.8621 -7328.7631 297.4363 -9070.6252 -7328.7631 297.4363 -52.0083 19.8521 30410.4105 -52.0083 19.8521
ENERGY: 300000 6.0065 4.2787 13.7480 0.0000 -10552.3240 1425.7622 0.0000 0.0000 1759.8170 -7342.7115 300.5023 -9102.5285 -7365.3728 298.1580 310.5349 362.9201 30019.3457 124.7531 201.3583
ENERGY: 600000 10.3699 6.3276 12.6936 0.0000 -10653.6003 1374.4107 0.0000 0.0000 1777.2426 -7472.5559 303.4778 -9249.7985 -7389.2906 299.1605 -918.7941 -862.1804 30538.3786 25.1716 100.2965
ENERGY: 900000 4.6931 7.4105 11.4223 0.0000 -10580.8632 1453.5507 0.0000 0.0000 1799.8715 -7303.9151 307.3419 -9103.7866 -7369.0483 300.7171 414.7432 472.6343 30374.6565 175.0795 241.0631
ENERGY: 1200000 4.0877 4.6828 12.6095 0.0000 -10658.6375 1424.1196 0.0000 0.0000 1744.9287 -7468.2093 297.9600 -9213.1380 -7366.5723 301.1691 -388.3685 -319.0584 30437.7457 37.5819 101.7786
ENERGY: 1500000 9.5441 3.5844 15.1980 0.0000 -10609.2041 1401.4199 0.0000 0.0000 1819.3304 -7360.1273 310.6646 -9179.4577 -7375.1976 301.8361 -172.0807 -156.7558 30001.8507 29.4010 92.7564
TCL: Running FEP window  14: Lambda1 0.34999999999999964 Lambda2 0.29999999999999966 [dLambda -0.04999999999999999]
TCL: Setting parameter firsttimestep to 0
TCL: Setting parameter alchLambda to 0.34999999999999964
Info: NONBONDED TABLE R-SQUARED SPACING: 0.0625
Info: NONBONDED TABLE SIZE: 705 POINTS
TCL: Setting parameter alchLambda2 to 0.29999999999999966
Info: NONBONDED TABLE R-SQUARED SPACING: 0.0625
Info: NONBONDED TABLE SIZE: 705 POINTS
TCL: Running for 1500000 steps
ETITLE: TS BOND ANGLE DIHED IMPRP ELECT VDW BOUNDARY MISC KINETIC TOTAL TEMP POTENTIAL TOTALAVG TEMPAVG PRESSURE GPRESSURE VOLUME PRESSAVG GPRESSAVG
ENERGY: 0 9.5442 3.5844 15.1980 0.0000 -10609.2043 1401.7301 0.0000 0.0000 1818.4696 -7360.6781 310.5176 -9179.1476 -7360.6781 310.5176 -256.5735 -166.1657 30001.8507 -256.5735 -166.1657
ENERGY: 300000 5.7990 4.1098 9.8806 0.0000 -10567.7943 1396.5192 0.0000 0.0000 1798.9783 -7352.5073 307.1894 -9151.4856 -7362.8793 307.2236 -271.0550 -199.0066 30132.1927 93.7958 166.5089
ENERGY: 600000 3.9272 3.9700 12.9603 0.0000 -10523.5448 1361.3302 0.0000 0.0000 1800.0269 -7341.3301 307.3684 -9141.3570 -7387.4730 303.1386 -458.6690 -428.9958 30456.2791 33.2144 91.8417
ENERGY: 900000 8.2482 4.2665 14.8603 0.0000 -10571.4046 1459.2505 0.0000 0.0000 1729.5886 -7355.1905 295.3405 -9084.7791 -7385.9749 302.9448 80.0540 161.3346 30463.1068 -171.1445 -105.9318
ENERGY: 1200000 10.7533 6.4283 12.6373 0.0000 -10372.8597 1277.5725 0.0000 0.0000 1703.3498 -7362.1186 290.8601 -9065.4684 -7387.7508 301.4514 -1076.6429 -1101.0261 30434.1712 -219.3035 -160.6893
ENERGY: 1500000 7.3768 5.8275 16.6364 0.0000 -10649.0763 1422.6485 0.0000 0.0000 1809.6481 -7386.9391 309.0113 -9196.5872 -7377.9474 301.6282 -187.5568 -106.2077 30038.6891 -105.6556 -48.9505
TCL: Running FEP window  15: Lambda1 0.29999999999999966 Lambda2 0.24999999999999967 [dLambda -0.04999999999999999]
TCL: Setting parameter firsttimestep to 0
TCL: Setting parameter alchLambda to 0.29999999999999966
Info: NONBONDED TABLE R-SQUARED SPACING: 0.0625
Info: NONBONDED TABLE SIZE: 705 POINTS
TCL: Setting parameter alchLambda2 to 0.24999999999999967
Info: NONBONDED TABLE R-SQUARED SPACING: 0.0625
Info: NONBONDED TABLE SIZE: 705 POINTS
TCL: Running for 1500000 steps
ETITLE: TS BOND ANGLE DIHED IMPRP ELECT VDW BOUNDARY MISC KINETIC TOTAL TEMP POTENTIAL TOTALAVG TEMPAVG PRESSURE GPRESSURE VOLUME PRESSAVG GPRESSAVG
ENERGY: 0 7.3768 5.8275 16.6364 0.0000 -10649.0767 1422.6086 0.0000 0.0000 1808.7631 -7387.8642 308.8602 -9196.6274 -7387.8642 308.8602 -195.1404 -113.3883 30038.6891 -195.1404 -113.3883
ENERGY: 300000 4.8583 5.2403 9.2195 0.0000 -10662.5541 1486.8774 0.0000 0.0000 1725.6716 -7430.6872 294.6717 -9156.3587 -7403.8277 297.6565 643.5027 726.2057 29653.9999 275.8194 368.5864
ENERGY: 600000 5.7550 7.8378 12.5090 0.0000 -10566.5482 1441.3906 0.0000 0.0000 1788.7336 -7310.3221 305.4400 -9099.0557 -7392.9531 298.7260 363.0126 454.5688 30188.2165 58.2670 133.5908
ENERGY: 900000 6.3372 5.2195 12.3742 0.0000 -10634.4679 1470.6833 0.0000 0.0000 1729.1251 -7410.7287 295.2614 -9139.8537 -7388.2414 299.6642 196.2279 321.2380 30549.4975 40.8468 118.2176
ENERGY: 1200000 6.3291 7.1040 14.3228 0.0000 -10657.7489 1410.4117 0.0000 0.0000 1852.5927 -7366.9886 316.3444 -9219.5812 -7390.5459 301.3182 -32.2637 60.8681 30044.1242 106.7290 176.8449
ENERGY: 1500000 5.4675 4.6608 13.1426 0.0000 -10606.4395 1481.7480 0.0000 0.0000 1758.3837 -7343.0369 300.2575 -9101.4206 -7386.7228 301.7856 663.2827 656.3139 29986.4639 156.7512 223.7359
TCL: Running FEP window  16: Lambda1 0.24999999999999967 Lambda2 0.19999999999999968 [dLambda -0.04999999999999999]
TCL: Setting parameter firsttimestep to 0
TCL: Setting parameter alchLambda to 0.24999999999999967
Info: NONBONDED TABLE R-SQUARED SPACING: 0.0625
Info: NONBONDED TABLE SIZE: 705 POINTS
TCL: Setting parameter alchLambda2 to 0.19999999999999968
Info: NONBONDED TABLE R-SQUARED SPACING: 0.0625
Info: NONBONDED TABLE SIZE: 705 POINTS
TCL: Running for 1500000 steps
ETITLE: TS BOND ANGLE DIHED IMPRP ELECT VDW BOUNDARY MISC KINETIC TOTAL TEMP POTENTIAL TOTALAVG TEMPAVG PRESSURE GPRESSURE VOLUME PRESSAVG GPRESSAVG
ENERGY: 0 5.4675 4.6608 13.1426 0.0000 -10606.4388 1482.0070 0.0000 0.0000 1757.4677 -7343.6932 300.1011 -9101.1609 -7343.6932 300.1011 569.5783 649.9070 29986.4639 569.5783 649.9070
ENERGY: 300000 6.7403 5.1808 10.8737 0.0000 -10441.5330 1350.5958 0.0000 0.0000 1814.4948 -7253.6476 309.8389 -9068.1424 -7362.6230 300.6277 -300.3115 -194.5114 30269.2898 -102.4818 -18.9245
ENERGY: 600000 3.3888 5.1030 17.1615 0.0000 -10545.0988 1436.9210 0.0000 0.0000 1692.8823 -7389.6422 289.0727 -9082.5245 -7360.1767 300.4420 118.7854 141.8930 30445.1503 -109.3917 -57.2026
ENERGY: 900000 3.4734 5.2831 8.7802 0.0000 -10587.0079 1395.6862 0.0000 0.0000 1737.8946 -7435.8904 296.7589 -9173.7850 -7372.5075 299.7546 -145.0496 -47.3212 29862.1687 -87.9519 -27.7747
ENERGY: 1200000 6.9092 5.5204 11.8143 0.0000 -10640.3376 1431.6278 0.0000 0.0000 1736.3605 -7448.1055 296.4969 -9184.4659 -7388.5639 299.1274 -9.3451 -1.2171 30228.6504 -109.7546 -54.3730
ENERGY: 1500000 4.5385 4.4621 9.9978 0.0000 -10453.9969 1366.0311 0.0000 0.0000 1763.5811 -7305.3863 301.1450 -9068.9674 -7390.5470 299.1032 -546.0514 -453.9969 30447.6293 -133.3747 -76.6903
TCL: Running FEP window  17: Lambda1 0.19999999999999968 Lambda2 0.1499999999999997 [dLambda -0.04999999999999999]
TCL: Setting parameter firsttimestep to 0
TCL: Setting parameter alchLambda to 0.19999999999999968
Info: NONBONDED TABLE R-SQUARED SPACING: 0.0625
Info: NONBONDED TABLE SIZE: 705 POINTS
TCL: Setting parameter alchLambda2 to 0.1499999999999997
Info: NONBONDED TABLE R-SQUARED SPACING: 0.0625
Info: NONBONDED TABLE SIZE: 705 POINTS
TCL: Running for 1500000 steps
ETITLE: TS BOND ANGLE DIHED IMPRP ELECT VDW BOUNDARY MISC KINETIC TOTAL TEMP POTENTIAL TOTALAVG TEMPAVG PRESSURE GPRESSURE VOLUME PRESSAVG GPRESSAVG
ENERGY: 0 4.5385 4.4621 9.9978 0.0000 -10453.9957 1366.1404 0.0000 0.0000 1762.6826 -7306.1744 300.9916 -9068.8569 -7306.1744 300.9916 -538.3002 -459.0175 30447.6293 -538.3002 -459.0175
ENERGY: 300000 9.2176 4.7652 10.1101 0.0000 -10701.5699 1446.4767 0.0000 0.0000 1715.9464 -7515.0538 293.0110 -9231.0002 -7380.5542 300.4598 -142.2691 -98.0232 30121.0964 243.0956 326.8846
ENERGY: 600000 8.0911 5.9049 12.5121 0.0000 -10433.3496 1354.0338 0.0000 0.0000 1766.5977 -7286.2101 301.6601 -9052.8078 -7370.0780 300.9811 -714.8034 -574.1660 30874.0535 112.1266 198.7127
ENERGY: 900000 4.8512 2.9296 10.4154 0.0000 -10535.6481 1399.7155 0.0000 0.0000 1833.4164 -7284.3200 313.0699 -9117.7364 -7363.0701 301.9394 80.1058 147.9032 29988.7110 13.7083 89.4950
ENERGY: 1200000 9.6706 3.8373 9.8637 0.0000 -10774.4710 1508.6865 0.0000 0.0000 1706.4202 -7535.9927 291.3844 -9242.4129 -7377.0158 300.8666 536.0375 543.7312 29855.1164 10.2334 82.4020
ENERGY: 1500000 2.7016 4.5712 12.6745 0.0000 -10594.8199 1418.4952 0.0000 0.0000 1748.8240 -7407.5534 298.6251 -9156.3774 -7378.4071 300.5381 -200.2959 -138.4491 30558.6039 -26.9650 45.2668
TCL: Running FEP window  18: Lambda1 0.1499999999999997 Lambda2 0.09999999999999969 [dLambda -0.05 ]
TCL: Setting parameter firsttimestep to 0
TCL: Setting parameter alchLambda to 0.1499999999999997
Info: NONBONDED TABLE R-SQUARED SPACING: 0.0625
Info: NONBONDED TABLE SIZE: 705 POINTS
TCL: Setting parameter alchLambda2 to 0.09999999999999969
Info: NONBONDED TABLE R-SQUARED SPACING: 0.0625
Info: NONBONDED TABLE SIZE: 705 POINTS
TCL: Running for 1500000 steps
ETITLE: TS BOND ANGLE DIHED IMPRP ELECT VDW BOUNDARY MISC KINETIC TOTAL TEMP POTENTIAL TOTALAVG TEMPAVG PRESSURE GPRESSURE VOLUME PRESSAVG GPRESSAVG
ENERGY: 0 2.7016 4.5712 12.6745 0.0000 -10594.8193 1419.2757 0.0000 0.0000 1747.9603 -7407.6360 298.4777 -9155.5963 -7407.6360 298.4777 -230.5786 -143.3468 30558.6039 -230.5786 -143.3468
ENERGY: 300000 7.8802 4.4601 11.0206 0.0000 -10656.5765 1439.5150 0.0000 0.0000 1719.0117 -7474.6890 293.5344 -9193.7006 -7421.3129 296.1443 -209.5420 -218.8595 30281.6553 -124.6223 -83.3359
ENERGY: 600000 8.8936 4.6461 11.1351 0.0000 -10620.7441 1438.5441 0.0000 0.0000 1728.8069 -7428.7182 295.2071 -9157.5251 -7435.3083 295.3359 -335.6138 -346.3453 30697.8290 -173.6526 -121.9513
ENERGY: 900000 5.1354 4.8426 13.6180 0.0000 -10703.2073 1458.8626 0.0000 0.0000 1720.7308 -7500.0179 293.8280 -9220.7487 -7448.9830 295.7278 188.8926 242.7172 29635.2692 -74.5861 -14.1423
ENERGY: 1200000 3.1917 3.2419 15.2766 0.0000 -10505.8093 1386.8347 0.0000 0.0000 1831.5572 -7265.7072 312.7525 -9097.2644 -7426.4583 298.1132 -228.2667 -167.4543 30043.5615 -63.5899 -0.3876
ENERGY: 1500000 3.1340 5.1655 10.9580 0.0000 -10531.9231 1374.6375 0.0000 0.0000 1692.6087 -7445.4194 289.0259 -9138.0281 -7417.6013 298.5247 -521.7742 -487.0067 30466.2037 -86.6126 -26.8387
TCL: Running FEP window  19: Lambda1 0.09999999999999969 Lambda2 0.049999999999999684 [dLambda -0.05 ]
TCL: Setting parameter firsttimestep to 0
TCL: Setting parameter alchLambda to 0.09999999999999969
Info: NONBONDED TABLE R-SQUARED SPACING: 0.0625
Info: NONBONDED TABLE SIZE: 705 POINTS
TCL: Setting parameter alchLambda2 to 0.049999999999999684
Info: NONBONDED TABLE R-SQUARED SPACING: 0.0625
Info: NONBONDED TABLE SIZE: 705 POINTS
TCL: Running for 1500000 steps
ETITLE: TS BOND ANGLE DIHED IMPRP ELECT VDW BOUNDARY MISC KINETIC TOTAL TEMP POTENTIAL TOTALAVG TEMPAVG PRESSURE GPRESSURE VOLUME PRESSAVG GPRESSAVG
ENERGY: 0 3.1340 5.1655 10.9580 0.0000 -10531.9231 1374.5784 0.0000 0.0000 1691.7175 -7446.3697 288.8738 -9138.0872 -7446.3697 288.8738 -577.0265 -492.7681 30466.2037 -577.0265 -492.7681
ENERGY: 300000 5.2539 5.0917 12.3289 0.0000 -10590.9375 1401.4017 0.0000 0.0000 1710.9428 -7455.9187 292.1566 -9166.8614 -7424.8985 293.2217 -575.8418 -475.1741 30392.7020 -181.7347 -118.9044
ENERGY: 600000 8.7951 5.9225 13.8048 0.0000 -10593.7435 1414.7725 0.0000 0.0000 1738.6504 -7411.7981 296.8879 -9150.4485 -7404.4166 296.4939 -298.3995 -267.4941 30078.0422 -280.8761 -215.6091
ENERGY: 900000 9.1542 6.4757 13.9748 0.0000 -10627.8517 1423.5858 0.0000 0.0000 1765.3736 -7409.2876 301.4511 -9174.6612 -7392.5099 299.0327 -119.2887 -31.8888 29627.4107 -254.8503 -192.1229
ENERGY: 1200000 6.6262 3.8475 14.7835 0.0000 -10636.8559 1510.3468 0.0000 0.0000 1751.3080 -7349.9438 299.0493 -9101.2519 -7389.4512 299.3082 591.3927 661.9300 30258.6667 -143.5958 -78.3366
ENERGY: 1500000 6.0277 2.9819 12.1208 0.0000 -10608.0768 1450.8470 0.0000 0.0000 1780.1896 -7355.9098 303.9810 -9136.0993 -7395.6915 298.9276 234.4318 309.6447 30329.0598 -147.9335 -81.4449
TCL: Running FEP window  20: Lambda1 0.049999999999999684 Lambda2 0.0    [dLambda -0.049999999999999684]
TCL: Setting parameter firsttimestep to 0
TCL: Setting parameter alchLambda to 0.049999999999999684
Info: NONBONDED TABLE R-SQUARED SPACING: 0.0625
Info: NONBONDED TABLE SIZE: 705 POINTS
TCL: Setting parameter alchLambda2 to 0.0
Info: NONBONDED TABLE R-SQUARED SPACING: 0.0625
Info: NONBONDED TABLE SIZE: 705 POINTS
TCL: Running for 1500000 steps
ETITLE: TS BOND ANGLE DIHED IMPRP ELECT VDW BOUNDARY MISC KINETIC TOTAL TEMP POTENTIAL TOTALAVG TEMPAVG PRESSURE GPRESSURE VOLUME PRESSAVG GPRESSAVG
ENERGY: 0 6.0277 2.9819 12.1208 0.0000 -10608.0772 1450.3292 0.0000 0.0000 1779.2964 -7357.3212 303.8285 -9136.6176 -7357.3212 303.8285 213.4701 302.3895 30329.0598 213.4701 302.3895
ENERGY: 300000 4.0210 4.3951 10.9765 0.0000 -10648.9164 1507.4349 0.0000 0.0000 1785.2745 -7336.8145 304.8493 -9122.0890 -7387.7354 303.1182 520.0963 597.0282 30035.8829 199.4724 279.0346
ENERGY: 600000 6.5182 3.8847 11.9651 0.0000 -10645.8285 1441.1656 0.0000 0.0000 1728.4834 -7453.8116 295.1518 -9182.2950 -7405.0883 301.8278 -17.0577 31.6747 29792.3833 -27.5783 51.7972
ENERGY: 900000 7.8618 3.4027 11.1423 0.0000 -10636.8150 1453.8445 0.0000 0.0000 1747.0592 -7413.5044 298.3238 -9160.5636 -7412.3120 300.3985 -124.5890 -88.0350 30224.8368 -35.2497 34.6229
ENERGY: 1200000 8.7994 7.6864 11.4989 0.0000 -10454.0740 1299.3107 0.0000 0.0000 1811.7464 -7315.0321 309.3696 -9126.7786 -7402.0943 300.6448 -1140.9387 -1036.2395 30207.8770 -242.6213 -163.3931
ENERGY: 1500000 7.2583 5.3241 10.2904 0.0000 -10553.1874 1392.2405 0.0000 0.0000 1788.7247 -7349.3494 305.4385 -9138.0741 -7396.9700 300.5614 -171.3156 -125.8868 29742.6234 -218.8295 -141.9176
TCL: Exiting due to exit command.
