Info: SIMULATION PARAMETERS:
Info: TIMESTEP               2
Info: NUMBER OF STEPS        0
Info: STEPS PER CYCLE        10
Info: PERIODIC CELL BASIS 1  30.7464 0 0
Info: PERIODIC CELL BASIS 2  0 30.1084 0
Info: PERIODIC CELL BASIS 3  0 0 32.6877
Info: PERIODIC CELL CENTER   0 0 0
Info: WRAPPING WATERS AROUND PERIODIC BOUNDARIES ON OUTPUT.
Info: WRAPPING ALL CLUSTERS AROUND PERIODIC BOUNDARIES ON OUTPUT.
Info: FIRST LDB TIMESTEP     50
Info: LAST LDB TIMESTEP     -1
Info: HOM BACKGROUND SCALING 1
Info: PME BACKGROUND SCALING 1
Info: MIN ATOMS PER PATCH    40
Info: EMPTY PATCH LOAD       40 ATOMS
Info: VELOCITY FILE          mobley_2693089_equil.vel
Info: CENTER OF MASS MOVING INITIALLY? NO
Info: DIELECTRIC             1
Info: EXCLUDE                SCALED ONE-FOUR
Info: 1-4 ELECTROSTATICS SCALED BY 0.833333
Info: MODIFIED 1-4 VDW PARAMETERS WILL BE USED
Info: DCD FILENAME           mobley_2693089_prod.dcd
Info: DCD FREQUENCY          100000
Info: DCD FIRST STEP         100000
Info: DCD FILE WILL CONTAIN UNIT CELL DATA
Info: XST FILENAME           mobley_2693089_prod.xst
Info: XST FREQUENCY          100000
Info: NO VELOCITY DCD OUTPUT
Info: NO FORCE DCD OUTPUT
Info: OUTPUT FILENAME        mobley_2693089_prod
Info: BINARY OUTPUT FILES WILL BE USED
Info: RESTART FILENAME       mobley_2693089_prod.restart
Info: RESTART FREQUENCY      100000
Info: BINARY RESTART FILES WILL BE USED
Info: CUTOFF                 9
Info: PAIRLIST DISTANCE      11
Info: PAIRLIST SHRINK RATE   0.01
Info: PAIRLIST GROW RATE     0.01
Info: PAIRLIST TRIGGER       0.3
Info: PAIRLISTS PER CYCLE    2
Info: PAIRLISTS ENABLED
Info: MARGIN                 2
Info: HYDROGEN GROUP CUTOFF  2.5
Info: PATCH DIMENSION        15.5
Info: ENERGY OUTPUT STEPS    100000
Info: ENERGY EVALUATION STEPS    100000
Info: OUTPUT ENERGY PRECISION 4
Info: CROSSTERM ENERGY INCLUDED IN DIHEDRAL
Info: TIMING OUTPUT STEPS    1000000
Info: PRESSURE OUTPUT STEPS  100000
Info: ALCHEMICAL FEP ON
Info: FEP CURRENT LAMBDA VALUE     0
Info: FEP COMPARISON LAMBDA VALUE  0.05
Info: FEP INTRA-ALCHEMICAL NON-BONDED INTERACTIONS WILL BE RETAINED
Info: FEP INTRA-ALCHEMICAL BONDED INTERACTIONS WILL BE RETAINED
Info: FEP VDW SHIFTING COEFFICIENT 5
Info: FEP ELEC. ACTIVE FOR ANNIHILATED PARTICLES BETWEEN LAMBDA = 0 AND LAMBDA = 0.5
Info: FEP ELEC. ACTIVE FOR EXNIHILATED PARTICLES BETWEEN LAMBDA = 0.5 AND LAMBDA = 1
Info: FEP VDW ACTIVE FOR ANNIHILATED PARTICLES BETWEEN LAMBDA = 0 AND LAMBDA = 1
Info: FEP VDW ACTIVE FOR EXNIHILATED PARTICLES BETWEEN LAMBDA = 0 AND LAMBDA = 1
Info: FEP BOND ACTIVE FOR ANNIHILATED PARTICLES BETWEEN LAMBDA = 1 AND LAMBDA = 1
Info: FEP BOND ACTIVE FOR EXNIHILATED PARTICLES BETWEEN LAMBDA = 0 AND LAMBDA = 0
Info: LANGEVIN DYNAMICS ACTIVE
Info: LANGEVIN TEMPERATURE   300
Info: LANGEVIN USING BBK INTEGRATOR
Info: LANGEVIN DAMPING COEFFICIENT IS 1 INVERSE PS
Info: LANGEVIN DYNAMICS APPLIED TO HYDROGENS
Info: LANGEVIN PISTON PRESSURE CONTROL ACTIVE
Info:        TARGET PRESSURE IS 1.01325 BAR
Info:     OSCILLATION PERIOD IS 50 FS
Info:             DECAY TIME IS 25 FS
Info:     PISTON TEMPERATURE IS 300 K
Info:       PRESSURE CONTROL IS GROUP-BASED
Info:    INITIAL STRAIN RATE IS -0.000652736 -0.000652736 -0.000652736
Info:       CELL FLUCTUATION IS ISOTROPIC
Info: PARTICLE MESH EWALD (PME) ACTIVE
Info: PME TOLERANCE               1e-06
Info: PME EWALD COEFFICIENT       0.348832
Info: PME INTERPOLATION ORDER     4
Info: PME GRID DIMENSIONS         32 32 36
Info: PME MAXIMUM GRID SPACING    1
Info: PME CALCULATION WILL BE PERFORMED ON GPU
Info: FULL ELECTROSTATIC EVALUATION FREQUENCY      2
Info: USING VERLET I (r-RESPA) MTS SCHEME.
Info: C1 SPLITTING OF LONG RANGE ELECTROSTATICS
Info: PLACING ATOMS IN PATCHES BY HYDROGEN GROUPS
Info: RIGID BONDS TO HYDROGEN : ALL
Info:         ERROR TOLERANCE : 1e-08
Info:          MAX ITERATIONS : 100
Info: RIGID WATER USING SETTLE ALGORITHM
Info: RANDOM NUMBER SEED     1743877131
Info: USE HYDROGEN BONDS?    NO
Info: Using AMBER format force field!
Info: AMBER PARM FILE        mobley_2693089.prmtop
Info: COORDINATE PDB         mobley_2693089.pdb
Info: Exclusions will be read from PARM file!
Info: SCNB (VDW SCALING)     2
Info: USING ARITHMETIC MEAN TO COMBINE L-J SIGMA PARAMETERS
Info: BINARY COORDINATES     mobley_2693089_equil.coor
Info: SUMMARY OF PARAMETERS:
Info: 8 BONDS
Info: 11 ANGLES
Info:   11 HARMONIC
Info:   0 COSINE-BASED
Info: 7 DIHEDRAL
Info: 0 IMPROPER
Info: 0 CROSSTERM
Info: 0 VDW
Info: 28 VDW_PAIRS
Info: 0 NBTHOLE_PAIRS
Info: To read alchdata from file: mobley_2693089.pdb
Info: To read alchflag data from column: 5
Info: STRUCTURE SUMMARY:
Info: 2962 ATOMS
Info: 2962 BONDS
Info: 38 ANGLES
Info: 53 DIHEDRALS
Info: 0 IMPROPERS
Info: 0 CROSSTERMS
Info: 3046 EXCLUSIONS
Info: 2952 RIGID BONDS
Info: ALCH: 0 ATOMS TO DISAPPEAR IN FINAL STATE
Info: ALCH: 22 ATOMS TO APPEAR IN FINAL STATE
Info: 5934 DEGREES OF FREEDOM
Info: 990 HYDROGEN GROUPS
Info: 4 ATOMS IN LARGEST HYDROGEN GROUP
Info: 990 MIGRATION GROUPS
Info: 4 ATOMS IN LARGEST MIGRATION GROUP
Info: TOTAL MASS = 17791.9 amu
Info: TOTAL CHARGE = -9.99868e-05 e
Info: MASS DENSITY = 0.976371 g/cm^3
Info: ATOM DENSITY = 0.0978856 atoms/A^3
Info: ADDED 0 IMPLICIT EXCLUSIONS
Info: NONBONDED TABLE R-SQUARED SPACING: 0.0625
Info: NONBONDED TABLE SIZE: 705 POINTS
Info: REMOVING COM VELOCITY -0.0507604 -0.024195 0.00298324
Info: Use 3D box decompostion in PME FFT.
Info: Updated CUDA force table with 4096 elements.
Info: Updated CUDA LJ table with 7 x 7 elements.
Info: Found 23 unique exclusion lists needing 76 bytes
TCL: Running for 1500000 steps
ETITLE: TS BOND ANGLE DIHED IMPRP ELECT VDW BOUNDARY MISC KINETIC TOTAL TEMP POTENTIAL TOTALAVG TEMPAVG PRESSURE GPRESSURE VOLUME PRESSAVG GPRESSAVG
ENERGY: 0 5.9399 7.2236 4.0626 0.0000 -10739.7335 1510.3699 0.0000 0.0000 1757.5247 -7454.6127 298.0879 -9212.1375 -7454.6127 298.0879 367.6561 475.3926 30259.8140 367.6561 475.3926
ENERGY: 300000 3.4072 13.9941 3.2423 0.0000 -10465.2489 1304.7182 0.0000 0.0000 1790.2202 -7349.6669 303.6332 -9139.8871 -7403.1131 301.4126 -1218.8607 -1151.9812 30719.9542 -263.8370 -214.4310
ENERGY: 600000 3.2102 8.7526 3.8436 0.0000 -10765.0112 1560.6039 0.0000 0.0000 1802.4054 -7386.1955 305.6999 -9188.6009 -7397.7490 304.6714 1210.6634 1239.3766 29964.7261 105.0000 142.1317
ENERGY: 900000 3.5263 7.2960 5.9311 0.0000 -10740.3474 1516.8160 0.0000 0.0000 1708.9976 -7497.7803 289.8573 -9206.7780 -7408.1563 303.6958 17.3385 61.1250 30907.0097 151.8069 192.1295
ENERGY: 1200000 2.4643 6.8526 4.4373 0.0000 -10728.7863 1435.4463 0.0000 0.0000 1777.0907 -7502.4951 301.4064 -9279.5858 -7418.8979 303.4980 -255.6917 -237.3830 30431.5663 128.5354 172.0885
ENERGY: 1500000 2.3773 6.0179 1.2006 0.0000 -10676.3613 1442.6097 0.0000 0.0000 1795.9337 -7428.2220 304.6023 -9224.1557 -7426.1880 302.7962 -8.3596 131.8621 30230.7025 153.5780 206.8547
TCL: Running FEP window   2: Lambda1 0.05   Lambda2 0.1    [dLambda 0.05  ]
TCL: Setting parameter firsttimestep to 0
TCL: Setting parameter alchLambda to 0.05
Info: NONBONDED TABLE R-SQUARED SPACING: 0.0625
Info: NONBONDED TABLE SIZE: 705 POINTS
TCL: Setting parameter alchLambda2 to 0.1
Info: NONBONDED TABLE R-SQUARED SPACING: 0.0625
Info: NONBONDED TABLE SIZE: 705 POINTS
TCL: Running for 1500000 steps
ETITLE: TS BOND ANGLE DIHED IMPRP ELECT VDW BOUNDARY MISC KINETIC TOTAL TEMP POTENTIAL TOTALAVG TEMPAVG PRESSURE GPRESSURE VOLUME PRESSAVG GPRESSAVG
ENERGY: 0 2.3773 6.0179 1.2006 0.0000 -10676.3611 1443.0255 0.0000 0.0000 1795.0752 -7428.6646 304.4567 -9223.7398 -7428.6646 304.4567 30.3573 137.1029 30230.7025 30.3573 137.1029
ENERGY: 300000 3.5714 10.0893 3.5596 0.0000 -10591.3452 1422.5349 0.0000 0.0000 1742.7680 -7408.8221 295.5850 -9151.5901 -7437.2189 298.1682 -210.1219 -166.1707 30405.2033 91.5042 164.3507
ENERGY: 600000 3.9385 10.1723 2.6907 0.0000 -10496.9623 1330.7570 0.0000 0.0000 1750.7658 -7398.6380 296.9415 -9149.4039 -7429.8556 299.1670 -970.7110 -918.4282 30577.0479 -209.2537 -141.9356
ENERGY: 900000 3.0295 6.5491 3.2534 0.0000 -10632.3992 1404.0489 0.0000 0.0000 1779.0469 -7436.4715 301.7382 -9215.5183 -7431.1155 298.9810 -396.3138 -271.7149 30371.8876 -193.8982 -127.2003
ENERGY: 1200000 2.7900 8.1377 0.7239 0.0000 -10711.0734 1457.5809 0.0000 0.0000 1765.7234 -7476.1175 299.4784 -9241.8409 -7436.7809 298.6954 -51.6728 47.3670 30529.6198 -166.0187 -94.3101
ENERGY: 1500000 2.8911 7.7220 0.8755 0.0000 -10787.3537 1514.6707 0.0000 0.0000 1737.4707 -7523.7237 294.6866 -9261.1943 -7436.1934 298.1043 336.6574 343.6415 30175.9472 -152.0432 -86.3803
TCL: Running FEP window   3: Lambda1 0.1    Lambda2 0.15000000000000002 [dLambda 0.05000000000000002]
TCL: Setting parameter firsttimestep to 0
TCL: Setting parameter alchLambda to 0.1
Info: NONBONDED TABLE R-SQUARED SPACING: 0.0625
Info: NONBONDED TABLE SIZE: 705 POINTS
TCL: Setting parameter alchLambda2 to 0.15000000000000002
Info: NONBONDED TABLE R-SQUARED SPACING: 0.0625
Info: NONBONDED TABLE SIZE: 705 POINTS
TCL: Running for 1500000 steps
ETITLE: TS BOND ANGLE DIHED IMPRP ELECT VDW BOUNDARY MISC KINETIC TOTAL TEMP POTENTIAL TOTALAVG TEMPAVG PRESSURE GPRESSURE VOLUME PRESSAVG GPRESSAVG
ENERGY: 0 2.8911 7.7220 0.8755 0.0000 -10787.3530 1515.8323 0.0000 0.0000 1736.5671 -7523.4649 294.5333 -9260.0320 -7523.4649 294.5333 262.7900 349.1496 30175.9472 262.7900 349.1496
ENERGY: 300000 5.9986 6.2578 4.8690 0.0000 -10738.5808 1451.7983 0.0000 0.0000 1742.6075 -7527.0496 295.5578 -9269.6572 -7460.0103 300.5370 -142.7889 -18.5616 30168.7124 -48.0230 25.9962
ENERGY: 600000 4.4734 8.3744 1.7895 0.0000 -10691.2583 1464.6495 0.0000 0.0000 1829.5247 -7382.4468 310.2995 -9211.9715 -7436.6213 302.3543 -113.6977 -52.4707 30445.7601 32.4699 110.1037
ENERGY: 900000 1.7559 8.1780 4.4859 0.0000 -10742.0383 1530.6060 0.0000 0.0000 1818.4729 -7378.5395 308.4251 -9197.0124 -7416.2915 302.5711 979.1403 1023.3188 30072.5381 21.0292 92.4677
ENERGY: 1200000 4.0341 8.3043 2.2057 0.0000 -10706.8740 1504.1155 0.0000 0.0000 1809.4691 -7378.7453 306.8980 -9188.2144 -7408.9265 302.3672 243.1149 303.6569 30755.4927 -6.4258 61.5101
ENERGY: 1500000 2.7453 5.5841 1.2654 0.0000 -10565.1616 1371.6714 0.0000 0.0000 1729.4787 -7454.4168 293.3311 -9183.8955 -7409.9613 301.9448 -535.3973 -555.9905 30398.9415 -26.2567 34.0219
TCL: Running FEP window   4: Lambda1 0.15000000000000002 Lambda2 0.2    [dLambda 0.04999999999999999]
TCL: Setting parameter firsttimestep to 0
TCL: Setting parameter alchLambda to 0.15000000000000002
Info: NONBONDED TABLE R-SQUARED SPACING: 0.0625
Info: NONBONDED TABLE SIZE: 705 POINTS
TCL: Setting parameter alchLambda2 to 0.2
Info: NONBONDED TABLE R-SQUARED SPACING: 0.0625
Info: NONBONDED TABLE SIZE: 705 POINTS
TCL: Running for 1500000 steps
ETITLE: TS BOND ANGLE DIHED IMPRP ELECT VDW BOUNDARY MISC KINETIC TOTAL TEMP POTENTIAL TOTALAVG TEMPAVG PRESSURE GPRESSURE VOLUME PRESSAVG GPRESSAVG
ENERGY: 0 2.7453 5.5841 1.2654 0.0000 -10565.1615 1372.3537 0.0000 0.0000 1728.6288 -7454.5841 293.1869 -9183.2129 -7454.5841 293.1869 -623.3558 -549.9697 30398.9415 -623.3558 -549.9697
ENERGY: 300000 3.3241 9.0348 2.7138 0.0000 -10673.5100 1494.9934 0.0000 0.0000 1782.9287 -7380.5152 302.3965 -9163.4439 -7468.6869 297.7681 390.1839 433.2885 30353.1516 -72.8632 1.7465
ENERGY: 600000 3.2021 8.5677 1.9738 0.0000 -10713.6349 1490.7220 0.0000 0.0000 1785.4187 -7423.7506 302.8189 -9209.1693 -7452.8374 300.4531 159.2016 324.9889 30364.3295 -22.3493 76.4031
ENERGY: 900000 4.2462 13.4987 4.0484 0.0000 -10652.6237 1380.9648 0.0000 0.0000 1792.2289 -7457.6367 303.9739 -9249.8656 -7445.4350 301.0282 -804.2129 -714.4496 30441.3542 -99.6732 -12.1153
ENERGY: 1200000 4.4183 12.8615 3.4493 0.0000 -10594.1989 1335.5342 0.0000 0.0000 1743.1112 -7494.8245 295.6432 -9237.9356 -7450.1317 300.1372 -1128.3677 -1035.8723 30149.8133 -188.4284 -111.5922
ENERGY: 1500000 4.0380 10.2829 2.6364 0.0000 -10631.6443 1411.6836 0.0000 0.0000 1743.5577 -7459.4458 295.7190 -9203.0035 -7440.5765 300.6339 -625.9319 -569.7685 30618.5959 -189.4800 -114.6771
TCL: Running FEP window   5: Lambda1 0.2    Lambda2 0.25   [dLambda 0.04999999999999999]
TCL: Setting parameter firsttimestep to 0
TCL: Setting parameter alchLambda to 0.2
Info: NONBONDED TABLE R-SQUARED SPACING: 0.0625
Info: NONBONDED TABLE SIZE: 705 POINTS
TCL: Setting parameter alchLambda2 to 0.25
Info: NONBONDED TABLE R-SQUARED SPACING: 0.0625
Info: NONBONDED TABLE SIZE: 705 POINTS
TCL: Running for 1500000 steps
ETITLE: TS BOND ANGLE DIHED IMPRP ELECT VDW BOUNDARY MISC KINETIC TOTAL TEMP POTENTIAL TOTALAVG TEMPAVG PRESSURE GPRESSURE VOLUME PRESSAVG GPRESSAVG
ENERGY: 0 4.0380 10.2829 2.6364 0.0000 -10631.6448 1412.7063 0.0000 0.0000 1742.6782 -7459.3030 295.5698 -9201.9812 -7459.3030 295.5698 -640.9630 -560.3825 30618.5959 -640.9630 -560.3825
ENERGY: 300000 2.8025 9.4435 2.7693 0.0000 -10600.2616 1404.2792 0.0000 0.0000 1770.0735 -7410.8936 300.2162 -9180.9671 -7444.2291 300.0998 -402.7652 -281.6228 30247.6273 -136.1711 -49.2365
ENERGY: 600000 5.9554 9.0358 3.2621 0.0000 -10720.1505 1476.3742 0.0000 0.0000 1840.9030 -7384.6199 312.2294 -9225.5228 -7433.6212 301.8513 213.6568 302.8572 30104.3990 -4.1567 69.2764
ENERGY: 900000 4.8197 7.3031 3.4547 0.0000 -10678.5930 1493.9019 0.0000 0.0000 1781.3611 -7387.7525 302.1307 -9169.1136 -7438.9898 300.4458 551.0949 612.3469 30248.4888 220.2273 279.6894
ENERGY: 1200000 2.7507 7.3551 3.7875 0.0000 -10656.0657 1505.9468 0.0000 0.0000 1789.9970 -7346.2286 303.5954 -9136.2256 -7434.3078 300.6196 531.4700 611.7558 30309.4479 229.1038 285.6838
ENERGY: 1500000 2.7599 9.8624 3.0363 0.0000 -10701.5654 1527.3059 0.0000 0.0000 1746.3305 -7412.2705 296.1892 -9158.6010 -7425.9639 300.7137 801.7467 842.5533 30252.5902 248.3622 302.1907
TCL: Running FEP window   6: Lambda1 0.25   Lambda2 0.3    [dLambda 0.04999999999999999]
TCL: Setting parameter firsttimestep to 0
TCL: Setting parameter alchLambda to 0.25
Info: NONBONDED TABLE R-SQUARED SPACING: 0.0625
Info: NONBONDED TABLE SIZE: 705 POINTS
TCL: Setting parameter alchLambda2 to 0.3
Info: NONBONDED TABLE R-SQUARED SPACING: 0.0625
Info: NONBONDED TABLE SIZE: 705 POINTS
TCL: Running for 1500000 steps
ETITLE: TS BOND ANGLE DIHED IMPRP ELECT VDW BOUNDARY MISC KINETIC TOTAL TEMP POTENTIAL TOTALAVG TEMPAVG PRESSURE GPRESSURE VOLUME PRESSAVG GPRESSAVG
ENERGY: 0 2.7599 9.8624 3.0363 0.0000 -10701.5656 1527.3465 0.0000 0.0000 1745.4191 -7413.1415 296.0347 -9158.5606 -7413.1415 296.0347 751.9626 846.2744 30252.5902 751.9626 846.2744
ENERGY: 300000 7.4816 14.7458 3.6888 0.0000 -10448.4925 1302.4607 0.0000 0.0000 1789.8398 -7330.2758 303.5687 -9120.1156 -7382.4604 302.8856 -951.1335 -900.1228 30296.0938 12.0019 73.3484
ENERGY: 600000 2.8936 8.5667 1.7350 0.0000 -10649.9379 1419.4605 0.0000 0.0000 1790.7686 -7426.5135 303.7262 -9217.2822 -7386.8184 302.3548 -287.7678 -237.9785 30396.8216 65.6869 132.3996
ENERGY: 900000 4.4350 12.2156 5.7864 0.0000 -10662.1026 1445.3771 0.0000 0.0000 1760.7073 -7433.5812 298.6277 -9194.2885 -7389.1582 302.7649 -222.1920 -165.8108 30461.3903 58.8003 110.8369
ENERGY: 1200000 3.4588 5.4642 2.9830 0.0000 -10636.4722 1477.4835 0.0000 0.0000 1821.6599 -7325.4228 308.9656 -9147.0827 -7371.4228 303.7697 274.3435 350.5275 30486.9903 34.3990 93.2352
ENERGY: 1500000 6.8669 6.4677 3.1494 0.0000 -10624.6315 1431.4934 0.0000 0.0000 1761.5725 -7415.0817 298.7744 -9176.6541 -7381.6166 303.8907 -122.4311 -52.7341 30722.6758 6.4756 63.1379
TCL: Running FEP window   7: Lambda1 0.3    Lambda2 0.35   [dLambda 0.04999999999999999]
TCL: Setting parameter firsttimestep to 0
TCL: Setting parameter alchLambda to 0.3
Info: NONBONDED TABLE R-SQUARED SPACING: 0.0625
Info: NONBONDED TABLE SIZE: 705 POINTS
TCL: Setting parameter alchLambda2 to 0.35
Info: NONBONDED TABLE R-SQUARED SPACING: 0.0625
Info: NONBONDED TABLE SIZE: 705 POINTS
TCL: Running for 1500000 steps
ETITLE: TS BOND ANGLE DIHED IMPRP ELECT VDW BOUNDARY MISC KINETIC TOTAL TEMP POTENTIAL TOTALAVG TEMPAVG PRESSURE GPRESSURE VOLUME PRESSAVG GPRESSAVG
ENERGY: 0 6.8669 6.4677 3.1494 0.0000 -10624.6303 1431.1706 0.0000 0.0000 1760.6847 -7416.2910 298.6238 -9176.9757 -7416.2910 298.6238 -133.1151 -48.4728 30722.6758 -133.1151 -48.4728
ENERGY: 300000 2.6611 6.0592 0.9780 0.0000 -10643.6411 1444.9126 0.0000 0.0000 1784.4471 -7404.5831 302.6541 -9189.0302 -7437.0566 299.6252 249.1530 377.4355 29604.8469 133.1556 231.8096
ENERGY: 600000 5.0115 9.9223 2.5345 0.0000 -10700.5861 1529.3408 0.0000 0.0000 1823.3659 -7330.4110 309.2550 -9153.7769 -7398.8688 302.6259 704.9588 756.8386 30457.8759 199.9698 278.3780
ENERGY: 900000 3.3408 6.8383 1.2219 0.0000 -10724.4950 1497.6012 0.0000 0.0000 1751.0022 -7464.4906 296.9816 -9215.4928 -7399.8013 302.4305 184.1205 316.8785 30573.3705 53.6128 142.7630
ENERGY: 1200000 2.4500 9.0804 3.9443 0.0000 -10459.2042 1292.6148 0.0000 0.0000 1783.0306 -7368.0840 302.4138 -9151.1146 -7401.3096 301.6720 -1346.0813 -1282.1030 31216.0175 -96.5643 -16.0209
ENERGY: 1500000 1.5087 9.7234 2.0193 0.0000 -10789.5377 1469.4795 0.0000 0.0000 1781.5530 -7525.2538 302.1632 -9306.8068 -7408.7906 300.5260 -179.5059 -105.2640 30355.3481 -83.3272 -4.7852
TCL: Running FEP window   8: Lambda1 0.35   Lambda2 0.39999999999999997 [dLambda 0.04999999999999999]
TCL: Setting parameter firsttimestep to 0
TCL: Setting parameter alchLambda to 0.35
Info: NONBONDED TABLE R-SQUARED SPACING: 0.0625
Info: NONBONDED TABLE SIZE: 705 POINTS
TCL: Setting parameter alchLambda2 to 0.39999999999999997
Info: NONBONDED TABLE R-SQUARED SPACING: 0.0625
Info: NONBONDED TABLE SIZE: 705 POINTS
TCL: Running for 1500000 steps
ETITLE: TS BOND ANGLE DIHED IMPRP ELECT VDW BOUNDARY MISC KINETIC TOTAL TEMP POTENTIAL TOTALAVG TEMPAVG PRESSURE GPRESSURE VOLUME PRESSAVG GPRESSAVG
ENERGY: 0 1.5087 9.7234 2.0193 0.0000 -10789.5388 1470.0906 0.0000 0.0000 1780.7114 -7525.4854 302.0205 -9306.1968 -7525.4854 302.0205 -158.5039 -94.8871 30355.3481 -158.5039 -94.8871
ENERGY: 300000 6.1427 12.1094 2.0219 0.0000 -10690.8827 1447.5921 0.0000 0.0000 1767.7985 -7455.2180 299.8304 -9223.0165 -7465.2985 297.5816 -57.7481 -18.2632 30199.2038 -376.8797 -327.8325
ENERGY: 600000 4.2742 9.1479 3.3801 0.0000 -10571.7004 1388.6739 0.0000 0.0000 1833.8056 -7332.4186 311.0256 -9166.2243 -7441.7202 300.4031 -484.7049 -494.7466 30730.3464 -410.2501 -359.4594
ENERGY: 900000 6.5695 10.9967 3.9609 0.0000 -10633.0907 1410.3401 0.0000 0.0000 1764.0742 -7437.1493 299.1987 -9201.2235 -7426.2126 301.9363 -350.1163 -228.4582 30230.4518 -372.3508 -311.3937
ENERGY: 1200000 4.7945 8.0209 1.9636 0.0000 -10672.2822 1420.3862 0.0000 0.0000 1773.3320 -7463.7850 300.7689 -9237.1170 -7430.5575 301.4870 -453.3700 -399.2955 30344.4979 -394.6859 -329.1661
ENERGY: 1500000 7.5621 9.4873 5.3407 0.0000 -10577.4894 1419.6768 0.0000 0.0000 1766.9866 -7368.4358 299.6927 -9135.4225 -7423.9836 301.8143 -62.0772 19.3649 30347.9963 -336.0326 -269.4770
TCL: Running FEP window   9: Lambda1 0.39999999999999997 Lambda2 0.44999999999999996 [dLambda 0.04999999999999999]
TCL: Setting parameter firsttimestep to 0
TCL: Setting parameter alchLambda to 0.39999999999999997
Info: NONBONDED TABLE R-SQUARED SPACING: 0.0625
Info: NONBONDED TABLE SIZE: 705 POINTS
TCL: Setting parameter alchLambda2 to 0.44999999999999996
Info: NONBONDED TABLE R-SQUARED SPACING: 0.0625
Info: NONBONDED TABLE SIZE: 705 POINTS
TCL: Running for 1500000 steps
ETITLE: TS BOND ANGLE DIHED IMPRP ELECT VDW BOUNDARY MISC KINETIC TOTAL TEMP POTENTIAL TOTALAVG TEMPAVG PRESSURE GPRESSURE VOLUME PRESSAVG GPRESSAVG
ENERGY: 0 7.5622 9.4873 5.3407 0.0000 -10577.4893 1419.2432 0.0000 0.0000 1766.0963 -7369.7597 299.5416 -9135.8560 -7369.7597 299.5416 -60.4600 20.5084 30347.9963 -60.4600 20.5084
ENERGY: 300000 4.3229 9.6630 2.2459 0.0000 -10564.6048 1346.4264 0.0000 0.0000 1720.2415 -7481.7050 291.7644 -9201.9465 -7437.5714 295.4395 -774.1622 -613.1153 30031.0406 -396.2102 -308.9392
ENERGY: 600000 3.2467 9.5079 5.2769 0.0000 -10662.7615 1479.6042 0.0000 0.0000 1780.1819 -7384.9439 301.9307 -9165.1258 -7429.5932 296.8316 203.3076 254.5085 30188.2881 -333.0807 -260.1365
ENERGY: 900000 3.5183 8.0590 2.3295 0.0000 -10821.4839 1526.7867 0.0000 0.0000 1819.9420 -7460.8482 308.6742 -9280.7902 -7410.9133 298.5184 498.5271 593.5057 30207.9933 -244.2951 -167.7476
ENERGY: 1200000 6.9762 5.4725 1.6626 0.0000 -10542.3437 1394.7081 0.0000 0.0000 1758.4436 -7375.0807 298.2437 -9133.5243 -7417.6272 297.7351 -432.6547 -358.4634 30588.2481 -205.7335 -125.8261
ENERGY: 1500000 5.3570 4.8170 1.8784 0.0000 -10588.5339 1438.8401 0.0000 0.0000 1733.4505 -7404.1909 294.0047 -9137.6414 -7412.5862 298.0561 40.5239 106.2145 30511.3363 -180.5431 -101.5758
TCL: Running FEP window  10: Lambda1 0.44999999999999996 Lambda2 0.49999999999999994 [dLambda 0.04999999999999999]
TCL: Setting parameter firsttimestep to 0
TCL: Setting parameter alchLambda to 0.44999999999999996
Info: NONBONDED TABLE R-SQUARED SPACING: 0.0625
Info: NONBONDED TABLE SIZE: 705 POINTS
TCL: Setting parameter alchLambda2 to 0.49999999999999994
Info: NONBONDED TABLE R-SQUARED SPACING: 0.0625
Info: NONBONDED TABLE SIZE: 705 POINTS
TCL: Running for 1500000 steps
ETITLE: TS BOND ANGLE DIHED IMPRP ELECT VDW BOUNDARY MISC KINETIC TOTAL TEMP POTENTIAL TOTALAVG TEMPAVG PRESSURE GPRESSURE VOLUME PRESSAVG GPRESSAVG
ENERGY: 0 5.3570 4.8170 1.8784 0.0000 -10588.5345 1439.6762 0.0000 0.0000 1732.5740 -7404.2319 293.8560 -9136.8059 -7404.2319 293.8560 24.4871 116.8128 30511.3363 24.4871 116.8128
ENERGY: 300000 3.4921 9.3593 1.0724 0.0000 -10614.8342 1413.1710 0.0000 0.0000 1672.5346 -7515.2049 283.6730 -9187.7394 -7426.6290 298.0203 41.7258 16.1666 30065.6289 111.5984 145.7988
ENERGY: 600000 1.8890 6.0027 4.0744 0.0000 -10706.3515 1484.0145 0.0000 0.0000 1825.1232 -7385.2477 309.5530 -9210.3709 -7418.5233 299.4485 352.8163 396.6508 30587.3241 -7.6905 35.8845
ENERGY: 900000 5.3231 6.8247 1.4891 0.0000 -10686.9648 1416.6480 0.0000 0.0000 1723.7303 -7532.9496 292.3561 -9256.6799 -7438.2043 297.8727 -294.1892 -257.3765 30204.2357 41.4163 84.5174
ENERGY: 1200000 1.8326 6.7269 4.3020 0.0000 -10646.6950 1402.3587 0.0000 0.0000 1751.2336 -7480.2412 297.0208 -9231.4748 -7440.4054 298.2908 -418.8113 -319.1463 30347.5955 71.8589 124.9109
ENERGY: 1500000 3.3586 8.8658 1.3782 0.0000 -10758.1096 1469.4177 0.0000 0.0000 1792.0095 -7483.0798 303.9367 -9275.0893 -7442.8257 298.9180 139.7656 178.6000 30187.3321 39.4939 92.8543
TCL: Running FEP window  11: Lambda1 0.49999999999999994 Lambda2 0.5499999999999999 [dLambda 0.04999999999999999]
TCL: Setting parameter firsttimestep to 0
TCL: Setting parameter alchLambda to 0.49999999999999994
Info: NONBONDED TABLE R-SQUARED SPACING: 0.0625
Info: NONBONDED TABLE SIZE: 705 POINTS
TCL: Setting parameter alchLambda2 to 0.5499999999999999
Info: NONBONDED TABLE R-SQUARED SPACING: 0.0625
Info: NONBONDED TABLE SIZE: 705 POINTS
TCL: Running for 1500000 steps
ETITLE: TS BOND ANGLE DIHED IMPRP ELECT VDW BOUNDARY MISC KINETIC TOTAL TEMP POTENTIAL TOTALAVG TEMPAVG PRESSURE GPRESSURE VOLUME PRESSAVG GPRESSAVG
ENERGY: 0 3.3586 8.8658 1.3782 0.0000 -10758.1109 1469.3169 0.0000 0.0000 1791.1124 -7484.0790 303.7845 -9275.1914 -7484.0790 303.7845 93.7938 186.8987 30187.3321 93.7938 186.8987
ENERGY: 300000 6.6589 8.6594 1.3063 0.0000 -10730.9382 1465.4948 0.0000 0.0000 1762.8562 -7485.9627 298.9921 -9248.8188 -7484.3972 300.0360 269.1404 302.8213 30190.3274 86.3290 133.6763
ENERGY: 600000 4.5169 6.0117 3.6816 0.0000 -10683.0341 1432.3375 0.0000 0.0000 1775.2928 -7461.1936 301.1014 -9236.4864 -7437.1787 302.1471 210.5237 287.7548 29718.5949 306.6142 346.1499
ENERGY: 900000 1.7434 6.1555 3.0875 0.0000 -10563.7358 1363.2461 0.0000 0.0000 1776.2096 -7413.2937 301.2569 -9189.5033 -7446.4941 299.7480 -1023.1148 -907.8294 31199.2684 -2.0273 41.5988
ENERGY: 1200000 2.8185 7.6065 1.4469 0.0000 -10783.5716 1529.0184 0.0000 0.0000 1776.1906 -7466.4908 301.2537 -9242.6814 -7438.9507 299.9332 553.4481 657.3779 30110.3927 17.1597 67.5878
ENERGY: 1500000 2.4637 7.2202 3.8401 0.0000 -10684.1977 1468.0452 0.0000 0.0000 1781.4622 -7421.1664 302.1478 -9202.6286 -7442.5180 299.7617 195.7813 285.2161 30145.7829 26.3894 72.1861
TCL: Running FEP window  12: Lambda1 0.5499999999999999 Lambda2 0.6    [dLambda 0.050000000000000044]
TCL: Setting parameter firsttimestep to 0
TCL: Setting parameter alchLambda to 0.5499999999999999
Info: NONBONDED TABLE R-SQUARED SPACING: 0.0625
Info: NONBONDED TABLE SIZE: 705 POINTS
TCL: Setting parameter alchLambda2 to 0.6
Info: NONBONDED TABLE R-SQUARED SPACING: 0.0625
Info: NONBONDED TABLE SIZE: 705 POINTS
TCL: Running for 1500000 steps
ETITLE: TS BOND ANGLE DIHED IMPRP ELECT VDW BOUNDARY MISC KINETIC TOTAL TEMP POTENTIAL TOTALAVG TEMPAVG PRESSURE GPRESSURE VOLUME PRESSAVG GPRESSAVG
ENERGY: 0 2.4637 7.2201 3.8401 0.0000 -10683.6635 1468.3991 0.0000 0.0000 1780.5848 -7421.1557 301.9990 -9201.7405 -7421.1557 301.9990 220.1199 300.0890 30145.7829 220.1199 300.0890
ENERGY: 300000 6.1603 10.3331 4.5012 0.0000 -10703.5143 1489.1286 0.0000 0.0000 1770.0940 -7423.2971 300.2197 -9193.3911 -7399.2830 300.4859 102.4076 175.4746 30441.6419 138.0985 219.6572
ENERGY: 600000 8.1025 7.6238 7.1648 0.0000 -10623.0893 1441.3037 0.0000 0.0000 1735.3393 -7423.5552 294.3251 -9158.8944 -7431.7017 298.9473 -145.8100 -92.4730 30373.4811 6.0661 71.3010
ENERGY: 900000 1.0653 5.2364 1.2698 0.0000 -10602.6901 1438.0261 0.0000 0.0000 1778.8991 -7378.1934 301.7131 -9157.0925 -7415.0871 299.4859 175.8377 239.9226 30486.2818 46.7610 116.0161
ENERGY: 1200000 4.0954 8.7886 6.5144 0.0000 -10584.2518 1459.9084 0.0000 0.0000 1769.5818 -7335.3632 300.1328 -9104.9450 -7406.9488 299.9504 272.1842 288.4563 30610.4148 -23.0918 43.9126
ENERGY: 1500000 1.9849 10.2780 3.2232 0.0000 -10548.7212 1394.4563 0.0000 0.0000 1756.0204 -7382.7585 297.8327 -9138.7789 -7408.7289 299.1108 -247.6321 -163.9647 30481.9563 -144.4701 -76.3861
TCL: Running FEP window  13: Lambda1 0.6    Lambda2 0.65   [dLambda 0.050000000000000044]
TCL: Setting parameter firsttimestep to 0
TCL: Setting parameter alchLambda to 0.6
Info: NONBONDED TABLE R-SQUARED SPACING: 0.0625
Info: NONBONDED TABLE SIZE: 705 POINTS
TCL: Setting parameter alchLambda2 to 0.65
Info: NONBONDED TABLE R-SQUARED SPACING: 0.0625
Info: NONBONDED TABLE SIZE: 705 POINTS
TCL: Running for 1500000 steps
ETITLE: TS BOND ANGLE DIHED IMPRP ELECT VDW BOUNDARY MISC KINETIC TOTAL TEMP POTENTIAL TOTALAVG TEMPAVG PRESSURE GPRESSURE VOLUME PRESSAVG GPRESSAVG
ENERGY: 0 1.9849 10.2780 3.2232 0.0000 -10549.1883 1395.0241 0.0000 0.0000 1755.1252 -7383.5529 297.6809 -9138.6781 -7383.5529 297.6809 -229.9986 -149.3440 30481.9563 -229.9986 -149.3440
ENERGY: 300000 5.0651 11.0495 2.2743 0.0000 -10550.6587 1407.2729 0.0000 0.0000 1794.2761 -7330.7208 304.3211 -9124.9969 -7334.5565 301.2808 -138.3162 -1.4897 30325.3825 -82.3951 -5.8927
ENERGY: 600000 0.9102 8.1498 2.9973 0.0000 -10713.2105 1497.3980 0.0000 0.0000 1744.3658 -7459.3894 295.8560 -9203.7552 -7373.2360 300.1134 437.7699 472.1379 30870.7083 -55.1144 14.5091
ENERGY: 900000 4.5732 6.9777 4.4453 0.0000 -10690.2172 1442.4268 0.0000 0.0000 1810.6710 -7421.1231 307.1018 -9231.7941 -7395.3968 300.2351 207.8089 195.3311 30070.4798 32.2124 88.7541
ENERGY: 1200000 3.6817 9.1338 1.5172 0.0000 -10592.7155 1413.0755 0.0000 0.0000 1792.0843 -7373.2229 303.9494 -9165.3072 -7403.3921 300.1919 -260.7253 -144.8410 30475.1118 29.4707 88.6527
ENERGY: 1500000 2.8946 9.2802 1.3695 0.0000 -10543.3380 1391.6892 0.0000 0.0000 1818.6550 -7319.4495 308.4560 -9138.1045 -7409.1361 300.1502 -336.1701 -276.2734 30935.6652 -31.3969 28.3535
TCL: Running FEP window  14: Lambda1 0.65   Lambda2 0.7000000000000001 [dLambda 0.050000000000000044]
TCL: Setting parameter firsttimestep to 0
TCL: Setting parameter alchLambda to 0.65
Info: NONBONDED TABLE R-SQUARED SPACING: 0.0625
Info: NONBONDED TABLE SIZE: 705 POINTS
TCL: Setting parameter alchLambda2 to 0.7000000000000001
Info: NONBONDED TABLE R-SQUARED SPACING: 0.0625
Info: NONBONDED TABLE SIZE: 705 POINTS
TCL: Running for 1500000 steps
ETITLE: TS BOND ANGLE DIHED IMPRP ELECT VDW BOUNDARY MISC KINETIC TOTAL TEMP POTENTIAL TOTALAVG TEMPAVG PRESSURE GPRESSURE VOLUME PRESSAVG GPRESSAVG
ENERGY: 0 2.8946 9.2802 1.3695 0.0000 -10543.6543 1391.2607 0.0000 0.0000 1817.7709 -7321.0785 308.3060 -9138.8493 -7321.0785 308.3060 -342.5902 -271.0974 30935.6652 -342.5902 -271.0974
ENERGY: 300000 2.8915 8.0110 1.7274 0.0000 -10797.9943 1481.1505 0.0000 0.0000 1748.6288 -7555.5850 296.5791 -9304.2138 -7437.6919 301.2392 11.1064 39.8999 30499.3463 -137.8990 -79.1055
ENERGY: 600000 3.5252 11.0336 3.7931 0.0000 -10714.7090 1442.9688 0.0000 0.0000 1715.4757 -7537.9126 290.9561 -9253.3884 -7452.3451 300.4256 -178.5259 -124.6462 30685.1024 -79.4271 -8.9322
ENERGY: 900000 1.7734 11.7698 2.5728 0.0000 -10664.7250 1440.4409 0.0000 0.0000 1807.5569 -7400.6113 306.5737 -9208.1682 -7444.7027 301.6463 131.1187 195.7395 29915.8873 29.8012 88.4033
ENERGY: 1200000 4.5994 6.5825 2.2284 0.0000 -10582.9559 1361.3240 0.0000 0.0000 1727.5342 -7480.6874 293.0013 -9208.2216 -7444.1798 301.4711 -820.0795 -753.1172 30655.7921 28.2273 83.0760
ENERGY: 1500000 5.9422 10.4297 5.6845 0.0000 -10637.5847 1386.3176 0.0000 0.0000 1756.6796 -7472.5310 297.9445 -9229.2106 -7437.5119 301.4310 -612.8041 -598.4386 30490.8769 14.0410 70.5772
TCL: Running FEP window  15: Lambda1 0.7000000000000001 Lambda2 0.7500000000000001 [dLambda 0.050000000000000044]
TCL: Setting parameter firsttimestep to 0
TCL: Setting parameter alchLambda to 0.7000000000000001
Info: NONBONDED TABLE R-SQUARED SPACING: 0.0625
Info: NONBONDED TABLE SIZE: 705 POINTS
TCL: Setting parameter alchLambda2 to 0.7500000000000001
Info: NONBONDED TABLE R-SQUARED SPACING: 0.0625
Info: NONBONDED TABLE SIZE: 705 POINTS
TCL: Running for 1500000 steps
ETITLE: TS BOND ANGLE DIHED IMPRP ELECT VDW BOUNDARY MISC KINETIC TOTAL TEMP POTENTIAL TOTALAVG TEMPAVG PRESSURE GPRESSURE VOLUME PRESSAVG GPRESSAVG
ENERGY: 0 5.9422 10.4297 5.6845 0.0000 -10637.6418 1386.1470 0.0000 0.0000 1755.8123 -7473.6260 297.7974 -9229.4383 -7473.6260 297.7974 -662.6920 -585.4904 30490.8769 -662.6920 -585.4904
ENERGY: 300000 2.3955 7.0148 1.6162 0.0000 -10696.6515 1446.8340 0.0000 0.0000 1817.9943 -7420.7967 308.3439 -9238.7910 -7416.9175 303.7667 6.3416 88.5304 30380.4823 -16.7569 34.6711
ENERGY: 600000 2.1570 9.5725 4.0496 0.0000 -10710.4413 1461.4911 0.0000 0.0000 1778.5440 -7454.6270 301.6529 -9233.1711 -7429.7987 303.3813 234.7914 291.9795 30187.0479 64.7162 123.1476
ENERGY: 900000 2.6534 7.7925 3.7361 0.0000 -10765.2903 1488.4366 0.0000 0.0000 1744.8908 -7517.7810 295.9451 -9262.6717 -7429.9599 302.4047 123.0503 161.5980 30520.0710 45.7763 108.9430
ENERGY: 1200000 5.3974 7.0536 0.9034 0.0000 -10604.7141 1412.3134 0.0000 0.0000 1772.9933 -7406.0530 300.7114 -9179.0462 -7432.9182 301.8073 -356.5465 -296.4718 30473.3265 -20.0522 43.4923
ENERGY: 1500000 3.4992 6.8855 1.4384 0.0000 -10483.8422 1340.9087 0.0000 0.0000 1832.8127 -7298.2976 310.8572 -9131.1104 -7422.5324 301.9851 -606.7159 -520.6072 30552.1492 -52.3792 16.6150
TCL: Running FEP window  16: Lambda1 0.7500000000000001 Lambda2 0.8000000000000002 [dLambda 0.050000000000000044]
TCL: Setting parameter firsttimestep to 0
TCL: Setting parameter alchLambda to 0.7500000000000001
Info: NONBONDED TABLE R-SQUARED SPACING: 0.0625
Info: NONBONDED TABLE SIZE: 705 POINTS
TCL: Setting parameter alchLambda2 to 0.8000000000000002
Info: NONBONDED TABLE R-SQUARED SPACING: 0.0625
Info: NONBONDED TABLE SIZE: 705 POINTS
TCL: Running for 1500000 steps
ETITLE: TS BOND ANGLE DIHED IMPRP ELECT VDW BOUNDARY MISC KINETIC TOTAL TEMP POTENTIAL TOTALAVG TEMPAVG PRESSURE GPRESSURE VOLUME PRESSAVG GPRESSAVG
ENERGY: 0 3.4992 6.8855 1.4384 0.0000 -10485.1227 1341.5936 0.0000 0.0000 1831.9009 -7299.8050 310.7026 -9131.7060 -7299.8050 310.7026 -603.9532 -507.0985 30552.1492 -603.9532 -507.0985
ENERGY: 300000 1.5167 7.2558 3.6072 0.0000 -10820.7661 1597.3446 0.0000 0.0000 1789.3147 -7421.7270 303.4797 -9211.0418 -7364.1698 302.1877 1593.3200 1603.6446 29889.2036 386.2801 431.3279
ENERGY: 600000 4.9154 10.9429 3.1815 0.0000 -10723.9685 1501.7147 0.0000 0.0000 1820.0586 -7383.1554 308.6940 -9203.2140 -7382.9136 302.4506 633.4640 669.1563 30104.8790 278.6280 319.0458
ENERGY: 900000 5.5021 7.4010 1.0298 0.0000 -10783.9855 1532.4718 0.0000 0.0000 1709.3766 -7528.2042 289.9216 -9237.5808 -7400.3337 299.9736 441.6249 493.3729 30208.6021 217.1699 257.8824
ENERGY: 1200000 8.8848 8.5185 1.5388 0.0000 -10547.9068 1353.0529 0.0000 0.0000 1780.0307 -7395.8812 301.9050 -9175.9119 -7398.6607 300.5993 -661.2733 -677.4714 30861.4474 48.4150 90.5383
ENERGY: 1500000 2.1005 10.4200 2.7037 0.0000 -10774.9836 1471.6436 0.0000 0.0000 1724.5686 -7563.5473 292.4983 -9288.1159 -7410.9557 300.2654 -153.2606 -68.3578 30492.5969 2.8687 44.0741
TCL: Running FEP window  17: Lambda1 0.8000000000000002 Lambda2 0.8500000000000002 [dLambda 0.050000000000000044]
TCL: Setting parameter firsttimestep to 0
TCL: Setting parameter alchLambda to 0.8000000000000002
Info: NONBONDED TABLE R-SQUARED SPACING: 0.0625
Info: NONBONDED TABLE SIZE: 705 POINTS
TCL: Setting parameter alchLambda2 to 0.8500000000000002
Info: NONBONDED TABLE R-SQUARED SPACING: 0.0625
Info: NONBONDED TABLE SIZE: 705 POINTS
TCL: Running for 1500000 steps
ETITLE: TS BOND ANGLE DIHED IMPRP ELECT VDW BOUNDARY MISC KINETIC TOTAL TEMP POTENTIAL TOTALAVG TEMPAVG PRESSURE GPRESSURE VOLUME PRESSAVG GPRESSAVG
ENERGY: 0 2.1005 10.4200 2.7037 0.0000 -10776.6895 1472.8103 0.0000 0.0000 1723.6818 -7564.9731 292.3479 -9288.6549 -7564.9731 292.3479 -148.4612 -45.5078 30492.5969 -148.4612 -45.5078
ENERGY: 300000 3.9224 9.3001 3.1024 0.0000 -10428.4870 1301.2536 0.0000 0.0000 1775.3931 -7335.5154 301.1185 -9110.9085 -7456.9528 298.1071 -1168.9083 -1179.9552 31096.4235 -188.2855 -119.1488
ENERGY: 600000 1.4864 8.6827 3.5621 0.0000 -10604.4866 1385.3183 0.0000 0.0000 1744.7225 -7460.7146 295.9165 -9205.4371 -7436.7377 299.0103 -312.4449 -225.9207 30280.9806 -180.9368 -100.0784
ENERGY: 900000 4.1193 6.0410 4.6395 0.0000 -10570.5090 1436.8543 0.0000 0.0000 1798.3280 -7320.5269 305.0084 -9118.8549 -7428.5324 298.5395 265.0196 335.0744 30223.9970 42.5321 108.5878
ENERGY: 1200000 4.0550 9.8093 3.5138 0.0000 -10647.2824 1399.6251 0.0000 0.0000 1777.4813 -7452.7979 301.4726 -9230.2791 -7439.9995 298.4798 -391.3537 -316.6712 30303.8792 4.3791 78.8090
ENERGY: 1500000 4.5001 6.3341 3.9812 0.0000 -10764.4394 1505.3154 0.0000 0.0000 1800.1501 -7444.1585 305.3174 -9244.3086 -7435.6587 299.4416 169.2526 264.7511 30666.6623 49.8871 124.2087
TCL: Running FEP window  18: Lambda1 0.8500000000000002 Lambda2 0.9000000000000002 [dLambda 0.050000000000000044]
TCL: Setting parameter firsttimestep to 0
TCL: Setting parameter alchLambda to 0.8500000000000002
Info: NONBONDED TABLE R-SQUARED SPACING: 0.0625
Info: NONBONDED TABLE SIZE: 705 POINTS
TCL: Setting parameter alchLambda2 to 0.9000000000000002
Info: NONBONDED TABLE R-SQUARED SPACING: 0.0625
Info: NONBONDED TABLE SIZE: 705 POINTS
TCL: Running for 1500000 steps
ETITLE: TS BOND ANGLE DIHED IMPRP ELECT VDW BOUNDARY MISC KINETIC TOTAL TEMP POTENTIAL TOTALAVG TEMPAVG PRESSURE GPRESSURE VOLUME PRESSAVG GPRESSAVG
ENERGY: 0 4.5001 6.3341 3.9812 0.0000 -10765.8720 1505.7488 0.0000 0.0000 1799.2703 -7446.0376 305.1682 -9245.3079 -7446.0376 305.1682 187.9945 276.3688 30666.6623 187.9945 276.3688
ENERGY: 300000 2.6721 7.5970 4.4132 0.0000 -10644.0769 1492.5107 0.0000 0.0000 1732.4913 -7404.3926 293.8420 -9136.8839 -7413.2768 301.9390 563.0862 573.2190 30526.5233 72.0695 128.2341
ENERGY: 600000 3.5361 10.0047 4.6855 0.0000 -10587.1882 1377.1347 0.0000 0.0000 1860.1822 -7331.6450 315.4993 -9191.8272 -7418.2038 304.2706 -460.1678 -441.5938 30959.1464 -27.6449 25.0799
ENERGY: 900000 3.4091 10.7633 2.6290 0.0000 -10682.3357 1452.5427 0.0000 0.0000 1729.4811 -7483.5105 293.3315 -9212.9916 -7424.5308 301.2273 341.4076 439.5503 29660.4852 59.4402 115.2403
ENERGY: 1200000 3.3570 9.1303 1.7433 0.0000 -10676.0992 1476.1410 0.0000 0.0000 1821.0134 -7364.7142 308.8560 -9185.7276 -7425.8112 301.5133 215.9289 340.3378 30358.6293 68.7950 126.2798
ENERGY: 1500000 7.2913 9.8785 4.4823 0.0000 -10761.0976 1501.2073 0.0000 0.0000 1765.2755 -7472.9626 299.4024 -9238.2381 -7436.1104 300.5052 374.8223 378.7807 30499.3898 95.5656 147.6225
TCL: Running FEP window  19: Lambda1 0.9000000000000002 Lambda2 0.9500000000000003 [dLambda 0.050000000000000044]
TCL: Setting parameter firsttimestep to 0
TCL: Setting parameter alchLambda to 0.9000000000000002
Info: NONBONDED TABLE R-SQUARED SPACING: 0.0625
Info: NONBONDED TABLE SIZE: 705 POINTS
TCL: Setting parameter alchLambda2 to 0.9500000000000003
Info: NONBONDED TABLE R-SQUARED SPACING: 0.0625
Info: NONBONDED TABLE SIZE: 705 POINTS
TCL: Running for 1500000 steps
ETITLE: TS BOND ANGLE DIHED IMPRP ELECT VDW BOUNDARY MISC KINETIC TOTAL TEMP POTENTIAL TOTALAVG TEMPAVG PRESSURE GPRESSURE VOLUME PRESSAVG GPRESSAVG
ENERGY: 0 7.2913 9.8784 4.4823 0.0000 -10762.4785 1501.4825 0.0000 0.0000 1764.3724 -7474.9715 299.2493 -9239.3439 -7474.9715 299.2493 325.7776 394.8992 30499.3898 325.7776 394.8992
ENERGY: 300000 9.3648 6.2154 2.3621 0.0000 -10670.0492 1497.4531 0.0000 0.0000 1758.2213 -7396.4325 298.2060 -9154.6538 -7434.6154 300.6391 527.9268 521.6997 30220.9869 153.6724 148.4712
ENERGY: 600000 2.7044 12.8069 1.8901 0.0000 -10647.3303 1372.5306 0.0000 0.0000 1839.2328 -7418.1656 311.9461 -9257.3984 -7431.0667 302.7697 -638.3301 -508.6696 30358.4022 91.2191 128.7077
ENERGY: 900000 3.4452 10.3075 1.4102 0.0000 -10590.3670 1404.4095 0.0000 0.0000 1784.2905 -7386.5041 302.6275 -9170.7946 -7438.2374 301.7081 -24.3363 -53.4234 30643.8479 25.4825 51.4757
ENERGY: 1200000 1.6084 6.1270 3.5955 0.0000 -10745.1559 1462.4910 0.0000 0.0000 1785.6033 -7485.7306 302.8502 -9271.3339 -7449.8101 300.9748 238.7326 302.6285 30066.4928 -29.6665 -0.2178
ENERGY: 1500000 3.6911 3.7683 2.7763 0.0000 -10682.1931 1501.4110 0.0000 0.0000 1771.8822 -7398.6642 300.5230 -9170.5464 -7435.2356 300.6389 549.0413 584.7181 30373.2716 -9.0889 19.0734
TCL: Running FEP window  20: Lambda1 0.9500000000000003 Lambda2 1.0    [dLambda 0.04999999999999971]
TCL: Setting parameter firsttimestep to 0
TCL: Setting parameter alchLambda to 0.9500000000000003
Info: NONBONDED TABLE R-SQUARED SPACING: 0.0625
Info: NONBONDED TABLE SIZE: 705 POINTS
TCL: Setting parameter alchLambda2 to 1.0
Info: NONBONDED TABLE R-SQUARED SPACING: 0.0625
Info: NONBONDED TABLE SIZE: 705 POINTS
TCL: Running for 1500000 steps
ETITLE: TS BOND ANGLE DIHED IMPRP ELECT VDW BOUNDARY MISC KINETIC TOTAL TEMP POTENTIAL TOTALAVG TEMPAVG PRESSURE GPRESSURE VOLUME PRESSAVG GPRESSAVG
ENERGY: 0 3.6911 3.7683 2.7763 0.0000 -10683.4231 1502.5933 0.0000 0.0000 1771.0317 -7399.5624 300.3787 -9170.5941 -7399.5624 300.3787 532.3310 612.3127 30373.2716 532.3310 612.3127
ENERGY: 300000 1.4804 5.3460 2.9804 0.0000 -10689.2467 1402.7099 0.0000 0.0000 1753.7306 -7522.9994 297.4444 -9276.7301 -7424.7284 298.4199 -627.2157 -530.5221 30780.9443 -301.8911 -215.2403
ENERGY: 600000 5.0020 10.2821 2.5460 0.0000 -10549.0263 1379.0956 0.0000 0.0000 1782.0373 -7370.0633 302.2454 -9152.1006 -7409.1675 299.5886 -660.7717 -587.6662 31159.0779 -353.3714 -272.6832
ENERGY: 900000 4.9802 9.5854 1.0078 0.0000 -10655.5566 1455.3416 0.0000 0.0000 1774.0680 -7410.5735 300.8937 -9184.6415 -7418.7778 297.6565 242.3318 304.8017 30123.7962 -249.9399 -181.3014
ENERGY: 1200000 3.1319 7.4307 2.1765 0.0000 -10749.6376 1481.3438 0.0000 0.0000 1758.2976 -7497.2572 298.2189 -9255.5548 -7421.5394 298.3471 3.6673 10.7204 30913.0708 -185.6824 -124.6488
ENERGY: 1500000 4.3356 9.4542 2.6997 0.0000 -10662.7894 1438.4223 0.0000 0.0000 1760.9650 -7446.9127 298.6714 -9207.8777 -7415.2859 298.8347 -83.8933 14.7956 30703.6742 -107.7431 -41.6641
TCL: Exiting due to exit command.
