Info: SIMULATION PARAMETERS:
Info: TIMESTEP               2
Info: NUMBER OF STEPS        0
Info: STEPS PER CYCLE        10
Info: PERIODIC CELL BASIS 1  31.4571 0 0
Info: PERIODIC CELL BASIS 2  0 29.7928 0
Info: PERIODIC CELL BASIS 3  0 0 31.6266
Info: PERIODIC CELL CENTER   0 0 0
Info: WRAPPING WATERS AROUND PERIODIC BOUNDARIES ON OUTPUT.
Info: WRAPPING ALL CLUSTERS AROUND PERIODIC BOUNDARIES ON OUTPUT.
Info: FIRST LDB TIMESTEP     50
Info: LAST LDB TIMESTEP     -1
Info: HOM BACKGROUND SCALING 1
Info: PME BACKGROUND SCALING 1
Info: MIN ATOMS PER PATCH    40
Info: EMPTY PATCH LOAD       40 ATOMS
Info: VELOCITY FILE          mobley_7869158_equil.vel
Info: CENTER OF MASS MOVING INITIALLY? NO
Info: DIELECTRIC             1
Info: EXCLUDE                SCALED ONE-FOUR
Info: 1-4 ELECTROSTATICS SCALED BY 0.833333
Info: MODIFIED 1-4 VDW PARAMETERS WILL BE USED
Info: DCD FILENAME           mobley_7869158_prod.dcd
Info: DCD FREQUENCY          100000
Info: DCD FIRST STEP         100000
Info: DCD FILE WILL CONTAIN UNIT CELL DATA
Info: XST FILENAME           mobley_7869158_prod.xst
Info: XST FREQUENCY          100000
Info: NO VELOCITY DCD OUTPUT
Info: NO FORCE DCD OUTPUT
Info: OUTPUT FILENAME        mobley_7869158_prod
Info: BINARY OUTPUT FILES WILL BE USED
Info: RESTART FILENAME       mobley_7869158_prod.restart
Info: RESTART FREQUENCY      100000
Info: BINARY RESTART FILES WILL BE USED
Info: CUTOFF                 9
Info: PAIRLIST DISTANCE      11
Info: PAIRLIST SHRINK RATE   0.01
Info: PAIRLIST GROW RATE     0.01
Info: PAIRLIST TRIGGER       0.3
Info: PAIRLISTS PER CYCLE    2
Info: PAIRLISTS ENABLED
Info: MARGIN                 2
Info: HYDROGEN GROUP CUTOFF  2.5
Info: PATCH DIMENSION        15.5
Info: ENERGY OUTPUT STEPS    100000
Info: ENERGY EVALUATION STEPS    100000
Info: OUTPUT ENERGY PRECISION 4
Info: CROSSTERM ENERGY INCLUDED IN DIHEDRAL
Info: TIMING OUTPUT STEPS    1000000
Info: PRESSURE OUTPUT STEPS  100000
Info: ALCHEMICAL FEP ON
Info: FEP CURRENT LAMBDA VALUE     1
Info: FEP COMPARISON LAMBDA VALUE  0.95
Info: FEP INTRA-ALCHEMICAL NON-BONDED INTERACTIONS WILL BE RETAINED
Info: FEP INTRA-ALCHEMICAL BONDED INTERACTIONS WILL BE RETAINED
Info: FEP VDW SHIFTING COEFFICIENT 5
Info: FEP ELEC. ACTIVE FOR ANNIHILATED PARTICLES BETWEEN LAMBDA = 0 AND LAMBDA = 0.5
Info: FEP ELEC. ACTIVE FOR EXNIHILATED PARTICLES BETWEEN LAMBDA = 0.5 AND LAMBDA = 1
Info: FEP VDW ACTIVE FOR ANNIHILATED PARTICLES BETWEEN LAMBDA = 0 AND LAMBDA = 1
Info: FEP VDW ACTIVE FOR EXNIHILATED PARTICLES BETWEEN LAMBDA = 0 AND LAMBDA = 1
Info: FEP BOND ACTIVE FOR ANNIHILATED PARTICLES BETWEEN LAMBDA = 1 AND LAMBDA = 1
Info: FEP BOND ACTIVE FOR EXNIHILATED PARTICLES BETWEEN LAMBDA = 0 AND LAMBDA = 0
Info: LANGEVIN DYNAMICS ACTIVE
Info: LANGEVIN TEMPERATURE   300
Info: LANGEVIN USING BBK INTEGRATOR
Info: LANGEVIN DAMPING COEFFICIENT IS 1 INVERSE PS
Info: LANGEVIN DYNAMICS APPLIED TO HYDROGENS
Info: LANGEVIN PISTON PRESSURE CONTROL ACTIVE
Info:        TARGET PRESSURE IS 1.01325 BAR
Info:     OSCILLATION PERIOD IS 50 FS
Info:             DECAY TIME IS 25 FS
Info:     PISTON TEMPERATURE IS 300 K
Info:       PRESSURE CONTROL IS GROUP-BASED
Info:    INITIAL STRAIN RATE IS -1.80217e-05 -1.80217e-05 -1.80217e-05
Info:       CELL FLUCTUATION IS ISOTROPIC
Info: PARTICLE MESH EWALD (PME) ACTIVE
Info: PME TOLERANCE               1e-06
Info: PME EWALD COEFFICIENT       0.348832
Info: PME INTERPOLATION ORDER     4
Info: PME GRID DIMENSIONS         32 32 32
Info: PME MAXIMUM GRID SPACING    1
Info: PME CALCULATION WILL BE PERFORMED ON GPU
Info: FULL ELECTROSTATIC EVALUATION FREQUENCY      2
Info: USING VERLET I (r-RESPA) MTS SCHEME.
Info: C1 SPLITTING OF LONG RANGE ELECTROSTATICS
Info: PLACING ATOMS IN PATCHES BY HYDROGEN GROUPS
Info: RIGID BONDS TO HYDROGEN : ALL
Info:         ERROR TOLERANCE : 1e-08
Info:          MAX ITERATIONS : 100
Info: RIGID WATER USING SETTLE ALGORITHM
Info: RANDOM NUMBER SEED     1743922525
Info: USE HYDROGEN BONDS?    NO
Info: Using AMBER format force field!
Info: AMBER PARM FILE        mobley_7869158.prmtop
Info: COORDINATE PDB         mobley_7869158.pdb
Info: Exclusions will be read from PARM file!
Info: SCNB (VDW SCALING)     2
Info: USING ARITHMETIC MEAN TO COMBINE L-J SIGMA PARAMETERS
Info: BINARY COORDINATES     mobley_7869158_equil.coor
Info: SUMMARY OF PARAMETERS:
Info: 8 BONDS
Info: 9 ANGLES
Info:   9 HARMONIC
Info:   0 COSINE-BASED
Info: 10 DIHEDRAL
Info: 0 IMPROPER
Info: 0 CROSSTERM
Info: 0 VDW
Info: 36 VDW_PAIRS
Info: 0 NBTHOLE_PAIRS
Info: To read alchdata from file: mobley_7869158.pdb
Info: To read alchflag data from column: 5
Info: STRUCTURE SUMMARY:
Info: 2939 ATOMS
Info: 2938 BONDS
Info: 28 ANGLES
Info: 39 DIHEDRALS
Info: 0 IMPROPERS
Info: 0 CROSSTERMS
Info: 2998 EXCLUSIONS
Info: 2931 RIGID BONDS
Info: ALCH: 0 ATOMS TO DISAPPEAR IN FINAL STATE
Info: ALCH: 17 ATOMS TO APPEAR IN FINAL STATE
Info: 5886 DEGREES OF FREEDOM
Info: 982 HYDROGEN GROUPS
Info: 4 ATOMS IN LARGEST HYDROGEN GROUP
Info: 982 MIGRATION GROUPS
Info: 4 ATOMS IN LARGEST MIGRATION GROUP
Info: TOTAL MASS = 17666.7 amu
Info: TOTAL CHARGE = 1.49012e-08 e
Info: MASS DENSITY = 0.989765 g/cm^3
Info: ATOM DENSITY = 0.0991555 atoms/A^3
Info: ADDED 0 IMPLICIT EXCLUSIONS
Info: NONBONDED TABLE R-SQUARED SPACING: 0.0625
Info: NONBONDED TABLE SIZE: 705 POINTS
Info: REMOVING COM VELOCITY -0.114575 0.0391787 0.0384545
Info: Use 3D box decompostion in PME FFT.
Info: Updated CUDA force table with 4096 elements.
Info: Updated CUDA LJ table with 8 x 8 elements.
Info: Found 20 unique exclusion lists needing 44 bytes
TCL: Running for 1500000 steps
ETITLE: TS BOND ANGLE DIHED IMPRP ELECT VDW BOUNDARY MISC KINETIC TOTAL TEMP POTENTIAL TOTALAVG TEMPAVG PRESSURE GPRESSURE VOLUME PRESSAVG GPRESSAVG
ENERGY: 0 1.8297 7.6640 5.5303 0.0000 -10663.7071 1476.5126 0.0000 0.0000 1724.8023 -7447.3682 294.9236 -9172.1705 -7447.3682 294.9236 792.7401 879.9426 29640.3054 792.7401 879.9426
ENERGY: 300000 0.7600 10.5437 2.8085 0.0000 -10630.2036 1436.6392 0.0000 0.0000 1719.2829 -7460.1693 293.9798 -9179.4522 -7457.3239 297.8945 365.2672 406.9050 29954.3645 250.7737 301.4868
ENERGY: 600000 2.3046 9.1896 6.9391 0.0000 -10738.2247 1502.5882 0.0000 0.0000 1697.1888 -7520.0145 290.2019 -9217.2033 -7457.8725 296.0387 483.1450 590.7114 30410.2268 -56.9243 12.6547
ENERGY: 900000 1.2208 13.3847 5.0707 0.0000 -10732.2428 1509.2953 0.0000 0.0000 1784.0386 -7419.2326 305.0524 -9203.2712 -7450.5950 297.0395 557.4880 610.9087 30619.5668 -18.8923 54.9883
ENERGY: 1200000 1.7438 10.3045 4.6351 0.0000 -10627.5211 1419.3735 0.0000 0.0000 1714.1367 -7477.3275 293.0998 -9191.4642 -7459.2526 296.5931 146.0953 148.3676 30085.2552 -67.6324 -5.4016
ENERGY: 1500000 0.5604 5.4959 2.5153 0.0000 -10690.3191 1488.9124 0.0000 0.0000 1736.0242 -7456.8110 296.8424 -9192.8351 -7463.5023 296.3514 567.4543 623.8174 30162.1565 -34.0997 30.2904
TCL: Running FEP window   2: Lambda1 0.95   Lambda2 0.8999999999999999 [dLambda -0.050000000000000044]
TCL: Setting parameter firsttimestep to 0
TCL: Setting parameter alchLambda to 0.95
Info: NONBONDED TABLE R-SQUARED SPACING: 0.0625
Info: NONBONDED TABLE SIZE: 705 POINTS
TCL: Setting parameter alchLambda2 to 0.8999999999999999
Info: NONBONDED TABLE R-SQUARED SPACING: 0.0625
Info: NONBONDED TABLE SIZE: 705 POINTS
TCL: Running for 1500000 steps
ETITLE: TS BOND ANGLE DIHED IMPRP ELECT VDW BOUNDARY MISC KINETIC TOTAL TEMP POTENTIAL TOTALAVG TEMPAVG PRESSURE GPRESSURE VOLUME PRESSAVG GPRESSAVG
ENERGY: 0 0.5604 5.4959 2.5153 0.0000 -10689.5948 1489.8111 0.0000 0.0000 1735.1697 -7456.0424 296.6963 -9191.2121 -7456.0424 296.6963 553.7655 623.9514 30162.1565 553.7655 623.9514
ENERGY: 300000 1.1455 8.3528 3.4131 0.0000 -10676.7473 1407.4946 0.0000 0.0000 1749.9312 -7506.4102 299.2203 -9256.3414 -7459.3107 298.6549 -236.6731 -163.5030 30106.3108 154.7878 230.3340
ENERGY: 600000 4.6296 8.7826 4.6817 0.0000 -10707.4791 1451.9546 0.0000 0.0000 1773.7568 -7463.6738 303.2943 -9237.4306 -7431.7860 300.8318 156.8885 227.1889 30182.8921 3.8412 72.5422
ENERGY: 900000 0.6576 9.8155 2.9295 0.0000 -10663.1083 1464.6059 0.0000 0.0000 1738.1809 -7446.9190 297.2111 -9185.0999 -7444.8669 299.7897 381.5750 476.6292 30206.5464 22.0124 95.3777
ENERGY: 1200000 1.4105 7.4998 2.8636 0.0000 -10685.0117 1428.4874 0.0000 0.0000 1653.8236 -7590.9269 282.7869 -9244.7505 -7459.8971 297.7293 -2.9120 15.8462 29941.8703 0.1065 70.8391
ENERGY: 1500000 3.7426 6.5425 2.7785 0.0000 -10547.2425 1343.3070 0.0000 0.0000 1696.0782 -7494.7937 290.0120 -9190.8719 -7468.0221 297.4574 -841.7814 -803.0762 30460.7397 -67.0112 -1.2440
TCL: Running FEP window   3: Lambda1 0.8999999999999999 Lambda2 0.8499999999999999 [dLambda -0.050000000000000044]
TCL: Setting parameter firsttimestep to 0
TCL: Setting parameter alchLambda to 0.8999999999999999
Info: NONBONDED TABLE R-SQUARED SPACING: 0.0625
Info: NONBONDED TABLE SIZE: 705 POINTS
TCL: Setting parameter alchLambda2 to 0.8499999999999999
Info: NONBONDED TABLE R-SQUARED SPACING: 0.0625
Info: NONBONDED TABLE SIZE: 705 POINTS
TCL: Running for 1500000 steps
ETITLE: TS BOND ANGLE DIHED IMPRP ELECT VDW BOUNDARY MISC KINETIC TOTAL TEMP POTENTIAL TOTALAVG TEMPAVG PRESSURE GPRESSURE VOLUME PRESSAVG GPRESSAVG
ENERGY: 0 3.7426 6.5425 2.7785 0.0000 -10546.7414 1343.8790 0.0000 0.0000 1695.1906 -7494.6082 289.8603 -9189.7989 -7494.6082 289.8603 -894.0808 -801.6378 30460.7397 -894.0808 -801.6378
ENERGY: 300000 6.0097 13.3647 4.1322 0.0000 -10603.6694 1430.8360 0.0000 0.0000 1753.5971 -7395.7297 299.8472 -9149.3268 -7457.8974 296.9026 -234.9301 -152.0878 30637.1272 -497.0912 -430.7226
ENERGY: 600000 1.2218 9.8963 3.7935 0.0000 -10656.3913 1422.2021 0.0000 0.0000 1756.2205 -7463.0571 300.2957 -9219.2776 -7467.5396 298.4056 -5.7319 97.5470 30053.7928 -296.6513 -214.5057
ENERGY: 900000 2.3977 8.3760 3.2589 0.0000 -10664.1050 1418.8279 0.0000 0.0000 1715.7207 -7515.5238 293.3707 -9231.2445 -7464.6368 299.2791 -202.2077 -199.1174 30179.7979 -339.5715 -264.4620
ENERGY: 1200000 2.9744 6.3647 2.5878 0.0000 -10530.1377 1321.3388 0.0000 0.0000 1746.6511 -7450.2209 298.6595 -9196.8720 -7464.6741 299.9511 -919.1127 -840.6157 30421.0342 -359.0783 -278.5279
ENERGY: 1500000 2.2726 11.1725 2.8038 0.0000 -10566.2540 1332.7462 0.0000 0.0000 1705.8276 -7511.4314 291.6791 -9217.2590 -7467.8724 298.1734 -984.5306 -925.3057 30613.0581 -369.6894 -294.9262
TCL: Running FEP window   4: Lambda1 0.8499999999999999 Lambda2 0.7999999999999998 [dLambda -0.050000000000000044]
TCL: Setting parameter firsttimestep to 0
TCL: Setting parameter alchLambda to 0.8499999999999999
Info: NONBONDED TABLE R-SQUARED SPACING: 0.0625
Info: NONBONDED TABLE SIZE: 705 POINTS
TCL: Setting parameter alchLambda2 to 0.7999999999999998
Info: NONBONDED TABLE R-SQUARED SPACING: 0.0625
Info: NONBONDED TABLE SIZE: 705 POINTS
TCL: Running for 1500000 steps
ETITLE: TS BOND ANGLE DIHED IMPRP ELECT VDW BOUNDARY MISC KINETIC TOTAL TEMP POTENTIAL TOTALAVG TEMPAVG PRESSURE GPRESSURE VOLUME PRESSAVG GPRESSAVG
ENERGY: 0 2.2726 11.1725 2.8038 0.0000 -10565.5943 1333.3477 0.0000 0.0000 1704.9379 -7511.0597 291.5269 -9215.9977 -7511.0597 291.5269 -1016.4293 -923.5567 30613.0581 -1016.4293 -923.5567
ENERGY: 300000 1.7393 6.2524 3.7323 0.0000 -10595.3363 1425.2067 0.0000 0.0000 1723.8720 -7434.5336 294.7645 -9158.4056 -7458.2053 296.5255 -40.2635 19.9549 30662.7087 -257.2631 -202.8716
ENERGY: 600000 2.8622 7.8163 4.9566 0.0000 -10685.5793 1448.7209 0.0000 0.0000 1782.3946 -7438.8286 304.7712 -9221.2232 -7445.2915 299.5173 309.9443 378.3888 29885.6710 -114.3091 -59.7659
ENERGY: 900000 2.1996 8.0868 2.4935 0.0000 -10524.1716 1360.6754 0.0000 0.0000 1782.5679 -7368.1483 304.8009 -9150.7162 -7422.1603 302.0413 -93.9804 -78.7957 29968.3858 -213.6348 -154.9293
ENERGY: 1200000 3.6340 7.3836 3.4838 0.0000 -10503.6855 1321.0281 0.0000 0.0000 1786.4988 -7381.6573 305.4730 -9168.1560 -7432.2928 301.5321 -903.5231 -887.7262 30478.9903 -264.9785 -198.8152
ENERGY: 1500000 2.6853 9.2042 3.8446 0.0000 -10782.4010 1456.4036 0.0000 0.0000 1802.2343 -7508.0290 308.1636 -9310.2633 -7432.4137 303.4503 -88.5406 -31.5876 30055.1585 -208.5448 -144.1418
TCL: Running FEP window   5: Lambda1 0.7999999999999998 Lambda2 0.7499999999999998 [dLambda -0.050000000000000044]
TCL: Setting parameter firsttimestep to 0
TCL: Setting parameter alchLambda to 0.7999999999999998
Info: NONBONDED TABLE R-SQUARED SPACING: 0.0625
Info: NONBONDED TABLE SIZE: 705 POINTS
TCL: Setting parameter alchLambda2 to 0.7499999999999998
Info: NONBONDED TABLE R-SQUARED SPACING: 0.0625
Info: NONBONDED TABLE SIZE: 705 POINTS
TCL: Running for 1500000 steps
ETITLE: TS BOND ANGLE DIHED IMPRP ELECT VDW BOUNDARY MISC KINETIC TOTAL TEMP POTENTIAL TOTALAVG TEMPAVG PRESSURE GPRESSURE VOLUME PRESSAVG GPRESSAVG
ENERGY: 0 2.6853 9.2042 3.8446 0.0000 -10782.1314 1456.3725 0.0000 0.0000 1801.4131 -7508.6118 308.0232 -9310.0248 -7508.6118 308.0232 -139.1892 -42.4071 30055.1585 -139.1892 -42.4071
ENERGY: 300000 2.7600 9.3020 3.8337 0.0000 -10721.0719 1472.9081 0.0000 0.0000 1731.9326 -7500.3355 296.1427 -9232.2681 -7504.3262 298.7984 155.1454 208.6286 30199.3212 -31.1447 46.7499
ENERGY: 600000 2.1054 7.8563 6.4322 0.0000 -10556.2096 1386.3379 0.0000 0.0000 1783.0154 -7370.4623 304.8774 -9153.4777 -7468.3504 300.0271 -164.2406 -134.8960 30281.1163 -144.9393 -79.2094
ENERGY: 900000 1.4673 6.6071 5.9233 0.0000 -10820.4461 1557.1697 0.0000 0.0000 1712.9027 -7536.3759 292.8888 -9249.2787 -7465.8318 300.0924 1194.8871 1221.3580 29663.3098 141.9645 196.9808
ENERGY: 1200000 0.7298 6.2566 3.2510 0.0000 -10640.2945 1442.9549 0.0000 0.0000 1761.9656 -7425.1367 301.2781 -9187.1022 -7466.5434 300.7998 433.7836 461.3775 29966.7212 142.7747 192.3927
ENERGY: 1500000 3.6413 12.1140 5.2122 0.0000 -10750.8405 1419.5973 0.0000 0.0000 1727.1502 -7583.1254 295.3250 -9310.2756 -7471.2512 300.3697 -283.2340 -157.1182 29851.5524 102.5843 151.8170
TCL: Running FEP window   6: Lambda1 0.7499999999999998 Lambda2 0.6999999999999997 [dLambda -0.050000000000000044]
TCL: Setting parameter firsttimestep to 0
TCL: Setting parameter alchLambda to 0.7499999999999998
Info: NONBONDED TABLE R-SQUARED SPACING: 0.0625
Info: NONBONDED TABLE SIZE: 705 POINTS
TCL: Setting parameter alchLambda2 to 0.6999999999999997
Info: NONBONDED TABLE R-SQUARED SPACING: 0.0625
Info: NONBONDED TABLE SIZE: 705 POINTS
TCL: Running for 1500000 steps
ETITLE: TS BOND ANGLE DIHED IMPRP ELECT VDW BOUNDARY MISC KINETIC TOTAL TEMP POTENTIAL TOTALAVG TEMPAVG PRESSURE GPRESSURE VOLUME PRESSAVG GPRESSAVG
ENERGY: 0 3.6413 12.1141 5.2122 0.0000 -10750.6855 1420.1396 0.0000 0.0000 1726.2506 -7583.3277 295.1712 -9309.5783 -7583.3277 295.1712 -260.4593 -161.6283 29851.5524 -260.4593 -161.6283
ENERGY: 300000 0.5311 4.9425 2.7333 0.0000 -10649.1834 1452.8515 0.0000 0.0000 1763.1170 -7425.0079 301.4750 -9188.1249 -7455.1348 303.0445 273.3994 331.0912 30254.6417 25.4935 82.2399
ENERGY: 600000 1.3236 8.2137 4.0519 0.0000 -10564.8935 1375.5570 0.0000 0.0000 1763.2716 -7412.4756 301.5014 -9175.7473 -7465.1763 300.7418 -482.9696 -436.2232 30789.5213 -138.1668 -75.5950
ENERGY: 900000 1.2528 7.8021 5.2572 0.0000 -10532.6535 1388.5512 0.0000 0.0000 1747.0013 -7382.7889 298.7194 -9129.7903 -7461.4064 299.0563 -227.7687 -117.2375 30538.7174 -131.2418 -56.9078
ENERGY: 1200000 1.7630 11.2084 6.1665 0.0000 -10521.9153 1329.2087 0.0000 0.0000 1712.1096 -7461.4590 292.7532 -9173.5686 -7456.4250 299.6183 -794.2433 -700.8674 30292.8818 -231.7901 -152.5727
ENERGY: 1500000 1.9900 7.8642 3.9793 0.0000 -10656.2148 1459.1007 0.0000 0.0000 1762.3976 -7420.8829 301.3520 -9183.2805 -7457.3158 300.1717 354.6737 371.6886 30235.5068 -220.6669 -147.7243
TCL: Running FEP window   7: Lambda1 0.6999999999999997 Lambda2 0.6499999999999997 [dLambda -0.050000000000000044]
TCL: Setting parameter firsttimestep to 0
TCL: Setting parameter alchLambda to 0.6999999999999997
Info: NONBONDED TABLE R-SQUARED SPACING: 0.0625
Info: NONBONDED TABLE SIZE: 705 POINTS
TCL: Setting parameter alchLambda2 to 0.6499999999999997
Info: NONBONDED TABLE R-SQUARED SPACING: 0.0625
Info: NONBONDED TABLE SIZE: 705 POINTS
TCL: Running for 1500000 steps
ETITLE: TS BOND ANGLE DIHED IMPRP ELECT VDW BOUNDARY MISC KINETIC TOTAL TEMP POTENTIAL TOTALAVG TEMPAVG PRESSURE GPRESSURE VOLUME PRESSAVG GPRESSAVG
ENERGY: 0 1.9900 7.8642 3.9793 0.0000 -10655.9971 1459.9001 0.0000 0.0000 1761.5371 -7420.7262 301.2048 -9182.2634 -7420.7262 301.2048 282.8426 369.2162 30235.5068 282.8426 369.2162
ENERGY: 300000 2.1024 11.5937 4.1340 0.0000 -10828.1810 1543.9445 0.0000 0.0000 1736.2679 -7530.1385 296.8840 -9266.4064 -7456.6990 298.6887 716.4764 820.0842 30050.8285 -43.3726 33.5224
ENERGY: 600000 2.9244 5.3747 2.8696 0.0000 -10515.7766 1306.2340 0.0000 0.0000 1712.7790 -7485.5951 292.8677 -9198.3740 -7455.9082 298.5876 -1187.5519 -1167.2808 30900.6890 -243.9315 -191.2684
ENERGY: 900000 4.6336 12.1750 3.1479 0.0000 -10612.3392 1483.2340 0.0000 0.0000 1778.2439 -7330.9049 304.0615 -9109.1488 -7439.1164 299.9756 232.3691 295.0622 30667.5530 -32.8446 25.1879
ENERGY: 1200000 3.2590 7.5363 3.2411 0.0000 -10627.9601 1474.7610 0.0000 0.0000 1745.2861 -7393.8768 298.4261 -9139.1629 -7442.1900 299.7664 810.3879 836.5667 29974.1618 -83.8875 -27.1503
ENERGY: 1500000 2.0868 7.0510 2.8746 0.0000 -10678.5860 1415.6746 0.0000 0.0000 1737.0701 -7513.8290 297.0212 -9250.8991 -7448.1333 299.0153 -230.0267 -127.5203 29950.7332 -23.6763 38.9846
TCL: Running FEP window   8: Lambda1 0.6499999999999997 Lambda2 0.5999999999999996 [dLambda -0.050000000000000044]
TCL: Setting parameter firsttimestep to 0
TCL: Setting parameter alchLambda to 0.6499999999999997
Info: NONBONDED TABLE R-SQUARED SPACING: 0.0625
Info: NONBONDED TABLE SIZE: 705 POINTS
TCL: Setting parameter alchLambda2 to 0.5999999999999996
Info: NONBONDED TABLE R-SQUARED SPACING: 0.0625
Info: NONBONDED TABLE SIZE: 705 POINTS
TCL: Running for 1500000 steps
ETITLE: TS BOND ANGLE DIHED IMPRP ELECT VDW BOUNDARY MISC KINETIC TOTAL TEMP POTENTIAL TOTALAVG TEMPAVG PRESSURE GPRESSURE VOLUME PRESSAVG GPRESSAVG
ENERGY: 0 2.0868 7.0509 2.8746 0.0000 -10678.4741 1415.6116 0.0000 0.0000 1736.2120 -7514.6382 296.8745 -9250.8502 -7514.6382 296.8745 -243.0606 -138.6335 29950.7332 -243.0606 -138.6335
ENERGY: 300000 2.8180 6.1532 4.8536 0.0000 -10566.6312 1396.9694 0.0000 0.0000 1744.1072 -7411.7298 298.2245 -9155.8370 -7463.3600 298.8972 -331.8285 -293.8255 30483.9566 57.6402 116.0653
ENERGY: 600000 2.3974 6.3601 4.0623 0.0000 -10583.0085 1383.1380 0.0000 0.0000 1718.2872 -7468.7635 293.8095 -9187.0507 -7471.3044 297.0726 -642.4274 -610.6545 30863.0542 34.6197 103.0535
ENERGY: 900000 1.3784 9.0133 2.7237 0.0000 -10742.0379 1432.5017 0.0000 0.0000 1757.0655 -7539.3553 300.4402 -9296.4208 -7465.1400 296.9193 -148.7984 -100.5406 29972.4659 38.4116 102.3155
ENERGY: 1200000 0.6993 8.8779 3.8042 0.0000 -10511.6115 1382.8857 0.0000 0.0000 1785.2978 -7330.0464 305.2677 -9115.3442 -7450.4440 298.4875 7.6842 70.4302 30136.5929 -36.2127 32.2398
ENERGY: 1500000 0.5080 10.7679 3.9596 0.0000 -10578.6825 1387.3071 0.0000 0.0000 1707.6108 -7468.5291 291.9840 -9176.1398 -7446.8081 298.6629 -323.4769 -281.6781 30291.4031 -117.3731 -42.9039
TCL: Running FEP window   9: Lambda1 0.5999999999999996 Lambda2 0.5499999999999996 [dLambda -0.050000000000000044]
TCL: Setting parameter firsttimestep to 0
TCL: Setting parameter alchLambda to 0.5999999999999996
Info: NONBONDED TABLE R-SQUARED SPACING: 0.0625
Info: NONBONDED TABLE SIZE: 705 POINTS
TCL: Setting parameter alchLambda2 to 0.5499999999999996
Info: NONBONDED TABLE R-SQUARED SPACING: 0.0625
Info: NONBONDED TABLE SIZE: 705 POINTS
TCL: Running for 1500000 steps
ETITLE: TS BOND ANGLE DIHED IMPRP ELECT VDW BOUNDARY MISC KINETIC TOTAL TEMP POTENTIAL TOTALAVG TEMPAVG PRESSURE GPRESSURE VOLUME PRESSAVG GPRESSAVG
ENERGY: 0 0.5080 10.7679 3.9596 0.0000 -10578.4647 1387.7517 0.0000 0.0000 1706.7355 -7468.7420 291.8343 -9175.4775 -7468.7420 291.8343 -365.1733 -287.0483 30291.4031 -365.1733 -287.0483
ENERGY: 300000 2.7546 9.1785 2.8640 0.0000 -10658.3734 1453.6912 0.0000 0.0000 1681.7699 -7508.1152 287.5654 -9189.8851 -7481.5007 293.0834 305.0700 355.7352 29852.5105 -223.0518 -151.4063
ENERGY: 600000 2.9340 5.9999 2.4726 0.0000 -10593.8422 1414.6451 0.0000 0.0000 1763.6555 -7404.1351 301.5670 -9167.7906 -7475.4708 294.9980 -31.3025 33.4486 30464.0578 -210.3852 -135.0239
ENERGY: 900000 0.5588 7.0976 4.7734 0.0000 -10688.5708 1504.0305 0.0000 0.0000 1726.8112 -7445.2992 295.2670 -9172.1104 -7476.9495 295.9090 758.4446 793.2600 30112.9615 -137.0138 -72.0128
ENERGY: 1200000 4.0525 6.6641 3.7957 0.0000 -10688.4047 1418.2450 0.0000 0.0000 1729.7912 -7525.8562 295.7766 -9255.6474 -7471.0246 297.0044 -387.3914 -344.4010 30430.7125 -125.8087 -54.6443
ENERGY: 1500000 1.9047 7.6152 5.1094 0.0000 -10578.7154 1397.6182 0.0000 0.0000 1732.6676 -7433.8003 296.2684 -9166.4679 -7458.1288 297.6171 -271.3678 -174.1602 30375.0737 -179.7186 -107.7937
TCL: Running FEP window  10: Lambda1 0.5499999999999996 Lambda2 0.4999999999999996 [dLambda -0.04999999999999999]
TCL: Setting parameter firsttimestep to 0
TCL: Setting parameter alchLambda to 0.5499999999999996
Info: NONBONDED TABLE R-SQUARED SPACING: 0.0625
Info: NONBONDED TABLE SIZE: 705 POINTS
TCL: Setting parameter alchLambda2 to 0.4999999999999996
Info: NONBONDED TABLE R-SQUARED SPACING: 0.0625
Info: NONBONDED TABLE SIZE: 705 POINTS
TCL: Running for 1500000 steps
ETITLE: TS BOND ANGLE DIHED IMPRP ELECT VDW BOUNDARY MISC KINETIC TOTAL TEMP POTENTIAL TOTALAVG TEMPAVG PRESSURE GPRESSURE VOLUME PRESSAVG GPRESSAVG
ENERGY: 0 1.9047 7.6152 5.1094 0.0000 -10578.4603 1397.9706 0.0000 0.0000 1731.8088 -7434.0517 296.1216 -9165.8604 -7434.0517 296.1216 -248.3432 -176.6420 30375.0737 -248.3432 -176.6420
ENERGY: 300000 2.5578 10.1115 3.8858 0.0000 -10639.2290 1496.6836 0.0000 0.0000 1716.8312 -7409.1590 293.5606 -9125.9902 -7412.6626 297.1318 881.6762 998.3461 29953.6354 56.5539 158.5456
ENERGY: 600000 1.5900 8.3773 4.5760 0.0000 -10582.0445 1394.3435 0.0000 0.0000 1809.5003 -7363.6574 309.4060 -9173.1577 -7406.7539 298.6665 -491.8122 -371.5592 30490.7953 -179.4682 -79.3320
ENERGY: 900000 2.2762 5.0407 4.5752 0.0000 -10663.0800 1388.3467 0.0000 0.0000 1794.3884 -7468.4527 306.8221 -9262.8411 -7404.8142 300.1362 -303.7617 -183.8542 29849.8576 -225.7994 -137.3495
ENERGY: 1200000 1.0836 6.9083 3.7746 0.0000 -10585.2047 1440.3402 0.0000 0.0000 1740.8294 -7392.2684 297.6640 -9133.0979 -7400.1126 300.2881 507.2171 556.6985 29793.3473 -211.3177 -127.1148
ENERGY: 1500000 0.7389 7.5835 5.6610 0.0000 -10574.6165 1409.2271 0.0000 0.0000 1791.4623 -7359.9437 306.3217 -9151.4060 -7404.5871 300.5052 -321.9654 -269.6519 30581.7110 -129.1027 -46.3721
TCL: Running FEP window  11: Lambda1 0.4999999999999996 Lambda2 0.4499999999999996 [dLambda -0.04999999999999999]
TCL: Setting parameter firsttimestep to 0
TCL: Setting parameter alchLambda to 0.4999999999999996
Info: NONBONDED TABLE R-SQUARED SPACING: 0.0625
Info: NONBONDED TABLE SIZE: 705 POINTS
TCL: Setting parameter alchLambda2 to 0.4499999999999996
Info: NONBONDED TABLE R-SQUARED SPACING: 0.0625
Info: NONBONDED TABLE SIZE: 705 POINTS
TCL: Running for 1500000 steps
ETITLE: TS BOND ANGLE DIHED IMPRP ELECT VDW BOUNDARY MISC KINETIC TOTAL TEMP POTENTIAL TOTALAVG TEMPAVG PRESSURE GPRESSURE VOLUME PRESSAVG GPRESSAVG
ENERGY: 0 0.7389 7.5835 5.6610 0.0000 -10574.5379 1409.2460 0.0000 0.0000 1790.5665 -7360.7420 306.1685 -9151.3084 -7360.7420 306.1685 -362.6805 -276.4786 30581.7110 -362.6805 -276.4786
ENERGY: 300000 2.1152 9.2001 4.2814 0.0000 -10580.0338 1341.5650 0.0000 0.0000 1739.8214 -7483.0507 297.4917 -9222.8721 -7407.0794 303.9404 -839.7917 -802.8082 30298.3416 -400.1545 -303.5688
ENERGY: 600000 1.7661 7.5281 6.8990 0.0000 -10536.2284 1347.6898 0.0000 0.0000 1779.1827 -7393.1627 304.2220 -9172.3454 -7403.8508 303.8702 -724.5463 -620.8908 30662.6893 -393.9323 -307.3387
ENERGY: 900000 2.7314 7.5227 5.5556 0.0000 -10659.9963 1449.1576 0.0000 0.0000 1775.0823 -7419.9468 303.5209 -9195.0290 -7402.8574 304.8647 276.7708 329.6514 30130.9911 -185.5390 -107.0472
ENERGY: 1200000 3.3167 8.9598 4.3799 0.0000 -10448.1377 1353.5163 0.0000 0.0000 1705.1050 -7372.8600 291.5555 -9077.9650 -7400.8353 302.7195 -502.1594 -359.6445 30738.6051 -97.8447 -22.7357
ENERGY: 1500000 3.3542 4.5493 3.5039 0.0000 -10637.9656 1460.3105 0.0000 0.0000 1767.7975 -7398.4502 302.2753 -9166.2477 -7407.4380 302.0875 329.5717 423.2165 29955.5685 14.6300 86.9173
TCL: Running FEP window  12: Lambda1 0.4499999999999996 Lambda2 0.39999999999999963 [dLambda -0.04999999999999999]
TCL: Setting parameter firsttimestep to 0
TCL: Setting parameter alchLambda to 0.4499999999999996
Info: NONBONDED TABLE R-SQUARED SPACING: 0.0625
Info: NONBONDED TABLE SIZE: 705 POINTS
TCL: Setting parameter alchLambda2 to 0.39999999999999963
Info: NONBONDED TABLE R-SQUARED SPACING: 0.0625
Info: NONBONDED TABLE SIZE: 705 POINTS
TCL: Running for 1500000 steps
ETITLE: TS BOND ANGLE DIHED IMPRP ELECT VDW BOUNDARY MISC KINETIC TOTAL TEMP POTENTIAL TOTALAVG TEMPAVG PRESSURE GPRESSURE VOLUME PRESSAVG GPRESSAVG
ENERGY: 0 3.3542 4.5493 3.5039 0.0000 -10637.9676 1460.2331 0.0000 0.0000 1766.8895 -7399.4376 302.1200 -9166.3271 -7399.4376 302.1200 318.4790 414.3194 29955.5685 318.4790 414.3194
ENERGY: 300000 2.0707 8.4999 3.5686 0.0000 -10550.8991 1385.5191 0.0000 0.0000 1762.4652 -7388.7756 301.3635 -9151.2407 -7388.6156 303.4892 -478.7722 -382.3503 30473.4023 -284.1311 -194.4878
ENERGY: 600000 2.1762 6.6835 4.2299 0.0000 -10600.0346 1352.9919 0.0000 0.0000 1822.8743 -7411.0788 311.6929 -9233.9531 -7421.7245 302.5908 -654.7079 -583.5779 30465.1807 -378.9857 -312.3784
ENERGY: 900000 3.6776 7.0389 3.7788 0.0000 -10623.1967 1356.4739 0.0000 0.0000 1697.6367 -7554.5907 290.2785 -9252.2274 -7436.9576 301.2983 -1007.3179 -939.3078 30417.2143 -293.0467 -224.2476
ENERGY: 1200000 5.3013 8.4186 5.9667 0.0000 -10691.6613 1443.4109 0.0000 0.0000 1784.9242 -7443.6395 305.2038 -9228.5638 -7445.2681 301.0795 192.5462 207.2250 29702.7556 -256.6668 -195.3626
ENERGY: 1500000 3.5354 9.6964 3.0390 0.0000 -10697.9821 1450.6060 0.0000 0.0000 1758.5034 -7472.6020 300.6861 -9231.1053 -7455.1164 300.5002 27.1877 99.8555 30299.9743 -193.7725 -129.6184
TCL: Running FEP window  13: Lambda1 0.39999999999999963 Lambda2 0.34999999999999964 [dLambda -0.04999999999999999]
TCL: Setting parameter firsttimestep to 0
TCL: Setting parameter alchLambda to 0.39999999999999963
Info: NONBONDED TABLE R-SQUARED SPACING: 0.0625
Info: NONBONDED TABLE SIZE: 705 POINTS
TCL: Setting parameter alchLambda2 to 0.34999999999999964
Info: NONBONDED TABLE R-SQUARED SPACING: 0.0625
Info: NONBONDED TABLE SIZE: 705 POINTS
TCL: Running for 1500000 steps
ETITLE: TS BOND ANGLE DIHED IMPRP ELECT VDW BOUNDARY MISC KINETIC TOTAL TEMP POTENTIAL TOTALAVG TEMPAVG PRESSURE GPRESSURE VOLUME PRESSAVG GPRESSAVG
ENERGY: 0 3.5354 9.6964 3.0390 0.0000 -10697.9816 1450.6138 0.0000 0.0000 1757.6755 -7473.4216 300.5445 -9231.0971 -7473.4216 300.5445 11.3670 92.7908 30299.9743 11.3670 92.7908
ENERGY: 300000 2.5571 7.1117 3.1866 0.0000 -10607.6026 1360.4414 0.0000 0.0000 1744.4052 -7489.9006 298.2754 -9234.3058 -7489.8895 298.9484 -647.7733 -601.6624 30256.5188 13.9904 61.3507
ENERGY: 600000 0.5017 13.5495 3.9229 0.0000 -10720.3842 1509.9564 0.0000 0.0000 1670.1152 -7522.3385 285.5726 -9192.4536 -7483.8150 296.2516 745.7707 834.2100 29926.7119 88.1861 158.2990
ENERGY: 900000 1.5249 9.9933 6.5255 0.0000 -10646.2280 1398.0060 0.0000 0.0000 1769.1185 -7461.0598 302.5012 -9230.1783 -7469.8612 297.8939 -422.8544 -376.6092 30238.1944 -37.7935 35.5216
ENERGY: 1200000 2.0766 6.7653 6.7265 0.0000 -10618.5383 1387.1114 0.0000 0.0000 1777.7875 -7438.0710 303.9835 -9215.8585 -7467.3043 298.2495 -413.6963 -352.0398 30136.2756 -26.7326 41.7397
ENERGY: 1500000 2.0141 6.0765 4.1316 0.0000 -10648.7306 1426.6555 0.0000 0.0000 1724.5162 -7485.3366 294.8746 -9209.8528 -7461.6299 298.8859 0.6279 111.7820 30158.3885 -94.9076 -20.4055
TCL: Running FEP window  14: Lambda1 0.34999999999999964 Lambda2 0.29999999999999966 [dLambda -0.04999999999999999]
TCL: Setting parameter firsttimestep to 0
TCL: Setting parameter alchLambda to 0.34999999999999964
Info: NONBONDED TABLE R-SQUARED SPACING: 0.0625
Info: NONBONDED TABLE SIZE: 705 POINTS
TCL: Setting parameter alchLambda2 to 0.29999999999999966
Info: NONBONDED TABLE R-SQUARED SPACING: 0.0625
Info: NONBONDED TABLE SIZE: 705 POINTS
TCL: Running for 1500000 steps
ETITLE: TS BOND ANGLE DIHED IMPRP ELECT VDW BOUNDARY MISC KINETIC TOTAL TEMP POTENTIAL TOTALAVG TEMPAVG PRESSURE GPRESSURE VOLUME PRESSAVG GPRESSAVG
ENERGY: 0 2.0141 6.0765 4.1316 0.0000 -10648.7298 1426.8290 0.0000 0.0000 1723.6088 -7486.0697 294.7195 -9209.6785 -7486.0697 294.7195 23.1599 106.4563 30158.3885 23.1599 106.4563
ENERGY: 300000 2.2338 16.9248 3.3701 0.0000 -10791.0207 1522.7317 0.0000 0.0000 1761.7580 -7484.0024 301.2426 -9245.7604 -7457.0774 300.3645 574.7477 616.9038 30165.3500 608.2346 655.7746
ENERGY: 600000 2.0937 5.0706 2.4883 0.0000 -10752.7678 1515.7596 0.0000 0.0000 1739.7489 -7487.6067 297.4793 -9227.3556 -7449.1184 299.4634 647.8882 811.7880 29830.8849 309.4195 375.9723
ENERGY: 900000 2.7928 7.5730 4.7905 0.0000 -10510.1850 1396.4678 0.0000 0.0000 1702.7490 -7395.8119 291.1527 -9098.5609 -7430.7358 298.1368 -101.5414 -1.4989 30464.9106 170.0872 246.0155
ENERGY: 1200000 4.0285 5.6279 3.9674 0.0000 -10604.8890 1417.2327 0.0000 0.0000 1743.8711 -7430.1615 298.1841 -9174.0326 -7424.7110 299.4904 -31.9722 42.7248 30258.0868 102.2459 177.7985
ENERGY: 1500000 2.0065 7.1494 3.8013 0.0000 -10600.9386 1400.2327 0.0000 0.0000 1747.8049 -7439.9439 298.8568 -9187.7487 -7426.0726 299.8182 -254.2441 -179.9290 30466.3948 57.8141 133.2081
TCL: Running FEP window  15: Lambda1 0.29999999999999966 Lambda2 0.24999999999999967 [dLambda -0.04999999999999999]
TCL: Setting parameter firsttimestep to 0
TCL: Setting parameter alchLambda to 0.29999999999999966
Info: NONBONDED TABLE R-SQUARED SPACING: 0.0625
Info: NONBONDED TABLE SIZE: 705 POINTS
TCL: Setting parameter alchLambda2 to 0.24999999999999967
Info: NONBONDED TABLE R-SQUARED SPACING: 0.0625
Info: NONBONDED TABLE SIZE: 705 POINTS
TCL: Running for 1500000 steps
ETITLE: TS BOND ANGLE DIHED IMPRP ELECT VDW BOUNDARY MISC KINETIC TOTAL TEMP POTENTIAL TOTALAVG TEMPAVG PRESSURE GPRESSURE VOLUME PRESSAVG GPRESSAVG
ENERGY: 0 2.0065 7.1494 3.8013 0.0000 -10600.9403 1400.6520 0.0000 0.0000 1746.9416 -7440.3895 298.7091 -9187.3311 -7440.3895 298.7091 -270.9888 -179.0681 30466.3948 -270.9888 -179.0681
ENERGY: 300000 1.3944 4.9110 2.4560 0.0000 -10564.8687 1399.8561 0.0000 0.0000 1746.0160 -7410.2351 298.5509 -9156.2512 -7448.1203 300.7006 -242.7161 -128.5171 30411.5793 -271.6197 -196.0536
ENERGY: 600000 2.7661 10.2774 3.9607 0.0000 -10717.1853 1526.1074 0.0000 0.0000 1749.8032 -7424.2705 299.1984 -9174.0737 -7420.6951 302.6018 371.8670 434.7967 30529.3237 58.4271 138.9390
ENERGY: 900000 2.2883 10.1183 4.2424 0.0000 -10415.9921 1310.1895 0.0000 0.0000 1755.9177 -7333.2359 300.2440 -9089.1536 -7414.9468 301.7848 -712.0353 -664.8534 30350.1475 -110.9877 -30.2952
ENERGY: 1200000 2.5372 9.7651 2.7545 0.0000 -10569.2934 1412.0036 0.0000 0.0000 1738.1736 -7404.0593 297.2099 -9142.2329 -7419.2965 301.3378 -191.6738 -90.6331 30451.7091 -203.6693 -121.8266
ENERGY: 1500000 0.4128 8.0588 4.5876 0.0000 -10731.1537 1515.4978 0.0000 0.0000 1758.4848 -7444.1119 300.6829 -9202.5966 -7427.1899 300.9966 461.0035 493.0186 30412.1228 -142.4061 -63.2670
TCL: Running FEP window  16: Lambda1 0.24999999999999967 Lambda2 0.19999999999999968 [dLambda -0.04999999999999999]
TCL: Setting parameter firsttimestep to 0
TCL: Setting parameter alchLambda to 0.24999999999999967
Info: NONBONDED TABLE R-SQUARED SPACING: 0.0625
Info: NONBONDED TABLE SIZE: 705 POINTS
TCL: Setting parameter alchLambda2 to 0.19999999999999968
Info: NONBONDED TABLE R-SQUARED SPACING: 0.0625
Info: NONBONDED TABLE SIZE: 705 POINTS
TCL: Running for 1500000 steps
ETITLE: TS BOND ANGLE DIHED IMPRP ELECT VDW BOUNDARY MISC KINETIC TOTAL TEMP POTENTIAL TOTALAVG TEMPAVG PRESSURE GPRESSURE VOLUME PRESSAVG GPRESSAVG
ENERGY: 0 0.4128 8.0588 4.5876 0.0000 -10731.1523 1514.9697 0.0000 0.0000 1757.6028 -7445.5206 300.5321 -9203.1235 -7445.5206 300.5321 408.1622 483.1818 30412.1228 408.1622 483.1818
ENERGY: 300000 1.4453 9.9802 3.2838 0.0000 -10498.7503 1335.3692 0.0000 0.0000 1720.0253 -7428.6466 294.1067 -9148.6719 -7378.1945 305.8412 -576.0545 -555.7182 30256.0590 -118.9433 -82.5278
ENERGY: 600000 3.3875 7.4901 7.8240 0.0000 -10569.1922 1363.9093 0.0000 0.0000 1738.3505 -7448.2308 297.2402 -9186.5813 -7402.2179 303.6574 -822.7541 -755.7565 30777.5084 -143.2321 -96.7426
ENERGY: 900000 2.2874 8.0937 3.9778 0.0000 -10630.3486 1387.7454 0.0000 0.0000 1736.6193 -7491.6249 296.9441 -9228.2442 -7417.9064 301.3962 -245.0156 -202.6265 30027.7844 -136.2005 -89.4932
ENERGY: 1200000 2.3797 7.4792 4.9791 0.0000 -10555.3897 1363.8974 0.0000 0.0000 1778.9027 -7397.7516 304.1742 -9176.6543 -7416.6358 302.1044 -628.3718 -560.5941 30486.5588 -155.7351 -107.8830
ENERGY: 1500000 1.7863 11.1957 6.1175 0.0000 -10443.0591 1278.1708 0.0000 0.0000 1769.9097 -7375.8790 302.6365 -9145.7888 -7414.0884 303.1735 -1282.7684 -1238.3121 30481.7476 -131.8864 -87.8278
TCL: Running FEP window  17: Lambda1 0.19999999999999968 Lambda2 0.1499999999999997 [dLambda -0.04999999999999999]
TCL: Setting parameter firsttimestep to 0
TCL: Setting parameter alchLambda to 0.19999999999999968
Info: NONBONDED TABLE R-SQUARED SPACING: 0.0625
Info: NONBONDED TABLE SIZE: 705 POINTS
TCL: Setting parameter alchLambda2 to 0.1499999999999997
Info: NONBONDED TABLE R-SQUARED SPACING: 0.0625
Info: NONBONDED TABLE SIZE: 705 POINTS
TCL: Running for 1500000 steps
ETITLE: TS BOND ANGLE DIHED IMPRP ELECT VDW BOUNDARY MISC KINETIC TOTAL TEMP POTENTIAL TOTALAVG TEMPAVG PRESSURE GPRESSURE VOLUME PRESSAVG GPRESSAVG
ENERGY: 0 1.7863 11.1957 6.1175 0.0000 -10443.0608 1278.7310 0.0000 0.0000 1769.0483 -7376.1820 302.4892 -9145.2303 -7376.1820 302.4892 -1316.8809 -1235.4077 30481.7476 -1316.8809 -1235.4077
ENERGY: 300000 0.6495 6.1939 3.8405 0.0000 -10672.8216 1429.3439 0.0000 0.0000 1729.6792 -7503.1145 295.7575 -9232.7937 -7456.2379 296.0309 -194.7521 -157.2130 30122.5433 -79.9967 0.6141
ENERGY: 600000 1.9319 8.7786 3.4223 0.0000 -10596.5896 1372.2196 0.0000 0.0000 1791.6526 -7418.5847 306.3543 -9210.2373 -7442.6035 299.4674 -646.4353 -544.8079 30494.1322 -242.7699 -158.1325
ENERGY: 900000 0.8875 8.6537 3.7724 0.0000 -10642.1302 1440.4015 0.0000 0.0000 1737.9762 -7450.4388 297.1762 -9188.4151 -7426.7004 300.1385 269.7746 334.6762 30100.9593 -146.1349 -58.6784
ENERGY: 1200000 2.6116 3.7790 4.7479 0.0000 -10561.2895 1395.3204 0.0000 0.0000 1745.4880 -7409.3425 298.4606 -9154.8305 -7428.0939 299.2281 -138.4336 -79.4611 29941.8169 -145.5048 -67.4760
ENERGY: 1500000 0.7380 8.8148 3.2727 0.0000 -10684.9390 1466.3887 0.0000 0.0000 1786.6817 -7419.0431 305.5043 -9205.7248 -7426.8547 299.8445 440.8504 434.8079 29959.0874 -110.3367 -39.1465
TCL: Running FEP window  18: Lambda1 0.1499999999999997 Lambda2 0.09999999999999969 [dLambda -0.05 ]
TCL: Setting parameter firsttimestep to 0
TCL: Setting parameter alchLambda to 0.1499999999999997
Info: NONBONDED TABLE R-SQUARED SPACING: 0.0625
Info: NONBONDED TABLE SIZE: 705 POINTS
TCL: Setting parameter alchLambda2 to 0.09999999999999969
Info: NONBONDED TABLE R-SQUARED SPACING: 0.0625
Info: NONBONDED TABLE SIZE: 705 POINTS
TCL: Running for 1500000 steps
ETITLE: TS BOND ANGLE DIHED IMPRP ELECT VDW BOUNDARY MISC KINETIC TOTAL TEMP POTENTIAL TOTALAVG TEMPAVG PRESSURE GPRESSURE VOLUME PRESSAVG GPRESSAVG
ENERGY: 0 0.7380 8.8148 3.2727 0.0000 -10684.9365 1466.8467 0.0000 0.0000 1785.7828 -7419.4816 305.3506 -9205.2643 -7419.4816 305.3506 365.5819 433.2313 29959.0874 365.5819 433.2313
ENERGY: 300000 1.7713 5.9524 6.0698 0.0000 -10685.1339 1477.1732 0.0000 0.0000 1743.3117 -7450.8554 298.0885 -9194.1671 -7453.0723 302.2082 329.1388 392.9059 29829.0114 502.7353 576.2999
ENERGY: 600000 2.9753 11.0661 4.7577 0.0000 -10559.6904 1400.7413 0.0000 0.0000 1767.6857 -7372.4642 302.2562 -9140.1500 -7444.7682 300.7717 -281.2159 -219.0978 30525.2731 349.7917 401.3336
ENERGY: 900000 3.1285 6.6856 5.1795 0.0000 -10614.9235 1393.4122 0.0000 0.0000 1768.3881 -7438.1296 302.3763 -9206.5177 -7438.0743 301.1534 -363.8635 -255.5283 30128.7404 199.9975 256.6938
ENERGY: 1200000 3.5047 6.0781 2.9095 0.0000 -10622.0829 1405.3722 0.0000 0.0000 1802.5759 -7401.6425 308.2220 -9204.2185 -7423.5000 301.6483 -62.7855 -45.6813 29939.0849 162.7768 214.0567
ENERGY: 1500000 2.7825 5.9489 4.0362 0.0000 -10646.4587 1441.9585 0.0000 0.0000 1776.7125 -7415.0201 303.7997 -9191.7327 -7419.8428 302.3555 23.5893 48.2267 30226.7895 51.0114 100.2089
TCL: Running FEP window  19: Lambda1 0.09999999999999969 Lambda2 0.049999999999999684 [dLambda -0.05 ]
TCL: Setting parameter firsttimestep to 0
TCL: Setting parameter alchLambda to 0.09999999999999969
Info: NONBONDED TABLE R-SQUARED SPACING: 0.0625
Info: NONBONDED TABLE SIZE: 705 POINTS
TCL: Setting parameter alchLambda2 to 0.049999999999999684
Info: NONBONDED TABLE R-SQUARED SPACING: 0.0625
Info: NONBONDED TABLE SIZE: 705 POINTS
TCL: Running for 1500000 steps
ETITLE: TS BOND ANGLE DIHED IMPRP ELECT VDW BOUNDARY MISC KINETIC TOTAL TEMP POTENTIAL TOTALAVG TEMPAVG PRESSURE GPRESSURE VOLUME PRESSAVG GPRESSAVG
ENERGY: 0 2.7825 5.9489 4.0362 0.0000 -10646.4594 1441.8123 0.0000 0.0000 1775.8346 -7416.0448 303.6495 -9191.8794 -7416.0448 303.6495 -24.7065 47.0456 30226.7895 -24.7065 47.0456
ENERGY: 300000 1.9577 9.7668 3.8946 0.0000 -10648.1303 1354.0472 0.0000 0.0000 1758.6869 -7519.7773 300.7175 -9278.4642 -7438.7484 303.9359 -766.8985 -707.7714 30172.1895 -171.1318 -133.7975
ENERGY: 600000 0.4297 9.1582 2.6870 0.0000 -10613.8443 1389.4690 0.0000 0.0000 1751.8685 -7460.2318 299.5516 -9212.1003 -7424.6224 303.7912 -433.4689 -367.1455 30230.9659 -206.6181 -163.3595
ENERGY: 900000 2.9785 7.2208 4.9957 0.0000 -10764.3107 1546.5838 0.0000 0.0000 1800.7758 -7401.7560 307.9142 -9202.5318 -7440.9206 304.0256 806.4141 877.6789 30014.8160 -12.0793 29.2561
ENERGY: 1200000 2.7804 10.8052 5.6405 0.0000 -10484.6681 1352.1691 0.0000 0.0000 1793.3250 -7319.9479 306.6402 -9113.2729 -7425.8968 304.5811 -655.9775 -615.5362 30643.8787 -95.0965 -47.0371
ENERGY: 1500000 0.8701 8.0238 4.1061 0.0000 -10592.3246 1360.0954 0.0000 0.0000 1720.3524 -7498.8769 294.1627 -9219.2293 -7436.2898 302.9985 -568.6268 -561.3658 29938.4260 -53.9075 -6.2910
TCL: Running FEP window  20: Lambda1 0.049999999999999684 Lambda2 0.0    [dLambda -0.049999999999999684]
TCL: Setting parameter firsttimestep to 0
TCL: Setting parameter alchLambda to 0.049999999999999684
Info: NONBONDED TABLE R-SQUARED SPACING: 0.0625
Info: NONBONDED TABLE SIZE: 705 POINTS
TCL: Setting parameter alchLambda2 to 0.0
Info: NONBONDED TABLE R-SQUARED SPACING: 0.0625
Info: NONBONDED TABLE SIZE: 705 POINTS
TCL: Running for 1500000 steps
ETITLE: TS BOND ANGLE DIHED IMPRP ELECT VDW BOUNDARY MISC KINETIC TOTAL TEMP POTENTIAL TOTALAVG TEMPAVG PRESSURE GPRESSURE VOLUME PRESSAVG GPRESSAVG
ENERGY: 0 0.8701 8.0238 4.1061 0.0000 -10592.3252 1359.2700 0.0000 0.0000 1719.4400 -7500.6153 294.0066 -9220.0552 -7500.6153 294.0066 -655.3250 -569.9329 29938.4260 -655.3250 -569.9329
ENERGY: 300000 0.5352 11.1507 6.3949 0.0000 -10752.6236 1511.0033 0.0000 0.0000 1783.6516 -7439.8880 304.9862 -9223.5395 -7491.7187 298.0107 737.9918 811.0055 29659.8475 254.3722 328.7297
ENERGY: 600000 1.6275 8.7004 2.8368 0.0000 -10648.9526 1438.4754 0.0000 0.0000 1779.4678 -7417.8445 304.2708 -9197.3124 -7466.9457 298.2971 330.1344 378.0194 29806.9047 87.5413 142.1867
ENERGY: 900000 3.0518 9.4732 4.4879 0.0000 -10570.4651 1437.7675 0.0000 0.0000 1811.3921 -7304.2927 309.7295 -9115.6847 -7446.5303 299.1481 663.6324 664.4503 29655.8227 153.4895 200.0847
ENERGY: 1200000 2.6745 9.7333 4.7806 0.0000 -10523.8600 1333.4290 0.0000 0.0000 1801.5935 -7371.6491 308.0541 -9173.2426 -7438.9167 300.4601 -807.6039 -817.5098 30311.6363 86.0307 127.6826
ENERGY: 1500000 1.3623 10.5934 7.3916 0.0000 -10654.8359 1472.6582 0.0000 0.0000 1764.0591 -7398.7713 301.6361 -9162.8305 -7442.7450 300.1549 244.5244 306.9597 30346.2895 152.4680 197.0165
TCL: Exiting due to exit command.
