Info: SIMULATION PARAMETERS:
Info: TIMESTEP               2
Info: NUMBER OF STEPS        0
Info: STEPS PER CYCLE        10
Info: PERIODIC CELL BASIS 1  30.1333 0 0
Info: PERIODIC CELL BASIS 2  0 32.384 0
Info: PERIODIC CELL BASIS 3  0 0 31.3991
Info: PERIODIC CELL CENTER   0 0 0
Info: WRAPPING WATERS AROUND PERIODIC BOUNDARIES ON OUTPUT.
Info: WRAPPING ALL CLUSTERS AROUND PERIODIC BOUNDARIES ON OUTPUT.
Info: FIRST LDB TIMESTEP     50
Info: LAST LDB TIMESTEP     -1
Info: HOM BACKGROUND SCALING 1
Info: PME BACKGROUND SCALING 1
Info: MIN ATOMS PER PATCH    40
Info: EMPTY PATCH LOAD       40 ATOMS
Info: VELOCITY FILE          mobley_1615431_equil.vel
Info: CENTER OF MASS MOVING INITIALLY? NO
Info: DIELECTRIC             1
Info: EXCLUDE                SCALED ONE-FOUR
Info: 1-4 ELECTROSTATICS SCALED BY 0.833333
Info: MODIFIED 1-4 VDW PARAMETERS WILL BE USED
Info: DCD FILENAME           mobley_1615431_prod.dcd
Info: DCD FREQUENCY          100000
Info: DCD FIRST STEP         100000
Info: DCD FILE WILL CONTAIN UNIT CELL DATA
Info: XST FILENAME           mobley_1615431_prod.xst
Info: XST FREQUENCY          100000
Info: NO VELOCITY DCD OUTPUT
Info: NO FORCE DCD OUTPUT
Info: OUTPUT FILENAME        mobley_1615431_prod
Info: BINARY OUTPUT FILES WILL BE USED
Info: RESTART FILENAME       mobley_1615431_prod.restart
Info: RESTART FREQUENCY      100000
Info: BINARY RESTART FILES WILL BE USED
Info: CUTOFF                 9
Info: PAIRLIST DISTANCE      11
Info: PAIRLIST SHRINK RATE   0.01
Info: PAIRLIST GROW RATE     0.01
Info: PAIRLIST TRIGGER       0.3
Info: PAIRLISTS PER CYCLE    2
Info: PAIRLISTS ENABLED
Info: MARGIN                 2
Info: HYDROGEN GROUP CUTOFF  2.5
Info: PATCH DIMENSION        15.5
Info: ENERGY OUTPUT STEPS    100000
Info: ENERGY EVALUATION STEPS    100000
Info: OUTPUT ENERGY PRECISION 4
Info: CROSSTERM ENERGY INCLUDED IN DIHEDRAL
Info: TIMING OUTPUT STEPS    1000000
Info: PRESSURE OUTPUT STEPS  100000
Info: ALCHEMICAL FEP ON
Info: FEP CURRENT LAMBDA VALUE     0
Info: FEP COMPARISON LAMBDA VALUE  0.05
Info: FEP INTRA-ALCHEMICAL NON-BONDED INTERACTIONS WILL BE RETAINED
Info: FEP INTRA-ALCHEMICAL BONDED INTERACTIONS WILL BE RETAINED
Info: FEP VDW SHIFTING COEFFICIENT 5
Info: FEP ELEC. ACTIVE FOR ANNIHILATED PARTICLES BETWEEN LAMBDA = 0 AND LAMBDA = 0.5
Info: FEP ELEC. ACTIVE FOR EXNIHILATED PARTICLES BETWEEN LAMBDA = 0.5 AND LAMBDA = 1
Info: FEP VDW ACTIVE FOR ANNIHILATED PARTICLES BETWEEN LAMBDA = 0 AND LAMBDA = 1
Info: FEP VDW ACTIVE FOR EXNIHILATED PARTICLES BETWEEN LAMBDA = 0 AND LAMBDA = 1
Info: FEP BOND ACTIVE FOR ANNIHILATED PARTICLES BETWEEN LAMBDA = 1 AND LAMBDA = 1
Info: FEP BOND ACTIVE FOR EXNIHILATED PARTICLES BETWEEN LAMBDA = 0 AND LAMBDA = 0
Info: LANGEVIN DYNAMICS ACTIVE
Info: LANGEVIN TEMPERATURE   300
Info: LANGEVIN USING BBK INTEGRATOR
Info: LANGEVIN DAMPING COEFFICIENT IS 1 INVERSE PS
Info: LANGEVIN DYNAMICS APPLIED TO HYDROGENS
Info: LANGEVIN PISTON PRESSURE CONTROL ACTIVE
Info:        TARGET PRESSURE IS 1.01325 BAR
Info:     OSCILLATION PERIOD IS 50 FS
Info:             DECAY TIME IS 25 FS
Info:     PISTON TEMPERATURE IS 300 K
Info:       PRESSURE CONTROL IS GROUP-BASED
Info:    INITIAL STRAIN RATE IS -0.000608882 -0.000608882 -0.000608882
Info:       CELL FLUCTUATION IS ISOTROPIC
Info: PARTICLE MESH EWALD (PME) ACTIVE
Info: PME TOLERANCE               1e-06
Info: PME EWALD COEFFICIENT       0.348832
Info: PME INTERPOLATION ORDER     4
Info: PME GRID DIMENSIONS         32 36 32
Info: PME MAXIMUM GRID SPACING    1
Info: PME CALCULATION WILL BE PERFORMED ON GPU
Info: FULL ELECTROSTATIC EVALUATION FREQUENCY      2
Info: USING VERLET I (r-RESPA) MTS SCHEME.
Info: C1 SPLITTING OF LONG RANGE ELECTROSTATICS
Info: PLACING ATOMS IN PATCHES BY HYDROGEN GROUPS
Info: RIGID BONDS TO HYDROGEN : ALL
Info:         ERROR TOLERANCE : 1e-08
Info:          MAX ITERATIONS : 100
Info: RIGID WATER USING SETTLE ALGORITHM
Info: RANDOM NUMBER SEED     1743866273
Info: USE HYDROGEN BONDS?    NO
Info: Using AMBER format force field!
Info: AMBER PARM FILE        mobley_1615431.prmtop
Info: COORDINATE PDB         mobley_1615431.pdb
Info: Exclusions will be read from PARM file!
Info: SCNB (VDW SCALING)     2
Info: USING ARITHMETIC MEAN TO COMBINE L-J SIGMA PARAMETERS
Info: BINARY COORDINATES     mobley_1615431_equil.coor
Info: SUMMARY OF PARAMETERS:
Info: 6 BONDS
Info: 7 ANGLES
Info:   7 HARMONIC
Info:   0 COSINE-BASED
Info: 7 DIHEDRAL
Info: 0 IMPROPER
Info: 0 CROSSTERM
Info: 0 VDW
Info: 21 VDW_PAIRS
Info: 0 NBTHOLE_PAIRS
Info: To read alchdata from file: mobley_1615431.pdb
Info: To read alchflag data from column: 5
Info: STRUCTURE SUMMARY:
Info: 2991 ATOMS
Info: 2990 BONDS
Info: 37 ANGLES
Info: 58 DIHEDRALS
Info: 0 IMPROPERS
Info: 0 CROSSTERMS
Info: 3069 EXCLUSIONS
Info: 2984 RIGID BONDS
Info: ALCH: 0 ATOMS TO DISAPPEAR IN FINAL STATE
Info: ALCH: 21 ATOMS TO APPEAR IN FINAL STATE
Info: 5989 DEGREES OF FREEDOM
Info: 997 HYDROGEN GROUPS
Info: 4 ATOMS IN LARGEST HYDROGEN GROUP
Info: 997 MIGRATION GROUPS
Info: 4 ATOMS IN LARGEST MIGRATION GROUP
Info: TOTAL MASS = 17938 amu
Info: TOTAL CHARGE = 9.99942e-05 e
Info: MASS DENSITY = 0.972164 g/cm^3
Info: ATOM DENSITY = 0.0976163 atoms/A^3
Info: ADDED 0 IMPLICIT EXCLUSIONS
Info: NONBONDED TABLE R-SQUARED SPACING: 0.0625
Info: NONBONDED TABLE SIZE: 705 POINTS
Info: REMOVING COM VELOCITY 0.174507 0.00995608 0.262606
Info: Use 3D box decompostion in PME FFT.
Info: Updated CUDA force table with 4096 elements.
Info: Updated CUDA LJ table with 6 x 6 elements.
Info: Found 24 unique exclusion lists needing 68 bytes
TCL: Running for 1500000 steps
ETITLE: TS BOND ANGLE DIHED IMPRP ELECT VDW BOUNDARY MISC KINETIC TOTAL TEMP POTENTIAL TOTALAVG TEMPAVG PRESSURE GPRESSURE VOLUME PRESSAVG GPRESSAVG
ENERGY: 0 2.3243 8.0310 5.6718 0.0000 -10869.8755 1505.8474 0.0000 0.0000 1805.7132 -7542.2879 303.4484 -9348.0011 -7542.2879 303.4484 347.7938 433.8519 30640.3724 347.7938 433.8519
ENERGY: 300000 0.3726 11.4979 4.8252 0.0000 -10826.1647 1406.2343 0.0000 0.0000 1807.3354 -7595.8993 303.7210 -9403.2347 -7572.7117 302.5127 -496.3281 -498.1839 30804.8103 -44.4890 5.6350
ENERGY: 600000 1.5955 10.2535 4.9840 0.0000 -10802.9565 1421.7075 0.0000 0.0000 1782.4971 -7581.9189 299.5470 -9364.4160 -7557.5617 300.8120 -427.4098 -398.5431 30939.5186 -230.2673 -185.6705
ENERGY: 900000 3.5936 13.5113 5.8265 0.0000 -10960.8400 1554.5337 0.0000 0.0000 1774.7482 -7608.6266 298.2448 -9383.3749 -7561.9739 300.1066 574.3667 611.8952 30468.2354 -169.3595 -124.8278
ENERGY: 1200000 0.9458 9.7077 6.3767 0.0000 -10863.4980 1499.6810 0.0000 0.0000 1806.1556 -7540.6313 303.5227 -9346.7869 -7568.3242 299.4774 462.4252 538.8559 30229.1867 -131.7881 -80.2111
ENERGY: 1500000 2.0070 7.1998 7.4506 0.0000 -10939.8171 1519.1489 0.0000 0.0000 1678.6749 -7725.3359 282.0997 -9404.0108 -7576.3355 299.6740 211.0832 295.5920 30572.1565 -38.1644 15.4112
TCL: Running FEP window   2: Lambda1 0.05   Lambda2 0.1    [dLambda 0.05  ]
TCL: Setting parameter firsttimestep to 0
TCL: Setting parameter alchLambda to 0.05
Info: NONBONDED TABLE R-SQUARED SPACING: 0.0625
Info: NONBONDED TABLE SIZE: 705 POINTS
TCL: Setting parameter alchLambda2 to 0.1
Info: NONBONDED TABLE R-SQUARED SPACING: 0.0625
Info: NONBONDED TABLE SIZE: 705 POINTS
TCL: Running for 1500000 steps
ETITLE: TS BOND ANGLE DIHED IMPRP ELECT VDW BOUNDARY MISC KINETIC TOTAL TEMP POTENTIAL TOTALAVG TEMPAVG PRESSURE GPRESSURE VOLUME PRESSAVG GPRESSAVG
ENERGY: 0 2.0070 7.1998 7.4506 0.0000 -10939.8179 1523.6843 0.0000 0.0000 1677.8029 -7721.6733 281.9532 -9399.4762 -7721.6733 281.9532 218.4987 300.3426 30572.1565 218.4987 300.3426
ENERGY: 300000 4.6180 12.6069 4.8234 0.0000 -10893.4720 1510.5003 0.0000 0.0000 1799.4503 -7561.4731 302.3959 -9360.9234 -7577.0819 300.0146 129.9418 201.7078 30856.1055 -126.0418 -40.0959
ENERGY: 600000 2.4802 14.4294 5.7343 0.0000 -10655.2114 1331.5191 0.0000 0.0000 1816.2195 -7484.8290 305.2140 -9301.0485 -7537.8088 302.7913 -1044.7742 -919.9898 30843.7222 -415.1121 -326.7996
ENERGY: 900000 1.7638 9.4197 5.1819 0.0000 -10837.4170 1435.7841 0.0000 0.0000 1745.4274 -7639.8403 293.3174 -9385.2677 -7567.6377 299.7162 -204.2210 -156.8674 30266.6895 -318.2093 -236.4376
ENERGY: 1200000 1.8152 6.6353 7.2223 0.0000 -10918.1217 1520.3676 0.0000 0.0000 1776.4057 -7605.6756 298.5233 -9382.0812 -7575.9973 298.9348 158.0541 239.5052 30679.3541 -214.0964 -132.6615
ENERGY: 1500000 5.4148 14.7086 4.0021 0.0000 -10787.6030 1418.9572 0.0000 0.0000 1755.3640 -7589.1563 294.9873 -9344.5203 -7577.8412 298.3975 -387.4361 -302.6393 30678.7111 -195.6063 -116.5692
TCL: Running FEP window   3: Lambda1 0.1    Lambda2 0.15000000000000002 [dLambda 0.05000000000000002]
TCL: Setting parameter firsttimestep to 0
TCL: Setting parameter alchLambda to 0.1
Info: NONBONDED TABLE R-SQUARED SPACING: 0.0625
Info: NONBONDED TABLE SIZE: 705 POINTS
TCL: Setting parameter alchLambda2 to 0.15000000000000002
Info: NONBONDED TABLE R-SQUARED SPACING: 0.0625
Info: NONBONDED TABLE SIZE: 705 POINTS
TCL: Running for 1500000 steps
ETITLE: TS BOND ANGLE DIHED IMPRP ELECT VDW BOUNDARY MISC KINETIC TOTAL TEMP POTENTIAL TOTALAVG TEMPAVG PRESSURE GPRESSURE VOLUME PRESSAVG GPRESSAVG
ENERGY: 0 5.4148 14.7086 4.0021 0.0000 -10787.6035 1419.3457 0.0000 0.0000 1754.4718 -7589.6605 294.8373 -9344.1323 -7589.6605 294.8373 -402.0537 -299.2811 30678.7111 -402.0537 -299.2811
ENERGY: 300000 1.4339 8.4377 7.4981 0.0000 -10894.1170 1522.1128 0.0000 0.0000 1793.1826 -7561.4518 301.3426 -9354.6344 -7577.8427 298.8455 443.9107 473.6392 30902.1392 132.4250 179.3832
ENERGY: 600000 1.2556 11.3793 5.3306 0.0000 -10755.6671 1395.1740 0.0000 0.0000 1797.8086 -7544.7190 302.1200 -9342.5276 -7579.9425 299.7187 -430.3541 -304.3368 30764.6319 112.3276 175.5544
ENERGY: 900000 3.1034 8.5478 7.5446 0.0000 -10882.4371 1477.9425 0.0000 0.0000 1818.1528 -7567.1461 305.5389 -9385.2989 -7587.8247 299.8019 220.7016 254.2573 30477.9708 114.4353 180.4735
ENERGY: 1200000 3.0295 12.2177 7.1160 0.0000 -10737.1625 1389.4885 0.0000 0.0000 1797.5946 -7527.7162 302.0841 -9325.3108 -7587.1288 299.9593 -551.5832 -462.6862 30945.5134 39.5022 109.2081
ENERGY: 1500000 3.6098 8.3118 4.4680 0.0000 -10927.3218 1508.6680 0.0000 0.0000 1839.6669 -7562.5973 309.1543 -9402.2642 -7575.8271 300.7939 165.4672 203.5279 30721.4081 19.9970 82.9835
TCL: Running FEP window   4: Lambda1 0.15000000000000002 Lambda2 0.2    [dLambda 0.04999999999999999]
TCL: Setting parameter firsttimestep to 0
TCL: Setting parameter alchLambda to 0.15000000000000002
Info: NONBONDED TABLE R-SQUARED SPACING: 0.0625
Info: NONBONDED TABLE SIZE: 705 POINTS
TCL: Setting parameter alchLambda2 to 0.2
Info: NONBONDED TABLE R-SQUARED SPACING: 0.0625
Info: NONBONDED TABLE SIZE: 705 POINTS
TCL: Running for 1500000 steps
ETITLE: TS BOND ANGLE DIHED IMPRP ELECT VDW BOUNDARY MISC KINETIC TOTAL TEMP POTENTIAL TOTALAVG TEMPAVG PRESSURE GPRESSURE VOLUME PRESSAVG GPRESSAVG
ENERGY: 0 3.6098 8.3118 4.4680 0.0000 -10927.3210 1509.8649 0.0000 0.0000 1838.7947 -7562.2717 309.0077 -9401.0664 -7562.2717 309.0077 115.8462 208.6957 30721.4081 115.8462 208.6957
ENERGY: 300000 1.7457 8.2551 6.1901 0.0000 -10802.0741 1425.2687 0.0000 0.0000 1798.8343 -7561.7802 302.2924 -9360.6145 -7572.8968 304.7757 -375.2549 -286.2384 30838.7119 -252.2252 -179.2041
ENERGY: 600000 2.8648 10.7683 7.3966 0.0000 -10836.0150 1507.2451 0.0000 0.0000 1782.8825 -7524.8576 299.6117 -9307.7401 -7556.3299 303.3194 28.9662 93.8601 31364.2979 -57.6493 18.1673
ENERGY: 900000 1.7453 8.8547 4.0938 0.0000 -10997.4973 1570.8525 0.0000 0.0000 1767.7580 -7644.1928 297.0701 -9411.9508 -7578.2290 301.0698 565.2195 647.5062 30734.8650 20.8664 90.5623
ENERGY: 1200000 4.9409 9.1909 7.5629 0.0000 -10770.6707 1367.3844 0.0000 0.0000 1783.0667 -7598.5249 299.6427 -9381.5916 -7584.0583 300.8735 -876.7763 -799.8785 30713.8713 1.4408 66.0032
ENERGY: 1500000 2.0771 15.7576 6.9599 0.0000 -10883.3357 1477.6558 0.0000 0.0000 1802.4304 -7578.4549 302.8967 -9380.8853 -7583.2630 301.2731 -150.4028 -60.1315 31250.5353 17.4796 75.0922
TCL: Running FEP window   5: Lambda1 0.2    Lambda2 0.25   [dLambda 0.04999999999999999]
TCL: Setting parameter firsttimestep to 0
TCL: Setting parameter alchLambda to 0.2
Info: NONBONDED TABLE R-SQUARED SPACING: 0.0625
Info: NONBONDED TABLE SIZE: 705 POINTS
TCL: Setting parameter alchLambda2 to 0.25
Info: NONBONDED TABLE R-SQUARED SPACING: 0.0625
Info: NONBONDED TABLE SIZE: 705 POINTS
TCL: Running for 1500000 steps
ETITLE: TS BOND ANGLE DIHED IMPRP ELECT VDW BOUNDARY MISC KINETIC TOTAL TEMP POTENTIAL TOTALAVG TEMPAVG PRESSURE GPRESSURE VOLUME PRESSAVG GPRESSAVG
ENERGY: 0 2.0771 15.7575 6.9599 0.0000 -10883.3354 1477.7896 0.0000 0.0000 1801.5295 -7579.2217 302.7453 -9380.7512 -7579.2217 302.7453 -130.3501 -53.9835 31250.5353 -130.3501 -53.9835
ENERGY: 300000 1.5313 6.3781 6.7329 0.0000 -10935.0947 1525.1186 0.0000 0.0000 1806.5181 -7588.8158 303.5837 -9395.3339 -7586.7436 301.1226 481.5484 603.4503 30507.8845 -99.0870 -11.5985
ENERGY: 600000 1.4485 10.4575 6.6573 0.0000 -10960.4930 1540.7226 0.0000 0.0000 1753.6348 -7647.5723 294.6967 -9401.2071 -7593.1256 301.8800 493.7709 542.7498 30248.3237 103.9981 165.0224
ENERGY: 900000 1.6153 11.6943 7.3495 0.0000 -10830.7245 1472.8694 0.0000 0.0000 1795.9407 -7541.2553 301.8061 -9337.1960 -7591.2517 301.1668 67.2231 181.9942 30603.0386 -57.4916 17.1539
ENERGY: 1200000 4.2731 7.9110 5.3076 0.0000 -10814.0358 1407.5827 0.0000 0.0000 1780.3316 -7608.6297 299.1830 -9388.9613 -7611.3608 299.2269 -628.7033 -561.9881 30529.8306 -151.4482 -76.8083
ENERGY: 1500000 1.9295 11.8668 5.5351 0.0000 -10784.7520 1461.1178 0.0000 0.0000 1754.5947 -7549.7082 294.8580 -9304.3028 -7598.6462 299.6429 35.6142 84.9216 30875.6560 -98.8324 -25.2009
TCL: Running FEP window   6: Lambda1 0.25   Lambda2 0.3    [dLambda 0.04999999999999999]
TCL: Setting parameter firsttimestep to 0
TCL: Setting parameter alchLambda to 0.25
Info: NONBONDED TABLE R-SQUARED SPACING: 0.0625
Info: NONBONDED TABLE SIZE: 705 POINTS
TCL: Setting parameter alchLambda2 to 0.3
Info: NONBONDED TABLE R-SQUARED SPACING: 0.0625
Info: NONBONDED TABLE SIZE: 705 POINTS
TCL: Running for 1500000 steps
ETITLE: TS BOND ANGLE DIHED IMPRP ELECT VDW BOUNDARY MISC KINETIC TOTAL TEMP POTENTIAL TOTALAVG TEMPAVG PRESSURE GPRESSURE VOLUME PRESSAVG GPRESSAVG
ENERGY: 0 1.9295 11.8668 5.5351 0.0000 -10784.7515 1460.9570 0.0000 0.0000 1753.7035 -7550.7596 294.7082 -9304.4631 -7550.7596 294.7082 14.3487 89.8175 30875.6560 14.3487 89.8175
ENERGY: 300000 2.6423 6.9870 8.5367 0.0000 -10747.4136 1444.0172 0.0000 0.0000 1745.1076 -7540.1228 293.2637 -9285.2303 -7561.7532 295.0916 107.7818 130.8277 30699.0239 82.3485 127.3750
ENERGY: 600000 1.9318 8.8473 6.0050 0.0000 -10753.8590 1399.4092 0.0000 0.0000 1857.6982 -7479.9677 312.1844 -9337.6659 -7526.5153 301.7081 -401.8612 -308.2758 30797.5192 152.5217 200.2781
ENERGY: 900000 1.5359 15.0853 5.2807 0.0000 -10873.1887 1477.7669 0.0000 0.0000 1789.4320 -7584.0878 300.7124 -9373.5199 -7527.5686 302.2328 314.2661 389.5776 30288.6825 127.0755 175.2965
ENERGY: 1200000 0.7260 13.0156 6.4048 0.0000 -10740.9188 1413.7231 0.0000 0.0000 1772.0127 -7535.0365 297.7851 -9307.0492 -7519.0456 302.3400 -568.7234 -430.3263 31342.7121 14.5450 76.8644
ENERGY: 1500000 2.2555 5.6860 4.9137 0.0000 -10834.6252 1473.1541 0.0000 0.0000 1815.5774 -7533.0386 305.1061 -9348.6160 -7522.6524 302.6889 223.4478 269.1775 30513.8895 -23.9937 36.7394
TCL: Running FEP window   7: Lambda1 0.3    Lambda2 0.35   [dLambda 0.04999999999999999]
TCL: Setting parameter firsttimestep to 0
TCL: Setting parameter alchLambda to 0.3
Info: NONBONDED TABLE R-SQUARED SPACING: 0.0625
Info: NONBONDED TABLE SIZE: 705 POINTS
TCL: Setting parameter alchLambda2 to 0.35
Info: NONBONDED TABLE R-SQUARED SPACING: 0.0625
Info: NONBONDED TABLE SIZE: 705 POINTS
TCL: Running for 1500000 steps
ETITLE: TS BOND ANGLE DIHED IMPRP ELECT VDW BOUNDARY MISC KINETIC TOTAL TEMP POTENTIAL TOTALAVG TEMPAVG PRESSURE GPRESSURE VOLUME PRESSAVG GPRESSAVG
ENERGY: 0 2.2555 5.6860 4.9137 0.0000 -10834.6251 1472.7364 0.0000 0.0000 1814.6938 -7534.3397 304.9576 -9349.0335 -7534.3397 304.9576 193.6627 271.9515 30513.8895 193.6627 271.9515
ENERGY: 300000 1.7943 12.7827 9.4165 0.0000 -10815.9062 1505.6388 0.0000 0.0000 1794.6751 -7491.5988 301.5934 -9286.2739 -7529.2293 299.7581 503.8639 614.6573 30469.7400 52.5785 117.7004
ENERGY: 600000 2.4815 10.1172 6.7236 0.0000 -10761.7696 1411.6962 0.0000 0.0000 1830.3117 -7500.4394 307.5821 -9330.7511 -7520.7845 301.0274 -423.4619 -311.0317 30649.4809 -140.5348 -72.2572
ENERGY: 900000 2.1542 6.8347 10.4338 0.0000 -10691.8453 1377.7411 0.0000 0.0000 1784.3083 -7510.3732 299.8513 -9294.6815 -7539.7511 299.5997 -495.5580 -423.8226 30999.0308 -140.7079 -80.2243
ENERGY: 1200000 2.6731 14.5724 4.5051 0.0000 -10805.4081 1459.4049 0.0000 0.0000 1803.5443 -7520.7083 303.0839 -9324.2526 -7537.8732 300.0672 128.5287 183.4511 30766.0685 -167.4160 -105.1942
ENERGY: 1500000 1.6590 10.3126 4.7347 0.0000 -10909.2994 1505.4899 0.0000 0.0000 1778.9773 -7608.1259 298.9554 -9387.1032 -7552.2031 300.1334 593.8746 716.2572 29815.3854 -109.8011 -44.5701
TCL: Running FEP window   8: Lambda1 0.35   Lambda2 0.39999999999999997 [dLambda 0.04999999999999999]
TCL: Setting parameter firsttimestep to 0
TCL: Setting parameter alchLambda to 0.35
Info: NONBONDED TABLE R-SQUARED SPACING: 0.0625
Info: NONBONDED TABLE SIZE: 705 POINTS
TCL: Setting parameter alchLambda2 to 0.39999999999999997
Info: NONBONDED TABLE R-SQUARED SPACING: 0.0625
Info: NONBONDED TABLE SIZE: 705 POINTS
TCL: Running for 1500000 steps
ETITLE: TS BOND ANGLE DIHED IMPRP ELECT VDW BOUNDARY MISC KINETIC TOTAL TEMP POTENTIAL TOTALAVG TEMPAVG PRESSURE GPRESSURE VOLUME PRESSAVG GPRESSAVG
ENERGY: 0 1.6590 10.3126 4.7347 0.0000 -10909.2997 1506.1675 0.0000 0.0000 1778.0953 -7608.3305 298.8072 -9386.4258 -7608.3305 298.8072 639.4864 726.9790 29815.3854 639.4864 726.9790
ENERGY: 300000 1.8536 18.7494 5.5224 0.0000 -10826.6328 1422.1338 0.0000 0.0000 1757.7319 -7620.6417 295.3852 -9378.3736 -7621.4865 299.2194 -358.8422 -318.0994 30791.1607 22.9146 90.1389
ENERGY: 600000 1.6844 11.6211 5.2242 0.0000 -10814.7855 1426.3256 0.0000 0.0000 1771.7412 -7598.1891 297.7394 -9369.9303 -7583.4370 299.5830 -407.1226 -263.3021 30814.4842 -189.8387 -125.7435
ENERGY: 900000 1.7291 9.9845 7.6828 0.0000 -10881.9828 1504.2315 0.0000 0.0000 1767.1025 -7591.2525 296.9599 -9358.3550 -7589.7910 298.3627 505.8241 585.7528 30354.2761 -77.3936 -20.8117
ENERGY: 1200000 1.5210 7.5375 5.6139 0.0000 -10874.0468 1507.9317 0.0000 0.0000 1778.3400 -7573.1029 298.8483 -9351.4429 -7593.8456 298.0923 94.2356 139.5887 31182.3611 -117.8001 -60.4043
ENERGY: 1500000 5.5516 9.5142 6.4954 0.0000 -10995.8571 1588.7534 0.0000 0.0000 1849.9964 -7535.5462 310.8901 -9385.5425 -7588.5067 298.5409 587.3460 635.8768 31018.1138 34.2237 90.4592
TCL: Running FEP window   9: Lambda1 0.39999999999999997 Lambda2 0.44999999999999996 [dLambda 0.04999999999999999]
TCL: Setting parameter firsttimestep to 0
TCL: Setting parameter alchLambda to 0.39999999999999997
Info: NONBONDED TABLE R-SQUARED SPACING: 0.0625
Info: NONBONDED TABLE SIZE: 705 POINTS
TCL: Setting parameter alchLambda2 to 0.44999999999999996
Info: NONBONDED TABLE R-SQUARED SPACING: 0.0625
Info: NONBONDED TABLE SIZE: 705 POINTS
TCL: Running for 1500000 steps
ETITLE: TS BOND ANGLE DIHED IMPRP ELECT VDW BOUNDARY MISC KINETIC TOTAL TEMP POTENTIAL TOTALAVG TEMPAVG PRESSURE GPRESSURE VOLUME PRESSAVG GPRESSAVG
ENERGY: 0 5.5516 9.5142 6.4954 0.0000 -10995.8580 1589.2219 0.0000 0.0000 1849.0819 -7535.9930 310.7365 -9385.0749 -7535.9930 310.7365 561.9364 646.6544 31018.1138 561.9364 646.6544
ENERGY: 300000 3.0206 10.4559 3.9007 0.0000 -10816.5647 1466.9155 0.0000 0.0000 1839.9572 -7492.3147 309.2031 -9332.2719 -7525.8657 304.7312 -33.9631 30.4352 30747.6098 0.0486 80.2365
ENERGY: 600000 0.6681 11.8723 5.0620 0.0000 -10893.1510 1467.1409 0.0000 0.0000 1782.5672 -7625.8406 299.5587 -9408.4078 -7553.7919 302.6021 221.2217 242.8504 30258.6632 -42.2379 20.7893
ENERGY: 900000 1.2230 11.1755 7.0417 0.0000 -10874.7623 1434.6818 0.0000 0.0000 1789.7062 -7630.9342 300.7584 -9420.6404 -7569.0917 300.8298 -141.4026 -83.8269 30244.7936 -132.1500 -66.3137
ENERGY: 1200000 1.1492 9.1188 7.1875 0.0000 -10638.0929 1348.8472 0.0000 0.0000 1723.1717 -7548.6186 289.5774 -9271.7903 -7567.4442 299.6843 -548.0172 -470.1738 30706.1067 -44.2739 18.6076
ENERGY: 1500000 1.3397 17.2311 7.5162 0.0000 -10826.5635 1440.2452 0.0000 0.0000 1757.8101 -7602.4212 295.3983 -9360.2312 -7566.2940 299.8641 61.4153 61.6348 30511.7582 4.7501 59.8330
TCL: Running FEP window  10: Lambda1 0.44999999999999996 Lambda2 0.49999999999999994 [dLambda 0.04999999999999999]
TCL: Setting parameter firsttimestep to 0
TCL: Setting parameter alchLambda to 0.44999999999999996
Info: NONBONDED TABLE R-SQUARED SPACING: 0.0625
Info: NONBONDED TABLE SIZE: 705 POINTS
TCL: Setting parameter alchLambda2 to 0.49999999999999994
Info: NONBONDED TABLE R-SQUARED SPACING: 0.0625
Info: NONBONDED TABLE SIZE: 705 POINTS
TCL: Running for 1500000 steps
ETITLE: TS BOND ANGLE DIHED IMPRP ELECT VDW BOUNDARY MISC KINETIC TOTAL TEMP POTENTIAL TOTALAVG TEMPAVG PRESSURE GPRESSURE VOLUME PRESSAVG GPRESSAVG
ENERGY: 0 1.3397 17.2311 7.5162 0.0000 -10826.5607 1440.0055 0.0000 0.0000 1756.9005 -7603.5677 295.2455 -9360.4682 -7603.5677 295.2455 -16.5370 66.4882 30511.7582 -16.5370 66.4882
ENERGY: 300000 1.2622 8.1902 6.9157 0.0000 -10826.6813 1379.6849 0.0000 0.0000 1809.7206 -7620.9078 304.1218 -9430.6284 -7607.3651 299.8849 -825.0569 -775.4243 30977.1443 -381.0275 -331.0308
ENERGY: 600000 2.9444 8.3818 4.2690 0.0000 -10912.5295 1509.6300 0.0000 0.0000 1775.7716 -7611.5327 298.4167 -9387.3043 -7606.4437 299.4237 330.8371 395.8566 30523.1126 -347.3238 -302.8071
ENERGY: 900000 0.9481 10.2487 4.9218 0.0000 -10910.4646 1490.1710 0.0000 0.0000 1852.6757 -7551.4993 311.3404 -9404.1750 -7597.8895 300.7006 422.3443 410.0488 30397.9923 -247.0331 -207.5232
ENERGY: 1200000 1.4963 6.9642 5.6442 0.0000 -10794.6854 1406.3099 0.0000 0.0000 1810.5858 -7563.6850 304.2672 -9374.2708 -7591.6276 301.4884 -251.5933 -215.9911 30620.2852 -181.1463 -141.7615
ENERGY: 1500000 2.2535 9.1377 4.4417 0.0000 -10926.7124 1517.8990 0.0000 0.0000 1751.4038 -7641.5768 294.3218 -9392.9806 -7587.8937 300.6114 296.3984 457.7728 30372.5374 -153.7047 -107.2710
TCL: Running FEP window  11: Lambda1 0.49999999999999994 Lambda2 0.5499999999999999 [dLambda 0.04999999999999999]
TCL: Setting parameter firsttimestep to 0
TCL: Setting parameter alchLambda to 0.49999999999999994
Info: NONBONDED TABLE R-SQUARED SPACING: 0.0625
Info: NONBONDED TABLE SIZE: 705 POINTS
TCL: Setting parameter alchLambda2 to 0.5499999999999999
Info: NONBONDED TABLE R-SQUARED SPACING: 0.0625
Info: NONBONDED TABLE SIZE: 705 POINTS
TCL: Running for 1500000 steps
ETITLE: TS BOND ANGLE DIHED IMPRP ELECT VDW BOUNDARY MISC KINETIC TOTAL TEMP POTENTIAL TOTALAVG TEMPAVG PRESSURE GPRESSURE VOLUME PRESSAVG GPRESSAVG
ENERGY: 0 2.2535 9.1376 4.4417 0.0000 -10926.7126 1518.1335 0.0000 0.0000 1750.5282 -7642.2181 294.1746 -9392.7463 -7642.2181 294.1746 382.6127 469.1013 30372.5374 382.6127 469.1013
ENERGY: 300000 1.7312 11.7445 6.9953 0.0000 -10725.3909 1371.7533 0.0000 0.0000 1809.0598 -7524.1067 304.0108 -9333.1666 -7573.2025 301.0895 -705.1023 -728.8191 31222.5821 -65.4482 -23.9604
ENERGY: 600000 1.8634 5.2590 6.8372 0.0000 -10607.1937 1357.0549 0.0000 0.0000 1756.1020 -7480.0772 295.1113 -9236.1792 -7545.9264 299.7012 -333.5320 -325.5340 30697.4609 -58.5216 -19.9331
ENERGY: 900000 2.9954 13.2747 4.0645 0.0000 -10996.0219 1550.0916 0.0000 0.0000 1776.4412 -7649.1545 298.5293 -9425.5958 -7552.2940 299.1017 363.2482 374.7693 30935.9237 -71.8433 -31.5807
ENERGY: 1200000 1.9937 7.3319 6.3670 0.0000 -10743.3395 1408.2058 0.0000 0.0000 1819.5244 -7499.9167 305.7694 -9319.4411 -7543.9297 299.3139 -362.7853 -358.4480 30875.9769 -133.5526 -88.7886
ENERGY: 1500000 1.8649 15.2521 7.8088 0.0000 -10730.7784 1395.0166 0.0000 0.0000 1805.2100 -7505.6259 303.3638 -9310.8359 -7542.2398 299.7614 -506.3756 -435.2336 31080.4229 -154.9414 -108.5488
TCL: Running FEP window  12: Lambda1 0.5499999999999999 Lambda2 0.6    [dLambda 0.050000000000000044]
TCL: Setting parameter firsttimestep to 0
TCL: Setting parameter alchLambda to 0.5499999999999999
Info: NONBONDED TABLE R-SQUARED SPACING: 0.0625
Info: NONBONDED TABLE SIZE: 705 POINTS
TCL: Setting parameter alchLambda2 to 0.6
Info: NONBONDED TABLE R-SQUARED SPACING: 0.0625
Info: NONBONDED TABLE SIZE: 705 POINTS
TCL: Running for 1500000 steps
ETITLE: TS BOND ANGLE DIHED IMPRP ELECT VDW BOUNDARY MISC KINETIC TOTAL TEMP POTENTIAL TOTALAVG TEMPAVG PRESSURE GPRESSURE VOLUME PRESSAVG GPRESSAVG
ENERGY: 0 1.8649 15.2521 7.8088 0.0000 -10730.8544 1395.4535 0.0000 0.0000 1804.3451 -7506.1300 303.2185 -9310.4750 -7506.1300 303.2185 -513.4382 -424.2623 31080.4229 -513.4382 -424.2623
ENERGY: 300000 0.5103 12.5466 8.1298 0.0000 -10877.3864 1497.3597 0.0000 0.0000 1771.7611 -7587.0790 297.7428 -9358.8401 -7541.9788 301.4568 477.6795 630.9947 30414.1655 -100.4088 -11.7026
ENERGY: 600000 1.6259 6.6688 6.0205 0.0000 -10788.7313 1423.3778 0.0000 0.0000 1758.4736 -7592.5646 295.5098 -9351.0382 -7553.5727 301.2247 -168.0220 -119.3159 30745.8494 61.9103 134.1103
ENERGY: 900000 4.6755 7.1841 6.7848 0.0000 -10886.2609 1547.3231 0.0000 0.0000 1759.0572 -7561.2361 295.6079 -9320.2934 -7567.0494 299.5206 731.6374 768.1097 30612.8467 238.1097 304.9565
ENERGY: 1200000 3.3007 11.6387 5.5033 0.0000 -10776.9373 1366.7315 0.0000 0.0000 1752.2604 -7637.5026 294.4657 -9389.7631 -7568.9046 299.7788 -698.6859 -603.8234 30556.3567 64.6285 124.4406
ENERGY: 1500000 2.6250 9.1060 8.3935 0.0000 -10776.2308 1446.3680 0.0000 0.0000 1768.9619 -7540.7765 297.2724 -9309.7383 -7559.6732 299.7360 166.5917 241.7416 30429.0442 66.8014 127.4234
TCL: Running FEP window  13: Lambda1 0.6    Lambda2 0.65   [dLambda 0.050000000000000044]
TCL: Setting parameter firsttimestep to 0
TCL: Setting parameter alchLambda to 0.6
Info: NONBONDED TABLE R-SQUARED SPACING: 0.0625
Info: NONBONDED TABLE SIZE: 705 POINTS
TCL: Setting parameter alchLambda2 to 0.65
Info: NONBONDED TABLE R-SQUARED SPACING: 0.0625
Info: NONBONDED TABLE SIZE: 705 POINTS
TCL: Running for 1500000 steps
ETITLE: TS BOND ANGLE DIHED IMPRP ELECT VDW BOUNDARY MISC KINETIC TOTAL TEMP POTENTIAL TOTALAVG TEMPAVG PRESSURE GPRESSURE VOLUME PRESSAVG GPRESSAVG
ENERGY: 0 2.6250 9.1060 8.3935 0.0000 -10776.3583 1446.4260 0.0000 0.0000 1768.0762 -7541.7316 297.1235 -9309.8078 -7541.7316 297.1235 169.8001 251.6203 30429.0442 169.8001 251.6203
ENERGY: 300000 3.3828 7.9693 6.1582 0.0000 -10815.0889 1437.4588 0.0000 0.0000 1792.3083 -7567.8115 301.1957 -9360.1198 -7582.1061 298.4434 -185.6158 -122.3215 31013.6010 365.2899 445.5675
ENERGY: 600000 4.7571 12.5999 8.7551 0.0000 -10813.9813 1472.6920 0.0000 0.0000 1765.0333 -7550.1438 296.6122 -9315.1771 -7571.7240 297.1858 101.3408 211.1545 30978.4682 101.9245 175.2820
ENERGY: 900000 0.4063 13.5558 4.4276 0.0000 -10816.4164 1460.4707 0.0000 0.0000 1773.5507 -7564.0053 298.0435 -9337.5560 -7566.6694 298.2385 91.8702 164.0247 30830.5992 74.6617 141.0807
ENERGY: 1200000 0.4325 11.7736 4.7144 0.0000 -10808.3071 1420.8888 0.0000 0.0000 1829.2409 -7541.2569 307.4022 -9370.4979 -7570.5131 299.1508 -108.9118 -81.8991 30611.5406 92.3203 158.7935
ENERGY: 1500000 1.7779 8.5510 8.5662 0.0000 -10848.8093 1422.4428 0.0000 0.0000 1759.0326 -7648.4389 295.6038 -9407.4714 -7577.2624 298.2364 -267.3844 -202.2788 30450.0341 5.1148 78.7720
TCL: Running FEP window  14: Lambda1 0.65   Lambda2 0.7000000000000001 [dLambda 0.050000000000000044]
TCL: Setting parameter firsttimestep to 0
TCL: Setting parameter alchLambda to 0.65
Info: NONBONDED TABLE R-SQUARED SPACING: 0.0625
Info: NONBONDED TABLE SIZE: 705 POINTS
TCL: Setting parameter alchLambda2 to 0.7000000000000001
Info: NONBONDED TABLE R-SQUARED SPACING: 0.0625
Info: NONBONDED TABLE SIZE: 705 POINTS
TCL: Running for 1500000 steps
ETITLE: TS BOND ANGLE DIHED IMPRP ELECT VDW BOUNDARY MISC KINETIC TOTAL TEMP POTENTIAL TOTALAVG TEMPAVG PRESSURE GPRESSURE VOLUME PRESSAVG GPRESSAVG
ENERGY: 0 1.7779 8.5510 8.5662 0.0000 -10849.2226 1422.1072 0.0000 0.0000 1758.1656 -7650.0546 295.4581 -9408.2203 -7650.0546 295.4581 -282.6919 -195.9906 30450.0341 -282.6919 -195.9906
ENERGY: 300000 1.7347 11.5316 5.9680 0.0000 -10898.6953 1454.8724 0.0000 0.0000 1784.4645 -7640.1241 299.8776 -9424.5885 -7632.9872 298.8563 -246.7533 -186.8926 30746.4575 -319.2076 -249.5438
ENERGY: 600000 2.9013 7.3158 5.6520 0.0000 -10668.4458 1383.6494 0.0000 0.0000 1746.0668 -7522.8605 293.4249 -9268.9273 -7607.8595 297.7397 -682.7307 -593.3064 31506.1598 -404.2052 -333.2577
ENERGY: 900000 1.4519 15.1346 4.9401 0.0000 -10745.3351 1386.7572 0.0000 0.0000 1781.1772 -7555.8742 299.3251 -9337.0513 -7581.6034 299.2769 -735.6936 -688.8856 31340.3403 -410.4410 -339.7450
ENERGY: 1200000 1.2206 5.9085 4.4061 0.0000 -10780.5796 1364.5668 0.0000 0.0000 1723.3610 -7681.1166 289.6092 -9404.4776 -7595.2282 299.0909 -828.0483 -814.6585 30802.8070 -401.2363 -335.8671
ENERGY: 1500000 2.9090 8.2427 5.9509 0.0000 -10920.3073 1574.0119 0.0000 0.0000 1753.0590 -7576.1337 294.5999 -9329.1928 -7592.7030 298.7694 1020.3907 1095.3868 30529.0346 -273.1415 -202.1669
TCL: Running FEP window  15: Lambda1 0.7000000000000001 Lambda2 0.7500000000000001 [dLambda 0.050000000000000044]
TCL: Setting parameter firsttimestep to 0
TCL: Setting parameter alchLambda to 0.7000000000000001
Info: NONBONDED TABLE R-SQUARED SPACING: 0.0625
Info: NONBONDED TABLE SIZE: 705 POINTS
TCL: Setting parameter alchLambda2 to 0.7500000000000001
Info: NONBONDED TABLE R-SQUARED SPACING: 0.0625
Info: NONBONDED TABLE SIZE: 705 POINTS
TCL: Running for 1500000 steps
ETITLE: TS BOND ANGLE DIHED IMPRP ELECT VDW BOUNDARY MISC KINETIC TOTAL TEMP POTENTIAL TOTALAVG TEMPAVG PRESSURE GPRESSURE VOLUME PRESSAVG GPRESSAVG
ENERGY: 0 2.9090 8.2427 5.9509 0.0000 -10920.3573 1573.6589 0.0000 0.0000 1752.1656 -7577.4302 294.4498 -9329.5958 -7577.4302 294.4498 1022.6968 1098.8776 30529.0346 1022.6968 1098.8776
ENERGY: 300000 2.8291 11.6794 4.9393 0.0000 -10868.7661 1540.7899 0.0000 0.0000 1802.9137 -7505.6148 302.9779 -9308.5285 -7557.0957 299.4092 719.4543 794.8877 31051.6263 534.9747 605.7378
ENERGY: 600000 2.1547 7.9522 7.1582 0.0000 -10707.5227 1389.3068 0.0000 0.0000 1778.4529 -7522.4979 298.8673 -9300.9507 -7577.8200 298.0239 -311.4878 -250.3404 31037.4018 249.7442 312.9121
ENERGY: 900000 1.7368 14.6237 7.6949 0.0000 -10854.1993 1421.8174 0.0000 0.0000 1746.5897 -7661.7368 293.5127 -9408.3264 -7600.9857 297.3200 -316.8331 -263.7186 30597.7873 179.3936 249.3349
ENERGY: 1200000 0.2735 7.3354 9.2922 0.0000 -10763.5776 1403.2337 0.0000 0.0000 1811.1116 -7532.3312 304.3556 -9343.4428 -7590.3804 299.6945 -479.6196 -443.9391 30995.9190 155.4564 226.9172
ENERGY: 1500000 4.7276 12.9036 6.4963 0.0000 -11003.6624 1595.9796 0.0000 0.0000 1814.2705 -7569.2847 304.8864 -9383.5553 -7593.6800 300.6043 1281.5007 1381.0500 30464.2145 292.2257 365.4694
TCL: Running FEP window  16: Lambda1 0.7500000000000001 Lambda2 0.8000000000000002 [dLambda 0.050000000000000044]
TCL: Setting parameter firsttimestep to 0
TCL: Setting parameter alchLambda to 0.7500000000000001
Info: NONBONDED TABLE R-SQUARED SPACING: 0.0625
Info: NONBONDED TABLE SIZE: 705 POINTS
TCL: Setting parameter alchLambda2 to 0.8000000000000002
Info: NONBONDED TABLE R-SQUARED SPACING: 0.0625
Info: NONBONDED TABLE SIZE: 705 POINTS
TCL: Running for 1500000 steps
ETITLE: TS BOND ANGLE DIHED IMPRP ELECT VDW BOUNDARY MISC KINETIC TOTAL TEMP POTENTIAL TOTALAVG TEMPAVG PRESSURE GPRESSURE VOLUME PRESSAVG GPRESSAVG
ENERGY: 0 4.7276 12.9036 6.4963 0.0000 -11003.6279 1596.0377 0.0000 0.0000 1813.3692 -7570.0935 304.7350 -9383.4627 -7570.0935 304.7350 1318.7915 1392.5386 30464.2145 1318.7915 1392.5386
ENERGY: 300000 4.1073 10.4994 4.1683 0.0000 -10863.0326 1449.4666 0.0000 0.0000 1804.6026 -7590.1884 303.2618 -9394.7910 -7587.5760 301.9550 -238.2457 -157.2902 30448.6952 86.7833 149.4419
ENERGY: 600000 2.7620 8.4637 7.0301 0.0000 -10778.9094 1359.4093 0.0000 0.0000 1808.2227 -7593.0216 303.8701 -9401.2443 -7577.9086 302.3009 -735.5604 -621.6124 30529.7321 -13.5451 45.2338
ENERGY: 900000 2.6324 11.6812 7.0108 0.0000 -10895.8592 1435.6973 0.0000 0.0000 1738.8845 -7699.9531 292.2179 -9438.8376 -7601.2368 300.6449 -270.6670 -223.4851 30709.8700 -15.8509 42.9426
ENERGY: 1200000 0.6680 8.2473 5.5323 0.0000 -10931.9272 1556.2742 0.0000 0.0000 1785.4243 -7575.7810 300.0389 -9361.2053 -7587.6111 301.2152 590.0353 626.3368 30933.8532 70.1301 128.4201
ENERGY: 1500000 1.2160 10.1267 5.7028 0.0000 -10659.2663 1349.0093 0.0000 0.0000 1784.3341 -7508.8774 299.8557 -9293.2115 -7589.1299 299.9373 -725.8153 -695.3392 31222.9299 -2.8677 55.2239
TCL: Running FEP window  17: Lambda1 0.8000000000000002 Lambda2 0.8500000000000002 [dLambda 0.050000000000000044]
TCL: Setting parameter firsttimestep to 0
TCL: Setting parameter alchLambda to 0.8000000000000002
Info: NONBONDED TABLE R-SQUARED SPACING: 0.0625
Info: NONBONDED TABLE SIZE: 705 POINTS
TCL: Setting parameter alchLambda2 to 0.8500000000000002
Info: NONBONDED TABLE R-SQUARED SPACING: 0.0625
Info: NONBONDED TABLE SIZE: 705 POINTS
TCL: Running for 1500000 steps
ETITLE: TS BOND ANGLE DIHED IMPRP ELECT VDW BOUNDARY MISC KINETIC TOTAL TEMP POTENTIAL TOTALAVG TEMPAVG PRESSURE GPRESSURE VOLUME PRESSAVG GPRESSAVG
ENERGY: 0 1.2160 10.1267 5.7028 0.0000 -10659.1932 1348.8503 0.0000 0.0000 1783.4648 -7509.8326 299.7096 -9293.2974 -7509.8326 299.7096 -764.2600 -687.0175 31222.9299 -764.2600 -687.0175
ENERGY: 300000 0.6326 7.2007 5.9309 0.0000 -10771.9455 1423.7700 0.0000 0.0000 1745.0909 -7589.3204 293.2609 -9334.4113 -7558.4971 300.1045 -271.2104 -179.6914 31098.9501 69.7056 154.9621
ENERGY: 600000 2.9482 8.5533 7.1442 0.0000 -10710.7229 1390.6870 0.0000 0.0000 1764.6452 -7536.7450 296.5470 -9301.3902 -7560.2280 300.9159 -537.0462 -479.7778 31290.9142 -62.5457 -4.0970
ENERGY: 900000 3.9276 13.0995 5.4503 0.0000 -10955.4536 1552.8035 0.0000 0.0000 1816.4543 -7563.7183 305.2534 -9380.1726 -7562.1050 302.2611 888.0982 931.0627 30568.0610 117.7143 173.2471
ENERGY: 1200000 2.4575 13.5315 6.7472 0.0000 -10829.8339 1500.9710 0.0000 0.0000 1820.0304 -7486.0963 305.8544 -9306.1268 -7546.0115 303.7099 440.6001 545.0041 30930.3275 112.2956 176.8222
ENERGY: 1500000 3.3742 8.8410 6.2610 0.0000 -10815.1054 1378.1376 0.0000 0.0000 1801.0723 -7617.4194 302.6685 -9418.4917 -7554.3355 302.9369 -734.3415 -645.5535 30623.5245 33.5098 100.9392
TCL: Running FEP window  18: Lambda1 0.8500000000000002 Lambda2 0.9000000000000002 [dLambda 0.050000000000000044]
TCL: Setting parameter firsttimestep to 0
TCL: Setting parameter alchLambda to 0.8500000000000002
Info: NONBONDED TABLE R-SQUARED SPACING: 0.0625
Info: NONBONDED TABLE SIZE: 705 POINTS
TCL: Setting parameter alchLambda2 to 0.9000000000000002
Info: NONBONDED TABLE R-SQUARED SPACING: 0.0625
Info: NONBONDED TABLE SIZE: 705 POINTS
TCL: Running for 1500000 steps
ETITLE: TS BOND ANGLE DIHED IMPRP ELECT VDW BOUNDARY MISC KINETIC TOTAL TEMP POTENTIAL TOTALAVG TEMPAVG PRESSURE GPRESSURE VOLUME PRESSAVG GPRESSAVG
ENERGY: 0 3.3742 8.8410 6.2610 0.0000 -10815.7678 1378.3605 0.0000 0.0000 1800.1731 -7618.7580 302.5174 -9418.9311 -7618.7580 302.5174 -721.8590 -632.1766 30623.5245 -721.8590 -632.1766
ENERGY: 300000 2.5119 7.5595 7.0809 0.0000 -10912.2015 1482.6266 0.0000 0.0000 1719.4653 -7692.9573 288.9545 -9412.4227 -7595.0296 301.2674 347.3144 448.6016 30167.1523 -318.9824 -248.8353
ENERGY: 600000 0.5955 12.9629 5.6629 0.0000 -10866.8600 1414.8593 0.0000 0.0000 1787.2249 -7645.5546 300.3415 -9432.7795 -7582.3441 301.1033 -384.6444 -234.1261 30365.6902 -319.6184 -243.5147
ENERGY: 900000 0.4823 14.3395 6.2282 0.0000 -10845.2633 1498.0676 0.0000 0.0000 1771.1092 -7555.0365 297.6332 -9326.1457 -7580.0145 299.0855 316.8792 373.0516 30923.0630 -213.5049 -145.5342
ENERGY: 1200000 1.4652 11.2281 7.0689 0.0000 -10771.6036 1499.3993 0.0000 0.0000 1833.6316 -7418.8105 308.1401 -9252.4421 -7559.7965 299.9455 629.4944 795.5379 30746.6377 -15.5055 55.4739
ENERGY: 1500000 0.9846 8.6141 7.2581 0.0000 -10916.1589 1518.2444 0.0000 0.0000 1843.4629 -7537.5947 309.7922 -9381.0576 -7563.0777 300.3767 389.9956 482.7504 30944.7715 81.7266 157.0989
TCL: Running FEP window  19: Lambda1 0.9000000000000002 Lambda2 0.9500000000000003 [dLambda 0.050000000000000044]
TCL: Setting parameter firsttimestep to 0
TCL: Setting parameter alchLambda to 0.9000000000000002
Info: NONBONDED TABLE R-SQUARED SPACING: 0.0625
Info: NONBONDED TABLE SIZE: 705 POINTS
TCL: Setting parameter alchLambda2 to 0.9500000000000003
Info: NONBONDED TABLE R-SQUARED SPACING: 0.0625
Info: NONBONDED TABLE SIZE: 705 POINTS
TCL: Running for 1500000 steps
ETITLE: TS BOND ANGLE DIHED IMPRP ELECT VDW BOUNDARY MISC KINETIC TOTAL TEMP POTENTIAL TOTALAVG TEMPAVG PRESSURE GPRESSURE VOLUME PRESSAVG GPRESSAVG
ENERGY: 0 0.9846 8.6141 7.2581 0.0000 -10916.3724 1517.9148 0.0000 0.0000 1842.5489 -7539.0518 309.6386 -9381.6007 -7539.0518 309.6386 411.3092 489.0888 30944.7715 411.3092 489.0888
ENERGY: 300000 1.8875 9.3683 7.0932 0.0000 -10816.6888 1392.1285 0.0000 0.0000 1766.9534 -7639.2580 296.9348 -9406.2113 -7586.7920 301.1468 -598.7225 -507.3659 31115.5188 -170.9007 -91.5147
ENERGY: 600000 3.2635 7.4075 6.1194 0.0000 -10868.3209 1443.9017 0.0000 0.0000 1779.8727 -7627.7562 299.1059 -9407.6289 -7602.6331 298.4350 -133.8729 -76.9956 30649.8493 -204.7646 -141.7403
ENERGY: 900000 2.0562 12.3181 3.9704 0.0000 -10745.9825 1413.5360 0.0000 0.0000 1769.7359 -7544.3659 297.4024 -9314.1018 -7596.8495 299.4317 -139.8897 -94.7036 30825.5101 -184.2892 -113.3173
ENERGY: 1200000 2.9763 14.0085 4.7872 0.0000 -10966.3463 1488.3999 0.0000 0.0000 1769.5931 -7686.5813 297.3784 -9456.1744 -7603.9048 299.0188 258.4864 330.1561 30321.0424 -153.7149 -91.8100
ENERGY: 1500000 1.3691 10.4252 4.9544 0.0000 -10806.3040 1409.9977 0.0000 0.0000 1783.8525 -7595.7052 299.7747 -9379.5576 -7599.1870 299.0428 -351.0586 -320.8776 30829.8750 -130.5224 -77.1362
TCL: Running FEP window  20: Lambda1 0.9500000000000003 Lambda2 1.0    [dLambda 0.04999999999999971]
TCL: Setting parameter firsttimestep to 0
TCL: Setting parameter alchLambda to 0.9500000000000003
Info: NONBONDED TABLE R-SQUARED SPACING: 0.0625
Info: NONBONDED TABLE SIZE: 705 POINTS
TCL: Setting parameter alchLambda2 to 1.0
Info: NONBONDED TABLE R-SQUARED SPACING: 0.0625
Info: NONBONDED TABLE SIZE: 705 POINTS
TCL: Running for 1500000 steps
ETITLE: TS BOND ANGLE DIHED IMPRP ELECT VDW BOUNDARY MISC KINETIC TOTAL TEMP POTENTIAL TOTALAVG TEMPAVG PRESSURE GPRESSURE VOLUME PRESSAVG GPRESSAVG
ENERGY: 0 1.3691 10.4252 4.9544 0.0000 -10806.2572 1411.0494 0.0000 0.0000 1782.9591 -7595.5000 299.6246 -9378.4591 -7595.5000 299.6246 -381.2653 -296.4136 30829.8750 -381.2653 -296.4136
ENERGY: 300000 1.5324 12.9456 5.2769 0.0000 -10775.9825 1421.5643 0.0000 0.0000 1816.7817 -7517.8816 305.3085 -9334.6633 -7539.0611 300.6935 -40.1014 43.1932 30446.1734 -333.4229 -269.2823
ENERGY: 600000 5.9774 5.0993 5.1733 0.0000 -10795.5408 1430.7584 0.0000 0.0000 1793.4786 -7555.0538 301.3924 -9348.5324 -7536.5020 300.1907 -395.3139 -316.5553 31119.4973 -257.0121 -180.8660
ENERGY: 900000 3.1528 9.4800 6.9368 0.0000 -10690.2625 1363.3728 0.0000 0.0000 1833.5818 -7473.7382 308.1317 -9307.3200 -7543.2267 299.3856 -699.7790 -617.6302 31029.9608 -269.3420 -184.3626
ENERGY: 1200000 2.2035 9.5560 5.7030 0.0000 -10760.7042 1419.3270 0.0000 0.0000 1797.8745 -7526.0403 302.1311 -9323.9148 -7555.2610 298.7282 -325.5757 -281.4270 31197.3903 -263.0330 -190.8358
ENERGY: 1500000 2.4857 10.4847 4.7174 0.0000 -10907.2292 1515.2300 0.0000 0.0000 1746.6493 -7627.6621 293.5228 -9374.3114 -7566.3941 298.4391 491.0130 586.2043 30821.4224 -139.9575 -67.4240
TCL: Exiting due to exit command.
