Info: SIMULATION PARAMETERS:
Info: TIMESTEP               2
Info: NUMBER OF STEPS        0
Info: STEPS PER CYCLE        10
Info: PERIODIC CELL BASIS 1  31.8198 0 0
Info: PERIODIC CELL BASIS 2  0 31.3795 0
Info: PERIODIC CELL BASIS 3  0 0 30.4157
Info: PERIODIC CELL CENTER   0 0 0
Info: WRAPPING WATERS AROUND PERIODIC BOUNDARIES ON OUTPUT.
Info: WRAPPING ALL CLUSTERS AROUND PERIODIC BOUNDARIES ON OUTPUT.
Info: FIRST LDB TIMESTEP     50
Info: LAST LDB TIMESTEP     -1
Info: HOM BACKGROUND SCALING 1
Info: PME BACKGROUND SCALING 1
Info: MIN ATOMS PER PATCH    40
Info: EMPTY PATCH LOAD       40 ATOMS
Info: VELOCITY FILE          mobley_8011706_equil.vel
Info: CENTER OF MASS MOVING INITIALLY? NO
Info: DIELECTRIC             1
Info: EXCLUDE                SCALED ONE-FOUR
Info: 1-4 ELECTROSTATICS SCALED BY 0.833333
Info: MODIFIED 1-4 VDW PARAMETERS WILL BE USED
Info: DCD FILENAME           mobley_8011706_prod.dcd
Info: DCD FREQUENCY          100000
Info: DCD FIRST STEP         100000
Info: DCD FILE WILL CONTAIN UNIT CELL DATA
Info: XST FILENAME           mobley_8011706_prod.xst
Info: XST FREQUENCY          100000
Info: NO VELOCITY DCD OUTPUT
Info: NO FORCE DCD OUTPUT
Info: OUTPUT FILENAME        mobley_8011706_prod
Info: BINARY OUTPUT FILES WILL BE USED
Info: RESTART FILENAME       mobley_8011706_prod.restart
Info: RESTART FREQUENCY      100000
Info: BINARY RESTART FILES WILL BE USED
Info: CUTOFF                 9
Info: PAIRLIST DISTANCE      11
Info: PAIRLIST SHRINK RATE   0.01
Info: PAIRLIST GROW RATE     0.01
Info: PAIRLIST TRIGGER       0.3
Info: PAIRLISTS PER CYCLE    2
Info: PAIRLISTS ENABLED
Info: MARGIN                 2
Info: HYDROGEN GROUP CUTOFF  2.5
Info: PATCH DIMENSION        15.5
Info: ENERGY OUTPUT STEPS    100000
Info: ENERGY EVALUATION STEPS    100000
Info: OUTPUT ENERGY PRECISION 4
Info: CROSSTERM ENERGY INCLUDED IN DIHEDRAL
Info: TIMING OUTPUT STEPS    1000000
Info: PRESSURE OUTPUT STEPS  100000
Info: ALCHEMICAL FEP ON
Info: FEP CURRENT LAMBDA VALUE     1
Info: FEP COMPARISON LAMBDA VALUE  0.95
Info: FEP INTRA-ALCHEMICAL NON-BONDED INTERACTIONS WILL BE RETAINED
Info: FEP INTRA-ALCHEMICAL BONDED INTERACTIONS WILL BE RETAINED
Info: FEP VDW SHIFTING COEFFICIENT 5
Info: FEP ELEC. ACTIVE FOR ANNIHILATED PARTICLES BETWEEN LAMBDA = 0 AND LAMBDA = 0.5
Info: FEP ELEC. ACTIVE FOR EXNIHILATED PARTICLES BETWEEN LAMBDA = 0.5 AND LAMBDA = 1
Info: FEP VDW ACTIVE FOR ANNIHILATED PARTICLES BETWEEN LAMBDA = 0 AND LAMBDA = 1
Info: FEP VDW ACTIVE FOR EXNIHILATED PARTICLES BETWEEN LAMBDA = 0 AND LAMBDA = 1
Info: FEP BOND ACTIVE FOR ANNIHILATED PARTICLES BETWEEN LAMBDA = 1 AND LAMBDA = 1
Info: FEP BOND ACTIVE FOR EXNIHILATED PARTICLES BETWEEN LAMBDA = 0 AND LAMBDA = 0
Info: LANGEVIN DYNAMICS ACTIVE
Info: LANGEVIN TEMPERATURE   300
Info: LANGEVIN USING BBK INTEGRATOR
Info: LANGEVIN DAMPING COEFFICIENT IS 1 INVERSE PS
Info: LANGEVIN DYNAMICS APPLIED TO HYDROGENS
Info: LANGEVIN PISTON PRESSURE CONTROL ACTIVE
Info:        TARGET PRESSURE IS 1.01325 BAR
Info:     OSCILLATION PERIOD IS 50 FS
Info:             DECAY TIME IS 25 FS
Info:     PISTON TEMPERATURE IS 300 K
Info:       PRESSURE CONTROL IS GROUP-BASED
Info:    INITIAL STRAIN RATE IS -0.000548219 -0.000548219 -0.000548219
Info:       CELL FLUCTUATION IS ISOTROPIC
Info: PARTICLE MESH EWALD (PME) ACTIVE
Info: PME TOLERANCE               1e-06
Info: PME EWALD COEFFICIENT       0.348832
Info: PME INTERPOLATION ORDER     4
Info: PME GRID DIMENSIONS         32 32 32
Info: PME MAXIMUM GRID SPACING    1
Info: PME CALCULATION WILL BE PERFORMED ON GPU
Info: FULL ELECTROSTATIC EVALUATION FREQUENCY      2
Info: USING VERLET I (r-RESPA) MTS SCHEME.
Info: C1 SPLITTING OF LONG RANGE ELECTROSTATICS
Info: PLACING ATOMS IN PATCHES BY HYDROGEN GROUPS
Info: RIGID BONDS TO HYDROGEN : ALL
Info:         ERROR TOLERANCE : 1e-08
Info:          MAX ITERATIONS : 100
Info: RIGID WATER USING SETTLE ALGORITHM
Info: RANDOM NUMBER SEED     1743725334
Info: USE HYDROGEN BONDS?    NO
Info: Using AMBER format force field!
Info: AMBER PARM FILE        mobley_8011706.prmtop
Info: COORDINATE PDB         mobley_8011706.pdb
Info: Exclusions will be read from PARM file!
Info: SCNB (VDW SCALING)     2
Info: USING ARITHMETIC MEAN TO COMBINE L-J SIGMA PARAMETERS
Info: BINARY COORDINATES     mobley_8011706_equil.coor
Info: SUMMARY OF PARAMETERS:
Info: 7 BONDS
Info: 7 ANGLES
Info:   7 HARMONIC
Info:   0 COSINE-BASED
Info: 4 DIHEDRAL
Info: 0 IMPROPER
Info: 0 CROSSTERM
Info: 0 VDW
Info: 36 VDW_PAIRS
Info: 0 NBTHOLE_PAIRS
Info: To read alchdata from file: mobley_8011706.pdb
Info: To read alchflag data from column: 5
Info: STRUCTURE SUMMARY:
Info: 2949 ATOMS
Info: 2948 BONDS
Info: 18 ANGLES
Info: 18 DIHEDRALS
Info: 0 IMPROPERS
Info: 0 CROSSTERMS
Info: 2982 EXCLUSIONS
Info: 2944 RIGID BONDS
Info: ALCH: 0 ATOMS TO DISAPPEAR IN FINAL STATE
Info: ALCH: 12 ATOMS TO APPEAR IN FINAL STATE
Info: 5903 DEGREES OF FREEDOM
Info: 984 HYDROGEN GROUPS
Info: 4 ATOMS IN LARGEST HYDROGEN GROUP
Info: 984 MIGRATION GROUPS
Info: 4 ATOMS IN LARGEST MIGRATION GROUP
Info: TOTAL MASS = 17710.8 amu
Info: TOTAL CHARGE = -0.000200003 e
Info: MASS DENSITY = 0.968399 g/cm^3
Info: ATOM DENSITY = 0.097103 atoms/A^3
Info: ADDED 0 IMPLICIT EXCLUSIONS
Info: NONBONDED TABLE R-SQUARED SPACING: 0.0625
Info: NONBONDED TABLE SIZE: 705 POINTS
Info: REDUCING NUMBER OF PATCHES TO IMPROVE LOAD BALANCE
Info: REMOVING COM VELOCITY 0.0646473 -0.0880349 -0.22659
Info: Use 3D box decompostion in PME FFT.
Info: Updated CUDA force table with 4096 elements.
Info: Updated CUDA LJ table with 8 x 8 elements.
Info: Found 15 unique exclusion lists needing 28 bytes
TCL: Running for 1500000 steps
ETITLE: TS BOND ANGLE DIHED IMPRP ELECT VDW BOUNDARY MISC KINETIC TOTAL TEMP POTENTIAL TOTALAVG TEMPAVG PRESSURE GPRESSURE VOLUME PRESSAVG GPRESSAVG
ENERGY: 0 0.5614 5.4532 0.9599 0.0000 -10702.5342 1442.9994 0.0000 0.0000 1750.2986 -7502.2618 298.4213 -9252.5604 -7502.2618 298.4213 21.9324 106.3903 30369.7992 21.9324 106.3903
ENERGY: 300000 0.3659 5.6483 1.3822 0.0000 -10584.4580 1328.4000 0.0000 0.0000 1755.4528 -7493.2089 299.3000 -9248.6617 -7456.4000 301.1406 -1013.6474 -900.9976 30759.3212 -389.2826 -296.7137
ENERGY: 600000 0.8164 2.2981 0.4383 0.0000 -10577.9793 1378.0314 0.0000 0.0000 1817.6453 -7378.7498 309.9037 -9196.3951 -7450.2141 303.7271 -117.9680 -89.6801 30366.6150 -200.8961 -128.5320
ENERGY: 900000 1.6559 3.6273 0.1574 0.0000 -10732.9114 1429.5348 0.0000 0.0000 1671.6555 -7626.2805 285.0128 -9297.9360 -7471.2484 301.0410 -280.2950 -220.7060 30516.4337 -301.2159 -226.8526
ENERGY: 1200000 1.8150 7.3201 1.2792 0.0000 -10647.1833 1384.5376 0.0000 0.0000 1737.1360 -7515.0954 296.1771 -9252.2314 -7487.9729 300.2368 -561.3892 -525.8459 30485.6566 -255.4863 -182.4215
ENERGY: 1500000 1.8386 3.3805 0.9839 0.0000 -10672.5176 1428.6091 0.0000 0.0000 1800.3938 -7437.3117 306.9624 -9237.7055 -7485.0209 300.6837 -167.6943 -101.3957 30568.1860 -212.1575 -141.0668
TCL: Running FEP window   2: Lambda1 0.95   Lambda2 0.8999999999999999 [dLambda -0.050000000000000044]
TCL: Setting parameter firsttimestep to 0
TCL: Setting parameter alchLambda to 0.95
Info: NONBONDED TABLE R-SQUARED SPACING: 0.0625
Info: NONBONDED TABLE SIZE: 705 POINTS
TCL: Setting parameter alchLambda2 to 0.8999999999999999
Info: NONBONDED TABLE R-SQUARED SPACING: 0.0625
Info: NONBONDED TABLE SIZE: 705 POINTS
TCL: Running for 1500000 steps
ETITLE: TS BOND ANGLE DIHED IMPRP ELECT VDW BOUNDARY MISC KINETIC TOTAL TEMP POTENTIAL TOTALAVG TEMPAVG PRESSURE GPRESSURE VOLUME PRESSAVG GPRESSAVG
ENERGY: 0 1.8386 3.3805 0.9839 0.0000 -10670.7202 1428.4421 0.0000 0.0000 1799.5355 -7436.5396 306.8160 -9236.0751 -7436.5396 306.8160 -190.0637 -107.9440 30568.1860 -190.0637 -107.9440
ENERGY: 300000 1.4485 5.0643 0.9385 0.0000 -10717.4925 1406.8757 0.0000 0.0000 1809.7851 -7493.3804 308.5635 -9303.1655 -7475.9147 303.0711 -397.6021 -338.7461 30298.8094 -359.0411 -304.5881
ENERGY: 600000 3.4780 2.7842 0.8010 0.0000 -10658.6123 1408.9746 0.0000 0.0000 1726.5703 -7516.0042 294.3756 -9242.5745 -7492.2845 299.7139 -152.8321 -62.4573 29957.3910 -271.8268 -196.6777
ENERGY: 900000 2.9305 4.3793 0.8070 0.0000 -10666.4476 1416.0476 0.0000 0.0000 1727.5109 -7514.7723 294.5360 -9242.2832 -7492.8765 298.3403 -388.1372 -379.3380 30707.5263 -276.7478 -213.3095
ENERGY: 1200000 3.5636 2.6464 0.6306 0.0000 -10661.8739 1409.1503 0.0000 0.0000 1782.1292 -7463.7538 303.8483 -9245.8830 -7491.7848 299.1587 -160.9780 -91.0089 30432.4186 -164.5368 -101.5765
ENERGY: 1500000 1.5092 4.8709 2.4770 0.0000 -10686.9931 1402.9337 0.0000 0.0000 1786.6676 -7488.5347 304.6221 -9275.2022 -7493.8551 299.8188 -311.8519 -273.9005 30347.5674 -106.6779 -46.9524
TCL: Running FEP window   3: Lambda1 0.8999999999999999 Lambda2 0.8499999999999999 [dLambda -0.050000000000000044]
TCL: Setting parameter firsttimestep to 0
TCL: Setting parameter alchLambda to 0.8999999999999999
Info: NONBONDED TABLE R-SQUARED SPACING: 0.0625
Info: NONBONDED TABLE SIZE: 705 POINTS
TCL: Setting parameter alchLambda2 to 0.8499999999999999
Info: NONBONDED TABLE R-SQUARED SPACING: 0.0625
Info: NONBONDED TABLE SIZE: 705 POINTS
TCL: Running for 1500000 steps
ETITLE: TS BOND ANGLE DIHED IMPRP ELECT VDW BOUNDARY MISC KINETIC TOTAL TEMP POTENTIAL TOTALAVG TEMPAVG PRESSURE GPRESSURE VOLUME PRESSAVG GPRESSAVG
ENERGY: 0 1.5092 4.8709 2.4770 0.0000 -10684.9055 1402.8919 0.0000 0.0000 1785.7712 -7487.3854 304.4692 -9273.1566 -7487.3854 304.4692 -360.5043 -279.4661 30347.5674 -360.5043 -279.4661
ENERGY: 300000 0.8923 6.1447 0.4008 0.0000 -10617.3763 1376.1978 0.0000 0.0000 1739.9258 -7493.8150 296.6527 -9233.7407 -7526.3387 299.5827 -362.3353 -329.0359 30235.2448 -272.5388 -223.0420
ENERGY: 600000 1.9907 2.4513 2.4276 0.0000 -10645.0139 1441.1805 0.0000 0.0000 1739.5847 -7457.3791 296.5946 -9196.9638 -7515.5543 298.6966 310.0269 325.7186 30415.6388 1.9756 48.1734
ENERGY: 900000 1.2592 3.6363 0.3756 0.0000 -10778.6363 1508.2607 0.0000 0.0000 1803.6517 -7461.4528 307.5178 -9265.1045 -7509.0574 299.1195 340.9096 389.2452 30607.8816 0.9969 54.8684
ENERGY: 1200000 0.4640 7.7650 2.3984 0.0000 -10839.3225 1512.0098 0.0000 0.0000 1771.0649 -7545.6205 301.9619 -9316.6854 -7508.5413 299.3088 525.5687 625.5387 30025.7295 57.9619 118.1893
ENERGY: 1500000 0.3516 3.1771 0.3057 0.0000 -10708.2526 1416.7081 0.0000 0.0000 1776.8367 -7510.8735 302.9459 -9287.7101 -7505.9830 299.9957 -230.8994 -155.9723 30255.0502 20.0957 83.4058
TCL: Running FEP window   4: Lambda1 0.8499999999999999 Lambda2 0.7999999999999998 [dLambda -0.050000000000000044]
TCL: Setting parameter firsttimestep to 0
TCL: Setting parameter alchLambda to 0.8499999999999999
Info: NONBONDED TABLE R-SQUARED SPACING: 0.0625
Info: NONBONDED TABLE SIZE: 705 POINTS
TCL: Setting parameter alchLambda2 to 0.7999999999999998
Info: NONBONDED TABLE R-SQUARED SPACING: 0.0625
Info: NONBONDED TABLE SIZE: 705 POINTS
TCL: Running for 1500000 steps
ETITLE: TS BOND ANGLE DIHED IMPRP ELECT VDW BOUNDARY MISC KINETIC TOTAL TEMP POTENTIAL TOTALAVG TEMPAVG PRESSURE GPRESSURE VOLUME PRESSAVG GPRESSAVG
ENERGY: 0 0.3516 3.1771 0.3057 0.0000 -10705.9295 1416.0400 0.0000 0.0000 1776.0025 -7510.0526 302.8037 -9286.0551 -7510.0526 302.8037 -242.0859 -169.3902 30255.0502 -242.0859 -169.3902
ENERGY: 300000 1.2423 4.6691 0.7061 0.0000 -10706.8200 1455.6259 0.0000 0.0000 1746.5522 -7498.0244 297.7825 -9244.5766 -7516.9060 299.1076 -52.9964 10.9709 30818.6792 -78.9144 -2.1125
ENERGY: 600000 0.2054 4.6815 0.3868 0.0000 -10689.9693 1402.3011 0.0000 0.0000 1805.9113 -7476.4832 307.9031 -9282.3945 -7503.1821 301.0652 -236.5644 -173.2343 30377.5614 -342.0305 -271.2797
ENERGY: 900000 0.5943 3.2602 1.0238 0.0000 -10736.8801 1443.8241 0.0000 0.0000 1787.1841 -7500.9937 304.7101 -9288.1778 -7506.0289 301.6206 -212.0413 -117.8091 30613.8443 -340.2993 -273.3231
ENERGY: 1200000 1.1596 3.2012 2.3093 0.0000 -10691.1690 1459.0762 0.0000 0.0000 1792.9726 -7432.4502 305.6971 -9225.4228 -7507.9387 300.6700 242.6727 361.2387 29968.0666 -244.3381 -174.8862
ENERGY: 1500000 1.5787 3.5598 1.1456 0.0000 -10636.1921 1387.2092 0.0000 0.0000 1769.8543 -7472.8444 301.7555 -9242.6988 -7501.3736 301.7512 2.3934 38.8208 30094.4678 -290.5875 -222.9883
TCL: Running FEP window   5: Lambda1 0.7999999999999998 Lambda2 0.7499999999999998 [dLambda -0.050000000000000044]
TCL: Setting parameter firsttimestep to 0
TCL: Setting parameter alchLambda to 0.7999999999999998
Info: NONBONDED TABLE R-SQUARED SPACING: 0.0625
Info: NONBONDED TABLE SIZE: 705 POINTS
TCL: Setting parameter alchLambda2 to 0.7499999999999998
Info: NONBONDED TABLE R-SQUARED SPACING: 0.0625
Info: NONBONDED TABLE SIZE: 705 POINTS
TCL: Running for 1500000 steps
ETITLE: TS BOND ANGLE DIHED IMPRP ELECT VDW BOUNDARY MISC KINETIC TOTAL TEMP POTENTIAL TOTALAVG TEMPAVG PRESSURE GPRESSURE VOLUME PRESSAVG GPRESSAVG
ENERGY: 0 1.5787 3.5598 1.1456 0.0000 -10634.0333 1386.4102 0.0000 0.0000 1768.9069 -7472.4319 301.5939 -9241.3389 -7472.4319 301.5939 -69.6859 28.2175 30094.4678 -69.6859 28.2175
ENERGY: 300000 0.7376 4.7824 0.7074 0.0000 -10832.1165 1536.3193 0.0000 0.0000 1796.8637 -7492.7061 306.3605 -9289.5698 -7467.8722 302.7768 1035.1625 1064.9077 29952.3145 -2.7383 54.6619
ENERGY: 600000 1.9873 4.2451 0.2287 0.0000 -10801.4514 1477.6596 0.0000 0.0000 1720.4877 -7596.8431 293.3386 -9317.3308 -7495.5531 300.2247 151.5629 123.8614 30298.5853 106.1868 148.4880
ENERGY: 900000 0.9702 5.6411 3.3624 0.0000 -10762.6354 1464.3194 0.0000 0.0000 1778.2584 -7510.0839 303.1883 -9288.3423 -7508.6641 299.5057 89.8597 191.1555 30441.9100 146.1814 201.7799
ENERGY: 1200000 0.2753 5.6470 0.4907 0.0000 -10809.3303 1455.8797 0.0000 0.0000 1784.7171 -7562.3204 304.2895 -9347.0375 -7514.8442 299.5141 -82.8600 12.9943 30041.3271 143.4216 199.8266
ENERGY: 1500000 1.5820 4.8141 0.6569 0.0000 -10777.1218 1472.9933 0.0000 0.0000 1730.1639 -7566.9117 294.9883 -9297.0755 -7520.0249 299.4983 462.9536 486.6517 29964.9782 182.4489 231.7880
TCL: Running FEP window   6: Lambda1 0.7499999999999998 Lambda2 0.6999999999999997 [dLambda -0.050000000000000044]
TCL: Setting parameter firsttimestep to 0
TCL: Setting parameter alchLambda to 0.7499999999999998
Info: NONBONDED TABLE R-SQUARED SPACING: 0.0625
Info: NONBONDED TABLE SIZE: 705 POINTS
TCL: Setting parameter alchLambda2 to 0.6999999999999997
Info: NONBONDED TABLE R-SQUARED SPACING: 0.0625
Info: NONBONDED TABLE SIZE: 705 POINTS
TCL: Running for 1500000 steps
ETITLE: TS BOND ANGLE DIHED IMPRP ELECT VDW BOUNDARY MISC KINETIC TOTAL TEMP POTENTIAL TOTALAVG TEMPAVG PRESSURE GPRESSURE VOLUME PRESSAVG GPRESSAVG
ENERGY: 0 1.5820 4.8141 0.6569 0.0000 -10776.1833 1473.4237 0.0000 0.0000 1729.2975 -7566.4091 294.8406 -9295.7066 -7566.4091 294.8406 408.3615 488.4785 29964.9782 408.3615 488.4785
ENERGY: 300000 1.3253 6.8080 1.5914 0.0000 -10675.2875 1356.4971 0.0000 0.0000 1730.2091 -7578.8566 294.9960 -9309.0657 -7529.7552 297.4260 -845.8999 -735.3506 30283.8034 364.8985 428.9405
ENERGY: 600000 0.4261 4.8551 0.5058 0.0000 -10743.4790 1467.2683 0.0000 0.0000 1773.1800 -7497.2436 302.3225 -9270.4236 -7514.4361 299.8682 60.8919 246.4726 30261.5592 202.4766 291.9121
ENERGY: 900000 1.1498 3.3468 0.1910 0.0000 -10836.4172 1554.6054 0.0000 0.0000 1785.9123 -7491.2119 304.4933 -9277.1241 -7518.9532 299.9261 890.4376 878.0317 30474.6244 240.9940 323.8466
ENERGY: 1200000 2.1018 6.8050 0.7702 0.0000 -10669.4190 1428.3965 0.0000 0.0000 1749.5187 -7481.8268 298.2883 -9231.3455 -7519.2056 299.2224 33.5872 133.5673 30066.6631 96.3600 177.6794
ENERGY: 1500000 0.8446 4.0254 1.3239 0.0000 -10601.7173 1348.8674 0.0000 0.0000 1703.8411 -7542.8149 290.5004 -9246.6560 -7518.0799 298.2558 -679.9116 -622.9008 30483.2056 37.1266 113.6615
TCL: Running FEP window   7: Lambda1 0.6999999999999997 Lambda2 0.6499999999999997 [dLambda -0.050000000000000044]
TCL: Setting parameter firsttimestep to 0
TCL: Setting parameter alchLambda to 0.6999999999999997
Info: NONBONDED TABLE R-SQUARED SPACING: 0.0625
Info: NONBONDED TABLE SIZE: 705 POINTS
TCL: Setting parameter alchLambda2 to 0.6499999999999997
Info: NONBONDED TABLE R-SQUARED SPACING: 0.0625
Info: NONBONDED TABLE SIZE: 705 POINTS
TCL: Running for 1500000 steps
ETITLE: TS BOND ANGLE DIHED IMPRP ELECT VDW BOUNDARY MISC KINETIC TOTAL TEMP POTENTIAL TOTALAVG TEMPAVG PRESSURE GPRESSURE VOLUME PRESSAVG GPRESSAVG
ENERGY: 0 0.8446 4.0254 1.3239 0.0000 -10600.3744 1348.9436 0.0000 0.0000 1702.9834 -7542.2535 290.3541 -9245.2368 -7542.2535 290.3541 -699.9929 -627.0504 30483.2056 -699.9929 -627.0504
ENERGY: 300000 2.2119 4.1040 1.2156 0.0000 -10698.6012 1473.8702 0.0000 0.0000 1791.0596 -7426.1399 305.3709 -9217.1995 -7527.4991 297.0750 226.5539 239.8104 30490.8901 -190.0151 -152.5498
ENERGY: 600000 4.0940 3.5137 1.9825 0.0000 -10625.2981 1388.9934 0.0000 0.0000 1780.7230 -7445.9917 303.6085 -9226.7146 -7524.1002 297.5319 -286.7986 -258.9705 30493.4438 -50.1100 -8.3257
ENERGY: 900000 0.5506 4.7001 1.4064 0.0000 -10586.3696 1422.8382 0.0000 0.0000 1770.0795 -7386.7948 301.7938 -9156.8743 -7510.2041 297.5711 -116.3252 -47.8309 30779.2957 -32.6519 15.6716
ENERGY: 1200000 1.2526 2.4607 0.5092 0.0000 -10798.9962 1534.6605 0.0000 0.0000 1708.3941 -7551.7191 291.2766 -9260.1132 -7503.4799 298.3089 842.8187 949.5546 29926.4692 -4.2399 60.2141
ENERGY: 1500000 0.3878 6.7827 1.3223 0.0000 -10676.0723 1423.0788 0.0000 0.0000 1751.5897 -7492.9110 298.6414 -9244.5007 -7503.9612 297.7678 73.7790 114.4077 30107.1030 -25.0141 35.0306
TCL: Running FEP window   8: Lambda1 0.6499999999999997 Lambda2 0.5999999999999996 [dLambda -0.050000000000000044]
TCL: Setting parameter firsttimestep to 0
TCL: Setting parameter alchLambda to 0.6499999999999997
Info: NONBONDED TABLE R-SQUARED SPACING: 0.0625
Info: NONBONDED TABLE SIZE: 705 POINTS
TCL: Setting parameter alchLambda2 to 0.5999999999999996
Info: NONBONDED TABLE R-SQUARED SPACING: 0.0625
Info: NONBONDED TABLE SIZE: 705 POINTS
TCL: Running for 1500000 steps
ETITLE: TS BOND ANGLE DIHED IMPRP ELECT VDW BOUNDARY MISC KINETIC TOTAL TEMP POTENTIAL TOTALAVG TEMPAVG PRESSURE GPRESSURE VOLUME PRESSAVG GPRESSAVG
ENERGY: 0 0.3878 6.7827 1.3223 0.0000 -10674.2817 1422.8332 0.0000 0.0000 1750.7262 -7492.2294 298.4942 -9242.9556 -7492.2294 298.4942 26.6422 108.0867 30107.1030 26.6422 108.0867
ENERGY: 300000 1.0242 1.9595 0.6286 0.0000 -10601.1006 1372.9894 0.0000 0.0000 1748.4907 -7476.0082 298.1130 -9224.4989 -7485.7671 297.5463 -556.9866 -495.3229 30487.7949 -287.4916 -222.6696
ENERGY: 600000 2.2618 3.2687 1.0775 0.0000 -10679.2526 1472.0687 0.0000 0.0000 1839.6604 -7360.9155 313.6572 -9200.5759 -7448.8288 301.0261 491.0736 536.4134 30205.1081 -187.2172 -128.6832
ENERGY: 900000 0.8459 5.4337 2.7822 0.0000 -10733.5316 1468.2365 0.0000 0.0000 1725.6135 -7530.6199 294.2125 -9256.2334 -7462.9848 300.7689 -10.2962 84.5422 30655.5292 -124.8465 -60.9064
ENERGY: 1200000 0.4880 3.6556 1.9516 0.0000 -10581.2523 1357.4899 0.0000 0.0000 1805.2816 -7412.3857 307.7957 -9217.6673 -7465.0871 301.0165 -707.3411 -620.9818 30618.8110 -135.0292 -71.8329
ENERGY: 1500000 1.7105 3.5529 1.2165 0.0000 -10617.9888 1417.3807 0.0000 0.0000 1771.0984 -7423.0299 301.9676 -9194.1283 -7456.1771 301.3050 75.5986 141.6911 30187.7932 -128.5280 -63.2604
TCL: Running FEP window   9: Lambda1 0.5999999999999996 Lambda2 0.5499999999999996 [dLambda -0.050000000000000044]
TCL: Setting parameter firsttimestep to 0
TCL: Setting parameter alchLambda to 0.5999999999999996
Info: NONBONDED TABLE R-SQUARED SPACING: 0.0625
Info: NONBONDED TABLE SIZE: 705 POINTS
TCL: Setting parameter alchLambda2 to 0.5499999999999996
Info: NONBONDED TABLE R-SQUARED SPACING: 0.0625
Info: NONBONDED TABLE SIZE: 705 POINTS
TCL: Running for 1500000 steps
ETITLE: TS BOND ANGLE DIHED IMPRP ELECT VDW BOUNDARY MISC KINETIC TOTAL TEMP POTENTIAL TOTALAVG TEMPAVG PRESSURE GPRESSURE VOLUME PRESSAVG GPRESSAVG
ENERGY: 0 1.7105 3.5529 1.2165 0.0000 -10617.1243 1417.6739 0.0000 0.0000 1770.1724 -7422.7980 301.8097 -9192.9705 -7422.7980 301.8097 50.1044 140.6102 30187.7932 50.1044 140.6102
ENERGY: 300000 0.2355 4.5360 1.3561 0.0000 -10736.8035 1498.3738 0.0000 0.0000 1791.0879 -7441.2142 305.3757 -9232.3021 -7453.9124 303.5001 381.7250 476.5468 30673.5154 36.1757 119.0701
ENERGY: 600000 0.5698 6.7746 0.2676 0.0000 -10612.6645 1355.1280 0.0000 0.0000 1755.5669 -7494.3576 299.3195 -9249.9245 -7469.4673 302.6329 -786.3710 -700.8593 30715.4602 -263.6708 -182.3026
ENERGY: 900000 1.2330 2.2332 2.5178 0.0000 -10619.2670 1379.5919 0.0000 0.0000 1729.7574 -7503.9336 294.9190 -9233.6910 -7470.9999 300.4284 -747.5826 -610.6885 30735.6313 -273.1844 -190.3244
ENERGY: 1200000 2.1509 2.0537 2.7067 0.0000 -10809.9732 1481.1640 0.0000 0.0000 1762.2106 -7559.6872 300.4522 -9321.8978 -7479.5190 300.1250 63.5676 157.7743 30493.0638 -228.7657 -147.7014
ENERGY: 1500000 1.0574 2.8324 0.2884 0.0000 -10659.7557 1395.0737 0.0000 0.0000 1753.8286 -7506.6753 299.0231 -9260.5039 -7480.6768 300.4075 -474.1585 -378.2441 30517.5425 -156.2408 -78.8461
TCL: Running FEP window  10: Lambda1 0.5499999999999996 Lambda2 0.4999999999999996 [dLambda -0.04999999999999999]
TCL: Setting parameter firsttimestep to 0
TCL: Setting parameter alchLambda to 0.5499999999999996
Info: NONBONDED TABLE R-SQUARED SPACING: 0.0625
Info: NONBONDED TABLE SIZE: 705 POINTS
TCL: Setting parameter alchLambda2 to 0.4999999999999996
Info: NONBONDED TABLE R-SQUARED SPACING: 0.0625
Info: NONBONDED TABLE SIZE: 705 POINTS
TCL: Running for 1500000 steps
ETITLE: TS BOND ANGLE DIHED IMPRP ELECT VDW BOUNDARY MISC KINETIC TOTAL TEMP POTENTIAL TOTALAVG TEMPAVG PRESSURE GPRESSURE VOLUME PRESSAVG GPRESSAVG
ENERGY: 0 1.0574 2.8324 0.2884 0.0000 -10659.5497 1395.4384 0.0000 0.0000 1752.8926 -7507.0405 298.8635 -9259.9332 -7507.0405 298.8635 -466.6395 -379.9811 30517.5425 -466.6395 -379.9811
ENERGY: 300000 2.4080 3.9202 1.5839 0.0000 -10738.4917 1446.1107 0.0000 0.0000 1771.4332 -7513.0357 302.0246 -9284.4689 -7495.1864 299.7268 54.7035 77.2430 30083.1074 -144.7902 -75.1036
ENERGY: 600000 0.8065 2.3856 1.2136 0.0000 -10809.9660 1566.2755 0.0000 0.0000 1752.0571 -7487.2277 298.7211 -9239.2849 -7488.3285 299.4891 1219.9077 1260.0312 29772.5142 44.6813 107.0685
ENERGY: 900000 2.3021 2.6038 0.2914 0.0000 -10899.9918 1569.1155 0.0000 0.0000 1811.0384 -7514.6406 308.7772 -9325.6790 -7480.3800 302.0948 677.2545 750.2623 30318.7966 111.6790 168.2022
ENERGY: 1200000 1.4747 2.7092 0.4752 0.0000 -10769.3290 1449.8725 0.0000 0.0000 1800.0497 -7514.7478 306.9037 -9314.7975 -7484.0430 301.3834 -152.4349 -100.0295 30560.7596 -34.2640 26.9649
ENERGY: 1500000 0.6988 5.0143 2.4532 0.0000 -10732.9016 1446.0629 0.0000 0.0000 1763.0916 -7515.5808 300.6024 -9278.6725 -7479.4614 301.8468 -52.6303 -11.7870 30425.7570 4.1626 64.8364
TCL: Running FEP window  11: Lambda1 0.4999999999999996 Lambda2 0.4499999999999996 [dLambda -0.04999999999999999]
TCL: Setting parameter firsttimestep to 0
TCL: Setting parameter alchLambda to 0.4999999999999996
Info: NONBONDED TABLE R-SQUARED SPACING: 0.0625
Info: NONBONDED TABLE SIZE: 705 POINTS
TCL: Setting parameter alchLambda2 to 0.4499999999999996
Info: NONBONDED TABLE R-SQUARED SPACING: 0.0625
Info: NONBONDED TABLE SIZE: 705 POINTS
TCL: Running for 1500000 steps
ETITLE: TS BOND ANGLE DIHED IMPRP ELECT VDW BOUNDARY MISC KINETIC TOTAL TEMP POTENTIAL TOTALAVG TEMPAVG PRESSURE GPRESSURE VOLUME PRESSAVG GPRESSAVG
ENERGY: 0 0.6988 5.0143 2.4532 0.0000 -10732.4373 1446.2889 0.0000 0.0000 1762.2266 -7515.7555 300.4549 -9277.9822 -7515.7555 300.4549 -93.3430 -12.9714 30425.7570 -93.3430 -12.9714
ENERGY: 300000 2.6799 6.0960 0.3831 0.0000 -10769.2723 1452.9865 0.0000 0.0000 1751.5566 -7555.5702 298.6357 -9307.1269 -7491.0015 301.4680 -236.2378 -248.1765 30661.4894 -343.1138 -281.3853
ENERGY: 600000 1.1336 3.7321 2.0092 0.0000 -10751.9268 1440.2625 0.0000 0.0000 1699.6215 -7605.1680 289.7809 -9304.7895 -7527.4338 299.4473 -88.3034 -10.9281 30147.0270 -282.1272 -214.1805
ENERGY: 900000 1.6730 3.8910 0.2616 0.0000 -10763.1592 1451.0474 0.0000 0.0000 1747.1009 -7559.1855 297.8760 -9306.2863 -7520.4779 300.1844 54.3890 37.5743 30192.7696 -175.5818 -113.2814
ENERGY: 1200000 0.7606 5.3347 2.0847 0.0000 -10874.0776 1578.4635 0.0000 0.0000 1758.9386 -7528.4954 299.8943 -9287.4340 -7503.1404 300.9079 954.9424 1016.9821 30096.6720 -84.1705 -23.5445
ENERGY: 1500000 0.7332 3.8977 1.5835 0.0000 -10711.1408 1367.7949 0.0000 0.0000 1778.5604 -7558.5710 303.2398 -9337.1315 -7498.7448 302.2740 -783.7678 -771.5265 30338.7166 -65.8292 -12.4200
TCL: Running FEP window  12: Lambda1 0.4499999999999996 Lambda2 0.39999999999999963 [dLambda -0.04999999999999999]
TCL: Setting parameter firsttimestep to 0
TCL: Setting parameter alchLambda to 0.4499999999999996
Info: NONBONDED TABLE R-SQUARED SPACING: 0.0625
Info: NONBONDED TABLE SIZE: 705 POINTS
TCL: Setting parameter alchLambda2 to 0.39999999999999963
Info: NONBONDED TABLE R-SQUARED SPACING: 0.0625
Info: NONBONDED TABLE SIZE: 705 POINTS
TCL: Running for 1500000 steps
ETITLE: TS BOND ANGLE DIHED IMPRP ELECT VDW BOUNDARY MISC KINETIC TOTAL TEMP POTENTIAL TOTALAVG TEMPAVG PRESSURE GPRESSURE VOLUME PRESSAVG GPRESSAVG
ENERGY: 0 0.7332 3.8977 1.5835 0.0000 -10711.1401 1368.0702 0.0000 0.0000 1777.7198 -7559.1357 303.0965 -9336.8555 -7559.1357 303.0965 -864.8270 -772.9454 30338.7166 -864.8270 -772.9454
ENERGY: 300000 0.5687 6.0777 0.8444 0.0000 -10764.0079 1525.5523 0.0000 0.0000 1773.9877 -7456.9771 302.4602 -9230.9648 -7484.6802 301.8438 587.0438 587.8852 30582.1373 115.5151 169.0451
ENERGY: 600000 0.3223 2.7945 0.9743 0.0000 -10660.5636 1437.8997 0.0000 0.0000 1738.1439 -7480.4289 296.3489 -9218.5728 -7478.5068 299.6717 13.4636 -10.6582 30730.8016 64.8441 112.9061
ENERGY: 900000 0.1724 4.9462 0.1283 0.0000 -10581.6115 1354.4218 0.0000 0.0000 1765.3443 -7456.5985 300.9865 -9221.9428 -7464.5818 299.7634 -765.8302 -634.0186 30650.7428 -19.1751 37.5698
ENERGY: 1200000 1.4952 3.1592 0.4713 0.0000 -10652.4945 1423.3809 0.0000 0.0000 1768.0298 -7455.9581 301.4444 -9223.9879 -7474.1807 299.5461 -215.0286 -155.3326 30722.4360 -4.1558 50.4660
ENERGY: 1500000 0.7448 3.8281 1.9153 0.0000 -10642.9211 1414.9893 0.0000 0.0000 1756.9948 -7464.4487 299.5629 -9221.4435 -7477.8878 299.7750 -348.4307 -315.0854 30882.8750 -75.8134 -16.5615
TCL: Running FEP window  13: Lambda1 0.39999999999999963 Lambda2 0.34999999999999964 [dLambda -0.04999999999999999]
TCL: Setting parameter firsttimestep to 0
TCL: Setting parameter alchLambda to 0.39999999999999963
Info: NONBONDED TABLE R-SQUARED SPACING: 0.0625
Info: NONBONDED TABLE SIZE: 705 POINTS
TCL: Setting parameter alchLambda2 to 0.34999999999999964
Info: NONBONDED TABLE R-SQUARED SPACING: 0.0625
Info: NONBONDED TABLE SIZE: 705 POINTS
TCL: Running for 1500000 steps
ETITLE: TS BOND ANGLE DIHED IMPRP ELECT VDW BOUNDARY MISC KINETIC TOTAL TEMP POTENTIAL TOTALAVG TEMPAVG PRESSURE GPRESSURE VOLUME PRESSAVG GPRESSAVG
ENERGY: 0 0.7448 3.8281 1.9153 0.0000 -10642.9239 1415.3483 0.0000 0.0000 1756.1585 -7464.9289 299.4204 -9221.0874 -7464.9289 299.4204 -406.1407 -315.0121 30882.8750 -406.1407 -315.0121
ENERGY: 300000 3.8607 3.5769 1.0525 0.0000 -10715.2834 1488.1138 0.0000 0.0000 1777.3701 -7441.3094 303.0369 -9218.6795 -7485.3097 296.3218 124.7849 228.8404 30498.1040 -74.2584 16.1324
ENERGY: 600000 0.5229 4.9056 2.8422 0.0000 -10649.3687 1407.2268 0.0000 0.0000 1747.6210 -7486.2502 297.9647 -9233.8712 -7474.7351 297.7705 -351.9815 -298.4934 30383.7881 -180.8233 -99.0378
ENERGY: 900000 0.9232 7.8264 0.3961 0.0000 -10664.0331 1417.3394 0.0000 0.0000 1757.7348 -7479.8132 299.6891 -9237.5480 -7464.5100 299.0698 -314.4610 -297.8283 30552.6396 -94.6314 -22.4763
ENERGY: 1200000 1.5281 2.0167 0.3204 0.0000 -10776.0289 1483.2628 0.0000 0.0000 1792.5490 -7496.3518 305.6248 -9288.9008 -7479.0883 299.0819 55.3219 190.0293 30318.1718 -5.5309 62.9624
ENERGY: 1500000 0.1537 2.9828 0.7038 0.0000 -10801.9826 1502.3067 0.0000 0.0000 1727.3220 -7568.5136 294.5038 -9295.8356 -7487.9526 298.7455 391.9729 452.4268 30279.0262 22.0141 91.3797
TCL: Running FEP window  14: Lambda1 0.34999999999999964 Lambda2 0.29999999999999966 [dLambda -0.04999999999999999]
TCL: Setting parameter firsttimestep to 0
TCL: Setting parameter alchLambda to 0.34999999999999964
Info: NONBONDED TABLE R-SQUARED SPACING: 0.0625
Info: NONBONDED TABLE SIZE: 705 POINTS
TCL: Setting parameter alchLambda2 to 0.29999999999999966
Info: NONBONDED TABLE R-SQUARED SPACING: 0.0625
Info: NONBONDED TABLE SIZE: 705 POINTS
TCL: Running for 1500000 steps
ETITLE: TS BOND ANGLE DIHED IMPRP ELECT VDW BOUNDARY MISC KINETIC TOTAL TEMP POTENTIAL TOTALAVG TEMPAVG PRESSURE GPRESSURE VOLUME PRESSAVG GPRESSAVG
ENERGY: 0 0.1537 2.9828 0.7038 0.0000 -10801.9821 1502.4186 0.0000 0.0000 1726.4405 -7569.2827 294.3535 -9295.7232 -7569.2827 294.3535 378.2351 449.3866 30279.0262 378.2351 449.3866
ENERGY: 300000 3.3782 5.3125 0.1820 0.0000 -10592.9458 1406.2140 0.0000 0.0000 1795.9814 -7381.8778 306.2100 -9177.8592 -7466.0858 302.1178 -410.4408 -316.4516 30866.5622 -218.7864 -146.0551
ENERGY: 600000 3.2137 4.4490 0.9090 0.0000 -10538.3454 1346.1924 0.0000 0.0000 1782.0551 -7401.5262 303.8356 -9183.5812 -7486.1459 299.2462 -610.7021 -511.6472 30488.1939 -116.2457 -45.0058
ENERGY: 900000 1.7313 4.9630 0.4115 0.0000 -10607.0127 1380.8672 0.0000 0.0000 1735.7857 -7483.2541 295.9468 -9219.0398 -7494.2214 297.9381 -455.2190 -349.2319 30255.5633 -96.1401 -21.1325
ENERGY: 1200000 1.5787 5.4620 1.2696 0.0000 -10513.0409 1330.7775 0.0000 0.0000 1773.6476 -7400.3054 302.4022 -9173.9531 -7494.8363 298.1209 -840.5591 -825.6210 31172.2594 -55.8476 12.2102
ENERGY: 1500000 3.0347 3.4236 2.2227 0.0000 -10601.9954 1364.9662 0.0000 0.0000 1793.8329 -7434.5153 305.8437 -9228.3482 -7492.0318 298.6293 -414.6259 -331.2659 30117.5841 -115.5612 -50.8708
TCL: Running FEP window  15: Lambda1 0.29999999999999966 Lambda2 0.24999999999999967 [dLambda -0.04999999999999999]
TCL: Setting parameter firsttimestep to 0
TCL: Setting parameter alchLambda to 0.29999999999999966
Info: NONBONDED TABLE R-SQUARED SPACING: 0.0625
Info: NONBONDED TABLE SIZE: 705 POINTS
TCL: Setting parameter alchLambda2 to 0.24999999999999967
Info: NONBONDED TABLE R-SQUARED SPACING: 0.0625
Info: NONBONDED TABLE SIZE: 705 POINTS
TCL: Running for 1500000 steps
ETITLE: TS BOND ANGLE DIHED IMPRP ELECT VDW BOUNDARY MISC KINETIC TOTAL TEMP POTENTIAL TOTALAVG TEMPAVG PRESSURE GPRESSURE VOLUME PRESSAVG GPRESSAVG
ENERGY: 0 3.0347 3.4236 2.2227 0.0000 -10601.9962 1364.3664 0.0000 0.0000 1792.9680 -7435.9808 305.6963 -9228.9488 -7435.9808 305.6963 -412.5788 -338.2747 30117.5841 -412.5788 -338.2747
ENERGY: 300000 1.3017 8.2352 0.3040 0.0000 -10776.3846 1486.0912 0.0000 0.0000 1784.5492 -7495.9033 304.2609 -9280.4525 -7473.9270 302.4535 427.5107 490.8391 29975.6475 -45.5144 37.1461
ENERGY: 600000 1.2066 5.9190 1.4319 0.0000 -10674.4565 1446.4907 0.0000 0.0000 1807.7005 -7411.7080 308.2081 -9219.4084 -7461.7560 302.0200 131.4540 135.6014 30137.3178 -241.4494 -179.7609
ENERGY: 900000 2.4580 6.7610 2.3541 0.0000 -10846.0990 1464.6171 0.0000 0.0000 1773.7348 -7596.1739 302.4171 -9369.9087 -7484.6512 301.6965 -121.1167 -57.9404 29999.3526 -316.2503 -255.0844
ENERGY: 1200000 2.3275 6.4362 0.9196 0.0000 -10691.6864 1467.4757 0.0000 0.0000 1749.4519 -7465.0754 298.2769 -9214.5274 -7479.0989 301.9244 147.7696 152.5217 30548.1774 -176.3153 -126.0264
ENERGY: 1500000 2.6524 4.1883 0.5682 0.0000 -10719.3485 1485.5498 0.0000 0.0000 1761.6627 -7464.7270 300.3588 -9226.3898 -7476.7897 301.6271 414.4400 457.9601 30335.9817 -158.0100 -102.3936
TCL: Running FEP window  16: Lambda1 0.24999999999999967 Lambda2 0.19999999999999968 [dLambda -0.04999999999999999]
TCL: Setting parameter firsttimestep to 0
TCL: Setting parameter alchLambda to 0.24999999999999967
Info: NONBONDED TABLE R-SQUARED SPACING: 0.0625
Info: NONBONDED TABLE SIZE: 705 POINTS
TCL: Setting parameter alchLambda2 to 0.19999999999999968
Info: NONBONDED TABLE R-SQUARED SPACING: 0.0625
Info: NONBONDED TABLE SIZE: 705 POINTS
TCL: Running for 1500000 steps
ETITLE: TS BOND ANGLE DIHED IMPRP ELECT VDW BOUNDARY MISC KINETIC TOTAL TEMP POTENTIAL TOTALAVG TEMPAVG PRESSURE GPRESSURE VOLUME PRESSAVG GPRESSAVG
ENERGY: 0 2.6524 4.1883 0.5682 0.0000 -10719.3486 1485.6826 0.0000 0.0000 1760.7859 -7465.4711 300.2093 -9226.2571 -7465.4711 300.2093 365.9149 457.7971 30335.9817 365.9149 457.7971
ENERGY: 300000 1.1940 4.6848 0.4913 0.0000 -10561.1823 1376.0254 0.0000 0.0000 1744.9061 -7433.8807 297.5018 -9178.7868 -7504.9431 298.3726 -143.7453 -106.6477 30104.4221 244.2618 305.3592
ENERGY: 600000 1.1010 4.3424 0.8520 0.0000 -10723.5339 1458.2037 0.0000 0.0000 1777.8580 -7481.1769 303.1200 -9259.0348 -7495.3452 299.3435 45.0674 92.8764 30177.2381 150.0170 209.2654
ENERGY: 900000 0.7780 4.7826 0.4611 0.0000 -10554.0905 1368.8227 0.0000 0.0000 1767.2848 -7411.9613 301.3174 -9179.2461 -7484.0442 299.6206 -471.7635 -416.4828 30572.0636 37.0900 94.3879
ENERGY: 1200000 0.5551 3.0436 0.2894 0.0000 -10739.4164 1513.7418 0.0000 0.0000 1744.3763 -7477.4102 297.4115 -9221.7865 -7489.2423 298.7774 755.9409 838.9216 30164.1982 149.8818 205.9733
ENERGY: 1500000 1.2227 3.7241 2.2065 0.0000 -10691.7429 1422.2927 0.0000 0.0000 1755.1222 -7507.1746 299.2437 -9262.2968 -7487.2063 299.1889 -208.3712 -116.2970 29968.3308 61.2925 122.8196
TCL: Running FEP window  17: Lambda1 0.19999999999999968 Lambda2 0.1499999999999997 [dLambda -0.04999999999999999]
TCL: Setting parameter firsttimestep to 0
TCL: Setting parameter alchLambda to 0.19999999999999968
Info: NONBONDED TABLE R-SQUARED SPACING: 0.0625
Info: NONBONDED TABLE SIZE: 705 POINTS
TCL: Setting parameter alchLambda2 to 0.1499999999999997
Info: NONBONDED TABLE R-SQUARED SPACING: 0.0625
Info: NONBONDED TABLE SIZE: 705 POINTS
TCL: Running for 1500000 steps
ETITLE: TS BOND ANGLE DIHED IMPRP ELECT VDW BOUNDARY MISC KINETIC TOTAL TEMP POTENTIAL TOTALAVG TEMPAVG PRESSURE GPRESSURE VOLUME PRESSAVG GPRESSAVG
ENERGY: 0 1.2227 3.7241 2.2065 0.0000 -10691.7429 1422.2774 0.0000 0.0000 1754.2900 -7508.0222 299.1018 -9262.3121 -7508.0222 299.1018 -205.2767 -122.2613 29968.3308 -205.2767 -122.2613
ENERGY: 300000 1.3447 4.5723 1.2015 0.0000 -10674.6608 1463.3047 0.0000 0.0000 1748.7798 -7455.4578 298.1623 -9204.2375 -7467.2712 299.1542 35.7907 105.9164 30582.1561 -37.0640 33.2518
ENERGY: 600000 1.4720 1.4702 0.5531 0.0000 -10660.9301 1439.8433 0.0000 0.0000 1742.2839 -7475.3075 297.0548 -9217.5914 -7461.8029 300.7753 1.6884 10.9598 30216.6657 -93.1039 -34.1578
ENERGY: 900000 0.2877 8.5178 1.7217 0.0000 -10793.3043 1451.2792 0.0000 0.0000 1761.5657 -7569.9324 300.3423 -9331.4980 -7476.1937 299.8189 7.5088 25.8269 29891.0699 -104.1489 -59.4061
ENERGY: 1200000 1.2329 6.0348 3.3250 0.0000 -10521.1129 1421.4754 0.0000 0.0000 1770.2701 -7318.7748 301.8263 -9089.0449 -7459.4426 300.6545 -66.9885 -27.9676 31106.1901 -35.7994 7.0701
ENERGY: 1500000 0.5902 2.5662 0.4378 0.0000 -10506.4655 1297.5146 0.0000 0.0000 1750.1935 -7455.1632 298.4033 -9205.3567 -7466.6891 299.7461 -1190.4423 -1120.4451 30581.3393 -141.5244 -94.6694
TCL: Running FEP window  18: Lambda1 0.1499999999999997 Lambda2 0.09999999999999969 [dLambda -0.05 ]
TCL: Setting parameter firsttimestep to 0
TCL: Setting parameter alchLambda to 0.1499999999999997
Info: NONBONDED TABLE R-SQUARED SPACING: 0.0625
Info: NONBONDED TABLE SIZE: 705 POINTS
TCL: Setting parameter alchLambda2 to 0.09999999999999969
Info: NONBONDED TABLE R-SQUARED SPACING: 0.0625
Info: NONBONDED TABLE SIZE: 705 POINTS
TCL: Running for 1500000 steps
ETITLE: TS BOND ANGLE DIHED IMPRP ELECT VDW BOUNDARY MISC KINETIC TOTAL TEMP POTENTIAL TOTALAVG TEMPAVG PRESSURE GPRESSURE VOLUME PRESSAVG GPRESSAVG
ENERGY: 0 0.5902 2.5662 0.4378 0.0000 -10506.4649 1297.9304 0.0000 0.0000 1749.3148 -7455.6255 298.2535 -9204.9403 -7455.6255 298.2535 -1215.8541 -1120.2779 30581.3393 -1215.8541 -1120.2779
ENERGY: 300000 0.4102 5.1918 0.0110 0.0000 -10674.2054 1422.0501 0.0000 0.0000 1719.8575 -7526.6847 293.2311 -9246.5422 -7502.1896 296.8719 -298.4991 -261.2993 30617.3958 -279.4776 -232.5163
ENERGY: 600000 0.3557 5.0395 0.3257 0.0000 -10532.7241 1355.0289 0.0000 0.0000 1736.5867 -7435.3875 296.0834 -9171.9742 -7474.1043 298.3301 -697.7123 -597.2838 30630.2504 -434.2293 -365.4094
ENERGY: 900000 3.1386 3.4677 0.6321 0.0000 -10692.3255 1353.4793 0.0000 0.0000 1788.0408 -7543.5671 304.8562 -9331.6079 -7496.5430 299.1506 -755.4622 -629.0727 30038.3016 -404.1980 -330.3420
ENERGY: 1200000 0.1705 4.8924 0.1666 0.0000 -10809.6093 1506.8530 0.0000 0.0000 1742.4897 -7555.0370 297.0899 -9297.5267 -7501.0019 299.1017 727.0991 815.8431 29644.6562 -356.3544 -283.1861
ENERGY: 1500000 2.6290 5.0246 0.8731 0.0000 -10632.3404 1439.2639 0.0000 0.0000 1734.6711 -7449.8786 295.7568 -9184.5498 -7496.4161 299.2210 4.2370 12.2550 30467.4580 -336.1212 -268.4692
TCL: Running FEP window  19: Lambda1 0.09999999999999969 Lambda2 0.049999999999999684 [dLambda -0.05 ]
TCL: Setting parameter firsttimestep to 0
TCL: Setting parameter alchLambda to 0.09999999999999969
Info: NONBONDED TABLE R-SQUARED SPACING: 0.0625
Info: NONBONDED TABLE SIZE: 705 POINTS
TCL: Setting parameter alchLambda2 to 0.049999999999999684
Info: NONBONDED TABLE R-SQUARED SPACING: 0.0625
Info: NONBONDED TABLE SIZE: 705 POINTS
TCL: Running for 1500000 steps
ETITLE: TS BOND ANGLE DIHED IMPRP ELECT VDW BOUNDARY MISC KINETIC TOTAL TEMP POTENTIAL TOTALAVG TEMPAVG PRESSURE GPRESSURE VOLUME PRESSAVG GPRESSAVG
ENERGY: 0 2.6290 5.0246 0.8731 0.0000 -10632.3411 1438.6048 0.0000 0.0000 1733.8001 -7451.4095 295.6083 -9185.2096 -7451.4095 295.6083 -71.6080 8.1269 30467.4580 -71.6080 8.1269
ENERGY: 300000 0.8389 6.5802 0.4887 0.0000 -10646.8740 1403.9183 0.0000 0.0000 1735.5753 -7499.4725 295.9110 -9235.0478 -7462.4353 298.1885 -236.5375 -195.0375 30276.8064 252.9020 296.2300
ENERGY: 600000 0.7488 4.0626 0.1248 0.0000 -10714.5430 1409.3150 0.0000 0.0000 1765.6043 -7534.6876 301.0308 -9300.2918 -7472.6287 297.6742 -590.7258 -563.4668 30522.3479 -146.0432 -94.8880
ENERGY: 900000 1.0949 9.2004 1.7408 0.0000 -10848.6722 1516.4558 0.0000 0.0000 1737.5535 -7582.6268 296.2483 -9320.1803 -7504.7067 297.4979 223.3289 305.9612 30418.8299 -115.9324 -61.4985
ENERGY: 1200000 1.6674 4.3287 1.7309 0.0000 -10514.1974 1378.5982 0.0000 0.0000 1776.0341 -7351.8381 302.8091 -9127.8722 -7477.0533 297.5833 -200.0224 -189.4981 30721.7546 -208.3853 -158.5175
ENERGY: 1500000 0.6514 4.7344 1.2697 0.0000 -10655.7644 1344.4767 0.0000 0.0000 1748.9390 -7555.6932 298.1894 -9304.6322 -7480.1229 297.6809 -883.6409 -811.0395 30032.2697 -202.2405 -148.0540
TCL: Running FEP window  20: Lambda1 0.049999999999999684 Lambda2 0.0    [dLambda -0.049999999999999684]
TCL: Setting parameter firsttimestep to 0
TCL: Setting parameter alchLambda to 0.049999999999999684
Info: NONBONDED TABLE R-SQUARED SPACING: 0.0625
Info: NONBONDED TABLE SIZE: 705 POINTS
TCL: Setting parameter alchLambda2 to 0.0
Info: NONBONDED TABLE R-SQUARED SPACING: 0.0625
Info: NONBONDED TABLE SIZE: 705 POINTS
TCL: Running for 1500000 steps
ETITLE: TS BOND ANGLE DIHED IMPRP ELECT VDW BOUNDARY MISC KINETIC TOTAL TEMP POTENTIAL TOTALAVG TEMPAVG PRESSURE GPRESSURE VOLUME PRESSAVG GPRESSAVG
ENERGY: 0 0.6514 4.7344 1.2697 0.0000 -10655.7629 1343.5081 0.0000 0.0000 1748.0649 -7557.5344 298.0404 -9305.5993 -7557.5344 298.0404 -901.0291 -815.0367 30032.2697 -901.0291 -815.0367
ENERGY: 300000 1.6900 6.0037 0.5914 0.0000 -10833.3375 1474.5061 0.0000 0.0000 1734.9951 -7615.5513 295.8121 -9350.5464 -7551.0134 296.8492 -49.9933 -11.0958 30367.5918 -449.4875 -369.3364
ENERGY: 600000 1.4020 5.4132 0.9180 0.0000 -10727.3834 1416.4987 0.0000 0.0000 1809.3213 -7493.8301 308.4845 -9303.1515 -7532.9910 299.9353 -176.7854 -141.0068 30134.3943 -208.4313 -146.0054
ENERGY: 900000 0.8629 2.7803 0.3479 0.0000 -10649.8482 1347.1455 0.0000 0.0000 1784.8631 -7513.8486 304.3144 -9298.7116 -7514.6864 300.7516 -682.4516 -620.5047 30053.6128 -256.8039 -198.6903
ENERGY: 1200000 1.0671 4.1120 0.2400 0.0000 -10606.2227 1376.7489 0.0000 0.0000 1815.5445 -7408.5102 309.5455 -9224.0547 -7493.1164 301.3686 -435.2853 -318.1543 30286.9004 -314.9293 -251.3017
ENERGY: 1500000 2.1912 1.8356 0.7496 0.0000 -10669.9468 1425.6083 0.0000 0.0000 1788.6403 -7450.9218 304.9584 -9239.5621 -7501.0904 300.7789 206.6354 236.1712 29871.5060 -217.7468 -157.2897
TCL: Exiting due to exit command.
