Info: SIMULATION PARAMETERS:
Info: TIMESTEP               2
Info: NUMBER OF STEPS        0
Info: STEPS PER CYCLE        10
Info: PERIODIC CELL BASIS 1  31.8274 0 0
Info: PERIODIC CELL BASIS 2  0 30.1434 0
Info: PERIODIC CELL BASIS 3  0 0 31.9989
Info: PERIODIC CELL CENTER   0 0 0
Info: WRAPPING WATERS AROUND PERIODIC BOUNDARIES ON OUTPUT.
Info: WRAPPING ALL CLUSTERS AROUND PERIODIC BOUNDARIES ON OUTPUT.
Info: FIRST LDB TIMESTEP     50
Info: LAST LDB TIMESTEP     -1
Info: HOM BACKGROUND SCALING 1
Info: PME BACKGROUND SCALING 1
Info: MIN ATOMS PER PATCH    40
Info: EMPTY PATCH LOAD       40 ATOMS
Info: VELOCITY FILE          mobley_6416775_equil.vel
Info: CENTER OF MASS MOVING INITIALLY? NO
Info: DIELECTRIC             1
Info: EXCLUDE                SCALED ONE-FOUR
Info: 1-4 ELECTROSTATICS SCALED BY 0.833333
Info: MODIFIED 1-4 VDW PARAMETERS WILL BE USED
Info: DCD FILENAME           mobley_6416775_prod.dcd
Info: DCD FREQUENCY          100000
Info: DCD FIRST STEP         100000
Info: DCD FILE WILL CONTAIN UNIT CELL DATA
Info: XST FILENAME           mobley_6416775_prod.xst
Info: XST FREQUENCY          100000
Info: NO VELOCITY DCD OUTPUT
Info: NO FORCE DCD OUTPUT
Info: OUTPUT FILENAME        mobley_6416775_prod
Info: BINARY OUTPUT FILES WILL BE USED
Info: RESTART FILENAME       mobley_6416775_prod.restart
Info: RESTART FREQUENCY      100000
Info: BINARY RESTART FILES WILL BE USED
Info: CUTOFF                 9
Info: PAIRLIST DISTANCE      11
Info: PAIRLIST SHRINK RATE   0.01
Info: PAIRLIST GROW RATE     0.01
Info: PAIRLIST TRIGGER       0.3
Info: PAIRLISTS PER CYCLE    2
Info: PAIRLISTS ENABLED
Info: MARGIN                 2
Info: HYDROGEN GROUP CUTOFF  2.5
Info: PATCH DIMENSION        15.5
Info: ENERGY OUTPUT STEPS    100000
Info: ENERGY EVALUATION STEPS    100000
Info: OUTPUT ENERGY PRECISION 4
Info: CROSSTERM ENERGY INCLUDED IN DIHEDRAL
Info: TIMING OUTPUT STEPS    1000000
Info: PRESSURE OUTPUT STEPS  100000
Info: ALCHEMICAL FEP ON
Info: FEP CURRENT LAMBDA VALUE     1
Info: FEP COMPARISON LAMBDA VALUE  0.95
Info: FEP INTRA-ALCHEMICAL NON-BONDED INTERACTIONS WILL BE RETAINED
Info: FEP INTRA-ALCHEMICAL BONDED INTERACTIONS WILL BE RETAINED
Info: FEP VDW SHIFTING COEFFICIENT 5
Info: FEP ELEC. ACTIVE FOR ANNIHILATED PARTICLES BETWEEN LAMBDA = 0 AND LAMBDA = 0.5
Info: FEP ELEC. ACTIVE FOR EXNIHILATED PARTICLES BETWEEN LAMBDA = 0.5 AND LAMBDA = 1
Info: FEP VDW ACTIVE FOR ANNIHILATED PARTICLES BETWEEN LAMBDA = 0 AND LAMBDA = 1
Info: FEP VDW ACTIVE FOR EXNIHILATED PARTICLES BETWEEN LAMBDA = 0 AND LAMBDA = 1
Info: FEP BOND ACTIVE FOR ANNIHILATED PARTICLES BETWEEN LAMBDA = 1 AND LAMBDA = 1
Info: FEP BOND ACTIVE FOR EXNIHILATED PARTICLES BETWEEN LAMBDA = 0 AND LAMBDA = 0
Info: LANGEVIN DYNAMICS ACTIVE
Info: LANGEVIN TEMPERATURE   300
Info: LANGEVIN USING BBK INTEGRATOR
Info: LANGEVIN DAMPING COEFFICIENT IS 1 INVERSE PS
Info: LANGEVIN DYNAMICS APPLIED TO HYDROGENS
Info: LANGEVIN PISTON PRESSURE CONTROL ACTIVE
Info:        TARGET PRESSURE IS 1.01325 BAR
Info:     OSCILLATION PERIOD IS 50 FS
Info:             DECAY TIME IS 25 FS
Info:     PISTON TEMPERATURE IS 300 K
Info:       PRESSURE CONTROL IS GROUP-BASED
Info:    INITIAL STRAIN RATE IS -7.24132e-05 -7.24132e-05 -7.24132e-05
Info:       CELL FLUCTUATION IS ISOTROPIC
Info: PARTICLE MESH EWALD (PME) ACTIVE
Info: PME TOLERANCE               1e-06
Info: PME EWALD COEFFICIENT       0.348832
Info: PME INTERPOLATION ORDER     4
Info: PME GRID DIMENSIONS         32 32 32
Info: PME MAXIMUM GRID SPACING    1
Info: PME CALCULATION WILL BE PERFORMED ON GPU
Info: FULL ELECTROSTATIC EVALUATION FREQUENCY      2
Info: USING VERLET I (r-RESPA) MTS SCHEME.
Info: C1 SPLITTING OF LONG RANGE ELECTROSTATICS
Info: PLACING ATOMS IN PATCHES BY HYDROGEN GROUPS
Info: RIGID BONDS TO HYDROGEN : ALL
Info:         ERROR TOLERANCE : 1e-08
Info:          MAX ITERATIONS : 100
Info: RIGID WATER USING SETTLE ALGORITHM
Info: RANDOM NUMBER SEED     1743895597
Info: USE HYDROGEN BONDS?    NO
Info: Using AMBER format force field!
Info: AMBER PARM FILE        mobley_6416775.prmtop
Info: COORDINATE PDB         mobley_6416775.pdb
Info: Exclusions will be read from PARM file!
Info: SCNB (VDW SCALING)     2
Info: USING ARITHMETIC MEAN TO COMBINE L-J SIGMA PARAMETERS
Info: BINARY COORDINATES     mobley_6416775_equil.coor
Info: SUMMARY OF PARAMETERS:
Info: 4 BONDS
Info: 3 ANGLES
Info:   3 HARMONIC
Info:   0 COSINE-BASED
Info: 5 DIHEDRAL
Info: 0 IMPROPER
Info: 0 CROSSTERM
Info: 0 VDW
Info: 10 VDW_PAIRS
Info: 0 NBTHOLE_PAIRS
Info: To read alchdata from file: mobley_6416775.pdb
Info: To read alchflag data from column: 5
Info: STRUCTURE SUMMARY:
Info: 2931 ATOMS
Info: 2931 BONDS
Info: 48 ANGLES
Info: 92 DIHEDRALS
Info: 0 IMPROPERS
Info: 0 CROSSTERMS
Info: 3046 EXCLUSIONS
Info: 2923 RIGID BONDS
Info: ALCH: 0 ATOMS TO DISAPPEAR IN FINAL STATE
Info: ALCH: 24 ATOMS TO APPEAR IN FINAL STATE
Info: 5870 DEGREES OF FREEDOM
Info: 977 HYDROGEN GROUPS
Info: 4 ATOMS IN LARGEST HYDROGEN GROUP
Info: 977 MIGRATION GROUPS
Info: 4 ATOMS IN LARGEST MIGRATION GROUP
Info: TOTAL MASS = 17569.7 amu
Info: TOTAL CHARGE = 4.47035e-08 e
Info: MASS DENSITY = 0.950376 g/cm^3
Info: ATOM DENSITY = 0.0954745 atoms/A^3
Info: ADDED 0 IMPLICIT EXCLUSIONS
Info: NONBONDED TABLE R-SQUARED SPACING: 0.0625
Info: NONBONDED TABLE SIZE: 705 POINTS
Info: REMOVING COM VELOCITY 0.260755 -0.167753 0.0302768
Info: Use 3D box decompostion in PME FFT.
Info: Updated CUDA force table with 4096 elements.
Info: Updated CUDA LJ table with 4 x 4 elements.
Info: Found 27 unique exclusion lists needing 92 bytes
TCL: Running for 1500000 steps
ETITLE: TS BOND ANGLE DIHED IMPRP ELECT VDW BOUNDARY MISC KINETIC TOTAL TEMP POTENTIAL TOTALAVG TEMPAVG PRESSURE GPRESSURE VOLUME PRESSAVG GPRESSAVG
ENERGY: 0 3.8957 13.6382 13.3187 0.0000 -10608.1473 1412.5674 0.0000 0.0000 1789.3795 -7375.3478 306.7996 -9164.7274 -7375.3478 306.7996 -342.9760 -265.7671 30699.3004 -342.9760 -265.7671
ENERGY: 300000 1.2977 14.6536 11.6395 0.0000 -10661.5716 1426.2715 0.0000 0.0000 1759.2588 -7448.4504 301.6352 -9207.7093 -7377.8393 304.6366 -207.2853 -130.1366 30150.6388 -274.7362 -215.4165
ENERGY: 600000 3.6791 15.3956 11.5947 0.0000 -10613.0845 1474.8720 0.0000 0.0000 1742.3227 -7365.2205 298.7314 -9107.5432 -7378.9873 302.9757 474.4284 494.4055 30179.5683 -154.2747 -97.4434
ENERGY: 900000 1.5848 15.2918 11.1102 0.0000 -10331.3397 1248.3791 0.0000 0.0000 1721.2158 -7333.7579 295.1125 -9054.9737 -7380.3795 301.1360 -1228.6388 -1126.6845 30460.9175 -224.9501 -168.1552
ENERGY: 1200000 2.6927 15.2886 10.3570 0.0000 -10545.1534 1343.1192 0.0000 0.0000 1771.0935 -7402.6024 303.6643 -9173.6959 -7372.4506 302.0838 -585.0111 -495.4967 30089.8993 -188.0205 -130.9540
ENERGY: 1500000 4.2276 15.6429 12.1341 0.0000 -10504.8472 1383.4623 0.0000 0.0000 1780.9040 -7308.4764 305.3464 -9089.3803 -7368.3783 302.5992 -131.1886 -122.9095 30281.8305 -131.6708 -76.3042
TCL: Running FEP window   2: Lambda1 0.95   Lambda2 0.8999999999999999 [dLambda -0.050000000000000044]
TCL: Setting parameter firsttimestep to 0
TCL: Setting parameter alchLambda to 0.95
Info: NONBONDED TABLE R-SQUARED SPACING: 0.0625
Info: NONBONDED TABLE SIZE: 705 POINTS
TCL: Setting parameter alchLambda2 to 0.8999999999999999
Info: NONBONDED TABLE R-SQUARED SPACING: 0.0625
Info: NONBONDED TABLE SIZE: 705 POINTS
TCL: Running for 1500000 steps
ETITLE: TS BOND ANGLE DIHED IMPRP ELECT VDW BOUNDARY MISC KINETIC TOTAL TEMP POTENTIAL TOTALAVG TEMPAVG PRESSURE GPRESSURE VOLUME PRESSAVG GPRESSAVG
ENERGY: 0 4.2276 15.6429 12.1341 0.0000 -10504.8621 1383.8674 0.0000 0.0000 1780.0950 -7308.8951 305.2077 -9088.9901 -7308.8951 305.2077 -195.7110 -133.5807 30281.8305 -195.7110 -133.5807
ENERGY: 300000 1.3324 20.0300 10.6096 0.0000 -10347.6388 1293.0655 0.0000 0.0000 1750.2260 -7272.3752 300.0865 -9022.6011 -7325.0823 303.0870 -554.9923 -504.3859 30464.0761 41.5058 97.9440
ENERGY: 600000 4.8859 11.5132 14.0424 0.0000 -10548.9902 1443.7695 0.0000 0.0000 1744.7068 -7330.0724 299.1402 -9074.7791 -7361.3895 300.2816 168.2470 271.0840 30420.3070 96.6362 151.4796
ENERGY: 900000 6.0176 12.9230 13.5053 0.0000 -10652.3508 1460.5760 0.0000 0.0000 1729.6929 -7429.6360 296.5660 -9159.3290 -7361.0299 300.7283 563.1841 551.3367 29906.6283 110.3898 168.6063
ENERGY: 1200000 2.7124 19.9572 9.8768 0.0000 -10489.2269 1356.2974 0.0000 0.0000 1766.4005 -7333.9827 302.8597 -9100.3831 -7366.1381 300.3972 -259.1890 -206.3773 29878.8434 103.0812 162.7518
ENERGY: 1500000 3.3237 17.7708 11.3586 0.0000 -10613.4990 1506.6638 0.0000 0.0000 1756.4296 -7317.9524 301.1501 -9074.3820 -7364.7573 300.2782 662.0252 690.6928 30403.7846 119.1103 179.6614
TCL: Running FEP window   3: Lambda1 0.8999999999999999 Lambda2 0.8499999999999999 [dLambda -0.050000000000000044]
TCL: Setting parameter firsttimestep to 0
TCL: Setting parameter alchLambda to 0.8999999999999999
Info: NONBONDED TABLE R-SQUARED SPACING: 0.0625
Info: NONBONDED TABLE SIZE: 705 POINTS
TCL: Setting parameter alchLambda2 to 0.8499999999999999
Info: NONBONDED TABLE R-SQUARED SPACING: 0.0625
Info: NONBONDED TABLE SIZE: 705 POINTS
TCL: Running for 1500000 steps
ETITLE: TS BOND ANGLE DIHED IMPRP ELECT VDW BOUNDARY MISC KINETIC TOTAL TEMP POTENTIAL TOTALAVG TEMPAVG PRESSURE GPRESSURE VOLUME PRESSAVG GPRESSAVG
ENERGY: 0 3.3238 17.7708 11.3586 0.0000 -10613.4832 1506.9943 0.0000 0.0000 1755.5368 -7318.4989 300.9970 -9074.0357 -7318.4989 300.9970 607.9435 681.0564 30403.7846 607.9435 681.0564
ENERGY: 300000 2.5940 12.2538 14.7120 0.0000 -10446.7148 1313.5106 0.0000 0.0000 1729.5150 -7374.1295 296.5354 -9103.6445 -7335.1208 302.2779 -917.3205 -843.7920 30325.7454 -367.4205 -280.0872
ENERGY: 600000 2.4091 11.9043 11.5156 0.0000 -10605.5964 1399.1599 0.0000 0.0000 1798.6056 -7382.0019 308.3814 -9180.6075 -7349.0951 301.9913 139.4697 176.9379 29677.3765 -95.5219 -6.6936
ENERGY: 900000 1.0559 16.1415 11.6298 0.0000 -10664.2890 1465.4877 0.0000 0.0000 1789.9528 -7380.0214 306.8979 -9169.9742 -7355.6901 301.4042 392.4327 422.2805 30021.3470 -85.7261 -13.7113
ENERGY: 1200000 2.6647 18.8982 9.6596 0.0000 -10702.7004 1456.5564 0.0000 0.0000 1754.8140 -7460.1074 300.8731 -9214.9214 -7368.4770 301.8762 232.4569 250.6213 29952.6839 -113.7694 -52.6828
ENERGY: 1500000 1.1164 15.9496 10.2944 0.0000 -10581.4143 1387.4690 0.0000 0.0000 1755.8108 -7410.7741 301.0440 -9166.5849 -7371.0512 301.4139 -179.6458 -143.0408 30031.2965 -156.3984 -96.1203
TCL: Running FEP window   4: Lambda1 0.8499999999999999 Lambda2 0.7999999999999998 [dLambda -0.050000000000000044]
TCL: Setting parameter firsttimestep to 0
TCL: Setting parameter alchLambda to 0.8499999999999999
Info: NONBONDED TABLE R-SQUARED SPACING: 0.0625
Info: NONBONDED TABLE SIZE: 705 POINTS
TCL: Setting parameter alchLambda2 to 0.7999999999999998
Info: NONBONDED TABLE R-SQUARED SPACING: 0.0625
Info: NONBONDED TABLE SIZE: 705 POINTS
TCL: Running for 1500000 steps
ETITLE: TS BOND ANGLE DIHED IMPRP ELECT VDW BOUNDARY MISC KINETIC TOTAL TEMP POTENTIAL TOTALAVG TEMPAVG PRESSURE GPRESSURE VOLUME PRESSAVG GPRESSAVG
ENERGY: 0 1.1164 15.9496 10.2944 0.0000 -10581.4155 1387.5560 0.0000 0.0000 1754.9173 -7411.5818 300.8908 -9166.4991 -7411.5818 300.8908 -224.7738 -154.3533 30031.2965 -224.7738 -154.3533
ENERGY: 300000 1.8748 21.3292 12.8649 0.0000 -10524.9135 1332.0890 0.0000 0.0000 1751.8057 -7404.9499 300.3573 -9156.7556 -7442.2842 299.5944 -577.9178 -530.3666 29905.0521 -138.2489 -77.9466
ENERGY: 600000 4.0459 15.5411 12.0246 0.0000 -10530.4359 1354.8859 0.0000 0.0000 1803.7357 -7340.2027 309.2610 -9143.9384 -7404.1621 303.0234 -544.0771 -439.4110 30143.3253 -208.7054 -138.0050
ENERGY: 900000 3.1572 17.9027 11.3087 0.0000 -10578.8187 1366.5403 0.0000 0.0000 1801.6259 -7378.2839 308.8993 -9179.9098 -7405.7095 302.6686 -669.8699 -648.1477 30185.5925 -176.3335 -115.8620
ENERGY: 1200000 0.8077 19.0193 11.1952 0.0000 -10588.1065 1425.5209 0.0000 0.0000 1758.7810 -7372.7825 301.5533 -9131.5635 -7388.3169 303.0048 170.4895 203.1004 29952.9566 -220.7785 -169.9678
ENERGY: 1500000 2.5747 14.0425 12.5902 0.0000 -10442.3958 1367.6486 0.0000 0.0000 1748.6933 -7296.8466 299.8237 -9045.5398 -7378.4570 302.5638 -149.1559 -12.2844 30015.1235 -209.5009 -152.5522
TCL: Running FEP window   5: Lambda1 0.7999999999999998 Lambda2 0.7499999999999998 [dLambda -0.050000000000000044]
TCL: Setting parameter firsttimestep to 0
TCL: Setting parameter alchLambda to 0.7999999999999998
Info: NONBONDED TABLE R-SQUARED SPACING: 0.0625
Info: NONBONDED TABLE SIZE: 705 POINTS
TCL: Setting parameter alchLambda2 to 0.7499999999999998
Info: NONBONDED TABLE R-SQUARED SPACING: 0.0625
Info: NONBONDED TABLE SIZE: 705 POINTS
TCL: Running for 1500000 steps
ETITLE: TS BOND ANGLE DIHED IMPRP ELECT VDW BOUNDARY MISC KINETIC TOTAL TEMP POTENTIAL TOTALAVG TEMPAVG PRESSURE GPRESSURE VOLUME PRESSAVG GPRESSAVG
ENERGY: 0 2.5747 14.0425 12.5902 0.0000 -10442.4481 1368.0699 0.0000 0.0000 1747.8099 -7297.3608 299.6722 -9045.1707 -7297.3608 299.6722 -101.5604 -21.0238 30015.1235 -101.5604 -21.0238
ENERGY: 300000 1.3599 21.1742 10.8217 0.0000 -10536.0529 1401.1191 0.0000 0.0000 1693.0381 -7408.5400 290.2813 -9101.5780 -7392.3097 297.6871 -336.0270 -187.9765 30095.1469 -43.2345 50.3907
ENERGY: 600000 5.0581 14.4863 13.5047 0.0000 -10808.2430 1578.6890 0.0000 0.0000 1686.5828 -7509.9221 289.1745 -9196.5049 -7412.1747 296.5547 1045.7637 1129.4226 29691.3507 106.5783 181.7869
ENERGY: 900000 1.1283 19.0719 14.1366 0.0000 -10579.4558 1435.0228 0.0000 0.0000 1720.1420 -7389.9543 294.9284 -9110.0963 -7411.4075 296.8390 276.9248 367.1086 30198.3703 75.6964 151.9265
ENERGY: 1200000 2.5597 16.2928 10.4156 0.0000 -10440.6623 1311.3177 0.0000 0.0000 1770.9028 -7329.1737 303.6316 -9100.0765 -7396.4926 297.9822 -844.3414 -769.9041 30195.2706 -63.5543 8.3816
ENERGY: 1500000 4.5259 13.5633 12.0944 0.0000 -10613.1956 1416.9838 0.0000 0.0000 1758.2787 -7407.7495 301.4672 -9166.0282 -7385.4707 299.8143 85.6964 231.1270 29725.7505 -102.3528 -21.2328
TCL: Running FEP window   6: Lambda1 0.7499999999999998 Lambda2 0.6999999999999997 [dLambda -0.050000000000000044]
TCL: Setting parameter firsttimestep to 0
TCL: Setting parameter alchLambda to 0.7499999999999998
Info: NONBONDED TABLE R-SQUARED SPACING: 0.0625
Info: NONBONDED TABLE SIZE: 705 POINTS
TCL: Setting parameter alchLambda2 to 0.6999999999999997
Info: NONBONDED TABLE R-SQUARED SPACING: 0.0625
Info: NONBONDED TABLE SIZE: 705 POINTS
TCL: Running for 1500000 steps
ETITLE: TS BOND ANGLE DIHED IMPRP ELECT VDW BOUNDARY MISC KINETIC TOTAL TEMP POTENTIAL TOTALAVG TEMPAVG PRESSURE GPRESSURE VOLUME PRESSAVG GPRESSAVG
ENERGY: 0 4.5259 13.5633 12.0944 0.0000 -10613.2170 1416.7415 0.0000 0.0000 1757.4076 -7408.8844 301.3178 -9166.2919 -7408.8844 301.3178 142.1767 216.8982 29725.7505 142.1767 216.8982
ENERGY: 300000 3.3031 14.7363 10.9637 0.0000 -10601.6016 1440.4848 0.0000 0.0000 1752.1127 -7380.0009 300.4100 -9132.1136 -7374.7248 299.8788 365.7801 435.2633 29512.3789 110.0467 169.2311
ENERGY: 600000 2.8943 14.0669 11.2712 0.0000 -10547.7381 1371.0511 0.0000 0.0000 1777.0233 -7371.4311 304.6810 -9148.4545 -7388.1132 298.3802 -246.3778 -211.6655 29852.9079 -35.1384 40.7585
ENERGY: 900000 2.6021 15.5066 14.8453 0.0000 -10648.2673 1428.3869 0.0000 0.0000 1754.8566 -7432.0697 300.8804 -9186.9263 -7405.8651 297.2824 -90.7624 -36.5132 30141.5283 52.1304 117.5860
ENERGY: 1200000 1.5383 19.3902 9.6281 0.0000 -10588.3002 1488.6965 0.0000 0.0000 1782.5773 -7286.4699 305.6333 -9069.0472 -7390.3467 297.5573 1170.3952 1167.5069 29725.2081 152.9526 212.1994
ENERGY: 1500000 1.9491 24.9976 10.7920 0.0000 -10550.2383 1420.2131 0.0000 0.0000 1805.9705 -7286.3160 309.6442 -9092.2865 -7387.7803 297.7201 169.5794 223.6623 30055.6786 103.7408 156.9106
TCL: Running FEP window   7: Lambda1 0.6999999999999997 Lambda2 0.6499999999999997 [dLambda -0.050000000000000044]
TCL: Setting parameter firsttimestep to 0
TCL: Setting parameter alchLambda to 0.6999999999999997
Info: NONBONDED TABLE R-SQUARED SPACING: 0.0625
Info: NONBONDED TABLE SIZE: 705 POINTS
TCL: Setting parameter alchLambda2 to 0.6499999999999997
Info: NONBONDED TABLE R-SQUARED SPACING: 0.0625
Info: NONBONDED TABLE SIZE: 705 POINTS
TCL: Running for 1500000 steps
ETITLE: TS BOND ANGLE DIHED IMPRP ELECT VDW BOUNDARY MISC KINETIC TOTAL TEMP POTENTIAL TOTALAVG TEMPAVG PRESSURE GPRESSURE VOLUME PRESSAVG GPRESSAVG
ENERGY: 0 1.9491 24.9976 10.7920 0.0000 -10550.2556 1420.5832 0.0000 0.0000 1805.0766 -7286.8571 309.4909 -9091.9337 -7286.8571 309.4909 133.3111 217.8534 30055.6786 133.3111 217.8534
ENERGY: 300000 1.5470 22.1209 10.9689 0.0000 -10620.5486 1436.7196 0.0000 0.0000 1803.7621 -7345.4301 309.2655 -9149.1921 -7341.4617 306.1382 -106.7137 -13.9518 30215.4171 -51.8016 4.5135
ENERGY: 600000 1.4898 15.1962 11.9257 0.0000 -10411.9255 1370.8923 0.0000 0.0000 1732.8038 -7279.6177 297.0993 -9012.4216 -7346.2314 303.6399 -49.0218 -54.3302 30356.8230 -92.4881 -43.0053
ENERGY: 900000 2.6469 13.7871 15.2020 0.0000 -10435.8514 1375.6723 0.0000 0.0000 1778.2946 -7250.2486 304.8990 -9028.5432 -7342.0279 302.8766 -323.5652 -312.7890 30744.6644 -139.4320 -91.4535
ENERGY: 1200000 1.3441 13.9129 14.1659 0.0000 -10627.5020 1492.8674 0.0000 0.0000 1780.3810 -7324.8307 305.2567 -9105.2118 -7356.7445 302.0164 200.7942 309.0076 30913.0240 -67.8856 -10.5265
ENERGY: 1500000 3.1972 12.8365 11.7332 0.0000 -10500.7674 1367.7941 0.0000 0.0000 1817.1830 -7288.0234 311.5666 -9105.2064 -7356.3550 301.6824 -13.8325 29.7709 29676.1329 -103.0448 -45.0798
TCL: Running FEP window   8: Lambda1 0.6499999999999997 Lambda2 0.5999999999999996 [dLambda -0.050000000000000044]
TCL: Setting parameter firsttimestep to 0
TCL: Setting parameter alchLambda to 0.6499999999999997
Info: NONBONDED TABLE R-SQUARED SPACING: 0.0625
Info: NONBONDED TABLE SIZE: 705 POINTS
TCL: Setting parameter alchLambda2 to 0.5999999999999996
Info: NONBONDED TABLE R-SQUARED SPACING: 0.0625
Info: NONBONDED TABLE SIZE: 705 POINTS
TCL: Running for 1500000 steps
ETITLE: TS BOND ANGLE DIHED IMPRP ELECT VDW BOUNDARY MISC KINETIC TOTAL TEMP POTENTIAL TOTALAVG TEMPAVG PRESSURE GPRESSURE VOLUME PRESSAVG GPRESSAVG
ENERGY: 0 3.1972 12.8365 11.7332 0.0000 -10500.8511 1367.3531 0.0000 0.0000 1816.3145 -7289.4166 311.4177 -9105.7311 -7289.4166 311.4177 -89.5609 11.6247 29676.1329 -89.5609 11.6247
ENERGY: 300000 2.0266 15.6013 13.3375 0.0000 -10520.0318 1419.3330 0.0000 0.0000 1758.2847 -7311.4487 301.4682 -9069.7334 -7340.7918 305.7944 186.5699 229.5568 30128.9592 325.5053 392.2696
ENERGY: 600000 5.0089 18.4564 11.3922 0.0000 -10580.6191 1423.5549 0.0000 0.0000 1710.2057 -7412.0010 293.2247 -9122.2066 -7358.6081 302.1843 -150.5004 -67.6759 30214.0547 -54.6215 12.0084
ENERGY: 900000 4.9390 17.9586 13.1097 0.0000 -10647.1850 1424.3315 0.0000 0.0000 1765.5601 -7421.2860 302.7156 -9186.8462 -7364.8010 302.8177 -280.0768 -144.6175 30020.3570 -9.1386 58.7708
ENERGY: 1200000 3.8274 12.8551 13.1801 0.0000 -10475.5027 1359.7624 0.0000 0.0000 1712.3721 -7373.5055 293.5962 -9085.8776 -7353.6216 301.9026 -309.4409 -272.7164 29834.0332 -147.4529 -78.6236
ENERGY: 1500000 2.4400 14.7752 13.5522 0.0000 -10556.6428 1383.2628 0.0000 0.0000 1738.9987 -7403.6139 298.1615 -9142.6126 -7361.6821 301.7762 -112.5874 -51.2703 29591.2971 -104.4147 -39.3448
TCL: Running FEP window   9: Lambda1 0.5999999999999996 Lambda2 0.5499999999999996 [dLambda -0.050000000000000044]
TCL: Setting parameter firsttimestep to 0
TCL: Setting parameter alchLambda to 0.5999999999999996
Info: NONBONDED TABLE R-SQUARED SPACING: 0.0625
Info: NONBONDED TABLE SIZE: 705 POINTS
TCL: Setting parameter alchLambda2 to 0.5499999999999996
Info: NONBONDED TABLE R-SQUARED SPACING: 0.0625
Info: NONBONDED TABLE SIZE: 705 POINTS
TCL: Running for 1500000 steps
ETITLE: TS BOND ANGLE DIHED IMPRP ELECT VDW BOUNDARY MISC KINETIC TOTAL TEMP POTENTIAL TOTALAVG TEMPAVG PRESSURE GPRESSURE VOLUME PRESSAVG GPRESSAVG
ENERGY: 0 2.4400 14.7752 13.5522 0.0000 -10556.6287 1383.6553 0.0000 0.0000 1738.1198 -7404.0863 298.0108 -9142.2060 -7404.0863 298.0108 -139.0219 -58.9749 29591.2971 -139.0219 -58.9749
ENERGY: 300000 4.0229 13.6656 13.6567 0.0000 -10653.5279 1438.1898 0.0000 0.0000 1745.4980 -7438.4949 299.2758 -9183.9929 -7387.3699 299.7490 -98.5077 33.0957 29937.3080 -139.1385 -36.0292
ENERGY: 600000 1.4163 16.2095 12.7195 0.0000 -10641.5563 1469.2332 0.0000 0.0000 1755.2117 -7386.7660 300.9413 -9141.9777 -7386.7682 299.0409 665.8146 709.8704 29491.5815 86.9747 152.2101
ENERGY: 900000 3.2134 16.5890 15.3649 0.0000 -10636.6711 1464.3157 0.0000 0.0000 1776.1041 -7361.0839 304.5234 -9137.1880 -7371.1850 299.5916 84.1665 145.7482 30542.1696 90.5409 147.9596
ENERGY: 1200000 2.1954 16.3816 10.6611 0.0000 -10609.0425 1353.3963 0.0000 0.0000 1680.9050 -7545.5031 288.2010 -9226.4081 -7387.8314 299.2434 -734.6244 -719.8666 29820.0277 10.0245 63.9424
ENERGY: 1500000 3.0815 19.5029 10.2048 0.0000 -10712.8616 1503.7770 0.0000 0.0000 1749.7365 -7426.5588 300.0025 -9176.2953 -7382.3004 299.3730 579.6374 599.8114 30042.0520 33.8319 87.8933
TCL: Running FEP window  10: Lambda1 0.5499999999999996 Lambda2 0.4999999999999996 [dLambda -0.04999999999999999]
TCL: Setting parameter firsttimestep to 0
TCL: Setting parameter alchLambda to 0.5499999999999996
Info: NONBONDED TABLE R-SQUARED SPACING: 0.0625
Info: NONBONDED TABLE SIZE: 705 POINTS
TCL: Setting parameter alchLambda2 to 0.4999999999999996
Info: NONBONDED TABLE R-SQUARED SPACING: 0.0625
Info: NONBONDED TABLE SIZE: 705 POINTS
TCL: Running for 1500000 steps
ETITLE: TS BOND ANGLE DIHED IMPRP ELECT VDW BOUNDARY MISC KINETIC TOTAL TEMP POTENTIAL TOTALAVG TEMPAVG PRESSURE GPRESSURE VOLUME PRESSAVG GPRESSAVG
ENERGY: 0 3.0815 19.5029 10.2048 0.0000 -10712.8860 1504.3290 0.0000 0.0000 1748.8259 -7426.9418 299.8464 -9175.7677 -7426.9418 299.8464 502.6438 593.8893 30042.0520 502.6438 593.8893
ENERGY: 300000 2.3933 16.5834 12.6156 0.0000 -10539.5945 1370.1183 0.0000 0.0000 1737.8555 -7400.0285 297.9655 -9137.8840 -7407.0944 298.9189 -512.6651 -491.2490 30060.8610 -362.7927 -295.8868
ENERGY: 600000 2.4359 17.9464 11.7293 0.0000 -10622.1913 1435.3732 0.0000 0.0000 1773.2273 -7381.4791 304.0302 -9154.7064 -7386.5302 298.9906 42.7887 78.8626 30136.3663 -242.7425 -180.7332
ENERGY: 900000 2.7877 13.0101 13.6016 0.0000 -10486.6395 1386.3034 0.0000 0.0000 1760.2811 -7310.6556 301.8105 -9070.9367 -7374.8579 299.4586 -288.2272 -282.0945 30582.3557 -345.8183 -286.3325
ENERGY: 1200000 2.2384 13.3635 10.7727 0.0000 -10681.8568 1447.5980 0.0000 0.0000 1751.8577 -7456.0265 300.3662 -9207.8842 -7391.4625 299.2141 -0.3248 48.8469 29901.8050 -292.2068 -231.5341
ENERGY: 1500000 1.0188 16.8147 11.9963 0.0000 -10526.8993 1432.6339 0.0000 0.0000 1738.9255 -7325.5102 298.1489 -9064.4357 -7383.2376 299.8367 79.9690 183.4969 30212.4383 -212.9605 -152.0814
TCL: Running FEP window  11: Lambda1 0.4999999999999996 Lambda2 0.4499999999999996 [dLambda -0.04999999999999999]
TCL: Setting parameter firsttimestep to 0
TCL: Setting parameter alchLambda to 0.4999999999999996
Info: NONBONDED TABLE R-SQUARED SPACING: 0.0625
Info: NONBONDED TABLE SIZE: 705 POINTS
TCL: Setting parameter alchLambda2 to 0.4499999999999996
Info: NONBONDED TABLE R-SQUARED SPACING: 0.0625
Info: NONBONDED TABLE SIZE: 705 POINTS
TCL: Running for 1500000 steps
ETITLE: TS BOND ANGLE DIHED IMPRP ELECT VDW BOUNDARY MISC KINETIC TOTAL TEMP POTENTIAL TOTALAVG TEMPAVG PRESSURE GPRESSURE VOLUME PRESSAVG GPRESSAVG
ENERGY: 0 1.0188 16.8147 11.9963 0.0000 -10526.9129 1431.9440 0.0000 0.0000 1738.0758 -7327.0634 298.0032 -9065.1392 -7327.0634 298.0032 70.6525 168.6068 30212.4383 70.6525 168.6068
ENERGY: 300000 2.9800 15.8372 13.2545 0.0000 -10661.9535 1460.9004 0.0000 0.0000 1761.8492 -7407.1322 302.0793 -9168.9814 -7374.4259 299.8206 200.6537 335.5346 30022.9842 -3.5110 85.4484
ENERGY: 600000 2.3041 15.9251 10.6058 0.0000 -10476.2837 1341.1100 0.0000 0.0000 1722.9718 -7383.3670 295.4136 -9106.3388 -7381.8232 299.0942 -661.3056 -607.4976 30246.4002 -217.6913 -141.4922
ENERGY: 900000 3.1803 15.3120 10.6261 0.0000 -10639.7868 1450.9469 0.0000 0.0000 1729.2392 -7430.4824 296.4882 -9159.7216 -7402.5488 298.1206 -43.9384 -26.3845 29953.6536 -139.2807 -70.7321
ENERGY: 1200000 3.2471 16.0986 12.6674 0.0000 -10532.5230 1426.1119 0.0000 0.0000 1760.9734 -7313.4245 301.9292 -9074.3979 -7403.0788 297.7242 84.3972 179.0965 30244.6558 -153.7558 -82.2566
ENERGY: 1500000 2.3383 13.8555 11.2212 0.0000 -10514.3004 1413.9823 0.0000 0.0000 1818.6600 -7254.2430 311.8199 -9072.9031 -7384.9844 299.3275 12.4241 48.4752 30167.5197 -131.7666 -62.1109
TCL: Running FEP window  12: Lambda1 0.4499999999999996 Lambda2 0.39999999999999963 [dLambda -0.04999999999999999]
TCL: Setting parameter firsttimestep to 0
TCL: Setting parameter alchLambda to 0.4499999999999996
Info: NONBONDED TABLE R-SQUARED SPACING: 0.0625
Info: NONBONDED TABLE SIZE: 705 POINTS
TCL: Setting parameter alchLambda2 to 0.39999999999999963
Info: NONBONDED TABLE R-SQUARED SPACING: 0.0625
Info: NONBONDED TABLE SIZE: 705 POINTS
TCL: Running for 1500000 steps
ETITLE: TS BOND ANGLE DIHED IMPRP ELECT VDW BOUNDARY MISC KINETIC TOTAL TEMP POTENTIAL TOTALAVG TEMPAVG PRESSURE GPRESSURE VOLUME PRESSAVG GPRESSAVG
ENERGY: 0 2.3383 13.8555 11.2212 0.0000 -10514.3019 1413.5766 0.0000 0.0000 1817.7581 -7255.5521 311.6652 -9073.3103 -7255.5521 311.6652 -42.1706 36.4811 30167.5197 -42.1706 36.4811
ENERGY: 300000 3.6026 17.5540 10.4287 0.0000 -10689.4307 1516.6818 0.0000 0.0000 1768.2045 -7372.9590 303.1690 -9141.1635 -7319.0242 304.3234 1007.7220 1053.3503 29990.4741 153.6413 219.2767
ENERGY: 600000 2.6036 15.1224 12.2435 0.0000 -10510.1507 1428.5652 0.0000 0.0000 1772.0037 -7279.6123 303.8204 -9051.6160 -7319.4588 306.2864 220.8987 268.8988 30167.5818 88.2757 152.9125
ENERGY: 900000 1.2859 11.6870 11.2904 0.0000 -10537.3403 1365.1141 0.0000 0.0000 1750.0884 -7397.8746 300.0629 -9147.9630 -7331.4010 305.4622 -418.8304 -355.6266 29965.3227 63.2358 122.4600
ENERGY: 1200000 2.6684 15.7072 13.4775 0.0000 -10449.1856 1328.0453 0.0000 0.0000 1783.3424 -7305.9447 305.7645 -9089.2872 -7326.1642 304.9018 -733.8597 -634.1833 30211.7281 4.8142 63.2102
ENERGY: 1500000 0.9912 17.1780 13.9317 0.0000 -10520.2233 1358.2693 0.0000 0.0000 1692.5404 -7437.3127 290.1959 -9129.8531 -7344.3088 302.8856 -744.1855 -669.8879 30314.0927 -28.0987 36.8534
TCL: Running FEP window  13: Lambda1 0.39999999999999963 Lambda2 0.34999999999999964 [dLambda -0.04999999999999999]
TCL: Setting parameter firsttimestep to 0
TCL: Setting parameter alchLambda to 0.39999999999999963
Info: NONBONDED TABLE R-SQUARED SPACING: 0.0625
Info: NONBONDED TABLE SIZE: 705 POINTS
TCL: Setting parameter alchLambda2 to 0.34999999999999964
Info: NONBONDED TABLE R-SQUARED SPACING: 0.0625
Info: NONBONDED TABLE SIZE: 705 POINTS
TCL: Running for 1500000 steps
ETITLE: TS BOND ANGLE DIHED IMPRP ELECT VDW BOUNDARY MISC KINETIC TOTAL TEMP POTENTIAL TOTALAVG TEMPAVG PRESSURE GPRESSURE VOLUME PRESSAVG GPRESSAVG
ENERGY: 0 0.9912 17.1780 13.9317 0.0000 -10520.2215 1358.1352 0.0000 0.0000 1691.6454 -7438.3400 290.0425 -9129.9854 -7438.3400 290.0425 -761.7562 -678.1327 30314.0927 -761.7562 -678.1327
ENERGY: 300000 1.4597 12.8110 13.1498 0.0000 -10563.5991 1377.8709 0.0000 0.0000 1741.9806 -7416.3270 298.6727 -9158.3076 -7371.5518 300.1621 -127.4576 -49.4428 29449.2479 -234.9635 -158.3424
ENERGY: 600000 1.9038 18.6215 9.7647 0.0000 -10565.9469 1417.7791 0.0000 0.0000 1747.6261 -7370.2517 299.6407 -9117.8778 -7351.5554 302.8816 -230.0778 -157.5517 30208.1752 -94.4888 -20.9014
ENERGY: 900000 2.1233 13.5701 11.8022 0.0000 -10543.6373 1411.5788 0.0000 0.0000 1749.8741 -7354.6889 300.0261 -9104.5629 -7372.5272 300.8487 6.3898 56.2913 30150.6896 -75.7522 1.1160
ENERGY: 1200000 4.5422 23.4939 12.5213 0.0000 -10593.3825 1414.3470 0.0000 0.0000 1729.2074 -7409.2707 296.4827 -9138.4781 -7378.4877 300.6623 -361.0288 -307.1145 30237.4485 -97.4429 -19.1233
ENERGY: 1500000 3.0932 14.3687 12.2670 0.0000 -10626.4831 1466.3048 0.0000 0.0000 1744.1801 -7386.2693 299.0499 -9130.4494 -7376.5115 300.2562 402.4099 503.2520 29799.3283 -30.2269 46.4711
TCL: Running FEP window  14: Lambda1 0.34999999999999964 Lambda2 0.29999999999999966 [dLambda -0.04999999999999999]
TCL: Setting parameter firsttimestep to 0
TCL: Setting parameter alchLambda to 0.34999999999999964
Info: NONBONDED TABLE R-SQUARED SPACING: 0.0625
Info: NONBONDED TABLE SIZE: 705 POINTS
TCL: Setting parameter alchLambda2 to 0.29999999999999966
Info: NONBONDED TABLE R-SQUARED SPACING: 0.0625
Info: NONBONDED TABLE SIZE: 705 POINTS
TCL: Running for 1500000 steps
ETITLE: TS BOND ANGLE DIHED IMPRP ELECT VDW BOUNDARY MISC KINETIC TOTAL TEMP POTENTIAL TOTALAVG TEMPAVG PRESSURE GPRESSURE VOLUME PRESSAVG GPRESSAVG
ENERGY: 0 3.0932 14.3687 12.2670 0.0000 -10626.4849 1466.5504 0.0000 0.0000 1743.3293 -7386.8763 298.9040 -9130.2056 -7386.8763 298.9040 418.5376 499.7327 29799.3283 418.5376 499.7327
ENERGY: 300000 3.0480 16.4981 13.3488 0.0000 -10452.5935 1345.3237 0.0000 0.0000 1716.1481 -7358.2268 294.2436 -9074.3749 -7369.4525 297.1394 -577.2338 -540.2659 30243.1059 -192.3894 -134.9237
ENERGY: 600000 1.8144 13.5104 13.0804 0.0000 -10561.5085 1385.5255 0.0000 0.0000 1729.7739 -7417.8038 296.5798 -9147.5777 -7383.9056 297.2761 -506.2211 -462.1882 30313.5408 -387.7040 -332.8011
ENERGY: 900000 3.6511 16.8852 14.2099 0.0000 -10571.6362 1446.1091 0.0000 0.0000 1774.1568 -7316.6241 304.1895 -9090.7809 -7371.8183 299.3086 -14.0317 98.4787 30436.1144 -382.9329 -332.2727
ENERGY: 1200000 2.8892 12.4618 11.8940 0.0000 -10631.0095 1417.8092 0.0000 0.0000 1740.3772 -7445.5780 298.3978 -9185.9552 -7381.3189 299.5041 -402.4270 -310.7779 29926.2782 -355.7276 -296.8484
ENERGY: 1500000 3.1307 16.9562 12.9838 0.0000 -10500.8708 1412.9320 0.0000 0.0000 1726.0604 -7328.8078 295.9431 -9054.8682 -7379.8771 299.4206 -32.3994 48.8349 30316.9837 -290.0918 -227.9653
TCL: Running FEP window  15: Lambda1 0.29999999999999966 Lambda2 0.24999999999999967 [dLambda -0.04999999999999999]
TCL: Setting parameter firsttimestep to 0
TCL: Setting parameter alchLambda to 0.29999999999999966
Info: NONBONDED TABLE R-SQUARED SPACING: 0.0625
Info: NONBONDED TABLE SIZE: 705 POINTS
TCL: Setting parameter alchLambda2 to 0.24999999999999967
Info: NONBONDED TABLE R-SQUARED SPACING: 0.0625
Info: NONBONDED TABLE SIZE: 705 POINTS
TCL: Running for 1500000 steps
ETITLE: TS BOND ANGLE DIHED IMPRP ELECT VDW BOUNDARY MISC KINETIC TOTAL TEMP POTENTIAL TOTALAVG TEMPAVG PRESSURE GPRESSURE VOLUME PRESSAVG GPRESSAVG
ENERGY: 0 3.1307 16.9562 12.9838 0.0000 -10500.8716 1413.1940 0.0000 0.0000 1725.1628 -7329.4441 295.7892 -9054.6069 -7329.4441 295.7892 -36.0465 46.0412 30316.9837 -36.0465 46.0412
ENERGY: 300000 3.2725 14.5629 13.1408 0.0000 -10524.8866 1370.4990 0.0000 0.0000 1779.0298 -7344.3815 305.0250 -9123.4113 -7356.7260 302.2057 -414.7460 -286.6431 29726.1233 -217.8132 -111.6260
ENERGY: 600000 3.5698 12.0198 12.8334 0.0000 -10576.7268 1448.1251 0.0000 0.0000 1752.3951 -7347.7836 300.4584 -9100.1787 -7369.8632 302.0160 408.2839 425.4597 30060.0019 -70.9231 12.2400
ENERGY: 900000 2.5907 24.7655 11.0657 0.0000 -10526.1412 1347.3416 0.0000 0.0000 1712.7684 -7427.6093 293.6641 -9140.3777 -7380.1575 300.7182 -990.8860 -875.8928 30637.0490 -188.7674 -109.8625
ENERGY: 1200000 1.8988 15.8211 11.9939 0.0000 -10562.8711 1426.4809 0.0000 0.0000 1721.3822 -7385.2942 295.1410 -9106.6764 -7379.5767 300.0822 271.9004 294.7728 29671.1682 -79.9282 -11.5379
ENERGY: 1500000 4.0751 18.5528 9.8489 0.0000 -10478.8682 1367.0151 0.0000 0.0000 1763.1222 -7316.2540 302.2976 -9079.3763 -7368.5874 299.2405 -583.2754 -509.8578 30263.0632 -91.0064 -29.9363
TCL: Running FEP window  16: Lambda1 0.24999999999999967 Lambda2 0.19999999999999968 [dLambda -0.04999999999999999]
TCL: Setting parameter firsttimestep to 0
TCL: Setting parameter alchLambda to 0.24999999999999967
Info: NONBONDED TABLE R-SQUARED SPACING: 0.0625
Info: NONBONDED TABLE SIZE: 705 POINTS
TCL: Setting parameter alchLambda2 to 0.19999999999999968
Info: NONBONDED TABLE R-SQUARED SPACING: 0.0625
Info: NONBONDED TABLE SIZE: 705 POINTS
TCL: Running for 1500000 steps
ETITLE: TS BOND ANGLE DIHED IMPRP ELECT VDW BOUNDARY MISC KINETIC TOTAL TEMP POTENTIAL TOTALAVG TEMPAVG PRESSURE GPRESSURE VOLUME PRESSAVG GPRESSAVG
ENERGY: 0 4.0751 18.5528 9.8489 0.0000 -10478.8669 1367.2045 0.0000 0.0000 1762.2290 -7316.9566 302.1445 -9079.1856 -7316.9566 302.1445 -599.5842 -511.5657 30263.0632 -599.5842 -511.5657
ENERGY: 300000 0.7413 11.3440 13.5381 0.0000 -10623.4891 1458.9724 0.0000 0.0000 1769.3171 -7369.5762 303.3598 -9138.8933 -7358.0854 299.4367 524.2979 588.2382 29707.9686 -530.7996 -478.9258
ENERGY: 600000 3.0314 15.1382 11.1826 0.0000 -10574.0265 1430.0980 0.0000 0.0000 1747.8034 -7366.7729 299.6711 -9114.5763 -7378.9082 299.2703 100.0467 161.8669 30074.2910 -182.6223 -128.3808
ENERGY: 900000 2.1857 10.9976 14.1914 0.0000 -10508.6935 1362.1634 0.0000 0.0000 1753.5469 -7365.6085 300.6559 -9119.1554 -7384.4700 299.8749 -452.7348 -381.6511 30078.8165 -220.2688 -157.8697
ENERGY: 1200000 1.9686 13.7631 11.5702 0.0000 -10532.1699 1407.0895 0.0000 0.0000 1745.9621 -7351.8165 299.3554 -9097.7785 -7374.4961 300.7591 -463.4632 -383.2155 30713.2157 -239.8770 -181.4799
ENERGY: 1500000 1.5792 24.5669 10.7704 0.0000 -10553.1272 1454.9073 0.0000 0.0000 1691.2978 -7370.0057 289.9829 -9061.3034 -7367.0847 299.9439 285.2098 311.6245 30386.4653 -218.2191 -162.8690
TCL: Running FEP window  17: Lambda1 0.19999999999999968 Lambda2 0.1499999999999997 [dLambda -0.04999999999999999]
TCL: Setting parameter firsttimestep to 0
TCL: Setting parameter alchLambda to 0.19999999999999968
Info: NONBONDED TABLE R-SQUARED SPACING: 0.0625
Info: NONBONDED TABLE SIZE: 705 POINTS
TCL: Setting parameter alchLambda2 to 0.1499999999999997
Info: NONBONDED TABLE R-SQUARED SPACING: 0.0625
Info: NONBONDED TABLE SIZE: 705 POINTS
TCL: Running for 1500000 steps
ETITLE: TS BOND ANGLE DIHED IMPRP ELECT VDW BOUNDARY MISC KINETIC TOTAL TEMP POTENTIAL TOTALAVG TEMPAVG PRESSURE GPRESSURE VOLUME PRESSAVG GPRESSAVG
ENERGY: 0 1.5792 24.5669 10.7704 0.0000 -10553.1271 1454.8789 0.0000 0.0000 1690.4701 -7370.8616 289.8410 -9061.3317 -7370.8616 289.8410 224.2037 306.8813 30386.4653 224.2037 306.8813
ENERGY: 300000 4.1878 14.2021 12.0017 0.0000 -10500.6577 1440.4476 0.0000 0.0000 1737.5894 -7292.2290 297.9199 -9029.8184 -7351.7939 295.5088 350.5461 387.5491 30254.1581 157.1715 231.1120
ENERGY: 600000 2.6421 19.6591 10.4555 0.0000 -10644.3409 1522.9760 0.0000 0.0000 1751.8715 -7336.7368 300.3686 -9088.6083 -7371.6941 296.3467 761.2604 850.7116 29913.8206 169.6301 232.0138
ENERGY: 900000 1.2909 20.4697 12.0397 0.0000 -10471.4981 1392.0002 0.0000 0.0000 1755.4814 -7290.2162 300.9875 -9045.6976 -7364.8071 297.7091 -109.3682 31.3696 29904.9725 154.5010 225.6915
ENERGY: 1200000 1.3848 16.1309 10.5278 0.0000 -10617.3516 1507.8522 0.0000 0.0000 1719.1367 -7362.3192 294.7560 -9081.4560 -7369.6770 298.3444 847.3743 947.7393 29703.3013 217.6805 290.2158
ENERGY: 1500000 6.5279 16.6745 12.1212 0.0000 -10647.8661 1468.6696 0.0000 0.0000 1764.7296 -7379.1433 302.5732 -9143.8729 -7368.1463 299.1684 2.4227 35.4726 30290.0103 157.7897 226.2326
TCL: Running FEP window  18: Lambda1 0.1499999999999997 Lambda2 0.09999999999999969 [dLambda -0.05 ]
TCL: Setting parameter firsttimestep to 0
TCL: Setting parameter alchLambda to 0.1499999999999997
Info: NONBONDED TABLE R-SQUARED SPACING: 0.0625
Info: NONBONDED TABLE SIZE: 705 POINTS
TCL: Setting parameter alchLambda2 to 0.09999999999999969
Info: NONBONDED TABLE R-SQUARED SPACING: 0.0625
Info: NONBONDED TABLE SIZE: 705 POINTS
TCL: Running for 1500000 steps
ETITLE: TS BOND ANGLE DIHED IMPRP ELECT VDW BOUNDARY MISC KINETIC TOTAL TEMP POTENTIAL TOTALAVG TEMPAVG PRESSURE GPRESSURE VOLUME PRESSAVG GPRESSAVG
ENERGY: 0 6.5279 16.6745 12.1212 0.0000 -10647.8662 1469.2602 0.0000 0.0000 1763.8972 -7379.3852 302.4305 -9143.2825 -7379.3852 302.4305 -47.8495 33.1281 30290.0103 -47.8495 33.1281
ENERGY: 300000 1.0613 15.0436 10.5944 0.0000 -10570.4856 1544.3926 0.0000 0.0000 1748.6577 -7250.7360 299.8176 -8999.3937 -7340.0814 299.5567 1301.7687 1395.7936 30196.1498 321.8799 383.1996
ENERGY: 600000 0.8060 18.0368 13.4135 0.0000 -10503.6108 1369.4009 0.0000 0.0000 1769.1610 -7332.7926 303.3330 -9101.9536 -7352.3973 300.5491 -367.8754 -292.9732 30094.0836 124.4230 179.5178
ENERGY: 900000 0.4408 14.8752 16.1361 0.0000 -10637.5149 1479.0736 0.0000 0.0000 1762.6332 -7364.3561 302.2138 -9126.9893 -7356.7081 301.0653 365.5916 408.8150 29949.3641 -24.8863 35.5266
ENERGY: 1200000 4.5613 11.8448 11.6653 0.0000 -10609.6427 1451.6146 0.0000 0.0000 1752.0200 -7377.9367 300.3941 -9129.9567 -7363.1318 301.2687 -113.2278 -42.3587 30374.2363 -5.2681 63.9239
ENERGY: 1500000 2.4320 15.1519 13.5095 0.0000 -10480.8150 1303.0261 0.0000 0.0000 1755.8895 -7390.8059 301.0575 -9146.6954 -7361.1475 300.6493 -795.1583 -784.7257 30155.2769 34.1507 98.9727
TCL: Running FEP window  19: Lambda1 0.09999999999999969 Lambda2 0.049999999999999684 [dLambda -0.05 ]
TCL: Setting parameter firsttimestep to 0
TCL: Setting parameter alchLambda to 0.09999999999999969
Info: NONBONDED TABLE R-SQUARED SPACING: 0.0625
Info: NONBONDED TABLE SIZE: 705 POINTS
TCL: Setting parameter alchLambda2 to 0.049999999999999684
Info: NONBONDED TABLE R-SQUARED SPACING: 0.0625
Info: NONBONDED TABLE SIZE: 705 POINTS
TCL: Running for 1500000 steps
ETITLE: TS BOND ANGLE DIHED IMPRP ELECT VDW BOUNDARY MISC KINETIC TOTAL TEMP POTENTIAL TOTALAVG TEMPAVG PRESSURE GPRESSURE VOLUME PRESSAVG GPRESSAVG
ENERGY: 0 2.4320 15.1519 13.5095 0.0000 -10480.8139 1303.3517 0.0000 0.0000 1755.0029 -7391.3658 300.9055 -9146.3687 -7391.3658 300.9055 -860.0295 -788.3056 30155.2769 -860.0295 -788.3056
ENERGY: 300000 2.1934 10.9733 12.7639 0.0000 -10551.0179 1402.3445 0.0000 0.0000 1690.8319 -7431.9110 289.9030 -9122.7429 -7371.7443 296.7736 -431.0128 -326.4620 29995.1374 19.5099 94.7400
ENERGY: 600000 2.0572 12.1069 12.4023 0.0000 -10429.7365 1359.9925 0.0000 0.0000 1781.0831 -7262.0943 305.3771 -9043.1775 -7350.3824 299.3514 -426.9820 -399.3556 30334.9641 -11.9601 45.2441
ENERGY: 900000 1.1835 16.2356 11.8470 0.0000 -10556.7995 1432.3334 0.0000 0.0000 1793.1753 -7302.0247 307.4504 -9095.1999 -7352.8633 301.1449 118.5772 165.8556 30272.3686 36.8834 92.7148
ENERGY: 1200000 2.5082 17.0004 11.8958 0.0000 -10585.2758 1393.0923 0.0000 0.0000 1750.2912 -7410.4879 300.0976 -9160.7790 -7362.9862 300.2389 -563.5031 -488.1552 30256.3602 -73.0594 -10.3884
ENERGY: 1500000 2.0263 13.4529 13.9427 0.0000 -10541.6922 1400.4463 0.0000 0.0000 1793.0488 -7318.7752 307.4287 -9111.8240 -7362.7292 300.6954 -258.0239 -197.5794 30101.2434 -17.9109 50.3335
TCL: Running FEP window  20: Lambda1 0.049999999999999684 Lambda2 0.0    [dLambda -0.049999999999999684]
TCL: Setting parameter firsttimestep to 0
TCL: Setting parameter alchLambda to 0.049999999999999684
Info: NONBONDED TABLE R-SQUARED SPACING: 0.0625
Info: NONBONDED TABLE SIZE: 705 POINTS
TCL: Setting parameter alchLambda2 to 0.0
Info: NONBONDED TABLE R-SQUARED SPACING: 0.0625
Info: NONBONDED TABLE SIZE: 705 POINTS
TCL: Running for 1500000 steps
ETITLE: TS BOND ANGLE DIHED IMPRP ELECT VDW BOUNDARY MISC KINETIC TOTAL TEMP POTENTIAL TOTALAVG TEMPAVG PRESSURE GPRESSURE VOLUME PRESSAVG GPRESSAVG
ENERGY: 0 2.0263 13.4529 13.9427 0.0000 -10541.6913 1399.4003 0.0000 0.0000 1792.1817 -7320.6874 307.2800 -9112.8691 -7320.6874 307.2800 -293.1918 -202.9417 30101.2434 -293.1918 -202.9417
ENERGY: 300000 0.7232 16.1557 14.8991 0.0000 -10654.6588 1448.8817 0.0000 0.0000 1783.4437 -7390.5553 305.7818 -9173.9990 -7404.2662 301.5925 409.0484 429.6723 29374.3975 -231.4371 -174.2844
ENERGY: 600000 2.2001 12.1526 12.6841 0.0000 -10565.4153 1345.5116 0.0000 0.0000 1748.0517 -7444.8152 299.7137 -9192.8669 -7382.1474 302.0489 -731.1790 -746.4934 29599.8758 -177.9448 -141.7853
ENERGY: 900000 2.0546 17.8466 13.1366 0.0000 -10517.2713 1430.2327 0.0000 0.0000 1708.7565 -7345.2443 292.9763 -9054.0007 -7380.1668 299.6021 271.7163 267.7392 29790.2784 -230.7193 -194.7336
ENERGY: 1200000 3.6172 16.3448 11.4289 0.0000 -10482.2043 1378.1073 0.0000 0.0000 1773.0893 -7299.6167 304.0065 -9072.7061 -7376.6454 298.7133 -348.1489 -285.0414 30129.7615 -254.6646 -211.4845
ENERGY: 1500000 0.5581 20.7584 11.3356 0.0000 -10528.5021 1402.5732 0.0000 0.0000 1747.0879 -7346.1889 299.5484 -9093.2768 -7375.3595 298.2780 61.8191 114.0916 29631.2940 -323.5876 -284.3411
TCL: Exiting due to exit command.
