Info: SIMULATION PARAMETERS:
Info: TIMESTEP               2
Info: NUMBER OF STEPS        0
Info: STEPS PER CYCLE        10
Info: PERIODIC CELL BASIS 1  30.6742 0 0
Info: PERIODIC CELL BASIS 2  0 33.1379 0
Info: PERIODIC CELL BASIS 3  0 0 29.701
Info: PERIODIC CELL CENTER   0 0 0
Info: WRAPPING WATERS AROUND PERIODIC BOUNDARIES ON OUTPUT.
Info: WRAPPING ALL CLUSTERS AROUND PERIODIC BOUNDARIES ON OUTPUT.
Info: FIRST LDB TIMESTEP     50
Info: LAST LDB TIMESTEP     -1
Info: HOM BACKGROUND SCALING 1
Info: PME BACKGROUND SCALING 1
Info: MIN ATOMS PER PATCH    40
Info: EMPTY PATCH LOAD       40 ATOMS
Info: VELOCITY FILE          mobley_6497672_equil.vel
Info: CENTER OF MASS MOVING INITIALLY? NO
Info: DIELECTRIC             1
Info: EXCLUDE                SCALED ONE-FOUR
Info: 1-4 ELECTROSTATICS SCALED BY 0.833333
Info: MODIFIED 1-4 VDW PARAMETERS WILL BE USED
Info: DCD FILENAME           mobley_6497672_prod.dcd
Info: DCD FREQUENCY          100000
Info: DCD FIRST STEP         100000
Info: DCD FILE WILL CONTAIN UNIT CELL DATA
Info: XST FILENAME           mobley_6497672_prod.xst
Info: XST FREQUENCY          100000
Info: NO VELOCITY DCD OUTPUT
Info: NO FORCE DCD OUTPUT
Info: OUTPUT FILENAME        mobley_6497672_prod
Info: BINARY OUTPUT FILES WILL BE USED
Info: RESTART FILENAME       mobley_6497672_prod.restart
Info: RESTART FREQUENCY      100000
Info: BINARY RESTART FILES WILL BE USED
Info: CUTOFF                 9
Info: PAIRLIST DISTANCE      11
Info: PAIRLIST SHRINK RATE   0.01
Info: PAIRLIST GROW RATE     0.01
Info: PAIRLIST TRIGGER       0.3
Info: PAIRLISTS PER CYCLE    2
Info: PAIRLISTS ENABLED
Info: MARGIN                 2
Info: HYDROGEN GROUP CUTOFF  2.5
Info: PATCH DIMENSION        15.5
Info: ENERGY OUTPUT STEPS    100000
Info: ENERGY EVALUATION STEPS    100000
Info: OUTPUT ENERGY PRECISION 4
Info: CROSSTERM ENERGY INCLUDED IN DIHEDRAL
Info: TIMING OUTPUT STEPS    1000000
Info: PRESSURE OUTPUT STEPS  100000
Info: ALCHEMICAL FEP ON
Info: FEP CURRENT LAMBDA VALUE     1
Info: FEP COMPARISON LAMBDA VALUE  0.95
Info: FEP INTRA-ALCHEMICAL NON-BONDED INTERACTIONS WILL BE RETAINED
Info: FEP INTRA-ALCHEMICAL BONDED INTERACTIONS WILL BE RETAINED
Info: FEP VDW SHIFTING COEFFICIENT 5
Info: FEP ELEC. ACTIVE FOR ANNIHILATED PARTICLES BETWEEN LAMBDA = 0 AND LAMBDA = 0.5
Info: FEP ELEC. ACTIVE FOR EXNIHILATED PARTICLES BETWEEN LAMBDA = 0.5 AND LAMBDA = 1
Info: FEP VDW ACTIVE FOR ANNIHILATED PARTICLES BETWEEN LAMBDA = 0 AND LAMBDA = 1
Info: FEP VDW ACTIVE FOR EXNIHILATED PARTICLES BETWEEN LAMBDA = 0 AND LAMBDA = 1
Info: FEP BOND ACTIVE FOR ANNIHILATED PARTICLES BETWEEN LAMBDA = 1 AND LAMBDA = 1
Info: FEP BOND ACTIVE FOR EXNIHILATED PARTICLES BETWEEN LAMBDA = 0 AND LAMBDA = 0
Info: LANGEVIN DYNAMICS ACTIVE
Info: LANGEVIN TEMPERATURE   300
Info: LANGEVIN USING BBK INTEGRATOR
Info: LANGEVIN DAMPING COEFFICIENT IS 1 INVERSE PS
Info: LANGEVIN DYNAMICS APPLIED TO HYDROGENS
Info: LANGEVIN PISTON PRESSURE CONTROL ACTIVE
Info:        TARGET PRESSURE IS 1.01325 BAR
Info:     OSCILLATION PERIOD IS 50 FS
Info:             DECAY TIME IS 25 FS
Info:     PISTON TEMPERATURE IS 300 K
Info:       PRESSURE CONTROL IS GROUP-BASED
Info:    INITIAL STRAIN RATE IS 0.000295368 0.000295368 0.000295368
Info:       CELL FLUCTUATION IS ISOTROPIC
Info: PARTICLE MESH EWALD (PME) ACTIVE
Info: PME TOLERANCE               1e-06
Info: PME EWALD COEFFICIENT       0.348832
Info: PME INTERPOLATION ORDER     4
Info: PME GRID DIMENSIONS         32 36 32
Info: PME MAXIMUM GRID SPACING    1
Info: PME CALCULATION WILL BE PERFORMED ON GPU
Info: FULL ELECTROSTATIC EVALUATION FREQUENCY      2
Info: USING VERLET I (r-RESPA) MTS SCHEME.
Info: C1 SPLITTING OF LONG RANGE ELECTROSTATICS
Info: PLACING ATOMS IN PATCHES BY HYDROGEN GROUPS
Info: RIGID BONDS TO HYDROGEN : ALL
Info:         ERROR TOLERANCE : 1e-08
Info:          MAX ITERATIONS : 100
Info: RIGID WATER USING SETTLE ALGORITHM
Info: RANDOM NUMBER SEED     1743681395
Info: USE HYDROGEN BONDS?    NO
Info: Using AMBER format force field!
Info: AMBER PARM FILE        mobley_6497672.prmtop
Info: COORDINATE PDB         mobley_6497672.pdb
Info: Exclusions will be read from PARM file!
Info: SCNB (VDW SCALING)     2
Info: USING ARITHMETIC MEAN TO COMBINE L-J SIGMA PARAMETERS
Info: BINARY COORDINATES     mobley_6497672_equil.coor
Info: SUMMARY OF PARAMETERS:
Info: 10 BONDS
Info: 11 ANGLES
Info:   11 HARMONIC
Info:   0 COSINE-BASED
Info: 5 DIHEDRAL
Info: 0 IMPROPER
Info: 0 CROSSTERM
Info: 0 VDW
Info: 36 VDW_PAIRS
Info: 0 NBTHOLE_PAIRS
Info: To read alchdata from file: mobley_6497672.pdb
Info: To read alchflag data from column: 5
Info: STRUCTURE SUMMARY:
Info: 2915 ATOMS
Info: 2914 BONDS
Info: 15 ANGLES
Info: 17 DIHEDRALS
Info: 0 IMPROPERS
Info: 0 CROSSTERMS
Info: 2943 EXCLUSIONS
Info: 2910 RIGID BONDS
Info: ALCH: 0 ATOMS TO DISAPPEAR IN FINAL STATE
Info: ALCH: 11 ATOMS TO APPEAR IN FINAL STATE
Info: 5835 DEGREES OF FREEDOM
Info: 973 HYDROGEN GROUPS
Info: 4 ATOMS IN LARGEST HYDROGEN GROUP
Info: 973 MIGRATION GROUPS
Info: 4 ATOMS IN LARGEST MIGRATION GROUP
Info: TOTAL MASS = 17509.6 amu
Info: TOTAL CHARGE = 3.72529e-08 e
Info: MASS DENSITY = 0.963088 g/cm^3
Info: ATOM DENSITY = 0.0965539 atoms/A^3
Info: ADDED 0 IMPLICIT EXCLUSIONS
Info: NONBONDED TABLE R-SQUARED SPACING: 0.0625
Info: NONBONDED TABLE SIZE: 705 POINTS
Info: REMOVING COM VELOCITY 0.0969317 -0.0888436 0.0660168
Info: Use 3D box decompostion in PME FFT.
Info: Updated CUDA force table with 4096 elements.
Info: Updated CUDA LJ table with 8 x 8 elements.
Info: Found 12 unique exclusion lists needing 20 bytes
TCL: Running for 1500000 steps
ETITLE: TS BOND ANGLE DIHED IMPRP ELECT VDW BOUNDARY MISC KINETIC TOTAL TEMP POTENTIAL TOTALAVG TEMPAVG PRESSURE GPRESSURE VOLUME PRESSAVG GPRESSAVG
ENERGY: 0 0.2120 2.4746 0.8365 0.0000 -10401.4517 1335.8445 0.0000 0.0000 1720.5019 -7341.5820 296.7595 -9062.0840 -7341.5820 296.7595 -418.9902 -340.7007 30190.3900 -418.9902 -340.7007
ENERGY: 300000 1.3464 3.9956 0.7787 0.0000 -10480.8600 1363.8413 0.0000 0.0000 1732.5405 -7378.3576 298.8360 -9110.8980 -7382.7889 301.4618 -337.0810 -238.6661 30247.3380 -167.4266 -102.3439
ENERGY: 600000 1.3026 2.4881 2.5883 0.0000 -10468.2293 1358.8312 0.0000 0.0000 1735.3944 -7367.6247 299.3283 -9103.0192 -7388.9782 300.4146 -484.3645 -425.5317 30314.9879 -185.5190 -120.6746
ENERGY: 900000 1.6240 2.2673 1.9497 0.0000 -10562.0532 1436.8727 0.0000 0.0000 1751.7091 -7367.6303 302.1423 -9119.3394 -7391.5761 300.3989 196.8737 212.2145 30355.5315 -144.8675 -89.7016
ENERGY: 1200000 2.1383 2.8968 0.8170 0.0000 -10639.0542 1476.0163 0.0000 0.0000 1687.8256 -7469.3601 291.1234 -9157.1857 -7388.9655 300.6389 493.3628 516.2864 29985.6142 -118.3720 -73.3292
ENERGY: 1500000 1.4986 3.4457 1.9537 0.0000 -10696.7785 1477.7656 0.0000 0.0000 1745.7262 -7466.3887 301.1103 -9212.1149 -7398.0532 300.1029 330.5478 415.9057 29969.9134 -104.5601 -52.7144
TCL: Running FEP window   2: Lambda1 0.95   Lambda2 0.8999999999999999 [dLambda -0.050000000000000044]
TCL: Setting parameter firsttimestep to 0
TCL: Setting parameter alchLambda to 0.95
Info: NONBONDED TABLE R-SQUARED SPACING: 0.0625
Info: NONBONDED TABLE SIZE: 705 POINTS
TCL: Setting parameter alchLambda2 to 0.8999999999999999
Info: NONBONDED TABLE R-SQUARED SPACING: 0.0625
Info: NONBONDED TABLE SIZE: 705 POINTS
TCL: Running for 1500000 steps
ETITLE: TS BOND ANGLE DIHED IMPRP ELECT VDW BOUNDARY MISC KINETIC TOTAL TEMP POTENTIAL TOTALAVG TEMPAVG PRESSURE GPRESSURE VOLUME PRESSAVG GPRESSAVG
ENERGY: 0 1.4986 3.4457 1.9537 0.0000 -10695.5008 1478.0282 0.0000 0.0000 1744.8733 -7465.7014 300.9632 -9210.5747 -7465.7014 300.9632 337.9544 413.5481 29969.9134 337.9544 413.5481
ENERGY: 300000 1.2387 5.1587 3.8165 0.0000 -10618.9618 1440.7494 0.0000 0.0000 1758.8084 -7409.1902 303.3668 -9167.9986 -7393.1130 301.9985 156.3889 259.6979 29834.7581 204.4148 268.8624
ENERGY: 600000 4.5959 4.6625 0.3598 0.0000 -10428.7058 1343.9301 0.0000 0.0000 1723.3461 -7351.8115 297.2501 -9075.1577 -7393.5756 300.3493 -651.5131 -568.4469 30382.9122 -9.4859 58.4642
ENERGY: 900000 0.4319 6.6412 2.4726 0.0000 -10637.4825 1496.6057 0.0000 0.0000 1706.4638 -7424.8674 294.3382 -9131.3311 -7392.5603 299.9687 713.2377 679.8809 29972.6541 -32.5284 25.0061
ENERGY: 1200000 0.2192 2.6056 0.7852 0.0000 -10675.4971 1443.5789 0.0000 0.0000 1741.7546 -7486.5537 300.4253 -9228.3082 -7409.4803 299.4097 140.2809 170.8059 29808.3000 29.0487 80.8185
ENERGY: 1500000 1.3354 5.3282 2.8078 0.0000 -10438.0635 1314.4658 0.0000 0.0000 1730.3749 -7383.7515 298.4625 -9114.1263 -7416.2047 299.0734 -876.7716 -761.6420 30148.4964 -73.7512 -8.0762
TCL: Running FEP window   3: Lambda1 0.8999999999999999 Lambda2 0.8499999999999999 [dLambda -0.050000000000000044]
TCL: Setting parameter firsttimestep to 0
TCL: Setting parameter alchLambda to 0.8999999999999999
Info: NONBONDED TABLE R-SQUARED SPACING: 0.0625
Info: NONBONDED TABLE SIZE: 705 POINTS
TCL: Setting parameter alchLambda2 to 0.8499999999999999
Info: NONBONDED TABLE R-SQUARED SPACING: 0.0625
Info: NONBONDED TABLE SIZE: 705 POINTS
TCL: Running for 1500000 steps
ETITLE: TS BOND ANGLE DIHED IMPRP ELECT VDW BOUNDARY MISC KINETIC TOTAL TEMP POTENTIAL TOTALAVG TEMPAVG PRESSURE GPRESSURE VOLUME PRESSAVG GPRESSAVG
ENERGY: 0 1.3354 5.3282 2.8078 0.0000 -10436.8211 1314.5010 0.0000 0.0000 1729.5437 -7383.3051 298.3191 -9112.8488 -7383.3051 298.3191 -858.4536 -767.1077 30148.4964 -858.4536 -767.1077
ENERGY: 300000 1.1836 5.8458 1.5639 0.0000 -10664.2849 1486.6951 0.0000 0.0000 1757.8471 -7411.1495 303.2010 -9168.9966 -7423.7201 301.0071 413.2536 483.0913 30150.1967 -27.4810 53.7126
ENERGY: 600000 1.1949 2.8517 1.5260 0.0000 -10537.7706 1410.8963 0.0000 0.0000 1766.1160 -7355.1856 304.6273 -9121.3016 -7404.7830 301.4938 37.1240 73.0818 30097.5809 113.6140 186.2821
ENERGY: 900000 0.6373 4.3047 3.7862 0.0000 -10511.1296 1407.7163 0.0000 0.0000 1718.5710 -7376.1141 296.4265 -9094.6851 -7409.3107 300.5816 66.4930 66.7281 30062.3334 63.8828 124.7242
ENERGY: 1200000 0.5139 2.0971 1.0381 0.0000 -10525.7120 1386.0444 0.0000 0.0000 1736.1194 -7399.8991 299.4533 -9136.0184 -7402.5619 300.0905 -373.5831 -230.6027 30321.2784 -19.3891 51.0097
ENERGY: 1500000 0.5293 4.2970 2.0225 0.0000 -10620.4125 1438.6570 0.0000 0.0000 1708.0477 -7466.8589 294.6114 -9174.9066 -7410.1494 299.6173 320.3094 379.5764 29523.1708 -29.5763 35.4234
TCL: Running FEP window   4: Lambda1 0.8499999999999999 Lambda2 0.7999999999999998 [dLambda -0.050000000000000044]
TCL: Setting parameter firsttimestep to 0
TCL: Setting parameter alchLambda to 0.8499999999999999
Info: NONBONDED TABLE R-SQUARED SPACING: 0.0625
Info: NONBONDED TABLE SIZE: 705 POINTS
TCL: Setting parameter alchLambda2 to 0.7999999999999998
Info: NONBONDED TABLE R-SQUARED SPACING: 0.0625
Info: NONBONDED TABLE SIZE: 705 POINTS
TCL: Running for 1500000 steps
ETITLE: TS BOND ANGLE DIHED IMPRP ELECT VDW BOUNDARY MISC KINETIC TOTAL TEMP POTENTIAL TOTALAVG TEMPAVG PRESSURE GPRESSURE VOLUME PRESSAVG GPRESSAVG
ENERGY: 0 0.5293 4.2970 2.0225 0.0000 -10619.3038 1438.3903 0.0000 0.0000 1707.1749 -7466.8898 294.4608 -9174.0647 -7466.8898 294.4608 284.5132 371.4335 29523.1708 284.5132 371.4335
ENERGY: 300000 2.4601 2.2726 1.1099 0.0000 -10429.3826 1325.0507 0.0000 0.0000 1720.4531 -7378.0362 296.7511 -9098.4893 -7384.7569 300.5145 -719.2772 -692.4418 30310.5178 41.1792 118.1427
ENERGY: 600000 2.1557 3.5513 2.8027 0.0000 -10428.0367 1350.0301 0.0000 0.0000 1752.4937 -7317.0030 302.2776 -9069.4968 -7374.4322 301.4005 -578.5944 -551.2187 30547.8733 -22.8494 39.7391
ENERGY: 900000 3.3960 2.4894 2.7759 0.0000 -10627.2324 1482.7512 0.0000 0.0000 1784.9083 -7350.9116 307.8686 -9135.8199 -7371.7898 303.2785 557.9926 653.9381 29908.0176 52.0871 128.0842
ENERGY: 1200000 0.9893 3.1862 1.3935 0.0000 -10572.5125 1426.9234 0.0000 0.0000 1740.8220 -7399.1981 300.2644 -9140.0201 -7380.6002 302.6544 40.3232 114.2013 30169.4320 -21.3375 48.0792
ENERGY: 1500000 0.8415 7.6112 1.7243 0.0000 -10575.6641 1422.1163 0.0000 0.0000 1718.0635 -7425.3072 296.3390 -9143.3707 -7382.3661 302.9529 -3.6780 28.3741 30144.5981 40.2422 102.2715
TCL: Running FEP window   5: Lambda1 0.7999999999999998 Lambda2 0.7499999999999998 [dLambda -0.050000000000000044]
TCL: Setting parameter firsttimestep to 0
TCL: Setting parameter alchLambda to 0.7999999999999998
Info: NONBONDED TABLE R-SQUARED SPACING: 0.0625
Info: NONBONDED TABLE SIZE: 705 POINTS
TCL: Setting parameter alchLambda2 to 0.7499999999999998
Info: NONBONDED TABLE R-SQUARED SPACING: 0.0625
Info: NONBONDED TABLE SIZE: 705 POINTS
TCL: Running for 1500000 steps
ETITLE: TS BOND ANGLE DIHED IMPRP ELECT VDW BOUNDARY MISC KINETIC TOTAL TEMP POTENTIAL TOTALAVG TEMPAVG PRESSURE GPRESSURE VOLUME PRESSAVG GPRESSAVG
ENERGY: 0 0.8415 7.6112 1.7243 0.0000 -10575.1344 1421.9489 0.0000 0.0000 1717.1987 -7425.8096 296.1898 -9143.0084 -7425.8096 296.1898 -58.7183 19.9702 30144.5981 -58.7183 19.9702
ENERGY: 300000 0.1156 2.7329 0.8550 0.0000 -10440.6502 1286.7434 0.0000 0.0000 1711.8387 -7438.3647 295.2653 -9150.2033 -7450.6143 294.7471 -1084.9578 -1012.1992 30058.7649 -136.7711 -80.7225
ENERGY: 600000 0.2656 2.9482 1.5833 0.0000 -10562.8397 1458.6466 0.0000 0.0000 1692.0220 -7407.3739 291.8472 -9099.3960 -7416.0312 296.7290 355.7783 411.6116 29934.1789 -65.0939 -14.2182
ENERGY: 900000 0.4415 2.5238 0.2661 0.0000 -10486.6265 1408.3224 0.0000 0.0000 1799.6989 -7275.3737 310.4198 -9075.0726 -7398.0287 298.8378 -21.9136 38.0942 30509.4229 -58.7625 -8.6280
ENERGY: 1200000 4.7971 4.5524 1.7718 0.0000 -10376.8812 1304.7307 0.0000 0.0000 1663.7909 -7397.2383 286.9778 -9061.0292 -7397.2780 297.4867 -860.6589 -759.8663 29952.6634 -129.2714 -75.7762
ENERGY: 1500000 2.0433 1.1230 0.2833 0.0000 -10560.6137 1362.0217 0.0000 0.0000 1776.4300 -7418.7124 306.4063 -9195.1424 -7402.9021 298.2138 -370.6130 -369.2963 29657.8474 -180.2794 -126.1884
TCL: Running FEP window   6: Lambda1 0.7499999999999998 Lambda2 0.6999999999999997 [dLambda -0.050000000000000044]
TCL: Setting parameter firsttimestep to 0
TCL: Setting parameter alchLambda to 0.7499999999999998
Info: NONBONDED TABLE R-SQUARED SPACING: 0.0625
Info: NONBONDED TABLE SIZE: 705 POINTS
TCL: Setting parameter alchLambda2 to 0.6999999999999997
Info: NONBONDED TABLE R-SQUARED SPACING: 0.0625
Info: NONBONDED TABLE SIZE: 705 POINTS
TCL: Running for 1500000 steps
ETITLE: TS BOND ANGLE DIHED IMPRP ELECT VDW BOUNDARY MISC KINETIC TOTAL TEMP POTENTIAL TOTALAVG TEMPAVG PRESSURE GPRESSURE VOLUME PRESSAVG GPRESSAVG
ENERGY: 0 2.0433 1.1230 0.2833 0.0000 -10559.8508 1361.8683 0.0000 0.0000 1775.5933 -7418.9395 306.2619 -9194.5328 -7418.9395 306.2619 -454.5789 -374.8532 29657.8474 -454.5789 -374.8532
ENERGY: 300000 1.2523 4.2566 0.2886 0.0000 -10586.6733 1357.1312 0.0000 0.0000 1761.3347 -7462.4099 303.8025 -9223.7445 -7417.5372 301.9691 -648.3929 -617.5653 29906.6706 -320.6159 -291.6864
ENERGY: 600000 1.4959 3.0323 3.7936 0.0000 -10520.3782 1413.2597 0.0000 0.0000 1731.7273 -7367.0693 298.6957 -9098.7966 -7411.6185 299.5625 71.8900 172.2008 29799.5875 -76.0855 -32.2595
ENERGY: 900000 1.6234 4.0867 2.1181 0.0000 -10651.8024 1457.3052 0.0000 0.0000 1735.7553 -7450.9138 299.3905 -9186.6690 -7416.9206 298.5763 270.2353 306.3460 29921.4833 94.0902 145.4743
ENERGY: 1200000 2.3055 3.2781 0.7393 0.0000 -10549.7210 1375.7107 0.0000 0.0000 1766.7046 -7400.9828 304.7288 -9167.6874 -7417.2693 299.1701 -529.0117 -513.8885 30047.8566 116.2367 164.6471
ENERGY: 1500000 0.6360 2.4658 2.3418 0.0000 -10678.3246 1490.6646 0.0000 0.0000 1712.7282 -7469.4881 295.4187 -9182.2163 -7417.2209 299.5123 514.3231 615.3273 29768.2735 194.5406 252.2423
TCL: Running FEP window   7: Lambda1 0.6999999999999997 Lambda2 0.6499999999999997 [dLambda -0.050000000000000044]
TCL: Setting parameter firsttimestep to 0
TCL: Setting parameter alchLambda to 0.6999999999999997
Info: NONBONDED TABLE R-SQUARED SPACING: 0.0625
Info: NONBONDED TABLE SIZE: 705 POINTS
TCL: Setting parameter alchLambda2 to 0.6499999999999997
Info: NONBONDED TABLE R-SQUARED SPACING: 0.0625
Info: NONBONDED TABLE SIZE: 705 POINTS
TCL: Running for 1500000 steps
ETITLE: TS BOND ANGLE DIHED IMPRP ELECT VDW BOUNDARY MISC KINETIC TOTAL TEMP POTENTIAL TOTALAVG TEMPAVG PRESSURE GPRESSURE VOLUME PRESSAVG GPRESSAVG
ENERGY: 0 0.6360 2.4658 2.3418 0.0000 -10676.9387 1489.4127 0.0000 0.0000 1711.8567 -7470.2256 295.2684 -9182.0823 -7470.2256 295.2684 502.7769 603.3214 29768.2735 502.7769 603.3214
ENERGY: 300000 0.3826 4.6722 0.7842 0.0000 -10631.7608 1433.1984 0.0000 0.0000 1778.2908 -7414.4325 306.7272 -9192.7233 -7427.0923 298.2076 -39.0506 96.1465 29918.2689 -81.3201 35.9858
ENERGY: 600000 0.7030 5.3962 1.3416 0.0000 -10579.6899 1415.9632 0.0000 0.0000 1690.8281 -7465.4578 291.6413 -9156.2859 -7418.9093 298.5126 78.6277 92.5402 29641.4284 -18.9763 48.9409
ENERGY: 900000 1.3856 2.9531 1.5568 0.0000 -10710.8599 1494.9019 0.0000 0.0000 1716.3785 -7493.6839 296.0483 -9210.0625 -7417.4419 298.2634 340.1483 365.3174 29972.0709 -7.7098 53.6286
ENERGY: 1200000 1.6202 2.1623 2.8448 0.0000 -10676.0001 1438.3590 0.0000 0.0000 1782.6893 -7448.3246 307.4859 -9231.0139 -7406.1509 298.8929 22.6575 44.9018 29863.4638 -66.2208 -8.0322
ENERGY: 1500000 1.7755 1.5096 0.8717 0.0000 -10585.9761 1439.6591 0.0000 0.0000 1746.6656 -7395.4945 301.2724 -9142.1601 -7409.1013 299.2710 246.7831 269.2603 29973.1949 -52.8725 -1.1243
TCL: Running FEP window   8: Lambda1 0.6499999999999997 Lambda2 0.5999999999999996 [dLambda -0.050000000000000044]
TCL: Setting parameter firsttimestep to 0
TCL: Setting parameter alchLambda to 0.6499999999999997
Info: NONBONDED TABLE R-SQUARED SPACING: 0.0625
Info: NONBONDED TABLE SIZE: 705 POINTS
TCL: Setting parameter alchLambda2 to 0.5999999999999996
Info: NONBONDED TABLE R-SQUARED SPACING: 0.0625
Info: NONBONDED TABLE SIZE: 705 POINTS
TCL: Running for 1500000 steps
ETITLE: TS BOND ANGLE DIHED IMPRP ELECT VDW BOUNDARY MISC KINETIC TOTAL TEMP POTENTIAL TOTALAVG TEMPAVG PRESSURE GPRESSURE VOLUME PRESSAVG GPRESSAVG
ENERGY: 0 1.7755 1.5096 0.8717 0.0000 -10585.2033 1439.8681 0.0000 0.0000 1745.8189 -7395.3595 301.1263 -9141.1784 -7395.3595 301.1263 186.2756 266.0280 29973.1949 186.2756 266.0280
ENERGY: 300000 0.5367 4.7464 4.4266 0.0000 -10574.0116 1396.9518 0.0000 0.0000 1684.6267 -7482.7234 290.5716 -9167.3501 -7421.8919 298.1441 -279.6187 -261.3663 29990.1570 220.0381 271.0397
ENERGY: 600000 0.8445 4.5518 0.9134 0.0000 -10558.7427 1425.6947 0.0000 0.0000 1775.3996 -7351.3387 306.2285 -9126.7383 -7390.9956 301.3019 380.1353 484.1720 29594.2785 203.8856 265.6101
ENERGY: 900000 1.5538 1.7649 2.0368 0.0000 -10566.3264 1424.2618 0.0000 0.0000 1747.4980 -7389.2111 301.4159 -9136.7092 -7396.1724 300.6036 94.0754 129.7919 29672.9574 170.7590 235.7251
ENERGY: 1200000 1.0446 6.0257 4.3980 0.0000 -10589.7551 1522.4016 0.0000 0.0000 1728.3503 -7327.5349 298.1133 -9055.8852 -7399.1145 299.9019 1026.0816 1081.7089 30124.0966 150.4972 222.2091
ENERGY: 1500000 1.8939 3.3635 0.2434 0.0000 -10476.5860 1358.3508 0.0000 0.0000 1693.3622 -7419.3721 292.0784 -9112.7344 -7405.3375 298.6911 -486.4679 -414.5069 30045.9527 31.6964 108.7496
TCL: Running FEP window   9: Lambda1 0.5999999999999996 Lambda2 0.5499999999999996 [dLambda -0.050000000000000044]
TCL: Setting parameter firsttimestep to 0
TCL: Setting parameter alchLambda to 0.5999999999999996
Info: NONBONDED TABLE R-SQUARED SPACING: 0.0625
Info: NONBONDED TABLE SIZE: 705 POINTS
TCL: Setting parameter alchLambda2 to 0.5499999999999996
Info: NONBONDED TABLE R-SQUARED SPACING: 0.0625
Info: NONBONDED TABLE SIZE: 705 POINTS
TCL: Running for 1500000 steps
ETITLE: TS BOND ANGLE DIHED IMPRP ELECT VDW BOUNDARY MISC KINETIC TOTAL TEMP POTENTIAL TOTALAVG TEMPAVG PRESSURE GPRESSURE VOLUME PRESSAVG GPRESSAVG
ENERGY: 0 1.8939 3.3635 0.2434 0.0000 -10476.5382 1358.8121 0.0000 0.0000 1692.4604 -7419.7651 291.9228 -9112.2254 -7419.7651 291.9228 -499.2651 -414.0433 30045.9527 -499.2651 -414.0433
ENERGY: 300000 0.5609 3.3202 2.1656 0.0000 -10455.6916 1358.3265 0.0000 0.0000 1776.5077 -7314.8107 306.4197 -9091.3184 -7382.7378 302.8451 -597.5251 -517.1687 30313.4918 -234.8721 -195.3590
ENERGY: 600000 2.1137 2.6712 2.2320 0.0000 -10510.1027 1406.8077 0.0000 0.0000 1751.9337 -7344.3445 302.1810 -9096.2782 -7382.9483 302.3475 -35.9156 -15.8277 30034.1859 -98.1817 -54.2143
ENERGY: 900000 2.8875 2.6538 2.1248 0.0000 -10620.9813 1485.4444 0.0000 0.0000 1781.1764 -7346.6946 307.2249 -9127.8710 -7381.5113 302.3951 739.4614 810.5011 29805.9376 133.8495 180.8868
ENERGY: 1200000 1.3910 2.4299 0.4504 0.0000 -10711.2816 1506.1429 0.0000 0.0000 1774.0419 -7426.8254 305.9943 -9200.8673 -7389.4851 303.2124 444.6983 504.7282 29987.2533 82.2420 130.5765
ENERGY: 1500000 0.9567 2.7991 1.9232 0.0000 -10618.0918 1435.1766 0.0000 0.0000 1734.2321 -7443.0041 299.1278 -9177.2362 -7406.6834 301.8750 -39.2032 53.7187 30099.5662 94.0854 145.5985
TCL: Running FEP window  10: Lambda1 0.5499999999999996 Lambda2 0.4999999999999996 [dLambda -0.04999999999999999]
TCL: Setting parameter firsttimestep to 0
TCL: Setting parameter alchLambda to 0.5499999999999996
Info: NONBONDED TABLE R-SQUARED SPACING: 0.0625
Info: NONBONDED TABLE SIZE: 705 POINTS
TCL: Setting parameter alchLambda2 to 0.4999999999999996
Info: NONBONDED TABLE R-SQUARED SPACING: 0.0625
Info: NONBONDED TABLE SIZE: 705 POINTS
TCL: Running for 1500000 steps
ETITLE: TS BOND ANGLE DIHED IMPRP ELECT VDW BOUNDARY MISC KINETIC TOTAL TEMP POTENTIAL TOTALAVG TEMPAVG PRESSURE GPRESSURE VOLUME PRESSAVG GPRESSAVG
ENERGY: 0 0.9567 2.7991 1.9232 0.0000 -10617.5669 1434.8558 0.0000 0.0000 1733.3537 -7443.6784 298.9763 -9177.0321 -7443.6784 298.9763 -33.0465 45.4178 30099.5662 -33.0465 45.4178
ENERGY: 300000 2.2078 1.3110 2.6303 0.0000 -10478.5277 1344.0346 0.0000 0.0000 1703.6060 -7424.7381 293.8453 -9128.3441 -7412.1576 300.0396 -870.2845 -786.7981 30579.0087 -100.2908 -27.6879
ENERGY: 600000 0.6517 5.2607 0.4923 0.0000 -10449.6663 1318.7432 0.0000 0.0000 1761.3337 -7363.1847 303.8024 -9124.5184 -7388.7839 301.5426 -845.6079 -791.9617 30194.9258 -169.9168 -98.4442
ENERGY: 900000 1.0595 4.4501 0.8738 0.0000 -10582.3914 1456.4884 0.0000 0.0000 1731.1266 -7388.3930 298.5921 -9119.5196 -7378.2787 302.8582 349.5338 355.6764 29998.4959 -36.6129 32.8953
ENERGY: 1200000 0.9702 2.2988 0.2927 0.0000 -10545.5363 1446.3181 0.0000 0.0000 1705.1585 -7390.4981 294.1130 -9095.6565 -7383.6120 301.4626 510.1395 580.8244 29807.1774 59.0866 128.8224
ENERGY: 1500000 1.0176 3.9469 0.3889 0.0000 -10561.8901 1423.2849 0.0000 0.0000 1753.9816 -7379.2701 302.5343 -9133.2517 -7390.4352 301.6145 323.2989 340.7601 29443.6341 96.7457 163.2195
TCL: Running FEP window  11: Lambda1 0.4999999999999996 Lambda2 0.4499999999999996 [dLambda -0.04999999999999999]
TCL: Setting parameter firsttimestep to 0
TCL: Setting parameter alchLambda to 0.4999999999999996
Info: NONBONDED TABLE R-SQUARED SPACING: 0.0625
Info: NONBONDED TABLE SIZE: 705 POINTS
TCL: Setting parameter alchLambda2 to 0.4499999999999996
Info: NONBONDED TABLE R-SQUARED SPACING: 0.0625
Info: NONBONDED TABLE SIZE: 705 POINTS
TCL: Running for 1500000 steps
ETITLE: TS BOND ANGLE DIHED IMPRP ELECT VDW BOUNDARY MISC KINETIC TOTAL TEMP POTENTIAL TOTALAVG TEMPAVG PRESSURE GPRESSURE VOLUME PRESSAVG GPRESSAVG
ENERGY: 0 1.0176 3.9469 0.3889 0.0000 -10562.0274 1423.2921 0.0000 0.0000 1753.0997 -7380.2822 302.3821 -9133.3819 -7380.2822 302.3821 253.2089 332.0161 29443.6341 253.2089 332.0161
ENERGY: 300000 0.6719 3.8513 0.5025 0.0000 -10531.2365 1413.1815 0.0000 0.0000 1674.3266 -7438.7028 288.7950 -9113.0293 -7443.5265 299.5075 -212.9488 -110.1869 30349.9575 -23.6742 79.8384
ENERGY: 600000 2.5861 5.5398 3.8008 0.0000 -10509.7038 1341.9642 0.0000 0.0000 1776.6243 -7379.1886 306.4398 -9155.8129 -7426.7269 299.0962 -468.0187 -393.4789 29735.3436 -83.3836 13.1071
ENERGY: 900000 0.7675 4.9400 3.8585 0.0000 -10706.4301 1494.9697 0.0000 0.0000 1789.3418 -7412.5525 308.6333 -9201.8943 -7416.6004 299.9154 473.5143 457.9367 29932.4215 3.9961 79.2472
ENERGY: 1200000 1.5000 2.6141 0.8247 0.0000 -10588.4913 1452.6253 0.0000 0.0000 1730.3009 -7400.6263 298.4497 -9130.9272 -7419.6597 299.6492 306.1956 436.3738 29710.3433 54.4815 126.6680
ENERGY: 1500000 0.3794 4.6163 4.0105 0.0000 -10543.8547 1397.4292 0.0000 0.0000 1768.9505 -7368.4688 305.1161 -9137.4192 -7415.5867 299.9470 17.5339 65.8468 29787.7596 25.5707 94.5570
TCL: Running FEP window  12: Lambda1 0.4499999999999996 Lambda2 0.39999999999999963 [dLambda -0.04999999999999999]
TCL: Setting parameter firsttimestep to 0
TCL: Setting parameter alchLambda to 0.4499999999999996
Info: NONBONDED TABLE R-SQUARED SPACING: 0.0625
Info: NONBONDED TABLE SIZE: 705 POINTS
TCL: Setting parameter alchLambda2 to 0.39999999999999963
Info: NONBONDED TABLE R-SQUARED SPACING: 0.0625
Info: NONBONDED TABLE SIZE: 705 POINTS
TCL: Running for 1500000 steps
ETITLE: TS BOND ANGLE DIHED IMPRP ELECT VDW BOUNDARY MISC KINETIC TOTAL TEMP POTENTIAL TOTALAVG TEMPAVG PRESSURE GPRESSURE VOLUME PRESSAVG GPRESSAVG
ENERGY: 0 0.3794 4.6163 4.0105 0.0000 -10543.8561 1397.8148 0.0000 0.0000 1768.1063 -7368.9287 304.9706 -9137.0351 -7368.9287 304.9706 -33.2805 64.5859 29787.7596 -33.2805 64.5859
ENERGY: 300000 1.8013 1.8688 0.8525 0.0000 -10778.9185 1537.7294 0.0000 0.0000 1715.3316 -7521.3350 295.8677 -9236.6666 -7413.4500 303.1391 645.9932 671.6771 29757.1167 -75.2371 -32.6167
ENERGY: 600000 1.9982 4.5954 1.8030 0.0000 -10595.2983 1432.6380 0.0000 0.0000 1747.6940 -7406.5697 301.4497 -9154.2637 -7392.3514 303.6078 -79.8680 -67.7434 30197.4688 35.3108 81.8654
ENERGY: 900000 1.2299 3.7073 0.2606 0.0000 -10481.9585 1316.5146 0.0000 0.0000 1716.8879 -7443.3583 296.1362 -9160.2462 -7394.8828 302.5646 -1147.6319 -1027.6977 30380.2414 -112.4122 -57.4135
ENERGY: 1200000 0.4778 3.9284 1.4368 0.0000 -10542.5003 1395.4294 0.0000 0.0000 1788.6880 -7352.5398 308.5206 -9141.2279 -7397.0065 302.6040 -313.0695 -237.8387 30064.0841 -127.8803 -70.3467
ENERGY: 1500000 1.2330 2.5727 0.8956 0.0000 -10431.2821 1362.2171 0.0000 0.0000 1733.3498 -7331.0139 298.9756 -9064.3637 -7390.7150 301.5776 -257.7220 -244.2082 30031.6416 -125.9001 -68.2720
TCL: Running FEP window  13: Lambda1 0.39999999999999963 Lambda2 0.34999999999999964 [dLambda -0.04999999999999999]
TCL: Setting parameter firsttimestep to 0
TCL: Setting parameter alchLambda to 0.39999999999999963
Info: NONBONDED TABLE R-SQUARED SPACING: 0.0625
Info: NONBONDED TABLE SIZE: 705 POINTS
TCL: Setting parameter alchLambda2 to 0.34999999999999964
Info: NONBONDED TABLE R-SQUARED SPACING: 0.0625
Info: NONBONDED TABLE SIZE: 705 POINTS
TCL: Running for 1500000 steps
ETITLE: TS BOND ANGLE DIHED IMPRP ELECT VDW BOUNDARY MISC KINETIC TOTAL TEMP POTENTIAL TOTALAVG TEMPAVG PRESSURE GPRESSURE VOLUME PRESSAVG GPRESSAVG
ENERGY: 0 1.2330 2.5727 0.8956 0.0000 -10431.2821 1361.9917 0.0000 0.0000 1732.4755 -7332.1136 298.8248 -9064.5892 -7332.1136 298.8248 -323.4763 -251.0047 30031.6416 -323.4763 -251.0047
ENERGY: 300000 0.5690 2.3887 1.4576 0.0000 -10532.2911 1362.9156 0.0000 0.0000 1761.6355 -7403.3249 303.8544 -9164.9604 -7390.6024 302.1487 -141.7110 -122.0679 29692.3565 4.6567 42.2438
ENERGY: 600000 2.1140 2.9525 3.4303 0.0000 -10493.7957 1394.3730 0.0000 0.0000 1755.2846 -7335.6412 302.7590 -9090.9259 -7403.4959 300.3402 69.7240 144.3141 29891.0871 -39.6499 14.7771
ENERGY: 900000 3.0189 6.1789 0.5856 0.0000 -10522.6816 1401.1436 0.0000 0.0000 1708.7093 -7403.0453 294.7255 -9111.7546 -7391.3389 298.7907 71.6354 124.2707 29894.0204 -134.7361 -71.8228
ENERGY: 1200000 1.0093 2.1098 0.9884 0.0000 -10650.8427 1533.2249 0.0000 0.0000 1696.1255 -7417.3849 292.5550 -9113.5104 -7402.6218 297.5306 865.6892 939.9297 29928.0117 51.1339 115.2236
ENERGY: 1500000 2.0398 2.9062 3.7241 0.0000 -10528.3004 1375.8492 0.0000 0.0000 1708.1727 -7435.6084 294.6329 -9143.7811 -7409.0341 297.5559 -77.9838 35.4302 29452.1001 9.0156 77.7596
TCL: Running FEP window  14: Lambda1 0.34999999999999964 Lambda2 0.29999999999999966 [dLambda -0.04999999999999999]
TCL: Setting parameter firsttimestep to 0
TCL: Setting parameter alchLambda to 0.34999999999999964
Info: NONBONDED TABLE R-SQUARED SPACING: 0.0625
Info: NONBONDED TABLE SIZE: 705 POINTS
TCL: Setting parameter alchLambda2 to 0.29999999999999966
Info: NONBONDED TABLE R-SQUARED SPACING: 0.0625
Info: NONBONDED TABLE SIZE: 705 POINTS
TCL: Running for 1500000 steps
ETITLE: TS BOND ANGLE DIHED IMPRP ELECT VDW BOUNDARY MISC KINETIC TOTAL TEMP POTENTIAL TOTALAVG TEMPAVG PRESSURE GPRESSURE VOLUME PRESSAVG GPRESSAVG
ENERGY: 0 2.0398 2.9062 3.7241 0.0000 -10528.3026 1375.1363 0.0000 0.0000 1707.3639 -7437.1322 294.4934 -9144.4961 -7437.1322 294.4934 -67.7147 26.0374 29452.1001 -67.7147 26.0374
ENERGY: 300000 1.0128 6.1136 0.2674 0.0000 -10787.2066 1525.1659 0.0000 0.0000 1798.9854 -7455.6615 310.2967 -9254.6470 -7418.5684 301.6363 763.1413 835.3800 29453.9749 -21.2707 67.9293
ENERGY: 600000 1.9029 4.6650 1.4685 0.0000 -10501.9832 1290.8587 0.0000 0.0000 1737.4120 -7465.6760 299.6763 -9203.0881 -7403.3770 301.1159 -1234.3730 -1207.4089 30170.5073 -191.0405 -113.7260
ENERGY: 900000 0.5275 4.6492 1.9912 0.0000 -10397.9620 1355.7894 0.0000 0.0000 1709.7146 -7325.2900 294.8989 -9035.0046 -7389.3566 301.6435 -216.1629 -187.5709 30028.9059 -161.2830 -94.1101
ENERGY: 1200000 0.9094 9.2563 2.5623 0.0000 -10566.6807 1374.2103 0.0000 0.0000 1770.8190 -7408.9233 305.4384 -9179.7424 -7391.7114 302.2078 -285.7895 -294.2136 29746.4974 -221.3226 -157.7128
ENERGY: 1500000 0.9293 3.5686 1.3662 0.0000 -10388.8160 1290.5816 0.0000 0.0000 1758.9590 -7333.4113 303.3928 -9092.3703 -7391.7857 301.6997 -894.1836 -866.9358 30040.6111 -136.8890 -76.0757
TCL: Running FEP window  15: Lambda1 0.29999999999999966 Lambda2 0.24999999999999967 [dLambda -0.04999999999999999]
TCL: Setting parameter firsttimestep to 0
TCL: Setting parameter alchLambda to 0.29999999999999966
Info: NONBONDED TABLE R-SQUARED SPACING: 0.0625
Info: NONBONDED TABLE SIZE: 705 POINTS
TCL: Setting parameter alchLambda2 to 0.24999999999999967
Info: NONBONDED TABLE R-SQUARED SPACING: 0.0625
Info: NONBONDED TABLE SIZE: 705 POINTS
TCL: Running for 1500000 steps
ETITLE: TS BOND ANGLE DIHED IMPRP ELECT VDW BOUNDARY MISC KINETIC TOTAL TEMP POTENTIAL TOTALAVG TEMPAVG PRESSURE GPRESSURE VOLUME PRESSAVG GPRESSAVG
ENERGY: 0 0.9293 3.5686 1.3662 0.0000 -10388.8153 1290.2678 0.0000 0.0000 1758.0710 -7334.6125 303.2396 -9092.6835 -7334.6125 303.2396 -950.3166 -872.8661 30040.6111 -950.3166 -872.8661
ENERGY: 300000 1.2052 0.6926 1.9817 0.0000 -10612.7476 1478.7621 0.0000 0.0000 1699.7325 -7430.3736 293.1771 -9130.1061 -7382.8241 297.1889 392.5430 499.2759 29761.3573 -380.4482 -325.2371
ENERGY: 600000 3.8234 7.2058 1.0204 0.0000 -10505.5294 1368.1355 0.0000 0.0000 1824.1522 -7301.1920 314.6376 -9125.3442 -7365.9040 301.5443 -511.9784 -383.5362 29968.3800 -367.1184 -300.0374
ENERGY: 900000 0.2859 5.8590 1.2624 0.0000 -10463.0451 1361.4278 0.0000 0.0000 1833.4063 -7260.8037 316.2338 -9094.2100 -7353.8982 302.2969 -275.8914 -193.7024 29896.5091 -280.3496 -217.0592
ENERGY: 1200000 2.7520 5.0593 1.7242 0.0000 -10501.8111 1362.7719 0.0000 0.0000 1692.1672 -7437.3364 291.8723 -9129.5037 -7364.9770 301.4823 -525.1902 -419.1523 29931.4401 -214.3453 -150.8628
ENERGY: 1500000 2.0492 2.1835 1.9881 0.0000 -10492.3639 1322.9589 0.0000 0.0000 1678.8551 -7484.3290 289.5761 -9163.1842 -7375.4364 300.0784 -747.3929 -667.6817 29953.4820 -256.3959 -187.0752
TCL: Running FEP window  16: Lambda1 0.24999999999999967 Lambda2 0.19999999999999968 [dLambda -0.04999999999999999]
TCL: Setting parameter firsttimestep to 0
TCL: Setting parameter alchLambda to 0.24999999999999967
Info: NONBONDED TABLE R-SQUARED SPACING: 0.0625
Info: NONBONDED TABLE SIZE: 705 POINTS
TCL: Setting parameter alchLambda2 to 0.19999999999999968
Info: NONBONDED TABLE R-SQUARED SPACING: 0.0625
Info: NONBONDED TABLE SIZE: 705 POINTS
TCL: Running for 1500000 steps
ETITLE: TS BOND ANGLE DIHED IMPRP ELECT VDW BOUNDARY MISC KINETIC TOTAL TEMP POTENTIAL TOTALAVG TEMPAVG PRESSURE GPRESSURE VOLUME PRESSAVG GPRESSAVG
ENERGY: 0 2.0492 2.1835 1.9881 0.0000 -10492.3647 1322.6516 0.0000 0.0000 1677.9796 -7485.5126 289.4251 -9163.4922 -7485.5126 289.4251 -750.3215 -672.1258 29953.4820 -750.3215 -672.1258
ENERGY: 300000 1.7839 3.4612 2.2124 0.0000 -10619.2496 1376.2718 0.0000 0.0000 1744.8267 -7490.6937 300.9552 -9235.5204 -7441.4039 296.4724 -502.4288 -351.2526 29666.8448 -225.6425 -129.3850
ENERGY: 600000 0.1164 1.3356 0.7474 0.0000 -10442.1380 1350.3191 0.0000 0.0000 1782.3691 -7307.2505 307.4306 -9089.6196 -7400.0208 300.0195 -518.3125 -460.9268 30408.9570 -76.4092 6.8102
ENERGY: 900000 1.3890 2.5349 1.0260 0.0000 -10478.3928 1343.1376 0.0000 0.0000 1750.3172 -7379.9881 301.9022 -9130.3053 -7406.7448 300.2657 -639.2900 -643.0330 30161.1964 -64.7671 7.6124
ENERGY: 1200000 2.4019 4.3846 1.8191 0.0000 -10695.4287 1547.0598 0.0000 0.0000 1731.1342 -7408.6291 298.5934 -9139.7632 -7402.1385 301.2921 1127.7490 1281.3076 29599.7009 -10.4037 75.2687
ENERGY: 1500000 1.5172 4.6291 2.9906 0.0000 -10408.2293 1325.4267 0.0000 0.0000 1782.3867 -7291.2790 307.4337 -9073.6657 -7397.8091 301.6020 -543.8442 -512.8654 29966.1090 13.7151 93.5750
TCL: Running FEP window  17: Lambda1 0.19999999999999968 Lambda2 0.1499999999999997 [dLambda -0.04999999999999999]
TCL: Setting parameter firsttimestep to 0
TCL: Setting parameter alchLambda to 0.19999999999999968
Info: NONBONDED TABLE R-SQUARED SPACING: 0.0625
Info: NONBONDED TABLE SIZE: 705 POINTS
TCL: Setting parameter alchLambda2 to 0.1499999999999997
Info: NONBONDED TABLE R-SQUARED SPACING: 0.0625
Info: NONBONDED TABLE SIZE: 705 POINTS
TCL: Running for 1500000 steps
ETITLE: TS BOND ANGLE DIHED IMPRP ELECT VDW BOUNDARY MISC KINETIC TOTAL TEMP POTENTIAL TOTALAVG TEMPAVG PRESSURE GPRESSURE VOLUME PRESSAVG GPRESSAVG
ENERGY: 0 1.5172 4.6291 2.9906 0.0000 -10408.2284 1325.7326 0.0000 0.0000 1781.5252 -7291.8337 307.2851 -9073.3589 -7291.8337 307.2851 -582.8207 -514.4514 29966.1090 -582.8207 -514.4514
ENERGY: 300000 0.0903 3.1392 1.1518 0.0000 -10587.9224 1516.0947 0.0000 0.0000 1726.7364 -7340.7099 297.8349 -9067.4464 -7367.0559 300.9841 1071.4685 1143.0864 29734.0544 42.4713 99.3960
ENERGY: 600000 1.0497 4.4594 1.0432 0.0000 -10695.7001 1525.3380 0.0000 0.0000 1725.0901 -7438.7197 297.5509 -9163.8098 -7383.8656 301.9451 877.4730 984.3210 29340.0769 138.8387 199.8866
ENERGY: 900000 3.0950 0.6638 1.9113 0.0000 -10634.3884 1416.9718 0.0000 0.0000 1737.0198 -7474.7267 299.6086 -9211.7465 -7390.8293 301.2819 -421.2419 -319.7656 30145.6525 40.3955 113.9826
ENERGY: 1200000 1.2199 3.1421 2.8292 0.0000 -10624.2316 1486.6723 0.0000 0.0000 1723.9212 -7406.4468 297.3493 -9130.3680 -7395.3075 300.2896 529.3373 631.1668 29572.0425 128.1995 197.6862
ENERGY: 1500000 2.8959 2.4019 1.0751 0.0000 -10602.9344 1376.8006 0.0000 0.0000 1705.1109 -7514.6499 294.1048 -9219.7608 -7404.2690 299.2967 -497.7190 -480.4978 30177.4046 82.0722 144.8807
TCL: Running FEP window  18: Lambda1 0.1499999999999997 Lambda2 0.09999999999999969 [dLambda -0.05 ]
TCL: Setting parameter firsttimestep to 0
TCL: Setting parameter alchLambda to 0.1499999999999997
Info: NONBONDED TABLE R-SQUARED SPACING: 0.0625
Info: NONBONDED TABLE SIZE: 705 POINTS
TCL: Setting parameter alchLambda2 to 0.09999999999999969
Info: NONBONDED TABLE R-SQUARED SPACING: 0.0625
Info: NONBONDED TABLE SIZE: 705 POINTS
TCL: Running for 1500000 steps
ETITLE: TS BOND ANGLE DIHED IMPRP ELECT VDW BOUNDARY MISC KINETIC TOTAL TEMP POTENTIAL TOTALAVG TEMPAVG PRESSURE GPRESSURE VOLUME PRESSAVG GPRESSAVG
ENERGY: 0 2.8959 2.4019 1.0751 0.0000 -10602.9328 1377.1131 0.0000 0.0000 1704.2301 -7515.2167 293.9529 -9219.4468 -7515.2167 293.9529 -563.4385 -478.8364 30177.4046 -563.4385 -478.8364
ENERGY: 300000 0.7022 1.7950 1.6354 0.0000 -10525.7892 1409.3985 0.0000 0.0000 1771.2298 -7341.0284 305.5093 -9112.2582 -7396.2459 300.1159 -330.4234 -240.2826 30573.3514 -398.5814 -325.3414
ENERGY: 600000 4.2029 3.2238 1.8224 0.0000 -10574.2609 1385.2596 0.0000 0.0000 1743.8383 -7435.9139 300.7847 -9179.7522 -7398.9859 300.5108 -602.2283 -510.8553 29972.0654 -247.2859 -162.4431
ENERGY: 900000 1.1117 5.3726 1.7316 0.0000 -10508.2406 1375.7442 0.0000 0.0000 1704.0475 -7420.2329 293.9214 -9124.2804 -7396.2749 301.6867 -493.1422 -448.6800 30117.7004 -281.4572 -210.3884
ENERGY: 1200000 0.4897 2.6049 1.2272 0.0000 -10562.1052 1386.0151 0.0000 0.0000 1698.2808 -7473.4876 292.9267 -9171.7684 -7413.0781 299.8065 -196.5500 -105.1025 29647.3819 -300.6191 -230.1460
ENERGY: 1500000 1.2252 2.7527 1.6856 0.0000 -10643.5361 1469.2206 0.0000 0.0000 1775.9220 -7392.7300 306.3186 -9168.6520 -7415.9443 299.2129 342.8877 430.7220 29769.6366 -158.0961 -88.5243
TCL: Running FEP window  19: Lambda1 0.09999999999999969 Lambda2 0.049999999999999684 [dLambda -0.05 ]
TCL: Setting parameter firsttimestep to 0
TCL: Setting parameter alchLambda to 0.09999999999999969
Info: NONBONDED TABLE R-SQUARED SPACING: 0.0625
Info: NONBONDED TABLE SIZE: 705 POINTS
TCL: Setting parameter alchLambda2 to 0.049999999999999684
Info: NONBONDED TABLE R-SQUARED SPACING: 0.0625
Info: NONBONDED TABLE SIZE: 705 POINTS
TCL: Running for 1500000 steps
ETITLE: TS BOND ANGLE DIHED IMPRP ELECT VDW BOUNDARY MISC KINETIC TOTAL TEMP POTENTIAL TOTALAVG TEMPAVG PRESSURE GPRESSURE VOLUME PRESSAVG GPRESSAVG
ENERGY: 0 1.2252 2.7527 1.6856 0.0000 -10643.5364 1468.3475 0.0000 0.0000 1775.0412 -7394.4842 306.1667 -9169.5254 -7394.4842 306.1667 345.1614 423.6524 29769.6366 345.1614 423.6524
ENERGY: 300000 0.8603 2.1398 0.3448 0.0000 -10567.6815 1439.8529 0.0000 0.0000 1765.2643 -7359.2194 304.4803 -9124.4838 -7406.2347 301.3289 113.4329 171.8908 30218.2945 282.4084 342.2010
ENERGY: 600000 1.3376 3.5468 1.4938 0.0000 -10673.1077 1533.9651 0.0000 0.0000 1801.4111 -7331.3534 310.7151 -9132.7645 -7406.2271 301.8502 831.7054 921.2760 29944.4043 324.1140 398.4494
ENERGY: 900000 2.1765 5.9988 4.0747 0.0000 -10653.2123 1462.8200 0.0000 0.0000 1753.6583 -7424.4840 302.4785 -9178.1423 -7393.2662 301.7592 529.4411 566.6384 29397.4792 312.8028 381.5975
ENERGY: 1200000 0.7996 3.2542 0.9611 0.0000 -10600.6005 1446.3007 0.0000 0.0000 1725.7235 -7423.5615 297.6602 -9149.2850 -7396.2864 301.3206 188.5534 260.4273 29782.5739 145.2869 216.6477
ENERGY: 1500000 1.7081 4.2766 3.4101 0.0000 -10680.2980 1437.2659 0.0000 0.0000 1734.2573 -7499.3800 299.1321 -9233.6373 -7409.8520 301.2181 109.4273 108.2951 29448.5889 91.9070 160.0956
TCL: Running FEP window  20: Lambda1 0.049999999999999684 Lambda2 0.0    [dLambda -0.049999999999999684]
TCL: Setting parameter firsttimestep to 0
TCL: Setting parameter alchLambda to 0.049999999999999684
Info: NONBONDED TABLE R-SQUARED SPACING: 0.0625
Info: NONBONDED TABLE SIZE: 705 POINTS
TCL: Setting parameter alchLambda2 to 0.0
Info: NONBONDED TABLE R-SQUARED SPACING: 0.0625
Info: NONBONDED TABLE SIZE: 705 POINTS
TCL: Running for 1500000 steps
ETITLE: TS BOND ANGLE DIHED IMPRP ELECT VDW BOUNDARY MISC KINETIC TOTAL TEMP POTENTIAL TOTALAVG TEMPAVG PRESSURE GPRESSURE VOLUME PRESSAVG GPRESSAVG
ENERGY: 0 1.7080 4.2766 3.4101 0.0000 -10680.2966 1437.6184 0.0000 0.0000 1733.3767 -7499.9068 298.9802 -9233.2834 -7499.9068 298.9802 17.0947 110.1176 29448.5889 17.0947 110.1176
ENERGY: 300000 0.1595 2.2741 0.7909 0.0000 -10624.1969 1463.4893 0.0000 0.0000 1782.2786 -7375.2046 307.4150 -9157.4832 -7428.1792 300.7542 349.6669 459.3665 29682.1803 -132.8376 -43.1825
ENERGY: 600000 0.1716 1.8179 2.2716 0.0000 -10671.3894 1443.1229 0.0000 0.0000 1802.0980 -7421.9074 310.8336 -9224.0054 -7429.8441 302.8003 119.9190 220.1564 29439.3101 -44.6581 39.5236
ENERGY: 900000 1.5635 6.2340 0.6117 0.0000 -10510.6833 1336.2133 0.0000 0.0000 1747.9084 -7418.1525 301.4867 -9166.0609 -7422.6389 302.7422 -792.4896 -702.9248 30024.7031 -167.3774 -80.9948
ENERGY: 1200000 1.8265 4.2545 1.0278 0.0000 -10552.4561 1393.9575 0.0000 0.0000 1758.4640 -7392.9259 303.3074 -9151.3898 -7413.6567 302.8528 67.5176 183.6528 29466.1021 -190.2520 -107.1279
ENERGY: 1500000 0.2941 2.0219 1.7300 0.0000 -10819.6444 1583.9695 0.0000 0.0000 1763.2818 -7468.3472 304.1384 -9231.6290 -7411.0703 303.8902 1126.4774 1159.9687 29553.0769 -95.4881 -16.0019
TCL: Exiting due to exit command.
