Info: SIMULATION PARAMETERS:
Info: TIMESTEP               2
Info: NUMBER OF STEPS        0
Info: STEPS PER CYCLE        10
Info: PERIODIC CELL BASIS 1  31.7072 0 0
Info: PERIODIC CELL BASIS 2  0 29.9409 0
Info: PERIODIC CELL BASIS 3  0 0 31.1505
Info: PERIODIC CELL CENTER   0 0 0
Info: WRAPPING WATERS AROUND PERIODIC BOUNDARIES ON OUTPUT.
Info: WRAPPING ALL CLUSTERS AROUND PERIODIC BOUNDARIES ON OUTPUT.
Info: FIRST LDB TIMESTEP     50
Info: LAST LDB TIMESTEP     -1
Info: HOM BACKGROUND SCALING 1
Info: PME BACKGROUND SCALING 1
Info: MIN ATOMS PER PATCH    40
Info: EMPTY PATCH LOAD       40 ATOMS
Info: VELOCITY FILE          mobley_186894_equil.vel
Info: CENTER OF MASS MOVING INITIALLY? NO
Info: DIELECTRIC             1
Info: EXCLUDE                SCALED ONE-FOUR
Info: 1-4 ELECTROSTATICS SCALED BY 0.833333
Info: MODIFIED 1-4 VDW PARAMETERS WILL BE USED
Info: DCD FILENAME           mobley_186894_prod.dcd
Info: DCD FREQUENCY          100000
Info: DCD FIRST STEP         100000
Info: DCD FILE WILL CONTAIN UNIT CELL DATA
Info: XST FILENAME           mobley_186894_prod.xst
Info: XST FREQUENCY          100000
Info: NO VELOCITY DCD OUTPUT
Info: NO FORCE DCD OUTPUT
Info: OUTPUT FILENAME        mobley_186894_prod
Info: BINARY OUTPUT FILES WILL BE USED
Info: RESTART FILENAME       mobley_186894_prod.restart
Info: RESTART FREQUENCY      100000
Info: BINARY RESTART FILES WILL BE USED
Info: CUTOFF                 9
Info: PAIRLIST DISTANCE      11
Info: PAIRLIST SHRINK RATE   0.01
Info: PAIRLIST GROW RATE     0.01
Info: PAIRLIST TRIGGER       0.3
Info: PAIRLISTS PER CYCLE    2
Info: PAIRLISTS ENABLED
Info: MARGIN                 2
Info: HYDROGEN GROUP CUTOFF  2.5
Info: PATCH DIMENSION        15.5
Info: ENERGY OUTPUT STEPS    100000
Info: ENERGY EVALUATION STEPS    100000
Info: OUTPUT ENERGY PRECISION 4
Info: CROSSTERM ENERGY INCLUDED IN DIHEDRAL
Info: TIMING OUTPUT STEPS    1000000
Info: PRESSURE OUTPUT STEPS  100000
Info: ALCHEMICAL FEP ON
Info: FEP CURRENT LAMBDA VALUE     1
Info: FEP COMPARISON LAMBDA VALUE  0.95
Info: FEP INTRA-ALCHEMICAL NON-BONDED INTERACTIONS WILL BE RETAINED
Info: FEP INTRA-ALCHEMICAL BONDED INTERACTIONS WILL BE RETAINED
Info: FEP VDW SHIFTING COEFFICIENT 5
Info: FEP ELEC. ACTIVE FOR ANNIHILATED PARTICLES BETWEEN LAMBDA = 0 AND LAMBDA = 0.5
Info: FEP ELEC. ACTIVE FOR EXNIHILATED PARTICLES BETWEEN LAMBDA = 0.5 AND LAMBDA = 1
Info: FEP VDW ACTIVE FOR ANNIHILATED PARTICLES BETWEEN LAMBDA = 0 AND LAMBDA = 1
Info: FEP VDW ACTIVE FOR EXNIHILATED PARTICLES BETWEEN LAMBDA = 0 AND LAMBDA = 1
Info: FEP BOND ACTIVE FOR ANNIHILATED PARTICLES BETWEEN LAMBDA = 1 AND LAMBDA = 1
Info: FEP BOND ACTIVE FOR EXNIHILATED PARTICLES BETWEEN LAMBDA = 0 AND LAMBDA = 0
Info: LANGEVIN DYNAMICS ACTIVE
Info: LANGEVIN TEMPERATURE   300
Info: LANGEVIN USING BBK INTEGRATOR
Info: LANGEVIN DAMPING COEFFICIENT IS 1 INVERSE PS
Info: LANGEVIN DYNAMICS APPLIED TO HYDROGENS
Info: LANGEVIN PISTON PRESSURE CONTROL ACTIVE
Info:        TARGET PRESSURE IS 1.01325 BAR
Info:     OSCILLATION PERIOD IS 50 FS
Info:             DECAY TIME IS 25 FS
Info:     PISTON TEMPERATURE IS 300 K
Info:       PRESSURE CONTROL IS GROUP-BASED
Info:    INITIAL STRAIN RATE IS 2.17219e-05 2.17219e-05 2.17219e-05
Info:       CELL FLUCTUATION IS ISOTROPIC
Info: PARTICLE MESH EWALD (PME) ACTIVE
Info: PME TOLERANCE               1e-06
Info: PME EWALD COEFFICIENT       0.348832
Info: PME INTERPOLATION ORDER     4
Info: PME GRID DIMENSIONS         32 32 32
Info: PME MAXIMUM GRID SPACING    1
Info: PME CALCULATION WILL BE PERFORMED ON GPU
Info: FULL ELECTROSTATIC EVALUATION FREQUENCY      2
Info: USING VERLET I (r-RESPA) MTS SCHEME.
Info: C1 SPLITTING OF LONG RANGE ELECTROSTATICS
Info: PLACING ATOMS IN PATCHES BY HYDROGEN GROUPS
Info: RIGID BONDS TO HYDROGEN : ALL
Info:         ERROR TOLERANCE : 1e-08
Info:          MAX ITERATIONS : 100
Info: RIGID WATER USING SETTLE ALGORITHM
Info: RANDOM NUMBER SEED     1743712654
Info: USE HYDROGEN BONDS?    NO
Info: Using AMBER format force field!
Info: AMBER PARM FILE        mobley_186894.prmtop
Info: COORDINATE PDB         mobley_186894.pdb
Info: Exclusions will be read from PARM file!
Info: SCNB (VDW SCALING)     2
Info: USING ARITHMETIC MEAN TO COMBINE L-J SIGMA PARAMETERS
Info: BINARY COORDINATES     mobley_186894_equil.coor
Info: SUMMARY OF PARAMETERS:
Info: 7 BONDS
Info: 8 ANGLES
Info:   8 HARMONIC
Info:   0 COSINE-BASED
Info: 4 DIHEDRAL
Info: 0 IMPROPER
Info: 0 CROSSTERM
Info: 0 VDW
Info: 28 VDW_PAIRS
Info: 0 NBTHOLE_PAIRS
Info: To read alchdata from file: mobley_186894.pdb
Info: To read alchflag data from column: 5
Info: STRUCTURE SUMMARY:
Info: 2919 ATOMS
Info: 2918 BONDS
Info: 19 ANGLES
Info: 21 DIHEDRALS
Info: 0 IMPROPERS
Info: 0 CROSSTERMS
Info: 2958 EXCLUSIONS
Info: 2915 RIGID BONDS
Info: ALCH: 0 ATOMS TO DISAPPEAR IN FINAL STATE
Info: ALCH: 12 ATOMS TO APPEAR IN FINAL STATE
Info: 5842 DEGREES OF FREEDOM
Info: 973 HYDROGEN GROUPS
Info: 4 ATOMS IN LARGEST HYDROGEN GROUP
Info: 973 MIGRATION GROUPS
Info: 4 ATOMS IN LARGEST MIGRATION GROUP
Info: TOTAL MASS = 17533.7 amu
Info: TOTAL CHARGE = 0.000199965 e
Info: MASS DENSITY = 0.984564 g/cm^3
Info: ATOM DENSITY = 0.0987067 atoms/A^3
Info: ADDED 0 IMPLICIT EXCLUSIONS
Info: NONBONDED TABLE R-SQUARED SPACING: 0.0625
Info: NONBONDED TABLE SIZE: 705 POINTS
Info: REMOVING COM VELOCITY 0.0801908 -0.0520471 -0.257209
Info: Use 3D box decompostion in PME FFT.
Info: Updated CUDA force table with 4096 elements.
Info: Updated CUDA LJ table with 7 x 7 elements.
Info: Found 15 unique exclusion lists needing 28 bytes
TCL: Running for 1500000 steps
ETITLE: TS BOND ANGLE DIHED IMPRP ELECT VDW BOUNDARY MISC KINETIC TOTAL TEMP POTENTIAL TOTALAVG TEMPAVG PRESSURE GPRESSURE VOLUME PRESSAVG GPRESSAVG
ENERGY: 0 1.0566 3.8674 0.2837 0.0000 -10529.4138 1339.7289 0.0000 0.0000 1818.4494 -7366.0278 313.2781 -9184.4772 -7366.0278 313.2781 -451.1284 -370.8799 29572.4732 -451.1284 -370.8799
ENERGY: 300000 0.1014 5.0855 0.7723 0.0000 -10399.9213 1348.4352 0.0000 0.0000 1744.6926 -7300.8342 300.5715 -9045.5268 -7407.4019 300.6185 -239.4079 -190.5494 30090.9963 8.8878 55.2948
ENERGY: 600000 0.1407 5.4805 0.7271 0.0000 -10516.1719 1386.0107 0.0000 0.0000 1788.5827 -7335.2301 308.1327 -9123.8128 -7404.6254 301.8029 -255.6512 -169.5381 30226.2255 -74.5081 5.8210
ENERGY: 900000 0.2583 5.4408 1.0123 0.0000 -10627.1769 1480.4157 0.0000 0.0000 1735.9517 -7404.0982 299.0656 -9140.0499 -7402.1023 301.2530 296.4040 348.0085 30436.1800 -48.6016 27.5576
ENERGY: 1200000 0.3538 5.4252 1.2592 0.0000 -10523.6505 1365.6082 0.0000 0.0000 1738.2514 -7412.7527 299.4618 -9151.0041 -7410.5507 299.7954 -604.8918 -546.3966 30337.3270 -157.1289 -76.5721
ENERGY: 1500000 1.7571 5.5868 0.6481 0.0000 -10630.2301 1431.2464 0.0000 0.0000 1718.1763 -7472.8154 296.0033 -9190.9917 -7410.5382 299.6478 144.6348 251.2173 29563.4169 -130.6042 -50.8623
TCL: Running FEP window   2: Lambda1 0.95   Lambda2 0.8999999999999999 [dLambda -0.050000000000000044]
TCL: Setting parameter firsttimestep to 0
TCL: Setting parameter alchLambda to 0.95
Info: NONBONDED TABLE R-SQUARED SPACING: 0.0625
Info: NONBONDED TABLE SIZE: 705 POINTS
TCL: Setting parameter alchLambda2 to 0.8999999999999999
Info: NONBONDED TABLE R-SQUARED SPACING: 0.0625
Info: NONBONDED TABLE SIZE: 705 POINTS
TCL: Running for 1500000 steps
ETITLE: TS BOND ANGLE DIHED IMPRP ELECT VDW BOUNDARY MISC KINETIC TOTAL TEMP POTENTIAL TOTALAVG TEMPAVG PRESSURE GPRESSURE VOLUME PRESSAVG GPRESSAVG
ENERGY: 0 1.7571 5.5868 0.6481 0.0000 -10629.7051 1431.4431 0.0000 0.0000 1717.2805 -7472.9895 295.8490 -9190.2700 -7472.9895 295.8490 166.5130 243.9446 29563.4169 166.5130 243.9446
ENERGY: 300000 0.3339 4.4770 0.5875 0.0000 -10541.5561 1367.3023 0.0000 0.0000 1709.8073 -7459.0480 294.5615 -9168.8553 -7434.2976 298.0161 -316.0397 -254.3485 29843.8676 99.7282 164.8485
ENERGY: 600000 0.2591 2.6430 0.5900 0.0000 -10638.9956 1526.7140 0.0000 0.0000 1730.3448 -7378.4448 298.0997 -9108.7896 -7423.8461 298.9382 883.1032 913.9715 30109.4104 408.3228 457.8632
ENERGY: 900000 0.1762 4.6755 0.1798 0.0000 -10577.7596 1451.4240 0.0000 0.0000 1737.3600 -7383.9441 299.3082 -9121.3041 -7411.7432 298.6321 294.2794 390.8605 30169.2723 239.8388 299.7545
ENERGY: 1200000 0.3410 3.9266 0.7610 0.0000 -10604.4517 1378.0432 0.0000 0.0000 1749.2546 -7472.1253 301.3574 -9221.3799 -7411.5491 298.9474 -362.3906 -318.7491 29997.9205 171.4767 224.4719
ENERGY: 1500000 0.6461 4.6391 1.6141 0.0000 -10790.3511 1541.0548 0.0000 0.0000 1721.9164 -7520.4807 296.6476 -9242.3971 -7420.4627 299.6215 667.0963 780.5530 29661.0701 107.5111 163.9256
TCL: Running FEP window   3: Lambda1 0.8999999999999999 Lambda2 0.8499999999999999 [dLambda -0.050000000000000044]
TCL: Setting parameter firsttimestep to 0
TCL: Setting parameter alchLambda to 0.8999999999999999
Info: NONBONDED TABLE R-SQUARED SPACING: 0.0625
Info: NONBONDED TABLE SIZE: 705 POINTS
TCL: Setting parameter alchLambda2 to 0.8499999999999999
Info: NONBONDED TABLE R-SQUARED SPACING: 0.0625
Info: NONBONDED TABLE SIZE: 705 POINTS
TCL: Running for 1500000 steps
ETITLE: TS BOND ANGLE DIHED IMPRP ELECT VDW BOUNDARY MISC KINETIC TOTAL TEMP POTENTIAL TOTALAVG TEMPAVG PRESSURE GPRESSURE VOLUME PRESSAVG GPRESSAVG
ENERGY: 0 0.6461 4.6391 1.6141 0.0000 -10790.0582 1540.9581 0.0000 0.0000 1721.0874 -7521.1134 296.5048 -9242.2008 -7521.1134 296.5048 693.8804 764.4377 29661.0701 693.8804 764.4377
ENERGY: 300000 1.6661 3.9905 2.0599 0.0000 -10613.8088 1507.7618 0.0000 0.0000 1734.2909 -7364.0397 298.7795 -9098.3306 -7435.4998 295.9333 609.5167 686.1520 30429.9064 289.3901 369.0505
ENERGY: 600000 0.7174 2.5329 2.6829 0.0000 -10685.9069 1454.6748 0.0000 0.0000 1803.6793 -7421.6196 310.7336 -9225.2990 -7432.0961 299.4830 20.9738 70.8573 30478.4771 62.5566 123.3802
ENERGY: 900000 0.2792 2.9172 0.4225 0.0000 -10577.9926 1422.8451 0.0000 0.0000 1755.6422 -7395.8863 302.4578 -9151.5285 -7419.5986 300.5615 28.7032 59.5646 30056.5176 -5.8177 51.6362
ENERGY: 1200000 0.2068 6.1163 1.6559 0.0000 -10522.1587 1446.0734 0.0000 0.0000 1812.5746 -7255.5317 312.2660 -9068.1063 -7401.7853 301.4335 384.1223 462.6317 30289.6957 84.8975 135.6557
ENERGY: 1500000 1.2248 3.1359 1.6511 0.0000 -10526.1518 1357.0330 0.0000 0.0000 1766.4543 -7396.6527 304.3205 -9163.1070 -7396.3344 301.7512 -384.6037 -338.0447 29674.6534 -8.3560 48.0841
TCL: Running FEP window   4: Lambda1 0.8499999999999999 Lambda2 0.7999999999999998 [dLambda -0.050000000000000044]
TCL: Setting parameter firsttimestep to 0
TCL: Setting parameter alchLambda to 0.8499999999999999
Info: NONBONDED TABLE R-SQUARED SPACING: 0.0625
Info: NONBONDED TABLE SIZE: 705 POINTS
TCL: Setting parameter alchLambda2 to 0.7999999999999998
Info: NONBONDED TABLE R-SQUARED SPACING: 0.0625
Info: NONBONDED TABLE SIZE: 705 POINTS
TCL: Running for 1500000 steps
ETITLE: TS BOND ANGLE DIHED IMPRP ELECT VDW BOUNDARY MISC KINETIC TOTAL TEMP POTENTIAL TOTALAVG TEMPAVG PRESSURE GPRESSURE VOLUME PRESSAVG GPRESSAVG
ENERGY: 0 1.2248 3.1359 1.6511 0.0000 -10525.4707 1357.0782 0.0000 0.0000 1765.6000 -7396.7807 304.1733 -9162.3807 -7396.7807 304.1733 -429.3043 -344.3079 29674.6534 -429.3043 -344.3079
ENERGY: 300000 0.5481 4.9269 1.3332 0.0000 -10609.7724 1443.1906 0.0000 0.0000 1671.7941 -7487.9796 288.0127 -9159.7737 -7423.3811 296.6693 -14.0792 8.7037 30204.0748 -85.7869 -29.1376
ENERGY: 600000 1.1352 5.2917 0.8166 0.0000 -10566.3342 1402.1179 0.0000 0.0000 1737.0970 -7419.8759 299.2629 -9156.9729 -7417.1425 298.4245 -194.8166 -87.7179 29840.0166 -134.3256 -66.9481
ENERGY: 900000 0.1136 3.9966 0.2988 0.0000 -10662.8664 1427.6397 0.0000 0.0000 1775.2569 -7455.5607 305.8370 -9230.8176 -7419.4779 300.3008 -307.8834 -260.8443 30198.7747 -145.6287 -89.3888
ENERGY: 1200000 0.6918 2.5293 0.5932 0.0000 -10513.6400 1394.2211 0.0000 0.0000 1773.0541 -7342.5505 305.4575 -9115.6046 -7412.0504 301.2510 -341.4651 -233.4029 30260.0426 -96.3321 -39.8456
ENERGY: 1500000 0.2535 3.2753 0.9888 0.0000 -10579.6254 1464.4213 0.0000 0.0000 1738.6642 -7372.0223 299.5329 -9110.6865 -7410.9995 300.7940 461.4072 542.6839 30240.4959 -58.1088 6.1219
TCL: Running FEP window   5: Lambda1 0.7999999999999998 Lambda2 0.7499999999999998 [dLambda -0.050000000000000044]
TCL: Setting parameter firsttimestep to 0
TCL: Setting parameter alchLambda to 0.7999999999999998
Info: NONBONDED TABLE R-SQUARED SPACING: 0.0625
Info: NONBONDED TABLE SIZE: 705 POINTS
TCL: Setting parameter alchLambda2 to 0.7499999999999998
Info: NONBONDED TABLE R-SQUARED SPACING: 0.0625
Info: NONBONDED TABLE SIZE: 705 POINTS
TCL: Running for 1500000 steps
ETITLE: TS BOND ANGLE DIHED IMPRP ELECT VDW BOUNDARY MISC KINETIC TOTAL TEMP POTENTIAL TOTALAVG TEMPAVG PRESSURE GPRESSURE VOLUME PRESSAVG GPRESSAVG
ENERGY: 0 0.2535 3.2753 0.9888 0.0000 -10579.3462 1464.6419 0.0000 0.0000 1737.7990 -7372.3877 299.3839 -9110.1867 -7372.3877 299.3839 458.8839 538.8860 30240.4959 458.8839 538.8860
ENERGY: 300000 0.9864 4.9050 1.6229 0.0000 -10620.5862 1425.3256 0.0000 0.0000 1713.6527 -7474.0937 295.2240 -9187.7464 -7396.6859 297.9750 -70.0543 -2.3732 30034.2853 112.1103 189.6029
ENERGY: 600000 1.4496 5.5726 0.6568 0.0000 -10432.0016 1306.6288 0.0000 0.0000 1750.8259 -7366.8680 301.6281 -9117.6939 -7384.5371 300.2790 -861.6641 -796.6646 30313.5600 90.6762 161.3934
ENERGY: 900000 2.7399 2.7736 1.2703 0.0000 -10519.3332 1459.9007 0.0000 0.0000 1760.2335 -7292.4152 303.2488 -9052.6488 -7366.8551 301.7884 583.6668 695.3960 29769.8538 109.0035 175.8040
ENERGY: 1200000 0.0551 7.2581 0.7583 0.0000 -10583.5220 1448.6720 0.0000 0.0000 1734.2482 -7392.5303 298.7721 -9126.7785 -7380.2303 301.8457 137.5478 242.0878 30239.1460 120.8119 186.6904
ENERGY: 1500000 0.9288 5.7302 0.9507 0.0000 -10577.8812 1399.0717 0.0000 0.0000 1794.5049 -7376.6949 309.1530 -9171.1998 -7383.6604 302.3634 -415.4624 -353.7676 30106.2301 4.5913 66.4509
TCL: Running FEP window   6: Lambda1 0.7499999999999998 Lambda2 0.6999999999999997 [dLambda -0.050000000000000044]
TCL: Setting parameter firsttimestep to 0
TCL: Setting parameter alchLambda to 0.7499999999999998
Info: NONBONDED TABLE R-SQUARED SPACING: 0.0625
Info: NONBONDED TABLE SIZE: 705 POINTS
TCL: Setting parameter alchLambda2 to 0.6999999999999997
Info: NONBONDED TABLE R-SQUARED SPACING: 0.0625
Info: NONBONDED TABLE SIZE: 705 POINTS
TCL: Running for 1500000 steps
ETITLE: TS BOND ANGLE DIHED IMPRP ELECT VDW BOUNDARY MISC KINETIC TOTAL TEMP POTENTIAL TOTALAVG TEMPAVG PRESSURE GPRESSURE VOLUME PRESSAVG GPRESSAVG
ENERGY: 0 0.9288 5.7302 0.9507 0.0000 -10577.5821 1399.4516 0.0000 0.0000 1793.5989 -7376.9220 308.9969 -9170.5209 -7376.9220 308.9969 -449.3553 -356.9413 30106.2301 -449.3553 -356.9413
ENERGY: 300000 0.5348 4.7511 0.3744 0.0000 -10766.8404 1520.8584 0.0000 0.0000 1758.7634 -7481.5583 302.9955 -9240.3217 -7461.0458 300.5418 523.5353 629.7713 30086.0274 14.0915 100.4873
ENERGY: 600000 3.5632 6.2111 0.5351 0.0000 -10566.3290 1382.5241 0.0000 0.0000 1748.3219 -7425.1736 301.1967 -9173.4955 -7432.3310 301.3328 -286.4423 -225.2649 30051.8783 -120.3932 -52.3882
ENERGY: 900000 0.3586 8.9011 0.9666 0.0000 -10628.5670 1437.8082 0.0000 0.0000 1756.3823 -7424.1502 302.5853 -9180.5325 -7424.8905 301.4970 270.0223 328.2815 29734.3209 44.8856 113.0928
ENERGY: 1200000 0.8561 4.5190 1.3322 0.0000 -10672.4974 1475.8821 0.0000 0.0000 1761.4619 -7428.4460 303.4604 -9189.9079 -7424.2385 301.2142 119.8300 198.3673 30237.3500 -60.5375 -4.8351
ENERGY: 1500000 0.2049 3.2542 0.3097 0.0000 -10557.2806 1421.9656 0.0000 0.0000 1766.4450 -7365.1012 304.3189 -9131.5462 -7411.9113 301.3097 32.0582 154.0801 29906.3492 -75.8777 -13.6969
TCL: Running FEP window   7: Lambda1 0.6999999999999997 Lambda2 0.6499999999999997 [dLambda -0.050000000000000044]
TCL: Setting parameter firsttimestep to 0
TCL: Setting parameter alchLambda to 0.6999999999999997
Info: NONBONDED TABLE R-SQUARED SPACING: 0.0625
Info: NONBONDED TABLE SIZE: 705 POINTS
TCL: Setting parameter alchLambda2 to 0.6499999999999997
Info: NONBONDED TABLE R-SQUARED SPACING: 0.0625
Info: NONBONDED TABLE SIZE: 705 POINTS
TCL: Running for 1500000 steps
ETITLE: TS BOND ANGLE DIHED IMPRP ELECT VDW BOUNDARY MISC KINETIC TOTAL TEMP POTENTIAL TOTALAVG TEMPAVG PRESSURE GPRESSURE VOLUME PRESSAVG GPRESSAVG
ENERGY: 0 0.2049 3.2542 0.3097 0.0000 -10556.7401 1422.0106 0.0000 0.0000 1765.5680 -7365.3926 304.1678 -9130.9606 -7365.3926 304.1678 52.2579 149.8494 29906.3492 52.2579 149.8494
ENERGY: 300000 0.7621 2.7249 1.1946 0.0000 -10470.1145 1382.3598 0.0000 0.0000 1730.5483 -7352.5247 298.1347 -9083.0730 -7387.9176 300.7576 -363.1736 -292.1213 30169.7563 47.7008 117.7095
ENERGY: 600000 1.2341 3.3793 0.3566 0.0000 -10683.8683 1462.7543 0.0000 0.0000 1729.1128 -7487.0313 297.8874 -9216.1441 -7387.2368 300.5315 178.1532 225.7337 29968.5521 -33.7107 35.9655
ENERGY: 900000 0.1819 4.1702 1.9320 0.0000 -10549.5481 1430.7437 0.0000 0.0000 1736.4790 -7376.0413 299.1565 -9112.5203 -7388.8807 298.4690 112.0060 160.5025 30165.9713 -77.4254 -3.5914
ENERGY: 1200000 0.7781 5.6918 1.9919 0.0000 -10529.9238 1424.9418 0.0000 0.0000 1780.1276 -7316.3927 306.6761 -9096.5203 -7379.4832 299.8252 128.3460 111.0595 30177.0556 -65.5436 -4.4792
ENERGY: 1500000 0.3792 4.9937 0.8143 0.0000 -10541.9902 1385.1577 0.0000 0.0000 1759.2600 -7391.3853 303.0811 -9150.6453 -7390.7435 299.8931 -222.2080 -173.7254 29878.9342 -92.7411 -30.5576
TCL: Running FEP window   8: Lambda1 0.6499999999999997 Lambda2 0.5999999999999996 [dLambda -0.050000000000000044]
TCL: Setting parameter firsttimestep to 0
TCL: Setting parameter alchLambda to 0.6499999999999997
Info: NONBONDED TABLE R-SQUARED SPACING: 0.0625
Info: NONBONDED TABLE SIZE: 705 POINTS
TCL: Setting parameter alchLambda2 to 0.5999999999999996
Info: NONBONDED TABLE R-SQUARED SPACING: 0.0625
Info: NONBONDED TABLE SIZE: 705 POINTS
TCL: Running for 1500000 steps
ETITLE: TS BOND ANGLE DIHED IMPRP ELECT VDW BOUNDARY MISC KINETIC TOTAL TEMP POTENTIAL TOTALAVG TEMPAVG PRESSURE GPRESSURE VOLUME PRESSAVG GPRESSAVG
ENERGY: 0 0.3792 4.9937 0.8143 0.0000 -10541.9891 1385.1493 0.0000 0.0000 1758.3854 -7392.2672 302.9304 -9150.6526 -7392.2672 302.9304 -255.9668 -180.6720 29878.9342 -255.9668 -180.6720
ENERGY: 300000 0.7883 3.3172 0.1652 0.0000 -10520.9191 1419.9687 0.0000 0.0000 1769.4893 -7327.1904 304.8434 -9096.6797 -7385.9240 304.2550 210.6325 225.8172 30131.8579 -234.3509 -175.6348
ENERGY: 600000 1.1333 6.3459 0.7381 0.0000 -10524.5529 1417.9682 0.0000 0.0000 1752.1756 -7346.1918 301.8606 -9098.3674 -7366.8963 302.6383 -11.6432 110.5971 30151.8710 -237.0550 -179.6699
ENERGY: 900000 0.4130 3.9991 0.8337 0.0000 -10487.1272 1326.0618 0.0000 0.0000 1777.2527 -7378.5670 306.1808 -9155.8196 -7384.7591 302.9541 -799.2298 -770.7567 30417.7367 -271.7043 -205.8488
ENERGY: 1200000 0.6987 3.2626 1.6791 0.0000 -10599.2142 1480.4085 0.0000 0.0000 1667.2963 -7445.8691 287.2378 -9113.1654 -7385.9007 301.5368 449.3562 493.4489 30009.3542 -135.5022 -76.1266
ENERGY: 1500000 1.2384 3.2812 0.7688 0.0000 -10552.0402 1441.9004 0.0000 0.0000 1749.1569 -7355.6945 301.3406 -9104.8514 -7381.8352 300.7229 406.7935 469.8102 29704.5009 -108.0320 -46.9491
TCL: Running FEP window   9: Lambda1 0.5999999999999996 Lambda2 0.5499999999999996 [dLambda -0.050000000000000044]
TCL: Setting parameter firsttimestep to 0
TCL: Setting parameter alchLambda to 0.5999999999999996
Info: NONBONDED TABLE R-SQUARED SPACING: 0.0625
Info: NONBONDED TABLE SIZE: 705 POINTS
TCL: Setting parameter alchLambda2 to 0.5499999999999996
Info: NONBONDED TABLE R-SQUARED SPACING: 0.0625
Info: NONBONDED TABLE SIZE: 705 POINTS
TCL: Running for 1500000 steps
ETITLE: TS BOND ANGLE DIHED IMPRP ELECT VDW BOUNDARY MISC KINETIC TOTAL TEMP POTENTIAL TOTALAVG TEMPAVG PRESSURE GPRESSURE VOLUME PRESSAVG GPRESSAVG
ENERGY: 0 1.2384 3.2812 0.7688 0.0000 -10551.7099 1442.1235 0.0000 0.0000 1748.2523 -7356.0457 301.1847 -9104.2980 -7356.0457 301.1847 361.2446 465.5442 29704.5009 361.2446 465.5442
ENERGY: 300000 0.8517 4.2247 2.3759 0.0000 -10344.1529 1272.5268 0.0000 0.0000 1697.9586 -7366.2152 292.5202 -9064.1739 -7394.9002 295.1495 -1068.1560 -1052.0603 30524.7978 -146.7141 -84.5077
ENERGY: 600000 0.0087 5.2210 1.0855 0.0000 -10634.3086 1406.5003 0.0000 0.0000 1779.4590 -7442.0341 306.5609 -9221.4932 -7388.6356 300.2336 -399.4754 -316.8907 30279.9282 -156.4635 -87.9413
ENERGY: 900000 0.2846 3.1003 0.6790 0.0000 -10550.8243 1418.6600 0.0000 0.0000 1750.7923 -7377.3081 301.6223 -9128.1004 -7387.2292 300.7481 175.0158 259.3640 29915.3497 -86.4630 -17.8761
ENERGY: 1200000 2.2293 5.4298 0.6799 0.0000 -10630.1644 1412.9953 0.0000 0.0000 1725.5111 -7483.3189 297.2669 -9208.8300 -7398.0440 301.1299 -387.7195 -291.1461 30081.2744 -242.2819 -170.2082
ENERGY: 1500000 1.0081 5.2184 1.4229 0.0000 -10576.1204 1421.0928 0.0000 0.0000 1757.7829 -7389.5954 302.8266 -9147.3782 -7402.7857 300.8075 -107.1315 -9.7700 30163.9728 -169.9191 -102.6049
TCL: Running FEP window  10: Lambda1 0.5499999999999996 Lambda2 0.4999999999999996 [dLambda -0.04999999999999999]
TCL: Setting parameter firsttimestep to 0
TCL: Setting parameter alchLambda to 0.5499999999999996
Info: NONBONDED TABLE R-SQUARED SPACING: 0.0625
Info: NONBONDED TABLE SIZE: 705 POINTS
TCL: Setting parameter alchLambda2 to 0.4999999999999996
Info: NONBONDED TABLE R-SQUARED SPACING: 0.0625
Info: NONBONDED TABLE SIZE: 705 POINTS
TCL: Running for 1500000 steps
ETITLE: TS BOND ANGLE DIHED IMPRP ELECT VDW BOUNDARY MISC KINETIC TOTAL TEMP POTENTIAL TOTALAVG TEMPAVG PRESSURE GPRESSURE VOLUME PRESSAVG GPRESSAVG
ENERGY: 0 1.0081 5.2184 1.4229 0.0000 -10575.7764 1420.7879 0.0000 0.0000 1756.8714 -7390.4677 302.6696 -9147.3391 -7390.4677 302.6696 -110.3227 -16.0850 30163.9728 -110.3227 -16.0850
ENERGY: 300000 0.7475 6.4396 0.6572 0.0000 -10632.7905 1431.2771 0.0000 0.0000 1730.8157 -7462.8533 298.1808 -9193.6690 -7418.8311 299.7259 -256.3239 -163.2137 30174.4308 -113.4907 -40.2209
ENERGY: 600000 3.2114 5.4058 0.3750 0.0000 -10451.9976 1343.6781 0.0000 0.0000 1750.8471 -7348.4803 301.6317 -9099.3274 -7404.8669 299.6593 -715.5761 -650.1365 30753.8316 -284.9965 -223.0762
ENERGY: 900000 1.2199 3.8244 0.2754 0.0000 -10587.9367 1454.9090 0.0000 0.0000 1755.6279 -7372.0801 302.4554 -9127.7080 -7408.7668 300.4345 341.7345 386.3003 29922.8699 -237.4980 -180.5271
ENERGY: 1200000 0.5598 5.7273 1.9039 0.0000 -10589.7513 1450.3218 0.0000 0.0000 1810.4586 -7320.7800 311.9015 -9131.2386 -7398.7790 301.9595 365.2477 454.7628 29893.1186 -149.8358 -89.5429
ENERGY: 1500000 2.4022 4.6652 1.1458 0.0000 -10685.9105 1464.7131 0.0000 0.0000 1712.3268 -7500.6574 294.9956 -9212.9841 -7404.9874 301.6548 225.0555 217.9912 30009.6912 -118.2305 -60.1075
TCL: Running FEP window  11: Lambda1 0.4999999999999996 Lambda2 0.4499999999999996 [dLambda -0.04999999999999999]
TCL: Setting parameter firsttimestep to 0
TCL: Setting parameter alchLambda to 0.4999999999999996
Info: NONBONDED TABLE R-SQUARED SPACING: 0.0625
Info: NONBONDED TABLE SIZE: 705 POINTS
TCL: Setting parameter alchLambda2 to 0.4499999999999996
Info: NONBONDED TABLE R-SQUARED SPACING: 0.0625
Info: NONBONDED TABLE SIZE: 705 POINTS
TCL: Running for 1500000 steps
ETITLE: TS BOND ANGLE DIHED IMPRP ELECT VDW BOUNDARY MISC KINETIC TOTAL TEMP POTENTIAL TOTALAVG TEMPAVG PRESSURE GPRESSURE VOLUME PRESSAVG GPRESSAVG
ENERGY: 0 2.4022 4.6652 1.1458 0.0000 -10686.0513 1464.1786 0.0000 0.0000 1711.4501 -7502.2094 294.8445 -9213.6595 -7502.2094 294.8445 148.2013 207.9001 30009.6912 148.2013 207.9001
ENERGY: 300000 0.4251 4.3204 0.8530 0.0000 -10513.3501 1393.6657 0.0000 0.0000 1707.3253 -7406.7605 294.1339 -9114.0859 -7421.8724 294.2825 -281.5679 -253.0449 30398.3891 113.2633 158.5692
ENERGY: 600000 0.6469 4.9452 0.8592 0.0000 -10641.1986 1418.9374 0.0000 0.0000 1745.8976 -7469.9123 300.7791 -9215.8099 -7441.7377 295.7768 -11.1087 110.8512 29798.2457 -37.3423 19.2191
ENERGY: 900000 0.1712 4.1691 1.3449 0.0000 -10521.1302 1369.4588 0.0000 0.0000 1788.8815 -7357.1047 308.1842 -9145.9862 -7422.2299 298.7197 -283.0585 -184.1140 29739.6884 -88.8065 -24.9256
ENERGY: 1200000 1.8447 3.8601 0.1719 0.0000 -10504.5003 1339.5894 0.0000 0.0000 1737.9906 -7421.0436 299.4169 -9159.0342 -7419.8529 299.7598 -683.5546 -650.2697 30275.8454 -66.5827 -5.6569
ENERGY: 1500000 1.0406 3.2502 1.4054 0.0000 -10631.5962 1474.0885 0.0000 0.0000 1726.6774 -7425.1341 297.4678 -9151.8115 -7417.9863 299.7843 342.5336 515.3207 29746.2660 -27.2487 39.0839
TCL: Running FEP window  12: Lambda1 0.4499999999999996 Lambda2 0.39999999999999963 [dLambda -0.04999999999999999]
TCL: Setting parameter firsttimestep to 0
TCL: Setting parameter alchLambda to 0.4499999999999996
Info: NONBONDED TABLE R-SQUARED SPACING: 0.0625
Info: NONBONDED TABLE SIZE: 705 POINTS
TCL: Setting parameter alchLambda2 to 0.39999999999999963
Info: NONBONDED TABLE R-SQUARED SPACING: 0.0625
Info: NONBONDED TABLE SIZE: 705 POINTS
TCL: Running for 1500000 steps
ETITLE: TS BOND ANGLE DIHED IMPRP ELECT VDW BOUNDARY MISC KINETIC TOTAL TEMP POTENTIAL TOTALAVG TEMPAVG PRESSURE GPRESSURE VOLUME PRESSAVG GPRESSAVG
ENERGY: 0 1.0406 3.2502 1.4054 0.0000 -10631.5958 1474.3855 0.0000 0.0000 1725.7989 -7425.7152 297.3165 -9151.5141 -7425.7152 297.3165 411.1396 513.0626 29746.2660 411.1396 513.0626
ENERGY: 300000 0.8158 5.0810 0.9508 0.0000 -10742.7332 1461.7028 0.0000 0.0000 1718.2573 -7555.9256 296.0173 -9274.1829 -7404.0786 300.4332 -58.3422 24.6336 30025.0946 295.7607 384.2757
ENERGY: 600000 0.1295 3.5194 1.2677 0.0000 -10649.2353 1458.6710 0.0000 0.0000 1785.8077 -7399.8400 307.6547 -9185.6477 -7396.4080 300.4135 -129.5070 -7.4309 30464.7982 6.9863 100.5020
ENERGY: 900000 0.5448 5.1259 0.7967 0.0000 -10577.0074 1448.9869 0.0000 0.0000 1732.8088 -7388.7442 298.5242 -9121.5530 -7389.5551 300.2510 126.1570 225.8046 30006.7783 43.3026 133.8674
ENERGY: 1200000 0.0868 6.6813 0.3663 0.0000 -10515.7915 1428.1015 0.0000 0.0000 1730.4786 -7350.0771 298.1227 -9080.5557 -7391.2481 299.8710 -10.1555 51.9681 30410.4846 46.2839 130.6781
ENERGY: 1500000 0.9584 6.2271 0.4221 0.0000 -10497.4803 1368.3601 0.0000 0.0000 1710.9612 -7410.5513 294.7603 -9121.5125 -7389.2063 300.2237 -398.8380 -280.1380 29749.6112 55.1946 138.5772
TCL: Running FEP window  13: Lambda1 0.39999999999999963 Lambda2 0.34999999999999964 [dLambda -0.04999999999999999]
TCL: Setting parameter firsttimestep to 0
TCL: Setting parameter alchLambda to 0.39999999999999963
Info: NONBONDED TABLE R-SQUARED SPACING: 0.0625
Info: NONBONDED TABLE SIZE: 705 POINTS
TCL: Setting parameter alchLambda2 to 0.34999999999999964
Info: NONBONDED TABLE R-SQUARED SPACING: 0.0625
Info: NONBONDED TABLE SIZE: 705 POINTS
TCL: Running for 1500000 steps
ETITLE: TS BOND ANGLE DIHED IMPRP ELECT VDW BOUNDARY MISC KINETIC TOTAL TEMP POTENTIAL TOTALAVG TEMPAVG PRESSURE GPRESSURE VOLUME PRESSAVG GPRESSAVG
ENERGY: 0 0.9584 6.2271 0.4221 0.0000 -10497.4785 1367.3040 0.0000 0.0000 1710.0678 -7412.4991 294.6064 -9122.5669 -7412.4991 294.6064 -378.1394 -293.7930 29749.6112 -378.1394 -293.7930
ENERGY: 300000 0.5667 8.4874 1.0333 0.0000 -10654.9277 1521.7242 0.0000 0.0000 1793.9193 -7329.1969 309.0521 -9123.1161 -7355.8279 303.8694 786.8276 893.9748 29928.4436 76.0938 170.3437
ENERGY: 600000 0.4496 6.4236 0.7151 0.0000 -10438.3534 1353.7443 0.0000 0.0000 1779.1257 -7297.8950 306.5035 -9077.0207 -7372.2888 302.3614 -419.3160 -324.3537 30238.5686 100.7770 194.2794
ENERGY: 900000 0.6488 4.4668 2.1462 0.0000 -10448.8649 1282.8310 0.0000 0.0000 1744.9643 -7413.8079 300.6183 -9158.7722 -7383.4350 302.2916 -1197.4957 -1199.2875 30023.5480 2.5857 74.1739
ENERGY: 1200000 0.8496 5.9627 0.5079 0.0000 -10558.6695 1376.1882 0.0000 0.0000 1736.5212 -7438.6399 299.1637 -9175.1610 -7387.6094 301.7964 -416.5435 -430.3066 30133.0779 -67.0536 2.1278
ENERGY: 1500000 1.9472 4.3366 2.0956 0.0000 -10578.3010 1427.2651 0.0000 0.0000 1711.5718 -7431.0846 294.8655 -9142.6565 -7390.1303 301.7656 -126.8382 -72.4355 30168.4286 -115.2402 -43.8162
TCL: Running FEP window  14: Lambda1 0.34999999999999964 Lambda2 0.29999999999999966 [dLambda -0.04999999999999999]
TCL: Setting parameter firsttimestep to 0
TCL: Setting parameter alchLambda to 0.34999999999999964
Info: NONBONDED TABLE R-SQUARED SPACING: 0.0625
Info: NONBONDED TABLE SIZE: 705 POINTS
TCL: Setting parameter alchLambda2 to 0.29999999999999966
Info: NONBONDED TABLE R-SQUARED SPACING: 0.0625
Info: NONBONDED TABLE SIZE: 705 POINTS
TCL: Running for 1500000 steps
ETITLE: TS BOND ANGLE DIHED IMPRP ELECT VDW BOUNDARY MISC KINETIC TOTAL TEMP POTENTIAL TOTALAVG TEMPAVG PRESSURE GPRESSURE VOLUME PRESSAVG GPRESSAVG
ENERGY: 0 1.9472 4.3366 2.0956 0.0000 -10578.3004 1427.6865 0.0000 0.0000 1710.6765 -7431.5581 294.7112 -9142.2346 -7431.5581 294.7112 -165.0555 -73.7719 30168.4286 -165.0555 -73.7719
ENERGY: 300000 0.5942 5.5371 0.8276 0.0000 -10574.3358 1399.4140 0.0000 0.0000 1748.2477 -7419.7153 301.1839 -9167.9630 -7411.0513 301.4315 -308.4649 -204.7562 30200.4171 -365.8129 -301.4805
ENERGY: 600000 1.8734 3.1334 3.3028 0.0000 -10619.1315 1377.4963 0.0000 0.0000 1796.5966 -7436.7290 309.5134 -9233.3256 -7414.2370 302.5269 -479.1912 -465.7875 30000.4916 -148.9499 -87.0629
ENERGY: 900000 1.0858 7.3759 0.7006 0.0000 -10703.4607 1512.4399 0.0000 0.0000 1716.3210 -7465.5376 295.6837 -9181.8586 -7412.7249 302.1332 421.3930 485.6657 30077.6154 -97.0667 -33.2169
ENERGY: 1200000 0.5076 2.7523 1.0236 0.0000 -10697.2093 1461.8171 0.0000 0.0000 1788.3329 -7442.7759 308.0897 -9231.1088 -7416.7474 301.3047 -171.0235 -91.1174 30379.7041 -87.5411 -22.2984
ENERGY: 1500000 0.0792 7.1614 0.6182 0.0000 -10674.2187 1471.6640 0.0000 0.0000 1721.0096 -7473.6861 296.4914 -9194.6958 -7418.5230 300.7464 404.7356 453.3479 29694.3726 -72.0086 -10.5961
TCL: Running FEP window  15: Lambda1 0.29999999999999966 Lambda2 0.24999999999999967 [dLambda -0.04999999999999999]
TCL: Setting parameter firsttimestep to 0
TCL: Setting parameter alchLambda to 0.29999999999999966
Info: NONBONDED TABLE R-SQUARED SPACING: 0.0625
Info: NONBONDED TABLE SIZE: 705 POINTS
TCL: Setting parameter alchLambda2 to 0.24999999999999967
Info: NONBONDED TABLE R-SQUARED SPACING: 0.0625
Info: NONBONDED TABLE SIZE: 705 POINTS
TCL: Running for 1500000 steps
ETITLE: TS BOND ANGLE DIHED IMPRP ELECT VDW BOUNDARY MISC KINETIC TOTAL TEMP POTENTIAL TOTALAVG TEMPAVG PRESSURE GPRESSURE VOLUME PRESSAVG GPRESSAVG
ENERGY: 0 0.0792 7.1614 0.6182 0.0000 -10674.2185 1471.6237 0.0000 0.0000 1720.1435 -7474.5925 296.3422 -9194.7359 -7474.5925 296.3422 356.3922 450.7635 29694.3726 356.3922 450.7635
ENERGY: 300000 0.0945 5.1041 2.0037 0.0000 -10759.1077 1490.4148 0.0000 0.0000 1760.3908 -7501.0998 303.2759 -9261.4906 -7461.0050 302.8875 449.1024 565.4873 29422.4161 344.5841 412.1828
ENERGY: 600000 1.3344 3.8382 0.3896 0.0000 -10578.1060 1410.5289 0.0000 0.0000 1753.1681 -7408.8469 302.0316 -9162.0150 -7457.8222 299.9104 -328.2058 -248.5117 30266.7119 7.1759 72.0473
ENERGY: 900000 0.5276 7.1757 0.1980 0.0000 -10759.7157 1548.8653 0.0000 0.0000 1769.2988 -7433.6503 304.8106 -9202.9491 -7457.3005 299.2986 696.3004 747.5659 30145.3306 54.8219 115.2511
ENERGY: 1200000 1.2154 3.2128 1.4426 0.0000 -10544.0422 1366.8449 0.0000 0.0000 1789.0112 -7382.3153 308.2066 -9171.3265 -7441.7924 300.7862 -395.0022 -354.8337 30137.8134 15.2864 74.4806
ENERGY: 1500000 0.3265 5.4342 0.3421 0.0000 -10607.7917 1485.8051 0.0000 0.0000 1706.1692 -7409.7146 293.9347 -9115.8838 -7434.2812 300.3710 250.4219 295.3491 30405.9675 36.8513 91.2246
TCL: Running FEP window  16: Lambda1 0.24999999999999967 Lambda2 0.19999999999999968 [dLambda -0.04999999999999999]
TCL: Setting parameter firsttimestep to 0
TCL: Setting parameter alchLambda to 0.24999999999999967
Info: NONBONDED TABLE R-SQUARED SPACING: 0.0625
Info: NONBONDED TABLE SIZE: 705 POINTS
TCL: Setting parameter alchLambda2 to 0.19999999999999968
Info: NONBONDED TABLE R-SQUARED SPACING: 0.0625
Info: NONBONDED TABLE SIZE: 705 POINTS
TCL: Running for 1500000 steps
ETITLE: TS BOND ANGLE DIHED IMPRP ELECT VDW BOUNDARY MISC KINETIC TOTAL TEMP POTENTIAL TOTALAVG TEMPAVG PRESSURE GPRESSURE VOLUME PRESSAVG GPRESSAVG
ENERGY: 0 0.3265 5.4342 0.3421 0.0000 -10607.7922 1485.7918 0.0000 0.0000 1705.3133 -7410.5843 293.7873 -9115.8976 -7410.5843 293.7873 211.7550 292.3241 30405.9675 211.7550 292.3241
ENERGY: 300000 0.1568 6.5529 1.2244 0.0000 -10566.8534 1414.5576 0.0000 0.0000 1687.6320 -7456.7296 290.7412 -9144.3616 -7424.9383 295.6904 -214.0052 -161.2005 29978.8177 136.9236 209.4907
ENERGY: 600000 0.1303 3.0820 1.3592 0.0000 -10609.4407 1423.8303 0.0000 0.0000 1746.5778 -7434.4610 300.8962 -9181.0388 -7422.4467 297.4621 -60.9929 -4.1213 29949.8296 28.2591 87.8032
ENERGY: 900000 2.7627 6.1072 1.0315 0.0000 -10626.9853 1431.4597 0.0000 0.0000 1706.0147 -7479.6094 293.9081 -9185.6240 -7423.8652 297.4249 179.1165 230.0706 29232.5414 115.8330 169.4486
ENERGY: 1200000 1.2237 4.1042 1.9944 0.0000 -10627.4037 1440.7742 0.0000 0.0000 1740.6171 -7438.6901 299.8694 -9179.3072 -7404.1400 299.0065 14.1846 46.3828 30115.8924 132.6374 189.5109
ENERGY: 1500000 0.5324 4.1272 1.6374 0.0000 -10435.9733 1355.0972 0.0000 0.0000 1759.4786 -7315.1004 303.1188 -9074.5790 -7407.8606 299.1590 -751.9503 -672.8154 30457.5233 133.1765 191.3676
TCL: Running FEP window  17: Lambda1 0.19999999999999968 Lambda2 0.1499999999999997 [dLambda -0.04999999999999999]
TCL: Setting parameter firsttimestep to 0
TCL: Setting parameter alchLambda to 0.19999999999999968
Info: NONBONDED TABLE R-SQUARED SPACING: 0.0625
Info: NONBONDED TABLE SIZE: 705 POINTS
TCL: Setting parameter alchLambda2 to 0.1499999999999997
Info: NONBONDED TABLE R-SQUARED SPACING: 0.0625
Info: NONBONDED TABLE SIZE: 705 POINTS
TCL: Running for 1500000 steps
ETITLE: TS BOND ANGLE DIHED IMPRP ELECT VDW BOUNDARY MISC KINETIC TOTAL TEMP POTENTIAL TOTALAVG TEMPAVG PRESSURE GPRESSURE VOLUME PRESSAVG GPRESSAVG
ENERGY: 0 0.5324 4.1272 1.6374 0.0000 -10435.9742 1355.4817 0.0000 0.0000 1758.5774 -7315.6181 302.9635 -9074.1954 -7315.6181 302.9635 -751.3571 -672.2504 30457.5233 -751.3571 -672.2504
ENERGY: 300000 0.0955 6.2640 1.6781 0.0000 -10623.0814 1511.7598 0.0000 0.0000 1789.7643 -7313.5196 308.3363 -9103.2839 -7371.8904 304.6438 848.7510 851.9966 29927.0891 52.1414 90.6310
ENERGY: 600000 1.5937 2.0090 0.2489 0.0000 -10474.0363 1383.6703 0.0000 0.0000 1747.3871 -7339.1272 301.0357 -9086.5143 -7373.8052 303.1165 -27.4183 -2.7890 29824.8968 102.6549 157.3489
ENERGY: 900000 0.1578 2.0829 2.4576 0.0000 -10532.0058 1383.6993 0.0000 0.0000 1753.5906 -7390.0175 302.1044 -9143.6081 -7372.1700 304.4005 -226.8064 -219.7774 29864.1631 -84.5050 -35.2616
ENERGY: 1200000 0.7894 8.0720 0.5353 0.0000 -10634.3474 1448.1036 0.0000 0.0000 1792.7714 -7384.0758 308.8544 -9176.8471 -7391.1093 304.4056 -18.0639 97.1502 30234.9439 -3.4686 57.4442
ENERGY: 1500000 1.0809 6.3938 1.3856 0.0000 -10603.7826 1449.7828 0.0000 0.0000 1721.8209 -7423.3186 296.6312 -9145.1395 -7389.2058 303.5868 98.9289 199.6771 29874.7585 -6.7259 44.7396
TCL: Running FEP window  18: Lambda1 0.1499999999999997 Lambda2 0.09999999999999969 [dLambda -0.05 ]
TCL: Setting parameter firsttimestep to 0
TCL: Setting parameter alchLambda to 0.1499999999999997
Info: NONBONDED TABLE R-SQUARED SPACING: 0.0625
Info: NONBONDED TABLE SIZE: 705 POINTS
TCL: Setting parameter alchLambda2 to 0.09999999999999969
Info: NONBONDED TABLE R-SQUARED SPACING: 0.0625
Info: NONBONDED TABLE SIZE: 705 POINTS
TCL: Running for 1500000 steps
ETITLE: TS BOND ANGLE DIHED IMPRP ELECT VDW BOUNDARY MISC KINETIC TOTAL TEMP POTENTIAL TOTALAVG TEMPAVG PRESSURE GPRESSURE VOLUME PRESSAVG GPRESSAVG
ENERGY: 0 1.0809 6.3938 1.3856 0.0000 -10603.7825 1450.0038 0.0000 0.0000 1720.9600 -7423.9584 296.4829 -9144.9184 -7423.9584 296.4829 116.5920 198.6072 29874.7585 116.5920 198.6072
ENERGY: 300000 1.3328 6.0880 1.3996 0.0000 -10413.7991 1308.8717 0.0000 0.0000 1786.7847 -7309.3223 307.8230 -9096.1070 -7371.7549 300.8957 -971.2603 -956.5647 30850.0795 -318.4377 -238.4996
ENERGY: 600000 2.2417 4.5891 0.4840 0.0000 -10508.0466 1374.0106 0.0000 0.0000 1742.9498 -7383.7713 300.2712 -9126.7211 -7376.3592 300.7099 -627.8376 -583.6274 30442.6534 -352.0202 -288.0040
ENERGY: 900000 2.2785 9.6757 0.5431 0.0000 -10617.5573 1454.9695 0.0000 0.0000 1790.6527 -7359.4378 308.4894 -9150.0905 -7380.0348 301.0706 288.5361 343.1739 29849.3914 -203.4298 -140.9366
ENERGY: 1200000 0.1766 7.1211 1.5871 0.0000 -10539.1063 1401.3483 0.0000 0.0000 1763.8368 -7365.0365 303.8696 -9128.8733 -7386.1306 300.7486 -142.5157 -72.8392 30069.0724 -260.6821 -196.7405
ENERGY: 1500000 0.0960 3.6816 0.5737 0.0000 -10657.8456 1479.7443 0.0000 0.0000 1701.1280 -7472.6219 293.0663 -9173.7499 -7396.1836 300.1956 412.3384 451.8668 29790.5417 -258.0261 -192.0746
TCL: Running FEP window  19: Lambda1 0.09999999999999969 Lambda2 0.049999999999999684 [dLambda -0.05 ]
TCL: Setting parameter firsttimestep to 0
TCL: Setting parameter alchLambda to 0.09999999999999969
Info: NONBONDED TABLE R-SQUARED SPACING: 0.0625
Info: NONBONDED TABLE SIZE: 705 POINTS
TCL: Setting parameter alchLambda2 to 0.049999999999999684
Info: NONBONDED TABLE R-SQUARED SPACING: 0.0625
Info: NONBONDED TABLE SIZE: 705 POINTS
TCL: Running for 1500000 steps
ETITLE: TS BOND ANGLE DIHED IMPRP ELECT VDW BOUNDARY MISC KINETIC TOTAL TEMP POTENTIAL TOTALAVG TEMPAVG PRESSURE GPRESSURE VOLUME PRESSAVG GPRESSAVG
ENERGY: 0 0.0960 3.6816 0.5737 0.0000 -10657.8456 1479.8958 0.0000 0.0000 1700.2547 -7473.3439 292.9158 -9173.5986 -7473.3439 292.9158 361.1909 451.7922 29790.5417 361.1909 451.7922
ENERGY: 300000 0.1962 5.5584 1.8655 0.0000 -10699.0985 1520.3928 0.0000 0.0000 1712.4592 -7458.6266 295.0184 -9171.0857 -7435.0070 297.5397 780.7872 840.3341 29857.7518 187.9495 250.3803
ENERGY: 600000 1.7630 6.6427 0.9449 0.0000 -10614.3038 1428.1713 0.0000 0.0000 1749.8739 -7426.9080 301.4641 -9176.7819 -7420.3248 297.7592 51.5891 75.2279 29721.2809 57.1139 106.2979
ENERGY: 900000 0.2028 4.1597 0.2807 0.0000 -10571.7569 1411.7958 0.0000 0.0000 1742.8883 -7412.4297 300.2606 -9155.3180 -7415.4943 299.1859 -265.6199 -284.2602 30262.3081 59.9550 105.2594
ENERGY: 1200000 1.4721 2.6895 0.5565 0.0000 -10587.9128 1423.5938 0.0000 0.0000 1791.0540 -7368.5470 308.5585 -9159.6009 -7398.6512 300.7124 -286.4606 -244.4726 30296.7738 52.5549 95.8420
ENERGY: 1500000 0.5557 2.8568 0.3725 0.0000 -10579.8948 1474.0322 0.0000 0.0000 1743.3197 -7358.7578 300.3350 -9102.0775 -7391.6507 301.1016 431.6773 530.7345 30114.2589 17.0149 66.0884
TCL: Running FEP window  20: Lambda1 0.049999999999999684 Lambda2 0.0    [dLambda -0.049999999999999684]
TCL: Setting parameter firsttimestep to 0
TCL: Setting parameter alchLambda to 0.049999999999999684
Info: NONBONDED TABLE R-SQUARED SPACING: 0.0625
Info: NONBONDED TABLE SIZE: 705 POINTS
TCL: Setting parameter alchLambda2 to 0.0
Info: NONBONDED TABLE R-SQUARED SPACING: 0.0625
Info: NONBONDED TABLE SIZE: 705 POINTS
TCL: Running for 1500000 steps
ETITLE: TS BOND ANGLE DIHED IMPRP ELECT VDW BOUNDARY MISC KINETIC TOTAL TEMP POTENTIAL TOTALAVG TEMPAVG PRESSURE GPRESSURE VOLUME PRESSAVG GPRESSAVG
ENERGY: 0 0.5557 2.8568 0.3725 0.0000 -10579.8947 1474.0111 0.0000 0.0000 1742.4399 -7359.6585 300.1834 -9102.0985 -7359.6585 300.1834 446.8472 529.5038 30114.2589 446.8472 529.5038
ENERGY: 300000 1.2731 3.0294 0.6433 0.0000 -10648.7238 1460.5524 0.0000 0.0000 1789.2641 -7393.9615 308.2501 -9183.2256 -7374.2678 302.5761 -66.9236 -23.5225 30309.7505 81.3883 144.7874
ENERGY: 600000 0.6395 5.7728 1.8550 0.0000 -10636.6938 1444.5119 0.0000 0.0000 1745.3133 -7438.6014 300.6784 -9183.9147 -7384.4449 301.5591 -97.3375 -9.7549 30071.8082 -30.3845 23.0265
ENERGY: 900000 0.7734 3.2992 1.1429 0.0000 -10592.6275 1432.5057 0.0000 0.0000 1711.2923 -7443.6140 294.8173 -9154.9063 -7386.6690 302.7843 65.9679 171.8704 29825.8635 -81.5370 -12.0815
ENERGY: 1200000 0.3007 4.3608 0.6617 0.0000 -10398.7300 1300.8797 0.0000 0.0000 1705.2394 -7387.2877 293.7746 -9092.5271 -7396.0038 301.7835 -742.0448 -657.7303 29666.2194 -186.1941 -114.0883
ENERGY: 1500000 0.1299 6.2326 1.8124 0.0000 -10554.5449 1368.8833 0.0000 0.0000 1781.7763 -7395.7103 306.9602 -9177.4866 -7392.3999 301.3456 -523.6015 -487.4004 30086.7432 -196.2479 -133.4348
TCL: Exiting due to exit command.
