Info: SIMULATION PARAMETERS:
Info: TIMESTEP               2
Info: NUMBER OF STEPS        0
Info: STEPS PER CYCLE        10
Info: PERIODIC CELL BASIS 1  33.0102 0 0
Info: PERIODIC CELL BASIS 2  0 30.4562 0
Info: PERIODIC CELL BASIS 3  0 0 30.8296
Info: PERIODIC CELL CENTER   0 0 0
Info: WRAPPING WATERS AROUND PERIODIC BOUNDARIES ON OUTPUT.
Info: WRAPPING ALL CLUSTERS AROUND PERIODIC BOUNDARIES ON OUTPUT.
Info: FIRST LDB TIMESTEP     50
Info: LAST LDB TIMESTEP     -1
Info: HOM BACKGROUND SCALING 1
Info: PME BACKGROUND SCALING 1
Info: MIN ATOMS PER PATCH    40
Info: EMPTY PATCH LOAD       40 ATOMS
Info: VELOCITY FILE          mobley_4964807_equil.vel
Info: CENTER OF MASS MOVING INITIALLY? NO
Info: DIELECTRIC             1
Info: EXCLUDE                SCALED ONE-FOUR
Info: 1-4 ELECTROSTATICS SCALED BY 0.833333
Info: MODIFIED 1-4 VDW PARAMETERS WILL BE USED
Info: DCD FILENAME           mobley_4964807_prod.dcd
Info: DCD FREQUENCY          100000
Info: DCD FIRST STEP         100000
Info: DCD FILE WILL CONTAIN UNIT CELL DATA
Info: XST FILENAME           mobley_4964807_prod.xst
Info: XST FREQUENCY          100000
Info: NO VELOCITY DCD OUTPUT
Info: NO FORCE DCD OUTPUT
Info: OUTPUT FILENAME        mobley_4964807_prod
Info: BINARY OUTPUT FILES WILL BE USED
Info: RESTART FILENAME       mobley_4964807_prod.restart
Info: RESTART FREQUENCY      100000
Info: BINARY RESTART FILES WILL BE USED
Info: CUTOFF                 9
Info: PAIRLIST DISTANCE      11
Info: PAIRLIST SHRINK RATE   0.01
Info: PAIRLIST GROW RATE     0.01
Info: PAIRLIST TRIGGER       0.3
Info: PAIRLISTS PER CYCLE    2
Info: PAIRLISTS ENABLED
Info: MARGIN                 2
Info: HYDROGEN GROUP CUTOFF  2.5
Info: PATCH DIMENSION        15.5
Info: ENERGY OUTPUT STEPS    100000
Info: ENERGY EVALUATION STEPS    100000
Info: OUTPUT ENERGY PRECISION 4
Info: CROSSTERM ENERGY INCLUDED IN DIHEDRAL
Info: TIMING OUTPUT STEPS    1000000
Info: PRESSURE OUTPUT STEPS  100000
Info: ALCHEMICAL FEP ON
Info: FEP CURRENT LAMBDA VALUE     1
Info: FEP COMPARISON LAMBDA VALUE  0.95
Info: FEP INTRA-ALCHEMICAL NON-BONDED INTERACTIONS WILL BE RETAINED
Info: FEP INTRA-ALCHEMICAL BONDED INTERACTIONS WILL BE RETAINED
Info: FEP VDW SHIFTING COEFFICIENT 5
Info: FEP ELEC. ACTIVE FOR ANNIHILATED PARTICLES BETWEEN LAMBDA = 0 AND LAMBDA = 0.5
Info: FEP ELEC. ACTIVE FOR EXNIHILATED PARTICLES BETWEEN LAMBDA = 0.5 AND LAMBDA = 1
Info: FEP VDW ACTIVE FOR ANNIHILATED PARTICLES BETWEEN LAMBDA = 0 AND LAMBDA = 1
Info: FEP VDW ACTIVE FOR EXNIHILATED PARTICLES BETWEEN LAMBDA = 0 AND LAMBDA = 1
Info: FEP BOND ACTIVE FOR ANNIHILATED PARTICLES BETWEEN LAMBDA = 1 AND LAMBDA = 1
Info: FEP BOND ACTIVE FOR EXNIHILATED PARTICLES BETWEEN LAMBDA = 0 AND LAMBDA = 0
Info: LANGEVIN DYNAMICS ACTIVE
Info: LANGEVIN TEMPERATURE   300
Info: LANGEVIN USING BBK INTEGRATOR
Info: LANGEVIN DAMPING COEFFICIENT IS 1 INVERSE PS
Info: LANGEVIN DYNAMICS APPLIED TO HYDROGENS
Info: LANGEVIN PISTON PRESSURE CONTROL ACTIVE
Info:        TARGET PRESSURE IS 1.01325 BAR
Info:     OSCILLATION PERIOD IS 50 FS
Info:             DECAY TIME IS 25 FS
Info:     PISTON TEMPERATURE IS 300 K
Info:       PRESSURE CONTROL IS GROUP-BASED
Info:    INITIAL STRAIN RATE IS -6.91921e-05 -6.91921e-05 -6.91921e-05
Info:       CELL FLUCTUATION IS ISOTROPIC
Info: PARTICLE MESH EWALD (PME) ACTIVE
Info: PME TOLERANCE               1e-06
Info: PME EWALD COEFFICIENT       0.348832
Info: PME INTERPOLATION ORDER     4
Info: PME GRID DIMENSIONS         36 32 32
Info: PME MAXIMUM GRID SPACING    1
Info: PME CALCULATION WILL BE PERFORMED ON GPU
Info: FULL ELECTROSTATIC EVALUATION FREQUENCY      2
Info: USING VERLET I (r-RESPA) MTS SCHEME.
Info: C1 SPLITTING OF LONG RANGE ELECTROSTATICS
Info: PLACING ATOMS IN PATCHES BY HYDROGEN GROUPS
Info: RIGID BONDS TO HYDROGEN : ALL
Info:         ERROR TOLERANCE : 1e-08
Info:          MAX ITERATIONS : 100
Info: RIGID WATER USING SETTLE ALGORITHM
Info: RANDOM NUMBER SEED     1743896450
Info: USE HYDROGEN BONDS?    NO
Info: Using AMBER format force field!
Info: AMBER PARM FILE        mobley_4964807.prmtop
Info: COORDINATE PDB         mobley_4964807.pdb
Info: Exclusions will be read from PARM file!
Info: SCNB (VDW SCALING)     2
Info: USING ARITHMETIC MEAN TO COMBINE L-J SIGMA PARAMETERS
Info: BINARY COORDINATES     mobley_4964807_equil.coor
Info: SUMMARY OF PARAMETERS:
Info: 9 BONDS
Info: 11 ANGLES
Info:   11 HARMONIC
Info:   0 COSINE-BASED
Info: 7 DIHEDRAL
Info: 0 IMPROPER
Info: 0 CROSSTERM
Info: 0 VDW
Info: 45 VDW_PAIRS
Info: 0 NBTHOLE_PAIRS
Info: To read alchdata from file: mobley_4964807.pdb
Info: To read alchflag data from column: 5
Info: STRUCTURE SUMMARY:
Info: 2974 ATOMS
Info: 2973 BONDS
Info: 19 ANGLES
Info: 28 DIHEDRALS
Info: 0 IMPROPERS
Info: 0 CROSSTERMS
Info: 3009 EXCLUSIONS
Info: 2966 RIGID BONDS
Info: ALCH: 0 ATOMS TO DISAPPEAR IN FINAL STATE
Info: ALCH: 13 ATOMS TO APPEAR IN FINAL STATE
Info: 5956 DEGREES OF FREEDOM
Info: 995 HYDROGEN GROUPS
Info: 4 ATOMS IN LARGEST HYDROGEN GROUP
Info: 995 MIGRATION GROUPS
Info: 4 ATOMS IN LARGEST MIGRATION GROUP
Info: TOTAL MASS = 17900.9 amu
Info: TOTAL CHARGE = -2.23517e-08 e
Info: MASS DENSITY = 0.959051 g/cm^3
Info: ATOM DENSITY = 0.095951 atoms/A^3
Info: ADDED 0 IMPLICIT EXCLUSIONS
Info: NONBONDED TABLE R-SQUARED SPACING: 0.0625
Info: NONBONDED TABLE SIZE: 705 POINTS
Info: REMOVING COM VELOCITY 0.0512726 -0.134715 0.146403
Info: Use 3D box decompostion in PME FFT.
Info: Updated CUDA force table with 4096 elements.
Info: Updated CUDA LJ table with 9 x 9 elements.
Info: Found 15 unique exclusion lists needing 28 bytes
TCL: Running for 1500000 steps
ETITLE: TS BOND ANGLE DIHED IMPRP ELECT VDW BOUNDARY MISC KINETIC TOTAL TEMP POTENTIAL TOTALAVG TEMPAVG PRESSURE GPRESSURE VOLUME PRESSAVG GPRESSAVG
ENERGY: 0 1.8743 6.9877 5.1588 0.0000 -10776.0134 1464.2279 0.0000 0.0000 1759.2113 -7538.5534 297.2718 -9297.7647 -7538.5534 297.2718 -21.6431 65.3140 30995.0010 -21.6431 65.3140
ENERGY: 300000 1.0050 6.6879 6.6914 0.0000 -10798.8287 1402.7141 0.0000 0.0000 1724.7796 -7656.9508 291.4535 -9381.7304 -7583.1360 297.0233 -384.0483 -324.1366 30296.3808 -108.6671 -25.2094
ENERGY: 600000 4.5558 5.8721 4.3705 0.0000 -10756.2068 1391.5703 0.0000 0.0000 1770.8212 -7579.0170 299.2336 -9349.8382 -7564.4377 298.1869 -657.5003 -585.4642 31019.9465 -264.0871 -189.3725
ENERGY: 900000 2.9201 9.6841 5.9238 0.0000 -10712.5713 1458.2963 0.0000 0.0000 1775.6064 -7460.1407 300.0422 -9235.7471 -7532.0581 300.9882 104.9137 205.9348 31081.1829 -300.0241 -233.1470
ENERGY: 1200000 2.1313 5.9046 5.6921 0.0000 -10726.8827 1428.8724 0.0000 0.0000 1738.7369 -7545.5454 293.8120 -9284.2823 -7536.6207 299.6330 -162.5931 -117.4722 30900.8938 -246.7786 -187.1622
ENERGY: 1500000 0.7435 7.4287 6.1095 0.0000 -10894.4291 1495.1178 0.0000 0.0000 1822.0378 -7562.9919 307.8882 -9385.0296 -7533.9024 300.5716 336.9943 409.2153 30493.2917 -192.4844 -125.8871
TCL: Running FEP window   2: Lambda1 0.95   Lambda2 0.8999999999999999 [dLambda -0.050000000000000044]
TCL: Setting parameter firsttimestep to 0
TCL: Setting parameter alchLambda to 0.95
Info: NONBONDED TABLE R-SQUARED SPACING: 0.0625
Info: NONBONDED TABLE SIZE: 705 POINTS
TCL: Setting parameter alchLambda2 to 0.8999999999999999
Info: NONBONDED TABLE R-SQUARED SPACING: 0.0625
Info: NONBONDED TABLE SIZE: 705 POINTS
TCL: Running for 1500000 steps
ETITLE: TS BOND ANGLE DIHED IMPRP ELECT VDW BOUNDARY MISC KINETIC TOTAL TEMP POTENTIAL TOTALAVG TEMPAVG PRESSURE GPRESSURE VOLUME PRESSAVG GPRESSAVG
ENERGY: 0 0.7435 7.4287 6.1095 0.0000 -10893.4262 1494.8907 0.0000 0.0000 1821.1547 -7563.0992 307.7390 -9384.2539 -7563.0992 307.7390 313.3059 393.9137 30493.2917 313.3059 393.9137
ENERGY: 300000 5.6561 7.2627 4.6579 0.0000 -10883.5657 1472.2613 0.0000 0.0000 1769.4624 -7624.2653 299.0040 -9393.7276 -7570.4057 302.3080 140.6520 164.2750 30395.0374 124.3766 186.0518
ENERGY: 600000 1.8214 4.8674 5.5994 0.0000 -10718.6040 1370.6541 0.0000 0.0000 1756.5296 -7579.1320 296.8186 -9335.6616 -7583.5824 300.1141 -748.8940 -605.7667 30676.5312 -29.4817 64.9862
ENERGY: 900000 1.9215 7.9217 3.7114 0.0000 -10728.6876 1393.2986 0.0000 0.0000 1724.9067 -7596.9277 291.4750 -9321.8344 -7579.0568 299.2211 -771.5184 -692.4623 30867.2578 -121.2899 -44.4244
ENERGY: 1200000 4.0131 4.1207 4.6923 0.0000 -10802.0274 1440.1657 0.0000 0.0000 1793.3528 -7555.6828 303.0410 -9349.0356 -7573.0085 300.2999 51.5267 66.9092 30539.8716 -163.4851 -93.1172
ENERGY: 1500000 1.7369 5.2847 6.8082 0.0000 -10761.6569 1432.2610 0.0000 0.0000 1792.6912 -7522.8748 302.9292 -9315.5660 -7576.3844 300.4964 -141.8244 -108.9572 30760.3665 -126.0210 -65.7914
TCL: Running FEP window   3: Lambda1 0.8999999999999999 Lambda2 0.8499999999999999 [dLambda -0.050000000000000044]
TCL: Setting parameter firsttimestep to 0
TCL: Setting parameter alchLambda to 0.8999999999999999
Info: NONBONDED TABLE R-SQUARED SPACING: 0.0625
Info: NONBONDED TABLE SIZE: 705 POINTS
TCL: Setting parameter alchLambda2 to 0.8499999999999999
Info: NONBONDED TABLE R-SQUARED SPACING: 0.0625
Info: NONBONDED TABLE SIZE: 705 POINTS
TCL: Running for 1500000 steps
ETITLE: TS BOND ANGLE DIHED IMPRP ELECT VDW BOUNDARY MISC KINETIC TOTAL TEMP POTENTIAL TOTALAVG TEMPAVG PRESSURE GPRESSURE VOLUME PRESSAVG GPRESSAVG
ENERGY: 0 1.7369 5.2847 6.8082 0.0000 -10760.1777 1432.1613 0.0000 0.0000 1791.8279 -7522.3588 302.7834 -9314.1867 -7522.3588 302.7834 -203.9513 -120.7953 30760.3665 -203.9513 -120.7953
ENERGY: 300000 1.1950 7.6925 5.6933 0.0000 -10924.3407 1523.5549 0.0000 0.0000 1799.8557 -7586.3494 304.1399 -9386.2051 -7565.7094 305.3254 400.1916 432.2414 30547.8393 -58.1824 9.5428
ENERGY: 600000 3.0083 6.8598 5.0788 0.0000 -10607.6222 1331.4804 0.0000 0.0000 1756.7977 -7504.3970 296.8639 -9261.1947 -7556.7026 303.2460 -833.0484 -776.8790 30881.1552 -320.4537 -241.1556
ENERGY: 900000 1.8834 3.4034 3.3095 0.0000 -10780.6049 1421.6812 0.0000 0.0000 1736.3264 -7614.0010 293.4047 -9350.3274 -7564.9917 301.1699 -221.2485 -202.9721 30392.5041 -290.1266 -214.1802
ENERGY: 1200000 0.8933 5.3551 6.5180 0.0000 -10782.9879 1394.9551 0.0000 0.0000 1799.8408 -7575.4255 304.1374 -9375.2663 -7566.7882 300.9906 -522.8746 -492.1683 30904.6390 -287.8369 -225.9270
ENERGY: 1500000 1.2169 6.6400 7.1794 0.0000 -10830.8448 1465.6334 0.0000 0.0000 1803.6505 -7546.5247 304.7811 -9350.1751 -7562.8559 300.8744 144.4559 223.0018 30351.8228 -219.4920 -158.4634
TCL: Running FEP window   4: Lambda1 0.8499999999999999 Lambda2 0.7999999999999998 [dLambda -0.050000000000000044]
TCL: Setting parameter firsttimestep to 0
TCL: Setting parameter alchLambda to 0.8499999999999999
Info: NONBONDED TABLE R-SQUARED SPACING: 0.0625
Info: NONBONDED TABLE SIZE: 705 POINTS
TCL: Setting parameter alchLambda2 to 0.7999999999999998
Info: NONBONDED TABLE R-SQUARED SPACING: 0.0625
Info: NONBONDED TABLE SIZE: 705 POINTS
TCL: Running for 1500000 steps
ETITLE: TS BOND ANGLE DIHED IMPRP ELECT VDW BOUNDARY MISC KINETIC TOTAL TEMP POTENTIAL TOTALAVG TEMPAVG PRESSURE GPRESSURE VOLUME PRESSAVG GPRESSAVG
ENERGY: 0 1.2169 6.6400 7.1794 0.0000 -10830.0326 1466.0984 0.0000 0.0000 1802.7827 -7546.1153 304.6345 -9348.8980 -7546.1153 304.6345 130.8874 219.0930 30351.8228 130.8874 219.0930
ENERGY: 300000 1.5642 5.2331 4.6561 0.0000 -10862.3548 1492.5474 0.0000 0.0000 1723.6494 -7634.7046 291.2625 -9358.3539 -7569.8730 299.5285 426.9771 508.7998 30215.3109 80.2813 139.0296
ENERGY: 600000 2.0616 4.5357 5.1366 0.0000 -10908.3652 1541.5395 0.0000 0.0000 1777.6779 -7577.4139 300.3923 -9355.0918 -7571.3598 298.5146 616.4553 692.6829 30557.8577 230.4575 294.0556
ENERGY: 900000 1.6703 5.4321 5.6907 0.0000 -10678.1823 1399.0530 0.0000 0.0000 1766.6911 -7499.6451 298.5357 -9266.3363 -7546.1595 299.4778 -413.0087 -413.1504 31079.6701 87.7394 140.4555
ENERGY: 1200000 3.4974 7.0797 5.4157 0.0000 -10898.4916 1555.3027 0.0000 0.0000 1736.0083 -7591.1879 293.3509 -9327.1962 -7548.3691 300.1636 782.6305 850.7236 30977.0889 27.4327 85.7989
ENERGY: 1500000 1.8036 7.5351 5.1016 0.0000 -10644.5725 1309.0888 0.0000 0.0000 1771.2649 -7549.7785 299.3086 -9321.0434 -7542.5735 299.9534 -961.1127 -862.7241 30584.5778 -67.3188 -2.0951
TCL: Running FEP window   5: Lambda1 0.7999999999999998 Lambda2 0.7499999999999998 [dLambda -0.050000000000000044]
TCL: Setting parameter firsttimestep to 0
TCL: Setting parameter alchLambda to 0.7999999999999998
Info: NONBONDED TABLE R-SQUARED SPACING: 0.0625
Info: NONBONDED TABLE SIZE: 705 POINTS
TCL: Setting parameter alchLambda2 to 0.7499999999999998
Info: NONBONDED TABLE R-SQUARED SPACING: 0.0625
Info: NONBONDED TABLE SIZE: 705 POINTS
TCL: Running for 1500000 steps
ETITLE: TS BOND ANGLE DIHED IMPRP ELECT VDW BOUNDARY MISC KINETIC TOTAL TEMP POTENTIAL TOTALAVG TEMPAVG PRESSURE GPRESSURE VOLUME PRESSAVG GPRESSAVG
ENERGY: 0 1.8036 7.5351 5.1016 0.0000 -10643.6609 1309.2822 0.0000 0.0000 1770.3671 -7549.5713 299.1569 -9319.9384 -7549.5713 299.1569 -964.5821 -870.4002 30584.5778 -964.5821 -870.4002
ENERGY: 300000 0.3660 2.2676 6.1133 0.0000 -10934.8732 1520.4092 0.0000 0.0000 1793.2617 -7612.4553 303.0256 -9405.7171 -7565.7305 301.3765 393.2210 429.0666 30464.4254 -505.2748 -450.8848
ENERGY: 600000 3.8534 4.9137 7.2047 0.0000 -10734.8406 1365.2000 0.0000 0.0000 1837.6254 -7516.0436 310.5222 -9353.6690 -7570.2225 301.3124 -671.8685 -673.1549 30359.0042 -315.5201 -271.5835
ENERGY: 900000 1.9358 6.5126 5.9521 0.0000 -10632.0010 1352.9726 0.0000 0.0000 1758.9563 -7505.6717 297.2287 -9264.6280 -7550.4384 301.1902 -644.1193 -552.3065 30608.3250 -281.2517 -230.5606
ENERGY: 1200000 1.3393 6.1246 4.4578 0.0000 -10752.3065 1430.6510 0.0000 0.0000 1759.1315 -7550.6022 297.2583 -9309.7337 -7555.9318 300.3816 -78.7072 0.3431 30793.2161 -315.4376 -261.4620
ENERGY: 1500000 4.1312 5.1040 5.2714 0.0000 -10845.7967 1489.7340 0.0000 0.0000 1774.0884 -7567.4677 299.7857 -9341.5561 -7562.8440 299.5414 178.9908 266.2098 30648.7534 -224.6852 -171.0696
TCL: Running FEP window   6: Lambda1 0.7499999999999998 Lambda2 0.6999999999999997 [dLambda -0.050000000000000044]
TCL: Setting parameter firsttimestep to 0
TCL: Setting parameter alchLambda to 0.7499999999999998
Info: NONBONDED TABLE R-SQUARED SPACING: 0.0625
Info: NONBONDED TABLE SIZE: 705 POINTS
TCL: Setting parameter alchLambda2 to 0.6999999999999997
Info: NONBONDED TABLE R-SQUARED SPACING: 0.0625
Info: NONBONDED TABLE SIZE: 705 POINTS
TCL: Running for 1500000 steps
ETITLE: TS BOND ANGLE DIHED IMPRP ELECT VDW BOUNDARY MISC KINETIC TOTAL TEMP POTENTIAL TOTALAVG TEMPAVG PRESSURE GPRESSURE VOLUME PRESSAVG GPRESSAVG
ENERGY: 0 4.1312 5.1040 5.2714 0.0000 -10845.0363 1490.1622 0.0000 0.0000 1773.2091 -7567.1584 299.6371 -9340.3675 -7567.1584 299.6371 180.5313 265.5774 30648.7534 180.5313 265.5774
ENERGY: 300000 4.4309 4.5110 5.8046 0.0000 -10661.2253 1395.4614 0.0000 0.0000 1761.4406 -7489.5767 297.6485 -9251.0173 -7557.5147 294.2645 -317.2631 -275.4738 30829.0902 -89.5360 -26.5287
ENERGY: 600000 2.3732 5.1251 4.6260 0.0000 -10766.6717 1414.6346 0.0000 0.0000 1796.2839 -7543.6289 303.5363 -9339.9128 -7554.9119 295.5285 -236.6521 -147.7493 30543.9806 -72.2474 -15.3571
ENERGY: 900000 4.3502 7.0844 5.5956 0.0000 -10743.6325 1458.1577 0.0000 0.0000 1806.6580 -7461.7865 305.2893 -9268.4446 -7550.7532 297.4593 166.6016 237.4907 30771.1464 -88.9613 -35.9523
ENERGY: 1200000 1.1017 5.5609 5.1949 0.0000 -10749.8645 1411.0171 0.0000 0.0000 1758.5019 -7568.4881 297.1519 -9326.9900 -7547.6788 298.5686 -173.8141 -94.5512 30192.7997 -96.8963 -43.8001
ENERGY: 1500000 6.2743 4.4963 5.3486 0.0000 -10982.9379 1572.6866 0.0000 0.0000 1805.2302 -7588.9020 305.0481 -9394.1322 -7552.2234 299.2527 1091.5323 1118.7762 30178.4206 9.2146 57.9119
TCL: Running FEP window   7: Lambda1 0.6999999999999997 Lambda2 0.6499999999999997 [dLambda -0.050000000000000044]
TCL: Setting parameter firsttimestep to 0
TCL: Setting parameter alchLambda to 0.6999999999999997
Info: NONBONDED TABLE R-SQUARED SPACING: 0.0625
Info: NONBONDED TABLE SIZE: 705 POINTS
TCL: Setting parameter alchLambda2 to 0.6499999999999997
Info: NONBONDED TABLE R-SQUARED SPACING: 0.0625
Info: NONBONDED TABLE SIZE: 705 POINTS
TCL: Running for 1500000 steps
ETITLE: TS BOND ANGLE DIHED IMPRP ELECT VDW BOUNDARY MISC KINETIC TOTAL TEMP POTENTIAL TOTALAVG TEMPAVG PRESSURE GPRESSURE VOLUME PRESSAVG GPRESSAVG
ENERGY: 0 6.2743 4.4963 5.3486 0.0000 -10982.0972 1572.8405 0.0000 0.0000 1804.3638 -7588.7738 304.9017 -9393.1376 -7588.7738 304.9017 1025.8491 1110.2679 30178.4206 1025.8491 1110.2679
ENERGY: 300000 4.7990 6.5451 5.9126 0.0000 -10718.6053 1439.2020 0.0000 0.0000 1777.5100 -7484.6366 300.3639 -9262.1466 -7545.7081 300.6661 139.2934 200.2305 30693.2200 138.9396 221.2818
ENERGY: 600000 1.5115 3.5111 5.6039 0.0000 -10663.8978 1392.1363 0.0000 0.0000 1737.8500 -7523.2849 293.6622 -9261.1349 -7518.4103 300.8939 -198.1506 -104.8493 30466.6358 -5.7963 77.6558
ENERGY: 900000 0.9119 4.1844 5.5633 0.0000 -10768.2854 1447.5119 0.0000 0.0000 1797.4088 -7512.7051 303.7264 -9310.1139 -7526.0278 300.3805 138.8077 163.0018 30583.4813 103.1284 168.7717
ENERGY: 1200000 1.3080 7.0774 5.7988 0.0000 -10825.6169 1452.9939 0.0000 0.0000 1803.5777 -7554.8611 304.7688 -9358.4388 -7533.8743 300.9637 -189.8378 -153.0705 30781.8089 50.2226 110.5758
ENERGY: 1500000 2.8805 7.0644 5.5737 0.0000 -10901.4611 1545.6768 0.0000 0.0000 1716.3080 -7623.9576 290.0220 -9340.2657 -7540.9167 299.3746 744.6782 775.5981 30334.3204 84.9296 143.7735
TCL: Running FEP window   8: Lambda1 0.6499999999999997 Lambda2 0.5999999999999996 [dLambda -0.050000000000000044]
TCL: Setting parameter firsttimestep to 0
TCL: Setting parameter alchLambda to 0.6499999999999997
Info: NONBONDED TABLE R-SQUARED SPACING: 0.0625
Info: NONBONDED TABLE SIZE: 705 POINTS
TCL: Setting parameter alchLambda2 to 0.5999999999999996
Info: NONBONDED TABLE R-SQUARED SPACING: 0.0625
Info: NONBONDED TABLE SIZE: 705 POINTS
TCL: Running for 1500000 steps
ETITLE: TS BOND ANGLE DIHED IMPRP ELECT VDW BOUNDARY MISC KINETIC TOTAL TEMP POTENTIAL TOTALAVG TEMPAVG PRESSURE GPRESSURE VOLUME PRESSAVG GPRESSAVG
ENERGY: 0 2.8805 7.0644 5.5737 0.0000 -10900.6232 1545.1668 0.0000 0.0000 1715.4074 -7624.5304 289.8698 -9339.9378 -7624.5304 289.8698 675.5880 759.9634 30334.3204 675.5880 759.9634
ENERGY: 300000 1.5911 3.1602 4.4309 0.0000 -10731.1424 1332.9372 0.0000 0.0000 1780.2108 -7608.8122 300.8203 -9389.0230 -7559.0555 296.0334 -1184.4660 -1102.9454 30985.3718 -29.5625 45.6359
ENERGY: 600000 3.0018 7.5674 4.8154 0.0000 -10805.6858 1433.1303 0.0000 0.0000 1785.9384 -7571.2326 301.7881 -9357.1710 -7548.4763 299.6873 -437.6491 -337.8603 30733.4689 32.0614 96.2043
ENERGY: 900000 5.7400 5.8941 5.3285 0.0000 -10799.9090 1446.5707 0.0000 0.0000 1749.1824 -7587.1934 295.5771 -9336.3757 -7552.0437 299.2268 -197.5793 -101.6982 30426.1545 -110.4619 -39.4186
ENERGY: 1200000 2.1453 7.5498 5.8321 0.0000 -10776.5162 1437.3466 0.0000 0.0000 1765.1972 -7558.4453 298.2833 -9323.6424 -7540.9229 300.4837 -148.2925 -96.2685 30667.9464 -82.7828 -10.7062
ENERGY: 1500000 0.9150 4.8381 6.7799 0.0000 -10821.2493 1418.4736 0.0000 0.0000 1770.3716 -7619.8712 299.1577 -9390.2428 -7536.8588 300.9266 -114.1196 -70.1857 30168.3246 -106.7559 -33.5921
TCL: Running FEP window   9: Lambda1 0.5999999999999996 Lambda2 0.5499999999999996 [dLambda -0.050000000000000044]
TCL: Setting parameter firsttimestep to 0
TCL: Setting parameter alchLambda to 0.5999999999999996
Info: NONBONDED TABLE R-SQUARED SPACING: 0.0625
Info: NONBONDED TABLE SIZE: 705 POINTS
TCL: Setting parameter alchLambda2 to 0.5499999999999996
Info: NONBONDED TABLE R-SQUARED SPACING: 0.0625
Info: NONBONDED TABLE SIZE: 705 POINTS
TCL: Running for 1500000 steps
ETITLE: TS BOND ANGLE DIHED IMPRP ELECT VDW BOUNDARY MISC KINETIC TOTAL TEMP POTENTIAL TOTALAVG TEMPAVG PRESSURE GPRESSURE VOLUME PRESSAVG GPRESSAVG
ENERGY: 0 0.9150 4.8381 6.7799 0.0000 -10820.8447 1419.0315 0.0000 0.0000 1769.4545 -7619.8258 299.0027 -9389.2803 -7619.8258 299.0027 -160.5880 -74.1605 30168.3246 -160.5880 -74.1605
ENERGY: 300000 1.6164 8.2606 5.8681 0.0000 -10809.6663 1411.5915 0.0000 0.0000 1719.1114 -7663.2182 290.4957 -9382.3297 -7620.3011 295.2641 -366.3013 -395.8765 31050.6856 -9.6326 47.8102
ENERGY: 600000 2.1757 5.0625 4.9288 0.0000 -10696.7690 1406.3292 0.0000 0.0000 1797.4784 -7480.7943 303.7382 -9278.2727 -7589.8848 298.1651 -309.9094 -241.6272 30941.4286 -125.5138 -63.2232
ENERGY: 900000 1.9768 6.7421 4.3362 0.0000 -10863.1951 1495.9362 0.0000 0.0000 1770.7591 -7583.4448 299.2231 -9354.2038 -7586.1259 299.5589 384.4873 476.6480 30524.4996 -99.7893 -31.0873
ENERGY: 1200000 2.4141 4.2239 7.3655 0.0000 -10643.5419 1330.9803 0.0000 0.0000 1737.1869 -7561.3712 293.5501 -9298.5582 -7580.7212 299.2995 -945.7037 -911.7206 30836.4896 -179.3237 -118.4799
ENERGY: 1500000 1.9068 4.2720 6.9180 0.0000 -10921.0400 1581.2288 0.0000 0.0000 1779.9492 -7546.7652 300.7761 -9326.7145 -7572.2683 300.2730 932.3475 942.5571 30527.6536 -150.3546 -90.1647
TCL: Running FEP window  10: Lambda1 0.5499999999999996 Lambda2 0.4999999999999996 [dLambda -0.04999999999999999]
TCL: Setting parameter firsttimestep to 0
TCL: Setting parameter alchLambda to 0.5499999999999996
Info: NONBONDED TABLE R-SQUARED SPACING: 0.0625
Info: NONBONDED TABLE SIZE: 705 POINTS
TCL: Setting parameter alchLambda2 to 0.4999999999999996
Info: NONBONDED TABLE R-SQUARED SPACING: 0.0625
Info: NONBONDED TABLE SIZE: 705 POINTS
TCL: Running for 1500000 steps
ETITLE: TS BOND ANGLE DIHED IMPRP ELECT VDW BOUNDARY MISC KINETIC TOTAL TEMP POTENTIAL TOTALAVG TEMPAVG PRESSURE GPRESSURE VOLUME PRESSAVG GPRESSAVG
ENERGY: 0 1.9068 4.2720 6.9180 0.0000 -10920.7214 1581.0308 0.0000 0.0000 1779.0621 -7547.5317 300.6262 -9326.5938 -7547.5317 300.6262 850.8364 931.6466 30527.6536 850.8364 931.6466
ENERGY: 300000 2.2244 8.2543 6.5434 0.0000 -10755.0599 1360.7700 0.0000 0.0000 1735.3710 -7641.8968 293.2433 -9377.2678 -7584.2146 299.9659 -830.0485 -813.3240 30603.5069 37.9352 91.8846
ENERGY: 600000 2.3619 6.9708 5.2957 0.0000 -10983.9844 1634.4917 0.0000 0.0000 1755.6719 -7579.1923 296.6737 -9334.8643 -7573.8110 299.6190 1432.0997 1477.8848 30602.0229 295.5238 362.8966
ENERGY: 900000 2.3240 3.9304 5.8519 0.0000 -10721.8091 1447.9766 0.0000 0.0000 1774.3509 -7487.3753 299.8301 -9261.7263 -7555.6238 299.4423 180.2068 270.0871 30363.2026 226.2693 291.2542
ENERGY: 1200000 2.2833 6.3066 5.8596 0.0000 -10814.9359 1424.0405 0.0000 0.0000 1800.8378 -7575.6081 304.3058 -9376.4459 -7547.8000 300.4454 -137.9852 4.0325 30196.5373 210.0703 282.4747
ENERGY: 1500000 1.2345 5.1571 7.0774 0.0000 -10774.2878 1458.6421 0.0000 0.0000 1830.0140 -7472.1628 309.2360 -9302.1768 -7543.5846 300.7390 230.9604 279.0417 30324.6635 218.5626 283.7113
TCL: Running FEP window  11: Lambda1 0.4999999999999996 Lambda2 0.4499999999999996 [dLambda -0.04999999999999999]
TCL: Setting parameter firsttimestep to 0
TCL: Setting parameter alchLambda to 0.4999999999999996
Info: NONBONDED TABLE R-SQUARED SPACING: 0.0625
Info: NONBONDED TABLE SIZE: 705 POINTS
TCL: Setting parameter alchLambda2 to 0.4499999999999996
Info: NONBONDED TABLE R-SQUARED SPACING: 0.0625
Info: NONBONDED TABLE SIZE: 705 POINTS
TCL: Running for 1500000 steps
ETITLE: TS BOND ANGLE DIHED IMPRP ELECT VDW BOUNDARY MISC KINETIC TOTAL TEMP POTENTIAL TOTALAVG TEMPAVG PRESSURE GPRESSURE VOLUME PRESSAVG GPRESSAVG
ENERGY: 0 1.2345 5.1571 7.0774 0.0000 -10773.7690 1459.0078 0.0000 0.0000 1829.1693 -7472.1230 309.0933 -9301.2923 -7472.1230 309.0933 205.1424 277.9214 30324.6635 205.1424 277.9214
ENERGY: 300000 2.1488 5.5372 6.1752 0.0000 -10802.5407 1469.9587 0.0000 0.0000 1807.3513 -7511.3695 305.4065 -9318.7208 -7493.7628 306.1055 135.3948 198.5235 30577.4308 87.5863 160.6269
ENERGY: 600000 2.6070 4.8343 5.1335 0.0000 -10720.2890 1385.6497 0.0000 0.0000 1753.2260 -7568.8386 296.2604 -9322.0646 -7525.7996 301.3942 -787.7628 -714.8501 30973.3565 73.8865 126.8029
ENERGY: 900000 2.2113 6.6210 5.1274 0.0000 -10988.4254 1623.3130 0.0000 0.0000 1795.8196 -7555.3331 303.4579 -9351.1527 -7521.5818 301.3937 1695.3284 1798.1215 29727.8373 249.4085 303.0165
ENERGY: 1200000 1.2822 10.2916 5.8061 0.0000 -10731.5411 1456.2841 0.0000 0.0000 1788.0469 -7469.8303 302.1444 -9257.8772 -7507.0996 301.3392 -18.6544 47.9302 30944.2676 283.4875 341.3559
ENERGY: 1500000 3.3883 8.6765 6.2749 0.0000 -10891.7066 1482.2505 0.0000 0.0000 1757.8782 -7633.2382 297.0465 -9391.1164 -7525.4824 300.2166 39.0465 92.9478 30323.9439 222.0936 288.1817
TCL: Running FEP window  12: Lambda1 0.4499999999999996 Lambda2 0.39999999999999963 [dLambda -0.04999999999999999]
TCL: Setting parameter firsttimestep to 0
TCL: Setting parameter alchLambda to 0.4499999999999996
Info: NONBONDED TABLE R-SQUARED SPACING: 0.0625
Info: NONBONDED TABLE SIZE: 705 POINTS
TCL: Setting parameter alchLambda2 to 0.39999999999999963
Info: NONBONDED TABLE R-SQUARED SPACING: 0.0625
Info: NONBONDED TABLE SIZE: 705 POINTS
TCL: Running for 1500000 steps
ETITLE: TS BOND ANGLE DIHED IMPRP ELECT VDW BOUNDARY MISC KINETIC TOTAL TEMP POTENTIAL TOTALAVG TEMPAVG PRESSURE GPRESSURE VOLUME PRESSAVG GPRESSAVG
ENERGY: 0 3.3883 8.6765 6.2749 0.0000 -10891.7063 1482.6079 0.0000 0.0000 1756.9848 -7633.7738 296.8956 -9390.7587 -7633.7738 296.8956 3.4995 90.6881 30323.9439 3.4995 90.6881
ENERGY: 300000 1.8596 6.1765 5.7945 0.0000 -10687.8191 1334.6336 0.0000 0.0000 1812.1814 -7527.1735 306.2227 -9339.3549 -7612.7358 299.2870 -828.9944 -709.9761 30418.3415 -238.0159 -165.2555
ENERGY: 600000 1.1812 4.0795 5.4726 0.0000 -10856.9072 1496.4880 0.0000 0.0000 1825.5146 -7524.1714 308.4757 -9349.6860 -7587.6030 298.3023 625.9877 668.7655 29969.4260 -220.1408 -156.9949
ENERGY: 900000 3.4850 4.7236 4.8844 0.0000 -10743.8253 1459.4812 0.0000 0.0000 1756.5337 -7514.7174 296.8193 -9271.2511 -7559.7612 300.3270 -25.6719 31.8787 31299.6879 -75.6548 -15.9201
ENERGY: 1200000 1.3125 7.0440 6.0064 0.0000 -10777.9387 1463.8988 0.0000 0.0000 1752.1248 -7547.5523 296.0743 -9299.6772 -7552.3141 300.0191 530.8353 497.4977 30039.2555 18.8786 76.4582
ENERGY: 1500000 2.4882 4.8325 5.9356 0.0000 -10923.3804 1521.6174 0.0000 0.0000 1785.5158 -7602.9911 301.7167 -9388.5069 -7564.4072 300.1282 569.0668 609.7155 30190.8082 29.2000 87.0710
TCL: Running FEP window  13: Lambda1 0.39999999999999963 Lambda2 0.34999999999999964 [dLambda -0.04999999999999999]
TCL: Setting parameter firsttimestep to 0
TCL: Setting parameter alchLambda to 0.39999999999999963
Info: NONBONDED TABLE R-SQUARED SPACING: 0.0625
Info: NONBONDED TABLE SIZE: 705 POINTS
TCL: Setting parameter alchLambda2 to 0.34999999999999964
Info: NONBONDED TABLE R-SQUARED SPACING: 0.0625
Info: NONBONDED TABLE SIZE: 705 POINTS
TCL: Running for 1500000 steps
ETITLE: TS BOND ANGLE DIHED IMPRP ELECT VDW BOUNDARY MISC KINETIC TOTAL TEMP POTENTIAL TOTALAVG TEMPAVG PRESSURE GPRESSURE VOLUME PRESSAVG GPRESSAVG
ENERGY: 0 2.4882 4.8325 5.9356 0.0000 -10923.3805 1521.7171 0.0000 0.0000 1784.6736 -7603.7337 301.5744 -9388.4073 -7603.7337 301.5744 524.1510 604.9584 30190.8082 524.1510 604.9584
ENERGY: 300000 2.7995 4.2383 5.3928 0.0000 -10777.0375 1437.8005 0.0000 0.0000 1773.4144 -7553.3920 299.6718 -9326.8064 -7599.0754 298.4488 -80.2666 11.4260 30693.9097 358.8006 410.5889
ENERGY: 600000 4.3638 7.1629 5.0642 0.0000 -10724.2191 1404.2621 0.0000 0.0000 1753.8815 -7549.4847 296.3712 -9303.3662 -7580.0890 297.6794 -162.8428 -104.2226 30284.9998 243.1471 285.4480
ENERGY: 900000 1.7885 8.8440 6.4292 0.0000 -11007.5583 1589.1694 0.0000 0.0000 1794.2602 -7607.0669 303.1944 -9401.3272 -7575.2488 298.4728 746.4165 822.6503 30438.9296 365.5005 407.5963
ENERGY: 1200000 1.6972 5.4011 5.8646 0.0000 -10713.2757 1383.1137 0.0000 0.0000 1846.0999 -7471.0991 311.9542 -9317.1990 -7565.7426 299.9555 -398.7059 -355.3293 30368.7678 253.1196 290.0483
ENERGY: 1500000 2.9810 1.7920 4.5385 0.0000 -10814.3881 1477.5066 0.0000 0.0000 1789.5212 -7538.0488 302.3936 -9327.5700 -7565.0744 299.7994 116.9531 172.5656 30610.7191 201.0242 243.3463
TCL: Running FEP window  14: Lambda1 0.34999999999999964 Lambda2 0.29999999999999966 [dLambda -0.04999999999999999]
TCL: Setting parameter firsttimestep to 0
TCL: Setting parameter alchLambda to 0.34999999999999964
Info: NONBONDED TABLE R-SQUARED SPACING: 0.0625
Info: NONBONDED TABLE SIZE: 705 POINTS
TCL: Setting parameter alchLambda2 to 0.29999999999999966
Info: NONBONDED TABLE R-SQUARED SPACING: 0.0625
Info: NONBONDED TABLE SIZE: 705 POINTS
TCL: Running for 1500000 steps
ETITLE: TS BOND ANGLE DIHED IMPRP ELECT VDW BOUNDARY MISC KINETIC TOTAL TEMP POTENTIAL TOTALAVG TEMPAVG PRESSURE GPRESSURE VOLUME PRESSAVG GPRESSAVG
ENERGY: 0 2.9810 1.7920 4.5385 0.0000 -10814.3857 1477.3285 0.0000 0.0000 1788.6138 -7539.1318 302.2402 -9327.7456 -7539.1318 302.2402 87.4108 166.5625 30610.7191 87.4108 166.5625
ENERGY: 300000 1.2935 6.0499 5.8809 0.0000 -10785.0957 1442.6994 0.0000 0.0000 1752.4798 -7576.6922 296.1343 -9329.1720 -7521.6962 297.5985 -263.1658 -160.7936 30901.2244 -327.1547 -261.6463
ENERGY: 600000 1.2754 8.2837 3.8181 0.0000 -10860.8011 1473.5189 0.0000 0.0000 1823.3279 -7550.5772 308.1062 -9373.9051 -7510.7356 301.5869 -51.6016 -13.8966 30484.3644 -338.2807 -285.1359
ENERGY: 900000 2.0944 9.3622 5.5290 0.0000 -10792.3748 1474.2709 0.0000 0.0000 1755.6990 -7545.4193 296.6783 -9301.1184 -7520.9131 300.5727 201.2779 211.2643 30626.0836 -326.6373 -268.2501
ENERGY: 1200000 1.9263 7.1638 7.2290 0.0000 -10668.6110 1348.4103 0.0000 0.0000 1757.5135 -7546.3681 296.9849 -9303.8816 -7524.4117 299.8377 -752.8641 -682.0123 30598.9889 -347.8105 -287.8460
ENERGY: 1500000 1.6903 7.1160 7.2999 0.0000 -10765.2026 1429.6046 0.0000 0.0000 1817.8883 -7501.6034 307.1870 -9319.4917 -7526.3439 300.2740 -205.7179 -137.4502 30579.1876 -279.8502 -212.0852
TCL: Running FEP window  15: Lambda1 0.29999999999999966 Lambda2 0.24999999999999967 [dLambda -0.04999999999999999]
TCL: Setting parameter firsttimestep to 0
TCL: Setting parameter alchLambda to 0.29999999999999966
Info: NONBONDED TABLE R-SQUARED SPACING: 0.0625
Info: NONBONDED TABLE SIZE: 705 POINTS
TCL: Setting parameter alchLambda2 to 0.24999999999999967
Info: NONBONDED TABLE R-SQUARED SPACING: 0.0625
Info: NONBONDED TABLE SIZE: 705 POINTS
TCL: Running for 1500000 steps
ETITLE: TS BOND ANGLE DIHED IMPRP ELECT VDW BOUNDARY MISC KINETIC TOTAL TEMP POTENTIAL TOTALAVG TEMPAVG PRESSURE GPRESSURE VOLUME PRESSAVG GPRESSAVG
ENERGY: 0 1.6903 7.1160 7.2999 0.0000 -10765.2017 1429.7932 0.0000 0.0000 1816.9895 -7502.3127 307.0352 -9319.3022 -7502.3127 307.0352 -227.9247 -142.7002 30579.1876 -227.9247 -142.7002
ENERGY: 300000 1.7529 7.4798 7.0515 0.0000 -10797.4894 1492.4638 0.0000 0.0000 1759.8941 -7528.8473 297.3872 -9288.7414 -7513.8159 299.1520 111.6721 163.6744 30982.0731 245.0171 322.9146
ENERGY: 600000 4.5839 4.8312 5.4833 0.0000 -10677.9665 1396.5864 0.0000 0.0000 1788.3545 -7478.1271 302.1964 -9266.4816 -7527.3963 299.4273 -181.7397 -163.9557 30494.6936 102.8443 153.9429
ENERGY: 900000 1.6591 4.6380 4.8417 0.0000 -10597.3593 1390.3246 0.0000 0.0000 1841.8042 -7354.0917 311.2284 -9195.8959 -7500.2596 301.2456 -315.9616 -263.2708 31171.5307 36.1664 90.5502
ENERGY: 1200000 0.6461 5.3111 5.3868 0.0000 -10689.4022 1364.8373 0.0000 0.0000 1796.0656 -7517.1553 303.4994 -9313.2209 -7510.3273 301.7457 -468.7250 -391.0330 30253.2188 -41.3090 14.6360
ENERGY: 1500000 0.4770 4.9166 5.8083 0.0000 -10762.5483 1446.3968 0.0000 0.0000 1740.1691 -7564.7803 294.0540 -9304.9494 -7515.6090 301.4723 66.3454 83.9782 30540.2711 -44.7118 10.6019
TCL: Running FEP window  16: Lambda1 0.24999999999999967 Lambda2 0.19999999999999968 [dLambda -0.04999999999999999]
TCL: Setting parameter firsttimestep to 0
TCL: Setting parameter alchLambda to 0.24999999999999967
Info: NONBONDED TABLE R-SQUARED SPACING: 0.0625
Info: NONBONDED TABLE SIZE: 705 POINTS
TCL: Setting parameter alchLambda2 to 0.19999999999999968
Info: NONBONDED TABLE R-SQUARED SPACING: 0.0625
Info: NONBONDED TABLE SIZE: 705 POINTS
TCL: Running for 1500000 steps
ETITLE: TS BOND ANGLE DIHED IMPRP ELECT VDW BOUNDARY MISC KINETIC TOTAL TEMP POTENTIAL TOTALAVG TEMPAVG PRESSURE GPRESSURE VOLUME PRESSAVG GPRESSAVG
ENERGY: 0 0.4770 4.9166 5.8083 0.0000 -10762.5469 1445.7986 0.0000 0.0000 1739.2942 -7566.2521 293.9062 -9305.5463 -7566.2521 293.9062 -5.5003 76.6492 30540.2711 -5.5003 76.6492
ENERGY: 300000 0.9635 3.5904 5.4453 0.0000 -10840.6640 1483.2886 0.0000 0.0000 1823.6881 -7523.6881 308.1671 -9347.3762 -7547.3086 301.4559 148.2737 144.1890 30760.0712 160.0501 190.5689
ENERGY: 600000 3.2678 7.3138 6.3706 0.0000 -10841.0435 1467.5411 0.0000 0.0000 1751.3534 -7605.1967 295.9440 -9356.5501 -7557.9616 300.5398 71.1726 156.6921 30621.2960 85.4784 143.2141
ENERGY: 900000 1.1224 4.8989 8.9939 0.0000 -10801.4456 1424.0183 0.0000 0.0000 1825.9951 -7536.4171 308.5569 -9362.4121 -7560.0660 300.5648 -375.6508 -277.1481 30707.1022 -25.4115 34.7641
ENERGY: 1200000 3.4450 6.5250 5.5481 0.0000 -10628.0158 1390.6569 0.0000 0.0000 1851.4028 -7370.4379 312.8503 -9221.8407 -7541.7596 301.1895 -374.3327 -312.9491 31277.5244 -64.3420 -3.2658
ENERGY: 1500000 1.5894 9.2115 6.5365 0.0000 -10714.4318 1368.9380 0.0000 0.0000 1776.2811 -7551.8753 300.1562 -9328.1564 -7539.0676 301.6873 -752.2100 -664.5272 30856.7815 -107.8209 -40.1022
TCL: Running FEP window  17: Lambda1 0.19999999999999968 Lambda2 0.1499999999999997 [dLambda -0.04999999999999999]
TCL: Setting parameter firsttimestep to 0
TCL: Setting parameter alchLambda to 0.19999999999999968
Info: NONBONDED TABLE R-SQUARED SPACING: 0.0625
Info: NONBONDED TABLE SIZE: 705 POINTS
TCL: Setting parameter alchLambda2 to 0.1499999999999997
Info: NONBONDED TABLE R-SQUARED SPACING: 0.0625
Info: NONBONDED TABLE SIZE: 705 POINTS
TCL: Running for 1500000 steps
ETITLE: TS BOND ANGLE DIHED IMPRP ELECT VDW BOUNDARY MISC KINETIC TOTAL TEMP POTENTIAL TOTALAVG TEMPAVG PRESSURE GPRESSURE VOLUME PRESSAVG GPRESSAVG
ENERGY: 0 1.5894 9.2115 6.5365 0.0000 -10714.4324 1369.1543 0.0000 0.0000 1775.4116 -7552.5291 300.0093 -9327.9406 -7552.5291 300.0093 -755.1035 -666.1283 30856.7815 -755.1035 -666.1283
ENERGY: 300000 1.6088 8.7937 5.2828 0.0000 -10757.0129 1418.1397 0.0000 0.0000 1752.0315 -7571.1564 296.0586 -9323.1879 -7554.7016 301.2980 -540.9855 -466.9461 30914.2645 -289.4208 -244.6252
ENERGY: 600000 2.1302 3.5773 6.1801 0.0000 -10750.0354 1481.0734 0.0000 0.0000 1751.0179 -7506.0565 295.8873 -9257.0744 -7555.5668 299.8157 309.8406 371.8232 30882.4819 -135.5446 -58.6885
ENERGY: 900000 2.4144 9.1316 5.0710 0.0000 -10781.6917 1482.0778 0.0000 0.0000 1774.2152 -7508.7817 299.8071 -9282.9969 -7564.7066 298.4252 140.8201 180.5025 30715.6138 -190.1268 -124.5394
ENERGY: 1200000 1.5046 7.2783 6.8791 0.0000 -10851.5274 1476.0221 0.0000 0.0000 1760.7159 -7599.1275 297.5260 -9359.8434 -7567.0619 298.6549 -7.9118 56.7047 30691.6756 -197.3560 -137.6816
ENERGY: 1500000 2.2443 7.4999 5.0422 0.0000 -10850.3458 1455.2947 0.0000 0.0000 1751.9693 -7628.2954 296.0480 -9380.2648 -7569.5606 298.2747 132.7338 191.2220 30093.0428 -115.1947 -63.4640
TCL: Running FEP window  18: Lambda1 0.1499999999999997 Lambda2 0.09999999999999969 [dLambda -0.05 ]
TCL: Setting parameter firsttimestep to 0
TCL: Setting parameter alchLambda to 0.1499999999999997
Info: NONBONDED TABLE R-SQUARED SPACING: 0.0625
Info: NONBONDED TABLE SIZE: 705 POINTS
TCL: Setting parameter alchLambda2 to 0.09999999999999969
Info: NONBONDED TABLE R-SQUARED SPACING: 0.0625
Info: NONBONDED TABLE SIZE: 705 POINTS
TCL: Running for 1500000 steps
ETITLE: TS BOND ANGLE DIHED IMPRP ELECT VDW BOUNDARY MISC KINETIC TOTAL TEMP POTENTIAL TOTALAVG TEMPAVG PRESSURE GPRESSURE VOLUME PRESSAVG GPRESSAVG
ENERGY: 0 2.2443 7.4999 5.0422 0.0000 -10850.3450 1455.4783 0.0000 0.0000 1751.0612 -7629.0191 295.8946 -9380.0803 -7629.0191 295.8946 94.5837 186.8214 30093.0428 94.5837 186.8214
ENERGY: 300000 1.0282 4.8507 4.8660 0.0000 -10979.3415 1604.9998 0.0000 0.0000 1831.3047 -7532.2922 309.4541 -9363.5969 -7587.1624 300.5209 1107.3352 1131.1955 30525.9747 329.8070 362.2778
ENERGY: 600000 2.9587 8.6737 5.4781 0.0000 -10847.7690 1503.7363 0.0000 0.0000 1753.8167 -7573.1055 296.3602 -9326.9222 -7564.2850 299.6298 454.6883 507.2484 30310.3442 499.9725 543.3366
ENERGY: 900000 3.1336 5.5129 5.9778 0.0000 -10714.2150 1360.0032 0.0000 0.0000 1810.9546 -7528.6330 306.0154 -9339.5875 -7560.1851 300.5836 -733.2453 -707.7242 30478.0161 358.5874 407.9212
ENERGY: 1200000 0.8170 5.3488 6.8617 0.0000 -10951.3435 1580.7537 0.0000 0.0000 1737.6468 -7619.9155 293.6278 -9357.5623 -7561.7442 300.0700 622.9707 702.1243 30844.7478 245.2966 298.9267
ENERGY: 1500000 3.8494 5.8041 6.4169 0.0000 -10686.4105 1340.1175 0.0000 0.0000 1789.2720 -7540.9505 302.3515 -9330.2225 -7558.8467 299.8215 -883.7968 -805.3038 30402.4074 150.3107 201.9049
TCL: Running FEP window  19: Lambda1 0.09999999999999969 Lambda2 0.049999999999999684 [dLambda -0.05 ]
TCL: Setting parameter firsttimestep to 0
TCL: Setting parameter alchLambda to 0.09999999999999969
Info: NONBONDED TABLE R-SQUARED SPACING: 0.0625
Info: NONBONDED TABLE SIZE: 705 POINTS
TCL: Setting parameter alchLambda2 to 0.049999999999999684
Info: NONBONDED TABLE R-SQUARED SPACING: 0.0625
Info: NONBONDED TABLE SIZE: 705 POINTS
TCL: Running for 1500000 steps
ETITLE: TS BOND ANGLE DIHED IMPRP ELECT VDW BOUNDARY MISC KINETIC TOTAL TEMP POTENTIAL TOTALAVG TEMPAVG PRESSURE GPRESSURE VOLUME PRESSAVG GPRESSAVG
ENERGY: 0 3.8494 5.8041 6.4169 0.0000 -10686.4120 1340.1711 0.0000 0.0000 1788.3650 -7541.8054 302.1982 -9330.1704 -7541.8054 302.1982 -909.1642 -807.9413 30402.4074 -909.1642 -807.9413
ENERGY: 300000 0.7132 9.2645 5.6729 0.0000 -10720.5269 1388.0198 0.0000 0.0000 1763.0099 -7553.8466 297.9137 -9316.8565 -7555.4921 298.3454 -545.9399 -450.6834 30663.1979 -467.3027 -376.6799
ENERGY: 600000 2.8119 4.6103 5.2842 0.0000 -10666.2922 1467.2999 0.0000 0.0000 1785.7452 -7400.5408 301.7555 -9186.2859 -7523.8870 298.9191 140.8072 185.2918 31206.0942 -143.7011 -77.3681
ENERGY: 900000 3.6640 5.0550 6.4221 0.0000 -10921.7085 1560.6667 0.0000 0.0000 1803.2576 -7542.6431 304.7147 -9345.9007 -7516.7780 301.3278 904.9626 921.5713 30387.1956 -140.6320 -81.5559
ENERGY: 1200000 1.5708 5.8997 6.5315 0.0000 -10732.7289 1442.4799 0.0000 0.0000 1746.3730 -7529.8740 295.1024 -9276.2470 -7528.8436 299.9962 -246.2258 -184.5538 30858.5090 -121.7067 -57.9464
ENERGY: 1500000 3.3990 7.9067 6.1687 0.0000 -10717.1155 1423.9815 0.0000 0.0000 1768.0906 -7507.5690 298.7722 -9275.6595 -7525.1673 299.2189 -89.4773 -29.4392 30353.8094 -144.2917 -81.0468
TCL: Running FEP window  20: Lambda1 0.049999999999999684 Lambda2 0.0    [dLambda -0.049999999999999684]
TCL: Setting parameter firsttimestep to 0
TCL: Setting parameter alchLambda to 0.049999999999999684
Info: NONBONDED TABLE R-SQUARED SPACING: 0.0625
Info: NONBONDED TABLE SIZE: 705 POINTS
TCL: Setting parameter alchLambda2 to 0.0
Info: NONBONDED TABLE R-SQUARED SPACING: 0.0625
Info: NONBONDED TABLE SIZE: 705 POINTS
TCL: Running for 1500000 steps
ETITLE: TS BOND ANGLE DIHED IMPRP ELECT VDW BOUNDARY MISC KINETIC TOTAL TEMP POTENTIAL TOTALAVG TEMPAVG PRESSURE GPRESSURE VOLUME PRESSAVG GPRESSAVG
ENERGY: 0 3.3990 7.9067 6.1687 0.0000 -10717.1149 1424.0228 0.0000 0.0000 1767.2399 -7508.3778 298.6285 -9275.6176 -7508.3778 298.6285 -108.5309 -29.9149 30353.8094 -108.5309 -29.9149
ENERGY: 300000 2.7102 6.0532 6.0450 0.0000 -10709.3385 1394.7683 0.0000 0.0000 1776.9931 -7522.7687 300.2766 -9299.7618 -7543.3826 300.2932 -306.1656 -294.5115 30395.2316 -13.0694 34.4218
ENERGY: 600000 1.8662 9.8023 5.3695 0.0000 -10905.4734 1505.9094 0.0000 0.0000 1802.4658 -7580.0601 304.5809 -9382.5259 -7538.9943 303.0937 255.5895 280.1935 30598.0111 -23.8728 30.2494
ENERGY: 900000 1.8778 4.9083 5.6300 0.0000 -10627.2417 1404.6920 0.0000 0.0000 1786.5632 -7423.5704 301.8937 -9210.1335 -7521.0943 303.9616 -324.2949 -262.3831 31145.5204 -46.4308 8.9881
ENERGY: 1200000 3.1331 9.0147 5.9828 0.0000 -10776.3985 1430.4161 0.0000 0.0000 1798.2542 -7529.5975 303.8693 -9327.8517 -7523.8425 303.1177 -192.4851 -193.1419 30474.4014 28.2714 79.6903
ENERGY: 1500000 5.5590 6.1942 6.0938 0.0000 -10681.4933 1381.1598 0.0000 0.0000 1736.1235 -7546.3630 293.3704 -9282.4865 -7533.0758 301.6655 -461.4522 -394.1447 30352.6710 -48.9085 2.7742
TCL: Exiting due to exit command.
