Info: SIMULATION PARAMETERS:
Info: TIMESTEP               2
Info: NUMBER OF STEPS        0
Info: STEPS PER CYCLE        10
Info: PERIODIC CELL BASIS 1  31.6625 0 0
Info: PERIODIC CELL BASIS 2  0 30.2245 0
Info: PERIODIC CELL BASIS 3  0 0 32.2739
Info: PERIODIC CELL CENTER   0 0 0
Info: WRAPPING WATERS AROUND PERIODIC BOUNDARIES ON OUTPUT.
Info: WRAPPING ALL CLUSTERS AROUND PERIODIC BOUNDARIES ON OUTPUT.
Info: FIRST LDB TIMESTEP     50
Info: LAST LDB TIMESTEP     -1
Info: HOM BACKGROUND SCALING 1
Info: PME BACKGROUND SCALING 1
Info: MIN ATOMS PER PATCH    40
Info: EMPTY PATCH LOAD       40 ATOMS
Info: VELOCITY FILE          mobley_5708811_equil.vel
Info: CENTER OF MASS MOVING INITIALLY? NO
Info: DIELECTRIC             1
Info: EXCLUDE                SCALED ONE-FOUR
Info: 1-4 ELECTROSTATICS SCALED BY 0.833333
Info: MODIFIED 1-4 VDW PARAMETERS WILL BE USED
Info: DCD FILENAME           mobley_5708811_prod.dcd
Info: DCD FREQUENCY          100000
Info: DCD FIRST STEP         100000
Info: DCD FILE WILL CONTAIN UNIT CELL DATA
Info: XST FILENAME           mobley_5708811_prod.xst
Info: XST FREQUENCY          100000
Info: NO VELOCITY DCD OUTPUT
Info: NO FORCE DCD OUTPUT
Info: OUTPUT FILENAME        mobley_5708811_prod
Info: BINARY OUTPUT FILES WILL BE USED
Info: RESTART FILENAME       mobley_5708811_prod.restart
Info: RESTART FREQUENCY      100000
Info: BINARY RESTART FILES WILL BE USED
Info: CUTOFF                 9
Info: PAIRLIST DISTANCE      11
Info: PAIRLIST SHRINK RATE   0.01
Info: PAIRLIST GROW RATE     0.01
Info: PAIRLIST TRIGGER       0.3
Info: PAIRLISTS PER CYCLE    2
Info: PAIRLISTS ENABLED
Info: MARGIN                 2
Info: HYDROGEN GROUP CUTOFF  2.5
Info: PATCH DIMENSION        15.5
Info: ENERGY OUTPUT STEPS    100000
Info: ENERGY EVALUATION STEPS    100000
Info: OUTPUT ENERGY PRECISION 4
Info: CROSSTERM ENERGY INCLUDED IN DIHEDRAL
Info: TIMING OUTPUT STEPS    1000000
Info: PRESSURE OUTPUT STEPS  100000
Info: ALCHEMICAL FEP ON
Info: FEP CURRENT LAMBDA VALUE     0
Info: FEP COMPARISON LAMBDA VALUE  0.05
Info: FEP INTRA-ALCHEMICAL NON-BONDED INTERACTIONS WILL BE RETAINED
Info: FEP INTRA-ALCHEMICAL BONDED INTERACTIONS WILL BE RETAINED
Info: FEP VDW SHIFTING COEFFICIENT 5
Info: FEP ELEC. ACTIVE FOR ANNIHILATED PARTICLES BETWEEN LAMBDA = 0 AND LAMBDA = 0.5
Info: FEP ELEC. ACTIVE FOR EXNIHILATED PARTICLES BETWEEN LAMBDA = 0.5 AND LAMBDA = 1
Info: FEP VDW ACTIVE FOR ANNIHILATED PARTICLES BETWEEN LAMBDA = 0 AND LAMBDA = 1
Info: FEP VDW ACTIVE FOR EXNIHILATED PARTICLES BETWEEN LAMBDA = 0 AND LAMBDA = 1
Info: FEP BOND ACTIVE FOR ANNIHILATED PARTICLES BETWEEN LAMBDA = 1 AND LAMBDA = 1
Info: FEP BOND ACTIVE FOR EXNIHILATED PARTICLES BETWEEN LAMBDA = 0 AND LAMBDA = 0
Info: LANGEVIN DYNAMICS ACTIVE
Info: LANGEVIN TEMPERATURE   300
Info: LANGEVIN USING BBK INTEGRATOR
Info: LANGEVIN DAMPING COEFFICIENT IS 1 INVERSE PS
Info: LANGEVIN DYNAMICS APPLIED TO HYDROGENS
Info: LANGEVIN PISTON PRESSURE CONTROL ACTIVE
Info:        TARGET PRESSURE IS 1.01325 BAR
Info:     OSCILLATION PERIOD IS 50 FS
Info:             DECAY TIME IS 25 FS
Info:     PISTON TEMPERATURE IS 300 K
Info:       PRESSURE CONTROL IS GROUP-BASED
Info:    INITIAL STRAIN RATE IS -0.000399795 -0.000399795 -0.000399795
Info:       CELL FLUCTUATION IS ISOTROPIC
Info: PARTICLE MESH EWALD (PME) ACTIVE
Info: PME TOLERANCE               1e-06
Info: PME EWALD COEFFICIENT       0.348832
Info: PME INTERPOLATION ORDER     4
Info: PME GRID DIMENSIONS         32 32 36
Info: PME MAXIMUM GRID SPACING    1
Info: PME CALCULATION WILL BE PERFORMED ON GPU
Info: FULL ELECTROSTATIC EVALUATION FREQUENCY      2
Info: USING VERLET I (r-RESPA) MTS SCHEME.
Info: C1 SPLITTING OF LONG RANGE ELECTROSTATICS
Info: PLACING ATOMS IN PATCHES BY HYDROGEN GROUPS
Info: RIGID BONDS TO HYDROGEN : ALL
Info:         ERROR TOLERANCE : 1e-08
Info:          MAX ITERATIONS : 100
Info: RIGID WATER USING SETTLE ALGORITHM
Info: RANDOM NUMBER SEED     1743865186
Info: USE HYDROGEN BONDS?    NO
Info: Using AMBER format force field!
Info: AMBER PARM FILE        mobley_5708811.prmtop
Info: COORDINATE PDB         mobley_5708811.pdb
Info: Exclusions will be read from PARM file!
Info: SCNB (VDW SCALING)     2
Info: USING ARITHMETIC MEAN TO COMBINE L-J SIGMA PARAMETERS
Info: BINARY COORDINATES     mobley_5708811_equil.coor
Info: SUMMARY OF PARAMETERS:
Info: 12 BONDS
Info: 12 ANGLES
Info:   12 HARMONIC
Info:   0 COSINE-BASED
Info: 7 DIHEDRAL
Info: 0 IMPROPER
Info: 0 CROSSTERM
Info: 0 VDW
Info: 55 VDW_PAIRS
Info: 0 NBTHOLE_PAIRS
Info: To read alchdata from file: mobley_5708811.pdb
Info: To read alchflag data from column: 5
Info: STRUCTURE SUMMARY:
Info: 2989 ATOMS
Info: 2989 BONDS
Info: 29 ANGLES
Info: 43 DIHEDRALS
Info: 0 IMPROPERS
Info: 0 CROSSTERMS
Info: 3050 EXCLUSIONS
Info: 2976 RIGID BONDS
Info: ALCH: 0 ATOMS TO DISAPPEAR IN FINAL STATE
Info: ALCH: 19 ATOMS TO APPEAR IN FINAL STATE
Info: 5991 DEGREES OF FREEDOM
Info: 1003 HYDROGEN GROUPS
Info: 4 ATOMS IN LARGEST HYDROGEN GROUP
Info: 1003 MIGRATION GROUPS
Info: 4 ATOMS IN LARGEST MIGRATION GROUP
Info: TOTAL MASS = 18056.9 amu
Info: TOTAL CHARGE = -0.000100004 e
Info: MASS DENSITY = 0.970835 g/cm^3
Info: ATOM DENSITY = 0.0967764 atoms/A^3
Info: ADDED 0 IMPLICIT EXCLUSIONS
Info: NONBONDED TABLE R-SQUARED SPACING: 0.0625
Info: NONBONDED TABLE SIZE: 705 POINTS
Info: REMOVING COM VELOCITY 0.3205 -0.11938 0.0192383
Info: Use 3D box decompostion in PME FFT.
Info: Updated CUDA force table with 4096 elements.
Info: Updated CUDA LJ table with 10 x 10 elements.
Info: Found 21 unique exclusion lists needing 56 bytes
TCL: Running for 1500000 steps
ETITLE: TS BOND ANGLE DIHED IMPRP ELECT VDW BOUNDARY MISC KINETIC TOTAL TEMP POTENTIAL TOTALAVG TEMPAVG PRESSURE GPRESSURE VOLUME PRESSAVG GPRESSAVG
ENERGY: 0 3.9507 7.5451 16.0716 0.0000 -10808.0640 1512.1310 0.0000 0.0000 1810.0639 -7458.3017 304.0780 -9268.3657 -7458.3017 304.0780 464.3755 540.1232 30885.6156 464.3755 540.1232
ENERGY: 300000 5.0152 7.4667 16.7027 0.0000 -10788.9580 1369.4750 0.0000 0.0000 1796.6956 -7593.6028 301.8322 -9390.2984 -7528.4240 301.5380 -482.4168 -500.8030 30306.9112 -79.5440 -27.2819
ENERGY: 600000 4.8900 5.1855 22.7052 0.0000 -10744.7934 1390.9276 0.0000 0.0000 1753.4950 -7567.5902 294.5748 -9321.0852 -7543.5840 299.5714 -550.3999 -500.2897 30821.0990 -66.5757 -14.3907
ENERGY: 900000 3.4416 6.6231 15.3973 0.0000 -10864.1163 1466.4654 0.0000 0.0000 1813.8427 -7558.3463 304.7128 -9372.1889 -7556.4877 299.3089 60.0136 91.4347 30718.3431 39.2351 90.0140
ENERGY: 1200000 1.6525 7.3781 15.6047 0.0000 -10924.2073 1489.5114 0.0000 0.0000 1786.5416 -7623.5189 300.1264 -9410.0605 -7555.6794 300.5409 167.4329 201.7123 30340.2629 104.3656 153.4741
ENERGY: 1500000 4.6892 6.5342 17.6108 0.0000 -10900.7458 1474.4698 0.0000 0.0000 1771.3879 -7626.0539 297.5807 -9397.4418 -7574.0158 299.8331 -191.8590 -70.2307 30657.3956 102.4117 164.5742
TCL: Running FEP window   2: Lambda1 0.05   Lambda2 0.1    [dLambda 0.05  ]
TCL: Setting parameter firsttimestep to 0
TCL: Setting parameter alchLambda to 0.05
Info: NONBONDED TABLE R-SQUARED SPACING: 0.0625
Info: NONBONDED TABLE SIZE: 705 POINTS
TCL: Setting parameter alchLambda2 to 0.1
Info: NONBONDED TABLE R-SQUARED SPACING: 0.0625
Info: NONBONDED TABLE SIZE: 705 POINTS
TCL: Running for 1500000 steps
ETITLE: TS BOND ANGLE DIHED IMPRP ELECT VDW BOUNDARY MISC KINETIC TOTAL TEMP POTENTIAL TOTALAVG TEMPAVG PRESSURE GPRESSURE VOLUME PRESSAVG GPRESSAVG
ENERGY: 0 4.6892 6.5342 17.6108 0.0000 -10900.7452 1478.9335 0.0000 0.0000 1770.4713 -7622.5062 297.4267 -9392.9776 -7622.5062 297.4267 -150.5651 -60.2632 30657.3956 -150.5651 -60.2632
ENERGY: 300000 2.4538 8.1149 13.2120 0.0000 -10855.3748 1413.5087 0.0000 0.0000 1778.8827 -7639.2026 298.8398 -9418.0853 -7609.2669 297.6375 -651.0399 -592.6969 30890.5140 -267.9103 -197.6539
ENERGY: 600000 2.6724 7.0333 18.3156 0.0000 -10827.3437 1351.4763 0.0000 0.0000 1798.6428 -7649.2033 302.1593 -9447.8461 -7622.1291 298.6113 -1148.6443 -1087.0485 30745.6558 -310.9820 -256.3039
ENERGY: 900000 3.1217 7.3469 12.8842 0.0000 -10741.1316 1392.3827 0.0000 0.0000 1805.3437 -7520.0522 303.2850 -9325.3959 -7605.4204 298.8574 -485.8377 -454.9910 30849.0960 -317.0925 -260.6603
ENERGY: 1200000 5.8995 9.3955 20.4761 0.0000 -10841.9387 1436.7046 0.0000 0.0000 1833.0233 -7536.4397 307.9350 -9369.4629 -7603.2280 299.5148 -479.4380 -398.3576 30657.9338 -240.1578 -180.1328
ENERGY: 1500000 4.9795 7.9374 18.7403 0.0000 -10835.3307 1435.2225 0.0000 0.0000 1775.5838 -7592.8672 298.2856 -9368.4510 -7597.2622 299.9646 19.7938 69.4838 30496.9891 -252.5291 -193.7229
TCL: Running FEP window   3: Lambda1 0.1    Lambda2 0.15000000000000002 [dLambda 0.05000000000000002]
TCL: Setting parameter firsttimestep to 0
TCL: Setting parameter alchLambda to 0.1
Info: NONBONDED TABLE R-SQUARED SPACING: 0.0625
Info: NONBONDED TABLE SIZE: 705 POINTS
TCL: Setting parameter alchLambda2 to 0.15000000000000002
Info: NONBONDED TABLE R-SQUARED SPACING: 0.0625
Info: NONBONDED TABLE SIZE: 705 POINTS
TCL: Running for 1500000 steps
ETITLE: TS BOND ANGLE DIHED IMPRP ELECT VDW BOUNDARY MISC KINETIC TOTAL TEMP POTENTIAL TOTALAVG TEMPAVG PRESSURE GPRESSURE VOLUME PRESSAVG GPRESSAVG
ENERGY: 0 4.9795 7.9375 18.7403 0.0000 -10835.3313 1437.7528 0.0000 0.0000 1774.6542 -7591.2671 298.1294 -9365.9213 -7591.2671 298.1294 4.7905 81.2294 30496.9891 4.7905 81.2294
ENERGY: 300000 5.0235 4.1527 19.3510 0.0000 -10742.9162 1379.1948 0.0000 0.0000 1766.7000 -7568.4942 296.7932 -9335.1942 -7563.9592 300.1050 -577.7885 -401.3609 30659.7705 -72.6749 6.7034
ENERGY: 600000 4.0856 9.8588 17.3779 0.0000 -10854.5523 1411.6874 0.0000 0.0000 1822.9411 -7588.6015 306.2413 -9411.5426 -7584.4660 301.8853 -239.4742 -157.1440 30394.2395 -11.2949 61.5877
ENERGY: 900000 4.8585 19.9569 16.6311 0.0000 -10798.6680 1384.6107 0.0000 0.0000 1790.0722 -7582.5387 300.7195 -9372.6109 -7596.8672 301.2949 -804.4970 -636.4606 30802.3219 -96.3681 -14.4326
ENERGY: 1200000 5.5663 7.4613 14.9073 0.0000 -11012.4233 1524.6740 0.0000 0.0000 1746.8851 -7712.9293 293.4644 -9459.8143 -7597.0949 301.6548 416.1378 432.1008 30191.6793 -7.2243 59.9355
ENERGY: 1500000 10.5817 14.1101 10.5850 0.0000 -10845.7747 1497.4708 0.0000 0.0000 1751.4712 -7561.5558 294.2348 -9313.0270 -7588.4318 300.9622 237.3840 354.2569 30491.9003 20.0887 93.5436
TCL: Running FEP window   4: Lambda1 0.15000000000000002 Lambda2 0.2    [dLambda 0.04999999999999999]
TCL: Setting parameter firsttimestep to 0
TCL: Setting parameter alchLambda to 0.15000000000000002
Info: NONBONDED TABLE R-SQUARED SPACING: 0.0625
Info: NONBONDED TABLE SIZE: 705 POINTS
TCL: Setting parameter alchLambda2 to 0.2
Info: NONBONDED TABLE R-SQUARED SPACING: 0.0625
Info: NONBONDED TABLE SIZE: 705 POINTS
TCL: Running for 1500000 steps
ETITLE: TS BOND ANGLE DIHED IMPRP ELECT VDW BOUNDARY MISC KINETIC TOTAL TEMP POTENTIAL TOTALAVG TEMPAVG PRESSURE GPRESSURE VOLUME PRESSAVG GPRESSAVG
ENERGY: 0 10.5817 14.1101 10.5850 0.0000 -10845.7754 1498.9326 0.0000 0.0000 1750.6243 -7560.9417 294.0925 -9311.5660 -7560.9417 294.0925 286.6317 367.1565 30491.9003 286.6317 367.1565
ENERGY: 300000 6.4675 7.9926 14.5216 0.0000 -10836.2886 1423.5196 0.0000 0.0000 1798.7570 -7585.0302 302.1785 -9383.7872 -7573.7724 303.4653 -313.3821 -263.8317 30784.4239 -53.4532 18.0682
ENERGY: 600000 4.6031 5.8509 16.5915 0.0000 -10876.6070 1457.7620 0.0000 0.0000 1807.6236 -7584.1760 303.6680 -9391.7996 -7569.5362 303.1331 -336.4756 -223.7976 31366.2254 5.9938 87.2464
ENERGY: 900000 4.4189 8.3553 19.3952 0.0000 -10917.2248 1501.0890 0.0000 0.0000 1813.2704 -7570.6960 304.6166 -9383.9664 -7573.9520 302.1236 -37.6291 -4.9866 30960.7613 -84.5551 -13.4201
ENERGY: 1200000 3.0286 8.5162 20.0470 0.0000 -10856.4261 1461.6657 0.0000 0.0000 1790.6101 -7572.5584 300.8099 -9363.1685 -7567.3602 301.7340 -36.4568 37.8607 30868.1548 -17.0490 56.5996
ENERGY: 1500000 3.6049 7.8726 20.5509 0.0000 -10787.9742 1434.3973 0.0000 0.0000 1793.1378 -7528.4106 301.2345 -9321.5484 -7563.9494 302.1967 -405.8000 -295.1977 31014.1250 -5.5131 71.4242
TCL: Running FEP window   5: Lambda1 0.2    Lambda2 0.25   [dLambda 0.04999999999999999]
TCL: Setting parameter firsttimestep to 0
TCL: Setting parameter alchLambda to 0.2
Info: NONBONDED TABLE R-SQUARED SPACING: 0.0625
Info: NONBONDED TABLE SIZE: 705 POINTS
TCL: Setting parameter alchLambda2 to 0.25
Info: NONBONDED TABLE R-SQUARED SPACING: 0.0625
Info: NONBONDED TABLE SIZE: 705 POINTS
TCL: Running for 1500000 steps
ETITLE: TS BOND ANGLE DIHED IMPRP ELECT VDW BOUNDARY MISC KINETIC TOTAL TEMP POTENTIAL TOTALAVG TEMPAVG PRESSURE GPRESSURE VOLUME PRESSAVG GPRESSAVG
ENERGY: 0 3.6049 7.8726 20.5509 0.0000 -10787.9771 1434.3394 0.0000 0.0000 1792.2267 -7529.3827 301.0815 -9321.6093 -7529.3827 301.0815 -390.8041 -291.5813 31014.1250 -390.8041 -291.5813
ENERGY: 300000 2.4275 5.3824 17.9862 0.0000 -10976.6911 1484.4312 0.0000 0.0000 1798.4678 -7667.9959 302.1299 -9466.4638 -7605.9555 299.3616 169.0654 238.2986 30324.9513 -16.6770 31.6471
ENERGY: 600000 6.4364 10.3326 17.8164 0.0000 -10810.5024 1397.9715 0.0000 0.0000 1802.8435 -7575.1020 302.8650 -9377.9454 -7592.7239 299.3690 -524.0168 -403.1868 30643.2820 -262.8406 -204.0602
ENERGY: 900000 4.0333 6.1458 14.1693 0.0000 -10914.1832 1459.6594 0.0000 0.0000 1785.0852 -7645.0902 299.8817 -9430.1754 -7600.5498 299.1698 -1.0619 25.2423 30601.3559 -277.6955 -221.6767
ENERGY: 1200000 3.4398 8.9079 18.4392 0.0000 -10866.5324 1541.6739 0.0000 0.0000 1776.7293 -7517.3424 298.4780 -9294.0716 -7590.6984 299.0483 686.1865 748.4376 30858.9693 -159.9089 -108.8953
ENERGY: 1500000 2.4714 9.0096 16.0891 0.0000 -10937.4693 1484.5378 0.0000 0.0000 1790.0201 -7635.3414 300.7108 -9425.3615 -7591.0990 298.7357 138.3816 145.5962 30623.9639 -133.8525 -84.8773
TCL: Running FEP window   6: Lambda1 0.25   Lambda2 0.3    [dLambda 0.04999999999999999]
TCL: Setting parameter firsttimestep to 0
TCL: Setting parameter alchLambda to 0.25
Info: NONBONDED TABLE R-SQUARED SPACING: 0.0625
Info: NONBONDED TABLE SIZE: 705 POINTS
TCL: Setting parameter alchLambda2 to 0.3
Info: NONBONDED TABLE R-SQUARED SPACING: 0.0625
Info: NONBONDED TABLE SIZE: 705 POINTS
TCL: Running for 1500000 steps
ETITLE: TS BOND ANGLE DIHED IMPRP ELECT VDW BOUNDARY MISC KINETIC TOTAL TEMP POTENTIAL TOTALAVG TEMPAVG PRESSURE GPRESSURE VOLUME PRESSAVG GPRESSAVG
ENERGY: 0 2.4714 9.0096 16.0891 0.0000 -10937.4691 1484.8666 0.0000 0.0000 1789.1841 -7635.8482 300.5703 -9425.0323 -7635.8482 300.5703 83.9055 154.7906 30623.9639 83.9055 154.7906
ENERGY: 300000 4.7241 12.8393 13.1654 0.0000 -10810.8917 1416.9629 0.0000 0.0000 1749.7027 -7613.4973 293.9377 -9363.2000 -7632.7074 298.7073 -434.8837 -425.8699 30999.1574 -301.9933 -236.1708
ENERGY: 600000 3.5575 7.6682 18.0914 0.0000 -10960.0243 1584.3162 0.0000 0.0000 1781.1795 -7565.2115 299.2256 -9346.3910 -7621.1490 298.8320 1212.8686 1185.9813 30960.0332 152.3824 207.6179
ENERGY: 900000 4.7961 6.9045 18.0812 0.0000 -10769.5724 1434.5497 0.0000 0.0000 1783.6749 -7521.5659 299.6448 -9305.2408 -7591.7245 299.8306 -134.3891 -53.5393 31002.8138 41.2182 102.5279
ENERGY: 1200000 3.8178 8.3627 15.4186 0.0000 -10748.7602 1360.6910 0.0000 0.0000 1799.8557 -7560.6143 302.3631 -9360.4700 -7583.8558 300.3229 -683.6474 -662.0031 30883.3038 -6.4778 50.6787
ENERGY: 1500000 3.4465 16.0219 18.4232 0.0000 -10918.8380 1517.4153 0.0000 0.0000 1798.5519 -7564.9792 302.1440 -9363.5310 -7579.3465 301.3255 498.5205 522.9599 30806.3395 90.5254 153.8919
TCL: Running FEP window   7: Lambda1 0.3    Lambda2 0.35   [dLambda 0.04999999999999999]
TCL: Setting parameter firsttimestep to 0
TCL: Setting parameter alchLambda to 0.3
Info: NONBONDED TABLE R-SQUARED SPACING: 0.0625
Info: NONBONDED TABLE SIZE: 705 POINTS
TCL: Setting parameter alchLambda2 to 0.35
Info: NONBONDED TABLE R-SQUARED SPACING: 0.0625
Info: NONBONDED TABLE SIZE: 705 POINTS
TCL: Running for 1500000 steps
ETITLE: TS BOND ANGLE DIHED IMPRP ELECT VDW BOUNDARY MISC KINETIC TOTAL TEMP POTENTIAL TOTALAVG TEMPAVG PRESSURE GPRESSURE VOLUME PRESSAVG GPRESSAVG
ENERGY: 0 3.4465 16.0219 18.4232 0.0000 -10918.8370 1518.4414 0.0000 0.0000 1797.6936 -7564.8103 301.9999 -9362.5039 -7564.8103 301.9999 461.1797 537.4311 30806.3395 461.1797 537.4311
ENERGY: 300000 5.2768 13.1069 16.6406 0.0000 -11005.3216 1549.4218 0.0000 0.0000 1761.0722 -7659.8033 295.8477 -9420.8755 -7617.1190 296.8321 632.7058 668.6509 30463.6207 305.2526 331.6264
ENERGY: 600000 3.5365 7.5651 17.1383 0.0000 -10867.6940 1489.4352 0.0000 0.0000 1819.9848 -7530.0341 305.7446 -9350.0189 -7593.0551 298.3259 355.3405 362.3229 30935.4667 279.8483 322.3319
ENERGY: 900000 3.8466 17.4983 18.3723 0.0000 -10975.0209 1493.7228 0.0000 0.0000 1798.3677 -7643.2132 302.1131 -9441.5810 -7598.3958 298.3296 -6.5374 10.5988 30733.7286 173.5832 221.5703
ENERGY: 1200000 1.7282 7.6145 18.8601 0.0000 -10932.2991 1502.1899 0.0000 0.0000 1740.5767 -7661.3297 292.4046 -9401.9064 -7607.4685 298.4001 439.8743 533.2352 30232.8146 127.5962 175.7138
ENERGY: 1500000 2.9387 6.3342 14.6706 0.0000 -10883.8879 1424.2985 0.0000 0.0000 1823.8601 -7611.7858 306.3957 -9435.6460 -7605.2781 299.0674 -699.2738 -641.6701 31141.0310 42.6198 94.5484
TCL: Running FEP window   8: Lambda1 0.35   Lambda2 0.39999999999999997 [dLambda 0.04999999999999999]
TCL: Setting parameter firsttimestep to 0
TCL: Setting parameter alchLambda to 0.35
Info: NONBONDED TABLE R-SQUARED SPACING: 0.0625
Info: NONBONDED TABLE SIZE: 705 POINTS
TCL: Setting parameter alchLambda2 to 0.39999999999999997
Info: NONBONDED TABLE R-SQUARED SPACING: 0.0625
Info: NONBONDED TABLE SIZE: 705 POINTS
TCL: Running for 1500000 steps
ETITLE: TS BOND ANGLE DIHED IMPRP ELECT VDW BOUNDARY MISC KINETIC TOTAL TEMP POTENTIAL TOTALAVG TEMPAVG PRESSURE GPRESSURE VOLUME PRESSAVG GPRESSAVG
ENERGY: 0 2.9387 6.3342 14.6706 0.0000 -10883.8901 1424.0390 0.0000 0.0000 1823.0021 -7612.9056 306.2515 -9435.9077 -7612.9056 306.2515 -715.1427 -634.2344 31141.0310 -715.1427 -634.2344
ENERGY: 300000 7.4878 7.4030 21.4399 0.0000 -10881.2777 1485.2722 0.0000 0.0000 1846.2652 -7513.4095 310.1595 -9359.6747 -7559.5423 304.6451 351.2387 403.3113 30730.1299 -116.0801 -68.9285
ENERGY: 600000 2.6432 8.1579 15.4556 0.0000 -10735.2148 1377.4470 0.0000 0.0000 1780.7615 -7550.7495 299.1554 -9331.5109 -7565.6287 301.4807 -350.3812 -323.0927 30438.1307 -169.7138 -115.8570
ENERGY: 900000 3.7570 9.1945 17.5687 0.0000 -10774.1539 1414.5779 0.0000 0.0000 1769.6272 -7559.4286 297.2849 -9329.0558 -7560.7756 300.5657 -308.3891 -262.8368 31015.6533 -247.6107 -199.5513
ENERGY: 1200000 6.6031 7.0306 11.5225 0.0000 -10888.4645 1475.2564 0.0000 0.0000 1762.0854 -7625.9665 296.0179 -9388.0519 -7578.2660 299.4443 235.3935 266.9914 30599.6717 -113.3233 -65.6022
ENERGY: 1500000 3.3555 5.1764 17.3150 0.0000 -10903.6824 1498.1857 0.0000 0.0000 1744.5242 -7635.1257 293.0678 -9379.6498 -7581.2421 299.7294 167.3571 225.6087 30950.8598 -53.0123 -3.7926
TCL: Running FEP window   9: Lambda1 0.39999999999999997 Lambda2 0.44999999999999996 [dLambda 0.04999999999999999]
TCL: Setting parameter firsttimestep to 0
TCL: Setting parameter alchLambda to 0.39999999999999997
Info: NONBONDED TABLE R-SQUARED SPACING: 0.0625
Info: NONBONDED TABLE SIZE: 705 POINTS
TCL: Setting parameter alchLambda2 to 0.44999999999999996
Info: NONBONDED TABLE R-SQUARED SPACING: 0.0625
Info: NONBONDED TABLE SIZE: 705 POINTS
TCL: Running for 1500000 steps
ETITLE: TS BOND ANGLE DIHED IMPRP ELECT VDW BOUNDARY MISC KINETIC TOTAL TEMP POTENTIAL TOTALAVG TEMPAVG PRESSURE GPRESSURE VOLUME PRESSAVG GPRESSAVG
ENERGY: 0 3.3555 5.1764 17.3150 0.0000 -10903.6820 1498.3145 0.0000 0.0000 1743.6738 -7635.8468 292.9249 -9379.5206 -7635.8468 292.9249 137.8577 230.8461 30950.8598 137.8577 230.8461
ENERGY: 300000 4.4739 11.5138 17.6627 0.0000 -10921.6870 1499.1119 0.0000 0.0000 1790.2748 -7598.6499 300.7535 -9388.9247 -7603.5939 301.4195 335.4500 391.7672 30698.6143 -21.7879 52.7063
ENERGY: 600000 3.6879 5.6653 16.9545 0.0000 -10942.2036 1521.8110 0.0000 0.0000 1783.1384 -7610.9465 299.5547 -9394.0849 -7615.5644 298.7602 260.7574 296.9481 30651.1397 16.0676 85.5938
ENERGY: 900000 4.6298 8.8739 19.8162 0.0000 -11016.1593 1585.0551 0.0000 0.0000 1789.4328 -7608.3516 300.6121 -9397.7843 -7611.4757 299.6348 1189.4042 1260.1295 30260.5091 104.7002 176.4468
ENERGY: 1200000 2.9371 7.3449 19.0563 0.0000 -10823.5306 1353.4861 0.0000 0.0000 1798.6004 -7642.1058 302.1522 -9440.7062 -7608.9576 299.9638 -872.6950 -796.2122 30759.4391 1.0960 81.4862
ENERGY: 1500000 4.8265 7.9196 15.7565 0.0000 -10782.2468 1414.0238 0.0000 0.0000 1794.2897 -7545.4307 301.4280 -9339.7204 -7607.4665 300.0110 -360.3907 -381.6730 30912.5007 -27.1020 41.9982
TCL: Running FEP window  10: Lambda1 0.44999999999999996 Lambda2 0.49999999999999994 [dLambda 0.04999999999999999]
TCL: Setting parameter firsttimestep to 0
TCL: Setting parameter alchLambda to 0.44999999999999996
Info: NONBONDED TABLE R-SQUARED SPACING: 0.0625
Info: NONBONDED TABLE SIZE: 705 POINTS
TCL: Setting parameter alchLambda2 to 0.49999999999999994
Info: NONBONDED TABLE R-SQUARED SPACING: 0.0625
Info: NONBONDED TABLE SIZE: 705 POINTS
TCL: Running for 1500000 steps
ETITLE: TS BOND ANGLE DIHED IMPRP ELECT VDW BOUNDARY MISC KINETIC TOTAL TEMP POTENTIAL TOTALAVG TEMPAVG PRESSURE GPRESSURE VOLUME PRESSAVG GPRESSAVG
ENERGY: 0 4.8265 7.9196 15.7565 0.0000 -10782.2478 1414.5423 0.0000 0.0000 1793.4333 -7545.7696 301.2842 -9339.2029 -7545.7696 301.2842 -458.8927 -367.7130 30912.5007 -458.8927 -367.7130
ENERGY: 300000 2.3489 9.6972 19.4870 0.0000 -10800.6733 1455.5778 0.0000 0.0000 1789.7265 -7523.8360 300.6614 -9313.5624 -7563.2646 299.4090 86.5876 212.3955 31005.2267 -197.2884 -105.5510
ENERGY: 600000 1.7548 4.1957 18.5085 0.0000 -10938.7987 1487.3872 0.0000 0.0000 1796.2480 -7630.7044 301.7570 -9426.9524 -7574.0266 299.7138 147.6477 250.1726 30447.0140 -84.1119 -10.8694
ENERGY: 900000 1.5784 6.2955 20.8120 0.0000 -10948.9991 1564.8957 0.0000 0.0000 1814.1292 -7541.2883 304.7609 -9355.4175 -7575.8719 301.3318 1006.4401 1077.1991 30675.6069 16.9976 90.2670
ENERGY: 1200000 1.4793 8.0067 16.1115 0.0000 -10949.8038 1463.5015 0.0000 0.0000 1738.1812 -7722.5236 292.0022 -9460.7047 -7581.6037 301.3798 15.3998 79.3992 30410.0485 -61.0797 2.1263
ENERGY: 1500000 4.0528 10.4772 13.3462 0.0000 -10671.8335 1364.2022 0.0000 0.0000 1848.6461 -7431.1090 310.5595 -9279.7551 -7580.3923 301.9154 -642.5282 -604.8076 31364.3825 -115.7001 -54.5154
TCL: Running FEP window  11: Lambda1 0.49999999999999994 Lambda2 0.5499999999999999 [dLambda 0.04999999999999999]
TCL: Setting parameter firsttimestep to 0
TCL: Setting parameter alchLambda to 0.49999999999999994
Info: NONBONDED TABLE R-SQUARED SPACING: 0.0625
Info: NONBONDED TABLE SIZE: 705 POINTS
TCL: Setting parameter alchLambda2 to 0.5499999999999999
Info: NONBONDED TABLE R-SQUARED SPACING: 0.0625
Info: NONBONDED TABLE SIZE: 705 POINTS
TCL: Running for 1500000 steps
ETITLE: TS BOND ANGLE DIHED IMPRP ELECT VDW BOUNDARY MISC KINETIC TOTAL TEMP POTENTIAL TOTALAVG TEMPAVG PRESSURE GPRESSURE VOLUME PRESSAVG GPRESSAVG
ENERGY: 0 4.0528 10.4772 13.3462 0.0000 -10671.8335 1363.6037 0.0000 0.0000 1847.7946 -7432.5590 310.4165 -9280.3536 -7432.5590 310.4165 -676.0857 -601.4128 31364.3825 -676.0857 -601.4128
ENERGY: 300000 4.0877 4.4714 17.8948 0.0000 -10891.5235 1443.6408 0.0000 0.0000 1812.3752 -7609.0537 304.4663 -9421.4289 -7562.7505 302.9704 -401.3663 -314.8565 30791.4588 -110.1402 -25.8714
ENERGY: 600000 7.1597 6.3303 18.0505 0.0000 -10791.0257 1432.0517 0.0000 0.0000 1798.7834 -7528.6501 302.1829 -9327.4335 -7565.4330 301.9732 -275.3834 -231.2130 30929.2532 -154.6289 -80.2368
ENERGY: 900000 5.3187 7.8704 15.6300 0.0000 -10903.1783 1492.9301 0.0000 0.0000 1763.2364 -7618.1926 296.2113 -9381.4290 -7561.3856 302.0403 414.3615 522.9401 30059.4630 -11.2494 66.3067
ENERGY: 1200000 6.4311 6.2227 19.0114 0.0000 -11079.1659 1544.2163 0.0000 0.0000 1845.9588 -7657.3256 310.1081 -9503.2844 -7569.1322 302.5927 326.3526 378.7748 30797.7842 -15.3795 60.2908
ENERGY: 1500000 2.7277 14.1624 18.0214 0.0000 -10857.0455 1525.8120 0.0000 0.0000 1765.7028 -7530.6191 296.6256 -9296.3218 -7572.4735 301.1743 473.6283 501.1097 31647.6300 -25.3405 41.6979
TCL: Running FEP window  12: Lambda1 0.5499999999999999 Lambda2 0.6    [dLambda 0.050000000000000044]
TCL: Setting parameter firsttimestep to 0
TCL: Setting parameter alchLambda to 0.5499999999999999
Info: NONBONDED TABLE R-SQUARED SPACING: 0.0625
Info: NONBONDED TABLE SIZE: 705 POINTS
TCL: Setting parameter alchLambda2 to 0.6
Info: NONBONDED TABLE R-SQUARED SPACING: 0.0625
Info: NONBONDED TABLE SIZE: 705 POINTS
TCL: Running for 1500000 steps
ETITLE: TS BOND ANGLE DIHED IMPRP ELECT VDW BOUNDARY MISC KINETIC TOTAL TEMP POTENTIAL TOTALAVG TEMPAVG PRESSURE GPRESSURE VOLUME PRESSAVG GPRESSAVG
ENERGY: 0 2.7277 14.1624 18.0214 0.0000 -10856.8157 1525.5662 0.0000 0.0000 1764.8082 -7531.5298 296.4753 -9296.3380 -7531.5298 296.4753 427.1950 508.4806 31647.6300 427.1950 508.4806
ENERGY: 300000 2.5414 14.1027 14.3925 0.0000 -10805.4538 1417.3332 0.0000 0.0000 1861.2252 -7495.8588 312.6727 -9357.0839 -7575.5738 300.0316 -156.5470 -175.0894 31012.8714 -440.7697 -387.3860
ENERGY: 600000 2.7323 7.2896 16.3572 0.0000 -10795.5922 1458.2548 0.0000 0.0000 1805.8189 -7505.1394 303.3649 -9310.9583 -7567.8507 300.7162 149.1232 272.4980 30750.8172 -165.9336 -102.5090
ENERGY: 900000 3.4038 4.2484 16.0847 0.0000 -10875.1250 1461.3610 0.0000 0.0000 1836.8792 -7553.1479 308.5828 -9390.0271 -7568.3223 302.1030 32.4132 100.2645 30718.6435 -40.8940 25.8801
ENERGY: 1200000 3.3463 6.7038 18.4972 0.0000 -10891.9727 1480.7159 0.0000 0.0000 1762.0979 -7620.6116 296.0200 -9382.7095 -7575.7636 300.8922 237.2870 293.6809 30857.7296 -51.8060 9.8771
ENERGY: 1500000 5.7114 5.1766 15.1598 0.0000 -10802.7684 1420.3910 0.0000 0.0000 1807.2350 -7549.0946 303.6027 -9356.3296 -7578.4512 301.2727 -179.1877 -135.5159 30858.8421 -108.3578 -48.3856
TCL: Running FEP window  13: Lambda1 0.6    Lambda2 0.65   [dLambda 0.050000000000000044]
TCL: Setting parameter firsttimestep to 0
TCL: Setting parameter alchLambda to 0.6
Info: NONBONDED TABLE R-SQUARED SPACING: 0.0625
Info: NONBONDED TABLE SIZE: 705 POINTS
TCL: Setting parameter alchLambda2 to 0.65
Info: NONBONDED TABLE R-SQUARED SPACING: 0.0625
Info: NONBONDED TABLE SIZE: 705 POINTS
TCL: Running for 1500000 steps
ETITLE: TS BOND ANGLE DIHED IMPRP ELECT VDW BOUNDARY MISC KINETIC TOTAL TEMP POTENTIAL TOTALAVG TEMPAVG PRESSURE GPRESSURE VOLUME PRESSAVG GPRESSAVG
ENERGY: 0 5.7114 5.1766 15.1598 0.0000 -10802.8227 1419.5932 0.0000 0.0000 1806.3886 -7550.7931 303.4606 -9357.1817 -7550.7931 303.4606 -221.0815 -136.1341 30858.8421 -221.0815 -136.1341
ENERGY: 300000 5.9899 8.0147 16.1963 0.0000 -10741.5844 1284.1087 0.0000 0.0000 1807.7298 -7619.5450 303.6859 -9427.2748 -7594.7689 300.0738 -1731.5303 -1699.2952 31007.7993 -682.2783 -643.3273
ENERGY: 600000 5.7979 10.0667 17.7959 0.0000 -10849.1456 1408.9845 0.0000 0.0000 1790.0347 -7616.4659 300.7132 -9406.5006 -7606.8010 299.8891 -791.5457 -714.4836 31211.8565 -533.1135 -485.7015
ENERGY: 900000 4.6950 8.7232 16.6409 0.0000 -10791.3430 1423.7930 0.0000 0.0000 1777.7077 -7559.7832 298.6424 -9337.4909 -7594.3910 300.4577 -262.7395 -191.5301 30955.8577 -199.6639 -147.1031
ENERGY: 1200000 4.8269 8.9158 19.3320 0.0000 -10869.6410 1416.0446 0.0000 0.0000 1771.6608 -7648.8609 297.6265 -9420.5217 -7605.9687 299.4996 -529.1028 -476.2521 30908.5498 -299.8092 -237.5115
ENERGY: 1500000 6.7241 5.9555 15.9135 0.0000 -10909.4152 1516.3384 0.0000 0.0000 1801.6061 -7562.8776 302.6571 -9364.4837 -7602.9335 300.2838 675.6698 733.8310 30538.5179 -165.4313 -99.1032
TCL: Running FEP window  14: Lambda1 0.65   Lambda2 0.7000000000000001 [dLambda 0.050000000000000044]
TCL: Setting parameter firsttimestep to 0
TCL: Setting parameter alchLambda to 0.65
Info: NONBONDED TABLE R-SQUARED SPACING: 0.0625
Info: NONBONDED TABLE SIZE: 705 POINTS
TCL: Setting parameter alchLambda2 to 0.7000000000000001
Info: NONBONDED TABLE R-SQUARED SPACING: 0.0625
Info: NONBONDED TABLE SIZE: 705 POINTS
TCL: Running for 1500000 steps
ETITLE: TS BOND ANGLE DIHED IMPRP ELECT VDW BOUNDARY MISC KINETIC TOTAL TEMP POTENTIAL TOTALAVG TEMPAVG PRESSURE GPRESSURE VOLUME PRESSAVG GPRESSAVG
ENERGY: 0 6.7241 5.9555 15.9135 0.0000 -10910.1241 1516.2463 0.0000 0.0000 1800.7501 -7564.5347 302.5133 -9365.2848 -7564.5347 302.5133 672.4813 738.9593 30538.5179 672.4813 738.9593
ENERGY: 300000 7.3882 12.0136 13.3134 0.0000 -10955.7461 1524.4815 0.0000 0.0000 1785.1112 -7613.4382 299.8861 -9398.5494 -7571.7935 302.3859 588.2759 586.0700 30403.8659 122.8694 142.9122
ENERGY: 600000 3.5584 7.8712 16.5096 0.0000 -10678.6439 1364.6854 0.0000 0.0000 1776.3275 -7509.6918 298.4105 -9286.0193 -7559.2091 300.2096 -722.7559 -627.9790 31364.1963 -123.8139 -92.6126
ENERGY: 900000 2.3482 14.7277 15.2394 0.0000 -10851.8692 1439.1092 0.0000 0.0000 1754.8432 -7625.6014 294.8013 -9380.4447 -7566.6396 299.9050 -413.0916 -334.4326 31285.5113 -149.8931 -101.6107
ENERGY: 1200000 4.1664 9.1843 16.5500 0.0000 -10961.8676 1498.2086 0.0000 0.0000 1810.5985 -7623.1598 304.1678 -9433.7583 -7574.2938 300.3765 168.0078 216.4545 30510.6944 -132.7461 -80.4490
ENERGY: 1500000 2.8300 9.8940 17.7294 0.0000 -10746.7799 1413.2364 0.0000 0.0000 1766.2914 -7536.7988 296.7245 -9303.0902 -7566.8603 300.5989 103.1217 132.7666 30673.7116 -78.0780 -23.2632
TCL: Running FEP window  15: Lambda1 0.7000000000000001 Lambda2 0.7500000000000001 [dLambda 0.050000000000000044]
TCL: Setting parameter firsttimestep to 0
TCL: Setting parameter alchLambda to 0.7000000000000001
Info: NONBONDED TABLE R-SQUARED SPACING: 0.0625
Info: NONBONDED TABLE SIZE: 705 POINTS
TCL: Setting parameter alchLambda2 to 0.7500000000000001
Info: NONBONDED TABLE R-SQUARED SPACING: 0.0625
Info: NONBONDED TABLE SIZE: 705 POINTS
TCL: Running for 1500000 steps
ETITLE: TS BOND ANGLE DIHED IMPRP ELECT VDW BOUNDARY MISC KINETIC TOTAL TEMP POTENTIAL TOTALAVG TEMPAVG PRESSURE GPRESSURE VOLUME PRESSAVG GPRESSAVG
ENERGY: 0 2.8300 9.8940 17.7294 0.0000 -10746.6301 1413.2237 0.0000 0.0000 1765.4057 -7537.5474 296.5757 -9302.9530 -7537.5474 296.5757 78.6305 144.2383 30673.7116 78.6305 144.2383
ENERGY: 300000 3.3606 9.5207 18.5393 0.0000 -10750.8187 1419.0911 0.0000 0.0000 1755.2584 -7545.0487 294.8710 -9300.3070 -7573.9200 299.1765 -230.0528 -169.2832 31015.0299 -116.7920 -50.9452
ENERGY: 600000 3.6045 9.8814 17.8644 0.0000 -10808.8486 1477.6018 0.0000 0.0000 1822.1233 -7477.7732 306.1039 -9299.8966 -7562.8844 301.6306 666.9086 746.1882 30530.4180 106.3093 175.9071
ENERGY: 900000 7.0077 9.0397 18.9140 0.0000 -10806.4304 1422.5729 0.0000 0.0000 1753.2166 -7595.6796 294.5280 -9348.8961 -7566.2453 300.9347 -282.3336 -219.6043 30829.2906 53.2107 115.6709
ENERGY: 1200000 4.5493 8.4212 14.3097 0.0000 -10958.4074 1517.5333 0.0000 0.0000 1787.0454 -7626.5486 300.2110 -9413.5939 -7577.8599 300.8043 485.5099 502.6753 30675.6753 131.9623 181.0743
ENERGY: 1500000 4.5455 5.3294 17.7670 0.0000 -10815.2895 1406.2363 0.0000 0.0000 1849.3559 -7532.0553 310.6788 -9381.4112 -7581.0335 301.2729 -154.3138 -63.0608 30442.7384 141.0967 197.3384
TCL: Running FEP window  16: Lambda1 0.7500000000000001 Lambda2 0.8000000000000002 [dLambda 0.050000000000000044]
TCL: Setting parameter firsttimestep to 0
TCL: Setting parameter alchLambda to 0.7500000000000001
Info: NONBONDED TABLE R-SQUARED SPACING: 0.0625
Info: NONBONDED TABLE SIZE: 705 POINTS
TCL: Setting parameter alchLambda2 to 0.8000000000000002
Info: NONBONDED TABLE R-SQUARED SPACING: 0.0625
Info: NONBONDED TABLE SIZE: 705 POINTS
TCL: Running for 1500000 steps
ETITLE: TS BOND ANGLE DIHED IMPRP ELECT VDW BOUNDARY MISC KINETIC TOTAL TEMP POTENTIAL TOTALAVG TEMPAVG PRESSURE GPRESSURE VOLUME PRESSAVG GPRESSAVG
ENERGY: 0 4.5455 5.3294 17.7670 0.0000 -10816.2557 1406.6260 0.0000 0.0000 1848.4942 -7533.4934 310.5340 -9381.9876 -7533.4934 310.5340 -144.0615 -49.1830 30442.7384 -144.0615 -49.1830
ENERGY: 300000 3.0526 4.6425 15.2859 0.0000 -10756.7921 1433.6251 0.0000 0.0000 1810.4059 -7489.7802 304.1354 -9300.1861 -7539.3876 304.6847 -28.6439 11.2735 30979.9615 -226.2208 -190.8652
ENERGY: 600000 4.8845 5.2719 16.6708 0.0000 -10872.9676 1403.3463 0.0000 0.0000 1825.4783 -7617.3158 306.6675 -9442.7941 -7568.8330 303.9013 -390.7734 -309.2540 30497.1742 -114.2409 -72.2151
ENERGY: 900000 7.4666 8.3032 12.2955 0.0000 -10775.6659 1358.0987 0.0000 0.0000 1773.8220 -7615.6799 297.9896 -9389.5019 -7576.9812 302.7729 -756.8539 -702.7365 30565.8334 -195.7604 -148.8646
ENERGY: 1200000 5.2190 9.4607 17.7271 0.0000 -10920.4446 1454.6642 0.0000 0.0000 1819.2710 -7614.1025 305.6247 -9433.3735 -7588.4332 302.2584 -202.5493 -130.2944 30819.3287 -169.5713 -118.2282
ENERGY: 1500000 3.4236 8.0933 16.4073 0.0000 -10695.2911 1331.8794 0.0000 0.0000 1764.8305 -7570.6570 296.4791 -9335.4876 -7590.7582 300.6906 -624.6242 -624.2856 30847.0446 -137.7420 -82.7689
TCL: Running FEP window  17: Lambda1 0.8000000000000002 Lambda2 0.8500000000000002 [dLambda 0.050000000000000044]
TCL: Setting parameter firsttimestep to 0
TCL: Setting parameter alchLambda to 0.8000000000000002
Info: NONBONDED TABLE R-SQUARED SPACING: 0.0625
Info: NONBONDED TABLE SIZE: 705 POINTS
TCL: Setting parameter alchLambda2 to 0.8500000000000002
Info: NONBONDED TABLE R-SQUARED SPACING: 0.0625
Info: NONBONDED TABLE SIZE: 705 POINTS
TCL: Running for 1500000 steps
ETITLE: TS BOND ANGLE DIHED IMPRP ELECT VDW BOUNDARY MISC KINETIC TOTAL TEMP POTENTIAL TOTALAVG TEMPAVG PRESSURE GPRESSURE VOLUME PRESSAVG GPRESSAVG
ENERGY: 0 3.4236 8.0933 16.4073 0.0000 -10696.3455 1333.4005 0.0000 0.0000 1763.9526 -7571.0684 296.3316 -9335.0209 -7571.0684 296.3316 -668.3064 -598.1555 30847.0446 -668.3064 -598.1555
ENERGY: 300000 4.6886 6.0587 18.3138 0.0000 -10788.6081 1393.8759 0.0000 0.0000 1774.5572 -7591.1140 298.1131 -9365.6712 -7589.8092 297.7020 -413.4485 -364.4315 31106.9200 -510.5406 -455.8792
ENERGY: 600000 3.4720 8.7301 16.7841 0.0000 -10999.7640 1528.7059 0.0000 0.0000 1750.3048 -7691.7671 294.0389 -9442.0719 -7610.4140 297.3846 606.7499 692.6442 30415.8965 -61.1271 -11.6182
ENERGY: 900000 6.0993 6.8010 15.7763 0.0000 -10860.0859 1441.9539 0.0000 0.0000 1754.0754 -7635.3800 294.6723 -9389.4555 -7605.6749 297.7434 -454.9888 -448.5841 31176.1668 -160.8719 -119.8035
ENERGY: 1200000 2.0223 5.8177 14.3716 0.0000 -10822.4834 1411.2617 0.0000 0.0000 1772.8346 -7616.1754 297.8237 -9389.0100 -7602.4626 299.1424 -287.0237 -221.0769 30697.3142 -79.2922 -27.6449
ENERGY: 1500000 5.9965 3.5446 17.6716 0.0000 -10805.5510 1441.8476 0.0000 0.0000 1722.9987 -7613.4920 289.4516 -9336.4907 -7604.3152 298.7315 -186.0970 -97.6908 30879.7855 -16.3541 34.7435
TCL: Running FEP window  18: Lambda1 0.8500000000000002 Lambda2 0.9000000000000002 [dLambda 0.050000000000000044]
TCL: Setting parameter firsttimestep to 0
TCL: Setting parameter alchLambda to 0.8500000000000002
Info: NONBONDED TABLE R-SQUARED SPACING: 0.0625
Info: NONBONDED TABLE SIZE: 705 POINTS
TCL: Setting parameter alchLambda2 to 0.9000000000000002
Info: NONBONDED TABLE R-SQUARED SPACING: 0.0625
Info: NONBONDED TABLE SIZE: 705 POINTS
TCL: Running for 1500000 steps
ETITLE: TS BOND ANGLE DIHED IMPRP ELECT VDW BOUNDARY MISC KINETIC TOTAL TEMP POTENTIAL TOTALAVG TEMPAVG PRESSURE GPRESSURE VOLUME PRESSAVG GPRESSAVG
ENERGY: 0 5.9965 3.5446 17.6716 0.0000 -10807.0430 1442.2064 0.0000 0.0000 1722.1237 -7615.5003 289.3046 -9337.6239 -7615.5003 289.3046 -158.4029 -79.8839 30879.7855 -158.4029 -79.8839
ENERGY: 300000 5.5252 3.7986 18.9428 0.0000 -10951.9421 1456.3125 0.0000 0.0000 1749.9447 -7717.4182 293.9784 -9467.3630 -7632.5402 297.5769 -225.0371 -88.8771 30614.2242 -42.6926 50.0105
ENERGY: 600000 2.8594 13.1742 18.1621 0.0000 -10844.6442 1394.5961 0.0000 0.0000 1794.0185 -7621.8339 301.3825 -9415.8524 -7640.5038 296.6130 -704.3413 -695.7074 31299.1928 -233.0600 -145.2201
ENERGY: 900000 5.1568 8.5037 17.5269 0.0000 -10919.0841 1473.0281 0.0000 0.0000 1791.8379 -7623.0306 301.0161 -9414.8686 -7637.0088 298.2462 378.0630 412.1236 30198.2094 -71.8781 3.1869
ENERGY: 1200000 6.6890 6.1209 15.7937 0.0000 -10921.7536 1516.8774 0.0000 0.0000 1798.1460 -7578.1266 302.0759 -9376.2726 -7622.4772 299.3780 565.8705 616.4442 30519.1310 -33.3090 42.5717
ENERGY: 1500000 3.5184 6.7696 12.4320 0.0000 -10920.9294 1488.6382 0.0000 0.0000 1777.8141 -7631.7571 298.6602 -9409.5712 -7625.0526 299.0323 152.7585 234.0409 30952.9437 51.2450 123.4817
TCL: Running FEP window  19: Lambda1 0.9000000000000002 Lambda2 0.9500000000000003 [dLambda 0.050000000000000044]
TCL: Setting parameter firsttimestep to 0
TCL: Setting parameter alchLambda to 0.9000000000000002
Info: NONBONDED TABLE R-SQUARED SPACING: 0.0625
Info: NONBONDED TABLE SIZE: 705 POINTS
TCL: Setting parameter alchLambda2 to 0.9500000000000003
Info: NONBONDED TABLE R-SQUARED SPACING: 0.0625
Info: NONBONDED TABLE SIZE: 705 POINTS
TCL: Running for 1500000 steps
ETITLE: TS BOND ANGLE DIHED IMPRP ELECT VDW BOUNDARY MISC KINETIC TOTAL TEMP POTENTIAL TOTALAVG TEMPAVG PRESSURE GPRESSURE VOLUME PRESSAVG GPRESSAVG
ENERGY: 0 3.5184 6.7696 12.4320 0.0000 -10923.2406 1490.9800 0.0000 0.0000 1776.9066 -7632.6341 298.5078 -9409.5407 -7632.6341 298.5078 186.2754 270.1773 30952.9437 186.2754 270.1773
ENERGY: 300000 8.0455 8.4299 15.9726 0.0000 -10862.4388 1453.2539 0.0000 0.0000 1849.0592 -7527.6776 310.6289 -9376.7369 -7592.2708 300.9599 12.3463 148.6383 30608.7693 150.0404 209.5892
ENERGY: 600000 8.6776 5.4624 18.3363 0.0000 -10839.7198 1395.6347 0.0000 0.0000 1819.4100 -7592.1988 305.6481 -9411.6088 -7594.8868 299.9009 -389.1038 -416.9346 30645.4158 -58.3311 -0.5566
ENERGY: 900000 8.8161 7.8309 14.3259 0.0000 -10859.5305 1487.0321 0.0000 0.0000 1824.9254 -7516.6001 306.5746 -9341.5255 -7593.3037 299.4789 300.4764 353.7929 30688.6635 44.6621 97.4872
ENERGY: 1200000 2.7950 5.5476 17.6548 0.0000 -10924.9877 1487.6047 0.0000 0.0000 1770.9638 -7640.4218 297.5094 -9411.3856 -7601.5399 300.4835 288.4987 354.4359 30569.6646 139.4016 184.1292
ENERGY: 1500000 3.5969 5.7162 13.8286 0.0000 -10806.5309 1441.8389 0.0000 0.0000 1772.7004 -7568.8499 297.8012 -9341.5503 -7602.5056 300.9483 147.7237 221.8892 30851.6033 152.2910 200.5104
TCL: Running FEP window  20: Lambda1 0.9500000000000003 Lambda2 1.0    [dLambda 0.04999999999999971]
TCL: Setting parameter firsttimestep to 0
TCL: Setting parameter alchLambda to 0.9500000000000003
Info: NONBONDED TABLE R-SQUARED SPACING: 0.0625
Info: NONBONDED TABLE SIZE: 705 POINTS
TCL: Setting parameter alchLambda2 to 1.0
Info: NONBONDED TABLE R-SQUARED SPACING: 0.0625
Info: NONBONDED TABLE SIZE: 705 POINTS
TCL: Running for 1500000 steps
ETITLE: TS BOND ANGLE DIHED IMPRP ELECT VDW BOUNDARY MISC KINETIC TOTAL TEMP POTENTIAL TOTALAVG TEMPAVG PRESSURE GPRESSURE VOLUME PRESSAVG GPRESSAVG
ENERGY: 0 3.5969 5.7162 13.8286 0.0000 -10809.0819 1443.1366 0.0000 0.0000 1771.8178 -7570.9858 297.6529 -9342.8036 -7570.9858 297.6529 161.1137 245.8211 30851.6033 161.1137 245.8211
ENERGY: 300000 2.4182 6.9804 16.0193 0.0000 -10848.6242 1421.9318 0.0000 0.0000 1811.0136 -7590.2608 304.2375 -9401.2745 -7555.8638 300.1129 -251.3429 -193.4149 30768.5841 179.0604 256.2604
ENERGY: 600000 5.2085 10.0294 15.4963 0.0000 -10983.6807 1508.8033 0.0000 0.0000 1801.1879 -7642.9553 302.5869 -9444.1432 -7581.7274 299.9338 197.5083 240.7026 30522.0112 -19.5962 43.2186
ENERGY: 900000 3.7268 4.8335 19.2525 0.0000 -10932.1262 1504.3704 0.0000 0.0000 1854.8814 -7545.0616 311.6070 -9399.9430 -7590.6814 302.1368 324.6932 435.1597 30935.2858 -7.6186 65.0717
ENERGY: 1200000 3.4217 7.3795 17.1641 0.0000 -10615.2107 1308.2542 0.0000 0.0000 1804.5846 -7474.4066 303.1575 -9278.9912 -7590.6450 302.5565 -682.9744 -679.8976 30989.8979 -55.5908 13.8437
ENERGY: 1500000 5.6753 11.2033 16.9317 0.0000 -10715.2494 1364.7471 0.0000 0.0000 1798.2700 -7518.4220 302.0967 -9316.6920 -7588.6349 301.6255 -713.9211 -621.1597 30982.2090 -80.7626 -13.9297
TCL: Exiting due to exit command.
