Info: SIMULATION PARAMETERS:
Info: TIMESTEP               2
Info: NUMBER OF STEPS        0
Info: STEPS PER CYCLE        10
Info: PERIODIC CELL BASIS 1  31.7236 0 0
Info: PERIODIC CELL BASIS 2  0 31.2847 0
Info: PERIODIC CELL BASIS 3  0 0 29.9294
Info: PERIODIC CELL CENTER   0 0 0
Info: WRAPPING WATERS AROUND PERIODIC BOUNDARIES ON OUTPUT.
Info: WRAPPING ALL CLUSTERS AROUND PERIODIC BOUNDARIES ON OUTPUT.
Info: FIRST LDB TIMESTEP     50
Info: LAST LDB TIMESTEP     -1
Info: HOM BACKGROUND SCALING 1
Info: PME BACKGROUND SCALING 1
Info: MIN ATOMS PER PATCH    40
Info: EMPTY PATCH LOAD       40 ATOMS
Info: VELOCITY FILE          mobley_4043951_equil.vel
Info: CENTER OF MASS MOVING INITIALLY? NO
Info: DIELECTRIC             1
Info: EXCLUDE                SCALED ONE-FOUR
Info: 1-4 ELECTROSTATICS SCALED BY 0.833333
Info: MODIFIED 1-4 VDW PARAMETERS WILL BE USED
Info: DCD FILENAME           mobley_4043951_prod.dcd
Info: DCD FREQUENCY          100000
Info: DCD FIRST STEP         100000
Info: DCD FILE WILL CONTAIN UNIT CELL DATA
Info: XST FILENAME           mobley_4043951_prod.xst
Info: XST FREQUENCY          100000
Info: NO VELOCITY DCD OUTPUT
Info: NO FORCE DCD OUTPUT
Info: OUTPUT FILENAME        mobley_4043951_prod
Info: BINARY OUTPUT FILES WILL BE USED
Info: RESTART FILENAME       mobley_4043951_prod.restart
Info: RESTART FREQUENCY      100000
Info: BINARY RESTART FILES WILL BE USED
Info: CUTOFF                 9
Info: PAIRLIST DISTANCE      11
Info: PAIRLIST SHRINK RATE   0.01
Info: PAIRLIST GROW RATE     0.01
Info: PAIRLIST TRIGGER       0.3
Info: PAIRLISTS PER CYCLE    2
Info: PAIRLISTS ENABLED
Info: MARGIN                 2
Info: HYDROGEN GROUP CUTOFF  2.5
Info: PATCH DIMENSION        15.5
Info: ENERGY OUTPUT STEPS    100000
Info: ENERGY EVALUATION STEPS    100000
Info: OUTPUT ENERGY PRECISION 4
Info: CROSSTERM ENERGY INCLUDED IN DIHEDRAL
Info: TIMING OUTPUT STEPS    1000000
Info: PRESSURE OUTPUT STEPS  100000
Info: ALCHEMICAL FEP ON
Info: FEP CURRENT LAMBDA VALUE     1
Info: FEP COMPARISON LAMBDA VALUE  0.95
Info: FEP INTRA-ALCHEMICAL NON-BONDED INTERACTIONS WILL BE RETAINED
Info: FEP INTRA-ALCHEMICAL BONDED INTERACTIONS WILL BE RETAINED
Info: FEP VDW SHIFTING COEFFICIENT 5
Info: FEP ELEC. ACTIVE FOR ANNIHILATED PARTICLES BETWEEN LAMBDA = 0 AND LAMBDA = 0.5
Info: FEP ELEC. ACTIVE FOR EXNIHILATED PARTICLES BETWEEN LAMBDA = 0.5 AND LAMBDA = 1
Info: FEP VDW ACTIVE FOR ANNIHILATED PARTICLES BETWEEN LAMBDA = 0 AND LAMBDA = 1
Info: FEP VDW ACTIVE FOR EXNIHILATED PARTICLES BETWEEN LAMBDA = 0 AND LAMBDA = 1
Info: FEP BOND ACTIVE FOR ANNIHILATED PARTICLES BETWEEN LAMBDA = 1 AND LAMBDA = 1
Info: FEP BOND ACTIVE FOR EXNIHILATED PARTICLES BETWEEN LAMBDA = 0 AND LAMBDA = 0
Info: LANGEVIN DYNAMICS ACTIVE
Info: LANGEVIN TEMPERATURE   300
Info: LANGEVIN USING BBK INTEGRATOR
Info: LANGEVIN DAMPING COEFFICIENT IS 1 INVERSE PS
Info: LANGEVIN DYNAMICS APPLIED TO HYDROGENS
Info: LANGEVIN PISTON PRESSURE CONTROL ACTIVE
Info:        TARGET PRESSURE IS 1.01325 BAR
Info:     OSCILLATION PERIOD IS 50 FS
Info:             DECAY TIME IS 25 FS
Info:     PISTON TEMPERATURE IS 300 K
Info:       PRESSURE CONTROL IS GROUP-BASED
Info:    INITIAL STRAIN RATE IS -2.51842e-06 -2.51842e-06 -2.51842e-06
Info:       CELL FLUCTUATION IS ISOTROPIC
Info: PARTICLE MESH EWALD (PME) ACTIVE
Info: PME TOLERANCE               1e-06
Info: PME EWALD COEFFICIENT       0.348832
Info: PME INTERPOLATION ORDER     4
Info: PME GRID DIMENSIONS         32 32 32
Info: PME MAXIMUM GRID SPACING    1
Info: PME CALCULATION WILL BE PERFORMED ON GPU
Info: FULL ELECTROSTATIC EVALUATION FREQUENCY      2
Info: USING VERLET I (r-RESPA) MTS SCHEME.
Info: C1 SPLITTING OF LONG RANGE ELECTROSTATICS
Info: PLACING ATOMS IN PATCHES BY HYDROGEN GROUPS
Info: RIGID BONDS TO HYDROGEN : ALL
Info:         ERROR TOLERANCE : 1e-08
Info:          MAX ITERATIONS : 100
Info: RIGID WATER USING SETTLE ALGORITHM
Info: RANDOM NUMBER SEED     1743840053
Info: USE HYDROGEN BONDS?    NO
Info: Using AMBER format force field!
Info: AMBER PARM FILE        mobley_4043951.prmtop
Info: COORDINATE PDB         mobley_4043951.pdb
Info: Exclusions will be read from PARM file!
Info: SCNB (VDW SCALING)     2
Info: USING ARITHMETIC MEAN TO COMBINE L-J SIGMA PARAMETERS
Info: BINARY COORDINATES     mobley_4043951_equil.coor
Info: SUMMARY OF PARAMETERS:
Info: 7 BONDS
Info: 9 ANGLES
Info:   9 HARMONIC
Info:   0 COSINE-BASED
Info: 8 DIHEDRAL
Info: 0 IMPROPER
Info: 0 CROSSTERM
Info: 0 VDW
Info: 21 VDW_PAIRS
Info: 0 NBTHOLE_PAIRS
Info: To read alchdata from file: mobley_4043951.pdb
Info: To read alchflag data from column: 5
Info: STRUCTURE SUMMARY:
Info: 2910 ATOMS
Info: 2909 BONDS
Info: 24 ANGLES
Info: 34 DIHEDRALS
Info: 0 IMPROPERS
Info: 0 CROSSTERMS
Info: 2961 EXCLUSIONS
Info: 2905 RIGID BONDS
Info: ALCH: 0 ATOMS TO DISAPPEAR IN FINAL STATE
Info: ALCH: 15 ATOMS TO APPEAR IN FINAL STATE
Info: 5825 DEGREES OF FREEDOM
Info: 970 HYDROGEN GROUPS
Info: 4 ATOMS IN LARGEST HYDROGEN GROUP
Info: 970 MIGRATION GROUPS
Info: 4 ATOMS IN LARGEST MIGRATION GROUP
Info: TOTAL MASS = 17455.6 amu
Info: TOTAL CHARGE = 9.99868e-05 e
Info: MASS DENSITY = 0.975847 g/cm^3
Info: ATOM DENSITY = 0.0979673 atoms/A^3
Info: ADDED 0 IMPLICIT EXCLUSIONS
Info: NONBONDED TABLE R-SQUARED SPACING: 0.0625
Info: NONBONDED TABLE SIZE: 705 POINTS
Info: REDUCING NUMBER OF PATCHES TO IMPROVE LOAD BALANCE
Info: REMOVING COM VELOCITY 0.15623 0.0894258 0.17388
Info: Use 3D box decompostion in PME FFT.
Info: Updated CUDA force table with 4096 elements.
Info: Updated CUDA LJ table with 6 x 6 elements.
Info: Found 18 unique exclusion lists needing 40 bytes
TCL: Running for 1500000 steps
ETITLE: TS BOND ANGLE DIHED IMPRP ELECT VDW BOUNDARY MISC KINETIC TOTAL TEMP POTENTIAL TOTALAVG TEMPAVG PRESSURE GPRESSURE VOLUME PRESSAVG GPRESSAVG
ENERGY: 0 0.7189 6.6914 4.0960 0.0000 -10526.9175 1404.8326 0.0000 0.0000 1740.5555 -7370.0231 300.7339 -9110.5787 -7370.0231 300.7339 78.1504 145.0292 29703.7743 78.1504 145.0292
ENERGY: 300000 1.1168 4.6985 3.8629 0.0000 -10486.7229 1420.1227 0.0000 0.0000 1730.7274 -7326.1946 299.0358 -9056.9220 -7361.9270 300.4727 196.4502 220.7346 30128.6779 -168.2846 -113.2499
ENERGY: 600000 0.1131 5.5294 4.9966 0.0000 -10601.1338 1434.0248 0.0000 0.0000 1768.8673 -7387.6026 305.6256 -9156.4699 -7390.9397 298.3020 -13.5828 49.9621 29684.8662 -82.9601 -27.5768
ENERGY: 900000 1.9471 5.6413 5.1735 0.0000 -10582.4063 1400.1908 0.0000 0.0000 1737.8551 -7431.5985 300.2673 -9169.4536 -7398.1858 297.8668 -477.4714 -354.1289 30109.3621 -190.4540 -114.9024
ENERGY: 1200000 0.9500 3.6748 4.8795 0.0000 -10459.8176 1422.9750 0.0000 0.0000 1741.6465 -7285.6916 300.9224 -9027.3381 -7374.6446 299.9906 337.7494 418.9098 29946.0071 -68.7403 5.0936
ENERGY: 1500000 0.7131 5.7554 5.8809 0.0000 -10476.7812 1402.2007 0.0000 0.0000 1677.5686 -7384.6626 289.8510 -9062.2312 -7375.0756 299.0649 -136.1792 -85.0355 30246.4860 -70.9098 -7.4134
TCL: Running FEP window   2: Lambda1 0.95   Lambda2 0.8999999999999999 [dLambda -0.050000000000000044]
TCL: Setting parameter firsttimestep to 0
TCL: Setting parameter alchLambda to 0.95
Info: NONBONDED TABLE R-SQUARED SPACING: 0.0625
Info: NONBONDED TABLE SIZE: 705 POINTS
TCL: Setting parameter alchLambda2 to 0.8999999999999999
Info: NONBONDED TABLE R-SQUARED SPACING: 0.0625
Info: NONBONDED TABLE SIZE: 705 POINTS
TCL: Running for 1500000 steps
ETITLE: TS BOND ANGLE DIHED IMPRP ELECT VDW BOUNDARY MISC KINETIC TOTAL TEMP POTENTIAL TOTALAVG TEMPAVG PRESSURE GPRESSURE VOLUME PRESSAVG GPRESSAVG
ENERGY: 0 0.7131 5.7554 5.8809 0.0000 -10476.7846 1402.3794 0.0000 0.0000 1676.7103 -7385.3455 289.7027 -9062.0558 -7385.3455 289.7027 -170.3363 -93.3370 30246.4860 -170.3363 -93.3370
ENERGY: 300000 2.5661 4.3639 3.5250 0.0000 -10470.2831 1394.2497 0.0000 0.0000 1719.9828 -7345.5955 297.1793 -9065.5783 -7348.3184 297.7795 -90.8542 -46.9150 30340.4987 129.7428 234.4318
ENERGY: 600000 0.6278 5.2010 3.4598 0.0000 -10562.2912 1510.4899 0.0000 0.0000 1675.4864 -7367.0263 289.4912 -9042.5127 -7367.8730 298.1911 869.3538 906.2660 30050.6158 189.2030 270.6775
ENERGY: 900000 0.9005 4.6115 5.1403 0.0000 -10518.9338 1465.9070 0.0000 0.0000 1698.9372 -7343.4373 293.5430 -9042.3745 -7371.8302 297.4944 322.0824 349.6176 30338.1170 131.0390 197.6399
ENERGY: 1200000 0.9998 5.7874 4.2093 0.0000 -10616.5596 1464.8470 0.0000 0.0000 1738.6551 -7402.0610 300.4055 -9140.7161 -7380.0042 297.2613 172.8510 206.5339 29935.4732 63.3026 128.6063
ENERGY: 1500000 0.7833 4.4587 4.4123 0.0000 -10562.8963 1409.5411 0.0000 0.0000 1726.6834 -7417.0175 298.3370 -9143.7009 -7380.1497 297.9602 -323.0675 -210.4613 30027.5447 66.5947 138.0730
TCL: Running FEP window   3: Lambda1 0.8999999999999999 Lambda2 0.8499999999999999 [dLambda -0.050000000000000044]
TCL: Setting parameter firsttimestep to 0
TCL: Setting parameter alchLambda to 0.8999999999999999
Info: NONBONDED TABLE R-SQUARED SPACING: 0.0625
Info: NONBONDED TABLE SIZE: 705 POINTS
TCL: Setting parameter alchLambda2 to 0.8499999999999999
Info: NONBONDED TABLE R-SQUARED SPACING: 0.0625
Info: NONBONDED TABLE SIZE: 705 POINTS
TCL: Running for 1500000 steps
ETITLE: TS BOND ANGLE DIHED IMPRP ELECT VDW BOUNDARY MISC KINETIC TOTAL TEMP POTENTIAL TOTALAVG TEMPAVG PRESSURE GPRESSURE VOLUME PRESSAVG GPRESSAVG
ENERGY: 0 0.7833 4.4587 4.4123 0.0000 -10562.9668 1409.7294 0.0000 0.0000 1725.8186 -7417.7645 298.1876 -9143.5831 -7417.7645 298.1876 -314.8952 -219.0027 30027.5447 -314.8952 -219.0027
ENERGY: 300000 1.5538 6.3950 1.7889 0.0000 -10390.4516 1314.3254 0.0000 0.0000 1786.6139 -7279.7747 308.6918 -9066.3886 -7361.4968 299.7536 -911.9380 -791.2765 30430.7901 -460.1196 -355.1304
ENERGY: 600000 0.8016 2.5919 4.2985 0.0000 -10464.2371 1368.3698 0.0000 0.0000 1786.3402 -7301.8351 308.6446 -9088.1753 -7344.8598 303.2848 -86.8462 17.3334 29672.4449 -237.1726 -135.8865
ENERGY: 900000 1.0199 3.9539 4.2472 0.0000 -10517.9546 1385.1359 0.0000 0.0000 1761.5225 -7362.0751 304.3566 -9123.5977 -7360.4778 301.2292 -316.5018 -188.8967 29788.7591 -260.4678 -159.4335
ENERGY: 1200000 1.7580 6.2980 4.4329 0.0000 -10455.4645 1319.9923 0.0000 0.0000 1766.7989 -7356.1844 305.2682 -9122.9833 -7342.1431 302.6656 -671.9842 -585.0023 29933.6676 -325.8049 -229.5086
ENERGY: 1500000 0.4483 6.8012 5.5472 0.0000 -10608.4627 1489.0663 0.0000 0.0000 1758.1533 -7348.4464 303.7744 -9106.5997 -7360.9750 301.9411 421.4796 486.2062 30273.2877 -260.4081 -174.8880
TCL: Running FEP window   4: Lambda1 0.8499999999999999 Lambda2 0.7999999999999998 [dLambda -0.050000000000000044]
TCL: Setting parameter firsttimestep to 0
TCL: Setting parameter alchLambda to 0.8499999999999999
Info: NONBONDED TABLE R-SQUARED SPACING: 0.0625
Info: NONBONDED TABLE SIZE: 705 POINTS
TCL: Setting parameter alchLambda2 to 0.7999999999999998
Info: NONBONDED TABLE R-SQUARED SPACING: 0.0625
Info: NONBONDED TABLE SIZE: 705 POINTS
TCL: Running for 1500000 steps
ETITLE: TS BOND ANGLE DIHED IMPRP ELECT VDW BOUNDARY MISC KINETIC TOTAL TEMP POTENTIAL TOTALAVG TEMPAVG PRESSURE GPRESSURE VOLUME PRESSAVG GPRESSAVG
ENERGY: 0 0.4483 6.8012 5.5472 0.0000 -10608.2238 1489.1943 0.0000 0.0000 1757.2613 -7348.9716 303.6203 -9106.2329 -7348.9716 303.6203 390.6115 479.3722 30273.2877 390.6115 479.3722
ENERGY: 300000 1.4774 4.0916 3.3461 0.0000 -10427.8144 1341.1957 0.0000 0.0000 1772.5439 -7305.1596 306.2608 -9077.7035 -7357.0449 301.6550 -471.7939 -350.5703 30190.0258 188.9681 286.6175
ENERGY: 600000 1.4732 5.6248 3.4869 0.0000 -10621.3609 1479.8799 0.0000 0.0000 1708.4581 -7422.4380 295.1881 -9130.8961 -7359.4977 300.2429 189.5832 253.6873 30180.4376 72.1259 147.8356
ENERGY: 900000 1.6057 3.9256 6.6724 0.0000 -10464.5395 1333.0374 0.0000 0.0000 1742.5038 -7376.7946 301.0705 -9119.2984 -7362.7997 300.1985 -597.5234 -490.6370 29769.7217 -69.6071 7.7253
ENERGY: 1200000 1.8159 8.4685 4.4462 0.0000 -10389.5973 1344.7646 0.0000 0.0000 1750.8452 -7279.2569 302.5117 -9030.1021 -7356.2595 301.2612 -411.8921 -319.2994 29820.1454 -118.1070 -34.7970
ENERGY: 1500000 1.6559 4.8320 3.6930 0.0000 -10254.3588 1217.9045 0.0000 0.0000 1743.5120 -7282.7614 301.2447 -9026.2734 -7356.2036 301.1048 -1468.3152 -1402.1939 30320.5618 -171.6195 -86.4552
TCL: Running FEP window   5: Lambda1 0.7999999999999998 Lambda2 0.7499999999999998 [dLambda -0.050000000000000044]
TCL: Setting parameter firsttimestep to 0
TCL: Setting parameter alchLambda to 0.7999999999999998
Info: NONBONDED TABLE R-SQUARED SPACING: 0.0625
Info: NONBONDED TABLE SIZE: 705 POINTS
TCL: Setting parameter alchLambda2 to 0.7499999999999998
Info: NONBONDED TABLE R-SQUARED SPACING: 0.0625
Info: NONBONDED TABLE SIZE: 705 POINTS
TCL: Running for 1500000 steps
ETITLE: TS BOND ANGLE DIHED IMPRP ELECT VDW BOUNDARY MISC KINETIC TOTAL TEMP POTENTIAL TOTALAVG TEMPAVG PRESSURE GPRESSURE VOLUME PRESSAVG GPRESSAVG
ENERGY: 0 1.6559 4.8320 3.6930 0.0000 -10254.3138 1217.3026 0.0000 0.0000 1742.6436 -7284.1867 301.0946 -9026.8303 -7284.1867 301.0946 -1498.8553 -1416.0410 30320.5618 -1498.8553 -1416.0410
ENERGY: 300000 2.1175 7.8869 4.9868 0.0000 -10667.0258 1460.6124 0.0000 0.0000 1690.3166 -7501.1057 292.0536 -9191.4223 -7370.2488 296.3638 -242.8903 -157.6969 30229.8217 -860.3760 -799.4199
ENERGY: 600000 1.6731 5.6593 2.0549 0.0000 -10514.2063 1405.1700 0.0000 0.0000 1746.5276 -7353.1215 301.7657 -9099.6491 -7388.1305 297.1047 -247.6151 -292.2824 30305.2540 -588.1295 -542.2449
ENERGY: 900000 1.1880 6.4879 4.0068 0.0000 -10757.3205 1560.3240 0.0000 0.0000 1708.7123 -7476.6014 295.2320 -9185.3137 -7398.4530 297.9188 1060.6731 1153.1610 29595.9650 -257.6693 -214.7838
ENERGY: 1200000 0.6974 7.5211 4.9070 0.0000 -10606.9392 1485.2238 0.0000 0.0000 1767.7003 -7340.8896 305.4240 -9108.5900 -7387.8828 298.4274 691.9601 751.0952 29676.6853 -188.7503 -138.0843
ENERGY: 1500000 0.3204 7.6851 3.5128 0.0000 -10612.5643 1433.5109 0.0000 0.0000 1750.7817 -7416.7535 302.5008 -9167.5352 -7388.2434 298.7593 -264.7708 -133.4166 30086.2032 -117.7393 -56.6796
TCL: Running FEP window   6: Lambda1 0.7499999999999998 Lambda2 0.6999999999999997 [dLambda -0.050000000000000044]
TCL: Setting parameter firsttimestep to 0
TCL: Setting parameter alchLambda to 0.7499999999999998
Info: NONBONDED TABLE R-SQUARED SPACING: 0.0625
Info: NONBONDED TABLE SIZE: 705 POINTS
TCL: Setting parameter alchLambda2 to 0.6999999999999997
Info: NONBONDED TABLE R-SQUARED SPACING: 0.0625
Info: NONBONDED TABLE SIZE: 705 POINTS
TCL: Running for 1500000 steps
ETITLE: TS BOND ANGLE DIHED IMPRP ELECT VDW BOUNDARY MISC KINETIC TOTAL TEMP POTENTIAL TOTALAVG TEMPAVG PRESSURE GPRESSURE VOLUME PRESSAVG GPRESSAVG
ENERGY: 0 0.3204 7.6851 3.5128 0.0000 -10612.6151 1433.8515 0.0000 0.0000 1749.9033 -7417.3422 302.3490 -9167.2454 -7417.3422 302.3490 -228.1168 -140.5580 30086.2032 -228.1168 -140.5580
ENERGY: 300000 1.9784 2.7820 3.7152 0.0000 -10319.3093 1298.8565 0.0000 0.0000 1756.6874 -7255.2898 303.5211 -9011.9772 -7330.3112 303.7542 -887.5592 -853.9322 30380.5092 -204.2012 -133.2962
ENERGY: 600000 2.1550 8.1268 2.6935 0.0000 -10404.7945 1305.1873 0.0000 0.0000 1774.2614 -7312.3706 306.5576 -9086.6320 -7349.8830 302.6818 -809.2147 -793.2782 30404.0818 -263.2643 -196.1905
ENERGY: 900000 0.9246 7.0479 4.0635 0.0000 -10624.8678 1424.3299 0.0000 0.0000 1721.9602 -7466.5416 297.5210 -9188.5018 -7357.2830 302.7596 -156.5871 -63.8339 29943.0890 -136.6081 -66.6858
ENERGY: 1200000 0.7903 5.0399 3.2363 0.0000 -10527.9926 1383.7338 0.0000 0.0000 1766.1468 -7369.0455 305.1555 -9135.1923 -7359.1369 303.4102 -489.4627 -504.3481 30476.3266 -93.8351 -31.6996
ENERGY: 1500000 0.6244 4.2437 4.0812 0.0000 -10448.7561 1359.6156 0.0000 0.0000 1755.6341 -7324.5571 303.3392 -9080.1912 -7350.0689 303.0561 -235.1087 -265.1115 29709.5685 -123.0667 -71.3994
TCL: Running FEP window   7: Lambda1 0.6999999999999997 Lambda2 0.6499999999999997 [dLambda -0.050000000000000044]
TCL: Setting parameter firsttimestep to 0
TCL: Setting parameter alchLambda to 0.6999999999999997
Info: NONBONDED TABLE R-SQUARED SPACING: 0.0625
Info: NONBONDED TABLE SIZE: 705 POINTS
TCL: Setting parameter alchLambda2 to 0.6499999999999997
Info: NONBONDED TABLE R-SQUARED SPACING: 0.0625
Info: NONBONDED TABLE SIZE: 705 POINTS
TCL: Running for 1500000 steps
ETITLE: TS BOND ANGLE DIHED IMPRP ELECT VDW BOUNDARY MISC KINETIC TOTAL TEMP POTENTIAL TOTALAVG TEMPAVG PRESSURE GPRESSURE VOLUME PRESSAVG GPRESSAVG
ENERGY: 0 0.6244 4.2437 4.0812 0.0000 -10448.7542 1359.5883 0.0000 0.0000 1754.7633 -7325.4535 303.1887 -9080.2167 -7325.4535 303.1887 -349.3336 -273.2515 29709.5685 -349.3336 -273.2515
ENERGY: 300000 1.8410 4.9954 3.5803 0.0000 -10453.7204 1387.0302 0.0000 0.0000 1718.9290 -7337.3445 296.9972 -9056.2735 -7339.6715 301.4667 -433.6775 -406.9605 30380.8199 -281.8638 -240.0560
ENERGY: 600000 1.4790 5.8463 5.2636 0.0000 -10622.3232 1547.7321 0.0000 0.0000 1724.8388 -7337.1634 298.0183 -9062.0022 -7343.5707 299.4225 1163.7243 1258.4967 29967.2124 56.8784 118.5914
ENERGY: 900000 0.9369 6.5216 4.6707 0.0000 -10570.7618 1440.5995 0.0000 0.0000 1723.6752 -7394.3579 297.8173 -9118.0332 -7364.9643 297.8622 59.0575 68.0325 29941.7333 27.2015 84.2411
ENERGY: 1200000 2.1254 7.4784 5.4319 0.0000 -10551.2231 1407.1262 0.0000 0.0000 1734.1377 -7394.9236 299.6250 -9129.0613 -7369.1793 298.3751 -236.3349 -218.4809 29803.2932 23.6057 82.8168
ENERGY: 1500000 0.9445 5.7736 3.8571 0.0000 -10488.8139 1401.3915 0.0000 0.0000 1742.3333 -7334.5140 301.0410 -9076.8472 -7371.3471 298.2020 -294.2174 -250.5020 30367.0011 -19.9359 41.0632
TCL: Running FEP window   8: Lambda1 0.6499999999999997 Lambda2 0.5999999999999996 [dLambda -0.050000000000000044]
TCL: Setting parameter firsttimestep to 0
TCL: Setting parameter alchLambda to 0.6499999999999997
Info: NONBONDED TABLE R-SQUARED SPACING: 0.0625
Info: NONBONDED TABLE SIZE: 705 POINTS
TCL: Setting parameter alchLambda2 to 0.5999999999999996
Info: NONBONDED TABLE R-SQUARED SPACING: 0.0625
Info: NONBONDED TABLE SIZE: 705 POINTS
TCL: Running for 1500000 steps
ETITLE: TS BOND ANGLE DIHED IMPRP ELECT VDW BOUNDARY MISC KINETIC TOTAL TEMP POTENTIAL TOTALAVG TEMPAVG PRESSURE GPRESSURE VOLUME PRESSAVG GPRESSAVG
ENERGY: 0 0.9445 5.7736 3.8571 0.0000 -10488.7314 1401.7913 0.0000 0.0000 1741.4376 -7334.9273 300.8863 -9076.3649 -7334.9273 300.8863 -339.4976 -252.2938 30367.0011 -339.4976 -252.2938
ENERGY: 300000 1.0504 5.7360 4.3632 0.0000 -10593.2471 1421.1398 0.0000 0.0000 1726.8635 -7434.0942 298.3681 -9160.9577 -7349.3799 299.8403 -287.9597 -189.3703 30140.1172 5.4446 82.9221
ENERGY: 600000 0.4425 5.6323 3.0280 0.0000 -10583.5864 1390.6051 0.0000 0.0000 1770.1402 -7413.7383 305.8455 -9183.8785 -7370.8349 301.7336 -407.4677 -299.7648 29790.3334 -40.3245 36.6326
ENERGY: 900000 1.6970 5.4611 3.9583 0.0000 -10622.5567 1429.4578 0.0000 0.0000 1737.0685 -7444.9140 300.1314 -9181.9825 -7380.4132 301.1580 -103.3075 -46.2784 29826.4502 -85.2877 -11.7632
ENERGY: 1200000 1.2909 5.7796 3.7864 0.0000 -10534.0363 1338.9307 0.0000 0.0000 1732.0094 -7452.2392 299.2573 -9184.2486 -7390.1810 300.5760 -925.0731 -889.8333 29991.3917 -120.8052 -55.8404
ENERGY: 1500000 2.1710 5.6044 5.2195 0.0000 -10432.4977 1333.6029 0.0000 0.0000 1698.6832 -7387.2167 293.4992 -9085.9000 -7379.3946 300.6390 -802.3535 -677.6791 30115.1940 -122.1613 -53.9860
TCL: Running FEP window   9: Lambda1 0.5999999999999996 Lambda2 0.5499999999999996 [dLambda -0.050000000000000044]
TCL: Setting parameter firsttimestep to 0
TCL: Setting parameter alchLambda to 0.5999999999999996
Info: NONBONDED TABLE R-SQUARED SPACING: 0.0625
Info: NONBONDED TABLE SIZE: 705 POINTS
TCL: Setting parameter alchLambda2 to 0.5499999999999996
Info: NONBONDED TABLE R-SQUARED SPACING: 0.0625
Info: NONBONDED TABLE SIZE: 705 POINTS
TCL: Running for 1500000 steps
ETITLE: TS BOND ANGLE DIHED IMPRP ELECT VDW BOUNDARY MISC KINETIC TOTAL TEMP POTENTIAL TOTALAVG TEMPAVG PRESSURE GPRESSURE VOLUME PRESSAVG GPRESSAVG
ENERGY: 0 2.1710 5.6044 5.2195 0.0000 -10432.4371 1334.0363 0.0000 0.0000 1697.8469 -7387.5590 293.3546 -9085.4059 -7387.5590 293.3546 -777.5863 -681.6946 30115.1940 -777.5863 -681.6946
ENERGY: 300000 0.6252 7.1001 4.5367 0.0000 -10491.3234 1402.7436 0.0000 0.0000 1710.9180 -7365.3998 295.6131 -9076.3178 -7376.3185 298.2643 3.4798 18.0703 29873.7447 -421.4678 -338.6819
ENERGY: 600000 1.6342 10.2763 5.9461 0.0000 -10503.0598 1463.2569 0.0000 0.0000 1708.8285 -7313.1177 295.2521 -9021.9462 -7337.6136 299.4677 609.6315 669.9417 29700.6725 -138.4832 -60.0593
ENERGY: 900000 1.0787 5.7860 3.9620 0.0000 -10410.0452 1273.7449 0.0000 0.0000 1702.4582 -7423.0153 294.1514 -9125.4735 -7354.2412 298.5394 -1524.6382 -1503.8630 30416.4900 -279.8904 -227.3782
ENERGY: 1200000 1.1695 3.7772 4.6925 0.0000 -10458.9853 1341.2311 0.0000 0.0000 1708.5839 -7399.5311 295.2098 -9108.1150 -7365.5376 298.7634 -760.1212 -698.0438 30053.6303 -288.5155 -236.7209
ENERGY: 1500000 2.0528 5.3341 3.1941 0.0000 -10679.3409 1469.7075 0.0000 0.0000 1709.6311 -7489.4214 295.3907 -9199.0525 -7373.8538 299.3541 -161.9710 -84.8140 30135.2241 -273.9919 -219.9165
TCL: Running FEP window  10: Lambda1 0.5499999999999996 Lambda2 0.4999999999999996 [dLambda -0.04999999999999999]
TCL: Setting parameter firsttimestep to 0
TCL: Setting parameter alchLambda to 0.5499999999999996
Info: NONBONDED TABLE R-SQUARED SPACING: 0.0625
Info: NONBONDED TABLE SIZE: 705 POINTS
TCL: Setting parameter alchLambda2 to 0.4999999999999996
Info: NONBONDED TABLE R-SQUARED SPACING: 0.0625
Info: NONBONDED TABLE SIZE: 705 POINTS
TCL: Running for 1500000 steps
ETITLE: TS BOND ANGLE DIHED IMPRP ELECT VDW BOUNDARY MISC KINETIC TOTAL TEMP POTENTIAL TOTALAVG TEMPAVG PRESSURE GPRESSURE VOLUME PRESSAVG GPRESSAVG
ENERGY: 0 2.0528 5.3341 3.1941 0.0000 -10679.3928 1469.9623 0.0000 0.0000 1708.8025 -7490.0470 295.2476 -9198.8495 -7490.0470 295.2476 -172.6196 -90.6929 30135.2241 -172.6196 -90.6929
ENERGY: 300000 1.0624 7.5971 3.0411 0.0000 -10516.1678 1364.2249 0.0000 0.0000 1741.5738 -7398.6684 300.9098 -9140.2423 -7418.2294 298.6904 -617.1053 -588.6229 30202.1130 -76.6408 -37.1990
ENERGY: 600000 2.4981 6.2109 4.8521 0.0000 -10649.8103 1435.2650 0.0000 0.0000 1750.0990 -7450.8852 302.3828 -9200.9842 -7407.9840 298.6912 -257.3689 -177.6244 29880.1034 -124.6015 -80.3503
ENERGY: 900000 1.4381 6.1647 4.3218 0.0000 -10477.9052 1417.0832 0.0000 0.0000 1709.3292 -7339.5681 295.3386 -9048.8973 -7378.4019 298.1696 102.8467 211.4762 30039.3497 -107.0298 -49.9544
ENERGY: 1200000 3.0235 4.6777 4.7884 0.0000 -10493.2493 1375.8715 0.0000 0.0000 1659.8727 -7445.0155 286.7935 -9104.8882 -7377.3776 298.4095 9.6765 43.8186 29488.1824 -166.9452 -114.6203
ENERGY: 1500000 0.8829 7.5763 3.0410 0.0000 -10496.6536 1349.7934 0.0000 0.0000 1730.0405 -7405.3195 298.9171 -9135.3600 -7373.1268 298.9646 -740.4443 -615.4968 29818.4536 -135.9946 -84.3197
TCL: Running FEP window  11: Lambda1 0.4999999999999996 Lambda2 0.4499999999999996 [dLambda -0.04999999999999999]
TCL: Setting parameter firsttimestep to 0
TCL: Setting parameter alchLambda to 0.4999999999999996
Info: NONBONDED TABLE R-SQUARED SPACING: 0.0625
Info: NONBONDED TABLE SIZE: 705 POINTS
TCL: Setting parameter alchLambda2 to 0.4499999999999996
Info: NONBONDED TABLE R-SQUARED SPACING: 0.0625
Info: NONBONDED TABLE SIZE: 705 POINTS
TCL: Running for 1500000 steps
ETITLE: TS BOND ANGLE DIHED IMPRP ELECT VDW BOUNDARY MISC KINETIC TOTAL TEMP POTENTIAL TOTALAVG TEMPAVG PRESSURE GPRESSURE VOLUME PRESSAVG GPRESSAVG
ENERGY: 0 0.8829 7.5763 3.0410 0.0000 -10496.7340 1350.1945 0.0000 0.0000 1729.1567 -7405.8826 298.7644 -9135.0393 -7405.8826 298.7644 -699.3864 -620.3821 29818.4536 -699.3864 -620.3821
ENERGY: 300000 1.8200 7.0611 7.6140 0.0000 -10556.9172 1467.0019 0.0000 0.0000 1687.9332 -7385.4871 291.6418 -9073.4203 -7362.1547 297.6751 378.8200 380.4845 29936.2046 -52.6365 -10.4326
ENERGY: 600000 0.9556 8.5124 5.1246 0.0000 -10551.4180 1377.6869 0.0000 0.0000 1712.4937 -7446.6447 295.8853 -9159.1385 -7392.9332 296.7307 -643.4904 -585.0305 30061.8579 -163.1225 -110.6165
ENERGY: 900000 0.2560 14.5682 2.9566 0.0000 -10384.3283 1294.1874 0.0000 0.0000 1751.8294 -7320.5306 302.6818 -9072.3601 -7366.5418 299.4869 -962.5335 -912.2035 30272.7625 -272.0401 -220.9889
ENERGY: 1200000 0.6230 8.1320 5.5924 0.0000 -10528.8604 1452.5121 0.0000 0.0000 1712.4535 -7349.5474 295.8784 -9062.0009 -7365.1144 299.3126 123.3511 230.7752 30066.2662 -224.6635 -167.2270
ENERGY: 1500000 2.0816 3.3053 4.0162 0.0000 -10661.5335 1510.2000 0.0000 0.0000 1766.8383 -7375.0922 305.2750 -9141.9304 -7364.2534 299.9859 296.4788 320.4853 30378.0505 -113.3153 -58.2339
TCL: Running FEP window  12: Lambda1 0.4499999999999996 Lambda2 0.39999999999999963 [dLambda -0.04999999999999999]
TCL: Setting parameter firsttimestep to 0
TCL: Setting parameter alchLambda to 0.4499999999999996
Info: NONBONDED TABLE R-SQUARED SPACING: 0.0625
Info: NONBONDED TABLE SIZE: 705 POINTS
TCL: Setting parameter alchLambda2 to 0.39999999999999963
Info: NONBONDED TABLE R-SQUARED SPACING: 0.0625
Info: NONBONDED TABLE SIZE: 705 POINTS
TCL: Running for 1500000 steps
ETITLE: TS BOND ANGLE DIHED IMPRP ELECT VDW BOUNDARY MISC KINETIC TOTAL TEMP POTENTIAL TOTALAVG TEMPAVG PRESSURE GPRESSURE VOLUME PRESSAVG GPRESSAVG
ENERGY: 0 2.0816 3.3053 4.0162 0.0000 -10661.5321 1510.2214 0.0000 0.0000 1765.9813 -7375.9263 305.1269 -9141.9076 -7375.9263 305.1269 232.1155 313.9007 30378.0505 232.1155 313.9007
ENERGY: 300000 1.4354 5.4699 5.1224 0.0000 -10431.3838 1418.3768 0.0000 0.0000 1708.8661 -7292.1133 295.2585 -9000.9793 -7359.6649 300.6339 256.6679 323.2573 30164.1783 -18.5754 58.6438
ENERGY: 600000 1.6823 9.1285 4.1485 0.0000 -10581.1002 1421.4232 0.0000 0.0000 1713.2649 -7431.4529 296.0186 -9144.7178 -7369.6313 301.6121 -475.9651 -354.5229 30205.4930 5.8018 89.7212
ENERGY: 900000 0.9078 3.6350 1.6817 0.0000 -10461.9178 1355.3963 0.0000 0.0000 1724.9861 -7375.3110 298.0438 -9100.2971 -7373.2650 301.6645 -469.0995 -416.9566 29846.2688 120.3047 201.6640
ENERGY: 1200000 1.0793 8.4969 3.9957 0.0000 -10504.1847 1349.7940 0.0000 0.0000 1744.4350 -7396.3838 301.4042 -9140.8188 -7384.3098 299.4306 -631.7076 -645.1343 30165.0416 -45.2482 29.8774
ENERGY: 1500000 2.0596 3.2592 4.0797 0.0000 -10527.5865 1432.4424 0.0000 0.0000 1730.8142 -7354.9314 299.0508 -9085.7456 -7378.1686 299.4437 -25.8082 24.2991 29868.6074 -36.8493 35.3554
TCL: Running FEP window  13: Lambda1 0.39999999999999963 Lambda2 0.34999999999999964 [dLambda -0.04999999999999999]
TCL: Setting parameter firsttimestep to 0
TCL: Setting parameter alchLambda to 0.39999999999999963
Info: NONBONDED TABLE R-SQUARED SPACING: 0.0625
Info: NONBONDED TABLE SIZE: 705 POINTS
TCL: Setting parameter alchLambda2 to 0.34999999999999964
Info: NONBONDED TABLE R-SQUARED SPACING: 0.0625
Info: NONBONDED TABLE SIZE: 705 POINTS
TCL: Running for 1500000 steps
ETITLE: TS BOND ANGLE DIHED IMPRP ELECT VDW BOUNDARY MISC KINETIC TOTAL TEMP POTENTIAL TOTALAVG TEMPAVG PRESSURE GPRESSURE VOLUME PRESSAVG GPRESSAVG
ENERGY: 0 2.0596 3.2592 4.0797 0.0000 -10527.5848 1432.0175 0.0000 0.0000 1729.9366 -7356.2321 298.8991 -9086.1688 -7356.2321 298.8991 -69.6322 15.1700 29868.6074 -69.6322 15.1700
ENERGY: 300000 0.3782 4.3224 3.6343 0.0000 -10511.9724 1469.5098 0.0000 0.0000 1741.4896 -7292.6381 300.8953 -9034.1277 -7369.8197 299.2264 438.6698 505.5878 30456.3173 -4.7788 52.5576
ENERGY: 600000 2.5242 6.7438 4.3934 0.0000 -10561.7889 1448.0024 0.0000 0.0000 1758.0576 -7342.0676 303.7579 -9100.1252 -7370.0611 300.8239 353.5048 409.9232 29646.6494 -81.6155 -18.5464
ENERGY: 900000 0.4791 6.7090 4.5713 0.0000 -10542.8767 1433.1484 0.0000 0.0000 1735.1459 -7362.8231 299.7992 -9097.9689 -7373.5469 300.3867 252.7055 328.5322 29599.1310 -30.4271 36.3990
ENERGY: 1200000 1.3029 3.6299 4.9298 0.0000 -10427.7983 1335.4042 0.0000 0.0000 1692.1108 -7390.4207 292.3636 -9082.5315 -7369.7622 299.3523 -774.1625 -746.7030 29986.3193 -89.4340 -16.5832
ENERGY: 1500000 1.1942 6.1817 4.6671 0.0000 -10482.2265 1400.8794 0.0000 0.0000 1728.1989 -7341.1053 298.5989 -9069.3042 -7360.8873 300.2229 124.1789 145.5132 29659.0758 -98.0518 -28.6146
TCL: Running FEP window  14: Lambda1 0.34999999999999964 Lambda2 0.29999999999999966 [dLambda -0.04999999999999999]
TCL: Setting parameter firsttimestep to 0
TCL: Setting parameter alchLambda to 0.34999999999999964
Info: NONBONDED TABLE R-SQUARED SPACING: 0.0625
Info: NONBONDED TABLE SIZE: 705 POINTS
TCL: Setting parameter alchLambda2 to 0.29999999999999966
Info: NONBONDED TABLE R-SQUARED SPACING: 0.0625
Info: NONBONDED TABLE SIZE: 705 POINTS
TCL: Running for 1500000 steps
ETITLE: TS BOND ANGLE DIHED IMPRP ELECT VDW BOUNDARY MISC KINETIC TOTAL TEMP POTENTIAL TOTALAVG TEMPAVG PRESSURE GPRESSURE VOLUME PRESSAVG GPRESSAVG
ENERGY: 0 1.1942 6.1817 4.6671 0.0000 -10482.2263 1400.2790 0.0000 0.0000 1727.3116 -7342.5927 298.4456 -9069.9043 -7342.5927 298.4456 54.5093 137.8319 29659.0758 54.5093 137.8319
ENERGY: 300000 0.7233 7.4512 3.3057 0.0000 -10497.4626 1405.1256 0.0000 0.0000 1709.5357 -7371.3211 295.3742 -9080.8568 -7363.8532 297.9611 -140.3666 -156.1014 30330.7054 281.5187 347.0192
ENERGY: 600000 1.0721 4.7399 3.3428 0.0000 -10399.9339 1377.5788 0.0000 0.0000 1744.1408 -7269.0595 301.3533 -9013.2003 -7342.6985 301.0193 -206.3974 -135.4575 30025.5217 159.7290 224.2155
ENERGY: 900000 3.8460 7.4293 4.2906 0.0000 -10663.0209 1464.5796 0.0000 0.0000 1806.5842 -7376.2912 312.1423 -9182.8754 -7357.4143 301.5983 135.2614 162.7838 29736.6225 167.1986 229.0840
ENERGY: 1200000 5.5935 2.3824 5.2474 0.0000 -10464.7464 1380.6306 0.0000 0.0000 1744.1686 -7326.7240 301.3581 -9070.8925 -7353.7763 302.4679 -452.1535 -325.4023 30169.7456 87.4361 148.3059
ENERGY: 1500000 0.6658 4.1354 4.3570 0.0000 -10533.1243 1396.1301 0.0000 0.0000 1721.9987 -7405.8373 297.5276 -9127.8360 -7358.0333 302.0493 -195.3143 -103.6094 29690.6383 -54.0673 5.9251
TCL: Running FEP window  15: Lambda1 0.29999999999999966 Lambda2 0.24999999999999967 [dLambda -0.04999999999999999]
TCL: Setting parameter firsttimestep to 0
TCL: Setting parameter alchLambda to 0.29999999999999966
Info: NONBONDED TABLE R-SQUARED SPACING: 0.0625
Info: NONBONDED TABLE SIZE: 705 POINTS
TCL: Setting parameter alchLambda2 to 0.24999999999999967
Info: NONBONDED TABLE R-SQUARED SPACING: 0.0625
Info: NONBONDED TABLE SIZE: 705 POINTS
TCL: Running for 1500000 steps
ETITLE: TS BOND ANGLE DIHED IMPRP ELECT VDW BOUNDARY MISC KINETIC TOTAL TEMP POTENTIAL TOTALAVG TEMPAVG PRESSURE GPRESSURE VOLUME PRESSAVG GPRESSAVG
ENERGY: 0 0.6658 4.1354 4.3570 0.0000 -10533.1246 1395.7340 0.0000 0.0000 1721.1566 -7407.0758 297.3821 -9128.2324 -7407.0758 297.3821 -202.6643 -112.8422 29690.6383 -202.6643 -112.8422
ENERGY: 300000 0.2101 9.7456 3.6910 0.0000 -10598.7688 1502.2211 0.0000 0.0000 1698.9715 -7383.9295 293.5490 -9082.9011 -7376.7239 300.6874 540.7618 629.5401 29966.3600 402.4571 476.6763
ENERGY: 600000 1.1198 7.0201 3.5438 0.0000 -10570.3626 1453.3275 0.0000 0.0000 1751.4499 -7353.9015 302.6162 -9105.3514 -7351.0915 301.4605 302.8434 349.8390 30036.3736 201.0628 280.2997
ENERGY: 900000 0.2781 6.0725 5.1150 0.0000 -10580.5814 1430.7486 0.0000 0.0000 1790.8883 -7347.4788 309.4304 -9138.3671 -7363.0601 301.1453 62.7416 121.1594 29915.8479 274.6949 349.1752
ENERGY: 1200000 2.6870 6.4309 5.0634 0.0000 -10506.0107 1427.4287 0.0000 0.0000 1755.0195 -7309.3811 303.2330 -9064.4006 -7363.2541 300.2269 255.8702 278.6777 30081.7696 249.2624 317.8629
ENERGY: 1500000 0.5807 5.3578 4.1108 0.0000 -10544.8178 1465.2395 0.0000 0.0000 1709.7627 -7359.7663 295.4135 -9069.5289 -7364.3671 299.9284 354.1767 428.5132 29914.1431 289.9778 364.6910
TCL: Running FEP window  16: Lambda1 0.24999999999999967 Lambda2 0.19999999999999968 [dLambda -0.04999999999999999]
TCL: Setting parameter firsttimestep to 0
TCL: Setting parameter alchLambda to 0.24999999999999967
Info: NONBONDED TABLE R-SQUARED SPACING: 0.0625
Info: NONBONDED TABLE SIZE: 705 POINTS
TCL: Setting parameter alchLambda2 to 0.19999999999999968
Info: NONBONDED TABLE R-SQUARED SPACING: 0.0625
Info: NONBONDED TABLE SIZE: 705 POINTS
TCL: Running for 1500000 steps
ETITLE: TS BOND ANGLE DIHED IMPRP ELECT VDW BOUNDARY MISC KINETIC TOTAL TEMP POTENTIAL TOTALAVG TEMPAVG PRESSURE GPRESSURE VOLUME PRESSAVG GPRESSAVG
ENERGY: 0 0.5807 5.3578 4.1108 0.0000 -10544.8190 1465.0900 0.0000 0.0000 1708.9166 -7360.7630 295.2673 -9069.6796 -7360.7630 295.2673 353.6376 427.1106 29914.1431 353.6376 427.1106
ENERGY: 300000 1.8886 6.9290 4.1211 0.0000 -10494.9859 1428.6650 0.0000 0.0000 1689.8237 -7363.5585 291.9684 -9053.3822 -7359.5030 298.4746 66.3666 108.3327 29974.2009 206.4309 270.1197
ENERGY: 600000 2.1384 9.1647 5.4626 0.0000 -10622.4065 1570.5619 0.0000 0.0000 1808.9414 -7226.1375 312.5496 -9035.0789 -7333.8752 301.4293 1332.8022 1330.1646 29834.2022 283.5265 336.7309
ENERGY: 900000 0.1436 5.2575 2.2327 0.0000 -10445.5051 1381.6411 0.0000 0.0000 1716.4729 -7339.7573 296.5729 -9056.2302 -7326.7649 301.4390 -530.3807 -393.2827 30525.9533 126.7051 198.6161
ENERGY: 1200000 0.6513 6.4867 5.6014 0.0000 -10632.1471 1486.1836 0.0000 0.0000 1749.5093 -7383.7148 302.2809 -9133.2241 -7337.7162 301.1781 277.8056 342.8529 29825.0233 70.2299 146.5992
ENERGY: 1500000 2.4060 6.2079 6.3944 0.0000 -10562.2681 1441.9681 0.0000 0.0000 1759.7096 -7345.5821 304.0433 -9105.2917 -7341.7641 301.0157 192.4989 224.6744 29439.5276 93.1692 160.5127
TCL: Running FEP window  17: Lambda1 0.19999999999999968 Lambda2 0.1499999999999997 [dLambda -0.04999999999999999]
TCL: Setting parameter firsttimestep to 0
TCL: Setting parameter alchLambda to 0.19999999999999968
Info: NONBONDED TABLE R-SQUARED SPACING: 0.0625
Info: NONBONDED TABLE SIZE: 705 POINTS
TCL: Setting parameter alchLambda2 to 0.1499999999999997
Info: NONBONDED TABLE R-SQUARED SPACING: 0.0625
Info: NONBONDED TABLE SIZE: 705 POINTS
TCL: Running for 1500000 steps
ETITLE: TS BOND ANGLE DIHED IMPRP ELECT VDW BOUNDARY MISC KINETIC TOTAL TEMP POTENTIAL TOTALAVG TEMPAVG PRESSURE GPRESSURE VOLUME PRESSAVG GPRESSAVG
ENERGY: 0 2.4060 6.2079 6.3944 0.0000 -10562.2665 1442.0120 0.0000 0.0000 1758.8475 -7346.3987 303.8944 -9105.2462 -7346.3987 303.8944 124.4486 218.1573 29439.5276 124.4486 218.1573
ENERGY: 300000 0.7830 6.9020 8.5235 0.0000 -10603.4971 1464.8618 0.0000 0.0000 1699.8070 -7422.6199 293.6933 -9122.4269 -7411.8005 297.5165 408.5657 478.9383 29491.9832 69.8271 141.5126
ENERGY: 600000 0.8408 4.4846 4.5146 0.0000 -10665.6916 1452.0283 0.0000 0.0000 1749.7676 -7454.0559 302.3255 -9203.8235 -7400.7283 299.7330 61.8420 88.5443 29525.5189 -21.0528 45.6700
ENERGY: 900000 3.0366 5.1710 5.3619 0.0000 -10414.7371 1333.7631 0.0000 0.0000 1721.6211 -7345.7833 297.4624 -9067.4044 -7394.7366 299.2605 -577.9449 -542.2942 29808.1694 32.0826 96.2927
ENERGY: 1200000 1.6656 7.1999 3.2707 0.0000 -10400.1749 1304.4469 0.0000 0.0000 1792.4869 -7291.1049 309.7066 -9083.5919 -7387.1933 299.5086 -987.6141 -953.6648 30017.0920 -66.1890 -6.2289
ENERGY: 1500000 0.6302 7.6112 3.8850 0.0000 -10577.8350 1496.8291 0.0000 0.0000 1761.2786 -7307.6010 304.3144 -9068.8795 -7375.7211 300.0996 829.4860 931.4765 29545.7059 -66.4480 -2.0562
TCL: Running FEP window  18: Lambda1 0.1499999999999997 Lambda2 0.09999999999999969 [dLambda -0.05 ]
TCL: Setting parameter firsttimestep to 0
TCL: Setting parameter alchLambda to 0.1499999999999997
Info: NONBONDED TABLE R-SQUARED SPACING: 0.0625
Info: NONBONDED TABLE SIZE: 705 POINTS
TCL: Setting parameter alchLambda2 to 0.09999999999999969
Info: NONBONDED TABLE R-SQUARED SPACING: 0.0625
Info: NONBONDED TABLE SIZE: 705 POINTS
TCL: Running for 1500000 steps
ETITLE: TS BOND ANGLE DIHED IMPRP ELECT VDW BOUNDARY MISC KINETIC TOTAL TEMP POTENTIAL TOTALAVG TEMPAVG PRESSURE GPRESSURE VOLUME PRESSAVG GPRESSAVG
ENERGY: 0 0.6302 7.6112 3.8850 0.0000 -10577.8350 1497.1310 0.0000 0.0000 1760.3700 -7308.2077 304.1574 -9068.5777 -7308.2077 304.1574 831.3960 928.7709 29545.7059 831.3960 928.7709
ENERGY: 300000 0.6362 6.2908 3.4963 0.0000 -10737.6794 1531.6227 0.0000 0.0000 1775.3193 -7420.3141 306.7404 -9195.6334 -7354.5187 304.2787 776.1572 785.4193 29412.4488 449.1791 496.1210
ENERGY: 600000 1.9274 4.6718 4.3698 0.0000 -10570.8627 1405.6416 0.0000 0.0000 1812.6366 -7341.6154 313.1881 -9154.2520 -7366.8797 305.1292 -312.8284 -198.9187 29862.5267 354.2123 393.3958
ENERGY: 900000 0.8131 7.7255 4.1837 0.0000 -10570.5845 1443.1794 0.0000 0.0000 1736.9932 -7377.6896 300.1184 -9114.6828 -7360.7239 303.7060 169.2465 256.1492 29583.3708 193.2337 249.7409
ENERGY: 1200000 1.7991 3.3057 4.0162 0.0000 -10679.7827 1485.6575 0.0000 0.0000 1724.9173 -7460.0869 298.0319 -9185.0042 -7361.8790 303.3252 476.0445 495.5502 29466.9476 166.6481 215.1527
ENERGY: 1500000 0.7572 6.5361 3.3021 0.0000 -10606.2453 1370.2678 0.0000 0.0000 1776.2431 -7449.1390 306.9000 -9225.3821 -7364.6761 303.2639 -498.1883 -428.3283 29334.1623 99.3401 147.6474
TCL: Running FEP window  19: Lambda1 0.09999999999999969 Lambda2 0.049999999999999684 [dLambda -0.05 ]
TCL: Setting parameter firsttimestep to 0
TCL: Setting parameter alchLambda to 0.09999999999999969
Info: NONBONDED TABLE R-SQUARED SPACING: 0.0625
Info: NONBONDED TABLE SIZE: 705 POINTS
TCL: Setting parameter alchLambda2 to 0.049999999999999684
Info: NONBONDED TABLE R-SQUARED SPACING: 0.0625
Info: NONBONDED TABLE SIZE: 705 POINTS
TCL: Running for 1500000 steps
ETITLE: TS BOND ANGLE DIHED IMPRP ELECT VDW BOUNDARY MISC KINETIC TOTAL TEMP POTENTIAL TOTALAVG TEMPAVG PRESSURE GPRESSURE VOLUME PRESSAVG GPRESSAVG
ENERGY: 0 0.7572 6.5361 3.3021 0.0000 -10606.2459 1369.1354 0.0000 0.0000 1775.3875 -7451.1276 306.7521 -9226.5151 -7451.1276 306.7521 -514.6083 -435.2722 29334.1623 -514.6083 -435.2722
ENERGY: 300000 1.1707 8.8739 4.3932 0.0000 -10746.6236 1553.4128 0.0000 0.0000 1748.0271 -7430.7459 302.0248 -9178.7730 -7403.3480 300.7868 1314.8367 1384.5708 28876.4603 -216.9622 -113.9968
ENERGY: 600000 0.4924 8.0947 1.9240 0.0000 -10538.0523 1387.0240 0.0000 0.0000 1733.5470 -7406.9701 299.5229 -9140.5171 -7391.0830 299.2573 -409.9485 -380.7243 30105.8104 -172.1076 -89.5215
ENERGY: 900000 0.2612 7.4701 4.3141 0.0000 -10604.9877 1472.4541 0.0000 0.0000 1801.4107 -7319.0775 311.2485 -9120.4882 -7390.4436 299.6857 528.5547 606.2278 29350.3992 -21.6237 58.2932
ENERGY: 1200000 0.6040 7.9478 4.6124 0.0000 -10609.3546 1468.0878 0.0000 0.0000 1678.5978 -7449.5048 290.0288 -9128.1027 -7381.4537 299.1827 311.1714 358.9371 29856.5707 -19.3165 57.3920
ENERGY: 1500000 0.2023 6.1116 3.4308 0.0000 -10355.3901 1381.6535 0.0000 0.0000 1741.5740 -7222.4179 300.9098 -8963.9920 -7371.6563 299.0695 -93.7214 -18.7471 30246.9239 -7.2566 65.6524
TCL: Running FEP window  20: Lambda1 0.049999999999999684 Lambda2 0.0    [dLambda -0.049999999999999684]
TCL: Setting parameter firsttimestep to 0
TCL: Setting parameter alchLambda to 0.049999999999999684
Info: NONBONDED TABLE R-SQUARED SPACING: 0.0625
Info: NONBONDED TABLE SIZE: 705 POINTS
TCL: Setting parameter alchLambda2 to 0.0
Info: NONBONDED TABLE R-SQUARED SPACING: 0.0625
Info: NONBONDED TABLE SIZE: 705 POINTS
TCL: Running for 1500000 steps
ETITLE: TS BOND ANGLE DIHED IMPRP ELECT VDW BOUNDARY MISC KINETIC TOTAL TEMP POTENTIAL TOTALAVG TEMPAVG PRESSURE GPRESSURE VOLUME PRESSAVG GPRESSAVG
ENERGY: 0 0.2023 6.1116 3.4308 0.0000 -10355.3886 1381.1045 0.0000 0.0000 1740.7107 -7223.8287 300.7607 -8964.5394 -7223.8287 300.7607 -93.2360 -23.5271 30246.9239 -93.2360 -23.5271
ENERGY: 300000 1.7808 3.3794 5.4428 0.0000 -10633.8419 1450.1255 0.0000 0.0000 1732.4566 -7440.6568 299.3345 -9173.1134 -7379.3738 297.2593 157.5883 182.3453 29431.9673 -143.6415 -92.5797
ENERGY: 600000 3.6462 4.1837 4.5002 0.0000 -10607.7891 1472.2145 0.0000 0.0000 1714.4647 -7408.7797 296.2259 -9123.2444 -7365.8844 298.9897 470.9606 544.4853 29539.4558 18.6436 73.5856
ENERGY: 900000 1.3429 5.3926 5.8400 0.0000 -10413.6827 1365.6225 0.0000 0.0000 1762.0336 -7273.4511 304.4449 -9035.4847 -7349.1407 300.0357 -181.9034 -129.6502 29690.3522 65.5197 122.6841
ENERGY: 1200000 2.3444 5.0498 4.4947 0.0000 -10421.8709 1319.7587 0.0000 0.0000 1738.0351 -7352.1883 300.2984 -9090.2234 -7351.6863 298.9717 -704.0774 -751.7332 29955.9644 -69.6534 -17.1195
ENERGY: 1500000 2.4871 3.7446 3.2706 0.0000 -10467.4480 1360.6282 0.0000 0.0000 1744.7700 -7352.5475 301.4621 -9097.3176 -7356.0995 299.4634 -744.0083 -619.1947 30067.5096 -90.2750 -32.2281
TCL: Exiting due to exit command.
