Info: SIMULATION PARAMETERS:
Info: TIMESTEP               2
Info: NUMBER OF STEPS        0
Info: STEPS PER CYCLE        10
Info: PERIODIC CELL BASIS 1  30.3396 0 0
Info: PERIODIC CELL BASIS 2  0 29.7498 0
Info: PERIODIC CELL BASIS 3  0 0 33.2169
Info: PERIODIC CELL CENTER   0 0 0
Info: WRAPPING WATERS AROUND PERIODIC BOUNDARIES ON OUTPUT.
Info: WRAPPING ALL CLUSTERS AROUND PERIODIC BOUNDARIES ON OUTPUT.
Info: FIRST LDB TIMESTEP     50
Info: LAST LDB TIMESTEP     -1
Info: HOM BACKGROUND SCALING 1
Info: PME BACKGROUND SCALING 1
Info: MIN ATOMS PER PATCH    40
Info: EMPTY PATCH LOAD       40 ATOMS
Info: VELOCITY FILE          mobley_2802855_equil.vel
Info: CENTER OF MASS MOVING INITIALLY? NO
Info: DIELECTRIC             1
Info: EXCLUDE                SCALED ONE-FOUR
Info: 1-4 ELECTROSTATICS SCALED BY 0.833333
Info: MODIFIED 1-4 VDW PARAMETERS WILL BE USED
Info: DCD FILENAME           mobley_2802855_prod.dcd
Info: DCD FREQUENCY          100000
Info: DCD FIRST STEP         100000
Info: DCD FILE WILL CONTAIN UNIT CELL DATA
Info: XST FILENAME           mobley_2802855_prod.xst
Info: XST FREQUENCY          100000
Info: NO VELOCITY DCD OUTPUT
Info: NO FORCE DCD OUTPUT
Info: OUTPUT FILENAME        mobley_2802855_prod
Info: BINARY OUTPUT FILES WILL BE USED
Info: RESTART FILENAME       mobley_2802855_prod.restart
Info: RESTART FREQUENCY      100000
Info: BINARY RESTART FILES WILL BE USED
Info: CUTOFF                 9
Info: PAIRLIST DISTANCE      11
Info: PAIRLIST SHRINK RATE   0.01
Info: PAIRLIST GROW RATE     0.01
Info: PAIRLIST TRIGGER       0.3
Info: PAIRLISTS PER CYCLE    2
Info: PAIRLISTS ENABLED
Info: MARGIN                 2
Info: HYDROGEN GROUP CUTOFF  2.5
Info: PATCH DIMENSION        15.5
Info: ENERGY OUTPUT STEPS    100000
Info: ENERGY EVALUATION STEPS    100000
Info: OUTPUT ENERGY PRECISION 4
Info: CROSSTERM ENERGY INCLUDED IN DIHEDRAL
Info: TIMING OUTPUT STEPS    1000000
Info: PRESSURE OUTPUT STEPS  100000
Info: ALCHEMICAL FEP ON
Info: FEP CURRENT LAMBDA VALUE     0
Info: FEP COMPARISON LAMBDA VALUE  0.05
Info: FEP INTRA-ALCHEMICAL NON-BONDED INTERACTIONS WILL BE RETAINED
Info: FEP INTRA-ALCHEMICAL BONDED INTERACTIONS WILL BE RETAINED
Info: FEP VDW SHIFTING COEFFICIENT 5
Info: FEP ELEC. ACTIVE FOR ANNIHILATED PARTICLES BETWEEN LAMBDA = 0 AND LAMBDA = 0.5
Info: FEP ELEC. ACTIVE FOR EXNIHILATED PARTICLES BETWEEN LAMBDA = 0.5 AND LAMBDA = 1
Info: FEP VDW ACTIVE FOR ANNIHILATED PARTICLES BETWEEN LAMBDA = 0 AND LAMBDA = 1
Info: FEP VDW ACTIVE FOR EXNIHILATED PARTICLES BETWEEN LAMBDA = 0 AND LAMBDA = 1
Info: FEP BOND ACTIVE FOR ANNIHILATED PARTICLES BETWEEN LAMBDA = 1 AND LAMBDA = 1
Info: FEP BOND ACTIVE FOR EXNIHILATED PARTICLES BETWEEN LAMBDA = 0 AND LAMBDA = 0
Info: LANGEVIN DYNAMICS ACTIVE
Info: LANGEVIN TEMPERATURE   300
Info: LANGEVIN USING BBK INTEGRATOR
Info: LANGEVIN DAMPING COEFFICIENT IS 1 INVERSE PS
Info: LANGEVIN DYNAMICS APPLIED TO HYDROGENS
Info: LANGEVIN PISTON PRESSURE CONTROL ACTIVE
Info:        TARGET PRESSURE IS 1.01325 BAR
Info:     OSCILLATION PERIOD IS 50 FS
Info:             DECAY TIME IS 25 FS
Info:     PISTON TEMPERATURE IS 300 K
Info:       PRESSURE CONTROL IS GROUP-BASED
Info:    INITIAL STRAIN RATE IS -0.000328928 -0.000328928 -0.000328928
Info:       CELL FLUCTUATION IS ISOTROPIC
Info: PARTICLE MESH EWALD (PME) ACTIVE
Info: PME TOLERANCE               1e-06
Info: PME EWALD COEFFICIENT       0.348832
Info: PME INTERPOLATION ORDER     4
Info: PME GRID DIMENSIONS         32 32 36
Info: PME MAXIMUM GRID SPACING    1
Info: PME CALCULATION WILL BE PERFORMED ON GPU
Info: FULL ELECTROSTATIC EVALUATION FREQUENCY      2
Info: USING VERLET I (r-RESPA) MTS SCHEME.
Info: C1 SPLITTING OF LONG RANGE ELECTROSTATICS
Info: PLACING ATOMS IN PATCHES BY HYDROGEN GROUPS
Info: RIGID BONDS TO HYDROGEN : ALL
Info:         ERROR TOLERANCE : 1e-08
Info:          MAX ITERATIONS : 100
Info: RIGID WATER USING SETTLE ALGORITHM
Info: RANDOM NUMBER SEED     1743829631
Info: USE HYDROGEN BONDS?    NO
Info: Using AMBER format force field!
Info: AMBER PARM FILE        mobley_2802855.prmtop
Info: COORDINATE PDB         mobley_2802855.pdb
Info: Exclusions will be read from PARM file!
Info: SCNB (VDW SCALING)     2
Info: USING ARITHMETIC MEAN TO COMBINE L-J SIGMA PARAMETERS
Info: BINARY COORDINATES     mobley_2802855_equil.coor
Info: SUMMARY OF PARAMETERS:
Info: 6 BONDS
Info: 7 ANGLES
Info:   7 HARMONIC
Info:   0 COSINE-BASED
Info: 8 DIHEDRAL
Info: 0 IMPROPER
Info: 0 CROSSTERM
Info: 0 VDW
Info: 21 VDW_PAIRS
Info: 0 NBTHOLE_PAIRS
Info: To read alchdata from file: mobley_2802855.pdb
Info: To read alchflag data from column: 5
Info: STRUCTURE SUMMARY:
Info: 2963 ATOMS
Info: 2962 BONDS
Info: 24 ANGLES
Info: 31 DIHEDRALS
Info: 0 IMPROPERS
Info: 0 CROSSTERMS
Info: 3013 EXCLUSIONS
Info: 2958 RIGID BONDS
Info: ALCH: 0 ATOMS TO DISAPPEAR IN FINAL STATE
Info: ALCH: 14 ATOMS TO APPEAR IN FINAL STATE
Info: 5931 DEGREES OF FREEDOM
Info: 988 HYDROGEN GROUPS
Info: 4 ATOMS IN LARGEST HYDROGEN GROUP
Info: 988 MIGRATION GROUPS
Info: 4 ATOMS IN LARGEST MIGRATION GROUP
Info: TOTAL MASS = 17846.7 amu
Info: TOTAL CHARGE = -9.99887e-05 e
Info: MASS DENSITY = 0.988475 g/cm^3
Info: ATOM DENSITY = 0.0988278 atoms/A^3
Info: ADDED 0 IMPLICIT EXCLUSIONS
Info: NONBONDED TABLE R-SQUARED SPACING: 0.0625
Info: NONBONDED TABLE SIZE: 705 POINTS
Info: REMOVING COM VELOCITY 0.0407761 0.0641024 0.0911643
Info: Use 3D box decompostion in PME FFT.
Info: Updated CUDA force table with 4096 elements.
Info: Updated CUDA LJ table with 6 x 6 elements.
Info: Found 17 unique exclusion lists needing 36 bytes
TCL: Running for 1500000 steps
ETITLE: TS BOND ANGLE DIHED IMPRP ELECT VDW BOUNDARY MISC KINETIC TOTAL TEMP POTENTIAL TOTALAVG TEMPAVG PRESSURE GPRESSURE VOLUME PRESSAVG GPRESSAVG
ENERGY: 0 0.1289 5.7830 2.6115 0.0000 -10780.7408 1495.7227 0.0000 0.0000 1777.9924 -7498.5023 301.7119 -9276.4948 -7498.5023 301.7119 729.3157 824.4560 29981.4424 729.3157 824.4560
ENERGY: 300000 1.2511 7.1989 1.5683 0.0000 -10759.4078 1452.3360 0.0000 0.0000 1765.9563 -7531.0972 299.6694 -9297.0536 -7512.0989 301.5041 -90.0340 -17.9076 30464.2597 30.2397 99.9348
ENERGY: 600000 0.7281 7.9729 2.9562 0.0000 -10781.0206 1494.1556 0.0000 0.0000 1789.9069 -7485.3008 303.7336 -9275.2077 -7500.0615 300.7467 551.7347 635.9632 30027.9673 -26.0147 44.4739
ENERGY: 900000 0.6469 3.2965 4.4559 0.0000 -10872.6268 1518.2328 0.0000 0.0000 1792.5325 -7553.4620 304.1792 -9345.9945 -7526.2649 299.5068 429.9688 596.2136 29785.7558 28.8236 106.8810
ENERGY: 1200000 0.8047 4.2875 3.4550 0.0000 -10715.6164 1430.2120 0.0000 0.0000 1744.7421 -7532.1151 296.0695 -9276.8572 -7509.4582 300.3772 -88.0679 -42.1353 30426.9301 95.2450 164.7849
ENERGY: 1500000 0.8588 5.2224 2.4511 0.0000 -10721.9463 1468.3064 0.0000 0.0000 1741.5222 -7503.5854 295.5231 -9245.1077 -7510.0358 300.5262 415.5162 448.6594 30089.2621 98.8848 168.6306
TCL: Running FEP window   2: Lambda1 0.05   Lambda2 0.1    [dLambda 0.05  ]
TCL: Setting parameter firsttimestep to 0
TCL: Setting parameter alchLambda to 0.05
Info: NONBONDED TABLE R-SQUARED SPACING: 0.0625
Info: NONBONDED TABLE SIZE: 705 POINTS
TCL: Setting parameter alchLambda2 to 0.1
Info: NONBONDED TABLE R-SQUARED SPACING: 0.0625
Info: NONBONDED TABLE SIZE: 705 POINTS
TCL: Running for 1500000 steps
ETITLE: TS BOND ANGLE DIHED IMPRP ELECT VDW BOUNDARY MISC KINETIC TOTAL TEMP POTENTIAL TOTALAVG TEMPAVG PRESSURE GPRESSURE VOLUME PRESSAVG GPRESSAVG
ENERGY: 0 0.8588 5.2224 2.4511 0.0000 -10721.9456 1470.4257 0.0000 0.0000 1740.6325 -7502.3552 295.3721 -9242.9877 -7502.3552 295.3721 371.2663 458.2142 30089.2621 371.2663 458.2142
ENERGY: 300000 0.3380 5.8805 1.7038 0.0000 -10841.3749 1482.0062 0.0000 0.0000 1714.4721 -7636.9743 290.9329 -9351.4464 -7568.2101 296.7922 110.1326 164.2257 30270.3270 90.9954 173.8245
ENERGY: 600000 0.5666 4.7995 3.1994 0.0000 -10646.5411 1419.9484 0.0000 0.0000 1729.3835 -7488.6437 293.4633 -9218.0272 -7539.5750 297.5453 -340.7466 -335.3971 30973.3305 -187.6834 -130.9013
ENERGY: 900000 1.7902 6.4487 2.4098 0.0000 -10737.4528 1463.4488 0.0000 0.0000 1735.1277 -7528.2276 294.4380 -9263.3554 -7528.9140 297.6009 -142.5554 -93.0895 30909.7362 -164.2168 -111.4023
ENERGY: 1200000 0.6236 8.3797 3.4874 0.0000 -10672.5422 1408.9664 0.0000 0.0000 1741.5751 -7509.5101 295.5321 -9251.0851 -7524.7009 297.4729 -129.6271 -132.3816 30330.2107 -186.6919 -131.3531
ENERGY: 1500000 2.7790 5.3132 5.8221 0.0000 -10656.6045 1440.3932 0.0000 0.0000 1762.8026 -7439.4944 299.1343 -9202.2970 -7524.8307 297.4985 -174.1256 -151.9628 30859.8213 -190.8400 -137.5131
TCL: Running FEP window   3: Lambda1 0.1    Lambda2 0.15000000000000002 [dLambda 0.05000000000000002]
TCL: Setting parameter firsttimestep to 0
TCL: Setting parameter alchLambda to 0.1
Info: NONBONDED TABLE R-SQUARED SPACING: 0.0625
Info: NONBONDED TABLE SIZE: 705 POINTS
TCL: Setting parameter alchLambda2 to 0.15000000000000002
Info: NONBONDED TABLE R-SQUARED SPACING: 0.0625
Info: NONBONDED TABLE SIZE: 705 POINTS
TCL: Running for 1500000 steps
ETITLE: TS BOND ANGLE DIHED IMPRP ELECT VDW BOUNDARY MISC KINETIC TOTAL TEMP POTENTIAL TOTALAVG TEMPAVG PRESSURE GPRESSURE VOLUME PRESSAVG GPRESSAVG
ENERGY: 0 2.7790 5.3132 5.8221 0.0000 -10656.6042 1442.1469 0.0000 0.0000 1761.9027 -7438.6402 298.9815 -9200.5429 -7438.6402 298.9815 -224.5091 -146.4793 30859.8213 -224.5091 -146.4793
ENERGY: 300000 0.1883 6.2780 1.5768 0.0000 -10805.3321 1478.1455 0.0000 0.0000 1721.6720 -7597.4715 292.1547 -9319.1435 -7543.4930 295.2370 176.6598 255.6744 30132.2420 121.1976 168.5647
ENERGY: 600000 1.0147 8.6749 2.1872 0.0000 -10698.4249 1455.9927 0.0000 0.0000 1825.7577 -7404.7977 309.8173 -9230.5554 -7499.8020 298.9649 561.8967 629.8533 29865.8085 -10.1119 47.1256
ENERGY: 900000 1.4101 7.5804 1.6664 0.0000 -10649.9519 1454.2387 0.0000 0.0000 1740.0109 -7445.0453 295.2667 -9185.0562 -7484.9067 298.8642 -20.2772 36.6985 30920.0166 -160.8763 -93.4531
ENERGY: 1200000 2.7146 8.3353 2.7795 0.0000 -10834.8321 1540.3984 0.0000 0.0000 1725.5971 -7555.0072 292.8208 -9280.6043 -7504.0816 298.5156 407.3704 514.8477 30716.3290 -170.3086 -102.9167
ENERGY: 1500000 0.3047 7.2087 1.3043 0.0000 -10607.4921 1411.9834 0.0000 0.0000 1755.0960 -7431.5950 297.8265 -9186.6910 -7500.8897 298.6214 10.3067 94.3028 30495.9543 -174.8849 -109.6423
TCL: Running FEP window   4: Lambda1 0.15000000000000002 Lambda2 0.2    [dLambda 0.04999999999999999]
TCL: Setting parameter firsttimestep to 0
TCL: Setting parameter alchLambda to 0.15000000000000002
Info: NONBONDED TABLE R-SQUARED SPACING: 0.0625
Info: NONBONDED TABLE SIZE: 705 POINTS
TCL: Setting parameter alchLambda2 to 0.2
Info: NONBONDED TABLE R-SQUARED SPACING: 0.0625
Info: NONBONDED TABLE SIZE: 705 POINTS
TCL: Running for 1500000 steps
ETITLE: TS BOND ANGLE DIHED IMPRP ELECT VDW BOUNDARY MISC KINETIC TOTAL TEMP POTENTIAL TOTALAVG TEMPAVG PRESSURE GPRESSURE VOLUME PRESSAVG GPRESSAVG
ENERGY: 0 0.3047 7.2087 1.3043 0.0000 -10607.4931 1413.5461 0.0000 0.0000 1754.2202 -7430.9091 297.6779 -9185.1293 -7430.9091 297.6779 35.6263 103.5058 30495.9543 35.6263 103.5058
ENERGY: 300000 3.2267 7.7612 3.8522 0.0000 -10783.7067 1453.1249 0.0000 0.0000 1731.2806 -7584.4610 293.7852 -9315.7416 -7519.2258 295.7960 -77.0734 11.3128 30082.6390 -84.1277 -25.0988
ENERGY: 600000 0.5877 6.3118 2.9645 0.0000 -10639.0369 1426.1829 0.0000 0.0000 1774.5552 -7428.4347 301.1286 -9202.9900 -7515.2937 297.4527 -191.8613 -88.0296 30845.1889 114.8087 180.3229
ENERGY: 900000 0.3815 6.6639 4.4869 0.0000 -10765.0767 1470.6935 0.0000 0.0000 1801.9345 -7480.9164 305.7746 -9282.8509 -7512.1751 299.0268 -9.8031 58.0156 30829.6967 136.8396 205.4040
ENERGY: 1200000 0.3651 3.8827 1.9975 0.0000 -10898.8653 1579.6295 0.0000 0.0000 1804.9503 -7508.0402 306.2864 -9312.9905 -7514.1298 300.0757 831.3339 915.0409 30560.5901 126.6759 192.1271
ENERGY: 1500000 0.5649 3.6223 2.6664 0.0000 -10849.1787 1532.3160 0.0000 0.0000 1731.6572 -7578.3518 293.8491 -9310.0090 -7517.6994 299.7342 263.5577 343.6715 30722.3252 117.1345 182.6881
TCL: Running FEP window   5: Lambda1 0.2    Lambda2 0.25   [dLambda 0.04999999999999999]
TCL: Setting parameter firsttimestep to 0
TCL: Setting parameter alchLambda to 0.2
Info: NONBONDED TABLE R-SQUARED SPACING: 0.0625
Info: NONBONDED TABLE SIZE: 705 POINTS
TCL: Setting parameter alchLambda2 to 0.25
Info: NONBONDED TABLE R-SQUARED SPACING: 0.0625
Info: NONBONDED TABLE SIZE: 705 POINTS
TCL: Running for 1500000 steps
ETITLE: TS BOND ANGLE DIHED IMPRP ELECT VDW BOUNDARY MISC KINETIC TOTAL TEMP POTENTIAL TOTALAVG TEMPAVG PRESSURE GPRESSURE VOLUME PRESSAVG GPRESSAVG
ENERGY: 0 0.5649 3.6223 2.6664 0.0000 -10849.1789 1532.0591 0.0000 0.0000 1730.7740 -7579.4921 293.6992 -9310.2662 -7579.4921 293.6992 254.0953 341.1770 30722.3252 254.0953 341.1770
ENERGY: 300000 0.7066 6.9866 1.5149 0.0000 -10810.7791 1483.6106 0.0000 0.0000 1789.6223 -7528.3381 303.6854 -9317.9605 -7490.5389 303.1741 473.2132 487.4594 29825.5777 83.7106 143.9693
ENERGY: 600000 1.4959 5.5320 1.8553 0.0000 -10767.8518 1450.6592 0.0000 0.0000 1831.3857 -7476.9238 310.7723 -9308.3095 -7503.8368 303.2601 31.2081 118.3374 30135.9379 89.1470 148.7178
ENERGY: 900000 2.4729 6.1019 2.1075 0.0000 -10779.9430 1432.1632 0.0000 0.0000 1758.4048 -7578.6927 298.3880 -9337.0975 -7532.3520 301.7206 -95.3170 -24.8851 29821.7384 44.8145 106.4696
ENERGY: 1200000 3.4313 6.7586 2.3498 0.0000 -10664.6527 1360.9794 0.0000 0.0000 1764.9146 -7526.2190 299.4926 -9291.1336 -7531.7832 301.4503 -885.4143 -821.1501 30553.8567 -29.0073 36.5263
ENERGY: 1500000 1.6568 2.6035 2.1511 0.0000 -10632.5260 1361.9956 0.0000 0.0000 1734.8196 -7529.2994 294.3857 -9264.1190 -7526.3188 301.1045 -634.3785 -634.4647 30690.4141 -80.4851 -20.5263
TCL: Running FEP window   6: Lambda1 0.25   Lambda2 0.3    [dLambda 0.04999999999999999]
TCL: Setting parameter firsttimestep to 0
TCL: Setting parameter alchLambda to 0.25
Info: NONBONDED TABLE R-SQUARED SPACING: 0.0625
Info: NONBONDED TABLE SIZE: 705 POINTS
TCL: Setting parameter alchLambda2 to 0.3
Info: NONBONDED TABLE R-SQUARED SPACING: 0.0625
Info: NONBONDED TABLE SIZE: 705 POINTS
TCL: Running for 1500000 steps
ETITLE: TS BOND ANGLE DIHED IMPRP ELECT VDW BOUNDARY MISC KINETIC TOTAL TEMP POTENTIAL TOTALAVG TEMPAVG PRESSURE GPRESSURE VOLUME PRESSAVG GPRESSAVG
ENERGY: 0 1.6568 2.6035 2.1511 0.0000 -10632.5234 1362.2140 0.0000 0.0000 1733.9156 -7529.9823 294.2324 -9263.8980 -7529.9823 294.2324 -713.5617 -629.3567 30690.4141 -713.5617 -629.3567
ENERGY: 300000 1.7233 6.4103 1.4814 0.0000 -10783.2703 1418.1838 0.0000 0.0000 1803.6813 -7551.7902 306.0711 -9355.4715 -7498.4247 300.6851 -374.0489 -221.2940 30348.5107 -197.3088 -113.4664
ENERGY: 600000 1.5463 4.0634 2.8241 0.0000 -10774.2612 1489.7723 0.0000 0.0000 1771.0915 -7504.9637 300.5408 -9276.0552 -7498.8039 299.7125 615.6752 687.6740 30134.4096 -80.6006 -19.0345
ENERGY: 900000 0.4343 10.4114 2.9130 0.0000 -10765.3119 1484.2213 0.0000 0.0000 1741.3436 -7525.9881 295.4928 -9267.3318 -7495.2385 298.1391 292.2663 336.0075 30423.1221 25.5898 80.6322
ENERGY: 1200000 0.4276 6.9537 2.1296 0.0000 -10718.2004 1444.3239 0.0000 0.0000 1793.3211 -7471.0444 304.3130 -9264.3655 -7498.3929 298.7566 90.1116 164.3962 30457.3255 52.6931 113.0195
ENERGY: 1500000 0.8159 6.2210 2.0550 0.0000 -10861.2633 1486.9557 0.0000 0.0000 1715.1922 -7650.0233 291.0551 -9365.2156 -7512.5104 298.2060 127.1971 171.0324 30252.9598 83.0679 135.8653
TCL: Running FEP window   7: Lambda1 0.3    Lambda2 0.35   [dLambda 0.04999999999999999]
TCL: Setting parameter firsttimestep to 0
TCL: Setting parameter alchLambda to 0.3
Info: NONBONDED TABLE R-SQUARED SPACING: 0.0625
Info: NONBONDED TABLE SIZE: 705 POINTS
TCL: Setting parameter alchLambda2 to 0.35
Info: NONBONDED TABLE R-SQUARED SPACING: 0.0625
Info: NONBONDED TABLE SIZE: 705 POINTS
TCL: Running for 1500000 steps
ETITLE: TS BOND ANGLE DIHED IMPRP ELECT VDW BOUNDARY MISC KINETIC TOTAL TEMP POTENTIAL TOTALAVG TEMPAVG PRESSURE GPRESSURE VOLUME PRESSAVG GPRESSAVG
ENERGY: 0 0.8159 6.2210 2.0550 0.0000 -10861.2630 1486.9956 0.0000 0.0000 1714.3294 -7650.8460 290.9087 -9365.1754 -7650.8460 290.9087 101.5087 176.2855 30252.9598 101.5087 176.2855
ENERGY: 300000 1.5226 6.1193 1.9883 0.0000 -10670.9391 1454.0103 0.0000 0.0000 1774.1521 -7433.1465 301.0602 -9207.2986 -7522.3183 299.1455 484.1837 536.3770 30176.9156 98.7572 162.8738
ENERGY: 600000 2.0080 4.9410 2.1472 0.0000 -10760.6884 1473.8088 0.0000 0.0000 1769.2128 -7508.5705 300.2220 -9277.7833 -7513.1601 300.7121 20.5847 84.9086 30468.1396 3.3307 63.1994
ENERGY: 900000 2.1181 3.6164 2.0673 0.0000 -10859.6425 1481.4480 0.0000 0.0000 1809.4262 -7560.9665 307.0459 -9370.3927 -7517.2916 300.4974 173.0384 249.3963 29834.8248 -107.1234 -46.1041
ENERGY: 1200000 3.8759 5.3027 1.6748 0.0000 -10822.7609 1474.0900 0.0000 0.0000 1781.3921 -7556.4255 302.2887 -9337.8175 -7532.4131 299.7922 -184.1761 -82.8602 30853.8208 -166.6326 -97.4743
ENERGY: 1500000 1.0416 4.2498 1.8804 0.0000 -10705.3988 1377.5003 0.0000 0.0000 1810.3027 -7510.4242 307.1947 -9320.7269 -7531.7118 299.6635 -520.8560 -475.3847 30466.4009 -176.7106 -109.1995
TCL: Running FEP window   8: Lambda1 0.35   Lambda2 0.39999999999999997 [dLambda 0.04999999999999999]
TCL: Setting parameter firsttimestep to 0
TCL: Setting parameter alchLambda to 0.35
Info: NONBONDED TABLE R-SQUARED SPACING: 0.0625
Info: NONBONDED TABLE SIZE: 705 POINTS
TCL: Setting parameter alchLambda2 to 0.39999999999999997
Info: NONBONDED TABLE R-SQUARED SPACING: 0.0625
Info: NONBONDED TABLE SIZE: 705 POINTS
TCL: Running for 1500000 steps
ETITLE: TS BOND ANGLE DIHED IMPRP ELECT VDW BOUNDARY MISC KINETIC TOTAL TEMP POTENTIAL TOTALAVG TEMPAVG PRESSURE GPRESSURE VOLUME PRESSAVG GPRESSAVG
ENERGY: 0 1.0416 4.2498 1.8804 0.0000 -10705.3981 1378.4162 0.0000 0.0000 1809.4555 -7510.3547 307.0509 -9319.8101 -7510.3547 307.0509 -552.9585 -464.4233 30466.4009 -552.9585 -464.4233
ENERGY: 300000 1.2810 4.7935 5.0408 0.0000 -10629.9674 1333.3082 0.0000 0.0000 1772.2573 -7513.2865 300.7386 -9285.5438 -7516.5629 301.3805 -740.5352 -700.3633 30106.4954 -74.4811 -41.8701
ENERGY: 600000 0.1144 6.2761 2.3569 0.0000 -10805.4585 1494.5296 0.0000 0.0000 1772.3810 -7529.8005 300.7596 -9302.1815 -7518.9413 301.1212 147.2894 212.5361 30795.7161 -130.7105 -65.0056
ENERGY: 900000 2.2782 2.7808 3.0484 0.0000 -10730.0260 1441.3089 0.0000 0.0000 1761.8940 -7518.7157 298.9801 -9280.6097 -7509.9637 300.9421 -64.2031 30.5235 30401.5273 -139.2407 -70.5588
ENERGY: 1200000 0.6991 5.0357 2.5351 0.0000 -10640.6581 1430.6408 0.0000 0.0000 1806.5772 -7395.1702 306.5625 -9201.7474 -7503.1758 301.2158 257.3241 306.2945 30451.8204 -69.8160 -2.6703
ENERGY: 1500000 1.6307 6.3882 1.6579 0.0000 -10696.5349 1408.8588 0.0000 0.0000 1783.7253 -7494.2740 302.6847 -9277.9993 -7498.8516 301.3000 -275.4093 -209.7117 30559.8499 -10.4799 55.5476
TCL: Running FEP window   9: Lambda1 0.39999999999999997 Lambda2 0.44999999999999996 [dLambda 0.04999999999999999]
TCL: Setting parameter firsttimestep to 0
TCL: Setting parameter alchLambda to 0.39999999999999997
Info: NONBONDED TABLE R-SQUARED SPACING: 0.0625
Info: NONBONDED TABLE SIZE: 705 POINTS
TCL: Setting parameter alchLambda2 to 0.44999999999999996
Info: NONBONDED TABLE R-SQUARED SPACING: 0.0625
Info: NONBONDED TABLE SIZE: 705 POINTS
TCL: Running for 1500000 steps
ETITLE: TS BOND ANGLE DIHED IMPRP ELECT VDW BOUNDARY MISC KINETIC TOTAL TEMP POTENTIAL TOTALAVG TEMPAVG PRESSURE GPRESSURE VOLUME PRESSAVG GPRESSAVG
ENERGY: 0 1.6307 6.3882 1.6579 0.0000 -10696.5341 1409.4365 0.0000 0.0000 1782.8163 -7494.6044 302.5304 -9277.4207 -7494.6044 302.5304 -287.8995 -200.4212 30559.8499 -287.8995 -200.4212
ENERGY: 300000 2.2793 7.3342 1.5285 0.0000 -10676.3534 1392.3444 0.0000 0.0000 1749.1866 -7523.6804 296.8237 -9272.8670 -7561.1771 299.7067 -685.7562 -615.7762 30794.2035 -255.5173 -182.0427
ENERGY: 600000 0.5408 8.1192 1.4620 0.0000 -10713.9042 1386.1783 0.0000 0.0000 1763.2444 -7554.3594 299.2092 -9317.6038 -7537.0025 300.9385 -705.0168 -633.7488 30665.5895 -373.3362 -305.1189
ENERGY: 900000 1.1116 7.2140 4.7887 0.0000 -10678.2365 1491.8127 0.0000 0.0000 1660.2473 -7513.0622 281.7314 -9173.3095 -7526.7443 299.2010 173.5246 212.3675 31141.0252 -188.0673 -123.7708
ENERGY: 1200000 1.9139 4.9963 2.3646 0.0000 -10855.7881 1549.7990 0.0000 0.0000 1775.9189 -7520.7952 301.3600 -9296.7142 -7529.8001 298.8989 928.3845 993.0698 30010.3269 -122.4826 -55.1648
ENERGY: 1500000 0.5230 5.3767 2.0277 0.0000 -10746.1529 1449.4459 0.0000 0.0000 1785.8572 -7502.9223 303.0464 -9288.7796 -7530.3290 299.5347 56.7854 168.8830 30664.2372 -95.5482 -24.2365
TCL: Running FEP window  10: Lambda1 0.44999999999999996 Lambda2 0.49999999999999994 [dLambda 0.04999999999999999]
TCL: Setting parameter firsttimestep to 0
TCL: Setting parameter alchLambda to 0.44999999999999996
Info: NONBONDED TABLE R-SQUARED SPACING: 0.0625
Info: NONBONDED TABLE SIZE: 705 POINTS
TCL: Setting parameter alchLambda2 to 0.49999999999999994
Info: NONBONDED TABLE R-SQUARED SPACING: 0.0625
Info: NONBONDED TABLE SIZE: 705 POINTS
TCL: Running for 1500000 steps
ETITLE: TS BOND ANGLE DIHED IMPRP ELECT VDW BOUNDARY MISC KINETIC TOTAL TEMP POTENTIAL TOTALAVG TEMPAVG PRESSURE GPRESSURE VOLUME PRESSAVG GPRESSAVG
ENERGY: 0 0.5230 5.3767 2.0277 0.0000 -10746.1521 1449.4144 0.0000 0.0000 1784.9725 -7503.8378 302.8963 -9288.8103 -7503.8378 302.8963 92.8251 173.7551 30664.2372 92.8251 173.7551
ENERGY: 300000 0.9988 8.9822 3.1401 0.0000 -10595.7816 1338.8868 0.0000 0.0000 1809.0430 -7434.7306 306.9809 -9243.7736 -7463.9857 303.6929 -775.4947 -730.2755 30670.2545 -446.7310 -370.3975
ENERGY: 600000 0.7837 3.5573 2.3951 0.0000 -10754.4929 1480.5237 0.0000 0.0000 1758.4967 -7508.7364 298.4036 -9267.2330 -7484.2674 300.9920 231.7365 344.1398 30296.2079 70.4314 140.5395
ENERGY: 900000 1.8325 5.7591 2.3324 0.0000 -10797.1416 1523.2146 0.0000 0.0000 1840.6804 -7423.3226 312.3495 -9264.0030 -7489.1378 303.7003 515.3570 636.8593 30653.8631 143.7580 217.4548
ENERGY: 1200000 2.6885 8.2646 2.0512 0.0000 -10746.8610 1399.5939 0.0000 0.0000 1774.5815 -7559.6814 301.1330 -9334.2629 -7498.2500 303.3502 -444.9455 -422.5668 30163.6850 8.3175 71.3604
ENERGY: 1500000 0.2607 4.8543 1.9835 0.0000 -10634.9598 1419.3290 0.0000 0.0000 1759.0138 -7449.5186 298.4913 -9208.5324 -7500.2157 301.9692 18.7186 63.7880 30430.6498 46.2413 110.3051
TCL: Running FEP window  11: Lambda1 0.49999999999999994 Lambda2 0.5499999999999999 [dLambda 0.04999999999999999]
TCL: Setting parameter firsttimestep to 0
TCL: Setting parameter alchLambda to 0.49999999999999994
Info: NONBONDED TABLE R-SQUARED SPACING: 0.0625
Info: NONBONDED TABLE SIZE: 705 POINTS
TCL: Setting parameter alchLambda2 to 0.5499999999999999
Info: NONBONDED TABLE R-SQUARED SPACING: 0.0625
Info: NONBONDED TABLE SIZE: 705 POINTS
TCL: Running for 1500000 steps
ETITLE: TS BOND ANGLE DIHED IMPRP ELECT VDW BOUNDARY MISC KINETIC TOTAL TEMP POTENTIAL TOTALAVG TEMPAVG PRESSURE GPRESSURE VOLUME PRESSAVG GPRESSAVG
ENERGY: 0 0.2607 4.8543 1.9835 0.0000 -10634.9600 1418.8119 0.0000 0.0000 1758.1328 -7450.9169 298.3418 -9209.0497 -7450.9169 298.3418 -26.8250 64.8134 30430.6498 -26.8250 64.8134
ENERGY: 300000 2.4990 5.5313 3.1651 0.0000 -10691.0266 1413.1222 0.0000 0.0000 1770.4288 -7496.2803 300.4284 -9266.7091 -7464.7930 303.6211 -276.9643 -272.2984 30452.5643 -270.9276 -207.7775
ENERGY: 600000 0.4283 8.3604 2.3718 0.0000 -10811.4285 1466.3448 0.0000 0.0000 1733.8018 -7600.1213 294.2130 -9333.9231 -7497.6508 300.5062 -102.1906 -27.9347 30715.5103 -343.9226 -275.2420
ENERGY: 900000 1.8904 9.1519 2.1254 0.0000 -10655.1810 1420.3871 0.0000 0.0000 1707.5182 -7514.1079 289.7529 -9221.6262 -7499.3292 299.8735 -172.4119 -97.3375 30641.4169 -273.7010 -209.9897
ENERGY: 1200000 0.5291 4.9548 3.1035 0.0000 -10688.3944 1355.0428 0.0000 0.0000 1780.9419 -7543.8222 302.2124 -9324.7641 -7509.2486 300.5597 -928.9326 -825.7792 30759.9414 -212.7560 -137.6309
ENERGY: 1500000 0.2744 6.3450 1.4794 0.0000 -10736.8988 1470.9238 0.0000 0.0000 1831.1106 -7426.7656 310.7256 -9257.8762 -7502.5174 301.1614 347.1429 434.1458 30364.4773 -210.1812 -134.6729
TCL: Running FEP window  12: Lambda1 0.5499999999999999 Lambda2 0.6    [dLambda 0.050000000000000044]
TCL: Setting parameter firsttimestep to 0
TCL: Setting parameter alchLambda to 0.5499999999999999
Info: NONBONDED TABLE R-SQUARED SPACING: 0.0625
Info: NONBONDED TABLE SIZE: 705 POINTS
TCL: Setting parameter alchLambda2 to 0.6
Info: NONBONDED TABLE R-SQUARED SPACING: 0.0625
Info: NONBONDED TABLE SIZE: 705 POINTS
TCL: Running for 1500000 steps
ETITLE: TS BOND ANGLE DIHED IMPRP ELECT VDW BOUNDARY MISC KINETIC TOTAL TEMP POTENTIAL TOTALAVG TEMPAVG PRESSURE GPRESSURE VOLUME PRESSAVG GPRESSAVG
ENERGY: 0 0.2744 6.3450 1.4794 0.0000 -10737.0770 1471.1101 0.0000 0.0000 1830.2837 -7427.5844 310.5853 -9257.8681 -7427.5844 310.5853 355.6348 443.5488 30364.4773 355.6348 443.5488
ENERGY: 300000 0.2473 3.8471 5.6997 0.0000 -10738.5130 1437.2684 0.0000 0.0000 1786.8088 -7504.6417 303.2079 -9291.4505 -7451.4057 302.4274 -37.2424 30.8646 30273.3008 294.7818 376.1509
ENERGY: 600000 1.1152 7.9944 1.9222 0.0000 -10776.5063 1462.0376 0.0000 0.0000 1725.2445 -7578.1924 292.7609 -9303.4369 -7476.5966 301.2665 99.3045 160.6772 30250.5336 236.3689 311.3236
ENERGY: 900000 0.4663 7.2062 2.7255 0.0000 -10713.8967 1462.7582 0.0000 0.0000 1781.9295 -7458.8111 302.3799 -9240.7405 -7481.7746 300.9489 254.1501 339.5157 30484.1250 166.5692 241.2320
ENERGY: 1200000 2.1971 4.7660 1.5750 0.0000 -10705.4611 1392.9406 0.0000 0.0000 1765.6759 -7538.3065 299.6218 -9303.9823 -7487.7512 300.8126 -564.9830 -493.7745 30259.4714 63.4863 130.9092
ENERGY: 1500000 0.2652 10.5005 4.6287 0.0000 -10623.7036 1386.3747 0.0000 0.0000 1773.9465 -7447.9879 301.0253 -9221.9344 -7490.1856 301.1291 -541.2891 -531.4436 31121.7919 39.6770 100.1449
TCL: Running FEP window  13: Lambda1 0.6    Lambda2 0.65   [dLambda 0.050000000000000044]
TCL: Setting parameter firsttimestep to 0
TCL: Setting parameter alchLambda to 0.6
Info: NONBONDED TABLE R-SQUARED SPACING: 0.0625
Info: NONBONDED TABLE SIZE: 705 POINTS
TCL: Setting parameter alchLambda2 to 0.65
Info: NONBONDED TABLE R-SQUARED SPACING: 0.0625
Info: NONBONDED TABLE SIZE: 705 POINTS
TCL: Running for 1500000 steps
ETITLE: TS BOND ANGLE DIHED IMPRP ELECT VDW BOUNDARY MISC KINETIC TOTAL TEMP POTENTIAL TOTALAVG TEMPAVG PRESSURE GPRESSURE VOLUME PRESSAVG GPRESSAVG
ENERGY: 0 0.2652 10.5005 4.6287 0.0000 -10623.4812 1386.4728 0.0000 0.0000 1773.0565 -7448.5574 300.8743 -9221.6139 -7448.5574 300.8743 -590.4366 -522.8182 31121.7919 -590.4366 -522.8182
ENERGY: 300000 1.1847 5.4235 2.6110 0.0000 -10703.2084 1431.3212 0.0000 0.0000 1771.5308 -7491.1372 300.6154 -9262.6680 -7490.5000 302.7572 127.9293 192.2417 30416.5007 -239.1970 -165.1732
ENERGY: 600000 1.4595 6.0140 3.1464 0.0000 -10857.4307 1507.1171 0.0000 0.0000 1798.3408 -7541.3529 305.1648 -9339.6937 -7506.6201 303.8156 482.2844 607.5282 30181.7876 -142.7049 -50.0824
ENERGY: 900000 1.4255 3.3636 2.6140 0.0000 -10698.4624 1446.0732 0.0000 0.0000 1808.3479 -7436.6382 306.8629 -9244.9861 -7495.7104 303.7417 -47.9333 12.0723 30695.8171 -63.1275 22.4901
ENERGY: 1200000 0.5065 10.1163 3.1611 0.0000 -10780.1988 1487.6814 0.0000 0.0000 1760.5548 -7518.1788 298.7528 -9278.7336 -7491.4343 302.2213 251.8892 307.4623 30525.1228 -61.5143 18.2243
ENERGY: 1500000 1.6775 3.8338 3.1812 0.0000 -10663.0591 1418.0858 0.0000 0.0000 1773.8949 -7462.3860 301.0165 -9236.2809 -7489.3638 302.3870 53.6468 93.6804 30362.7408 -37.1957 31.1272
TCL: Running FEP window  14: Lambda1 0.65   Lambda2 0.7000000000000001 [dLambda 0.050000000000000044]
TCL: Setting parameter firsttimestep to 0
TCL: Setting parameter alchLambda to 0.65
Info: NONBONDED TABLE R-SQUARED SPACING: 0.0625
Info: NONBONDED TABLE SIZE: 705 POINTS
TCL: Setting parameter alchLambda2 to 0.7000000000000001
Info: NONBONDED TABLE R-SQUARED SPACING: 0.0625
Info: NONBONDED TABLE SIZE: 705 POINTS
TCL: Running for 1500000 steps
ETITLE: TS BOND ANGLE DIHED IMPRP ELECT VDW BOUNDARY MISC KINETIC TOTAL TEMP POTENTIAL TOTALAVG TEMPAVG PRESSURE GPRESSURE VOLUME PRESSAVG GPRESSAVG
ENERGY: 0 1.6775 3.8338 3.1812 0.0000 -10663.1507 1418.5898 0.0000 0.0000 1772.9928 -7462.8756 300.8634 -9235.8683 -7462.8756 300.8634 38.9938 105.1173 30362.7408 38.9938 105.1173
ENERGY: 300000 0.1443 8.4557 3.1207 0.0000 -10849.5994 1522.4310 0.0000 0.0000 1829.5996 -7485.8481 310.4692 -9315.4476 -7515.6684 303.3353 674.8305 721.4329 30271.9987 281.2432 336.4831
ENERGY: 600000 1.1613 5.8069 3.5837 0.0000 -10664.3123 1399.9837 0.0000 0.0000 1740.5869 -7513.1897 295.3644 -9253.7766 -7492.3102 303.4668 -232.4252 -121.4435 30370.0031 305.5569 354.2057
ENERGY: 900000 1.0408 8.4060 3.8884 0.0000 -10825.1778 1475.9579 0.0000 0.0000 1762.4955 -7573.3892 299.0821 -9335.8847 -7517.3844 301.2338 289.7989 396.2787 30015.8555 257.3885 313.9226
ENERGY: 1200000 1.8046 3.8602 2.5364 0.0000 -10858.7292 1510.0921 0.0000 0.0000 1777.7340 -7562.7019 301.6680 -9340.4359 -7516.4044 300.9023 446.1328 487.1813 30099.6783 231.0960 283.6283
ENERGY: 1500000 0.5582 8.5826 2.0184 0.0000 -10553.7511 1325.3587 0.0000 0.0000 1756.8049 -7460.4282 298.1165 -9217.2331 -7517.0214 300.2286 -937.3318 -893.1805 30964.7613 192.6697 246.5180
TCL: Running FEP window  15: Lambda1 0.7000000000000001 Lambda2 0.7500000000000001 [dLambda 0.050000000000000044]
TCL: Setting parameter firsttimestep to 0
TCL: Setting parameter alchLambda to 0.7000000000000001
Info: NONBONDED TABLE R-SQUARED SPACING: 0.0625
Info: NONBONDED TABLE SIZE: 705 POINTS
TCL: Setting parameter alchLambda2 to 0.7500000000000001
Info: NONBONDED TABLE R-SQUARED SPACING: 0.0625
Info: NONBONDED TABLE SIZE: 705 POINTS
TCL: Running for 1500000 steps
ETITLE: TS BOND ANGLE DIHED IMPRP ELECT VDW BOUNDARY MISC KINETIC TOTAL TEMP POTENTIAL TOTALAVG TEMPAVG PRESSURE GPRESSURE VOLUME PRESSAVG GPRESSAVG
ENERGY: 0 0.5582 8.5826 2.0184 0.0000 -10554.2193 1325.8626 0.0000 0.0000 1755.8831 -7461.3144 297.9601 -9217.1975 -7461.3144 297.9601 -976.3088 -881.8967 30964.7613 -976.3088 -881.8967
ENERGY: 300000 1.5787 6.2078 1.8840 0.0000 -10749.4065 1435.1336 0.0000 0.0000 1729.5955 -7575.0069 293.4993 -9304.6024 -7548.2817 297.8925 -130.1336 -75.8736 30676.4196 -469.9816 -379.2063
ENERGY: 600000 1.4220 4.0167 2.2388 0.0000 -10748.0052 1417.1190 0.0000 0.0000 1726.8971 -7596.3116 293.0414 -9323.2087 -7549.5194 296.5874 -228.7347 -245.8907 30516.6031 -443.5107 -367.5020
ENERGY: 900000 2.0416 5.3886 3.2630 0.0000 -10839.4509 1504.9132 0.0000 0.0000 1810.0997 -7513.7447 307.1602 -9323.8444 -7556.3160 296.8073 618.4768 679.6689 30033.4857 -246.8111 -169.0263
ENERGY: 1200000 4.0303 5.2385 2.7607 0.0000 -10763.9284 1393.7607 0.0000 0.0000 1795.9809 -7562.1572 304.7644 -9358.1381 -7544.7224 298.7699 -549.0497 -471.8393 30581.2642 -219.0776 -137.5305
ENERGY: 1500000 0.8411 2.8064 1.3042 0.0000 -10821.4637 1486.5443 0.0000 0.0000 1758.1967 -7571.7709 298.3527 -9329.9676 -7544.0058 299.2273 35.8302 52.8786 30761.8625 -205.2515 -130.6433
TCL: Running FEP window  16: Lambda1 0.7500000000000001 Lambda2 0.8000000000000002 [dLambda 0.050000000000000044]
TCL: Setting parameter firsttimestep to 0
TCL: Setting parameter alchLambda to 0.7500000000000001
Info: NONBONDED TABLE R-SQUARED SPACING: 0.0625
Info: NONBONDED TABLE SIZE: 705 POINTS
TCL: Setting parameter alchLambda2 to 0.8000000000000002
Info: NONBONDED TABLE R-SQUARED SPACING: 0.0625
Info: NONBONDED TABLE SIZE: 705 POINTS
TCL: Running for 1500000 steps
ETITLE: TS BOND ANGLE DIHED IMPRP ELECT VDW BOUNDARY MISC KINETIC TOTAL TEMP POTENTIAL TOTALAVG TEMPAVG PRESSURE GPRESSURE VOLUME PRESSAVG GPRESSAVG
ENERGY: 0 0.8411 2.8064 1.3042 0.0000 -10821.6390 1486.8177 0.0000 0.0000 1757.2877 -7572.5818 298.1984 -9329.8696 -7572.5818 298.1984 -19.7991 60.6098 30761.8625 -19.7991 60.6098
ENERGY: 300000 1.7154 6.7983 1.6407 0.0000 -10738.1775 1438.2099 0.0000 0.0000 1713.9448 -7575.8684 290.8435 -9289.8132 -7510.1682 299.1708 -137.0340 -121.2897 30650.6169 -257.7725 -196.9427
ENERGY: 600000 2.7705 10.5596 2.0388 0.0000 -10774.0218 1443.4397 0.0000 0.0000 1779.5714 -7535.6419 301.9798 -9315.2133 -7509.9206 300.1545 -208.2314 -127.8832 30697.9376 -349.0790 -298.2140
ENERGY: 900000 0.5227 6.1249 1.7518 0.0000 -10666.4502 1436.0206 0.0000 0.0000 1808.5227 -7413.5075 306.8926 -9222.0302 -7486.2560 301.7853 163.4175 210.2421 30505.1266 -18.2389 33.6354
ENERGY: 1200000 4.8305 6.6358 2.0928 0.0000 -10632.5275 1412.7230 0.0000 0.0000 1770.5201 -7435.7254 300.4438 -9206.2454 -7490.8599 301.5298 -144.7703 -114.9638 30542.4641 40.9196 85.6574
ENERGY: 1500000 1.6935 8.3003 2.7428 0.0000 -10720.6656 1443.4271 0.0000 0.0000 1793.9904 -7470.5115 304.4266 -9264.5019 -7493.7307 301.5893 167.3884 256.4984 30329.6901 -32.0975 13.1727
TCL: Running FEP window  17: Lambda1 0.8000000000000002 Lambda2 0.8500000000000002 [dLambda 0.050000000000000044]
TCL: Setting parameter firsttimestep to 0
TCL: Setting parameter alchLambda to 0.8000000000000002
Info: NONBONDED TABLE R-SQUARED SPACING: 0.0625
Info: NONBONDED TABLE SIZE: 705 POINTS
TCL: Setting parameter alchLambda2 to 0.8500000000000002
Info: NONBONDED TABLE R-SQUARED SPACING: 0.0625
Info: NONBONDED TABLE SIZE: 705 POINTS
TCL: Running for 1500000 steps
ETITLE: TS BOND ANGLE DIHED IMPRP ELECT VDW BOUNDARY MISC KINETIC TOTAL TEMP POTENTIAL TOTALAVG TEMPAVG PRESSURE GPRESSURE VOLUME PRESSAVG GPRESSAVG
ENERGY: 0 1.6935 8.3003 2.7428 0.0000 -10720.8167 1443.3804 0.0000 0.0000 1793.1411 -7471.5586 304.2825 -9264.6997 -7471.5586 304.2825 189.3000 269.2093 30329.6901 189.3000 269.2093
ENERGY: 300000 1.7902 4.5823 1.8293 0.0000 -10720.9542 1432.8382 0.0000 0.0000 1744.4987 -7535.4156 296.0282 -9279.9142 -7508.2012 298.9262 -250.4583 -168.8300 30745.2386 309.0836 373.9784
ENERGY: 600000 2.8640 3.8840 2.7049 0.0000 -10659.8032 1412.9904 0.0000 0.0000 1715.8643 -7521.4955 291.1692 -9237.3599 -7527.7449 297.7962 -112.1215 -32.7103 30426.1195 246.1579 321.6829
ENERGY: 900000 1.7193 4.9647 4.5522 0.0000 -10578.5160 1334.3766 0.0000 0.0000 1781.4492 -7451.4540 302.2984 -9232.9032 -7510.0748 298.8817 -691.7995 -571.4239 30546.1911 101.3458 187.3869
ENERGY: 1200000 1.5081 5.7507 2.0493 0.0000 -10626.4027 1403.9221 0.0000 0.0000 1829.3669 -7383.8056 310.4297 -9213.1725 -7496.6386 299.9065 -40.5741 -55.4719 30667.5239 58.4410 129.5496
ENERGY: 1500000 1.2089 6.0285 2.4896 0.0000 -10597.2986 1381.5576 0.0000 0.0000 1822.3416 -7383.6724 309.2376 -9206.0140 -7488.7658 300.7537 -143.1244 -130.2819 30684.5552 -33.2153 37.6360
TCL: Running FEP window  18: Lambda1 0.8500000000000002 Lambda2 0.9000000000000002 [dLambda 0.050000000000000044]
TCL: Setting parameter firsttimestep to 0
TCL: Setting parameter alchLambda to 0.8500000000000002
Info: NONBONDED TABLE R-SQUARED SPACING: 0.0625
Info: NONBONDED TABLE SIZE: 705 POINTS
TCL: Setting parameter alchLambda2 to 0.9000000000000002
Info: NONBONDED TABLE R-SQUARED SPACING: 0.0625
Info: NONBONDED TABLE SIZE: 705 POINTS
TCL: Running for 1500000 steps
ETITLE: TS BOND ANGLE DIHED IMPRP ELECT VDW BOUNDARY MISC KINETIC TOTAL TEMP POTENTIAL TOTALAVG TEMPAVG PRESSURE GPRESSURE VOLUME PRESSAVG GPRESSAVG
ENERGY: 0 1.2089 6.0285 2.4896 0.0000 -10597.3936 1382.3853 0.0000 0.0000 1821.4630 -7383.8182 309.0885 -9205.2812 -7383.8182 309.0885 -170.4033 -107.8280 30684.5552 -170.4033 -107.8280
ENERGY: 300000 0.5697 3.9999 1.9665 0.0000 -10798.7351 1409.0784 0.0000 0.0000 1769.6071 -7613.5136 300.2889 -9383.1207 -7520.2212 301.2303 -646.8593 -614.7131 30471.6645 -354.5115 -303.4700
ENERGY: 600000 0.8953 7.9828 2.5318 0.0000 -10791.5753 1444.0883 0.0000 0.0000 1791.3050 -7544.7721 303.9709 -9336.0771 -7505.2490 305.1439 -32.6689 76.2434 30335.6749 -108.8315 -42.5523
ENERGY: 900000 0.2203 3.5398 2.3726 0.0000 -10781.1676 1528.1763 0.0000 0.0000 1755.1237 -7491.7349 297.8312 -9246.8587 -7497.9061 303.2042 949.2486 1038.0610 30084.3269 -3.2056 64.0584
ENERGY: 1200000 0.3582 4.8303 1.8854 0.0000 -10534.1264 1388.9452 0.0000 0.0000 1815.3068 -7322.8006 308.0438 -9138.1074 -7493.6636 302.2530 -62.8230 -56.7843 30936.4716 24.4779 85.3670
ENERGY: 1500000 1.9501 7.9055 3.5186 0.0000 -10790.0230 1429.1891 0.0000 0.0000 1727.0788 -7620.3809 293.0722 -9347.4597 -7508.0364 301.3005 -314.9213 -345.4995 30537.5601 -12.6563 37.1920
TCL: Running FEP window  19: Lambda1 0.9000000000000002 Lambda2 0.9500000000000003 [dLambda 0.050000000000000044]
TCL: Setting parameter firsttimestep to 0
TCL: Setting parameter alchLambda to 0.9000000000000002
Info: NONBONDED TABLE R-SQUARED SPACING: 0.0625
Info: NONBONDED TABLE SIZE: 705 POINTS
TCL: Setting parameter alchLambda2 to 0.9500000000000003
Info: NONBONDED TABLE R-SQUARED SPACING: 0.0625
Info: NONBONDED TABLE SIZE: 705 POINTS
TCL: Running for 1500000 steps
ETITLE: TS BOND ANGLE DIHED IMPRP ELECT VDW BOUNDARY MISC KINETIC TOTAL TEMP POTENTIAL TOTALAVG TEMPAVG PRESSURE GPRESSURE VOLUME PRESSAVG GPRESSAVG
ENERGY: 0 1.9501 7.9055 3.5186 0.0000 -10790.1569 1429.1243 0.0000 0.0000 1726.2020 -7621.4563 292.9234 -9347.6583 -7621.4563 292.9234 -416.8071 -336.3243 30537.5601 -416.8071 -336.3243
ENERGY: 300000 0.5923 4.1693 2.0605 0.0000 -10686.4073 1400.8250 0.0000 0.0000 1732.3148 -7546.4455 293.9607 -9278.7603 -7565.2614 294.6761 -47.5998 38.9567 30044.9374 -355.3058 -298.7048
ENERGY: 600000 1.1541 4.4464 1.4113 0.0000 -10534.2758 1325.6076 0.0000 0.0000 1726.8272 -7474.8292 293.0295 -9201.6564 -7509.0057 298.0663 -809.4604 -750.9271 30934.2967 -312.1596 -244.9649
ENERGY: 900000 2.1949 8.5840 2.4299 0.0000 -10853.3439 1556.6952 0.0000 0.0000 1755.7682 -7527.6717 297.9406 -9283.4399 -7509.0993 297.5488 766.9291 798.8201 30530.2106 -165.9268 -100.5043
ENERGY: 1200000 0.8867 7.5160 2.0844 0.0000 -10776.2830 1488.8796 0.0000 0.0000 1741.4635 -7535.4528 295.5132 -9276.9162 -7522.3529 296.2722 531.1938 611.9915 30131.0834 -203.2691 -144.6620
ENERGY: 1500000 0.4387 6.1567 1.5886 0.0000 -10813.4925 1502.7537 0.0000 0.0000 1767.4849 -7535.0697 299.9288 -9302.5546 -7512.7057 298.1515 332.0299 501.6154 30645.0413 -196.7777 -128.4723
TCL: Running FEP window  20: Lambda1 0.9500000000000003 Lambda2 1.0    [dLambda 0.04999999999999971]
TCL: Setting parameter firsttimestep to 0
TCL: Setting parameter alchLambda to 0.9500000000000003
Info: NONBONDED TABLE R-SQUARED SPACING: 0.0625
Info: NONBONDED TABLE SIZE: 705 POINTS
TCL: Setting parameter alchLambda2 to 1.0
Info: NONBONDED TABLE R-SQUARED SPACING: 0.0625
Info: NONBONDED TABLE SIZE: 705 POINTS
TCL: Running for 1500000 steps
ETITLE: TS BOND ANGLE DIHED IMPRP ELECT VDW BOUNDARY MISC KINETIC TOTAL TEMP POTENTIAL TOTALAVG TEMPAVG PRESSURE GPRESSURE VOLUME PRESSAVG GPRESSAVG
ENERGY: 0 0.4387 6.1567 1.5886 0.0000 -10813.5885 1502.2925 0.0000 0.0000 1766.6185 -7536.4935 299.7818 -9303.1120 -7536.4935 299.7818 426.6934 501.5301 30645.0413 426.6934 501.5301
ENERGY: 300000 0.3410 6.4968 1.8991 0.0000 -10647.9462 1382.5931 0.0000 0.0000 1780.6259 -7475.9903 302.1587 -9256.6162 -7465.4210 302.9170 -91.7485 -103.8545 30040.4690 255.5990 279.3506
ENERGY: 600000 0.6418 8.5242 2.4950 0.0000 -10765.9323 1425.1633 0.0000 0.0000 1817.8650 -7511.2430 308.4779 -9329.1081 -7474.6088 302.5871 -467.0359 -395.8474 30599.5432 0.3830 54.1742
ENERGY: 900000 0.3139 7.9244 1.6727 0.0000 -10808.7487 1476.8633 0.0000 0.0000 1739.7089 -7582.2655 295.2154 -9321.9744 -7497.5156 300.7473 97.7207 106.3895 30768.9856 -6.7847 46.5365
ENERGY: 1200000 4.0865 3.5163 4.4128 0.0000 -10725.0661 1446.9503 0.0000 0.0000 1761.5001 -7504.6001 298.9132 -9266.1002 -7485.2977 301.5137 -222.6017 -140.6455 30742.6418 -55.4176 -1.3824
ENERGY: 1500000 1.4121 7.2996 3.1091 0.0000 -10767.5894 1376.8557 0.0000 0.0000 1783.1173 -7595.7956 302.5815 -9378.9129 -7491.9641 301.4355 -552.2363 -471.6302 30173.1654 -151.8980 -97.0544
TCL: Exiting due to exit command.
