Info: SIMULATION PARAMETERS:
Info: TIMESTEP               2
Info: NUMBER OF STEPS        0
Info: STEPS PER CYCLE        10
Info: PERIODIC CELL BASIS 1  29.6185 0 0
Info: PERIODIC CELL BASIS 2  0 30.1461 0
Info: PERIODIC CELL BASIS 3  0 0 34.4934
Info: PERIODIC CELL CENTER   0 0 0
Info: WRAPPING WATERS AROUND PERIODIC BOUNDARIES ON OUTPUT.
Info: WRAPPING ALL CLUSTERS AROUND PERIODIC BOUNDARIES ON OUTPUT.
Info: FIRST LDB TIMESTEP     50
Info: LAST LDB TIMESTEP     -1
Info: HOM BACKGROUND SCALING 1
Info: PME BACKGROUND SCALING 1
Info: MIN ATOMS PER PATCH    40
Info: EMPTY PATCH LOAD       40 ATOMS
Info: VELOCITY FILE          mobley_2659552_equil.vel
Info: CENTER OF MASS MOVING INITIALLY? NO
Info: DIELECTRIC             1
Info: EXCLUDE                SCALED ONE-FOUR
Info: 1-4 ELECTROSTATICS SCALED BY 0.833333
Info: MODIFIED 1-4 VDW PARAMETERS WILL BE USED
Info: DCD FILENAME           mobley_2659552_prod.dcd
Info: DCD FREQUENCY          100000
Info: DCD FIRST STEP         100000
Info: DCD FILE WILL CONTAIN UNIT CELL DATA
Info: XST FILENAME           mobley_2659552_prod.xst
Info: XST FREQUENCY          100000
Info: NO VELOCITY DCD OUTPUT
Info: NO FORCE DCD OUTPUT
Info: OUTPUT FILENAME        mobley_2659552_prod
Info: BINARY OUTPUT FILES WILL BE USED
Info: RESTART FILENAME       mobley_2659552_prod.restart
Info: RESTART FREQUENCY      100000
Info: BINARY RESTART FILES WILL BE USED
Info: CUTOFF                 9
Info: PAIRLIST DISTANCE      11
Info: PAIRLIST SHRINK RATE   0.01
Info: PAIRLIST GROW RATE     0.01
Info: PAIRLIST TRIGGER       0.3
Info: PAIRLISTS PER CYCLE    2
Info: PAIRLISTS ENABLED
Info: MARGIN                 2
Info: HYDROGEN GROUP CUTOFF  2.5
Info: PATCH DIMENSION        15.5
Info: ENERGY OUTPUT STEPS    100000
Info: ENERGY EVALUATION STEPS    100000
Info: OUTPUT ENERGY PRECISION 4
Info: CROSSTERM ENERGY INCLUDED IN DIHEDRAL
Info: TIMING OUTPUT STEPS    1000000
Info: PRESSURE OUTPUT STEPS  100000
Info: ALCHEMICAL FEP ON
Info: FEP CURRENT LAMBDA VALUE     1
Info: FEP COMPARISON LAMBDA VALUE  0.95
Info: FEP INTRA-ALCHEMICAL NON-BONDED INTERACTIONS WILL BE RETAINED
Info: FEP INTRA-ALCHEMICAL BONDED INTERACTIONS WILL BE RETAINED
Info: FEP VDW SHIFTING COEFFICIENT 5
Info: FEP ELEC. ACTIVE FOR ANNIHILATED PARTICLES BETWEEN LAMBDA = 0 AND LAMBDA = 0.5
Info: FEP ELEC. ACTIVE FOR EXNIHILATED PARTICLES BETWEEN LAMBDA = 0.5 AND LAMBDA = 1
Info: FEP VDW ACTIVE FOR ANNIHILATED PARTICLES BETWEEN LAMBDA = 0 AND LAMBDA = 1
Info: FEP VDW ACTIVE FOR EXNIHILATED PARTICLES BETWEEN LAMBDA = 0 AND LAMBDA = 1
Info: FEP BOND ACTIVE FOR ANNIHILATED PARTICLES BETWEEN LAMBDA = 1 AND LAMBDA = 1
Info: FEP BOND ACTIVE FOR EXNIHILATED PARTICLES BETWEEN LAMBDA = 0 AND LAMBDA = 0
Info: LANGEVIN DYNAMICS ACTIVE
Info: LANGEVIN TEMPERATURE   300
Info: LANGEVIN USING BBK INTEGRATOR
Info: LANGEVIN DAMPING COEFFICIENT IS 1 INVERSE PS
Info: LANGEVIN DYNAMICS APPLIED TO HYDROGENS
Info: LANGEVIN PISTON PRESSURE CONTROL ACTIVE
Info:        TARGET PRESSURE IS 1.01325 BAR
Info:     OSCILLATION PERIOD IS 50 FS
Info:             DECAY TIME IS 25 FS
Info:     PISTON TEMPERATURE IS 300 K
Info:       PRESSURE CONTROL IS GROUP-BASED
Info:    INITIAL STRAIN RATE IS 0.000216093 0.000216093 0.000216093
Info:       CELL FLUCTUATION IS ISOTROPIC
Info: PARTICLE MESH EWALD (PME) ACTIVE
Info: PME TOLERANCE               1e-06
Info: PME EWALD COEFFICIENT       0.348832
Info: PME INTERPOLATION ORDER     4
Info: PME GRID DIMENSIONS         32 32 36
Info: PME MAXIMUM GRID SPACING    1
Info: PME CALCULATION WILL BE PERFORMED ON GPU
Info: FULL ELECTROSTATIC EVALUATION FREQUENCY      2
Info: USING VERLET I (r-RESPA) MTS SCHEME.
Info: C1 SPLITTING OF LONG RANGE ELECTROSTATICS
Info: PLACING ATOMS IN PATCHES BY HYDROGEN GROUPS
Info: RIGID BONDS TO HYDROGEN : ALL
Info:         ERROR TOLERANCE : 1e-08
Info:          MAX ITERATIONS : 100
Info: RIGID WATER USING SETTLE ALGORITHM
Info: RANDOM NUMBER SEED     1743817080
Info: USE HYDROGEN BONDS?    NO
Info: Using AMBER format force field!
Info: AMBER PARM FILE        mobley_2659552.prmtop
Info: COORDINATE PDB         mobley_2659552.pdb
Info: Exclusions will be read from PARM file!
Info: SCNB (VDW SCALING)     2
Info: USING ARITHMETIC MEAN TO COMBINE L-J SIGMA PARAMETERS
Info: BINARY COORDINATES     mobley_2659552_equil.coor
Info: SUMMARY OF PARAMETERS:
Info: 11 BONDS
Info: 13 ANGLES
Info:   13 HARMONIC
Info:   0 COSINE-BASED
Info: 6 DIHEDRAL
Info: 0 IMPROPER
Info: 0 CROSSTERM
Info: 0 VDW
Info: 45 VDW_PAIRS
Info: 0 NBTHOLE_PAIRS
Info: To read alchdata from file: mobley_2659552.pdb
Info: To read alchflag data from column: 5
Info: STRUCTURE SUMMARY:
Info: 2941 ATOMS
Info: 2941 BONDS
Info: 42 ANGLES
Info: 58 DIHEDRALS
Info: 0 IMPROPERS
Info: 0 CROSSTERMS
Info: 3030 EXCLUSIONS
Info: 2929 RIGID BONDS
Info: ALCH: 0 ATOMS TO DISAPPEAR IN FINAL STATE
Info: ALCH: 25 ATOMS TO APPEAR IN FINAL STATE
Info: 5894 DEGREES OF FREEDOM
Info: 984 HYDROGEN GROUPS
Info: 4 ATOMS IN LARGEST HYDROGEN GROUP
Info: 984 MIGRATION GROUPS
Info: 4 ATOMS IN LARGEST MIGRATION GROUP
Info: TOTAL MASS = 17674.8 amu
Info: TOTAL CHARGE = -0.0002001 e
Info: MASS DENSITY = 0.952975 g/cm^3
Info: ATOM DENSITY = 0.0954913 atoms/A^3
Info: ADDED 0 IMPLICIT EXCLUSIONS
Info: NONBONDED TABLE R-SQUARED SPACING: 0.0625
Info: NONBONDED TABLE SIZE: 705 POINTS
Info: REMOVING COM VELOCITY -0.23972 0.113564 -0.00784136
Info: Use 3D box decompostion in PME FFT.
Info: Updated CUDA force table with 4096 elements.
Info: Updated CUDA LJ table with 9 x 9 elements.
Info: Found 27 unique exclusion lists needing 80 bytes
TCL: Running for 1500000 steps
ETITLE: TS BOND ANGLE DIHED IMPRP ELECT VDW BOUNDARY MISC KINETIC TOTAL TEMP POTENTIAL TOTALAVG TEMPAVG PRESSURE GPRESSURE VOLUME PRESSAVG GPRESSAVG
ENERGY: 0 4.1865 9.0743 9.8214 0.0000 -10577.2357 1336.6172 0.0000 0.0000 1764.7700 -7452.7663 301.3480 -9217.5363 -7452.7663 301.3480 -1240.0674 -1156.3776 30798.6200 -1240.0674 -1156.3776
ENERGY: 300000 3.2171 13.8794 9.4189 0.0000 -10619.9883 1474.2829 0.0000 0.0000 1738.9798 -7380.2103 296.9442 -9119.1901 -7404.7029 299.8182 491.6092 562.6518 30611.3279 -302.8716 -251.5987
ENERGY: 600000 4.4744 9.3458 11.4194 0.0000 -10518.1249 1325.7757 0.0000 0.0000 1769.0560 -7398.0536 302.0799 -9167.1096 -7398.0723 300.8921 -985.2431 -874.7498 30599.2530 -311.4428 -256.6994
ENERGY: 900000 5.6571 7.5536 8.9540 0.0000 -10648.3197 1437.6048 0.0000 0.0000 1751.8398 -7436.7103 299.1401 -9188.5502 -7407.0081 300.0943 61.4845 106.9481 30050.9936 -191.4328 -138.0427
ENERGY: 1200000 6.2195 8.7075 10.3901 0.0000 -10539.9683 1320.7239 0.0000 0.0000 1796.7777 -7397.1496 306.8136 -9193.9273 -7412.8906 300.6412 -687.5126 -598.2916 29743.7327 -252.9570 -192.2628
ENERGY: 1500000 4.9610 9.8233 9.5909 0.0000 -10590.0047 1353.8177 0.0000 0.0000 1768.8982 -7442.9135 302.0530 -9211.8118 -7410.3754 300.3673 -576.7352 -498.5225 30147.8411 -288.2635 -221.4916
TCL: Running FEP window   2: Lambda1 0.95   Lambda2 0.8999999999999999 [dLambda -0.050000000000000044]
TCL: Setting parameter firsttimestep to 0
TCL: Setting parameter alchLambda to 0.95
Info: NONBONDED TABLE R-SQUARED SPACING: 0.0625
Info: NONBONDED TABLE SIZE: 705 POINTS
TCL: Setting parameter alchLambda2 to 0.8999999999999999
Info: NONBONDED TABLE R-SQUARED SPACING: 0.0625
Info: NONBONDED TABLE SIZE: 705 POINTS
TCL: Running for 1500000 steps
ETITLE: TS BOND ANGLE DIHED IMPRP ELECT VDW BOUNDARY MISC KINETIC TOTAL TEMP POTENTIAL TOTALAVG TEMPAVG PRESSURE GPRESSURE VOLUME PRESSAVG GPRESSAVG
ENERGY: 0 4.9610 9.8233 9.5909 0.0000 -10588.5668 1354.3077 0.0000 0.0000 1768.0449 -7441.8391 301.9072 -9209.8840 -7441.8391 301.9072 -617.9558 -506.2203 30147.8411 -617.9558 -506.2203
ENERGY: 300000 3.0285 6.7124 8.1854 0.0000 -10616.6920 1413.2100 0.0000 0.0000 1703.9001 -7481.6556 290.9540 -9185.5557 -7457.8631 297.2228 -310.5503 -224.1207 30266.8179 -264.7763 -187.4847
ENERGY: 600000 6.7700 12.5592 9.0920 0.0000 -10634.3315 1423.7452 0.0000 0.0000 1796.2741 -7385.8909 306.7276 -9182.1650 -7433.7729 301.5673 -182.4348 -142.2979 30166.8830 -167.5544 -111.6804
ENERGY: 900000 4.3052 10.0987 10.2077 0.0000 -10660.4722 1441.6600 0.0000 0.0000 1766.3199 -7427.8807 301.6127 -9194.2006 -7425.3138 302.4826 -43.7937 16.7840 30554.3586 -169.6399 -113.4971
ENERGY: 1200000 4.1922 6.6834 9.2214 0.0000 -10534.3629 1376.1766 0.0000 0.0000 1751.7264 -7386.3629 299.1207 -9138.0893 -7418.5531 301.6997 -16.9388 -29.1718 30439.8186 -186.2231 -131.5433
ENERGY: 1500000 2.9230 7.2989 13.3792 0.0000 -10655.9794 1481.7405 0.0000 0.0000 1723.0088 -7427.6291 294.2170 -9150.6378 -7414.0989 300.2525 664.6950 718.4460 30048.4005 -98.0541 -43.0279
TCL: Running FEP window   3: Lambda1 0.8999999999999999 Lambda2 0.8499999999999999 [dLambda -0.050000000000000044]
TCL: Setting parameter firsttimestep to 0
TCL: Setting parameter alchLambda to 0.8999999999999999
Info: NONBONDED TABLE R-SQUARED SPACING: 0.0625
Info: NONBONDED TABLE SIZE: 705 POINTS
TCL: Setting parameter alchLambda2 to 0.8499999999999999
Info: NONBONDED TABLE R-SQUARED SPACING: 0.0625
Info: NONBONDED TABLE SIZE: 705 POINTS
TCL: Running for 1500000 steps
ETITLE: TS BOND ANGLE DIHED IMPRP ELECT VDW BOUNDARY MISC KINETIC TOTAL TEMP POTENTIAL TOTALAVG TEMPAVG PRESSURE GPRESSURE VOLUME PRESSAVG GPRESSAVG
ENERGY: 0 2.9230 7.2989 13.3792 0.0000 -10653.9204 1482.2339 0.0000 0.0000 1722.1390 -7425.9465 294.0685 -9148.0854 -7425.9465 294.0685 637.4407 713.2745 30048.4005 637.4407 713.2745
ENERGY: 300000 5.0744 12.9001 8.5832 0.0000 -10763.5241 1478.2712 0.0000 0.0000 1765.8237 -7492.8715 301.5280 -9258.6951 -7438.6063 298.7153 307.1439 417.3489 29728.1672 258.4984 356.6724
ENERGY: 600000 3.0757 9.6443 7.7788 0.0000 -10534.2080 1352.6353 0.0000 0.0000 1752.0578 -7409.0160 299.1773 -9161.0738 -7400.8916 299.5007 -753.6557 -644.0241 30684.4113 -45.3245 30.7811
ENERGY: 900000 5.1424 9.8922 8.5210 0.0000 -10723.5994 1494.1450 0.0000 0.0000 1759.4073 -7446.4915 300.4323 -9205.8988 -7417.3733 299.3027 802.0748 826.9555 29673.3729 -62.9126 8.9616
ENERGY: 1200000 7.8077 11.7649 10.7317 0.0000 -10501.5580 1280.7953 0.0000 0.0000 1788.8530 -7401.6055 305.4604 -9190.4585 -7419.0171 299.5795 -1277.6078 -1233.4434 30288.6631 -147.8832 -81.6736
ENERGY: 1500000 4.3995 6.1196 7.6116 0.0000 -10506.9708 1342.6730 0.0000 0.0000 1719.2891 -7426.8780 293.5818 -9146.1671 -7418.3151 299.1927 -486.5794 -415.9496 30068.4503 -160.7199 -91.0995
TCL: Running FEP window   4: Lambda1 0.8499999999999999 Lambda2 0.7999999999999998 [dLambda -0.050000000000000044]
TCL: Setting parameter firsttimestep to 0
TCL: Setting parameter alchLambda to 0.8499999999999999
Info: NONBONDED TABLE R-SQUARED SPACING: 0.0625
Info: NONBONDED TABLE SIZE: 705 POINTS
TCL: Setting parameter alchLambda2 to 0.7999999999999998
Info: NONBONDED TABLE R-SQUARED SPACING: 0.0625
Info: NONBONDED TABLE SIZE: 705 POINTS
TCL: Running for 1500000 steps
ETITLE: TS BOND ANGLE DIHED IMPRP ELECT VDW BOUNDARY MISC KINETIC TOTAL TEMP POTENTIAL TOTALAVG TEMPAVG PRESSURE GPRESSURE VOLUME PRESSAVG GPRESSAVG
ENERGY: 0 4.3995 6.1196 7.6116 0.0000 -10504.5243 1341.8453 0.0000 0.0000 1718.4283 -7426.1200 293.4348 -9144.5484 -7426.1200 293.4348 -538.8976 -438.4063 30068.4503 -538.8976 -438.4063
ENERGY: 300000 4.6004 8.9850 12.3490 0.0000 -10551.7733 1411.3377 0.0000 0.0000 1748.4586 -7366.0427 298.5627 -9114.5012 -7445.9690 297.8214 -226.7562 -182.5122 30728.5901 -342.0994 -277.0336
ENERGY: 600000 6.9280 9.4470 7.4279 0.0000 -10756.3988 1526.8626 0.0000 0.0000 1762.8653 -7442.8681 301.0228 -9205.7334 -7437.8372 299.1809 493.9225 613.5817 29800.7102 -103.6640 -19.5136
ENERGY: 900000 9.1213 11.7401 7.2354 0.0000 -10489.6448 1349.0303 0.0000 0.0000 1731.4746 -7381.0430 295.6626 -9112.5176 -7420.7232 299.4245 -869.9564 -790.7176 30941.9540 -126.9205 -38.4268
ENERGY: 1200000 3.4583 13.0960 6.0038 0.0000 -10643.3433 1416.5510 0.0000 0.0000 1809.6942 -7394.5400 309.0192 -9204.2342 -7413.5412 300.4364 93.5458 98.3264 29972.5056 -103.8143 -29.8428
ENERGY: 1500000 5.2426 11.7075 9.9572 0.0000 -10563.7237 1340.8870 0.0000 0.0000 1796.7302 -7399.1991 306.8055 -9195.9293 -7413.9818 300.9441 -857.3047 -786.8699 30291.4566 -134.9772 -64.8515
TCL: Running FEP window   5: Lambda1 0.7999999999999998 Lambda2 0.7499999999999998 [dLambda -0.050000000000000044]
TCL: Setting parameter firsttimestep to 0
TCL: Setting parameter alchLambda to 0.7999999999999998
Info: NONBONDED TABLE R-SQUARED SPACING: 0.0625
Info: NONBONDED TABLE SIZE: 705 POINTS
TCL: Setting parameter alchLambda2 to 0.7499999999999998
Info: NONBONDED TABLE R-SQUARED SPACING: 0.0625
Info: NONBONDED TABLE SIZE: 705 POINTS
TCL: Running for 1500000 steps
ETITLE: TS BOND ANGLE DIHED IMPRP ELECT VDW BOUNDARY MISC KINETIC TOTAL TEMP POTENTIAL TOTALAVG TEMPAVG PRESSURE GPRESSURE VOLUME PRESSAVG GPRESSAVG
ENERGY: 0 5.2426 11.7075 9.9572 0.0000 -10561.9395 1341.4493 0.0000 0.0000 1795.8639 -7397.7189 306.6576 -9193.5828 -7397.7189 306.6576 -877.9279 -793.4609 30291.4566 -877.9279 -793.4609
ENERGY: 300000 2.3045 7.5251 9.4184 0.0000 -10547.7362 1352.8610 0.0000 0.0000 1772.0479 -7403.5794 302.5908 -9175.6273 -7399.8280 303.0556 -501.3139 -447.4181 30124.5644 -322.6684 -271.8696
ENERGY: 600000 4.8815 13.1955 8.5871 0.0000 -10758.3314 1517.5844 0.0000 0.0000 1768.9095 -7445.1734 302.0549 -9214.0829 -7422.9566 301.4177 680.4527 733.6166 29964.6651 -57.7477 -6.3854
ENERGY: 900000 8.0404 8.5573 9.7907 0.0000 -10641.1911 1437.5704 0.0000 0.0000 1755.7957 -7421.4366 299.8156 -9177.2324 -7417.3766 300.8916 -157.9844 -150.9075 30423.8991 -63.4965 -18.9119
ENERGY: 1200000 4.8980 5.7117 11.3939 0.0000 -10646.7521 1426.8549 0.0000 0.0000 1710.5615 -7487.3321 292.0915 -9197.8936 -7427.3843 299.3997 -122.8347 -29.5301 30213.4892 -42.1369 15.4683
ENERGY: 1500000 3.4399 6.2981 5.8769 0.0000 -10891.8278 1618.3088 0.0000 0.0000 1738.9927 -7518.9114 296.9464 -9257.9041 -7440.3622 298.7421 1404.5213 1511.3581 29711.2673 26.7127 92.8929
TCL: Running FEP window   6: Lambda1 0.7499999999999998 Lambda2 0.6999999999999997 [dLambda -0.050000000000000044]
TCL: Setting parameter firsttimestep to 0
TCL: Setting parameter alchLambda to 0.7499999999999998
Info: NONBONDED TABLE R-SQUARED SPACING: 0.0625
Info: NONBONDED TABLE SIZE: 705 POINTS
TCL: Setting parameter alchLambda2 to 0.6999999999999997
Info: NONBONDED TABLE R-SQUARED SPACING: 0.0625
Info: NONBONDED TABLE SIZE: 705 POINTS
TCL: Running for 1500000 steps
ETITLE: TS BOND ANGLE DIHED IMPRP ELECT VDW BOUNDARY MISC KINETIC TOTAL TEMP POTENTIAL TOTALAVG TEMPAVG PRESSURE GPRESSURE VOLUME PRESSAVG GPRESSAVG
ENERGY: 0 3.4399 6.2981 5.8769 0.0000 -10889.7171 1618.6602 0.0000 0.0000 1738.1136 -7517.3285 296.7963 -9255.4421 -7517.3285 296.7963 1421.0041 1506.3754 29711.2673 1421.0041 1506.3754
ENERGY: 300000 3.0852 7.6038 10.0870 0.0000 -10542.8381 1411.3702 0.0000 0.0000 1755.2216 -7355.4704 299.7176 -9110.6919 -7433.3811 301.8496 19.9350 131.3315 30296.3163 212.8687 308.3590
ENERGY: 600000 4.1880 12.1037 8.0242 0.0000 -10685.2729 1513.3412 0.0000 0.0000 1735.5022 -7412.1136 296.3503 -9147.6158 -7442.4496 299.5674 996.0105 1022.0486 29859.3115 371.7897 441.1331
ENERGY: 900000 4.5244 9.0330 11.4419 0.0000 -10652.9833 1484.7623 0.0000 0.0000 1743.5084 -7399.7132 297.7175 -9143.2217 -7429.6095 299.8349 577.7946 550.5749 30254.4056 315.3428 373.2289
ENERGY: 1200000 7.7637 10.0355 11.5291 0.0000 -10540.4341 1401.0160 0.0000 0.0000 1713.7989 -7396.2910 292.6443 -9110.0899 -7411.2159 300.8215 171.6805 252.4765 29808.3740 280.2582 345.9717
ENERGY: 1500000 6.3788 9.8404 8.2480 0.0000 -10514.0394 1415.7310 0.0000 0.0000 1766.9400 -7306.9011 301.7186 -9073.8411 -7402.1745 301.3206 -75.7894 27.4876 30378.8849 276.3276 341.2710
TCL: Running FEP window   7: Lambda1 0.6999999999999997 Lambda2 0.6499999999999997 [dLambda -0.050000000000000044]
TCL: Setting parameter firsttimestep to 0
TCL: Setting parameter alchLambda to 0.6999999999999997
Info: NONBONDED TABLE R-SQUARED SPACING: 0.0625
Info: NONBONDED TABLE SIZE: 705 POINTS
TCL: Setting parameter alchLambda2 to 0.6499999999999997
Info: NONBONDED TABLE R-SQUARED SPACING: 0.0625
Info: NONBONDED TABLE SIZE: 705 POINTS
TCL: Running for 1500000 steps
ETITLE: TS BOND ANGLE DIHED IMPRP ELECT VDW BOUNDARY MISC KINETIC TOTAL TEMP POTENTIAL TOTALAVG TEMPAVG PRESSURE GPRESSURE VOLUME PRESSAVG GPRESSAVG
ENERGY: 0 6.3788 9.8404 8.2480 0.0000 -10512.7247 1416.0514 0.0000 0.0000 1766.0552 -7306.1509 301.5675 -9072.2061 -7306.1509 301.5675 -53.0658 22.1209 30378.8849 -53.0658 22.1209
ENERGY: 300000 4.2518 8.5404 9.9996 0.0000 -10665.4753 1384.4932 0.0000 0.0000 1661.4768 -7596.7135 283.7099 -9258.1903 -7441.7561 296.0290 -491.1388 -435.1618 30186.1340 -104.5487 -52.3586
ENERGY: 600000 2.8082 9.5702 8.8489 0.0000 -10397.0752 1323.4007 0.0000 0.0000 1755.3160 -7297.1311 299.7337 -9052.4471 -7418.5758 298.2543 -688.8656 -629.4059 30507.2347 -120.3764 -65.4210
ENERGY: 900000 4.4173 15.3920 9.3481 0.0000 -10444.9882 1363.4457 0.0000 0.0000 1700.6581 -7351.7271 290.4004 -9052.3852 -7399.0135 297.5350 -270.6925 -211.6955 30006.4606 -112.2399 -62.2351
ENERGY: 1200000 5.3587 8.9780 8.2756 0.0000 -10704.5167 1466.5962 0.0000 0.0000 1779.6633 -7435.6450 303.8912 -9215.3083 -7400.2681 297.8867 346.3554 343.3227 29920.7714 -39.0399 10.7364
ENERGY: 1500000 5.6147 9.4489 12.9999 0.0000 -10501.5194 1369.8773 0.0000 0.0000 1730.4109 -7373.1677 295.4810 -9103.5786 -7395.9631 297.8343 -424.1234 -321.8133 30245.5578 -86.5359 -31.6301
TCL: Running FEP window   8: Lambda1 0.6499999999999997 Lambda2 0.5999999999999996 [dLambda -0.050000000000000044]
TCL: Setting parameter firsttimestep to 0
TCL: Setting parameter alchLambda to 0.6499999999999997
Info: NONBONDED TABLE R-SQUARED SPACING: 0.0625
Info: NONBONDED TABLE SIZE: 705 POINTS
TCL: Setting parameter alchLambda2 to 0.5999999999999996
Info: NONBONDED TABLE R-SQUARED SPACING: 0.0625
Info: NONBONDED TABLE SIZE: 705 POINTS
TCL: Running for 1500000 steps
ETITLE: TS BOND ANGLE DIHED IMPRP ELECT VDW BOUNDARY MISC KINETIC TOTAL TEMP POTENTIAL TOTALAVG TEMPAVG PRESSURE GPRESSURE VOLUME PRESSAVG GPRESSAVG
ENERGY: 0 5.6147 9.4489 12.9999 0.0000 -10500.5307 1369.4511 0.0000 0.0000 1729.5550 -7373.4611 295.3348 -9103.0161 -7373.4611 295.3348 -406.5471 -335.5192 30245.5578 -406.5471 -335.5192
ENERGY: 300000 6.1722 8.1019 11.8056 0.0000 -10692.9602 1495.3205 0.0000 0.0000 1788.0574 -7383.5027 305.3245 -9171.5601 -7410.4791 298.0801 413.4371 509.2159 29986.7295 195.6862 284.1638
ENERGY: 600000 2.0242 8.7617 8.2161 0.0000 -10629.2322 1436.6876 0.0000 0.0000 1809.4386 -7364.1039 308.9755 -9173.5425 -7393.1007 301.3651 315.0663 305.9769 30090.7858 -10.1917 52.5600
ENERGY: 900000 2.2597 6.7111 7.9113 0.0000 -10556.7599 1405.2862 0.0000 0.0000 1736.9130 -7397.6786 296.5912 -9134.5916 -7395.3147 299.5854 -225.4564 -106.7977 30413.0675 17.0412 95.5208
ENERGY: 1200000 5.3014 13.2872 7.6982 0.0000 -10884.7094 1577.1550 0.0000 0.0000 1794.5316 -7486.7361 306.4301 -9281.2676 -7402.7502 300.2534 935.0877 988.4787 29895.2703 104.0960 169.9132
ENERGY: 1500000 4.8849 7.7235 11.0298 0.0000 -10636.5698 1484.2911 0.0000 0.0000 1766.8080 -7361.8325 301.6960 -9128.6405 -7399.6485 300.5854 632.9168 714.1360 29747.1238 206.6619 276.4124
TCL: Running FEP window   9: Lambda1 0.5999999999999996 Lambda2 0.5499999999999996 [dLambda -0.050000000000000044]
TCL: Setting parameter firsttimestep to 0
TCL: Setting parameter alchLambda to 0.5999999999999996
Info: NONBONDED TABLE R-SQUARED SPACING: 0.0625
Info: NONBONDED TABLE SIZE: 705 POINTS
TCL: Setting parameter alchLambda2 to 0.5499999999999996
Info: NONBONDED TABLE R-SQUARED SPACING: 0.0625
Info: NONBONDED TABLE SIZE: 705 POINTS
TCL: Running for 1500000 steps
ETITLE: TS BOND ANGLE DIHED IMPRP ELECT VDW BOUNDARY MISC KINETIC TOTAL TEMP POTENTIAL TOTALAVG TEMPAVG PRESSURE GPRESSURE VOLUME PRESSAVG GPRESSAVG
ENERGY: 0 4.8849 7.7235 11.0298 0.0000 -10634.7557 1484.1117 0.0000 0.0000 1765.9411 -7361.0647 301.5480 -9127.0058 -7361.0647 301.5480 600.1190 705.1854 29747.1238 600.1190 705.1854
ENERGY: 300000 1.5055 15.3501 9.5100 0.0000 -10581.1821 1438.8511 0.0000 0.0000 1744.3852 -7371.5801 297.8672 -9115.9653 -7429.5716 298.7580 172.8286 192.5480 30572.9895 -36.8608 21.1238
ENERGY: 600000 3.1740 12.7564 8.2625 0.0000 -10616.6093 1422.2179 0.0000 0.0000 1761.6438 -7408.5546 300.8142 -9170.1984 -7413.9425 299.2555 -158.6883 -87.9981 30480.4391 -231.1381 -174.7155
ENERGY: 900000 4.3633 15.8480 13.7687 0.0000 -10664.0161 1468.5214 0.0000 0.0000 1735.5292 -7425.9855 296.3549 -9161.5147 -7426.1512 298.7279 239.9920 245.2946 30258.0206 -67.8452 -21.4102
ENERGY: 1200000 2.9605 11.7665 8.9820 0.0000 -10566.3677 1398.8732 0.0000 0.0000 1790.8860 -7352.8995 305.8075 -9143.7854 -7420.6041 299.4226 -389.6572 -363.1267 30818.8384 -47.1142 -3.4445
ENERGY: 1500000 4.5866 10.7571 10.6943 0.0000 -10632.4360 1468.9450 0.0000 0.0000 1783.7657 -7353.6874 304.5917 -9137.4531 -7415.5021 299.9969 282.7921 364.8042 30400.7062 -81.8469 -42.5909
TCL: Running FEP window  10: Lambda1 0.5499999999999996 Lambda2 0.4999999999999996 [dLambda -0.04999999999999999]
TCL: Setting parameter firsttimestep to 0
TCL: Setting parameter alchLambda to 0.5499999999999996
Info: NONBONDED TABLE R-SQUARED SPACING: 0.0625
Info: NONBONDED TABLE SIZE: 705 POINTS
TCL: Setting parameter alchLambda2 to 0.4999999999999996
Info: NONBONDED TABLE R-SQUARED SPACING: 0.0625
Info: NONBONDED TABLE SIZE: 705 POINTS
TCL: Running for 1500000 steps
ETITLE: TS BOND ANGLE DIHED IMPRP ELECT VDW BOUNDARY MISC KINETIC TOTAL TEMP POTENTIAL TOTALAVG TEMPAVG PRESSURE GPRESSURE VOLUME PRESSAVG GPRESSAVG
ENERGY: 0 4.5866 10.7571 10.6943 0.0000 -10631.4080 1469.2082 0.0000 0.0000 1782.8722 -7353.2898 304.4391 -9136.1619 -7353.2898 304.4391 277.7068 356.4924 30400.7062 277.7068 356.4924
ENERGY: 300000 3.2428 4.0300 9.0256 0.0000 -10614.7364 1388.1639 0.0000 0.0000 1734.1816 -7476.0924 296.1248 -9210.2740 -7399.0605 301.2622 -278.2040 -241.6353 30278.5203 -69.4664 -5.0486
ENERGY: 600000 3.7535 8.0094 7.7412 0.0000 -10447.7130 1336.8548 0.0000 0.0000 1742.4170 -7348.9371 297.5311 -9091.3542 -7396.6120 301.2219 -649.3828 -543.8262 30472.7620 -278.4643 -202.8662
ENERGY: 900000 5.9650 8.8135 8.7521 0.0000 -10543.6448 1395.9320 0.0000 0.0000 1749.7348 -7374.4474 298.7807 -9124.1822 -7379.1950 301.7790 -269.1744 -197.6481 30247.0666 -140.6681 -73.1539
ENERGY: 1200000 3.9631 11.5651 10.4126 0.0000 -10541.1015 1399.7820 0.0000 0.0000 1759.8919 -7355.4868 300.5151 -9115.3787 -7386.8092 300.5274 -354.2481 -297.9347 30622.2174 -147.1995 -83.0758
ENERGY: 1500000 4.1291 13.1803 9.4089 0.0000 -10517.7093 1336.9899 0.0000 0.0000 1786.6931 -7367.3080 305.0916 -9154.0011 -7386.5059 300.5283 -1047.6902 -1032.0595 30517.3037 -152.8703 -91.6780
TCL: Running FEP window  11: Lambda1 0.4999999999999996 Lambda2 0.4499999999999996 [dLambda -0.04999999999999999]
TCL: Setting parameter firsttimestep to 0
TCL: Setting parameter alchLambda to 0.4999999999999996
Info: NONBONDED TABLE R-SQUARED SPACING: 0.0625
Info: NONBONDED TABLE SIZE: 705 POINTS
TCL: Setting parameter alchLambda2 to 0.4499999999999996
Info: NONBONDED TABLE R-SQUARED SPACING: 0.0625
Info: NONBONDED TABLE SIZE: 705 POINTS
TCL: Running for 1500000 steps
ETITLE: TS BOND ANGLE DIHED IMPRP ELECT VDW BOUNDARY MISC KINETIC TOTAL TEMP POTENTIAL TOTALAVG TEMPAVG PRESSURE GPRESSURE VOLUME PRESSAVG GPRESSAVG
ENERGY: 0 4.1291 13.1803 9.4089 0.0000 -10518.0802 1337.5993 0.0000 0.0000 1785.8480 -7367.9146 304.9473 -9153.7626 -7367.9146 304.9473 -1110.4462 -1038.5882 30517.3037 -1110.4462 -1038.5882
ENERGY: 300000 3.9874 5.4784 7.5805 0.0000 -10579.9617 1433.1102 0.0000 0.0000 1676.7804 -7453.0248 286.3231 -9129.8052 -7401.4352 299.7490 167.5103 238.8799 30002.1009 -130.4785 -64.8094
ENERGY: 600000 3.4777 7.9836 5.9428 0.0000 -10462.4285 1374.1524 0.0000 0.0000 1716.3664 -7354.5058 293.0827 -9070.8721 -7397.3344 298.7181 81.8956 192.5721 29970.0729 38.5390 114.7919
ENERGY: 900000 1.8194 6.3591 13.1843 0.0000 -10627.5073 1446.8392 0.0000 0.0000 1693.9059 -7465.3994 289.2474 -9159.3053 -7401.3626 297.8551 195.2677 260.7185 30209.4779 -5.4178 68.4387
ENERGY: 1200000 4.2338 9.0954 10.3019 0.0000 -10635.8401 1403.7091 0.0000 0.0000 1776.5902 -7431.9097 303.3664 -9208.4999 -7402.0318 298.6984 -479.6022 -399.9580 29923.5746 -98.2034 -33.1408
ENERGY: 1500000 1.7953 14.2573 9.6226 0.0000 -10587.3453 1412.9492 0.0000 0.0000 1755.4874 -7393.2335 299.7630 -9148.7209 -7395.3799 299.6010 -95.6717 -32.8221 30105.1077 -44.2198 20.7612
TCL: Running FEP window  12: Lambda1 0.4499999999999996 Lambda2 0.39999999999999963 [dLambda -0.04999999999999999]
TCL: Setting parameter firsttimestep to 0
TCL: Setting parameter alchLambda to 0.4499999999999996
Info: NONBONDED TABLE R-SQUARED SPACING: 0.0625
Info: NONBONDED TABLE SIZE: 705 POINTS
TCL: Setting parameter alchLambda2 to 0.39999999999999963
Info: NONBONDED TABLE R-SQUARED SPACING: 0.0625
Info: NONBONDED TABLE SIZE: 705 POINTS
TCL: Running for 1500000 steps
ETITLE: TS BOND ANGLE DIHED IMPRP ELECT VDW BOUNDARY MISC KINETIC TOTAL TEMP POTENTIAL TOTALAVG TEMPAVG PRESSURE GPRESSURE VOLUME PRESSAVG GPRESSAVG
ENERGY: 0 1.7953 14.2573 9.6226 0.0000 -10587.3452 1412.7345 0.0000 0.0000 1754.6036 -7394.3319 299.6120 -9148.9355 -7394.3319 299.6120 -120.6947 -45.3563 30105.1077 -120.6947 -45.3563
ENERGY: 300000 2.7248 8.5975 9.7163 0.0000 -10631.2144 1399.5961 0.0000 0.0000 1742.2174 -7468.3622 297.4970 -9210.5797 -7429.2312 300.2656 -89.8583 -92.3592 29941.7749 -114.4686 -56.6889
ENERGY: 600000 3.1157 9.1704 10.1955 0.0000 -10609.1368 1415.2798 0.0000 0.0000 1753.1110 -7418.2644 299.3572 -9171.3754 -7394.2486 301.5764 -309.2962 -209.3990 30341.8070 28.4958 91.9537
ENERGY: 900000 4.0393 10.4678 8.6482 0.0000 -10538.3992 1388.9637 0.0000 0.0000 1752.2299 -7374.0503 299.2067 -9126.2802 -7396.0154 302.1800 -249.2457 -220.1598 30326.3798 5.0822 65.3542
ENERGY: 1200000 2.7966 9.0751 5.5100 0.0000 -10600.6605 1409.9702 0.0000 0.0000 1843.4101 -7329.8986 314.7764 -9173.3087 -7390.0834 302.0944 248.1047 316.0255 29471.4266 81.5109 140.8904
ENERGY: 1500000 5.0327 9.8910 13.0136 0.0000 -10641.0734 1413.5907 0.0000 0.0000 1731.6717 -7467.8738 295.6962 -9199.5455 -7399.3240 301.3084 60.5440 53.0441 29851.2295 38.0851 93.8385
TCL: Running FEP window  13: Lambda1 0.39999999999999963 Lambda2 0.34999999999999964 [dLambda -0.04999999999999999]
TCL: Setting parameter firsttimestep to 0
TCL: Setting parameter alchLambda to 0.39999999999999963
Info: NONBONDED TABLE R-SQUARED SPACING: 0.0625
Info: NONBONDED TABLE SIZE: 705 POINTS
TCL: Setting parameter alchLambda2 to 0.34999999999999964
Info: NONBONDED TABLE R-SQUARED SPACING: 0.0625
Info: NONBONDED TABLE SIZE: 705 POINTS
TCL: Running for 1500000 steps
ETITLE: TS BOND ANGLE DIHED IMPRP ELECT VDW BOUNDARY MISC KINETIC TOTAL TEMP POTENTIAL TOTALAVG TEMPAVG PRESSURE GPRESSURE VOLUME PRESSAVG GPRESSAVG
ENERGY: 0 5.0327 9.8910 13.0136 0.0000 -10641.0746 1414.1366 0.0000 0.0000 1730.7988 -7468.2019 295.5472 -9199.0007 -7468.2019 295.5472 -23.0433 49.5274 29851.2295 -23.0433 49.5274
ENERGY: 300000 4.8639 8.3317 9.8060 0.0000 -10718.8981 1485.4155 0.0000 0.0000 1749.8421 -7460.6388 298.7990 -9210.4809 -7456.4037 298.1230 369.3060 461.3319 30221.1903 97.3099 180.3864
ENERGY: 600000 6.8138 12.9184 9.9260 0.0000 -10599.4328 1430.8307 0.0000 0.0000 1770.4453 -7368.4986 302.3171 -9138.9439 -7425.3811 301.3196 -292.6421 -222.4962 30493.9463 148.7979 218.3171
ENERGY: 900000 1.7373 9.9609 7.8672 0.0000 -10593.7498 1418.6057 0.0000 0.0000 1699.6459 -7455.9328 290.2276 -9155.5787 -7423.0196 300.5221 -17.8844 51.0829 30259.2392 139.4022 203.5759
ENERGY: 1200000 4.6509 8.2247 10.1031 0.0000 -10603.7791 1384.1046 0.0000 0.0000 1744.8670 -7451.8289 297.9494 -9196.6959 -7425.9539 299.2894 -555.9227 -444.2890 30436.1662 96.7600 164.9133
ENERGY: 1500000 3.2863 10.9004 8.6200 0.0000 -10745.0815 1472.2336 0.0000 0.0000 1746.1461 -7503.8952 298.1679 -9250.0413 -7416.1467 300.1789 91.1776 167.8405 30072.9124 84.6040 152.0289
TCL: Running FEP window  14: Lambda1 0.34999999999999964 Lambda2 0.29999999999999966 [dLambda -0.04999999999999999]
TCL: Setting parameter firsttimestep to 0
TCL: Setting parameter alchLambda to 0.34999999999999964
Info: NONBONDED TABLE R-SQUARED SPACING: 0.0625
Info: NONBONDED TABLE SIZE: 705 POINTS
TCL: Setting parameter alchLambda2 to 0.29999999999999966
Info: NONBONDED TABLE R-SQUARED SPACING: 0.0625
Info: NONBONDED TABLE SIZE: 705 POINTS
TCL: Running for 1500000 steps
ETITLE: TS BOND ANGLE DIHED IMPRP ELECT VDW BOUNDARY MISC KINETIC TOTAL TEMP POTENTIAL TOTALAVG TEMPAVG PRESSURE GPRESSURE VOLUME PRESSAVG GPRESSAVG
ENERGY: 0 3.2863 10.9004 8.6200 0.0000 -10745.0815 1472.5336 0.0000 0.0000 1745.2889 -7504.4524 298.0215 -9249.7412 -7504.4524 298.0215 55.8377 162.5891 30072.9124 55.8377 162.5891
ENERGY: 300000 3.7114 9.2145 9.5895 0.0000 -10481.5084 1368.9403 0.0000 0.0000 1770.1569 -7319.8957 302.2679 -9090.0526 -7428.4628 300.0067 -463.4151 -403.1843 30527.1070 10.5318 99.9348
ENERGY: 600000 11.0457 8.6110 7.6721 0.0000 -10494.8365 1377.3539 0.0000 0.0000 1687.9847 -7402.1692 288.2364 -9090.1539 -7423.6748 299.2268 -582.9294 -522.7499 30403.9770 -160.1724 -88.1783
ENERGY: 900000 3.6677 8.0841 8.5229 0.0000 -10791.4216 1536.0357 0.0000 0.0000 1767.7132 -7467.3980 301.8506 -9235.1112 -7411.1804 300.3622 1016.4839 1118.5028 29570.0157 -34.9608 39.5370
ENERGY: 1200000 2.7877 6.7047 8.7544 0.0000 -10637.2999 1478.9740 0.0000 0.0000 1838.4998 -7301.5793 313.9380 -9140.0791 -7404.7534 300.8105 250.3846 340.0293 30704.3905 -68.1865 3.7982
ENERGY: 1500000 5.5605 10.1795 8.9367 0.0000 -10474.3404 1371.0617 0.0000 0.0000 1803.9147 -7274.6872 308.0323 -9078.6020 -7385.1126 302.4380 -224.4902 -98.5842 30142.3732 41.8578 113.2336
TCL: Running FEP window  15: Lambda1 0.29999999999999966 Lambda2 0.24999999999999967 [dLambda -0.04999999999999999]
TCL: Setting parameter firsttimestep to 0
TCL: Setting parameter alchLambda to 0.29999999999999966
Info: NONBONDED TABLE R-SQUARED SPACING: 0.0625
Info: NONBONDED TABLE SIZE: 705 POINTS
TCL: Setting parameter alchLambda2 to 0.24999999999999967
Info: NONBONDED TABLE R-SQUARED SPACING: 0.0625
Info: NONBONDED TABLE SIZE: 705 POINTS
TCL: Running for 1500000 steps
ETITLE: TS BOND ANGLE DIHED IMPRP ELECT VDW BOUNDARY MISC KINETIC TOTAL TEMP POTENTIAL TOTALAVG TEMPAVG PRESSURE GPRESSURE VOLUME PRESSAVG GPRESSAVG
ENERGY: 0 5.5605 10.1795 8.9367 0.0000 -10474.3393 1371.5996 0.0000 0.0000 1803.0743 -7274.9888 307.8888 -9078.0631 -7274.9888 307.8888 -178.1155 -100.6336 30142.3732 -178.1155 -100.6336
ENERGY: 300000 3.7595 8.9411 7.3497 0.0000 -10508.3237 1342.2879 0.0000 0.0000 1735.0047 -7410.9808 296.2654 -9145.9855 -7385.0816 300.8497 -610.0758 -498.6988 29725.4170 -343.4092 -267.4209
ENERGY: 600000 4.1211 12.4649 8.7643 0.0000 -10579.6717 1406.9419 0.0000 0.0000 1792.8085 -7354.5711 306.1358 -9147.3796 -7387.2383 299.5878 179.2983 203.2099 29994.4508 -122.8472 -47.3505
ENERGY: 900000 2.2646 9.1326 9.2943 0.0000 -10469.3711 1389.7476 0.0000 0.0000 1750.9196 -7308.0124 298.9830 -9058.9320 -7395.5383 299.8700 -164.5208 -187.2561 30467.0142 -320.8304 -253.4919
ENERGY: 1200000 2.9373 11.7976 11.5795 0.0000 -10543.2372 1378.5937 0.0000 0.0000 1761.9236 -7376.4055 300.8620 -9138.3291 -7404.6677 298.9363 -326.0009 -219.7742 29981.7768 -280.0265 -210.5954
ENERGY: 1500000 2.8938 6.8778 10.2147 0.0000 -10533.7105 1389.0014 0.0000 0.0000 1735.1157 -7389.6070 296.2843 -9124.7227 -7415.7243 297.8324 -499.4860 -361.4188 30394.4498 -205.0209 -131.5367
TCL: Running FEP window  16: Lambda1 0.24999999999999967 Lambda2 0.19999999999999968 [dLambda -0.04999999999999999]
TCL: Setting parameter firsttimestep to 0
TCL: Setting parameter alchLambda to 0.24999999999999967
Info: NONBONDED TABLE R-SQUARED SPACING: 0.0625
Info: NONBONDED TABLE SIZE: 705 POINTS
TCL: Setting parameter alchLambda2 to 0.19999999999999968
Info: NONBONDED TABLE R-SQUARED SPACING: 0.0625
Info: NONBONDED TABLE SIZE: 705 POINTS
TCL: Running for 1500000 steps
ETITLE: TS BOND ANGLE DIHED IMPRP ELECT VDW BOUNDARY MISC KINETIC TOTAL TEMP POTENTIAL TOTALAVG TEMPAVG PRESSURE GPRESSURE VOLUME PRESSAVG GPRESSAVG
ENERGY: 0 2.8938 6.8778 10.2147 0.0000 -10533.7114 1389.2650 0.0000 0.0000 1734.2657 -7390.1943 296.1392 -9124.4600 -7390.1943 296.1392 -449.0440 -365.4868 30394.4498 -449.0440 -365.4868
ENERGY: 300000 4.1373 9.5086 8.3737 0.0000 -10589.0942 1402.3333 0.0000 0.0000 1747.1904 -7417.5509 298.3462 -9164.7414 -7389.9160 298.9008 -415.1614 -335.6053 30315.7705 -603.4695 -524.8887
ENERGY: 600000 3.3563 9.3360 9.6144 0.0000 -10716.3486 1474.5276 0.0000 0.0000 1755.7351 -7463.7790 299.8053 -9219.5142 -7390.5714 300.7157 329.7536 460.5155 29800.7396 -123.2838 -48.3757
ENERGY: 900000 2.8179 9.8562 8.1005 0.0000 -10532.0030 1406.8765 0.0000 0.0000 1760.9200 -7343.4318 300.6906 -9104.3518 -7394.8694 300.6657 -21.2730 59.5182 30136.4617 -109.3620 -40.7016
ENERGY: 1200000 6.5885 12.3205 7.4952 0.0000 -10526.7935 1364.4969 0.0000 0.0000 1716.7974 -7419.0950 293.1563 -9135.8924 -7385.6083 300.9457 -594.4108 -572.6864 30262.2112 -167.5093 -98.8513
ENERGY: 1500000 2.2234 8.9396 9.7542 0.0000 -10595.1787 1432.8318 0.0000 0.0000 1761.8732 -7379.5565 300.8534 -9141.4297 -7386.1532 301.5511 156.0018 202.6536 30008.7824 -166.1994 -102.0803
TCL: Running FEP window  17: Lambda1 0.19999999999999968 Lambda2 0.1499999999999997 [dLambda -0.04999999999999999]
TCL: Setting parameter firsttimestep to 0
TCL: Setting parameter alchLambda to 0.19999999999999968
Info: NONBONDED TABLE R-SQUARED SPACING: 0.0625
Info: NONBONDED TABLE SIZE: 705 POINTS
TCL: Setting parameter alchLambda2 to 0.1499999999999997
Info: NONBONDED TABLE R-SQUARED SPACING: 0.0625
Info: NONBONDED TABLE SIZE: 705 POINTS
TCL: Running for 1500000 steps
ETITLE: TS BOND ANGLE DIHED IMPRP ELECT VDW BOUNDARY MISC KINETIC TOTAL TEMP POTENTIAL TOTALAVG TEMPAVG PRESSURE GPRESSURE VOLUME PRESSAVG GPRESSAVG
ENERGY: 0 2.2233 8.9396 9.7542 0.0000 -10595.1777 1433.1181 0.0000 0.0000 1760.9899 -7380.1525 300.7026 -9141.1424 -7380.1525 300.7026 113.1268 199.5832 30008.7824 113.1268 199.5832
ENERGY: 300000 7.7962 10.4107 10.4842 0.0000 -10458.7042 1299.4684 0.0000 0.0000 1737.2709 -7393.2737 296.6524 -9130.5447 -7416.1527 296.4045 -1352.6653 -1312.6849 30556.2094 -271.1422 -227.4702
ENERGY: 600000 3.4612 6.6650 11.9528 0.0000 -10502.5531 1385.9049 0.0000 0.0000 1692.5952 -7401.9741 289.0236 -9094.5693 -7391.4865 297.6415 -307.2724 -231.3295 30275.9034 -250.4726 -208.3393
ENERGY: 900000 6.4434 7.2479 12.4529 0.0000 -10614.5756 1373.0384 0.0000 0.0000 1799.7799 -7415.6130 307.3262 -9215.3929 -7417.9458 298.4358 -921.9904 -815.4512 30463.1743 -315.5594 -265.6924
ENERGY: 1200000 6.8042 13.5203 10.9835 0.0000 -10404.8867 1324.4491 0.0000 0.0000 1757.1198 -7292.0099 300.0417 -9049.1297 -7409.5432 299.0285 -647.2952 -526.6131 30244.7678 -329.0149 -276.3220
ENERGY: 1500000 3.7271 8.9106 9.1700 0.0000 -10509.9952 1402.0249 0.0000 0.0000 1762.1665 -7323.9962 300.9035 -9086.1627 -7400.1481 298.5343 -227.1367 -166.0833 30435.6778 -320.2831 -264.6020
TCL: Running FEP window  18: Lambda1 0.1499999999999997 Lambda2 0.09999999999999969 [dLambda -0.05 ]
TCL: Setting parameter firsttimestep to 0
TCL: Setting parameter alchLambda to 0.1499999999999997
Info: NONBONDED TABLE R-SQUARED SPACING: 0.0625
Info: NONBONDED TABLE SIZE: 705 POINTS
TCL: Setting parameter alchLambda2 to 0.09999999999999969
Info: NONBONDED TABLE R-SQUARED SPACING: 0.0625
Info: NONBONDED TABLE SIZE: 705 POINTS
TCL: Running for 1500000 steps
ETITLE: TS BOND ANGLE DIHED IMPRP ELECT VDW BOUNDARY MISC KINETIC TOTAL TEMP POTENTIAL TOTALAVG TEMPAVG PRESSURE GPRESSURE VOLUME PRESSAVG GPRESSAVG
ENERGY: 0 3.7271 8.9105 9.1700 0.0000 -10509.9927 1401.9022 0.0000 0.0000 1761.2805 -7325.0024 300.7522 -9086.2828 -7325.0024 300.7522 -252.0425 -173.2755 30435.6778 -252.0425 -173.2755
ENERGY: 300000 5.5369 8.9072 8.8101 0.0000 -10604.9867 1404.6914 0.0000 0.0000 1779.1975 -7397.8436 303.8116 -9177.0411 -7383.9455 299.4859 -410.5351 -395.8054 30303.0577 -369.0516 -321.4257
ENERGY: 600000 3.5015 13.5001 8.9727 0.0000 -10658.1881 1419.8891 0.0000 0.0000 1728.8074 -7483.5173 295.2071 -9212.3247 -7373.9590 300.3520 -368.2254 -350.5600 30448.2713 -156.3435 -105.3315
ENERGY: 900000 3.9992 9.4085 8.4358 0.0000 -10447.5554 1326.3002 0.0000 0.0000 1754.7268 -7344.6848 299.6331 -9099.4116 -7378.4265 299.9616 -691.6012 -656.4194 30264.7227 -174.3320 -120.5728
ENERGY: 1200000 5.4047 10.8869 9.7516 0.0000 -10508.9977 1363.6119 0.0000 0.0000 1805.2022 -7314.1403 308.2521 -9119.3425 -7385.4293 300.2292 -247.2835 -170.4164 30017.1365 -117.2985 -63.6744
ENERGY: 1500000 4.5656 8.5508 7.9604 0.0000 -10737.3980 1522.5264 0.0000 0.0000 1801.5018 -7392.2930 307.6203 -9193.7948 -7387.0710 301.0320 463.1556 544.1534 30118.8407 -14.1387 39.9889
TCL: Running FEP window  19: Lambda1 0.09999999999999969 Lambda2 0.049999999999999684 [dLambda -0.05 ]
TCL: Setting parameter firsttimestep to 0
TCL: Setting parameter alchLambda to 0.09999999999999969
Info: NONBONDED TABLE R-SQUARED SPACING: 0.0625
Info: NONBONDED TABLE SIZE: 705 POINTS
TCL: Setting parameter alchLambda2 to 0.049999999999999684
Info: NONBONDED TABLE R-SQUARED SPACING: 0.0625
Info: NONBONDED TABLE SIZE: 705 POINTS
TCL: Running for 1500000 steps
ETITLE: TS BOND ANGLE DIHED IMPRP ELECT VDW BOUNDARY MISC KINETIC TOTAL TEMP POTENTIAL TOTALAVG TEMPAVG PRESSURE GPRESSURE VOLUME PRESSAVG GPRESSAVG
ENERGY: 0 4.5656 8.5508 7.9604 0.0000 -10737.3983 1522.5865 0.0000 0.0000 1800.6238 -7393.1112 307.4703 -9193.7350 -7393.1112 307.4703 455.6776 538.3349 30118.8407 455.6776 538.3349
ENERGY: 300000 2.7201 7.1949 11.2179 0.0000 -10483.5031 1342.0176 0.0000 0.0000 1743.0345 -7377.3182 297.6365 -9120.3527 -7399.5127 300.6402 -526.9592 -435.9477 30100.4423 42.2700 124.0095
ENERGY: 600000 5.0544 9.9577 9.8480 0.0000 -10573.7437 1429.7305 0.0000 0.0000 1758.2361 -7360.9170 300.2323 -9119.1532 -7392.8642 300.3308 -185.2650 -95.3409 29949.7130 -105.9597 -39.6649
ENERGY: 900000 2.8755 12.9048 9.4045 0.0000 -10546.7245 1391.2456 0.0000 0.0000 1742.4340 -7387.8601 297.5340 -9130.2941 -7412.9215 299.3508 -268.3900 -256.4603 30001.6950 -81.7632 -19.9912
ENERGY: 1200000 5.8137 8.4722 8.8327 0.0000 -10664.0012 1468.6218 0.0000 0.0000 1729.6097 -7442.6509 295.3442 -9172.2607 -7408.3293 299.5199 72.1035 100.8550 30082.7500 33.8172 90.9248
ENERGY: 1500000 4.3929 8.2390 10.0412 0.0000 -10657.0541 1478.9456 0.0000 0.0000 1725.9091 -7429.5263 294.7122 -9155.4353 -7409.7247 299.5075 476.5030 533.0112 29402.7661 104.1474 161.0834
TCL: Running FEP window  20: Lambda1 0.049999999999999684 Lambda2 0.0    [dLambda -0.049999999999999684]
TCL: Setting parameter firsttimestep to 0
TCL: Setting parameter alchLambda to 0.049999999999999684
Info: NONBONDED TABLE R-SQUARED SPACING: 0.0625
Info: NONBONDED TABLE SIZE: 705 POINTS
TCL: Setting parameter alchLambda2 to 0.0
Info: NONBONDED TABLE R-SQUARED SPACING: 0.0625
Info: NONBONDED TABLE SIZE: 705 POINTS
TCL: Running for 1500000 steps
ETITLE: TS BOND ANGLE DIHED IMPRP ELECT VDW BOUNDARY MISC KINETIC TOTAL TEMP POTENTIAL TOTALAVG TEMPAVG PRESSURE GPRESSURE VOLUME PRESSAVG GPRESSAVG
ENERGY: 0 4.3929 8.2390 10.0412 0.0000 -10657.0544 1478.0908 0.0000 0.0000 1725.0678 -7431.2227 294.5686 -9156.2905 -7431.2227 294.5686 441.3933 525.2385 29402.7661 441.3933 525.2385
ENERGY: 300000 1.9622 8.5153 10.2434 0.0000 -10620.6347 1415.2720 0.0000 0.0000 1714.9576 -7469.6842 292.8422 -9184.6418 -7412.6384 294.4175 -279.8243 -208.0597 30127.0322 26.6107 102.8350
ENERGY: 600000 2.8824 8.9479 8.0410 0.0000 -10735.4130 1516.8230 0.0000 0.0000 1691.0164 -7507.7022 288.7540 -9198.7187 -7434.3206 294.5002 516.4600 553.4863 29875.2397 -10.6356 54.3325
ENERGY: 900000 3.8698 7.5082 8.8985 0.0000 -10707.0533 1481.1986 0.0000 0.0000 1787.1801 -7418.3981 305.1747 -9205.5782 -7414.5472 297.0461 311.8228 295.5193 29794.9650 -38.8521 24.0772
ENERGY: 1200000 5.4433 8.3892 11.1653 0.0000 -10600.4898 1436.1525 0.0000 0.0000 1812.7527 -7326.5868 309.5415 -9139.3395 -7402.7407 299.4471 -139.6689 -100.5521 30256.2986 39.3035 103.4714
ENERGY: 1500000 7.6222 11.6622 9.1238 0.0000 -10634.2274 1413.6258 0.0000 0.0000 1764.8474 -7427.3461 301.3612 -9192.1935 -7410.0143 299.8733 -496.4939 -472.7698 30264.9294 -80.2965 -21.3460
TCL: Exiting due to exit command.
