Info: SIMULATION PARAMETERS:
Info: TIMESTEP               2
Info: NUMBER OF STEPS        0
Info: STEPS PER CYCLE        10
Info: PERIODIC CELL BASIS 1  30.8012 0 0
Info: PERIODIC CELL BASIS 2  0 31.4777 0
Info: PERIODIC CELL BASIS 3  0 0 31.3589
Info: PERIODIC CELL CENTER   0 0 0
Info: WRAPPING WATERS AROUND PERIODIC BOUNDARIES ON OUTPUT.
Info: WRAPPING ALL CLUSTERS AROUND PERIODIC BOUNDARIES ON OUTPUT.
Info: FIRST LDB TIMESTEP     50
Info: LAST LDB TIMESTEP     -1
Info: HOM BACKGROUND SCALING 1
Info: PME BACKGROUND SCALING 1
Info: MIN ATOMS PER PATCH    40
Info: EMPTY PATCH LOAD       40 ATOMS
Info: VELOCITY FILE          mobley_197466_equil.vel
Info: CENTER OF MASS MOVING INITIALLY? NO
Info: DIELECTRIC             1
Info: EXCLUDE                SCALED ONE-FOUR
Info: 1-4 ELECTROSTATICS SCALED BY 0.833333
Info: MODIFIED 1-4 VDW PARAMETERS WILL BE USED
Info: DCD FILENAME           mobley_197466_prod.dcd
Info: DCD FREQUENCY          100000
Info: DCD FIRST STEP         100000
Info: DCD FILE WILL CONTAIN UNIT CELL DATA
Info: XST FILENAME           mobley_197466_prod.xst
Info: XST FREQUENCY          100000
Info: NO VELOCITY DCD OUTPUT
Info: NO FORCE DCD OUTPUT
Info: OUTPUT FILENAME        mobley_197466_prod
Info: BINARY OUTPUT FILES WILL BE USED
Info: RESTART FILENAME       mobley_197466_prod.restart
Info: RESTART FREQUENCY      100000
Info: BINARY RESTART FILES WILL BE USED
Info: CUTOFF                 9
Info: PAIRLIST DISTANCE      11
Info: PAIRLIST SHRINK RATE   0.01
Info: PAIRLIST GROW RATE     0.01
Info: PAIRLIST TRIGGER       0.3
Info: PAIRLISTS PER CYCLE    2
Info: PAIRLISTS ENABLED
Info: MARGIN                 2
Info: HYDROGEN GROUP CUTOFF  2.5
Info: PATCH DIMENSION        15.5
Info: ENERGY OUTPUT STEPS    100000
Info: ENERGY EVALUATION STEPS    100000
Info: OUTPUT ENERGY PRECISION 4
Info: CROSSTERM ENERGY INCLUDED IN DIHEDRAL
Info: TIMING OUTPUT STEPS    1000000
Info: PRESSURE OUTPUT STEPS  100000
Info: ALCHEMICAL FEP ON
Info: FEP CURRENT LAMBDA VALUE     0
Info: FEP COMPARISON LAMBDA VALUE  0.05
Info: FEP INTRA-ALCHEMICAL NON-BONDED INTERACTIONS WILL BE RETAINED
Info: FEP INTRA-ALCHEMICAL BONDED INTERACTIONS WILL BE RETAINED
Info: FEP VDW SHIFTING COEFFICIENT 5
Info: FEP ELEC. ACTIVE FOR ANNIHILATED PARTICLES BETWEEN LAMBDA = 0 AND LAMBDA = 0.5
Info: FEP ELEC. ACTIVE FOR EXNIHILATED PARTICLES BETWEEN LAMBDA = 0.5 AND LAMBDA = 1
Info: FEP VDW ACTIVE FOR ANNIHILATED PARTICLES BETWEEN LAMBDA = 0 AND LAMBDA = 1
Info: FEP VDW ACTIVE FOR EXNIHILATED PARTICLES BETWEEN LAMBDA = 0 AND LAMBDA = 1
Info: FEP BOND ACTIVE FOR ANNIHILATED PARTICLES BETWEEN LAMBDA = 1 AND LAMBDA = 1
Info: FEP BOND ACTIVE FOR EXNIHILATED PARTICLES BETWEEN LAMBDA = 0 AND LAMBDA = 0
Info: LANGEVIN DYNAMICS ACTIVE
Info: LANGEVIN TEMPERATURE   300
Info: LANGEVIN USING BBK INTEGRATOR
Info: LANGEVIN DAMPING COEFFICIENT IS 1 INVERSE PS
Info: LANGEVIN DYNAMICS APPLIED TO HYDROGENS
Info: LANGEVIN PISTON PRESSURE CONTROL ACTIVE
Info:        TARGET PRESSURE IS 1.01325 BAR
Info:     OSCILLATION PERIOD IS 50 FS
Info:             DECAY TIME IS 25 FS
Info:     PISTON TEMPERATURE IS 300 K
Info:       PRESSURE CONTROL IS GROUP-BASED
Info:    INITIAL STRAIN RATE IS 0.000172885 0.000172885 0.000172885
Info:       CELL FLUCTUATION IS ISOTROPIC
Info: PARTICLE MESH EWALD (PME) ACTIVE
Info: PME TOLERANCE               1e-06
Info: PME EWALD COEFFICIENT       0.348832
Info: PME INTERPOLATION ORDER     4
Info: PME GRID DIMENSIONS         32 32 32
Info: PME MAXIMUM GRID SPACING    1
Info: PME CALCULATION WILL BE PERFORMED ON GPU
Info: FULL ELECTROSTATIC EVALUATION FREQUENCY      2
Info: USING VERLET I (r-RESPA) MTS SCHEME.
Info: C1 SPLITTING OF LONG RANGE ELECTROSTATICS
Info: PLACING ATOMS IN PATCHES BY HYDROGEN GROUPS
Info: RIGID BONDS TO HYDROGEN : ALL
Info:         ERROR TOLERANCE : 1e-08
Info:          MAX ITERATIONS : 100
Info: RIGID WATER USING SETTLE ALGORITHM
Info: RANDOM NUMBER SEED     1743738513
Info: USE HYDROGEN BONDS?    NO
Info: Using AMBER format force field!
Info: AMBER PARM FILE        mobley_197466.prmtop
Info: COORDINATE PDB         mobley_197466.pdb
Info: Exclusions will be read from PARM file!
Info: SCNB (VDW SCALING)     2
Info: USING ARITHMETIC MEAN TO COMBINE L-J SIGMA PARAMETERS
Info: BINARY COORDINATES     mobley_197466_equil.coor
Info: SUMMARY OF PARAMETERS:
Info: 8 BONDS
Info: 10 ANGLES
Info:   10 HARMONIC
Info:   0 COSINE-BASED
Info: 6 DIHEDRAL
Info: 0 IMPROPER
Info: 0 CROSSTERM
Info: 0 VDW
Info: 21 VDW_PAIRS
Info: 0 NBTHOLE_PAIRS
Info: To read alchdata from file: mobley_197466.pdb
Info: To read alchflag data from column: 5
Info: STRUCTURE SUMMARY:
Info: 2981 ATOMS
Info: 2981 BONDS
Info: 27 ANGLES
Info: 43 DIHEDRALS
Info: 0 IMPROPERS
Info: 0 CROSSTERMS
Info: 3029 EXCLUSIONS
Info: 2975 RIGID BONDS
Info: ALCH: 0 ATOMS TO DISAPPEAR IN FINAL STATE
Info: ALCH: 14 ATOMS TO APPEAR IN FINAL STATE
Info: 5968 DEGREES OF FREEDOM
Info: 995 HYDROGEN GROUPS
Info: 4 ATOMS IN LARGEST HYDROGEN GROUP
Info: 995 MIGRATION GROUPS
Info: 4 ATOMS IN LARGEST MIGRATION GROUP
Info: TOTAL MASS = 17901.9 amu
Info: TOTAL CHARGE = 9.99719e-05 e
Info: MASS DENSITY = 0.97775 g/cm^3
Info: ATOM DENSITY = 0.0980462 atoms/A^3
Info: ADDED 0 IMPLICIT EXCLUSIONS
Info: NONBONDED TABLE R-SQUARED SPACING: 0.0625
Info: NONBONDED TABLE SIZE: 705 POINTS
Info: REMOVING COM VELOCITY 0.148877 -0.271657 -0.116033
Info: Use 3D box decompostion in PME FFT.
Info: Updated CUDA force table with 4096 elements.
Info: Updated CUDA LJ table with 6 x 6 elements.
Info: Found 17 unique exclusion lists needing 32 bytes
TCL: Running for 1500000 steps
ETITLE: TS BOND ANGLE DIHED IMPRP ELECT VDW BOUNDARY MISC KINETIC TOTAL TEMP POTENTIAL TOTALAVG TEMPAVG PRESSURE GPRESSURE VOLUME PRESSAVG GPRESSAVG
ENERGY: 0 1.4863 7.3247 8.9300 0.0000 -10863.9429 1539.6984 0.0000 0.0000 1824.0189 -7482.4846 307.6032 -9306.5034 -7482.4846 307.6032 824.6796 908.1648 30404.0371 824.6796 908.1648
ENERGY: 300000 1.3777 5.8736 9.3002 0.0000 -10769.4472 1439.2760 0.0000 0.0000 1799.9687 -7513.6510 303.5474 -9313.6197 -7510.0506 302.9391 -248.8896 -174.1756 30889.8459 96.3186 182.5960
ENERGY: 600000 1.8283 5.8846 8.9153 0.0000 -10805.2048 1451.3826 0.0000 0.0000 1779.1234 -7558.0705 300.0320 -9337.1940 -7520.2972 301.4852 -145.0101 -65.6887 30528.3039 -75.9436 -10.2191
ENERGY: 900000 0.6238 8.9310 9.7573 0.0000 -10759.6485 1346.1440 0.0000 0.0000 1812.0443 -7582.1481 305.5838 -9394.1924 -7535.4484 301.4230 -1296.8107 -1207.5507 31097.8622 -313.1818 -240.5026
ENERGY: 1200000 1.7081 5.8863 9.5741 0.0000 -10728.7194 1460.3630 0.0000 0.0000 1741.0349 -7510.1530 293.6088 -9251.1879 -7529.1756 301.1168 278.3394 291.4354 30456.6207 -233.1588 -159.3263
ENERGY: 1500000 1.5922 7.4916 9.0273 0.0000 -10689.3067 1419.2647 0.0000 0.0000 1811.8789 -7440.0520 305.5559 -9251.9309 -7524.3869 301.6782 73.2670 163.4583 30619.9415 -229.0873 -152.5016
TCL: Running FEP window   2: Lambda1 0.05   Lambda2 0.1    [dLambda 0.05  ]
TCL: Setting parameter firsttimestep to 0
TCL: Setting parameter alchLambda to 0.05
Info: NONBONDED TABLE R-SQUARED SPACING: 0.0625
Info: NONBONDED TABLE SIZE: 705 POINTS
TCL: Setting parameter alchLambda2 to 0.1
Info: NONBONDED TABLE R-SQUARED SPACING: 0.0625
Info: NONBONDED TABLE SIZE: 705 POINTS
TCL: Running for 1500000 steps
ETITLE: TS BOND ANGLE DIHED IMPRP ELECT VDW BOUNDARY MISC KINETIC TOTAL TEMP POTENTIAL TOTALAVG TEMPAVG PRESSURE GPRESSURE VOLUME PRESSAVG GPRESSAVG
ENERGY: 0 1.5922 7.4916 9.0273 0.0000 -10689.3065 1419.7551 0.0000 0.0000 1810.9668 -7440.4734 305.4021 -9251.4403 -7440.4734 305.4021 81.1643 164.4112 30619.9415 81.1643 164.4112
ENERGY: 300000 4.5056 5.4463 8.9261 0.0000 -10850.6756 1485.7261 0.0000 0.0000 1789.7753 -7556.2963 301.8284 -9346.0716 -7544.5383 300.6500 220.2331 303.0977 30429.1820 47.8755 104.6236
ENERGY: 600000 0.8804 7.4388 8.9349 0.0000 -10884.8153 1483.7289 0.0000 0.0000 1751.0520 -7632.7804 295.2981 -9383.8323 -7544.6819 300.1567 61.7686 94.4720 30501.4951 -42.0611 19.8819
ENERGY: 900000 3.6103 7.9392 9.2202 0.0000 -10746.5770 1399.9356 0.0000 0.0000 1824.0845 -7501.7871 307.6143 -9325.8716 -7549.6055 301.0958 -577.3284 -474.0375 30630.6249 -170.0376 -112.7795
ENERGY: 1200000 1.4239 9.2931 8.6679 0.0000 -10838.4030 1463.6007 0.0000 0.0000 1795.5117 -7559.9057 302.7958 -9355.4174 -7547.5290 301.1002 19.4147 57.8671 30245.4435 -88.3867 -31.1723
ENERGY: 1500000 4.2418 10.9776 9.2118 0.0000 -10805.3275 1412.1837 0.0000 0.0000 1788.9148 -7579.7978 301.6833 -9368.7126 -7558.1925 300.9105 -550.9119 -492.6070 30679.8390 -106.0815 -49.7027
TCL: Running FEP window   3: Lambda1 0.1    Lambda2 0.15000000000000002 [dLambda 0.05000000000000002]
TCL: Setting parameter firsttimestep to 0
TCL: Setting parameter alchLambda to 0.1
Info: NONBONDED TABLE R-SQUARED SPACING: 0.0625
Info: NONBONDED TABLE SIZE: 705 POINTS
TCL: Setting parameter alchLambda2 to 0.15000000000000002
Info: NONBONDED TABLE R-SQUARED SPACING: 0.0625
Info: NONBONDED TABLE SIZE: 705 POINTS
TCL: Running for 1500000 steps
ETITLE: TS BOND ANGLE DIHED IMPRP ELECT VDW BOUNDARY MISC KINETIC TOTAL TEMP POTENTIAL TOTALAVG TEMPAVG PRESSURE GPRESSURE VOLUME PRESSAVG GPRESSAVG
ENERGY: 0 4.2418 10.9776 9.2118 0.0000 -10805.3277 1411.9636 0.0000 0.0000 1788.0045 -7580.9283 301.5298 -9368.9328 -7580.9283 301.5298 -567.4330 -491.9453 30679.8390 -567.4330 -491.9453
ENERGY: 300000 0.3104 6.4387 8.7437 0.0000 -10817.8391 1418.7190 0.0000 0.0000 1849.6295 -7533.9979 311.9222 -9383.6274 -7548.8569 303.4607 -441.6314 -391.5633 30689.8819 -88.9896 -31.2328
ENERGY: 600000 0.9555 10.8385 8.9299 0.0000 -10906.0491 1481.5771 0.0000 0.0000 1815.7586 -7587.9895 306.2102 -9403.7481 -7562.7231 303.4050 144.9478 76.6352 30586.9839 160.0010 204.0985
ENERGY: 900000 0.9207 3.9534 9.0184 0.0000 -10817.9555 1428.3605 0.0000 0.0000 1755.5782 -7620.1244 296.0614 -9375.7025 -7568.1613 302.6909 -87.7563 -40.5707 30147.7832 16.6848 65.8840
ENERGY: 1200000 0.3151 6.8865 8.5796 0.0000 -10751.9525 1437.0696 0.0000 0.0000 1750.6620 -7548.4397 295.2323 -9299.1017 -7561.8888 301.4980 30.9812 99.0284 30407.1712 74.4364 131.0609
ENERGY: 1500000 1.4464 5.6873 8.6043 0.0000 -10776.6628 1410.5877 0.0000 0.0000 1814.3484 -7535.9887 305.9724 -9350.3371 -7569.0881 301.0460 -445.9265 -424.4591 30784.0398 85.9592 140.7472
TCL: Running FEP window   4: Lambda1 0.15000000000000002 Lambda2 0.2    [dLambda 0.04999999999999999]
TCL: Setting parameter firsttimestep to 0
TCL: Setting parameter alchLambda to 0.15000000000000002
Info: NONBONDED TABLE R-SQUARED SPACING: 0.0625
Info: NONBONDED TABLE SIZE: 705 POINTS
TCL: Setting parameter alchLambda2 to 0.2
Info: NONBONDED TABLE R-SQUARED SPACING: 0.0625
Info: NONBONDED TABLE SIZE: 705 POINTS
TCL: Running for 1500000 steps
ETITLE: TS BOND ANGLE DIHED IMPRP ELECT VDW BOUNDARY MISC KINETIC TOTAL TEMP POTENTIAL TOTALAVG TEMPAVG PRESSURE GPRESSURE VOLUME PRESSAVG GPRESSAVG
ENERGY: 0 1.4464 5.6873 8.6043 0.0000 -10776.6618 1410.6227 0.0000 0.0000 1813.3845 -7536.9166 305.8099 -9350.3011 -7536.9166 305.8099 -499.2514 -423.0148 30784.0398 -499.2514 -423.0148
ENERGY: 300000 0.5364 6.2597 8.8908 0.0000 -10858.9032 1449.9694 0.0000 0.0000 1793.3150 -7599.9319 302.4253 -9393.2470 -7556.8094 303.6094 -106.0437 -46.8126 30369.3495 -427.9303 -360.6738
ENERGY: 600000 0.4541 13.2116 8.4291 0.0000 -10899.6406 1504.9529 0.0000 0.0000 1751.4510 -7621.1419 295.3654 -9372.5929 -7560.1902 304.0833 299.4872 391.5735 30342.9752 -51.8993 16.8890
ENERGY: 900000 2.8092 6.9548 8.6019 0.0000 -10757.9965 1476.5123 0.0000 0.0000 1752.1733 -7510.9451 295.4872 -9263.1183 -7542.1430 303.6530 -67.1372 27.6607 31091.5338 -66.5968 4.0523
ENERGY: 1200000 3.7064 5.1549 9.1930 0.0000 -10759.0618 1395.0262 0.0000 0.0000 1794.3777 -7551.6036 302.6045 -9345.9813 -7548.9633 302.7273 -589.5933 -477.2086 30540.2631 -165.3285 -92.1285
ENERGY: 1500000 2.9662 4.5099 8.6205 0.0000 -10765.9361 1402.1872 0.0000 0.0000 1785.4202 -7562.2322 301.0939 -9347.6525 -7555.9371 302.0900 -838.8947 -728.7201 31097.5387 -232.6608 -156.0177
TCL: Running FEP window   5: Lambda1 0.2    Lambda2 0.25   [dLambda 0.04999999999999999]
TCL: Setting parameter firsttimestep to 0
TCL: Setting parameter alchLambda to 0.2
Info: NONBONDED TABLE R-SQUARED SPACING: 0.0625
Info: NONBONDED TABLE SIZE: 705 POINTS
TCL: Setting parameter alchLambda2 to 0.25
Info: NONBONDED TABLE R-SQUARED SPACING: 0.0625
Info: NONBONDED TABLE SIZE: 705 POINTS
TCL: Running for 1500000 steps
ETITLE: TS BOND ANGLE DIHED IMPRP ELECT VDW BOUNDARY MISC KINETIC TOTAL TEMP POTENTIAL TOTALAVG TEMPAVG PRESSURE GPRESSURE VOLUME PRESSAVG GPRESSAVG
ENERGY: 0 2.9662 4.5099 8.6205 0.0000 -10765.9370 1403.6784 0.0000 0.0000 1784.5737 -7561.5885 300.9512 -9346.1621 -7561.5885 300.9512 -796.5327 -719.4918 31097.5387 -796.5327 -719.4918
ENERGY: 300000 1.4334 8.0511 9.0831 0.0000 -10881.3669 1463.9017 0.0000 0.0000 1808.3343 -7590.5633 304.9582 -9398.8976 -7579.8985 300.5054 -150.7065 -45.7329 30576.8963 -154.6282 -69.3131
ENERGY: 600000 1.6738 4.6416 8.7265 0.0000 -10687.2839 1392.1988 0.0000 0.0000 1716.0256 -7564.0176 289.3912 -9280.0432 -7573.2877 299.1961 -542.4489 -502.9624 30643.2587 -257.0607 -186.6683
ENERGY: 900000 2.3625 8.5305 9.1868 0.0000 -10903.2072 1480.3574 0.0000 0.0000 1794.7298 -7608.0402 302.6639 -9402.7700 -7572.2278 299.3191 329.8306 329.1990 30254.1088 -84.0150 -16.9880
ENERGY: 1200000 2.4938 8.9971 9.7920 0.0000 -10705.6249 1372.9273 0.0000 0.0000 1822.7593 -7488.6553 307.3908 -9311.4146 -7562.9647 299.4130 -338.7540 -284.6995 30112.8100 14.6709 77.7350
ENERGY: 1500000 1.6636 7.6594 8.2901 0.0000 -10708.7154 1353.6276 0.0000 0.0000 1738.0856 -7599.3891 293.1114 -9337.4747 -7560.0467 299.5598 -731.8082 -673.7826 30541.7626 -36.4625 26.2345
TCL: Running FEP window   6: Lambda1 0.25   Lambda2 0.3    [dLambda 0.04999999999999999]
TCL: Setting parameter firsttimestep to 0
TCL: Setting parameter alchLambda to 0.25
Info: NONBONDED TABLE R-SQUARED SPACING: 0.0625
Info: NONBONDED TABLE SIZE: 705 POINTS
TCL: Setting parameter alchLambda2 to 0.3
Info: NONBONDED TABLE R-SQUARED SPACING: 0.0625
Info: NONBONDED TABLE SIZE: 705 POINTS
TCL: Running for 1500000 steps
ETITLE: TS BOND ANGLE DIHED IMPRP ELECT VDW BOUNDARY MISC KINETIC TOTAL TEMP POTENTIAL TOTALAVG TEMPAVG PRESSURE GPRESSURE VOLUME PRESSAVG GPRESSAVG
ENERGY: 0 1.6636 7.6594 8.2901 0.0000 -10708.7163 1353.5054 0.0000 0.0000 1737.1826 -7600.4152 292.9591 -9337.5978 -7600.4152 292.9591 -747.8814 -673.3549 30541.7626 -747.8814 -673.3549
ENERGY: 300000 0.9885 3.5717 9.0486 0.0000 -10783.1857 1428.6639 0.0000 0.0000 1755.9576 -7584.9552 296.1254 -9340.9129 -7600.5830 298.5645 -141.8060 -121.7230 30331.6639 -163.4168 -112.8557
ENERGY: 600000 1.5946 6.2850 9.0698 0.0000 -10848.5116 1470.3475 0.0000 0.0000 1698.9447 -7662.2700 286.5107 -9361.2147 -7619.6807 296.3457 -104.2752 -82.0441 30867.1921 -127.4196 -76.3287
ENERGY: 900000 1.3588 5.9024 8.5724 0.0000 -10790.8372 1421.6181 0.0000 0.0000 1757.7037 -7595.6817 296.4198 -9353.3854 -7600.8352 298.3224 -520.5405 -444.0599 30808.0409 -88.7488 -33.7304
ENERGY: 1200000 1.0148 5.4443 8.2948 0.0000 -10973.0651 1562.6046 0.0000 0.0000 1799.5332 -7596.1735 303.4740 -9395.7066 -7588.0804 298.7238 699.9464 792.0374 30417.8146 -88.6218 -30.6384
ENERGY: 1500000 0.4987 6.2965 9.0769 0.0000 -10838.2279 1481.3197 0.0000 0.0000 1805.1429 -7535.8932 304.4200 -9341.0362 -7580.3569 299.0628 -105.5861 -61.8508 31144.6656 -43.1841 13.5568
TCL: Running FEP window   7: Lambda1 0.3    Lambda2 0.35   [dLambda 0.04999999999999999]
TCL: Setting parameter firsttimestep to 0
TCL: Setting parameter alchLambda to 0.3
Info: NONBONDED TABLE R-SQUARED SPACING: 0.0625
Info: NONBONDED TABLE SIZE: 705 POINTS
TCL: Setting parameter alchLambda2 to 0.35
Info: NONBONDED TABLE R-SQUARED SPACING: 0.0625
Info: NONBONDED TABLE SIZE: 705 POINTS
TCL: Running for 1500000 steps
ETITLE: TS BOND ANGLE DIHED IMPRP ELECT VDW BOUNDARY MISC KINETIC TOTAL TEMP POTENTIAL TOTALAVG TEMPAVG PRESSURE GPRESSURE VOLUME PRESSAVG GPRESSAVG
ENERGY: 0 0.4987 6.2965 9.0769 0.0000 -10838.2276 1482.0713 0.0000 0.0000 1804.2568 -7536.0275 304.2705 -9340.2843 -7536.0275 304.2705 -143.3269 -55.5498 31144.6656 -143.3269 -55.5498
ENERGY: 300000 1.2873 6.9723 8.5039 0.0000 -10778.6413 1484.2721 0.0000 0.0000 1801.1050 -7476.5007 303.7390 -9277.6057 -7512.7892 301.0600 243.2638 318.8865 30700.5300 -37.9347 28.4485
ENERGY: 600000 1.2805 3.6057 9.0962 0.0000 -10616.3232 1304.6064 0.0000 0.0000 1741.0177 -7556.7167 293.6059 -9297.7344 -7539.7760 299.3734 -1111.9120 -1079.1831 30852.5389 -181.0202 -125.4642
ENERGY: 900000 0.9026 5.4789 8.9422 0.0000 -10921.3312 1568.6651 0.0000 0.0000 1723.7593 -7613.5829 290.6954 -9337.3422 -7557.2530 299.1946 740.9939 766.5948 31029.4507 37.4506 92.0698
ENERGY: 1200000 3.6953 4.4773 8.6322 0.0000 -10776.6546 1408.7091 0.0000 0.0000 1770.6944 -7580.4463 298.6106 -9351.1407 -7558.6284 299.9073 -522.5435 -492.5616 30658.1464 -35.3915 18.1596
ENERGY: 1500000 0.7718 8.2835 9.5107 0.0000 -10672.4441 1399.6520 0.0000 0.0000 1860.6661 -7393.5601 313.7834 -9254.2262 -7558.4035 299.7691 -218.0115 -184.1114 30793.5805 -36.2680 17.3888
TCL: Running FEP window   8: Lambda1 0.35   Lambda2 0.39999999999999997 [dLambda 0.04999999999999999]
TCL: Setting parameter firsttimestep to 0
TCL: Setting parameter alchLambda to 0.35
Info: NONBONDED TABLE R-SQUARED SPACING: 0.0625
Info: NONBONDED TABLE SIZE: 705 POINTS
TCL: Setting parameter alchLambda2 to 0.39999999999999997
Info: NONBONDED TABLE R-SQUARED SPACING: 0.0625
Info: NONBONDED TABLE SIZE: 705 POINTS
TCL: Running for 1500000 steps
ETITLE: TS BOND ANGLE DIHED IMPRP ELECT VDW BOUNDARY MISC KINETIC TOTAL TEMP POTENTIAL TOTALAVG TEMPAVG PRESSURE GPRESSURE VOLUME PRESSAVG GPRESSAVG
ENERGY: 0 0.7718 8.2835 9.5107 0.0000 -10672.4442 1399.8167 0.0000 0.0000 1859.7724 -7394.2892 313.6327 -9254.0616 -7394.2892 313.6327 -259.9901 -180.6550 30793.5805 -259.9901 -180.6550
ENERGY: 300000 2.8905 5.2389 8.8039 0.0000 -10757.5703 1429.9842 0.0000 0.0000 1770.8401 -7539.8127 298.6351 -9310.6528 -7524.7715 301.4809 -476.7943 -366.0338 30866.4228 -8.0844 75.0023
ENERGY: 600000 0.3473 4.7466 8.7987 0.0000 -10975.4086 1583.1541 0.0000 0.0000 1784.1123 -7594.2496 300.8734 -9378.3619 -7554.1070 299.3626 1000.8297 1088.4158 30367.2520 125.8349 200.8427
ENERGY: 900000 0.4555 6.6186 9.1152 0.0000 -10716.5050 1328.7483 0.0000 0.0000 1752.2266 -7619.3408 295.4962 -9371.5674 -7558.6634 299.2201 -1074.6975 -1059.3250 30738.8906 48.7707 105.5980
ENERGY: 1200000 2.3331 5.1771 9.0828 0.0000 -10713.2663 1422.7286 0.0000 0.0000 1835.7394 -7438.2054 309.5798 -9273.9448 -7550.1978 299.6879 -48.3083 -28.7963 30638.2971 21.0545 78.8035
ENERGY: 1500000 2.2290 6.5752 9.1728 0.0000 -10886.7012 1445.4774 0.0000 0.0000 1813.7245 -7609.5223 305.8672 -9423.2468 -7553.9360 300.3328 -204.3682 -193.2803 30549.1160 -82.3217 -33.5913
TCL: Running FEP window   9: Lambda1 0.39999999999999997 Lambda2 0.44999999999999996 [dLambda 0.04999999999999999]
TCL: Setting parameter firsttimestep to 0
TCL: Setting parameter alchLambda to 0.39999999999999997
Info: NONBONDED TABLE R-SQUARED SPACING: 0.0625
Info: NONBONDED TABLE SIZE: 705 POINTS
TCL: Setting parameter alchLambda2 to 0.44999999999999996
Info: NONBONDED TABLE R-SQUARED SPACING: 0.0625
Info: NONBONDED TABLE SIZE: 705 POINTS
TCL: Running for 1500000 steps
ETITLE: TS BOND ANGLE DIHED IMPRP ELECT VDW BOUNDARY MISC KINETIC TOTAL TEMP POTENTIAL TOTALAVG TEMPAVG PRESSURE GPRESSURE VOLUME PRESSAVG GPRESSAVG
ENERGY: 0 2.2290 6.5752 9.1728 0.0000 -10886.7022 1446.7566 0.0000 0.0000 1812.8203 -7609.1482 305.7147 -9421.9685 -7609.1482 305.7147 -275.4411 -179.6908 30549.1160 -275.4411 -179.6908
ENERGY: 300000 1.8830 5.0379 8.8626 0.0000 -10655.9493 1323.9460 0.0000 0.0000 1820.1031 -7496.1167 306.9429 -9316.2198 -7549.5324 303.9863 -1048.1681 -985.6122 30858.3969 -317.7303 -271.1818
ENERGY: 600000 4.2124 11.3570 8.8572 0.0000 -10869.7201 1537.2237 0.0000 0.0000 1846.7512 -7461.3186 311.4368 -9308.0698 -7543.5558 304.1678 710.4981 757.5641 30701.8438 -41.7340 6.9740
ENERGY: 900000 0.8289 3.2998 8.9237 0.0000 -10783.7651 1440.9257 0.0000 0.0000 1785.2356 -7544.5515 301.0628 -9329.7871 -7543.1476 303.8823 -53.8396 -36.5321 30817.2152 -41.5376 7.7314
ENERGY: 1200000 0.7451 4.0631 9.3450 0.0000 -10739.2220 1431.3683 0.0000 0.0000 1807.8820 -7485.8185 304.8819 -9293.7005 -7543.7339 301.6654 -30.2306 21.5960 30820.2209 -106.9928 -58.1459
ENERGY: 1500000 1.2546 9.8990 8.5222 0.0000 -10828.7162 1459.3295 0.0000 0.0000 1811.3778 -7538.3331 305.4714 -9349.7109 -7552.3932 300.9258 -85.5665 -19.4572 30831.3662 -119.6965 -64.9874
TCL: Running FEP window  10: Lambda1 0.44999999999999996 Lambda2 0.49999999999999994 [dLambda 0.04999999999999999]
TCL: Setting parameter firsttimestep to 0
TCL: Setting parameter alchLambda to 0.44999999999999996
Info: NONBONDED TABLE R-SQUARED SPACING: 0.0625
Info: NONBONDED TABLE SIZE: 705 POINTS
TCL: Setting parameter alchLambda2 to 0.49999999999999994
Info: NONBONDED TABLE R-SQUARED SPACING: 0.0625
Info: NONBONDED TABLE SIZE: 705 POINTS
TCL: Running for 1500000 steps
ETITLE: TS BOND ANGLE DIHED IMPRP ELECT VDW BOUNDARY MISC KINETIC TOTAL TEMP POTENTIAL TOTALAVG TEMPAVG PRESSURE GPRESSURE VOLUME PRESSAVG GPRESSAVG
ENERGY: 0 1.2546 9.8990 8.5222 0.0000 -10828.7160 1459.2181 0.0000 0.0000 1810.5073 -7539.3147 305.3246 -9349.8220 -7539.3147 305.3246 -107.8488 -16.2566 30831.3662 -107.8488 -16.2566
ENERGY: 300000 1.3465 6.8401 8.5724 0.0000 -10811.7760 1463.5187 0.0000 0.0000 1771.0675 -7560.4307 298.6735 -9331.4982 -7561.6748 298.7209 241.2034 283.0026 30512.1717 -331.5870 -262.9392
ENERGY: 600000 1.9500 8.2497 8.5008 0.0000 -10827.1116 1470.6098 0.0000 0.0000 1781.7621 -7556.0393 300.4770 -9337.8014 -7550.0592 301.3048 -326.3717 -251.3302 31113.9300 -129.2995 -72.2763
ENERGY: 900000 4.6606 3.9983 9.1257 0.0000 -10704.7863 1387.7957 0.0000 0.0000 1809.9529 -7489.2532 305.2311 -9299.2061 -7544.8745 301.3349 -731.0803 -635.6314 31136.5247 -156.8806 -98.8947
ENERGY: 1200000 1.9564 8.1956 8.7454 0.0000 -10819.7413 1490.1017 0.0000 0.0000 1770.9526 -7539.7895 298.6541 -9310.7422 -7545.7801 301.0198 288.7537 301.6083 30599.7902 -36.5469 19.2439
ENERGY: 1500000 0.4913 4.8030 9.0569 0.0000 -10835.5151 1479.2402 0.0000 0.0000 1774.9856 -7566.9381 299.3342 -9341.9237 -7545.3767 300.9038 310.5242 358.8776 30593.7966 -19.4717 37.7399
TCL: Running FEP window  11: Lambda1 0.49999999999999994 Lambda2 0.5499999999999999 [dLambda 0.04999999999999999]
TCL: Setting parameter firsttimestep to 0
TCL: Setting parameter alchLambda to 0.49999999999999994
Info: NONBONDED TABLE R-SQUARED SPACING: 0.0625
Info: NONBONDED TABLE SIZE: 705 POINTS
TCL: Setting parameter alchLambda2 to 0.5499999999999999
Info: NONBONDED TABLE R-SQUARED SPACING: 0.0625
Info: NONBONDED TABLE SIZE: 705 POINTS
TCL: Running for 1500000 steps
ETITLE: TS BOND ANGLE DIHED IMPRP ELECT VDW BOUNDARY MISC KINETIC TOTAL TEMP POTENTIAL TOTALAVG TEMPAVG PRESSURE GPRESSURE VOLUME PRESSAVG GPRESSAVG
ENERGY: 0 0.4913 4.8030 9.0569 0.0000 -10835.5162 1479.0723 0.0000 0.0000 1774.0938 -7567.9989 299.1839 -9342.0927 -7567.9989 299.1839 276.0868 365.4618 30593.7966 276.0868 365.4618
ENERGY: 300000 2.6070 5.3632 8.6834 0.0000 -10792.5193 1488.6642 0.0000 0.0000 1827.3902 -7459.8114 308.1718 -9287.2016 -7529.3476 301.4491 122.7586 209.0440 31145.6509 -107.7911 -35.3669
ENERGY: 600000 2.0800 5.5265 9.0070 0.0000 -10883.8698 1517.0065 0.0000 0.0000 1806.6631 -7543.5868 304.6764 -9350.2499 -7545.3896 303.5323 459.3379 532.6641 30430.5642 -57.7016 15.8032
ENERGY: 900000 1.1691 5.6247 8.7309 0.0000 -10850.6436 1459.3678 0.0000 0.0000 1800.2049 -7575.5462 303.5872 -9375.7511 -7554.8213 302.9102 21.2409 56.1194 30561.8018 141.8891 216.5570
ENERGY: 1200000 2.7858 4.3761 9.0661 0.0000 -10867.2609 1500.7227 0.0000 0.0000 1729.5625 -7620.7478 291.6741 -9350.3103 -7543.8985 302.1848 224.2578 208.3898 30755.0522 104.7097 173.0099
ENERGY: 1500000 1.4551 6.8004 9.6377 0.0000 -10775.2983 1450.0675 0.0000 0.0000 1740.1472 -7567.1905 293.4591 -9307.3376 -7550.4537 301.1293 -120.1134 -96.6368 30929.4460 109.9136 169.3645
TCL: Running FEP window  12: Lambda1 0.5499999999999999 Lambda2 0.6    [dLambda 0.050000000000000044]
TCL: Setting parameter firsttimestep to 0
TCL: Setting parameter alchLambda to 0.5499999999999999
Info: NONBONDED TABLE R-SQUARED SPACING: 0.0625
Info: NONBONDED TABLE SIZE: 705 POINTS
TCL: Setting parameter alchLambda2 to 0.6
Info: NONBONDED TABLE R-SQUARED SPACING: 0.0625
Info: NONBONDED TABLE SIZE: 705 POINTS
TCL: Running for 1500000 steps
ETITLE: TS BOND ANGLE DIHED IMPRP ELECT VDW BOUNDARY MISC KINETIC TOTAL TEMP POTENTIAL TOTALAVG TEMPAVG PRESSURE GPRESSURE VOLUME PRESSAVG GPRESSAVG
ENERGY: 0 1.4551 6.8004 9.6377 0.0000 -10775.4747 1450.4367 0.0000 0.0000 1739.2073 -7567.9375 293.3006 -9307.1448 -7567.9375 293.3006 -167.1361 -89.4996 30929.4460 -167.1361 -89.4996
ENERGY: 300000 1.5230 7.0309 8.8792 0.0000 -10924.5113 1559.4227 0.0000 0.0000 1736.6921 -7610.9634 292.8764 -9347.6555 -7533.2463 295.9675 939.7211 949.9874 30209.3043 70.6746 115.0636
ENERGY: 600000 1.1301 5.1700 9.4396 0.0000 -10825.5049 1477.2503 0.0000 0.0000 1775.8697 -7556.6452 299.4833 -9332.5149 -7551.5791 297.4362 -59.5964 27.8202 31223.4470 263.4776 330.9487
ENERGY: 900000 2.5668 5.3652 9.1391 0.0000 -10797.1539 1406.2403 0.0000 0.0000 1757.9243 -7615.9181 296.4570 -9373.8424 -7549.6125 298.4503 -818.4117 -743.8064 30819.8581 107.3984 177.0479
ENERGY: 1200000 0.7395 10.2401 8.6708 0.0000 -10859.1405 1485.3680 0.0000 0.0000 1752.9454 -7601.1766 295.6174 -9354.1221 -7550.4086 298.7196 135.2323 114.1004 30763.2207 12.0484 72.9614
ENERGY: 1500000 0.2546 3.9604 9.5346 0.0000 -10792.2883 1439.4837 0.0000 0.0000 1826.8700 -7512.1851 308.0841 -9339.0551 -7546.6685 299.3237 -180.5128 -92.3122 30934.9246 -46.2224 20.8457
TCL: Running FEP window  13: Lambda1 0.6    Lambda2 0.65   [dLambda 0.050000000000000044]
TCL: Setting parameter firsttimestep to 0
TCL: Setting parameter alchLambda to 0.6
Info: NONBONDED TABLE R-SQUARED SPACING: 0.0625
Info: NONBONDED TABLE SIZE: 705 POINTS
TCL: Setting parameter alchLambda2 to 0.65
Info: NONBONDED TABLE R-SQUARED SPACING: 0.0625
Info: NONBONDED TABLE SIZE: 705 POINTS
TCL: Running for 1500000 steps
ETITLE: TS BOND ANGLE DIHED IMPRP ELECT VDW BOUNDARY MISC KINETIC TOTAL TEMP POTENTIAL TOTALAVG TEMPAVG PRESSURE GPRESSURE VOLUME PRESSAVG GPRESSAVG
ENERGY: 0 0.2546 3.9604 9.5346 0.0000 -10792.9183 1439.1568 0.0000 0.0000 1825.9711 -7514.0408 307.9325 -9340.0119 -7514.0408 307.9325 -188.5092 -91.3968 30934.9246 -188.5092 -91.3968
ENERGY: 300000 1.3392 3.4067 8.9609 0.0000 -10746.6091 1460.8890 0.0000 0.0000 1766.2127 -7505.8006 297.8548 -9272.0133 -7524.5574 304.3674 127.5622 189.8271 30889.5417 82.5963 136.2125
ENERGY: 600000 0.7354 5.6862 8.6339 0.0000 -10815.3369 1425.6621 0.0000 0.0000 1746.5088 -7628.1105 294.5319 -9374.6193 -7569.5487 299.7592 -185.5188 -111.7750 30204.2609 -17.9099 39.4823
ENERGY: 900000 2.0463 6.6279 8.8375 0.0000 -10921.4087 1465.1989 0.0000 0.0000 1767.4052 -7671.2929 298.0559 -9438.6981 -7564.1771 299.9655 -181.8398 -52.9863 30319.7233 -67.7038 -12.9554
ENERGY: 1200000 3.5052 8.1192 8.5214 0.0000 -10851.7680 1488.7509 0.0000 0.0000 1793.2406 -7549.6306 302.4128 -9342.8713 -7571.4824 299.3815 572.7626 667.1588 30159.8906 42.7066 109.5279
ENERGY: 1500000 1.5290 6.6622 9.0525 0.0000 -10843.0027 1423.5194 0.0000 0.0000 1770.1889 -7632.0506 298.5253 -9402.2396 -7572.0515 299.1905 -437.5964 -365.3391 30590.8310 -33.0395 32.3870
TCL: Running FEP window  14: Lambda1 0.65   Lambda2 0.7000000000000001 [dLambda 0.050000000000000044]
TCL: Setting parameter firsttimestep to 0
TCL: Setting parameter alchLambda to 0.65
Info: NONBONDED TABLE R-SQUARED SPACING: 0.0625
Info: NONBONDED TABLE SIZE: 705 POINTS
TCL: Setting parameter alchLambda2 to 0.7000000000000001
Info: NONBONDED TABLE R-SQUARED SPACING: 0.0625
Info: NONBONDED TABLE SIZE: 705 POINTS
TCL: Running for 1500000 steps
ETITLE: TS BOND ANGLE DIHED IMPRP ELECT VDW BOUNDARY MISC KINETIC TOTAL TEMP POTENTIAL TOTALAVG TEMPAVG PRESSURE GPRESSURE VOLUME PRESSAVG GPRESSAVG
ENERGY: 0 1.5290 6.6622 9.0525 0.0000 -10843.1125 1424.1107 0.0000 0.0000 1769.2928 -7632.4653 298.3742 -9401.7581 -7632.4653 298.3742 -435.3595 -352.1407 30590.8310 -435.3595 -352.1407
ENERGY: 300000 4.3280 6.3890 9.0050 0.0000 -10821.1890 1463.8898 0.0000 0.0000 1776.9726 -7560.6046 299.6693 -9337.5772 -7533.0888 302.1477 221.7816 294.2083 30553.8320 -10.3856 54.2927
ENERGY: 600000 1.1578 9.9890 8.4966 0.0000 -10809.9064 1414.1872 0.0000 0.0000 1761.9360 -7614.1398 297.1336 -9376.0758 -7558.6689 300.8217 -496.4704 -406.3416 30838.1142 -109.5378 -45.7719
ENERGY: 900000 1.9082 4.8429 9.1619 0.0000 -10871.2260 1427.0076 0.0000 0.0000 1750.0791 -7678.2265 295.1340 -9428.3056 -7564.4575 298.7780 -483.2815 -376.7182 30770.7421 -127.9850 -62.4122
ENERGY: 1200000 3.2463 7.0748 8.6438 0.0000 -10842.2967 1463.7893 0.0000 0.0000 1824.1300 -7535.4125 307.6220 -9359.5425 -7556.6380 299.4478 -71.6869 -56.0494 30980.9693 -170.7401 -109.1882
ENERGY: 1500000 1.5758 7.9821 9.3535 0.0000 -10975.6174 1586.4931 0.0000 0.0000 1804.1044 -7566.1084 304.2448 -9370.2128 -7557.1041 300.5566 899.3374 888.3092 30366.4085 -70.6070 -9.3700
TCL: Running FEP window  15: Lambda1 0.7000000000000001 Lambda2 0.7500000000000001 [dLambda 0.050000000000000044]
TCL: Setting parameter firsttimestep to 0
TCL: Setting parameter alchLambda to 0.7000000000000001
Info: NONBONDED TABLE R-SQUARED SPACING: 0.0625
Info: NONBONDED TABLE SIZE: 705 POINTS
TCL: Setting parameter alchLambda2 to 0.7500000000000001
Info: NONBONDED TABLE R-SQUARED SPACING: 0.0625
Info: NONBONDED TABLE SIZE: 705 POINTS
TCL: Running for 1500000 steps
ETITLE: TS BOND ANGLE DIHED IMPRP ELECT VDW BOUNDARY MISC KINETIC TOTAL TEMP POTENTIAL TOTALAVG TEMPAVG PRESSURE GPRESSURE VOLUME PRESSAVG GPRESSAVG
ENERGY: 0 1.5758 7.9821 9.3535 0.0000 -10977.2898 1587.2762 0.0000 0.0000 1803.2032 -7567.8988 304.0929 -9371.1021 -7567.8988 304.0929 816.9887 899.0726 30366.4085 816.9887 899.0726
ENERGY: 300000 0.9061 7.6022 9.0431 0.0000 -10896.4165 1524.6179 0.0000 0.0000 1724.3315 -7629.9157 290.7919 -9354.2472 -7556.8337 301.7364 376.1775 487.4611 30618.0948 184.2982 255.7305
ENERGY: 600000 2.3301 7.4606 8.5181 0.0000 -10788.2886 1442.4928 0.0000 0.0000 1741.6309 -7585.8561 293.7093 -9327.4870 -7564.6003 300.5667 -55.1994 -40.6292 31010.0404 -59.7436 -6.7624
ENERGY: 900000 2.2456 7.2311 8.8479 0.0000 -10774.6785 1396.0637 0.0000 0.0000 1712.7414 -7647.5487 288.8374 -9360.2901 -7574.2552 298.3347 -824.2641 -772.5117 31262.3958 -95.6212 -38.0490
ENERGY: 1200000 4.2105 6.9823 9.0216 0.0000 -10842.4903 1564.3001 0.0000 0.0000 1811.4066 -7446.5691 305.4763 -9257.9757 -7552.7836 299.5762 774.2000 889.6444 31025.3980 -73.8348 -15.3212
ENERGY: 1500000 0.9237 5.6636 8.6438 0.0000 -10757.0312 1422.2316 0.0000 0.0000 1745.1524 -7574.4161 294.3032 -9319.5685 -7557.0130 299.0227 -409.3839 -374.1138 31078.8300 -127.0217 -71.5006
TCL: Running FEP window  16: Lambda1 0.7500000000000001 Lambda2 0.8000000000000002 [dLambda 0.050000000000000044]
TCL: Setting parameter firsttimestep to 0
TCL: Setting parameter alchLambda to 0.7500000000000001
Info: NONBONDED TABLE R-SQUARED SPACING: 0.0625
Info: NONBONDED TABLE SIZE: 705 POINTS
TCL: Setting parameter alchLambda2 to 0.8000000000000002
Info: NONBONDED TABLE R-SQUARED SPACING: 0.0625
Info: NONBONDED TABLE SIZE: 705 POINTS
TCL: Running for 1500000 steps
ETITLE: TS BOND ANGLE DIHED IMPRP ELECT VDW BOUNDARY MISC KINETIC TOTAL TEMP POTENTIAL TOTALAVG TEMPAVG PRESSURE GPRESSURE VOLUME PRESSAVG GPRESSAVG
ENERGY: 0 0.9237 5.6636 8.6438 0.0000 -10757.5732 1421.7341 0.0000 0.0000 1744.2790 -7576.3291 294.1559 -9320.6081 -7576.3291 294.1559 -464.5563 -374.1010 31078.8300 -464.5563 -374.1010
ENERGY: 300000 1.7661 5.5386 8.7905 0.0000 -10732.2224 1410.6681 0.0000 0.0000 1768.8815 -7536.5776 298.3048 -9305.4591 -7584.8562 298.3553 -271.0630 -291.0993 30793.5469 339.3037 371.2671
ENERGY: 600000 0.4523 9.8770 8.7185 0.0000 -10721.5772 1399.0821 0.0000 0.0000 1813.0257 -7490.4216 305.7493 -9303.4473 -7564.3912 298.3624 -231.4035 -163.2197 30874.4970 252.7680 304.1426
ENERGY: 900000 0.2458 8.1390 8.9577 0.0000 -10770.5613 1411.4358 0.0000 0.0000 1781.7080 -7560.0749 300.4679 -9341.7830 -7550.8989 299.9510 -325.4783 -300.0640 30702.6032 130.4091 177.3572
ENERGY: 1200000 0.9803 4.2490 8.9540 0.0000 -10897.6242 1566.8480 0.0000 0.0000 1754.6172 -7561.9757 295.8993 -9316.5929 -7545.1869 300.2180 751.1041 843.0920 30832.0524 197.3992 243.2529
ENERGY: 1500000 1.9075 7.3847 8.6605 0.0000 -10860.9644 1485.9533 0.0000 0.0000 1810.6525 -7546.4059 305.3491 -9357.0584 -7550.2491 300.3106 428.4935 475.7485 30164.4184 164.6075 214.0974
TCL: Running FEP window  17: Lambda1 0.8000000000000002 Lambda2 0.8500000000000002 [dLambda 0.050000000000000044]
TCL: Setting parameter firsttimestep to 0
TCL: Setting parameter alchLambda to 0.8000000000000002
Info: NONBONDED TABLE R-SQUARED SPACING: 0.0625
Info: NONBONDED TABLE SIZE: 705 POINTS
TCL: Setting parameter alchLambda2 to 0.8500000000000002
Info: NONBONDED TABLE R-SQUARED SPACING: 0.0625
Info: NONBONDED TABLE SIZE: 705 POINTS
TCL: Running for 1500000 steps
ETITLE: TS BOND ANGLE DIHED IMPRP ELECT VDW BOUNDARY MISC KINETIC TOTAL TEMP POTENTIAL TOTALAVG TEMPAVG PRESSURE GPRESSURE VOLUME PRESSAVG GPRESSAVG
ENERGY: 0 1.9075 7.3847 8.6605 0.0000 -10861.8125 1485.5623 0.0000 0.0000 1809.7646 -7548.5330 305.1994 -9358.2976 -7548.5330 305.1994 382.2043 479.7681 30164.4184 382.2043 479.7681
ENERGY: 300000 0.5193 8.6330 8.9724 0.0000 -10939.2920 1476.8948 0.0000 0.0000 1823.3792 -7620.8932 307.4954 -9444.2724 -7568.9933 302.5239 -261.8553 -178.6519 30768.7453 -9.7022 72.8295
ENERGY: 600000 2.9160 5.3474 9.0215 0.0000 -10854.2753 1450.6179 0.0000 0.0000 1739.6988 -7646.6737 293.3835 -9386.3725 -7562.7154 300.1686 -11.6855 54.8906 30382.3392 -90.6123 -7.5293
ENERGY: 900000 0.6611 7.6608 8.6685 0.0000 -10701.4468 1361.6940 0.0000 0.0000 1802.1899 -7520.5724 303.9220 -9322.7623 -7549.5190 301.9917 -512.7173 -507.2722 30562.1796 -104.1503 -27.7221
ENERGY: 1200000 1.9837 7.0757 9.0744 0.0000 -10830.0495 1480.4351 0.0000 0.0000 1753.0968 -7578.3839 295.6429 -9331.4807 -7550.1943 301.3764 169.5379 281.2918 30646.8218 -5.0915 67.8835
ENERGY: 1500000 1.9532 7.9431 9.1318 0.0000 -10765.5404 1454.8634 0.0000 0.0000 1791.9381 -7499.7106 302.1931 -9291.6488 -7549.6223 302.0746 234.9843 285.4258 30738.3570 -53.1727 18.2727
TCL: Running FEP window  18: Lambda1 0.8500000000000002 Lambda2 0.9000000000000002 [dLambda 0.050000000000000044]
TCL: Setting parameter firsttimestep to 0
TCL: Setting parameter alchLambda to 0.8500000000000002
Info: NONBONDED TABLE R-SQUARED SPACING: 0.0625
Info: NONBONDED TABLE SIZE: 705 POINTS
TCL: Setting parameter alchLambda2 to 0.9000000000000002
Info: NONBONDED TABLE R-SQUARED SPACING: 0.0625
Info: NONBONDED TABLE SIZE: 705 POINTS
TCL: Running for 1500000 steps
ETITLE: TS BOND ANGLE DIHED IMPRP ELECT VDW BOUNDARY MISC KINETIC TOTAL TEMP POTENTIAL TOTALAVG TEMPAVG PRESSURE GPRESSURE VOLUME PRESSAVG GPRESSAVG
ENERGY: 0 1.9532 7.9431 9.1318 0.0000 -10766.3650 1455.0800 0.0000 0.0000 1791.0451 -7501.2117 302.0425 -9292.2568 -7501.2117 302.0425 235.4680 293.5656 30738.3570 235.4680 293.5656
ENERGY: 300000 1.3069 4.6604 9.1055 0.0000 -10836.0087 1504.1624 0.0000 0.0000 1818.9556 -7497.8179 306.7494 -9316.7734 -7531.5574 301.6673 742.7848 793.4397 30384.3291 337.4567 405.9879
ENERGY: 600000 1.7108 5.1947 8.6393 0.0000 -10831.4356 1474.4046 0.0000 0.0000 1752.6540 -7588.8322 295.5682 -9341.4861 -7554.5794 300.6385 65.0457 154.0263 30820.7036 127.4211 196.1844
ENERGY: 900000 2.1968 5.6823 9.1696 0.0000 -10874.7391 1459.8304 0.0000 0.0000 1777.3004 -7620.5595 299.7246 -9397.8599 -7554.2589 300.0688 -251.0584 -78.0349 30585.6443 75.1030 143.5345
ENERGY: 1200000 1.3424 8.6269 8.5824 0.0000 -10691.7010 1362.9969 0.0000 0.0000 1745.0207 -7565.1317 294.2809 -9310.1523 -7542.8288 300.5141 -536.8833 -461.9978 30587.9585 -59.6109 2.6346
ENERGY: 1500000 2.3099 4.2868 8.6815 0.0000 -10859.9407 1449.1895 0.0000 0.0000 1810.7343 -7584.7386 305.3629 -9395.4729 -7549.5674 300.3396 -95.8187 -25.8697 30457.8772 -37.5385 22.2253
TCL: Running FEP window  19: Lambda1 0.9000000000000002 Lambda2 0.9500000000000003 [dLambda 0.050000000000000044]
TCL: Setting parameter firsttimestep to 0
TCL: Setting parameter alchLambda to 0.9000000000000002
Info: NONBONDED TABLE R-SQUARED SPACING: 0.0625
Info: NONBONDED TABLE SIZE: 705 POINTS
TCL: Setting parameter alchLambda2 to 0.9500000000000003
Info: NONBONDED TABLE R-SQUARED SPACING: 0.0625
Info: NONBONDED TABLE SIZE: 705 POINTS
TCL: Running for 1500000 steps
ETITLE: TS BOND ANGLE DIHED IMPRP ELECT VDW BOUNDARY MISC KINETIC TOTAL TEMP POTENTIAL TOTALAVG TEMPAVG PRESSURE GPRESSURE VOLUME PRESSAVG GPRESSAVG
ENERGY: 0 2.3099 4.2868 8.6815 0.0000 -10860.9182 1449.6117 0.0000 0.0000 1809.8883 -7586.1399 305.2203 -9396.0283 -7586.1399 305.2203 -100.8399 -12.7308 30457.8772 -100.8399 -12.7308
ENERGY: 300000 3.6751 5.6633 8.8861 0.0000 -10657.5697 1371.4678 0.0000 0.0000 1826.3243 -7441.5530 307.9920 -9267.8773 -7524.2614 303.4089 -425.5786 -395.8420 30974.9233 -214.4942 -211.1740
ENERGY: 600000 1.9738 8.6310 8.8208 0.0000 -10662.1425 1337.1078 0.0000 0.0000 1733.8535 -7571.7556 292.3977 -9305.6091 -7539.8230 300.8189 -1159.0089 -1046.2443 31335.3090 -308.9285 -271.2150
ENERGY: 900000 1.8724 8.0503 8.5713 0.0000 -10794.8770 1436.0733 0.0000 0.0000 1779.8853 -7560.4245 300.1605 -9340.3098 -7543.6933 300.3971 -326.9480 -246.4291 31146.4940 -182.0419 -134.0749
ENERGY: 1200000 0.9961 8.8089 9.4488 0.0000 -10795.5300 1414.0563 0.0000 0.0000 1773.5639 -7588.6558 299.0945 -9362.2198 -7553.7378 300.0290 -231.8394 -262.0090 30678.9697 -235.8712 -187.0298
ENERGY: 1500000 1.5872 4.1351 8.7268 0.0000 -10640.0308 1324.0925 0.0000 0.0000 1806.7281 -7494.7610 304.6873 -9301.4891 -7551.5656 299.9340 -1091.6138 -997.5491 31179.1259 -226.4525 -177.3870
TCL: Running FEP window  20: Lambda1 0.9500000000000003 Lambda2 1.0    [dLambda 0.04999999999999971]
TCL: Setting parameter firsttimestep to 0
TCL: Setting parameter alchLambda to 0.9500000000000003
Info: NONBONDED TABLE R-SQUARED SPACING: 0.0625
Info: NONBONDED TABLE SIZE: 705 POINTS
TCL: Setting parameter alchLambda2 to 1.0
Info: NONBONDED TABLE R-SQUARED SPACING: 0.0625
Info: NONBONDED TABLE SIZE: 705 POINTS
TCL: Running for 1500000 steps
ETITLE: TS BOND ANGLE DIHED IMPRP ELECT VDW BOUNDARY MISC KINETIC TOTAL TEMP POTENTIAL TOTALAVG TEMPAVG PRESSURE GPRESSURE VOLUME PRESSAVG GPRESSAVG
ENERGY: 0 1.5872 4.1351 8.7268 0.0000 -10641.1409 1324.2064 0.0000 0.0000 1805.8556 -7496.6297 304.5402 -9302.4853 -7496.6297 304.5402 -1081.5390 -988.5099 31179.1259 -1081.5390 -988.5099
ENERGY: 300000 1.4717 4.6707 9.1232 0.0000 -10797.7650 1415.8813 0.0000 0.0000 1788.4731 -7578.1449 301.6088 -9366.6180 -7551.2320 301.4897 -385.3896 -328.0737 30632.4460 -481.6366 -409.2206
ENERGY: 600000 1.2785 13.0512 8.8275 0.0000 -10721.2903 1354.7868 0.0000 0.0000 1786.0058 -7557.3405 301.1927 -9343.3462 -7568.2734 301.8532 -638.8208 -609.4720 30641.7370 -329.9833 -271.3682
ENERGY: 900000 0.9384 5.7006 8.6480 0.0000 -10746.3971 1337.2056 0.0000 0.0000 1788.9479 -7604.9566 301.6888 -9393.9045 -7560.3227 301.2063 -1213.0889 -1136.4333 30919.7678 -281.6184 -233.5878
ENERGY: 1200000 2.1283 8.0193 9.2571 0.0000 -10699.2957 1333.8473 0.0000 0.0000 1828.9275 -7517.1162 308.4310 -9346.0438 -7570.0563 300.7230 -964.9772 -951.2721 31094.3895 -274.0525 -231.6810
ENERGY: 1500000 1.4771 9.5212 9.0567 0.0000 -10916.8154 1500.0474 0.0000 0.0000 1787.6210 -7609.0921 301.4651 -9396.7131 -7560.7588 300.6709 231.2190 264.4627 30814.1912 -226.7114 -183.6870
TCL: Exiting due to exit command.
