Info: SIMULATION PARAMETERS:
Info: TIMESTEP               2
Info: NUMBER OF STEPS        0
Info: STEPS PER CYCLE        10
Info: PERIODIC CELL BASIS 1  31.3962 0 0
Info: PERIODIC CELL BASIS 2  0 29.9703 0
Info: PERIODIC CELL BASIS 3  0 0 31.6665
Info: PERIODIC CELL CENTER   0 0 0
Info: WRAPPING WATERS AROUND PERIODIC BOUNDARIES ON OUTPUT.
Info: WRAPPING ALL CLUSTERS AROUND PERIODIC BOUNDARIES ON OUTPUT.
Info: FIRST LDB TIMESTEP     50
Info: LAST LDB TIMESTEP     -1
Info: HOM BACKGROUND SCALING 1
Info: PME BACKGROUND SCALING 1
Info: MIN ATOMS PER PATCH    40
Info: EMPTY PATCH LOAD       40 ATOMS
Info: VELOCITY FILE          mobley_8705848_equil.vel
Info: CENTER OF MASS MOVING INITIALLY? NO
Info: DIELECTRIC             1
Info: EXCLUDE                SCALED ONE-FOUR
Info: 1-4 ELECTROSTATICS SCALED BY 0.833333
Info: MODIFIED 1-4 VDW PARAMETERS WILL BE USED
Info: DCD FILENAME           mobley_8705848_prod.dcd
Info: DCD FREQUENCY          100000
Info: DCD FIRST STEP         100000
Info: DCD FILE WILL CONTAIN UNIT CELL DATA
Info: XST FILENAME           mobley_8705848_prod.xst
Info: XST FREQUENCY          100000
Info: NO VELOCITY DCD OUTPUT
Info: NO FORCE DCD OUTPUT
Info: OUTPUT FILENAME        mobley_8705848_prod
Info: BINARY OUTPUT FILES WILL BE USED
Info: RESTART FILENAME       mobley_8705848_prod.restart
Info: RESTART FREQUENCY      100000
Info: BINARY RESTART FILES WILL BE USED
Info: CUTOFF                 9
Info: PAIRLIST DISTANCE      11
Info: PAIRLIST SHRINK RATE   0.01
Info: PAIRLIST GROW RATE     0.01
Info: PAIRLIST TRIGGER       0.3
Info: PAIRLISTS PER CYCLE    2
Info: PAIRLISTS ENABLED
Info: MARGIN                 2
Info: HYDROGEN GROUP CUTOFF  2.5
Info: PATCH DIMENSION        15.5
Info: ENERGY OUTPUT STEPS    100000
Info: ENERGY EVALUATION STEPS    100000
Info: OUTPUT ENERGY PRECISION 4
Info: CROSSTERM ENERGY INCLUDED IN DIHEDRAL
Info: TIMING OUTPUT STEPS    1000000
Info: PRESSURE OUTPUT STEPS  100000
Info: ALCHEMICAL FEP ON
Info: FEP CURRENT LAMBDA VALUE     0
Info: FEP COMPARISON LAMBDA VALUE  0.05
Info: FEP INTRA-ALCHEMICAL NON-BONDED INTERACTIONS WILL BE RETAINED
Info: FEP INTRA-ALCHEMICAL BONDED INTERACTIONS WILL BE RETAINED
Info: FEP VDW SHIFTING COEFFICIENT 5
Info: FEP ELEC. ACTIVE FOR ANNIHILATED PARTICLES BETWEEN LAMBDA = 0 AND LAMBDA = 0.5
Info: FEP ELEC. ACTIVE FOR EXNIHILATED PARTICLES BETWEEN LAMBDA = 0.5 AND LAMBDA = 1
Info: FEP VDW ACTIVE FOR ANNIHILATED PARTICLES BETWEEN LAMBDA = 0 AND LAMBDA = 1
Info: FEP VDW ACTIVE FOR EXNIHILATED PARTICLES BETWEEN LAMBDA = 0 AND LAMBDA = 1
Info: FEP BOND ACTIVE FOR ANNIHILATED PARTICLES BETWEEN LAMBDA = 1 AND LAMBDA = 1
Info: FEP BOND ACTIVE FOR EXNIHILATED PARTICLES BETWEEN LAMBDA = 0 AND LAMBDA = 0
Info: LANGEVIN DYNAMICS ACTIVE
Info: LANGEVIN TEMPERATURE   300
Info: LANGEVIN USING BBK INTEGRATOR
Info: LANGEVIN DAMPING COEFFICIENT IS 1 INVERSE PS
Info: LANGEVIN DYNAMICS APPLIED TO HYDROGENS
Info: LANGEVIN PISTON PRESSURE CONTROL ACTIVE
Info:        TARGET PRESSURE IS 1.01325 BAR
Info:     OSCILLATION PERIOD IS 50 FS
Info:             DECAY TIME IS 25 FS
Info:     PISTON TEMPERATURE IS 300 K
Info:       PRESSURE CONTROL IS GROUP-BASED
Info:    INITIAL STRAIN RATE IS -0.000142178 -0.000142178 -0.000142178
Info:       CELL FLUCTUATION IS ISOTROPIC
Info: PARTICLE MESH EWALD (PME) ACTIVE
Info: PME TOLERANCE               1e-06
Info: PME EWALD COEFFICIENT       0.348832
Info: PME INTERPOLATION ORDER     4
Info: PME GRID DIMENSIONS         32 32 32
Info: PME MAXIMUM GRID SPACING    1
Info: PME CALCULATION WILL BE PERFORMED ON GPU
Info: FULL ELECTROSTATIC EVALUATION FREQUENCY      2
Info: USING VERLET I (r-RESPA) MTS SCHEME.
Info: C1 SPLITTING OF LONG RANGE ELECTROSTATICS
Info: PLACING ATOMS IN PATCHES BY HYDROGEN GROUPS
Info: RIGID BONDS TO HYDROGEN : ALL
Info:         ERROR TOLERANCE : 1e-08
Info:          MAX ITERATIONS : 100
Info: RIGID WATER USING SETTLE ALGORITHM
Info: RANDOM NUMBER SEED     1743883360
Info: USE HYDROGEN BONDS?    NO
Info: Using AMBER format force field!
Info: AMBER PARM FILE        mobley_8705848.prmtop
Info: COORDINATE PDB         mobley_8705848.pdb
Info: Exclusions will be read from PARM file!
Info: SCNB (VDW SCALING)     2
Info: USING ARITHMETIC MEAN TO COMBINE L-J SIGMA PARAMETERS
Info: BINARY COORDINATES     mobley_8705848_equil.coor
Info: SUMMARY OF PARAMETERS:
Info: 7 BONDS
Info: 8 ANGLES
Info:   8 HARMONIC
Info:   0 COSINE-BASED
Info: 4 DIHEDRAL
Info: 0 IMPROPER
Info: 0 CROSSTERM
Info: 0 VDW
Info: 28 VDW_PAIRS
Info: 0 NBTHOLE_PAIRS
Info: To read alchdata from file: mobley_8705848.pdb
Info: To read alchflag data from column: 5
Info: STRUCTURE SUMMARY:
Info: 2917 ATOMS
Info: 2916 BONDS
Info: 39 ANGLES
Info: 52 DIHEDRALS
Info: 0 IMPROPERS
Info: 0 CROSSTERMS
Info: 3003 EXCLUSIONS
Info: 2910 RIGID BONDS
Info: ALCH: 0 ATOMS TO DISAPPEAR IN FINAL STATE
Info: ALCH: 22 ATOMS TO APPEAR IN FINAL STATE
Info: 5841 DEGREES OF FREEDOM
Info: 972 HYDROGEN GROUPS
Info: 4 ATOMS IN LARGEST HYDROGEN GROUP
Info: 972 MIGRATION GROUPS
Info: 4 ATOMS IN LARGEST MIGRATION GROUP
Info: TOTAL MASS = 17486.6 amu
Info: TOTAL CHARGE = -0.000199944 e
Info: MASS DENSITY = 0.974536 g/cm^3
Info: ATOM DENSITY = 0.0978969 atoms/A^3
Info: ADDED 0 IMPLICIT EXCLUSIONS
Info: NONBONDED TABLE R-SQUARED SPACING: 0.0625
Info: NONBONDED TABLE SIZE: 705 POINTS
Info: REMOVING COM VELOCITY -0.0646841 -0.0128394 -0.0588088
Info: Use 3D box decompostion in PME FFT.
Info: Updated CUDA force table with 4096 elements.
Info: Updated CUDA LJ table with 7 x 7 elements.
Info: Found 25 unique exclusion lists needing 72 bytes
TCL: Running for 1500000 steps
ETITLE: TS BOND ANGLE DIHED IMPRP ELECT VDW BOUNDARY MISC KINETIC TOTAL TEMP POTENTIAL TOTALAVG TEMPAVG PRESSURE GPRESSURE VOLUME PRESSAVG GPRESSAVG
ENERGY: 0 1.1328 10.6509 2.8498 0.0000 -10626.8136 1485.5266 0.0000 0.0000 1748.2372 -7378.4164 301.2337 -9126.6535 -7378.4164 301.2337 598.1958 691.1596 29796.6598 598.1958 691.1596
ENERGY: 300000 3.0803 11.4766 4.6508 0.0000 -10410.2425 1339.8441 0.0000 0.0000 1722.9110 -7328.2798 296.8698 -9051.1908 -7393.7517 297.9851 -599.4278 -477.5754 30190.7400 -57.9013 21.1641
ENERGY: 600000 0.6245 11.4739 3.4786 0.0000 -10323.3130 1311.7448 0.0000 0.0000 1717.6187 -7278.3725 295.9579 -8995.9912 -7376.2713 298.8462 -807.3311 -753.5454 30597.1474 -254.0954 -186.9826
ENERGY: 900000 4.7299 10.8614 3.6119 0.0000 -10527.2975 1337.0882 0.0000 0.0000 1761.0819 -7409.9242 303.4469 -9171.0061 -7385.5096 298.7372 -892.7296 -833.8858 29833.6154 -279.6539 -220.2914
ENERGY: 1200000 2.5606 10.8780 6.4714 0.0000 -10366.7187 1243.8626 0.0000 0.0000 1706.6050 -7396.3413 294.0602 -9102.9462 -7386.0050 298.1848 -1477.3778 -1396.2337 30123.4255 -363.2274 -298.9473
ENERGY: 1500000 1.3528 9.9221 3.0892 0.0000 -10622.7145 1442.0617 0.0000 0.0000 1768.5480 -7397.7407 304.7334 -9166.2887 -7386.3956 299.0893 -7.9364 70.4374 29973.3767 -274.7547 -213.2302
TCL: Running FEP window   2: Lambda1 0.05   Lambda2 0.1    [dLambda 0.05  ]
TCL: Setting parameter firsttimestep to 0
TCL: Setting parameter alchLambda to 0.05
Info: NONBONDED TABLE R-SQUARED SPACING: 0.0625
Info: NONBONDED TABLE SIZE: 705 POINTS
TCL: Setting parameter alchLambda2 to 0.1
Info: NONBONDED TABLE R-SQUARED SPACING: 0.0625
Info: NONBONDED TABLE SIZE: 705 POINTS
TCL: Running for 1500000 steps
ETITLE: TS BOND ANGLE DIHED IMPRP ELECT VDW BOUNDARY MISC KINETIC TOTAL TEMP POTENTIAL TOTALAVG TEMPAVG PRESSURE GPRESSURE VOLUME PRESSAVG GPRESSAVG
ENERGY: 0 1.3528 9.9221 3.0892 0.0000 -10622.7137 1443.3422 0.0000 0.0000 1767.7018 -7397.3056 304.5876 -9165.0074 -7397.3056 304.5876 7.5387 72.7171 29973.3767 7.5387 72.7171
ENERGY: 300000 3.1075 15.6011 2.7439 0.0000 -10594.7005 1383.4578 0.0000 0.0000 1713.0524 -7476.7377 295.1711 -9189.7902 -7386.1466 299.9076 -425.1057 -325.9057 29608.8132 -370.7676 -285.2903
ENERGY: 600000 0.7529 11.3706 2.0475 0.0000 -10584.0117 1456.0435 0.0000 0.0000 1739.1141 -7374.6831 299.6617 -9113.7972 -7400.6072 299.7173 605.0545 642.8587 29424.2768 -164.0698 -87.6910
ENERGY: 900000 1.7760 8.7903 3.2182 0.0000 -10610.2169 1490.4375 0.0000 0.0000 1690.0052 -7415.9897 291.1999 -9105.9949 -7405.8012 300.0507 188.5280 269.0587 30265.7868 -158.1644 -90.9108
ENERGY: 1200000 0.4783 16.5137 4.7031 0.0000 -10601.0749 1366.6577 0.0000 0.0000 1756.7648 -7455.9573 302.7031 -9212.7221 -7403.6484 300.5130 -695.1802 -624.9098 29794.7750 -285.2592 -218.5450
ENERGY: 1500000 1.1758 15.7407 6.7857 0.0000 -10472.5805 1367.5232 0.0000 0.0000 1704.3897 -7376.9654 293.6784 -9081.3551 -7400.5497 300.2168 -374.5199 -320.3040 29886.6577 -263.5828 -206.4792
TCL: Running FEP window   3: Lambda1 0.1    Lambda2 0.15000000000000002 [dLambda 0.05000000000000002]
TCL: Setting parameter firsttimestep to 0
TCL: Setting parameter alchLambda to 0.1
Info: NONBONDED TABLE R-SQUARED SPACING: 0.0625
Info: NONBONDED TABLE SIZE: 705 POINTS
TCL: Setting parameter alchLambda2 to 0.15000000000000002
Info: NONBONDED TABLE R-SQUARED SPACING: 0.0625
Info: NONBONDED TABLE SIZE: 705 POINTS
TCL: Running for 1500000 steps
ETITLE: TS BOND ANGLE DIHED IMPRP ELECT VDW BOUNDARY MISC KINETIC TOTAL TEMP POTENTIAL TOTALAVG TEMPAVG PRESSURE GPRESSURE VOLUME PRESSAVG GPRESSAVG
ENERGY: 0 1.1758 15.7407 6.7857 0.0000 -10472.5807 1368.5171 0.0000 0.0000 1703.5312 -7376.8302 293.5305 -9080.3614 -7376.8302 293.5305 -385.4664 -314.0906 29886.6577 -385.4664 -314.0906
ENERGY: 300000 3.2592 8.6549 3.2518 0.0000 -10545.1009 1423.2324 0.0000 0.0000 1739.9022 -7366.8004 299.7975 -9106.7026 -7390.3193 298.9793 -145.8225 -101.2954 30189.6689 -211.1662 -164.1948
ENERGY: 600000 1.0505 11.8479 5.5860 0.0000 -10546.9953 1432.5276 0.0000 0.0000 1779.1492 -7316.8341 306.5600 -9095.9833 -7375.8091 302.0168 -184.7559 -58.8142 30370.7717 -104.5553 -30.5789
ENERGY: 900000 3.0360 12.8535 2.7847 0.0000 -10368.5793 1336.5597 0.0000 0.0000 1762.5730 -7250.7723 303.7039 -9013.3453 -7357.4603 301.5964 -749.9257 -674.1558 30284.3881 -105.9406 -37.2501
ENERGY: 1200000 2.9259 11.3310 3.2651 0.0000 -10669.3794 1463.0252 0.0000 0.0000 1735.8124 -7453.0198 299.0928 -9188.8322 -7373.4730 301.6248 161.5962 209.5421 29517.5632 -74.7590 0.3816
ENERGY: 1500000 1.3343 13.8542 3.0495 0.0000 -10551.5241 1437.4450 0.0000 0.0000 1751.7356 -7344.1055 301.8365 -9095.8411 -7379.6806 301.1532 203.6663 285.5909 30114.3427 21.9488 95.1969
TCL: Running FEP window   4: Lambda1 0.15000000000000002 Lambda2 0.2    [dLambda 0.04999999999999999]
TCL: Setting parameter firsttimestep to 0
TCL: Setting parameter alchLambda to 0.15000000000000002
Info: NONBONDED TABLE R-SQUARED SPACING: 0.0625
Info: NONBONDED TABLE SIZE: 705 POINTS
TCL: Setting parameter alchLambda2 to 0.2
Info: NONBONDED TABLE R-SQUARED SPACING: 0.0625
Info: NONBONDED TABLE SIZE: 705 POINTS
TCL: Running for 1500000 steps
ETITLE: TS BOND ANGLE DIHED IMPRP ELECT VDW BOUNDARY MISC KINETIC TOTAL TEMP POTENTIAL TOTALAVG TEMPAVG PRESSURE GPRESSURE VOLUME PRESSAVG GPRESSAVG
ENERGY: 0 1.3343 13.8542 3.0495 0.0000 -10551.5236 1437.4350 0.0000 0.0000 1750.8567 -7344.9938 301.6850 -9095.8505 -7344.9938 301.6850 213.7251 286.5329 30114.3427 213.7251 286.5329
ENERGY: 300000 1.8237 9.4802 3.3403 0.0000 -10595.9350 1415.6065 0.0000 0.0000 1771.4096 -7394.2746 305.2265 -9165.6842 -7391.2780 302.2939 -140.9669 -118.1627 30133.4450 91.4854 126.1170
ENERGY: 600000 5.3826 11.2078 2.8115 0.0000 -10457.7852 1356.0820 0.0000 0.0000 1679.5273 -7402.7739 289.3945 -9082.3013 -7406.9194 298.3648 -590.3124 -494.7039 30059.6155 -95.9355 -28.0301
ENERGY: 900000 1.3686 10.8777 2.4250 0.0000 -10495.1388 1436.2442 0.0000 0.0000 1758.2112 -7286.0121 302.9523 -9044.2233 -7392.9293 298.9307 295.8780 350.3801 29827.5726 31.1061 95.0009
ENERGY: 1200000 0.5901 16.5835 6.6369 0.0000 -10581.2965 1391.4342 0.0000 0.0000 1720.3734 -7445.6784 296.4326 -9166.0518 -7388.4472 299.1098 -287.5511 -200.5141 29554.1843 -111.9612 -36.6320
ENERGY: 1500000 2.2383 11.9423 2.7239 0.0000 -10573.9169 1412.3142 0.0000 0.0000 1698.7557 -7445.9426 292.7077 -9144.6983 -7388.3361 299.5140 -217.4540 -224.3604 30244.6238 -167.8650 -97.1081
TCL: Running FEP window   5: Lambda1 0.2    Lambda2 0.25   [dLambda 0.04999999999999999]
TCL: Setting parameter firsttimestep to 0
TCL: Setting parameter alchLambda to 0.2
Info: NONBONDED TABLE R-SQUARED SPACING: 0.0625
Info: NONBONDED TABLE SIZE: 705 POINTS
TCL: Setting parameter alchLambda2 to 0.25
Info: NONBONDED TABLE R-SQUARED SPACING: 0.0625
Info: NONBONDED TABLE SIZE: 705 POINTS
TCL: Running for 1500000 steps
ETITLE: TS BOND ANGLE DIHED IMPRP ELECT VDW BOUNDARY MISC KINETIC TOTAL TEMP POTENTIAL TOTALAVG TEMPAVG PRESSURE GPRESSURE VOLUME PRESSAVG GPRESSAVG
ENERGY: 0 2.2383 11.9423 2.7239 0.0000 -10573.9149 1413.6248 0.0000 0.0000 1697.8934 -7445.4922 292.5591 -9143.3856 -7445.4922 292.5591 -291.8467 -214.9243 30244.6238 -291.8467 -214.9243
ENERGY: 300000 1.4504 12.9572 3.1213 0.0000 -10540.2849 1442.5718 0.0000 0.0000 1709.2213 -7370.9629 294.5110 -9080.1842 -7410.6450 298.0999 299.8463 368.8138 30086.4741 59.2799 123.6686
ENERGY: 600000 1.6698 13.9211 2.3474 0.0000 -10606.2874 1461.9781 0.0000 0.0000 1693.8538 -7432.5173 291.8630 -9126.3711 -7407.3950 297.0989 201.8781 283.2830 29965.4777 141.8422 196.2982
ENERGY: 900000 1.4384 9.3511 4.7584 0.0000 -10625.2453 1505.5287 0.0000 0.0000 1794.9090 -7309.2597 309.2756 -9104.1687 -7397.8658 297.9478 874.3180 947.6703 29784.6666 29.0783 80.8923
ENERGY: 1200000 1.8015 7.7646 3.2674 0.0000 -10598.5849 1434.7259 0.0000 0.0000 1694.9590 -7456.0665 292.0535 -9151.0254 -7401.8410 298.4954 -52.9575 17.1457 29784.1551 -104.6960 -43.4966
ENERGY: 1500000 0.9980 13.4786 6.2999 0.0000 -10401.5947 1339.6637 0.0000 0.0000 1814.3153 -7226.8392 312.6194 -9041.1544 -7393.0594 298.9514 -580.8684 -467.2891 30170.7177 -130.8562 -65.1922
TCL: Running FEP window   6: Lambda1 0.25   Lambda2 0.3    [dLambda 0.04999999999999999]
TCL: Setting parameter firsttimestep to 0
TCL: Setting parameter alchLambda to 0.25
Info: NONBONDED TABLE R-SQUARED SPACING: 0.0625
Info: NONBONDED TABLE SIZE: 705 POINTS
TCL: Setting parameter alchLambda2 to 0.3
Info: NONBONDED TABLE R-SQUARED SPACING: 0.0625
Info: NONBONDED TABLE SIZE: 705 POINTS
TCL: Running for 1500000 steps
ETITLE: TS BOND ANGLE DIHED IMPRP ELECT VDW BOUNDARY MISC KINETIC TOTAL TEMP POTENTIAL TOTALAVG TEMPAVG PRESSURE GPRESSURE VOLUME PRESSAVG GPRESSAVG
ENERGY: 0 0.9980 13.4786 6.2999 0.0000 -10401.5953 1340.1491 0.0000 0.0000 1813.4556 -7227.2140 312.4713 -9040.6697 -7227.2140 312.4713 -555.0677 -459.1184 30170.7177 -555.0677 -459.1184
ENERGY: 300000 1.8043 9.6239 3.0837 0.0000 -10613.3540 1396.8800 0.0000 0.0000 1743.4222 -7458.5398 300.4040 -9201.9620 -7359.9921 302.9816 -111.2236 -62.8588 29397.7921 -284.0241 -205.7274
ENERGY: 600000 2.1857 9.1531 2.7872 0.0000 -10548.6616 1396.2583 0.0000 0.0000 1730.4834 -7407.7938 298.1746 -9138.2773 -7364.6668 301.9177 -165.8350 -64.7569 29940.4481 -155.1363 -72.3192
ENERGY: 900000 0.7112 14.3499 4.4128 0.0000 -10625.0308 1419.4299 0.0000 0.0000 1737.2905 -7448.8365 299.3475 -9186.1270 -7372.0417 303.1419 -191.7875 -159.8280 30004.3560 -122.0172 -47.6981
ENERGY: 1200000 3.5223 7.4226 6.1571 0.0000 -10523.9503 1370.2793 0.0000 0.0000 1706.2168 -7430.3522 293.9933 -9136.5690 -7372.1639 302.8642 -532.4097 -452.7311 29993.8881 -194.2481 -122.4562
ENERGY: 1500000 0.6343 7.6448 4.9023 0.0000 -10635.0897 1467.1058 0.0000 0.0000 1780.9202 -7373.8822 306.8652 -9154.8025 -7380.4638 302.2775 386.4616 440.1613 29808.6730 -115.8008 -49.6020
TCL: Running FEP window   7: Lambda1 0.3    Lambda2 0.35   [dLambda 0.04999999999999999]
TCL: Setting parameter firsttimestep to 0
TCL: Setting parameter alchLambda to 0.3
Info: NONBONDED TABLE R-SQUARED SPACING: 0.0625
Info: NONBONDED TABLE SIZE: 705 POINTS
TCL: Setting parameter alchLambda2 to 0.35
Info: NONBONDED TABLE R-SQUARED SPACING: 0.0625
Info: NONBONDED TABLE SIZE: 705 POINTS
TCL: Running for 1500000 steps
ETITLE: TS BOND ANGLE DIHED IMPRP ELECT VDW BOUNDARY MISC KINETIC TOTAL TEMP POTENTIAL TOTALAVG TEMPAVG PRESSURE GPRESSURE VOLUME PRESSAVG GPRESSAVG
ENERGY: 0 0.6343 7.6448 4.9023 0.0000 -10635.0896 1468.3296 0.0000 0.0000 1780.0419 -7373.5367 306.7139 -9153.5786 -7373.5367 306.7139 372.5205 452.9525 29808.6730 372.5205 452.9525
ENERGY: 300000 1.6027 9.0600 3.2359 0.0000 -10553.6703 1409.5131 0.0000 0.0000 1730.8285 -7399.4301 298.2340 -9130.2586 -7379.2054 301.0966 -46.0132 -52.5522 29697.7039 -75.8154 -3.2888
ENERGY: 600000 0.5813 10.2215 2.3363 0.0000 -10504.1865 1299.8919 0.0000 0.0000 1742.9451 -7448.2104 300.3218 -9191.1556 -7393.9696 300.8454 -1015.6529 -1005.3964 29634.5331 -316.0616 -271.4402
ENERGY: 900000 4.5044 11.3659 3.4481 0.0000 -10715.2687 1507.7058 0.0000 0.0000 1732.6317 -7455.6129 298.5448 -9188.2447 -7406.2408 299.8436 46.4351 150.4983 30125.0055 -312.9259 -254.5085
ENERGY: 1200000 2.7835 10.1040 6.4058 0.0000 -10665.1135 1412.2949 0.0000 0.0000 1795.3743 -7438.1509 309.3558 -9233.5253 -7406.0588 301.2463 -220.0157 -188.0887 29620.1586 -325.1250 -261.7502
ENERGY: 1500000 2.1052 12.6714 2.4651 0.0000 -10507.6427 1376.0434 0.0000 0.0000 1733.9238 -7380.4339 298.7674 -9114.3576 -7399.3340 301.9326 -329.5510 -280.8211 30129.6240 -313.5676 -249.3778
TCL: Running FEP window   8: Lambda1 0.35   Lambda2 0.39999999999999997 [dLambda 0.04999999999999999]
TCL: Setting parameter firsttimestep to 0
TCL: Setting parameter alchLambda to 0.35
Info: NONBONDED TABLE R-SQUARED SPACING: 0.0625
Info: NONBONDED TABLE SIZE: 705 POINTS
TCL: Setting parameter alchLambda2 to 0.39999999999999997
Info: NONBONDED TABLE R-SQUARED SPACING: 0.0625
Info: NONBONDED TABLE SIZE: 705 POINTS
TCL: Running for 1500000 steps
ETITLE: TS BOND ANGLE DIHED IMPRP ELECT VDW BOUNDARY MISC KINETIC TOTAL TEMP POTENTIAL TOTALAVG TEMPAVG PRESSURE GPRESSURE VOLUME PRESSAVG GPRESSAVG
ENERGY: 0 2.1052 12.6714 2.4651 0.0000 -10507.6430 1378.4802 0.0000 0.0000 1733.0515 -7378.8695 298.6171 -9111.9210 -7378.8695 298.6171 -333.6369 -258.5563 30129.6240 -333.6369 -258.5563
ENERGY: 300000 2.5513 11.4413 2.0227 0.0000 -10593.6028 1347.0757 0.0000 0.0000 1693.3633 -7537.1485 291.7785 -9230.5118 -7452.7796 299.0635 -633.2946 -544.8493 29282.7939 -478.4326 -424.5563
ENERGY: 600000 1.1068 7.0542 2.6497 0.0000 -10569.1708 1398.6363 0.0000 0.0000 1758.7057 -7401.0181 303.0375 -9159.7238 -7429.5956 300.4385 -306.5163 -273.5508 30142.8230 -339.7877 -303.1046
ENERGY: 900000 0.4217 12.7176 3.8580 0.0000 -10455.3105 1350.5070 0.0000 0.0000 1746.9167 -7340.8895 301.0061 -9087.8062 -7418.5192 300.4453 -673.1275 -606.9198 30233.6764 -442.7426 -409.7972
ENERGY: 1200000 3.0483 10.7671 3.0331 0.0000 -10510.2615 1352.1001 0.0000 0.0000 1699.2988 -7442.0141 292.8012 -9141.3129 -7412.3789 298.8895 -820.6211 -758.2242 30022.6189 -458.6881 -410.1617
ENERGY: 1500000 1.0623 6.9106 2.4189 0.0000 -10541.7030 1400.3184 0.0000 0.0000 1710.8051 -7420.1877 294.7839 -9130.9928 -7411.3250 298.5587 -133.9529 3.7167 29623.9870 -410.1966 -352.3940
TCL: Running FEP window   9: Lambda1 0.39999999999999997 Lambda2 0.44999999999999996 [dLambda 0.04999999999999999]
TCL: Setting parameter firsttimestep to 0
TCL: Setting parameter alchLambda to 0.39999999999999997
Info: NONBONDED TABLE R-SQUARED SPACING: 0.0625
Info: NONBONDED TABLE SIZE: 705 POINTS
TCL: Setting parameter alchLambda2 to 0.44999999999999996
Info: NONBONDED TABLE R-SQUARED SPACING: 0.0625
Info: NONBONDED TABLE SIZE: 705 POINTS
TCL: Running for 1500000 steps
ETITLE: TS BOND ANGLE DIHED IMPRP ELECT VDW BOUNDARY MISC KINETIC TOTAL TEMP POTENTIAL TOTALAVG TEMPAVG PRESSURE GPRESSURE VOLUME PRESSAVG GPRESSAVG
ENERGY: 0 1.0623 6.9106 2.4189 0.0000 -10541.7035 1400.4598 0.0000 0.0000 1709.9512 -7420.9007 294.6367 -9130.8519 -7420.9007 294.6367 -76.7232 11.8081 29623.9870 -76.7232 11.8081
ENERGY: 300000 6.8056 13.3577 5.9996 0.0000 -10645.5270 1526.2771 0.0000 0.0000 1777.4269 -7315.6600 306.2633 -9093.0869 -7380.0770 301.6502 1027.3211 1025.8702 29853.2414 225.5076 295.3227
ENERGY: 600000 1.9985 6.3824 1.7665 0.0000 -10518.5301 1350.6180 0.0000 0.0000 1786.3552 -7371.4096 307.8017 -9157.7647 -7375.3909 303.2356 -882.3491 -759.5397 30350.5764 84.2064 155.1358
ENERGY: 900000 4.1342 9.7854 2.9392 0.0000 -10568.9265 1415.3371 0.0000 0.0000 1751.7523 -7384.9783 301.8394 -9136.7306 -7375.4021 302.6828 -73.6387 51.9382 29790.6026 53.7733 124.4524
ENERGY: 1200000 1.2007 12.4936 2.6805 0.0000 -10566.2438 1385.1706 0.0000 0.0000 1724.2121 -7440.4862 297.0940 -9164.6983 -7376.6341 302.3050 -53.0498 -17.7833 29648.7743 -12.3807 58.0057
ENERGY: 1500000 2.6995 12.8917 3.3195 0.0000 -10593.6779 1399.3088 0.0000 0.0000 1666.6858 -7508.7726 287.1818 -9175.4585 -7378.9191 301.3675 -413.5686 -343.5536 30025.7565 -54.3618 14.0559
TCL: Running FEP window  10: Lambda1 0.44999999999999996 Lambda2 0.49999999999999994 [dLambda 0.04999999999999999]
TCL: Setting parameter firsttimestep to 0
TCL: Setting parameter alchLambda to 0.44999999999999996
Info: NONBONDED TABLE R-SQUARED SPACING: 0.0625
Info: NONBONDED TABLE SIZE: 705 POINTS
TCL: Setting parameter alchLambda2 to 0.49999999999999994
Info: NONBONDED TABLE R-SQUARED SPACING: 0.0625
Info: NONBONDED TABLE SIZE: 705 POINTS
TCL: Running for 1500000 steps
ETITLE: TS BOND ANGLE DIHED IMPRP ELECT VDW BOUNDARY MISC KINETIC TOTAL TEMP POTENTIAL TOTALAVG TEMPAVG PRESSURE GPRESSURE VOLUME PRESSAVG GPRESSAVG
ENERGY: 0 2.6995 12.8917 3.3195 0.0000 -10593.6777 1399.5898 0.0000 0.0000 1665.8197 -7509.3575 287.0326 -9175.1772 -7509.3575 287.0326 -399.2165 -334.1319 30025.7565 -399.2165 -334.1319
ENERGY: 300000 1.9739 10.6981 3.1130 0.0000 -10502.6220 1363.0927 0.0000 0.0000 1791.9641 -7331.7803 308.7681 -9123.7444 -7407.6084 300.2200 -412.5458 -338.6317 29838.5628 -203.1370 -150.5928
ENERGY: 600000 1.8143 11.0769 2.7639 0.0000 -10507.4924 1342.2551 0.0000 0.0000 1753.8902 -7395.6920 302.2077 -9149.5822 -7408.3701 300.0550 -657.7812 -548.8408 29741.9735 -148.8691 -93.3348
ENERGY: 900000 2.9388 10.3650 3.7104 0.0000 -10574.7020 1419.1677 0.0000 0.0000 1773.6330 -7364.8871 305.6096 -9138.5201 -7406.6911 299.6706 124.1801 166.8137 29566.8614 2.6637 55.7016
ENERGY: 1200000 2.1246 17.8862 4.0502 0.0000 -10503.6081 1371.0853 0.0000 0.0000 1799.7829 -7308.6789 310.1154 -9108.4618 -7398.7154 299.5094 -383.4802 -361.4264 30135.9880 -48.6219 2.6109
ENERGY: 1500000 1.8324 8.8532 2.2734 0.0000 -10452.7543 1361.6167 0.0000 0.0000 1765.8689 -7312.3097 304.2718 -9078.1786 -7402.7981 299.6382 -426.0754 -334.0790 29959.0023 -55.2703 -0.0268
TCL: Running FEP window  11: Lambda1 0.49999999999999994 Lambda2 0.5499999999999999 [dLambda 0.04999999999999999]
TCL: Setting parameter firsttimestep to 0
TCL: Setting parameter alchLambda to 0.49999999999999994
Info: NONBONDED TABLE R-SQUARED SPACING: 0.0625
Info: NONBONDED TABLE SIZE: 705 POINTS
TCL: Setting parameter alchLambda2 to 0.5499999999999999
Info: NONBONDED TABLE R-SQUARED SPACING: 0.0625
Info: NONBONDED TABLE SIZE: 705 POINTS
TCL: Running for 1500000 steps
ETITLE: TS BOND ANGLE DIHED IMPRP ELECT VDW BOUNDARY MISC KINETIC TOTAL TEMP POTENTIAL TOTALAVG TEMPAVG PRESSURE GPRESSURE VOLUME PRESSAVG GPRESSAVG
ENERGY: 0 1.8324 8.8532 2.2734 0.0000 -10452.7540 1361.9122 0.0000 0.0000 1765.0049 -7312.8778 304.1229 -9077.8827 -7312.8778 304.1229 -420.4635 -329.0633 29959.0023 -420.4635 -329.0633
ENERGY: 300000 0.9785 13.8413 2.4369 0.0000 -10654.9130 1425.9400 0.0000 0.0000 1731.8269 -7479.8894 298.4061 -9211.7163 -7427.5900 298.8659 -25.7639 62.3332 29460.1902 -236.1035 -138.9866
ENERGY: 600000 2.8036 9.5633 2.9139 0.0000 -10543.6753 1425.1451 0.0000 0.0000 1699.3839 -7403.8656 292.8159 -9103.2494 -7393.4494 300.0544 53.2546 132.3793 30290.5619 -254.3576 -172.3951
ENERGY: 900000 1.7154 12.6060 3.4664 0.0000 -10709.0346 1465.9456 0.0000 0.0000 1736.2719 -7489.0292 299.1720 -9225.3011 -7414.5105 299.3364 191.7594 245.0691 29594.7662 -312.3357 -235.9214
ENERGY: 1200000 1.0764 13.0300 2.6666 0.0000 -10558.4878 1415.2743 0.0000 0.0000 1715.7232 -7410.7173 295.6313 -9126.4405 -7420.7685 298.7846 -277.7494 -274.2031 30463.7192 -240.4594 -173.5910
ENERGY: 1500000 1.3505 6.2252 3.9807 0.0000 -10669.6765 1526.2903 0.0000 0.0000 1704.1422 -7427.6876 293.6358 -9131.8298 -7410.7907 299.3528 981.8751 1017.8821 29627.2519 -148.7759 -90.1920
TCL: Running FEP window  12: Lambda1 0.5499999999999999 Lambda2 0.6    [dLambda 0.050000000000000044]
TCL: Setting parameter firsttimestep to 0
TCL: Setting parameter alchLambda to 0.5499999999999999
Info: NONBONDED TABLE R-SQUARED SPACING: 0.0625
Info: NONBONDED TABLE SIZE: 705 POINTS
TCL: Setting parameter alchLambda2 to 0.6
Info: NONBONDED TABLE R-SQUARED SPACING: 0.0625
Info: NONBONDED TABLE SIZE: 705 POINTS
TCL: Running for 1500000 steps
ETITLE: TS BOND ANGLE DIHED IMPRP ELECT VDW BOUNDARY MISC KINETIC TOTAL TEMP POTENTIAL TOTALAVG TEMPAVG PRESSURE GPRESSURE VOLUME PRESSAVG GPRESSAVG
ENERGY: 0 1.3505 6.2252 3.9807 0.0000 -10669.6328 1526.6398 0.0000 0.0000 1703.2590 -7428.1775 293.4836 -9131.4365 -7428.1775 293.4836 945.7082 1030.1503 29627.2519 945.7082 1030.1503
ENERGY: 300000 0.7856 11.6564 2.3001 0.0000 -10797.2628 1530.2014 0.0000 0.0000 1717.7171 -7534.6021 295.9749 -9252.3192 -7440.2879 300.0468 793.3238 768.5797 29601.1369 345.0620 395.7959
ENERGY: 600000 1.2975 10.2257 2.5249 0.0000 -10566.9433 1392.6001 0.0000 0.0000 1718.4400 -7441.8550 296.0994 -9160.2950 -7430.6999 298.5795 69.8942 16.0800 29641.8091 263.9155 290.5787
ENERGY: 900000 1.3502 6.9614 3.7307 0.0000 -10639.0738 1450.7576 0.0000 0.0000 1686.4555 -7489.8184 290.5883 -9176.2740 -7432.5997 297.9149 17.6369 153.5353 30042.9376 201.7603 247.2108
ENERGY: 1200000 1.4980 8.1327 2.3539 0.0000 -10651.3902 1440.6222 0.0000 0.0000 1766.7835 -7431.9999 304.4293 -9198.7834 -7431.1960 298.8484 241.6099 239.3413 29670.7388 213.7398 251.6098
ENERGY: 1500000 2.5188 10.2584 3.9606 0.0000 -10583.1492 1434.6993 0.0000 0.0000 1743.5938 -7388.1183 300.4336 -9131.7121 -7422.7234 299.2530 -11.0743 94.9197 29678.8127 233.7222 280.3814
TCL: Running FEP window  13: Lambda1 0.6    Lambda2 0.65   [dLambda 0.050000000000000044]
TCL: Setting parameter firsttimestep to 0
TCL: Setting parameter alchLambda to 0.6
Info: NONBONDED TABLE R-SQUARED SPACING: 0.0625
Info: NONBONDED TABLE SIZE: 705 POINTS
TCL: Setting parameter alchLambda2 to 0.65
Info: NONBONDED TABLE R-SQUARED SPACING: 0.0625
Info: NONBONDED TABLE SIZE: 705 POINTS
TCL: Running for 1500000 steps
ETITLE: TS BOND ANGLE DIHED IMPRP ELECT VDW BOUNDARY MISC KINETIC TOTAL TEMP POTENTIAL TOTALAVG TEMPAVG PRESSURE GPRESSURE VOLUME PRESSAVG GPRESSAVG
ENERGY: 0 2.5188 10.2584 3.9606 0.0000 -10583.2061 1435.1862 0.0000 0.0000 1742.7403 -7388.5419 300.2865 -9131.2822 -7388.5419 300.2865 13.6156 109.9959 29678.8127 13.6156 109.9959
ENERGY: 300000 1.8697 9.1483 3.2508 0.0000 -10537.0274 1383.9393 0.0000 0.0000 1716.9816 -7421.8377 295.8481 -9138.8192 -7400.6786 300.4990 -526.1007 -401.9776 30202.1455 10.4980 89.4261
ENERGY: 600000 0.2822 12.2655 3.3413 0.0000 -10554.0536 1421.1285 0.0000 0.0000 1724.9002 -7392.1359 297.2125 -9117.0361 -7390.4512 300.0487 164.6573 176.0802 29805.4030 21.2300 86.4231
ENERGY: 900000 3.6629 13.9181 2.4043 0.0000 -10656.9312 1468.3231 0.0000 0.0000 1764.2453 -7404.3776 303.9920 -9168.6229 -7395.8416 300.5575 105.9133 204.7309 30067.6693 108.6589 166.8742
ENERGY: 1200000 3.1835 13.6131 4.1206 0.0000 -10778.4919 1551.5359 0.0000 0.0000 1738.1111 -7467.9276 299.4889 -9206.0387 -7396.4383 300.7993 725.1136 755.4443 29607.4266 221.7823 283.5865
ENERGY: 1500000 1.0910 18.0723 2.4260 0.0000 -10592.1827 1431.9274 0.0000 0.0000 1697.6665 -7440.9995 292.5200 -9138.6660 -7391.9289 300.1985 -9.5595 8.6180 30026.1439 90.7562 150.9714
TCL: Running FEP window  14: Lambda1 0.65   Lambda2 0.7000000000000001 [dLambda 0.050000000000000044]
TCL: Setting parameter firsttimestep to 0
TCL: Setting parameter alchLambda to 0.65
Info: NONBONDED TABLE R-SQUARED SPACING: 0.0625
Info: NONBONDED TABLE SIZE: 705 POINTS
TCL: Setting parameter alchLambda2 to 0.7000000000000001
Info: NONBONDED TABLE R-SQUARED SPACING: 0.0625
Info: NONBONDED TABLE SIZE: 705 POINTS
TCL: Running for 1500000 steps
ETITLE: TS BOND ANGLE DIHED IMPRP ELECT VDW BOUNDARY MISC KINETIC TOTAL TEMP POTENTIAL TOTALAVG TEMPAVG PRESSURE GPRESSURE VOLUME PRESSAVG GPRESSAVG
ENERGY: 0 1.0910 18.0723 2.4260 0.0000 -10592.5568 1431.8583 0.0000 0.0000 1696.7939 -7442.3153 292.3696 -9139.1092 -7442.3153 292.3696 -62.7531 16.4090 30026.1439 -62.7531 16.4090
ENERGY: 300000 3.1600 13.0166 2.0651 0.0000 -10407.3564 1331.8034 0.0000 0.0000 1721.0309 -7336.2804 296.5459 -9057.3114 -7359.8417 299.1881 -652.3790 -591.3299 30229.2709 3.3589 94.0523
ENERGY: 600000 1.7590 10.8843 3.9142 0.0000 -10524.3454 1466.5519 0.0000 0.0000 1743.6095 -7297.6264 300.4363 -9041.2360 -7365.0402 298.6501 823.0902 864.2329 29808.8160 103.1327 190.1539
ENERGY: 900000 2.4604 12.2818 4.9197 0.0000 -10617.9817 1415.2680 0.0000 0.0000 1761.2549 -7421.7968 303.4767 -9183.0517 -7381.7005 298.6585 -150.6799 -85.0891 30039.7918 20.1582 114.0826
ENERGY: 1200000 2.0895 17.2675 2.7466 0.0000 -10540.5530 1398.1935 0.0000 0.0000 1733.0295 -7387.2265 298.6133 -9120.2559 -7384.0998 299.0497 -169.8019 -162.5275 30059.2802 -130.2637 -46.5151
ENERGY: 1500000 1.2748 12.7548 2.3975 0.0000 -10403.7789 1308.1832 0.0000 0.0000 1752.9224 -7326.2463 302.0410 -9079.1687 -7373.9728 299.8098 -825.0963 -805.6350 30294.9224 -176.0203 -101.5659
TCL: Running FEP window  15: Lambda1 0.7000000000000001 Lambda2 0.7500000000000001 [dLambda 0.050000000000000044]
TCL: Setting parameter firsttimestep to 0
TCL: Setting parameter alchLambda to 0.7000000000000001
Info: NONBONDED TABLE R-SQUARED SPACING: 0.0625
Info: NONBONDED TABLE SIZE: 705 POINTS
TCL: Setting parameter alchLambda2 to 0.7500000000000001
Info: NONBONDED TABLE R-SQUARED SPACING: 0.0625
Info: NONBONDED TABLE SIZE: 705 POINTS
TCL: Running for 1500000 steps
ETITLE: TS BOND ANGLE DIHED IMPRP ELECT VDW BOUNDARY MISC KINETIC TOTAL TEMP POTENTIAL TOTALAVG TEMPAVG PRESSURE GPRESSURE VOLUME PRESSAVG GPRESSAVG
ENERGY: 0 1.2748 12.7548 2.3975 0.0000 -10404.2267 1308.1990 0.0000 0.0000 1752.0999 -7327.5008 301.8993 -9079.6006 -7327.5008 301.8993 -878.1072 -797.3315 30294.9224 -878.1072 -797.3315
ENERGY: 300000 1.1361 15.8927 6.3945 0.0000 -10586.5269 1435.8177 0.0000 0.0000 1745.8629 -7381.4229 300.8246 -9127.2858 -7377.8649 300.2311 283.8006 373.5840 29726.4385 -163.9497 -96.5328
ENERGY: 600000 0.8662 6.6748 2.9482 0.0000 -10691.6134 1474.5430 0.0000 0.0000 1795.1577 -7411.4234 309.3184 -9206.5811 -7393.9886 300.8095 184.7744 272.2144 30176.1252 51.9885 114.2488
ENERGY: 900000 2.0296 12.3702 2.7174 0.0000 -10677.8394 1473.6780 0.0000 0.0000 1760.2466 -7426.7977 303.3030 -9187.0442 -7400.4294 301.1652 154.7112 213.6766 30101.6600 108.9405 169.8453
ENERGY: 1200000 3.7794 9.2182 2.8854 0.0000 -10564.8464 1436.4549 0.0000 0.0000 1786.0660 -7326.4426 307.7518 -9112.5085 -7383.7234 302.4843 -13.9826 53.9502 30315.8986 85.9305 151.7371
ENERGY: 1500000 1.1940 8.3004 4.3670 0.0000 -10623.2730 1432.7253 0.0000 0.0000 1716.3224 -7460.3640 295.7345 -9176.6864 -7384.0988 302.3658 8.1945 58.0774 29782.4827 50.0446 112.9238
TCL: Running FEP window  16: Lambda1 0.7500000000000001 Lambda2 0.8000000000000002 [dLambda 0.050000000000000044]
TCL: Setting parameter firsttimestep to 0
TCL: Setting parameter alchLambda to 0.7500000000000001
Info: NONBONDED TABLE R-SQUARED SPACING: 0.0625
Info: NONBONDED TABLE SIZE: 705 POINTS
TCL: Setting parameter alchLambda2 to 0.8000000000000002
Info: NONBONDED TABLE R-SQUARED SPACING: 0.0625
Info: NONBONDED TABLE SIZE: 705 POINTS
TCL: Running for 1500000 steps
ETITLE: TS BOND ANGLE DIHED IMPRP ELECT VDW BOUNDARY MISC KINETIC TOTAL TEMP POTENTIAL TOTALAVG TEMPAVG PRESSURE GPRESSURE VOLUME PRESSAVG GPRESSAVG
ENERGY: 0 1.1940 8.3004 4.3670 0.0000 -10624.1667 1432.7626 0.0000 0.0000 1715.4528 -7462.0900 295.5847 -9177.5428 -7462.0900 295.5847 -30.0953 68.3839 29782.4827 -30.0953 68.3839
ENERGY: 300000 2.1930 11.0821 3.1514 0.0000 -10725.6199 1485.9087 0.0000 0.0000 1691.9331 -7531.3515 291.5321 -9223.2846 -7450.7991 295.4960 2.4766 71.1283 30078.9303 -83.8535 -41.8435
ENERGY: 600000 1.8280 7.6091 4.9792 0.0000 -10623.0351 1429.0935 0.0000 0.0000 1722.9412 -7456.5841 296.8750 -9179.5253 -7447.2540 295.5195 -116.7383 -89.3940 30183.6085 101.4986 135.9935
ENERGY: 900000 1.1498 14.2758 3.0036 0.0000 -10433.1347 1363.4724 0.0000 0.0000 1771.7490 -7279.4840 305.2849 -9051.2330 -7414.6717 297.1716 -139.4186 -105.4415 30007.4657 23.6754 63.9184
ENERGY: 1200000 3.0341 9.2347 6.1840 0.0000 -10574.0262 1438.0482 0.0000 0.0000 1709.0583 -7408.4668 294.4829 -9117.5251 -7410.0350 297.9050 168.7664 175.6239 30040.3245 105.7995 143.3688
ENERGY: 1500000 1.8050 11.8497 3.2832 0.0000 -10532.6977 1462.5420 0.0000 0.0000 1694.1554 -7359.0623 291.9150 -9053.2178 -7399.6501 298.3338 238.8929 323.2379 30536.9375 83.5590 127.3785
TCL: Running FEP window  17: Lambda1 0.8000000000000002 Lambda2 0.8500000000000002 [dLambda 0.050000000000000044]
TCL: Setting parameter firsttimestep to 0
TCL: Setting parameter alchLambda to 0.8000000000000002
Info: NONBONDED TABLE R-SQUARED SPACING: 0.0625
Info: NONBONDED TABLE SIZE: 705 POINTS
TCL: Setting parameter alchLambda2 to 0.8500000000000002
Info: NONBONDED TABLE R-SQUARED SPACING: 0.0625
Info: NONBONDED TABLE SIZE: 705 POINTS
TCL: Running for 1500000 steps
ETITLE: TS BOND ANGLE DIHED IMPRP ELECT VDW BOUNDARY MISC KINETIC TOTAL TEMP POTENTIAL TOTALAVG TEMPAVG PRESSURE GPRESSURE VOLUME PRESSAVG GPRESSAVG
ENERGY: 0 1.8050 11.8497 3.2832 0.0000 -10534.3160 1463.2275 0.0000 0.0000 1693.3133 -7360.8374 291.7699 -9054.1506 -7360.8374 291.7699 240.0104 338.2752 30536.9375 240.0104 338.2752
ENERGY: 300000 1.7004 9.8886 3.4498 0.0000 -10562.6033 1437.0694 0.0000 0.0000 1773.7304 -7336.7647 305.6263 -9110.4951 -7351.1530 300.9764 140.4221 204.7656 30135.6249 211.5898 283.6051
ENERGY: 600000 1.4050 8.7399 1.9153 0.0000 -10668.2460 1471.6747 0.0000 0.0000 1721.8266 -7462.6845 296.6829 -9184.5111 -7390.1370 300.8225 362.1016 394.0749 29722.8645 95.1655 164.3288
ENERGY: 900000 2.0129 14.9364 5.8211 0.0000 -10634.8954 1466.1272 0.0000 0.0000 1673.3471 -7472.6506 288.3296 -9145.9977 -7387.1292 301.4970 380.4177 445.8947 29847.3148 122.0647 185.1867
ENERGY: 1200000 1.8583 13.9679 3.3614 0.0000 -10367.7041 1342.5597 0.0000 0.0000 1743.0555 -7262.9013 300.3408 -9005.9568 -7378.0740 301.2147 -183.2568 -125.9991 30157.0502 49.7522 110.3790
ENERGY: 1500000 3.8346 15.2756 2.4961 0.0000 -10507.3863 1360.5997 0.0000 0.0000 1715.7295 -7409.4507 295.6324 -9125.1802 -7389.0321 300.0644 -305.3377 -321.4917 30156.6898 -13.3200 41.5329
TCL: Running FEP window  18: Lambda1 0.8500000000000002 Lambda2 0.9000000000000002 [dLambda 0.050000000000000044]
TCL: Setting parameter firsttimestep to 0
TCL: Setting parameter alchLambda to 0.8500000000000002
Info: NONBONDED TABLE R-SQUARED SPACING: 0.0625
Info: NONBONDED TABLE SIZE: 705 POINTS
TCL: Setting parameter alchLambda2 to 0.9000000000000002
Info: NONBONDED TABLE R-SQUARED SPACING: 0.0625
Info: NONBONDED TABLE SIZE: 705 POINTS
TCL: Running for 1500000 steps
ETITLE: TS BOND ANGLE DIHED IMPRP ELECT VDW BOUNDARY MISC KINETIC TOTAL TEMP POTENTIAL TOTALAVG TEMPAVG PRESSURE GPRESSURE VOLUME PRESSAVG GPRESSAVG
ENERGY: 0 3.8346 15.2756 2.4961 0.0000 -10508.5829 1360.9538 0.0000 0.0000 1714.8554 -7411.1673 295.4818 -9126.0228 -7411.1673 295.4818 -374.8607 -310.4661 30156.6898 -374.8607 -310.4661
ENERGY: 300000 1.2516 12.4941 2.5131 0.0000 -10401.3663 1314.0994 0.0000 0.0000 1796.6211 -7274.3871 309.5706 -9071.0082 -7424.4580 296.4907 -805.8473 -744.9179 30529.1588 -480.7265 -430.9317
ENERGY: 600000 3.7553 11.2637 2.6175 0.0000 -10593.1647 1406.2735 0.0000 0.0000 1811.6030 -7357.6516 312.1521 -9169.2546 -7395.9311 300.1869 257.3566 282.1437 29737.1899 -308.5730 -238.0808
ENERGY: 900000 1.0824 12.2283 2.9220 0.0000 -10582.4394 1428.9825 0.0000 0.0000 1780.6681 -7356.5561 306.8218 -9137.2242 -7392.8657 299.7804 243.7602 341.9302 29923.9756 -278.1869 -205.9667
ENERGY: 1200000 0.7458 15.8243 3.8099 0.0000 -10607.1083 1392.0972 0.0000 0.0000 1758.9448 -7435.6863 303.0787 -9194.6311 -7404.8023 300.0246 -217.3117 -125.8531 29637.6028 -157.9997 -85.8854
ENERGY: 1500000 0.4617 6.9752 2.5954 0.0000 -10530.5431 1407.7108 0.0000 0.0000 1746.8516 -7365.9483 300.9949 -9112.7999 -7401.3167 300.1510 194.9572 255.6895 29901.7627 -146.0620 -78.5203
TCL: Running FEP window  19: Lambda1 0.9000000000000002 Lambda2 0.9500000000000003 [dLambda 0.050000000000000044]
TCL: Setting parameter firsttimestep to 0
TCL: Setting parameter alchLambda to 0.9000000000000002
Info: NONBONDED TABLE R-SQUARED SPACING: 0.0625
Info: NONBONDED TABLE SIZE: 705 POINTS
TCL: Setting parameter alchLambda2 to 0.9500000000000003
Info: NONBONDED TABLE R-SQUARED SPACING: 0.0625
Info: NONBONDED TABLE SIZE: 705 POINTS
TCL: Running for 1500000 steps
ETITLE: TS BOND ANGLE DIHED IMPRP ELECT VDW BOUNDARY MISC KINETIC TOTAL TEMP POTENTIAL TOTALAVG TEMPAVG PRESSURE GPRESSURE VOLUME PRESSAVG GPRESSAVG
ENERGY: 0 0.4617 6.9752 2.5954 0.0000 -10532.0988 1408.0428 0.0000 0.0000 1745.9799 -7368.0437 300.8447 -9114.0237 -7368.0437 300.8447 204.7835 270.5705 29901.7627 204.7835 270.5705
ENERGY: 300000 2.6376 10.0124 3.1584 0.0000 -10626.1113 1430.3212 0.0000 0.0000 1799.1379 -7380.8439 310.0042 -9179.9818 -7423.3971 300.3897 53.3148 129.0973 29806.4073 -243.5688 -172.1861
ENERGY: 600000 1.2643 12.7209 3.0822 0.0000 -10542.9881 1454.8630 0.0000 0.0000 1744.0100 -7327.0477 300.5053 -9071.0577 -7391.2816 299.9986 475.1072 546.8717 29925.3140 54.9142 135.7705
ENERGY: 900000 1.4795 6.2367 2.0942 0.0000 -10442.7960 1331.8771 0.0000 0.0000 1747.3998 -7353.7087 301.0894 -9101.1085 -7388.2309 300.3770 -130.6341 -161.9061 29415.2634 50.6037 120.7278
ENERGY: 1200000 2.1779 14.2458 2.8467 0.0000 -10737.1039 1561.4543 0.0000 0.0000 1747.3543 -7409.0249 301.0816 -9156.3792 -7384.7396 300.7533 1187.5369 1226.3815 29734.5916 66.0092 132.2958
ENERGY: 1500000 2.3131 8.5149 2.8309 0.0000 -10369.0892 1315.2107 0.0000 0.0000 1696.0539 -7344.1656 292.2421 -9040.2195 -7379.6947 300.5207 -614.0951 -466.6741 29876.8990 -49.4768 25.4920
TCL: Running FEP window  20: Lambda1 0.9500000000000003 Lambda2 1.0    [dLambda 0.04999999999999971]
TCL: Setting parameter firsttimestep to 0
TCL: Setting parameter alchLambda to 0.9500000000000003
Info: NONBONDED TABLE R-SQUARED SPACING: 0.0625
Info: NONBONDED TABLE SIZE: 705 POINTS
TCL: Setting parameter alchLambda2 to 1.0
Info: NONBONDED TABLE R-SQUARED SPACING: 0.0625
Info: NONBONDED TABLE SIZE: 705 POINTS
TCL: Running for 1500000 steps
ETITLE: TS BOND ANGLE DIHED IMPRP ELECT VDW BOUNDARY MISC KINETIC TOTAL TEMP POTENTIAL TOTALAVG TEMPAVG PRESSURE GPRESSURE VOLUME PRESSAVG GPRESSAVG
ENERGY: 0 2.3131 8.5149 2.8309 0.0000 -10369.4035 1315.1104 0.0000 0.0000 1695.1649 -7345.4691 292.0890 -9040.6341 -7345.4691 292.0890 -549.6144 -450.6512 29876.8990 -549.6144 -450.6512
ENERGY: 300000 1.5219 10.4275 1.8105 0.0000 -10583.2263 1414.2304 0.0000 0.0000 1753.7348 -7401.5011 302.1810 -9155.2359 -7399.0939 297.0930 144.3583 219.6270 29710.6620 -78.1546 -23.6877
ENERGY: 600000 3.6404 11.9778 2.9473 0.0000 -10553.8716 1413.6535 0.0000 0.0000 1747.2339 -7374.4187 301.0608 -9121.6526 -7377.5208 299.3904 -208.9185 -41.5942 30083.4656 -118.8495 -28.5586
ENERGY: 900000 0.9734 10.9347 3.5473 0.0000 -10549.0792 1391.2135 0.0000 0.0000 1716.7893 -7425.6209 295.8150 -9142.4103 -7394.3323 299.3690 -257.4765 -173.9148 29889.9394 -119.7905 -34.2491
ENERGY: 1200000 0.9962 9.1190 2.4469 0.0000 -10525.3158 1375.2589 0.0000 0.0000 1796.5764 -7340.9183 309.5629 -9137.4947 -7399.8348 300.0289 -171.4286 -132.6859 30171.6965 -64.2157 11.0844
ENERGY: 1500000 0.9677 10.4442 3.3489 0.0000 -10608.0373 1395.2275 0.0000 0.0000 1763.9376 -7434.1113 303.9390 -9198.0489 -7402.4101 300.0111 -385.3218 -344.7892 30239.5376 -14.8774 52.6254
TCL: Exiting due to exit command.
