Info: SIMULATION PARAMETERS:
Info: TIMESTEP               2
Info: NUMBER OF STEPS        0
Info: STEPS PER CYCLE        10
Info: PERIODIC CELL BASIS 1  32.1903 0 0
Info: PERIODIC CELL BASIS 2  0 29.998 0
Info: PERIODIC CELL BASIS 3  0 0 31.8446
Info: PERIODIC CELL CENTER   0 0 0
Info: WRAPPING WATERS AROUND PERIODIC BOUNDARIES ON OUTPUT.
Info: WRAPPING ALL CLUSTERS AROUND PERIODIC BOUNDARIES ON OUTPUT.
Info: FIRST LDB TIMESTEP     50
Info: LAST LDB TIMESTEP     -1
Info: HOM BACKGROUND SCALING 1
Info: PME BACKGROUND SCALING 1
Info: MIN ATOMS PER PATCH    40
Info: EMPTY PATCH LOAD       40 ATOMS
Info: VELOCITY FILE          mobley_7176290_equil.vel
Info: CENTER OF MASS MOVING INITIALLY? NO
Info: DIELECTRIC             1
Info: EXCLUDE                SCALED ONE-FOUR
Info: 1-4 ELECTROSTATICS SCALED BY 0.833333
Info: MODIFIED 1-4 VDW PARAMETERS WILL BE USED
Info: DCD FILENAME           mobley_7176290_prod.dcd
Info: DCD FREQUENCY          100000
Info: DCD FIRST STEP         100000
Info: DCD FILE WILL CONTAIN UNIT CELL DATA
Info: XST FILENAME           mobley_7176290_prod.xst
Info: XST FREQUENCY          100000
Info: NO VELOCITY DCD OUTPUT
Info: NO FORCE DCD OUTPUT
Info: OUTPUT FILENAME        mobley_7176290_prod
Info: BINARY OUTPUT FILES WILL BE USED
Info: RESTART FILENAME       mobley_7176290_prod.restart
Info: RESTART FREQUENCY      100000
Info: BINARY RESTART FILES WILL BE USED
Info: CUTOFF                 9
Info: PAIRLIST DISTANCE      11
Info: PAIRLIST SHRINK RATE   0.01
Info: PAIRLIST GROW RATE     0.01
Info: PAIRLIST TRIGGER       0.3
Info: PAIRLISTS PER CYCLE    2
Info: PAIRLISTS ENABLED
Info: MARGIN                 2
Info: HYDROGEN GROUP CUTOFF  2.5
Info: PATCH DIMENSION        15.5
Info: ENERGY OUTPUT STEPS    100000
Info: ENERGY EVALUATION STEPS    100000
Info: OUTPUT ENERGY PRECISION 4
Info: CROSSTERM ENERGY INCLUDED IN DIHEDRAL
Info: TIMING OUTPUT STEPS    1000000
Info: PRESSURE OUTPUT STEPS  100000
Info: ALCHEMICAL FEP ON
Info: FEP CURRENT LAMBDA VALUE     1
Info: FEP COMPARISON LAMBDA VALUE  0.95
Info: FEP INTRA-ALCHEMICAL NON-BONDED INTERACTIONS WILL BE RETAINED
Info: FEP INTRA-ALCHEMICAL BONDED INTERACTIONS WILL BE RETAINED
Info: FEP VDW SHIFTING COEFFICIENT 5
Info: FEP ELEC. ACTIVE FOR ANNIHILATED PARTICLES BETWEEN LAMBDA = 0 AND LAMBDA = 0.5
Info: FEP ELEC. ACTIVE FOR EXNIHILATED PARTICLES BETWEEN LAMBDA = 0.5 AND LAMBDA = 1
Info: FEP VDW ACTIVE FOR ANNIHILATED PARTICLES BETWEEN LAMBDA = 0 AND LAMBDA = 1
Info: FEP VDW ACTIVE FOR EXNIHILATED PARTICLES BETWEEN LAMBDA = 0 AND LAMBDA = 1
Info: FEP BOND ACTIVE FOR ANNIHILATED PARTICLES BETWEEN LAMBDA = 1 AND LAMBDA = 1
Info: FEP BOND ACTIVE FOR EXNIHILATED PARTICLES BETWEEN LAMBDA = 0 AND LAMBDA = 0
Info: LANGEVIN DYNAMICS ACTIVE
Info: LANGEVIN TEMPERATURE   300
Info: LANGEVIN USING BBK INTEGRATOR
Info: LANGEVIN DAMPING COEFFICIENT IS 1 INVERSE PS
Info: LANGEVIN DYNAMICS APPLIED TO HYDROGENS
Info: LANGEVIN PISTON PRESSURE CONTROL ACTIVE
Info:        TARGET PRESSURE IS 1.01325 BAR
Info:     OSCILLATION PERIOD IS 50 FS
Info:             DECAY TIME IS 25 FS
Info:     PISTON TEMPERATURE IS 300 K
Info:       PRESSURE CONTROL IS GROUP-BASED
Info:    INITIAL STRAIN RATE IS -0.000185158 -0.000185158 -0.000185158
Info:       CELL FLUCTUATION IS ISOTROPIC
Info: PARTICLE MESH EWALD (PME) ACTIVE
Info: PME TOLERANCE               1e-06
Info: PME EWALD COEFFICIENT       0.348832
Info: PME INTERPOLATION ORDER     4
Info: PME GRID DIMENSIONS         36 32 32
Info: PME MAXIMUM GRID SPACING    1
Info: PME CALCULATION WILL BE PERFORMED ON GPU
Info: FULL ELECTROSTATIC EVALUATION FREQUENCY      2
Info: USING VERLET I (r-RESPA) MTS SCHEME.
Info: C1 SPLITTING OF LONG RANGE ELECTROSTATICS
Info: PLACING ATOMS IN PATCHES BY HYDROGEN GROUPS
Info: RIGID BONDS TO HYDROGEN : ALL
Info:         ERROR TOLERANCE : 1e-08
Info:          MAX ITERATIONS : 100
Info: RIGID WATER USING SETTLE ALGORITHM
Info: RANDOM NUMBER SEED     1743751357
Info: USE HYDROGEN BONDS?    NO
Info: Using AMBER format force field!
Info: AMBER PARM FILE        mobley_7176290.prmtop
Info: COORDINATE PDB         mobley_7176290.pdb
Info: Exclusions will be read from PARM file!
Info: SCNB (VDW SCALING)     2
Info: USING ARITHMETIC MEAN TO COMBINE L-J SIGMA PARAMETERS
Info: BINARY COORDINATES     mobley_7176290_equil.coor
Info: SUMMARY OF PARAMETERS:
Info: 8 BONDS
Info: 7 ANGLES
Info:   7 HARMONIC
Info:   0 COSINE-BASED
Info: 4 DIHEDRAL
Info: 0 IMPROPER
Info: 0 CROSSTERM
Info: 0 VDW
Info: 28 VDW_PAIRS
Info: 0 NBTHOLE_PAIRS
Info: To read alchdata from file: mobley_7176290.pdb
Info: To read alchflag data from column: 5
Info: STRUCTURE SUMMARY:
Info: 3000 ATOMS
Info: 3000 BONDS
Info: 22 ANGLES
Info: 36 DIHEDRALS
Info: 0 IMPROPERS
Info: 0 CROSSTERMS
Info: 3049 EXCLUSIONS
Info: 2990 RIGID BONDS
Info: ALCH: 0 ATOMS TO DISAPPEAR IN FINAL STATE
Info: ALCH: 15 ATOMS TO APPEAR IN FINAL STATE
Info: 6010 DEGREES OF FREEDOM
Info: 1005 HYDROGEN GROUPS
Info: 3 ATOMS IN LARGEST HYDROGEN GROUP
Info: 1005 MIGRATION GROUPS
Info: 3 ATOMS IN LARGEST MIGRATION GROUP
Info: TOTAL MASS = 18065 amu
Info: TOTAL CHARGE = -0.000200011 e
Info: MASS DENSITY = 0.97554 g/cm^3
Info: ATOM DENSITY = 0.0975592 atoms/A^3
Info: ADDED 0 IMPLICIT EXCLUSIONS
Info: NONBONDED TABLE R-SQUARED SPACING: 0.0625
Info: NONBONDED TABLE SIZE: 705 POINTS
Info: REMOVING COM VELOCITY -0.219249 0.0575768 0.154843
Info: Use 3D box decompostion in PME FFT.
Info: Updated CUDA force table with 4096 elements.
Info: Updated CUDA LJ table with 7 x 7 elements.
Info: Found 18 unique exclusion lists needing 40 bytes
TCL: Running for 1500000 steps
ETITLE: TS BOND ANGLE DIHED IMPRP ELECT VDW BOUNDARY MISC KINETIC TOTAL TEMP POTENTIAL TOTALAVG TEMPAVG PRESSURE GPRESSURE VOLUME PRESSAVG GPRESSAVG
ENERGY: 0 3.3121 2.7253 5.3813 0.0000 -10856.8386 1445.2603 0.0000 0.0000 1777.2166 -7622.9429 297.6160 -9400.1595 -7622.9429 297.6160 -71.0052 21.0455 30750.5563 -71.0052 21.0455
ENERGY: 300000 1.7953 5.7192 5.3793 0.0000 -10897.2162 1506.6276 0.0000 0.0000 1728.5675 -7649.1273 289.4691 -9377.6949 -7638.5014 296.6663 409.5010 480.1748 31009.4903 -36.6704 37.7333
ENERGY: 600000 3.5238 2.7595 1.9301 0.0000 -10832.1679 1434.1345 0.0000 0.0000 1788.1014 -7601.7186 299.4388 -9389.8200 -7603.8201 298.5578 -248.1033 -170.3903 30876.7498 -40.6121 23.5415
ENERGY: 900000 3.0312 1.5954 6.6864 0.0000 -10854.3585 1427.2043 0.0000 0.0000 1849.4716 -7566.3695 309.7160 -9415.8411 -7589.7224 301.1439 -310.0433 -331.9665 31380.4014 -0.1853 60.3242
ENERGY: 1200000 1.8312 3.3055 3.8587 0.0000 -10847.4473 1453.9698 0.0000 0.0000 1771.7351 -7612.7470 296.6981 -9384.4820 -7585.9006 301.7582 -7.9414 42.4355 31106.8340 -46.7212 13.0594
ENERGY: 1500000 1.7557 3.7466 8.0343 0.0000 -10911.5943 1499.1427 0.0000 0.0000 1823.2205 -7575.6945 305.3199 -9398.9150 -7592.0653 302.6930 386.5172 498.5466 30739.6568 -34.1375 31.5225
TCL: Running FEP window   2: Lambda1 0.95   Lambda2 0.8999999999999999 [dLambda -0.050000000000000044]
TCL: Setting parameter firsttimestep to 0
TCL: Setting parameter alchLambda to 0.95
Info: NONBONDED TABLE R-SQUARED SPACING: 0.0625
Info: NONBONDED TABLE SIZE: 705 POINTS
TCL: Setting parameter alchLambda2 to 0.8999999999999999
Info: NONBONDED TABLE R-SQUARED SPACING: 0.0625
Info: NONBONDED TABLE SIZE: 705 POINTS
TCL: Running for 1500000 steps
ETITLE: TS BOND ANGLE DIHED IMPRP ELECT VDW BOUNDARY MISC KINETIC TOTAL TEMP POTENTIAL TOTALAVG TEMPAVG PRESSURE GPRESSURE VOLUME PRESSAVG GPRESSAVG
ENERGY: 0 1.7557 3.7466 8.0343 0.0000 -10910.1026 1498.4766 0.0000 0.0000 1822.3315 -7575.7578 305.1710 -9398.0893 -7575.7578 305.1710 401.3692 480.7227 30739.6568 401.3692 480.7227
ENERGY: 300000 4.9697 5.7013 5.2588 0.0000 -10920.4809 1423.0502 0.0000 0.0000 1727.6464 -7753.8544 289.3149 -9481.5007 -7662.7690 297.2519 -507.7869 -467.0484 31077.9465 -134.9786 -78.7739
ENERGY: 600000 2.2514 3.4635 6.6930 0.0000 -10797.1535 1450.6504 0.0000 0.0000 1779.3148 -7554.7804 297.9674 -9334.0951 -7624.2535 299.3654 -92.5807 -63.2155 31310.1425 -99.1795 -41.2139
ENERGY: 900000 1.8003 4.5288 3.8645 0.0000 -10924.3818 1486.1553 0.0000 0.0000 1792.8875 -7635.1455 300.2403 -9428.0330 -7639.7945 298.9334 703.6742 766.8005 30277.5836 10.3305 67.4914
ENERGY: 1200000 4.3857 2.7500 4.2607 0.0000 -10824.2968 1439.5822 0.0000 0.0000 1800.5886 -7572.7295 301.5299 -9373.3181 -7630.0464 299.3490 -139.7534 -98.5761 31210.0186 58.6655 119.2061
ENERGY: 1500000 2.8107 2.5526 4.7064 0.0000 -10784.8081 1407.5919 0.0000 0.0000 1826.4032 -7540.7434 305.8529 -9367.1466 -7620.4405 299.8108 -348.3632 -233.1342 31183.1023 58.9048 121.6187
TCL: Running FEP window   3: Lambda1 0.8999999999999999 Lambda2 0.8499999999999999 [dLambda -0.050000000000000044]
TCL: Setting parameter firsttimestep to 0
TCL: Setting parameter alchLambda to 0.8999999999999999
Info: NONBONDED TABLE R-SQUARED SPACING: 0.0625
Info: NONBONDED TABLE SIZE: 705 POINTS
TCL: Setting parameter alchLambda2 to 0.8499999999999999
Info: NONBONDED TABLE R-SQUARED SPACING: 0.0625
Info: NONBONDED TABLE SIZE: 705 POINTS
TCL: Running for 1500000 steps
ETITLE: TS BOND ANGLE DIHED IMPRP ELECT VDW BOUNDARY MISC KINETIC TOTAL TEMP POTENTIAL TOTALAVG TEMPAVG PRESSURE GPRESSURE VOLUME PRESSAVG GPRESSAVG
ENERGY: 0 2.8107 2.5526 4.7064 0.0000 -10782.8094 1407.9634 0.0000 0.0000 1825.5054 -7539.2710 305.7025 -9364.7764 -7539.2710 305.7025 -342.9012 -237.2029 31183.1023 -342.9012 -237.2029
ENERGY: 300000 4.8414 3.2845 4.0555 0.0000 -10850.0714 1406.5148 0.0000 0.0000 1825.3622 -7606.0131 305.6785 -9431.3753 -7608.3451 301.3840 -511.0086 -415.6139 30977.6520 173.1864 249.0444
ENERGY: 600000 7.9671 5.3123 4.1364 0.0000 -10970.7196 1455.9683 0.0000 0.0000 1769.8033 -7727.5323 296.3746 -9497.3356 -7632.6997 300.9128 -135.3220 -104.3696 30584.8011 -4.7810 64.1301
ENERGY: 900000 3.6670 2.2746 5.6688 0.0000 -10889.3946 1402.2196 0.0000 0.0000 1799.6501 -7675.9146 301.3727 -9475.5647 -7645.0568 300.2442 -579.7792 -529.6642 31011.5447 -49.2328 14.9258
ENERGY: 1200000 2.2979 2.7824 3.7581 0.0000 -10913.8981 1496.4292 0.0000 0.0000 1802.7385 -7605.8920 301.8899 -9408.6305 -7629.5989 300.0993 37.3415 154.2557 31048.6668 -5.9687 62.0069
ENERGY: 1500000 2.8364 4.1429 5.8970 0.0000 -10856.0227 1517.2742 0.0000 0.0000 1776.3742 -7549.4981 297.4749 -9325.8722 -7628.1736 299.5255 212.1390 364.8611 31179.5930 17.6411 92.8928
TCL: Running FEP window   4: Lambda1 0.8499999999999999 Lambda2 0.7999999999999998 [dLambda -0.050000000000000044]
TCL: Setting parameter firsttimestep to 0
TCL: Setting parameter alchLambda to 0.8499999999999999
Info: NONBONDED TABLE R-SQUARED SPACING: 0.0625
Info: NONBONDED TABLE SIZE: 705 POINTS
TCL: Setting parameter alchLambda2 to 0.7999999999999998
Info: NONBONDED TABLE R-SQUARED SPACING: 0.0625
Info: NONBONDED TABLE SIZE: 705 POINTS
TCL: Running for 1500000 steps
ETITLE: TS BOND ANGLE DIHED IMPRP ELECT VDW BOUNDARY MISC KINETIC TOTAL TEMP POTENTIAL TOTALAVG TEMPAVG PRESSURE GPRESSURE VOLUME PRESSAVG GPRESSAVG
ENERGY: 0 2.8364 4.1429 5.8970 0.0000 -10853.6722 1516.8048 0.0000 0.0000 1775.4644 -7548.5266 297.3226 -9323.9910 -7548.5266 297.3226 275.4345 354.9714 31179.5930 275.4345 354.9714
ENERGY: 300000 3.2144 3.5790 4.9794 0.0000 -10915.2595 1491.2440 0.0000 0.0000 1835.4849 -7576.7577 307.3737 -9412.2426 -7599.4802 300.2616 266.2811 255.6395 31001.5548 131.2253 200.5790
ENERGY: 600000 5.6884 3.1106 3.7397 0.0000 -10834.2043 1438.1772 0.0000 0.0000 1798.0932 -7585.3951 301.1120 -9383.4884 -7597.7808 302.0123 -453.0340 -359.9721 31433.6652 128.5927 206.0193
ENERGY: 900000 4.3821 4.3580 4.1074 0.0000 -10902.3689 1375.5696 0.0000 0.0000 1813.6464 -7700.3054 303.7166 -9513.9518 -7614.7793 301.9903 -912.4287 -859.9064 30753.8491 -11.1315 60.5816
ENERGY: 1200000 3.8150 2.9193 3.6423 0.0000 -10883.2084 1400.0383 0.0000 0.0000 1832.8643 -7639.9291 306.9349 -9472.7934 -7620.3075 302.0536 -614.0636 -557.5136 30845.5771 -84.2238 -19.4897
ENERGY: 1500000 3.3607 5.0413 3.2619 0.0000 -10736.4035 1422.5085 0.0000 0.0000 1794.2849 -7507.9462 300.4743 -9302.2311 -7608.1684 302.8199 94.2556 148.0018 31253.2812 -68.8556 -10.3058
TCL: Running FEP window   5: Lambda1 0.7999999999999998 Lambda2 0.7499999999999998 [dLambda -0.050000000000000044]
TCL: Setting parameter firsttimestep to 0
TCL: Setting parameter alchLambda to 0.7999999999999998
Info: NONBONDED TABLE R-SQUARED SPACING: 0.0625
Info: NONBONDED TABLE SIZE: 705 POINTS
TCL: Setting parameter alchLambda2 to 0.7499999999999998
Info: NONBONDED TABLE R-SQUARED SPACING: 0.0625
Info: NONBONDED TABLE SIZE: 705 POINTS
TCL: Running for 1500000 steps
ETITLE: TS BOND ANGLE DIHED IMPRP ELECT VDW BOUNDARY MISC KINETIC TOTAL TEMP POTENTIAL TOTALAVG TEMPAVG PRESSURE GPRESSURE VOLUME PRESSAVG GPRESSAVG
ENERGY: 0 3.3607 5.0413 3.2619 0.0000 -10733.5789 1421.8459 0.0000 0.0000 1793.3825 -7506.6865 300.3232 -9300.0690 -7506.6865 300.3232 64.4117 137.3073 31253.2812 64.4117 137.3073
ENERGY: 300000 5.0114 4.5610 5.1299 0.0000 -10895.7852 1465.0388 0.0000 0.0000 1791.4850 -7624.5591 300.0054 -9416.0441 -7566.5207 301.1182 77.8442 193.6405 30268.0122 -253.8967 -176.3368
ENERGY: 600000 6.9356 4.1943 5.0305 0.0000 -11010.6010 1573.8503 0.0000 0.0000 1818.1320 -7602.4584 304.4678 -9420.5903 -7585.1799 301.3389 1152.2904 1196.1550 30531.5285 -132.5161 -68.6898
ENERGY: 900000 2.9811 3.5343 4.4039 0.0000 -10713.8212 1396.9510 0.0000 0.0000 1835.3380 -7470.6129 307.3491 -9305.9509 -7577.1192 301.4488 -192.7094 -143.7824 31207.5386 -109.0837 -42.2845
ENERGY: 1200000 3.4262 2.4199 6.0967 0.0000 -10869.1693 1479.4046 0.0000 0.0000 1828.0906 -7549.7312 306.1355 -9377.8219 -7583.3509 301.3949 519.8786 510.4425 30794.4584 73.3768 131.2238
ENERGY: 1500000 1.2121 3.0270 3.4975 0.0000 -10774.1553 1372.1803 0.0000 0.0000 1748.7639 -7645.4746 292.8513 -9394.2385 -7593.7911 300.3647 -541.7071 -427.9265 30782.4148 -32.5481 32.4721
TCL: Running FEP window   6: Lambda1 0.7499999999999998 Lambda2 0.6999999999999997 [dLambda -0.050000000000000044]
TCL: Setting parameter firsttimestep to 0
TCL: Setting parameter alchLambda to 0.7499999999999998
Info: NONBONDED TABLE R-SQUARED SPACING: 0.0625
Info: NONBONDED TABLE SIZE: 705 POINTS
TCL: Setting parameter alchLambda2 to 0.6999999999999997
Info: NONBONDED TABLE R-SQUARED SPACING: 0.0625
Info: NONBONDED TABLE SIZE: 705 POINTS
TCL: Running for 1500000 steps
ETITLE: TS BOND ANGLE DIHED IMPRP ELECT VDW BOUNDARY MISC KINETIC TOTAL TEMP POTENTIAL TOTALAVG TEMPAVG PRESSURE GPRESSURE VOLUME PRESSAVG GPRESSAVG
ENERGY: 0 1.2121 3.0270 3.4975 0.0000 -10772.8191 1372.4640 0.0000 0.0000 1747.8536 -7644.7649 292.6988 -9392.6185 -7644.7649 292.6988 -526.6690 -432.4714 30782.4148 -526.6690 -432.4714
ENERGY: 300000 7.8651 5.4732 2.9970 0.0000 -10883.0008 1443.6390 0.0000 0.0000 1878.3501 -7544.6764 314.5520 -9423.0264 -7580.6073 303.8335 -91.0755 3.9159 30867.6359 -31.8044 11.5088
ENERGY: 600000 3.7933 4.0878 5.2619 0.0000 -10684.7687 1349.4651 0.0000 0.0000 1762.2654 -7559.8953 295.1122 -9322.1607 -7603.9016 299.7520 -918.1434 -845.3981 31082.0549 -123.7476 -75.7339
ENERGY: 900000 3.0270 2.3286 3.3597 0.0000 -10836.4969 1444.0256 0.0000 0.0000 1836.8252 -7546.9308 307.5982 -9383.7560 -7593.1585 300.8447 -218.9026 -204.8736 31149.7561 -117.3838 -63.8109
ENERGY: 1200000 6.3941 3.7422 2.0565 0.0000 -10877.6735 1411.5258 0.0000 0.0000 1787.7844 -7666.1704 299.3857 -9453.9548 -7591.3175 301.0817 -544.2943 -495.9195 30600.3921 -125.6245 -72.5348
ENERGY: 1500000 3.0484 3.0023 4.5987 0.0000 -10853.7504 1447.5246 0.0000 0.0000 1754.0160 -7641.5604 293.7308 -9395.5764 -7600.2724 299.9110 1.9696 45.5148 31206.0067 -116.8401 -63.6162
TCL: Running FEP window   7: Lambda1 0.6999999999999997 Lambda2 0.6499999999999997 [dLambda -0.050000000000000044]
TCL: Setting parameter firsttimestep to 0
TCL: Setting parameter alchLambda to 0.6999999999999997
Info: NONBONDED TABLE R-SQUARED SPACING: 0.0625
Info: NONBONDED TABLE SIZE: 705 POINTS
TCL: Setting parameter alchLambda2 to 0.6499999999999997
Info: NONBONDED TABLE R-SQUARED SPACING: 0.0625
Info: NONBONDED TABLE SIZE: 705 POINTS
TCL: Running for 1500000 steps
ETITLE: TS BOND ANGLE DIHED IMPRP ELECT VDW BOUNDARY MISC KINETIC TOTAL TEMP POTENTIAL TOTALAVG TEMPAVG PRESSURE GPRESSURE VOLUME PRESSAVG GPRESSAVG
ENERGY: 0 3.0484 3.0023 4.5987 0.0000 -10852.0299 1447.6187 0.0000 0.0000 1753.1294 -7640.6324 293.5823 -9393.7618 -7640.6324 293.5823 -31.6120 43.9344 31206.0067 -31.6120 43.9344
ENERGY: 300000 1.4707 1.5652 3.4244 0.0000 -10732.2167 1337.0924 0.0000 0.0000 1776.2750 -7612.3891 297.4583 -9388.6641 -7638.2379 297.5345 -1014.3330 -930.2004 31103.6184 -394.7373 -338.1494
ENERGY: 600000 1.7160 3.9783 0.5786 0.0000 -10840.8470 1482.4954 0.0000 0.0000 1796.6688 -7555.4099 300.8735 -9352.0787 -7634.4339 297.6639 203.3373 302.2903 31159.3999 -206.4534 -141.1547
ENERGY: 900000 2.7162 4.1166 3.6219 0.0000 -10989.6412 1488.7707 0.0000 0.0000 1743.1565 -7747.2593 291.9122 -9490.4158 -7638.9635 298.1359 124.2128 150.6957 30410.1743 -146.7053 -86.0229
ENERGY: 1200000 5.2228 4.2770 4.8024 0.0000 -10861.2530 1472.0024 0.0000 0.0000 1792.9520 -7581.9965 300.2511 -9374.9484 -7635.8064 297.6828 -17.2867 34.5665 30846.9600 -79.6029 -13.7667
ENERGY: 1500000 4.5363 1.6438 7.3479 0.0000 -10943.1126 1391.0391 0.0000 0.0000 1755.5118 -7783.0336 293.9813 -9538.5455 -7637.4145 298.2838 -1057.3981 -1017.4985 31215.2742 -174.6836 -115.5872
TCL: Running FEP window   8: Lambda1 0.6499999999999997 Lambda2 0.5999999999999996 [dLambda -0.050000000000000044]
TCL: Setting parameter firsttimestep to 0
TCL: Setting parameter alchLambda to 0.6499999999999997
Info: NONBONDED TABLE R-SQUARED SPACING: 0.0625
Info: NONBONDED TABLE SIZE: 705 POINTS
TCL: Setting parameter alchLambda2 to 0.5999999999999996
Info: NONBONDED TABLE R-SQUARED SPACING: 0.0625
Info: NONBONDED TABLE SIZE: 705 POINTS
TCL: Running for 1500000 steps
ETITLE: TS BOND ANGLE DIHED IMPRP ELECT VDW BOUNDARY MISC KINETIC TOTAL TEMP POTENTIAL TOTALAVG TEMPAVG PRESSURE GPRESSURE VOLUME PRESSAVG GPRESSAVG
ENERGY: 0 4.5363 1.6438 7.3479 0.0000 -10940.3236 1390.0768 0.0000 0.0000 1754.6283 -7782.0904 293.8333 -9536.7187 -7782.0904 293.8333 -1113.7271 -1026.6270 31215.2742 -1113.7271 -1026.6270
ENERGY: 300000 2.8047 4.3866 5.9202 0.0000 -10835.9482 1395.0672 0.0000 0.0000 1850.8120 -7576.9574 309.9404 -9427.7694 -7657.1485 301.4906 -628.8063 -653.2530 30938.0506 -212.5155 -178.9428
ENERGY: 600000 3.8426 1.9707 7.4134 0.0000 -10802.0710 1428.4481 0.0000 0.0000 1856.5052 -7503.8909 310.8938 -9360.3961 -7632.5509 303.2504 105.0957 186.7873 30753.7388 -134.8326 -100.3646
ENERGY: 900000 6.2284 2.7365 1.8007 0.0000 -10751.5595 1344.7067 0.0000 0.0000 1834.8648 -7561.2224 307.2699 -9396.0873 -7627.2170 302.8071 -639.7435 -632.9458 30567.2829 -155.9709 -132.2991
ENERGY: 1200000 2.3636 3.0027 3.5231 0.0000 -10892.9494 1462.1546 0.0000 0.0000 1780.9496 -7640.9557 298.2411 -9421.9054 -7625.4126 302.4972 -23.6320 19.9160 30748.9912 -50.6342 -19.0490
ENERGY: 1500000 3.3857 2.4996 3.5856 0.0000 -10883.0098 1503.6108 0.0000 0.0000 1817.5514 -7552.3768 304.3705 -9369.9282 -7614.2038 301.8134 285.0312 358.3835 31172.9864 -156.1077 -122.9541
TCL: Running FEP window   9: Lambda1 0.5999999999999996 Lambda2 0.5499999999999996 [dLambda -0.050000000000000044]
TCL: Setting parameter firsttimestep to 0
TCL: Setting parameter alchLambda to 0.5999999999999996
Info: NONBONDED TABLE R-SQUARED SPACING: 0.0625
Info: NONBONDED TABLE SIZE: 705 POINTS
TCL: Setting parameter alchLambda2 to 0.5499999999999996
Info: NONBONDED TABLE R-SQUARED SPACING: 0.0625
Info: NONBONDED TABLE SIZE: 705 POINTS
TCL: Running for 1500000 steps
ETITLE: TS BOND ANGLE DIHED IMPRP ELECT VDW BOUNDARY MISC KINETIC TOTAL TEMP POTENTIAL TOTALAVG TEMPAVG PRESSURE GPRESSURE VOLUME PRESSAVG GPRESSAVG
ENERGY: 0 3.3857 2.4996 3.5856 0.0000 -10881.1701 1503.7985 0.0000 0.0000 1816.6462 -7551.2546 304.2190 -9367.9008 -7551.2546 304.2190 272.4248 354.4889 31172.9864 272.4248 354.4889
ENERGY: 300000 5.4466 1.8279 3.6812 0.0000 -10781.6302 1396.0642 0.0000 0.0000 1735.3880 -7639.2221 290.6113 -9374.6101 -7576.9256 301.4813 -483.2105 -332.3023 30659.3319 186.5936 255.0781
ENERGY: 600000 3.5175 6.7181 1.8448 0.0000 -10804.3977 1496.1240 0.0000 0.0000 1789.0099 -7507.1834 299.5909 -9296.1933 -7564.3043 302.0852 511.5454 548.4349 31010.5691 240.0487 291.6805
ENERGY: 900000 4.7645 4.5381 2.7551 0.0000 -10910.3843 1444.6746 0.0000 0.0000 1788.5922 -7665.0597 299.5210 -9453.6519 -7586.0611 301.1955 -335.8044 -292.1184 31021.6509 149.0155 196.4881
ENERGY: 1200000 1.8785 3.2503 3.0296 0.0000 -10999.2388 1508.7816 0.0000 0.0000 1818.1692 -7664.1296 304.4740 -9482.2988 -7601.8778 300.7135 306.6665 385.6507 30573.1922 112.9003 164.7226
ENERGY: 1500000 3.0256 3.3212 3.2502 0.0000 -10901.2735 1435.6631 0.0000 0.0000 1773.6344 -7682.3788 297.0161 -9456.0133 -7609.2929 300.9648 -527.4797 -399.9275 30917.7818 96.0369 154.7916
TCL: Running FEP window  10: Lambda1 0.5499999999999996 Lambda2 0.4999999999999996 [dLambda -0.04999999999999999]
TCL: Setting parameter firsttimestep to 0
TCL: Setting parameter alchLambda to 0.5499999999999996
Info: NONBONDED TABLE R-SQUARED SPACING: 0.0625
Info: NONBONDED TABLE SIZE: 705 POINTS
TCL: Setting parameter alchLambda2 to 0.4999999999999996
Info: NONBONDED TABLE R-SQUARED SPACING: 0.0625
Info: NONBONDED TABLE SIZE: 705 POINTS
TCL: Running for 1500000 steps
ETITLE: TS BOND ANGLE DIHED IMPRP ELECT VDW BOUNDARY MISC KINETIC TOTAL TEMP POTENTIAL TOTALAVG TEMPAVG PRESSURE GPRESSURE VOLUME PRESSAVG GPRESSAVG
ENERGY: 0 3.0256 3.3212 3.2502 0.0000 -10899.9169 1435.8375 0.0000 0.0000 1772.7147 -7681.7676 296.8621 -9454.4823 -7681.7676 296.8621 -466.4124 -399.6022 30917.7818 -466.4124 -399.6022
ENERGY: 300000 3.5530 2.9688 2.4887 0.0000 -10863.7604 1425.5991 0.0000 0.0000 1773.7854 -7655.3653 297.0414 -9429.1508 -7659.9292 300.6283 -584.4861 -440.7154 30935.6200 -76.9108 -14.9175
ENERGY: 600000 4.0949 3.0995 1.2106 0.0000 -10788.8467 1427.6480 0.0000 0.0000 1807.3441 -7545.4496 302.6612 -9352.7937 -7632.6201 301.5616 -407.7185 -334.5870 31291.2324 7.6041 53.6455
ENERGY: 900000 2.1351 3.4813 3.4594 0.0000 -10792.2409 1473.6000 0.0000 0.0000 1865.0683 -7444.4968 312.3278 -9309.5651 -7623.5538 301.8793 442.3761 425.7456 30852.7268 150.5793 186.0242
ENERGY: 1200000 3.3982 6.2648 5.3250 0.0000 -10724.4709 1385.4195 0.0000 0.0000 1750.0200 -7574.0435 293.0616 -9324.0635 -7617.2062 301.5943 -475.7430 -435.7400 31529.3367 58.5714 98.7194
ENERGY: 1500000 3.1478 4.6905 6.6150 0.0000 -10856.1799 1469.6086 0.0000 0.0000 1770.5390 -7601.5789 296.4978 -9372.1179 -7612.7271 301.3358 371.6491 427.4427 30371.7789 43.1319 85.6060
TCL: Running FEP window  11: Lambda1 0.4999999999999996 Lambda2 0.4499999999999996 [dLambda -0.04999999999999999]
TCL: Setting parameter firsttimestep to 0
TCL: Setting parameter alchLambda to 0.4999999999999996
Info: NONBONDED TABLE R-SQUARED SPACING: 0.0625
Info: NONBONDED TABLE SIZE: 705 POINTS
TCL: Setting parameter alchLambda2 to 0.4499999999999996
Info: NONBONDED TABLE R-SQUARED SPACING: 0.0625
Info: NONBONDED TABLE SIZE: 705 POINTS
TCL: Running for 1500000 steps
ETITLE: TS BOND ANGLE DIHED IMPRP ELECT VDW BOUNDARY MISC KINETIC TOTAL TEMP POTENTIAL TOTALAVG TEMPAVG PRESSURE GPRESSURE VOLUME PRESSAVG GPRESSAVG
ENERGY: 0 3.1479 4.6905 6.6150 0.0000 -10855.7129 1469.6175 0.0000 0.0000 1769.6560 -7601.9860 296.3499 -9371.6420 -7601.9860 296.3499 347.0864 422.8025 30371.7789 347.0864 422.8025
ENERGY: 300000 1.9294 3.4358 8.0362 0.0000 -10706.7218 1343.6951 0.0000 0.0000 1787.0566 -7562.5688 299.2638 -9349.6254 -7611.6998 295.5374 -949.3175 -835.2128 31017.6688 126.3076 198.4392
ENERGY: 600000 4.8589 3.4232 4.3834 0.0000 -10777.2780 1366.7696 0.0000 0.0000 1786.1328 -7611.7100 299.1091 -9397.8428 -7595.6200 298.6017 -670.6128 -549.5370 30511.8201 59.4794 126.0691
ENERGY: 900000 1.1426 6.1108 3.6810 0.0000 -10987.5763 1488.5457 0.0000 0.0000 1754.0668 -7734.0293 293.7393 -9488.0961 -7603.2751 299.8583 229.2562 241.8428 30399.5669 187.1548 252.8933
ENERGY: 1200000 3.0159 4.1793 4.2748 0.0000 -10808.0042 1440.0574 0.0000 0.0000 1831.6421 -7524.8346 306.7302 -9356.4768 -7600.2081 299.3253 -110.2256 -19.6423 30997.4772 24.7112 99.4120
ENERGY: 1500000 4.4666 6.0638 2.2129 0.0000 -10933.5675 1493.8121 0.0000 0.0000 1747.8507 -7679.1614 292.6983 -9427.0120 -7605.6964 299.0418 -99.8244 -46.8626 31119.5120 23.6939 98.4198
TCL: Running FEP window  12: Lambda1 0.4499999999999996 Lambda2 0.39999999999999963 [dLambda -0.04999999999999999]
TCL: Setting parameter firsttimestep to 0
TCL: Setting parameter alchLambda to 0.4499999999999996
Info: NONBONDED TABLE R-SQUARED SPACING: 0.0625
Info: NONBONDED TABLE SIZE: 705 POINTS
TCL: Setting parameter alchLambda2 to 0.39999999999999963
Info: NONBONDED TABLE R-SQUARED SPACING: 0.0625
Info: NONBONDED TABLE SIZE: 705 POINTS
TCL: Running for 1500000 steps
ETITLE: TS BOND ANGLE DIHED IMPRP ELECT VDW BOUNDARY MISC KINETIC TOTAL TEMP POTENTIAL TOTALAVG TEMPAVG PRESSURE GPRESSURE VOLUME PRESSAVG GPRESSAVG
ENERGY: 0 4.4666 6.0638 2.2129 0.0000 -10933.5681 1493.8403 0.0000 0.0000 1746.9862 -7679.9982 292.5536 -9426.9844 -7679.9982 292.5536 -132.5528 -50.3743 31119.5120 -132.5528 -50.3743
ENERGY: 300000 6.2498 2.4786 4.7503 0.0000 -10826.9938 1426.7885 0.0000 0.0000 1792.4155 -7594.3111 300.1612 -9386.7267 -7657.7114 296.4350 -316.3563 -243.2577 30842.0198 6.4705 91.0003
ENERGY: 600000 6.3642 2.1846 3.2008 0.0000 -10854.4022 1434.8614 0.0000 0.0000 1814.4707 -7593.3204 303.8546 -9407.7911 -7637.7778 297.4413 -123.5296 -61.7503 30448.1352 -225.1949 -141.5652
ENERGY: 900000 2.1816 7.4605 9.2854 0.0000 -10797.1749 1405.6675 0.0000 0.0000 1798.5047 -7574.0752 301.1809 -9372.5799 -7618.0755 298.9851 -17.2336 27.3291 30530.4217 -220.5130 -148.8157
ENERGY: 1200000 2.9226 3.5561 2.0947 0.0000 -10872.6970 1431.5290 0.0000 0.0000 1782.7820 -7649.8127 298.5480 -9432.5946 -7623.4405 298.5554 -583.1186 -505.7267 31129.3674 -126.7937 -58.4188
ENERGY: 1500000 2.6341 5.4849 3.9898 0.0000 -10816.8614 1437.9543 0.0000 0.0000 1818.9187 -7547.8796 304.5995 -9366.7983 -7608.4348 298.9246 -90.7303 -23.7811 30652.8503 -60.7128 9.3904
TCL: Running FEP window  13: Lambda1 0.39999999999999963 Lambda2 0.34999999999999964 [dLambda -0.04999999999999999]
TCL: Setting parameter firsttimestep to 0
TCL: Setting parameter alchLambda to 0.39999999999999963
Info: NONBONDED TABLE R-SQUARED SPACING: 0.0625
Info: NONBONDED TABLE SIZE: 705 POINTS
TCL: Setting parameter alchLambda2 to 0.34999999999999964
Info: NONBONDED TABLE R-SQUARED SPACING: 0.0625
Info: NONBONDED TABLE SIZE: 705 POINTS
TCL: Running for 1500000 steps
ETITLE: TS BOND ANGLE DIHED IMPRP ELECT VDW BOUNDARY MISC KINETIC TOTAL TEMP POTENTIAL TOTALAVG TEMPAVG PRESSURE GPRESSURE VOLUME PRESSAVG GPRESSAVG
ENERGY: 0 2.6341 5.4849 3.9898 0.0000 -10816.8621 1438.5116 0.0000 0.0000 1818.0260 -7548.2156 304.4500 -9366.2416 -7548.2156 304.4500 -120.4499 -25.5982 30652.8503 -120.4499 -25.5982
ENERGY: 300000 2.3765 3.6917 4.4554 0.0000 -10825.6639 1494.7078 0.0000 0.0000 1831.8812 -7488.5513 306.7702 -9320.4325 -7572.4166 302.4606 151.4996 288.9852 31071.0849 246.4252 314.1557
ENERGY: 600000 2.3782 4.3457 1.7574 0.0000 -11039.2563 1580.7530 0.0000 0.0000 1770.2559 -7679.7662 296.4503 -9450.0221 -7608.3293 301.4108 987.4620 1038.7200 30258.6518 503.7368 560.0782
ENERGY: 900000 3.8155 3.2545 5.8049 0.0000 -10885.5629 1508.5413 0.0000 0.0000 1828.1290 -7536.0178 306.1419 -9364.1467 -7618.1876 300.6723 439.2252 503.2385 30822.4502 463.0495 521.0551
ENERGY: 1200000 1.4986 1.3702 3.0154 0.0000 -10972.2141 1511.7078 0.0000 0.0000 1797.0388 -7657.5834 300.9355 -9454.6222 -7625.5941 300.1249 328.4197 316.8379 30589.3967 397.5159 445.4688
ENERGY: 1500000 6.2101 5.8476 1.5521 0.0000 -10797.3061 1393.1080 0.0000 0.0000 1840.5498 -7550.0385 308.2219 -9390.5883 -7623.9650 300.8295 -357.8425 -261.9082 30528.3515 259.3394 312.2325
TCL: Running FEP window  14: Lambda1 0.34999999999999964 Lambda2 0.29999999999999966 [dLambda -0.04999999999999999]
TCL: Setting parameter firsttimestep to 0
TCL: Setting parameter alchLambda to 0.34999999999999964
Info: NONBONDED TABLE R-SQUARED SPACING: 0.0625
Info: NONBONDED TABLE SIZE: 705 POINTS
TCL: Setting parameter alchLambda2 to 0.29999999999999966
Info: NONBONDED TABLE R-SQUARED SPACING: 0.0625
Info: NONBONDED TABLE SIZE: 705 POINTS
TCL: Running for 1500000 steps
ETITLE: TS BOND ANGLE DIHED IMPRP ELECT VDW BOUNDARY MISC KINETIC TOTAL TEMP POTENTIAL TOTALAVG TEMPAVG PRESSURE GPRESSURE VOLUME PRESSAVG GPRESSAVG
ENERGY: 0 6.2101 5.8476 1.5521 0.0000 -10797.3056 1393.1585 0.0000 0.0000 1839.6784 -7550.8590 308.0760 -9390.5374 -7550.8590 308.0760 -362.1844 -268.6550 30528.3515 -362.1844 -268.6550
ENERGY: 300000 3.9207 2.6918 4.3464 0.0000 -10838.5351 1477.5351 0.0000 0.0000 1753.9599 -7596.0811 293.7214 -9350.0410 -7581.7986 298.9124 -89.6991 -6.0881 31324.3026 -245.3568 -141.4831
ENERGY: 600000 1.0536 4.7754 1.3933 0.0000 -10957.5273 1474.8670 0.0000 0.0000 1764.3819 -7711.0560 295.4667 -9475.4379 -7632.8659 295.8175 -108.9761 -45.0605 30924.0627 -304.2922 -211.8631
ENERGY: 900000 5.6640 1.9183 2.4449 0.0000 -10899.0403 1503.5484 0.0000 0.0000 1811.1715 -7574.2932 303.3021 -9385.4647 -7605.9143 297.3665 430.6148 479.9808 30440.3435 -169.4867 -90.7623
ENERGY: 1200000 2.2634 4.6652 5.4847 0.0000 -10878.5720 1496.1549 0.0000 0.0000 1825.3519 -7544.6519 305.6768 -9370.0038 -7594.6701 298.4248 240.5501 277.6166 30912.7484 -74.4186 0.8555
ENERGY: 1500000 3.5720 1.4190 2.7703 0.0000 -10709.3828 1364.6898 0.0000 0.0000 1831.1842 -7505.7475 306.6535 -9336.9317 -7592.5142 299.5442 -562.8008 -462.3681 30626.9185 -99.0908 -22.6058
TCL: Running FEP window  15: Lambda1 0.29999999999999966 Lambda2 0.24999999999999967 [dLambda -0.04999999999999999]
TCL: Setting parameter firsttimestep to 0
TCL: Setting parameter alchLambda to 0.29999999999999966
Info: NONBONDED TABLE R-SQUARED SPACING: 0.0625
Info: NONBONDED TABLE SIZE: 705 POINTS
TCL: Setting parameter alchLambda2 to 0.24999999999999967
Info: NONBONDED TABLE R-SQUARED SPACING: 0.0625
Info: NONBONDED TABLE SIZE: 705 POINTS
TCL: Running for 1500000 steps
ETITLE: TS BOND ANGLE DIHED IMPRP ELECT VDW BOUNDARY MISC KINETIC TOTAL TEMP POTENTIAL TOTALAVG TEMPAVG PRESSURE GPRESSURE VOLUME PRESSAVG GPRESSAVG
ENERGY: 0 3.5720 1.4190 2.7703 0.0000 -10709.3811 1365.1313 0.0000 0.0000 1830.3296 -7506.1588 306.5104 -9336.4885 -7506.1588 306.5104 -561.2000 -466.1365 30626.9185 -561.2000 -466.1365
ENERGY: 300000 2.1554 2.3133 4.7719 0.0000 -10786.2178 1437.0712 0.0000 0.0000 1790.1090 -7549.7971 299.7750 -9339.9061 -7563.1283 302.8753 -90.7176 -41.5034 31044.6256 -308.1641 -251.9239
ENERGY: 600000 2.7196 3.5357 3.8128 0.0000 -10925.4540 1539.7166 0.0000 0.0000 1755.9622 -7619.7071 294.0567 -9375.6693 -7570.3191 302.1603 378.8245 448.0793 31350.6831 -266.7825 -195.5309
ENERGY: 900000 4.3691 5.1327 5.2774 0.0000 -10910.9394 1486.5828 0.0000 0.0000 1794.3505 -7615.2268 300.4853 -9409.5774 -7586.8061 301.4951 -44.2676 0.6399 30754.7521 -148.8121 -83.9661
ENERGY: 1200000 1.7509 3.6443 4.5652 0.0000 -10886.8856 1462.7619 0.0000 0.0000 1804.1906 -7609.9727 302.1331 -9414.1632 -7595.3547 301.7269 -115.5109 22.4423 30960.5707 -138.5415 -65.0895
ENERGY: 1500000 4.1352 5.5977 5.1115 0.0000 -11001.6298 1541.1862 0.0000 0.0000 1830.8995 -7614.6998 306.6058 -9445.5993 -7600.3456 301.7977 399.1751 463.8874 30587.4464 -167.1214 -93.4716
TCL: Running FEP window  16: Lambda1 0.24999999999999967 Lambda2 0.19999999999999968 [dLambda -0.04999999999999999]
TCL: Setting parameter firsttimestep to 0
TCL: Setting parameter alchLambda to 0.24999999999999967
Info: NONBONDED TABLE R-SQUARED SPACING: 0.0625
Info: NONBONDED TABLE SIZE: 705 POINTS
TCL: Setting parameter alchLambda2 to 0.19999999999999968
Info: NONBONDED TABLE R-SQUARED SPACING: 0.0625
Info: NONBONDED TABLE SIZE: 705 POINTS
TCL: Running for 1500000 steps
ETITLE: TS BOND ANGLE DIHED IMPRP ELECT VDW BOUNDARY MISC KINETIC TOTAL TEMP POTENTIAL TOTALAVG TEMPAVG PRESSURE GPRESSURE VOLUME PRESSAVG GPRESSAVG
ENERGY: 0 4.1352 5.5977 5.1115 0.0000 -11001.6294 1541.6637 0.0000 0.0000 1829.9836 -7615.1377 306.4525 -9445.1213 -7615.1377 306.4525 388.3868 463.6473 30587.4464 388.3868 463.6473
ENERGY: 300000 3.5879 2.9638 3.7435 0.0000 -10970.7590 1508.3960 0.0000 0.0000 1801.9192 -7650.1486 301.7527 -9452.0678 -7635.1712 303.2229 230.6999 243.3074 30382.8627 200.9226 237.6516
ENERGY: 600000 12.2293 4.3700 4.8954 0.0000 -10732.1200 1378.0815 0.0000 0.0000 1780.0298 -7552.5141 298.0871 -9332.5439 -7606.2115 302.3027 -878.2740 -806.9752 30869.4806 67.9889 121.1179
ENERGY: 900000 3.0760 3.1311 3.7681 0.0000 -10938.3325 1463.3980 0.0000 0.0000 1772.8458 -7692.1135 296.8841 -9464.9593 -7608.2057 301.2744 -125.7797 -102.2697 30684.2446 43.2481 94.6654
ENERGY: 1200000 4.8063 2.5797 3.9403 0.0000 -10923.1933 1480.1669 0.0000 0.0000 1825.0495 -7606.6506 305.6262 -9431.7001 -7610.4770 301.0254 7.2856 21.8420 30742.6673 -9.0233 43.4729
ENERGY: 1500000 6.8745 4.4560 2.5554 0.0000 -10807.0359 1385.7595 0.0000 0.0000 1772.4973 -7634.8931 296.8257 -9407.3904 -7617.9595 300.3678 -925.2670 -818.0074 30854.5525 -86.6039 -31.4609
TCL: Running FEP window  17: Lambda1 0.19999999999999968 Lambda2 0.1499999999999997 [dLambda -0.04999999999999999]
TCL: Setting parameter firsttimestep to 0
TCL: Setting parameter alchLambda to 0.19999999999999968
Info: NONBONDED TABLE R-SQUARED SPACING: 0.0625
Info: NONBONDED TABLE SIZE: 705 POINTS
TCL: Setting parameter alchLambda2 to 0.1499999999999997
Info: NONBONDED TABLE R-SQUARED SPACING: 0.0625
Info: NONBONDED TABLE SIZE: 705 POINTS
TCL: Running for 1500000 steps
ETITLE: TS BOND ANGLE DIHED IMPRP ELECT VDW BOUNDARY MISC KINETIC TOTAL TEMP POTENTIAL TOTALAVG TEMPAVG PRESSURE GPRESSURE VOLUME PRESSAVG GPRESSAVG
ENERGY: 0 6.8745 4.4560 2.5554 0.0000 -10807.0355 1385.9607 0.0000 0.0000 1771.6100 -7635.5790 296.6771 -9407.1889 -7635.5790 296.6771 -920.7646 -822.1605 30854.5525 -920.7646 -822.1605
ENERGY: 300000 9.6265 2.7352 2.1405 0.0000 -10726.9188 1401.7217 0.0000 0.0000 1895.9926 -7414.7023 317.5064 -9310.6948 -7603.9327 301.4017 -402.6633 -312.0226 30796.2295 -424.8600 -343.5653
ENERGY: 600000 2.9433 3.4241 3.9206 0.0000 -10927.5255 1484.3688 0.0000 0.0000 1718.9093 -7713.9592 287.8518 -9432.8686 -7624.0252 297.1091 74.0854 161.6032 30692.0166 -268.4218 -192.8911
ENERGY: 900000 2.1152 4.2800 4.6303 0.0000 -10771.7465 1459.6984 0.0000 0.0000 1848.5737 -7452.4489 309.5656 -9301.0226 -7604.9019 298.2721 208.9693 303.0811 30978.6098 -303.2119 -234.6853
ENERGY: 1200000 5.2245 5.6743 3.9720 0.0000 -10934.2326 1454.2797 0.0000 0.0000 1813.7059 -7651.3762 303.7266 -9465.0821 -7605.0468 298.1426 -551.2083 -453.9288 30904.3845 -193.5850 -114.8252
ENERGY: 1500000 4.5565 3.9284 3.0697 0.0000 -10820.9348 1453.7874 0.0000 0.0000 1792.2797 -7563.3132 300.1385 -9355.5929 -7610.5099 298.3518 -300.2470 -210.6384 31032.6295 -161.7970 -88.9330
TCL: Running FEP window  18: Lambda1 0.1499999999999997 Lambda2 0.09999999999999969 [dLambda -0.05 ]
TCL: Setting parameter firsttimestep to 0
TCL: Setting parameter alchLambda to 0.1499999999999997
Info: NONBONDED TABLE R-SQUARED SPACING: 0.0625
Info: NONBONDED TABLE SIZE: 705 POINTS
TCL: Setting parameter alchLambda2 to 0.09999999999999969
Info: NONBONDED TABLE R-SQUARED SPACING: 0.0625
Info: NONBONDED TABLE SIZE: 705 POINTS
TCL: Running for 1500000 steps
ETITLE: TS BOND ANGLE DIHED IMPRP ELECT VDW BOUNDARY MISC KINETIC TOTAL TEMP POTENTIAL TOTALAVG TEMPAVG PRESSURE GPRESSURE VOLUME PRESSAVG GPRESSAVG
ENERGY: 0 4.5565 3.9284 3.0697 0.0000 -10820.9345 1453.3689 0.0000 0.0000 1791.4054 -7564.6056 299.9921 -9356.0110 -7564.6056 299.9921 -301.1613 -214.3739 31032.6295 -301.1613 -214.3739
ENERGY: 300000 2.4797 2.4869 3.4273 0.0000 -10963.6333 1514.1714 0.0000 0.0000 1823.6224 -7617.4457 305.3872 -9441.0681 -7607.2831 299.6685 219.9272 237.8068 30742.3852 -261.5034 -191.7416
ENERGY: 600000 1.3571 3.6947 2.5229 0.0000 -10650.3873 1359.5424 0.0000 0.0000 1759.8165 -7523.4536 294.7021 -9283.2701 -7604.9974 300.3994 -519.7182 -512.2774 31476.9003 -364.8700 -310.6386
ENERGY: 900000 4.1948 2.5214 3.1253 0.0000 -10857.9619 1381.9664 0.0000 0.0000 1822.9655 -7643.1885 305.2772 -9466.1540 -7615.7829 299.9450 -932.0056 -934.9260 30816.7014 -337.0146 -282.5741
ENERGY: 1200000 4.8797 1.7518 5.2450 0.0000 -10872.1936 1429.9028 0.0000 0.0000 1807.7658 -7622.6485 302.7318 -9430.4143 -7620.4181 300.3818 -534.2784 -498.6613 30826.2162 -361.6373 -310.1660
ENERGY: 1500000 4.3178 2.2494 3.2556 0.0000 -10811.8380 1438.1254 0.0000 0.0000 1809.2587 -7554.6311 302.9818 -9363.8898 -7617.4225 300.0961 -38.3209 -8.6272 30738.2777 -332.6026 -282.3899
TCL: Running FEP window  19: Lambda1 0.09999999999999969 Lambda2 0.049999999999999684 [dLambda -0.05 ]
TCL: Setting parameter firsttimestep to 0
TCL: Setting parameter alchLambda to 0.09999999999999969
Info: NONBONDED TABLE R-SQUARED SPACING: 0.0625
Info: NONBONDED TABLE SIZE: 705 POINTS
TCL: Setting parameter alchLambda2 to 0.049999999999999684
Info: NONBONDED TABLE R-SQUARED SPACING: 0.0625
Info: NONBONDED TABLE SIZE: 705 POINTS
TCL: Running for 1500000 steps
ETITLE: TS BOND ANGLE DIHED IMPRP ELECT VDW BOUNDARY MISC KINETIC TOTAL TEMP POTENTIAL TOTALAVG TEMPAVG PRESSURE GPRESSURE VOLUME PRESSAVG GPRESSAVG
ENERGY: 0 4.3178 2.2494 3.2556 0.0000 -10811.8380 1438.4338 0.0000 0.0000 1808.3841 -7555.1974 302.8354 -9363.5814 -7555.1974 302.8354 -95.2631 -12.6144 30738.2777 -95.2631 -12.6144
ENERGY: 300000 3.5030 6.1665 3.7461 0.0000 -10771.1554 1419.2881 0.0000 0.0000 1828.4577 -7509.9940 306.1969 -9338.4517 -7589.8079 299.2024 -275.6713 -265.9907 30830.4061 -130.7813 -85.8119
ENERGY: 600000 1.7029 2.2777 5.9825 0.0000 -10898.5945 1497.8256 0.0000 0.0000 1813.6143 -7577.1915 303.7112 -9390.8058 -7592.0656 299.3093 144.3270 207.8368 31118.8314 -7.8228 54.7728
ENERGY: 900000 2.1405 4.0789 7.6121 0.0000 -10716.6274 1425.9426 0.0000 0.0000 1762.8788 -7513.9745 295.2150 -9276.8533 -7598.5269 298.7922 151.0003 161.4436 30868.9343 -12.0460 46.0935
ENERGY: 1200000 2.1228 6.5213 3.8519 0.0000 -10837.9479 1377.9612 0.0000 0.0000 1812.9006 -7634.5902 303.5917 -9447.4907 -7590.7902 299.0818 -793.7742 -748.3395 30542.9829 -74.1902 -12.8581
ENERGY: 1500000 3.4193 5.4902 4.4499 0.0000 -10960.7507 1469.8430 0.0000 0.0000 1705.8141 -7771.7343 285.6588 -9477.5484 -7619.5137 297.3872 -488.0176 -424.2708 30782.4756 -70.1406 -5.8764
TCL: Running FEP window  20: Lambda1 0.049999999999999684 Lambda2 0.0    [dLambda -0.049999999999999684]
TCL: Setting parameter firsttimestep to 0
TCL: Setting parameter alchLambda to 0.049999999999999684
Info: NONBONDED TABLE R-SQUARED SPACING: 0.0625
Info: NONBONDED TABLE SIZE: 705 POINTS
TCL: Setting parameter alchLambda2 to 0.0
Info: NONBONDED TABLE R-SQUARED SPACING: 0.0625
Info: NONBONDED TABLE SIZE: 705 POINTS
TCL: Running for 1500000 steps
ETITLE: TS BOND ANGLE DIHED IMPRP ELECT VDW BOUNDARY MISC KINETIC TOTAL TEMP POTENTIAL TOTALAVG TEMPAVG PRESSURE GPRESSURE VOLUME PRESSAVG GPRESSAVG
ENERGY: 0 3.4193 5.4902 4.4499 0.0000 -10960.7501 1469.1207 0.0000 0.0000 1704.9215 -7773.3486 285.5093 -9478.2701 -7773.3486 285.5093 -515.6681 -431.3574 30782.4756 -515.6681 -431.3574
ENERGY: 300000 2.2178 3.2846 2.9277 0.0000 -10820.7708 1476.1379 0.0000 0.0000 1866.4147 -7469.7881 312.5533 -9336.2028 -7613.2797 298.4677 -3.6585 50.9934 31511.9384 44.5591 109.4021
ENERGY: 600000 2.5735 5.0650 4.7296 0.0000 -10834.8042 1486.8369 0.0000 0.0000 1771.4308 -7564.1684 296.6471 -9335.5992 -7597.3942 298.1486 270.3703 288.6017 30874.7347 65.3927 117.6687
ENERGY: 900000 1.9900 4.1574 5.5986 0.0000 -11040.8042 1576.7234 0.0000 0.0000 1804.6659 -7647.6690 302.2127 -9452.3349 -7610.0367 298.8946 973.9549 1048.0929 30218.9966 68.4298 113.9914
ENERGY: 1200000 1.8599 4.3852 8.5617 0.0000 -10898.3397 1491.7626 0.0000 0.0000 1784.1014 -7607.6689 298.7689 -9391.7703 -7603.9885 299.6157 352.4485 387.2785 30528.1924 147.6720 192.3320
ENERGY: 1500000 4.6985 6.1134 4.9073 0.0000 -10720.2366 1365.3617 0.0000 0.0000 1735.3857 -7603.7701 290.6109 -9339.1557 -7608.2324 298.1974 -799.2887 -775.0063 30662.5130 -8.9413 38.0519
TCL: Exiting due to exit command.
