Info: SIMULATION PARAMETERS:
Info: TIMESTEP               2
Info: NUMBER OF STEPS        0
Info: STEPS PER CYCLE        10
Info: PERIODIC CELL BASIS 1  30.5081 0 0
Info: PERIODIC CELL BASIS 2  0 29.915 0
Info: PERIODIC CELL BASIS 3  0 0 33.173
Info: PERIODIC CELL CENTER   0 0 0
Info: WRAPPING WATERS AROUND PERIODIC BOUNDARIES ON OUTPUT.
Info: WRAPPING ALL CLUSTERS AROUND PERIODIC BOUNDARIES ON OUTPUT.
Info: FIRST LDB TIMESTEP     50
Info: LAST LDB TIMESTEP     -1
Info: HOM BACKGROUND SCALING 1
Info: PME BACKGROUND SCALING 1
Info: MIN ATOMS PER PATCH    40
Info: EMPTY PATCH LOAD       40 ATOMS
Info: VELOCITY FILE          mobley_1046331_equil.vel
Info: CENTER OF MASS MOVING INITIALLY? NO
Info: DIELECTRIC             1
Info: EXCLUDE                SCALED ONE-FOUR
Info: 1-4 ELECTROSTATICS SCALED BY 0.833333
Info: MODIFIED 1-4 VDW PARAMETERS WILL BE USED
Info: DCD FILENAME           mobley_1046331_prod.dcd
Info: DCD FREQUENCY          100000
Info: DCD FIRST STEP         100000
Info: DCD FILE WILL CONTAIN UNIT CELL DATA
Info: XST FILENAME           mobley_1046331_prod.xst
Info: XST FREQUENCY          100000
Info: NO VELOCITY DCD OUTPUT
Info: NO FORCE DCD OUTPUT
Info: OUTPUT FILENAME        mobley_1046331_prod
Info: BINARY OUTPUT FILES WILL BE USED
Info: RESTART FILENAME       mobley_1046331_prod.restart
Info: RESTART FREQUENCY      100000
Info: BINARY RESTART FILES WILL BE USED
Info: CUTOFF                 9
Info: PAIRLIST DISTANCE      11
Info: PAIRLIST SHRINK RATE   0.01
Info: PAIRLIST GROW RATE     0.01
Info: PAIRLIST TRIGGER       0.3
Info: PAIRLISTS PER CYCLE    2
Info: PAIRLISTS ENABLED
Info: MARGIN                 2
Info: HYDROGEN GROUP CUTOFF  2.5
Info: PATCH DIMENSION        15.5
Info: ENERGY OUTPUT STEPS    100000
Info: ENERGY EVALUATION STEPS    100000
Info: OUTPUT ENERGY PRECISION 4
Info: CROSSTERM ENERGY INCLUDED IN DIHEDRAL
Info: TIMING OUTPUT STEPS    1000000
Info: PRESSURE OUTPUT STEPS  100000
Info: ALCHEMICAL FEP ON
Info: FEP CURRENT LAMBDA VALUE     0
Info: FEP COMPARISON LAMBDA VALUE  0.05
Info: FEP INTRA-ALCHEMICAL NON-BONDED INTERACTIONS WILL BE RETAINED
Info: FEP INTRA-ALCHEMICAL BONDED INTERACTIONS WILL BE RETAINED
Info: FEP VDW SHIFTING COEFFICIENT 5
Info: FEP ELEC. ACTIVE FOR ANNIHILATED PARTICLES BETWEEN LAMBDA = 0 AND LAMBDA = 0.5
Info: FEP ELEC. ACTIVE FOR EXNIHILATED PARTICLES BETWEEN LAMBDA = 0.5 AND LAMBDA = 1
Info: FEP VDW ACTIVE FOR ANNIHILATED PARTICLES BETWEEN LAMBDA = 0 AND LAMBDA = 1
Info: FEP VDW ACTIVE FOR EXNIHILATED PARTICLES BETWEEN LAMBDA = 0 AND LAMBDA = 1
Info: FEP BOND ACTIVE FOR ANNIHILATED PARTICLES BETWEEN LAMBDA = 1 AND LAMBDA = 1
Info: FEP BOND ACTIVE FOR EXNIHILATED PARTICLES BETWEEN LAMBDA = 0 AND LAMBDA = 0
Info: LANGEVIN DYNAMICS ACTIVE
Info: LANGEVIN TEMPERATURE   300
Info: LANGEVIN USING BBK INTEGRATOR
Info: LANGEVIN DAMPING COEFFICIENT IS 1 INVERSE PS
Info: LANGEVIN DYNAMICS APPLIED TO HYDROGENS
Info: LANGEVIN PISTON PRESSURE CONTROL ACTIVE
Info:        TARGET PRESSURE IS 1.01325 BAR
Info:     OSCILLATION PERIOD IS 50 FS
Info:             DECAY TIME IS 25 FS
Info:     PISTON TEMPERATURE IS 300 K
Info:       PRESSURE CONTROL IS GROUP-BASED
Info:    INITIAL STRAIN RATE IS -4.76992e-05 -4.76992e-05 -4.76992e-05
Info:       CELL FLUCTUATION IS ISOTROPIC
Info: PARTICLE MESH EWALD (PME) ACTIVE
Info: PME TOLERANCE               1e-06
Info: PME EWALD COEFFICIENT       0.348832
Info: PME INTERPOLATION ORDER     4
Info: PME GRID DIMENSIONS         32 32 36
Info: PME MAXIMUM GRID SPACING    1
Info: PME CALCULATION WILL BE PERFORMED ON GPU
Info: FULL ELECTROSTATIC EVALUATION FREQUENCY      2
Info: USING VERLET I (r-RESPA) MTS SCHEME.
Info: C1 SPLITTING OF LONG RANGE ELECTROSTATICS
Info: PLACING ATOMS IN PATCHES BY HYDROGEN GROUPS
Info: RIGID BONDS TO HYDROGEN : ALL
Info:         ERROR TOLERANCE : 1e-08
Info:          MAX ITERATIONS : 100
Info: RIGID WATER USING SETTLE ALGORITHM
Info: RANDOM NUMBER SEED     1743832819
Info: USE HYDROGEN BONDS?    NO
Info: Using AMBER format force field!
Info: AMBER PARM FILE        mobley_1046331.prmtop
Info: COORDINATE PDB         mobley_1046331.pdb
Info: Exclusions will be read from PARM file!
Info: SCNB (VDW SCALING)     2
Info: USING ARITHMETIC MEAN TO COMBINE L-J SIGMA PARAMETERS
Info: BINARY COORDINATES     mobley_1046331_equil.coor
Info: SUMMARY OF PARAMETERS:
Info: 8 BONDS
Info: 7 ANGLES
Info:   7 HARMONIC
Info:   0 COSINE-BASED
Info: 4 DIHEDRAL
Info: 0 IMPROPER
Info: 0 CROSSTERM
Info: 0 VDW
Info: 28 VDW_PAIRS
Info: 0 NBTHOLE_PAIRS
Info: To read alchdata from file: mobley_1046331.pdb
Info: To read alchflag data from column: 5
Info: STRUCTURE SUMMARY:
Info: 2925 ATOMS
Info: 2925 BONDS
Info: 22 ANGLES
Info: 35 DIHEDRALS
Info: 0 IMPROPERS
Info: 0 CROSSTERMS
Info: 2972 EXCLUSIONS
Info: 2916 RIGID BONDS
Info: ALCH: 0 ATOMS TO DISAPPEAR IN FINAL STATE
Info: ALCH: 15 ATOMS TO APPEAR IN FINAL STATE
Info: 5859 DEGREES OF FREEDOM
Info: 979 HYDROGEN GROUPS
Info: 3 ATOMS IN LARGEST HYDROGEN GROUP
Info: 979 MIGRATION GROUPS
Info: 3 ATOMS IN LARGEST MIGRATION GROUP
Info: TOTAL MASS = 17597.6 amu
Info: TOTAL CHARGE = 0.000100024 e
Info: MASS DENSITY = 0.965218 g/cm^3
Info: ATOM DENSITY = 0.0966135 atoms/A^3
Info: ADDED 0 IMPLICIT EXCLUSIONS
Info: NONBONDED TABLE R-SQUARED SPACING: 0.0625
Info: NONBONDED TABLE SIZE: 705 POINTS
Info: REMOVING COM VELOCITY 0.140836 0.332912 0.0852727
Info: Use 3D box decompostion in PME FFT.
Info: Updated CUDA force table with 4096 elements.
Info: Updated CUDA LJ table with 7 x 7 elements.
Info: Found 17 unique exclusion lists needing 36 bytes
TCL: Running for 1500000 steps
ETITLE: TS BOND ANGLE DIHED IMPRP ELECT VDW BOUNDARY MISC KINETIC TOTAL TEMP POTENTIAL TOTALAVG TEMPAVG PRESSURE GPRESSURE VOLUME PRESSAVG GPRESSAVG
ENERGY: 0 1.9824 1.4484 6.0935 0.0000 -10626.3922 1450.5285 0.0000 0.0000 1693.7741 -7472.5654 290.9527 -9166.3395 -7472.5654 290.9527 -155.7141 -70.3638 30275.2774 -155.7141 -70.3638
ENERGY: 300000 1.8329 6.3818 7.1116 0.0000 -10616.9760 1351.2493 0.0000 0.0000 1798.0087 -7452.3917 308.8579 -9250.4004 -7463.3175 298.8338 -730.3353 -675.1339 30144.8376 -33.6549 54.4073
ENERGY: 600000 1.0353 3.4225 4.6967 0.0000 -10654.4856 1446.1030 0.0000 0.0000 1760.6906 -7438.5374 302.4475 -9199.2281 -7459.8488 297.6350 -217.4758 -157.9157 30397.0850 -114.4778 -41.8835
ENERGY: 900000 3.8356 4.0058 2.1821 0.0000 -10630.1063 1477.1139 0.0000 0.0000 1759.0655 -7383.9035 302.1683 -9142.9690 -7426.7840 299.8686 579.7042 637.8761 29810.6995 -133.8074 -65.3779
ENERGY: 1200000 2.5495 2.5220 5.8451 0.0000 -10711.1961 1521.2560 0.0000 0.0000 1757.5990 -7421.4245 301.9164 -9179.0235 -7427.9344 300.5791 721.8468 750.8717 30053.3747 -70.7743 -2.1114
ENERGY: 1500000 2.9388 5.5817 2.2444 0.0000 -10682.0968 1486.4159 0.0000 0.0000 1780.1337 -7404.7823 305.7873 -9184.9160 -7422.7816 300.9650 271.8530 342.5683 29978.0578 -75.9651 -3.3724
TCL: Running FEP window   2: Lambda1 0.05   Lambda2 0.1    [dLambda 0.05  ]
TCL: Setting parameter firsttimestep to 0
TCL: Setting parameter alchLambda to 0.05
Info: NONBONDED TABLE R-SQUARED SPACING: 0.0625
Info: NONBONDED TABLE SIZE: 705 POINTS
TCL: Setting parameter alchLambda2 to 0.1
Info: NONBONDED TABLE R-SQUARED SPACING: 0.0625
Info: NONBONDED TABLE SIZE: 705 POINTS
TCL: Running for 1500000 steps
ETITLE: TS BOND ANGLE DIHED IMPRP ELECT VDW BOUNDARY MISC KINETIC TOTAL TEMP POTENTIAL TOTALAVG TEMPAVG PRESSURE GPRESSURE VOLUME PRESSAVG GPRESSAVG
ENERGY: 0 2.9388 5.5817 2.2444 0.0000 -10682.0969 1489.8784 0.0000 0.0000 1779.3043 -7402.1493 305.6449 -9181.4536 -7402.1493 305.6449 258.9771 347.4552 29978.0578 258.9771 347.4552
ENERGY: 300000 2.5879 2.5867 3.7527 0.0000 -10591.4732 1478.4412 0.0000 0.0000 1732.6746 -7371.4302 297.6349 -9104.1047 -7391.9865 300.2900 652.6199 636.7748 29748.4420 417.9390 453.9997
ENERGY: 600000 3.6292 4.6805 2.8158 0.0000 -10495.0185 1381.2896 0.0000 0.0000 1723.1664 -7379.4369 296.0016 -9102.6033 -7383.4035 300.4270 -428.0637 -407.7698 30272.7271 242.5765 289.4021
ENERGY: 900000 3.6725 2.1881 3.4989 0.0000 -10635.7409 1486.0752 0.0000 0.0000 1767.5662 -7372.7400 303.6285 -9140.3062 -7391.5654 300.1787 618.3608 706.6225 30013.1362 190.4151 258.5407
ENERGY: 1200000 0.7808 4.6171 5.3923 0.0000 -10519.0581 1359.0143 0.0000 0.0000 1822.2759 -7326.9777 313.0264 -9149.2536 -7384.3775 301.4819 -377.6377 -345.3475 29896.5310 75.3919 132.0542
ENERGY: 1500000 0.4979 4.9166 4.5854 0.0000 -10653.6105 1411.4582 0.0000 0.0000 1762.5688 -7469.5835 302.7701 -9232.1524 -7393.8846 301.3474 -286.2896 -204.4473 29905.2757 85.5440 150.3201
TCL: Running FEP window   3: Lambda1 0.1    Lambda2 0.15000000000000002 [dLambda 0.05000000000000002]
TCL: Setting parameter firsttimestep to 0
TCL: Setting parameter alchLambda to 0.1
Info: NONBONDED TABLE R-SQUARED SPACING: 0.0625
Info: NONBONDED TABLE SIZE: 705 POINTS
TCL: Setting parameter alchLambda2 to 0.15000000000000002
Info: NONBONDED TABLE R-SQUARED SPACING: 0.0625
Info: NONBONDED TABLE SIZE: 705 POINTS
TCL: Running for 1500000 steps
ETITLE: TS BOND ANGLE DIHED IMPRP ELECT VDW BOUNDARY MISC KINETIC TOTAL TEMP POTENTIAL TOTALAVG TEMPAVG PRESSURE GPRESSURE VOLUME PRESSAVG GPRESSAVG
ENERGY: 0 0.4979 4.9166 4.5854 0.0000 -10653.6110 1411.3780 0.0000 0.0000 1761.7361 -7470.4969 302.6271 -9232.2331 -7470.4969 302.6271 -284.9944 -206.8385 29905.2757 -284.9944 -206.8385
ENERGY: 300000 2.3045 2.7806 8.3476 0.0000 -10567.9836 1372.6376 0.0000 0.0000 1726.9316 -7454.9817 296.6484 -9181.9133 -7454.5077 296.4243 -245.9642 -240.4563 29583.6085 -260.2711 -221.2114
ENERGY: 600000 2.0039 1.6157 3.9249 0.0000 -10592.6363 1394.5076 0.0000 0.0000 1750.7640 -7439.8202 300.7423 -9190.5842 -7437.1451 298.1716 -685.7387 -568.2932 30355.4081 -262.8788 -202.1267
ENERGY: 900000 3.4447 5.5627 4.3675 0.0000 -10760.6440 1529.4957 0.0000 0.0000 1759.0601 -7458.7135 302.1674 -9217.7735 -7431.3601 298.8553 914.0545 923.3014 29560.0135 -130.7062 -81.1366
ENERGY: 1200000 3.5035 3.1046 5.8105 0.0000 -10684.4393 1486.9334 0.0000 0.0000 1708.1738 -7476.9135 293.4262 -9185.0873 -7434.8892 298.1563 329.9138 407.6909 30268.6276 -73.5298 -17.8819
ENERGY: 1500000 3.4604 4.6680 4.3108 0.0000 -10442.0874 1356.8155 0.0000 0.0000 1767.0366 -7305.7960 303.5376 -9072.8326 -7422.7629 299.6042 -363.2842 -427.7317 30260.2876 -150.4184 -100.1106
TCL: Running FEP window   4: Lambda1 0.15000000000000002 Lambda2 0.2    [dLambda 0.04999999999999999]
TCL: Setting parameter firsttimestep to 0
TCL: Setting parameter alchLambda to 0.15000000000000002
Info: NONBONDED TABLE R-SQUARED SPACING: 0.0625
Info: NONBONDED TABLE SIZE: 705 POINTS
TCL: Setting parameter alchLambda2 to 0.2
Info: NONBONDED TABLE R-SQUARED SPACING: 0.0625
Info: NONBONDED TABLE SIZE: 705 POINTS
TCL: Running for 1500000 steps
ETITLE: TS BOND ANGLE DIHED IMPRP ELECT VDW BOUNDARY MISC KINETIC TOTAL TEMP POTENTIAL TOTALAVG TEMPAVG PRESSURE GPRESSURE VOLUME PRESSAVG GPRESSAVG
ENERGY: 0 3.4604 4.6680 4.3108 0.0000 -10442.0876 1357.0727 0.0000 0.0000 1766.1343 -7306.4414 303.3826 -9072.5757 -7306.4414 303.3826 -487.2842 -424.1620 30260.2876 -487.2842 -424.1620
ENERGY: 300000 4.5872 8.5017 5.1448 0.0000 -10537.7339 1338.5197 0.0000 0.0000 1760.4329 -7420.5476 302.4032 -9180.9805 -7389.6826 304.3293 -815.4971 -774.8829 30049.7109 -684.3760 -622.3174
ENERGY: 600000 3.2756 3.4328 5.1850 0.0000 -10601.4515 1414.1846 0.0000 0.0000 1768.4878 -7406.8858 303.7868 -9175.3736 -7407.4569 302.9834 -150.6748 -132.6758 30175.7101 -615.6613 -553.4593
ENERGY: 900000 5.3662 5.6243 6.3267 0.0000 -10600.2742 1423.2730 0.0000 0.0000 1753.6230 -7406.0611 301.2334 -9159.6841 -7409.7606 301.5772 -145.0282 -56.0234 30219.6938 -362.8603 -305.3418
ENERGY: 1200000 4.9391 4.5819 3.8354 0.0000 -10497.5663 1384.8634 0.0000 0.0000 1805.4914 -7293.8551 310.1432 -9099.3465 -7405.1019 301.3353 -275.6092 -281.1681 30089.6774 -336.8089 -286.6073
ENERGY: 1500000 2.5350 4.0380 4.3870 0.0000 -10657.4741 1469.1078 0.0000 0.0000 1651.0929 -7526.3134 283.6210 -9177.4063 -7409.7983 299.5106 45.0214 159.2203 30108.0498 -338.0367 -288.1419
TCL: Running FEP window   5: Lambda1 0.2    Lambda2 0.25   [dLambda 0.04999999999999999]
TCL: Setting parameter firsttimestep to 0
TCL: Setting parameter alchLambda to 0.2
Info: NONBONDED TABLE R-SQUARED SPACING: 0.0625
Info: NONBONDED TABLE SIZE: 705 POINTS
TCL: Setting parameter alchLambda2 to 0.25
Info: NONBONDED TABLE R-SQUARED SPACING: 0.0625
Info: NONBONDED TABLE SIZE: 705 POINTS
TCL: Running for 1500000 steps
ETITLE: TS BOND ANGLE DIHED IMPRP ELECT VDW BOUNDARY MISC KINETIC TOTAL TEMP POTENTIAL TOTALAVG TEMPAVG PRESSURE GPRESSURE VOLUME PRESSAVG GPRESSAVG
ENERGY: 0 2.5350 4.0380 4.3870 0.0000 -10657.4747 1470.6404 0.0000 0.0000 1650.2343 -7525.6399 283.4735 -9175.8743 -7525.6399 283.4735 73.3384 165.3910 30108.0498 73.3384 165.3910
ENERGY: 300000 6.9776 4.6265 5.1399 0.0000 -10555.7534 1402.3663 0.0000 0.0000 1661.4358 -7475.2073 285.3977 -9136.6431 -7443.7588 291.9555 -235.7323 -227.9279 30259.4693 -120.7721 -44.0357
ENERGY: 600000 1.0815 6.4408 4.7357 0.0000 -10586.7521 1446.8543 0.0000 0.0000 1781.9722 -7345.6676 306.1032 -9127.6398 -7414.5669 295.5154 139.6077 202.2068 30161.6414 41.6587 109.0065
ENERGY: 900000 2.2234 2.5039 4.6071 0.0000 -10675.9207 1444.0279 0.0000 0.0000 1760.4321 -7462.1262 302.4030 -9222.5583 -7422.1916 297.0142 34.2846 10.5429 29820.7296 45.7872 109.7453
ENERGY: 1200000 2.0596 3.6680 6.8421 0.0000 -10462.2538 1334.4839 0.0000 0.0000 1707.2429 -7407.9573 293.2663 -9115.2002 -7412.4173 297.1272 -691.5347 -613.6154 30365.1347 63.7502 121.3023
ENERGY: 1500000 3.2956 3.3912 4.8048 0.0000 -10510.6677 1359.0116 0.0000 0.0000 1766.7407 -7373.4239 303.4867 -9140.1645 -7415.2596 297.3962 -675.1825 -627.0708 30305.5962 -21.3983 41.2014
TCL: Running FEP window   6: Lambda1 0.25   Lambda2 0.3    [dLambda 0.04999999999999999]
TCL: Setting parameter firsttimestep to 0
TCL: Setting parameter alchLambda to 0.25
Info: NONBONDED TABLE R-SQUARED SPACING: 0.0625
Info: NONBONDED TABLE SIZE: 705 POINTS
TCL: Setting parameter alchLambda2 to 0.3
Info: NONBONDED TABLE R-SQUARED SPACING: 0.0625
Info: NONBONDED TABLE SIZE: 705 POINTS
TCL: Running for 1500000 steps
ETITLE: TS BOND ANGLE DIHED IMPRP ELECT VDW BOUNDARY MISC KINETIC TOTAL TEMP POTENTIAL TOTALAVG TEMPAVG PRESSURE GPRESSURE VOLUME PRESSAVG GPRESSAVG
ENERGY: 0 3.2956 3.3912 4.8048 0.0000 -10510.6696 1358.8356 0.0000 0.0000 1765.8868 -7374.4556 303.3400 -9140.3424 -7374.4556 303.3400 -699.7223 -624.0091 30305.5962 -699.7223 -624.0091
ENERGY: 300000 2.3665 4.8657 6.6008 0.0000 -10452.5474 1375.2959 0.0000 0.0000 1701.4808 -7361.9377 292.2765 -9063.4185 -7381.1751 297.9462 -140.4352 -115.4009 30195.6912 -360.9495 -321.3633
ENERGY: 600000 4.5609 2.5135 6.7580 0.0000 -10524.6270 1360.4359 0.0000 0.0000 1755.8222 -7394.5366 301.6112 -9150.3587 -7394.6958 296.8869 -560.7088 -500.9090 30036.2919 -306.1894 -266.6968
ENERGY: 900000 5.3635 2.0383 6.1257 0.0000 -10548.8675 1337.2194 0.0000 0.0000 1747.9965 -7450.1241 300.2669 -9198.1205 -7392.1794 297.4610 -976.0527 -923.6341 30250.1650 -312.1277 -260.8739
ENERGY: 1200000 1.6561 6.1321 3.9151 0.0000 -10557.5074 1471.5955 0.0000 0.0000 1772.5949 -7301.6136 304.4924 -9074.2085 -7400.3182 297.3897 605.4095 641.2585 30149.9524 -78.8312 -23.3426
ENERGY: 1500000 3.0493 2.7214 6.6132 0.0000 -10450.7578 1346.0911 0.0000 0.0000 1754.5236 -7337.7592 301.3881 -9092.2828 -7403.0167 297.9185 -600.4455 -475.6750 30331.3754 -98.1580 -41.8217
TCL: Running FEP window   7: Lambda1 0.3    Lambda2 0.35   [dLambda 0.04999999999999999]
TCL: Setting parameter firsttimestep to 0
TCL: Setting parameter alchLambda to 0.3
Info: NONBONDED TABLE R-SQUARED SPACING: 0.0625
Info: NONBONDED TABLE SIZE: 705 POINTS
TCL: Setting parameter alchLambda2 to 0.35
Info: NONBONDED TABLE R-SQUARED SPACING: 0.0625
Info: NONBONDED TABLE SIZE: 705 POINTS
TCL: Running for 1500000 steps
ETITLE: TS BOND ANGLE DIHED IMPRP ELECT VDW BOUNDARY MISC KINETIC TOTAL TEMP POTENTIAL TOTALAVG TEMPAVG PRESSURE GPRESSURE VOLUME PRESSAVG GPRESSAVG
ENERGY: 0 3.0493 2.7214 6.6132 0.0000 -10450.7583 1346.2898 0.0000 0.0000 1753.6397 -7338.4448 301.2363 -9092.0845 -7338.4448 301.2363 -537.4108 -467.3726 30331.3754 -537.4108 -467.3726
ENERGY: 300000 3.4897 6.0082 4.4987 0.0000 -10602.1829 1429.7809 0.0000 0.0000 1754.1544 -7404.2510 301.3247 -9158.4054 -7395.2921 300.2889 -82.3821 33.5499 30149.9378 -163.5841 -51.8819
ENERGY: 600000 2.7620 4.2103 2.8437 0.0000 -10538.4440 1360.5567 0.0000 0.0000 1733.2724 -7434.7989 297.7376 -9168.0713 -7407.6967 301.2756 -619.6109 -571.2989 30027.8783 -203.3018 -122.7945
ENERGY: 900000 3.5336 4.5425 3.5173 0.0000 -10638.5265 1421.8741 0.0000 0.0000 1726.9019 -7478.1571 296.6433 -9205.0590 -7414.8296 300.5079 -468.7907 -391.6056 30144.3977 -117.0519 -38.0817
ENERGY: 1200000 1.8134 4.0499 6.5282 0.0000 -10593.4391 1472.8726 0.0000 0.0000 1705.3540 -7402.8210 292.9419 -9108.1750 -7432.2946 297.9986 424.9873 522.2169 29944.4327 -137.1933 -58.6611
ENERGY: 1500000 2.2573 6.1529 5.4673 0.0000 -10540.3793 1360.9341 0.0000 0.0000 1731.5697 -7433.9981 297.4451 -9165.5678 -7430.4874 298.1989 -342.4642 -302.6742 29934.5720 -158.6739 -81.1440
TCL: Running FEP window   8: Lambda1 0.35   Lambda2 0.39999999999999997 [dLambda 0.04999999999999999]
TCL: Setting parameter firsttimestep to 0
TCL: Setting parameter alchLambda to 0.35
Info: NONBONDED TABLE R-SQUARED SPACING: 0.0625
Info: NONBONDED TABLE SIZE: 705 POINTS
TCL: Setting parameter alchLambda2 to 0.39999999999999997
Info: NONBONDED TABLE R-SQUARED SPACING: 0.0625
Info: NONBONDED TABLE SIZE: 705 POINTS
TCL: Running for 1500000 steps
ETITLE: TS BOND ANGLE DIHED IMPRP ELECT VDW BOUNDARY MISC KINETIC TOTAL TEMP POTENTIAL TOTALAVG TEMPAVG PRESSURE GPRESSURE VOLUME PRESSAVG GPRESSAVG
ENERGY: 0 2.2573 6.1529 5.4673 0.0000 -10540.3790 1362.3746 0.0000 0.0000 1730.7161 -7433.4109 297.2985 -9164.1270 -7433.4109 297.2985 -371.1993 -289.9968 29934.5720 -371.1993 -289.9968
ENERGY: 300000 1.7434 5.1323 6.3095 0.0000 -10490.8349 1363.4087 0.0000 0.0000 1734.4033 -7379.8378 297.9319 -9114.2411 -7424.7291 299.3396 -489.0709 -369.7589 29976.7643 -292.3138 -219.3577
ENERGY: 600000 3.3818 5.2386 4.2707 0.0000 -10655.8943 1520.5743 0.0000 0.0000 1731.8793 -7390.5496 297.4983 -9122.4289 -7404.5894 300.4269 661.5087 687.9783 30451.3427 -198.9588 -136.9491
ENERGY: 900000 3.3489 3.7705 5.8662 0.0000 -10679.8730 1463.0410 0.0000 0.0000 1722.9497 -7480.8967 295.9644 -9203.8464 -7425.5839 298.5864 14.1588 82.4250 30308.9235 -203.3452 -141.8913
ENERGY: 1200000 2.5036 5.1463 3.6401 0.0000 -10659.0814 1454.7496 0.0000 0.0000 1759.0396 -7434.0023 302.1638 -9193.0419 -7419.7992 299.8095 304.1008 345.3596 29338.7748 -167.1835 -98.2757
ENERGY: 1500000 4.3982 7.6649 6.3814 0.0000 -10542.4899 1432.7100 0.0000 0.0000 1739.8949 -7351.4404 298.8752 -9091.3353 -7415.6728 299.5109 -39.1524 -12.7192 30669.6119 -209.3717 -150.8436
TCL: Running FEP window   9: Lambda1 0.39999999999999997 Lambda2 0.44999999999999996 [dLambda 0.04999999999999999]
TCL: Setting parameter firsttimestep to 0
TCL: Setting parameter alchLambda to 0.39999999999999997
Info: NONBONDED TABLE R-SQUARED SPACING: 0.0625
Info: NONBONDED TABLE SIZE: 705 POINTS
TCL: Setting parameter alchLambda2 to 0.44999999999999996
Info: NONBONDED TABLE R-SQUARED SPACING: 0.0625
Info: NONBONDED TABLE SIZE: 705 POINTS
TCL: Running for 1500000 steps
ETITLE: TS BOND ANGLE DIHED IMPRP ELECT VDW BOUNDARY MISC KINETIC TOTAL TEMP POTENTIAL TOTALAVG TEMPAVG PRESSURE GPRESSURE VOLUME PRESSAVG GPRESSAVG
ENERGY: 0 4.3982 7.6649 6.3814 0.0000 -10542.4899 1432.3031 0.0000 0.0000 1739.0159 -7352.7263 298.7242 -9091.7422 -7352.7263 298.7242 -92.2057 -11.7992 30669.6119 -92.2057 -11.7992
ENERGY: 300000 3.5400 2.0160 6.1168 0.0000 -10604.5006 1487.4024 0.0000 0.0000 1764.1836 -7341.2418 303.0475 -9105.4254 -7373.2893 302.0146 596.0709 687.4657 29863.8932 342.2002 400.6816
ENERGY: 600000 4.1813 4.5776 4.5132 0.0000 -10403.5148 1237.6221 0.0000 0.0000 1740.9356 -7411.6851 299.0540 -9152.6206 -7394.0285 301.3275 -1653.7649 -1557.6719 30437.4566 -23.2284 33.5046
ENERGY: 900000 2.0735 4.1117 2.1097 0.0000 -10531.2943 1388.6866 0.0000 0.0000 1775.6843 -7358.6285 305.0230 -9134.3128 -7393.1859 302.0980 -476.2894 -361.6255 30254.0760 -68.9368 -13.2068
ENERGY: 1200000 1.9471 2.8827 3.2495 0.0000 -10774.2473 1546.7511 0.0000 0.0000 1714.8780 -7504.5390 294.5779 -9219.4170 -7407.4255 301.3504 1189.3390 1143.1703 29440.3528 39.5278 89.8542
ENERGY: 1500000 1.6757 7.3733 4.4981 0.0000 -10751.5979 1546.3443 0.0000 0.0000 1737.4023 -7454.3041 298.4470 -9191.7063 -7417.6291 300.9855 1054.4545 1140.5746 29595.7744 164.7836 214.3736
TCL: Running FEP window  10: Lambda1 0.44999999999999996 Lambda2 0.49999999999999994 [dLambda 0.04999999999999999]
TCL: Setting parameter firsttimestep to 0
TCL: Setting parameter alchLambda to 0.44999999999999996
Info: NONBONDED TABLE R-SQUARED SPACING: 0.0625
Info: NONBONDED TABLE SIZE: 705 POINTS
TCL: Setting parameter alchLambda2 to 0.49999999999999994
Info: NONBONDED TABLE R-SQUARED SPACING: 0.0625
Info: NONBONDED TABLE SIZE: 705 POINTS
TCL: Running for 1500000 steps
ETITLE: TS BOND ANGLE DIHED IMPRP ELECT VDW BOUNDARY MISC KINETIC TOTAL TEMP POTENTIAL TOTALAVG TEMPAVG PRESSURE GPRESSURE VOLUME PRESSAVG GPRESSAVG
ENERGY: 0 1.6757 7.3733 4.4981 0.0000 -10751.5976 1545.8066 0.0000 0.0000 1736.5477 -7455.6961 298.3002 -9192.2438 -7455.6961 298.3002 1047.4955 1142.6375 29595.7744 1047.4955 1142.6375
ENERGY: 300000 4.0751 5.7700 2.3878 0.0000 -10571.8241 1428.9641 0.0000 0.0000 1758.4108 -7372.2164 302.0558 -9130.6271 -7393.7494 299.7592 -49.4174 53.5426 30374.6721 327.3068 421.2129
ENERGY: 600000 3.1568 4.6587 8.7790 0.0000 -10685.5442 1502.0641 0.0000 0.0000 1751.4252 -7415.4604 300.8559 -9166.8856 -7414.3644 299.2759 646.3637 683.3540 30273.3181 370.8940 463.5254
ENERGY: 900000 3.7994 3.2590 4.0269 0.0000 -10629.6506 1420.2430 0.0000 0.0000 1726.1626 -7472.1597 296.5163 -9198.3223 -7420.3602 300.2282 10.9381 71.7236 29859.0006 170.9677 249.3066
ENERGY: 1200000 2.4617 3.0632 5.8443 0.0000 -10642.6262 1470.4110 0.0000 0.0000 1693.9731 -7466.8729 290.9869 -9160.8460 -7421.7626 299.7717 293.3387 401.5109 29807.5453 81.4049 155.1577
ENERGY: 1500000 6.9667 2.6815 4.8018 0.0000 -10668.4638 1454.9315 0.0000 0.0000 1737.8153 -7461.2669 298.5180 -9199.0822 -7421.6024 300.0792 -134.7724 -1.6879 29899.6816 97.0559 169.6453
TCL: Running FEP window  11: Lambda1 0.49999999999999994 Lambda2 0.5499999999999999 [dLambda 0.04999999999999999]
TCL: Setting parameter firsttimestep to 0
TCL: Setting parameter alchLambda to 0.49999999999999994
Info: NONBONDED TABLE R-SQUARED SPACING: 0.0625
Info: NONBONDED TABLE SIZE: 705 POINTS
TCL: Setting parameter alchLambda2 to 0.5499999999999999
Info: NONBONDED TABLE R-SQUARED SPACING: 0.0625
Info: NONBONDED TABLE SIZE: 705 POINTS
TCL: Running for 1500000 steps
ETITLE: TS BOND ANGLE DIHED IMPRP ELECT VDW BOUNDARY MISC KINETIC TOTAL TEMP POTENTIAL TOTALAVG TEMPAVG PRESSURE GPRESSURE VOLUME PRESSAVG GPRESSAVG
ENERGY: 0 6.9666 2.6815 4.8018 0.0000 -10668.4638 1454.5782 0.0000 0.0000 1736.9739 -7462.4618 298.3734 -9199.4357 -7462.4618 298.3734 -85.3947 3.1603 29899.6816 -85.3947 3.1603
ENERGY: 300000 4.3179 4.4837 5.0671 0.0000 -10724.6314 1537.2338 0.0000 0.0000 1733.4128 -7440.1161 297.7617 -9173.5290 -7429.6598 300.1762 925.7935 948.5999 29876.3746 -41.0833 14.6823
ENERGY: 600000 2.2128 4.9818 5.4105 0.0000 -10701.7703 1481.9503 0.0000 0.0000 1729.7047 -7477.5102 297.1248 -9207.2149 -7433.9870 299.0838 182.8417 224.0606 30377.2981 -14.7789 33.9675
ENERGY: 900000 1.1089 5.0195 6.9631 0.0000 -10632.5882 1509.6175 0.0000 0.0000 1762.7824 -7347.0967 302.8068 -9109.8791 -7422.8171 300.4397 691.5734 838.2587 30106.3280 133.5625 192.0747
ENERGY: 1200000 5.0729 3.5874 4.8792 0.0000 -10596.9910 1397.8649 0.0000 0.0000 1678.8615 -7506.7251 288.3910 -9185.5866 -7431.2119 300.0157 -666.1575 -642.9712 30283.0945 95.8707 148.1742
ENERGY: 1500000 1.4214 3.0592 5.1588 0.0000 -10553.8622 1398.0703 0.0000 0.0000 1731.1132 -7415.0393 297.3667 -9146.1525 -7422.6578 299.8561 -129.4516 -107.1822 29898.6836 88.2745 136.4935
TCL: Running FEP window  12: Lambda1 0.5499999999999999 Lambda2 0.6    [dLambda 0.050000000000000044]
TCL: Setting parameter firsttimestep to 0
TCL: Setting parameter alchLambda to 0.5499999999999999
Info: NONBONDED TABLE R-SQUARED SPACING: 0.0625
Info: NONBONDED TABLE SIZE: 705 POINTS
TCL: Setting parameter alchLambda2 to 0.6
Info: NONBONDED TABLE R-SQUARED SPACING: 0.0625
Info: NONBONDED TABLE SIZE: 705 POINTS
TCL: Running for 1500000 steps
ETITLE: TS BOND ANGLE DIHED IMPRP ELECT VDW BOUNDARY MISC KINETIC TOTAL TEMP POTENTIAL TOTALAVG TEMPAVG PRESSURE GPRESSURE VOLUME PRESSAVG GPRESSAVG
ENERGY: 0 1.4214 3.0592 5.1588 0.0000 -10553.7905 1397.9645 0.0000 0.0000 1730.2650 -7415.9216 297.2210 -9146.1865 -7415.9216 297.2210 -179.2590 -101.5431 29898.6836 -179.2590 -101.5431
ENERGY: 300000 2.3725 4.8004 7.0367 0.0000 -10609.9668 1423.1245 0.0000 0.0000 1752.4545 -7420.1783 301.0327 -9172.6327 -7430.6036 296.9371 -115.6933 -43.1286 30194.1526 -275.9087 -191.3616
ENERGY: 600000 1.0239 4.7683 8.3607 0.0000 -10565.5083 1370.2001 0.0000 0.0000 1726.4842 -7454.6712 296.5715 -9181.1553 -7415.8719 299.5850 -415.7596 -323.1955 30083.1529 -49.8134 31.4524
ENERGY: 900000 4.1747 8.0448 2.9711 0.0000 -10691.4148 1466.8659 0.0000 0.0000 1757.8965 -7451.4618 301.9675 -9209.3583 -7413.4982 298.7905 91.1749 174.5737 29957.6781 -44.3085 29.1216
ENERGY: 1200000 3.9466 2.7340 4.7305 0.0000 -10666.2683 1466.6116 0.0000 0.0000 1766.7711 -7421.4746 303.4919 -9188.2457 -7417.9225 299.8436 166.1885 177.6979 30274.7711 36.0516 105.9015
ENERGY: 1500000 3.0397 3.9273 3.3653 0.0000 -10525.0331 1398.7087 0.0000 0.0000 1749.6181 -7366.3739 300.5454 -9115.9920 -7413.2817 299.9784 -353.1349 -295.7218 30269.3720 -46.2459 20.9295
TCL: Running FEP window  13: Lambda1 0.6    Lambda2 0.65   [dLambda 0.050000000000000044]
TCL: Setting parameter firsttimestep to 0
TCL: Setting parameter alchLambda to 0.6
Info: NONBONDED TABLE R-SQUARED SPACING: 0.0625
Info: NONBONDED TABLE SIZE: 705 POINTS
TCL: Setting parameter alchLambda2 to 0.65
Info: NONBONDED TABLE R-SQUARED SPACING: 0.0625
Info: NONBONDED TABLE SIZE: 705 POINTS
TCL: Running for 1500000 steps
ETITLE: TS BOND ANGLE DIHED IMPRP ELECT VDW BOUNDARY MISC KINETIC TOTAL TEMP POTENTIAL TOTALAVG TEMPAVG PRESSURE GPRESSURE VOLUME PRESSAVG GPRESSAVG
ENERGY: 0 3.0397 3.9273 3.3653 0.0000 -10524.8340 1398.2210 0.0000 0.0000 1748.7397 -7367.5410 300.3946 -9116.2807 -7367.5410 300.3946 -378.4317 -291.2388 30269.3720 -378.4317 -291.2388
ENERGY: 300000 3.4552 3.7016 6.7019 0.0000 -10497.6926 1359.1457 0.0000 0.0000 1773.7000 -7350.9882 304.6822 -9124.6883 -7348.8795 304.9964 -534.7003 -462.0151 30660.6139 -75.6886 -10.2374
ENERGY: 600000 6.4192 5.9184 3.3981 0.0000 -10420.6075 1328.1755 0.0000 0.0000 1719.4289 -7357.2674 295.3596 -9076.6963 -7360.2979 302.1147 -693.1919 -565.8065 29942.7862 -265.3300 -184.8189
ENERGY: 900000 1.4245 5.0342 5.3999 0.0000 -10600.0840 1417.5528 0.0000 0.0000 1678.2608 -7492.4118 288.2878 -9170.6726 -7393.8296 300.1990 -191.1595 -93.1226 30237.5022 -363.9018 -277.3453
ENERGY: 1200000 2.3757 2.2608 7.1866 0.0000 -10653.0283 1402.0400 0.0000 0.0000 1751.4577 -7487.7075 300.8614 -9239.1651 -7402.3911 300.1360 -504.3867 -452.0568 30300.3842 -335.0440 -258.2900
ENERGY: 1500000 4.6454 7.4186 3.6700 0.0000 -10442.6133 1323.0191 0.0000 0.0000 1776.3535 -7327.5067 305.1380 -9103.8602 -7392.6460 300.8030 -848.3187 -745.1290 30620.0902 -348.2704 -268.8202
TCL: Running FEP window  14: Lambda1 0.65   Lambda2 0.7000000000000001 [dLambda 0.050000000000000044]
TCL: Setting parameter firsttimestep to 0
TCL: Setting parameter alchLambda to 0.65
Info: NONBONDED TABLE R-SQUARED SPACING: 0.0625
Info: NONBONDED TABLE SIZE: 705 POINTS
TCL: Setting parameter alchLambda2 to 0.7000000000000001
Info: NONBONDED TABLE R-SQUARED SPACING: 0.0625
Info: NONBONDED TABLE SIZE: 705 POINTS
TCL: Running for 1500000 steps
ETITLE: TS BOND ANGLE DIHED IMPRP ELECT VDW BOUNDARY MISC KINETIC TOTAL TEMP POTENTIAL TOTALAVG TEMPAVG PRESSURE GPRESSURE VOLUME PRESSAVG GPRESSAVG
ENERGY: 0 4.6454 7.4186 3.6700 0.0000 -10442.8779 1322.7780 0.0000 0.0000 1775.5167 -7328.8491 304.9943 -9104.3658 -7328.8491 304.9943 -828.7099 -741.3454 30620.0902 -828.7099 -741.3454
ENERGY: 300000 2.7904 4.6771 8.4510 0.0000 -10635.8200 1440.5368 0.0000 0.0000 1795.6785 -7383.6861 308.4576 -9179.3647 -7369.9523 304.4271 47.6133 63.6695 30140.3691 -176.7067 -126.3375
ENERGY: 600000 1.6004 3.4773 5.0525 0.0000 -10596.7404 1501.5027 0.0000 0.0000 1760.9753 -7324.1324 302.4964 -9085.1076 -7374.9129 302.8409 722.6764 807.9204 30090.0360 30.3589 82.1495
ENERGY: 900000 5.1006 2.4659 5.8808 0.0000 -10623.4277 1463.0852 0.0000 0.0000 1732.1108 -7414.7844 297.5381 -9146.8952 -7385.5816 302.6185 140.9466 201.2763 30278.4492 -48.8140 6.5423
ENERGY: 1200000 1.7444 4.0534 4.0892 0.0000 -10600.2957 1403.8732 0.0000 0.0000 1722.9871 -7463.5485 295.9708 -9186.5356 -7393.9646 302.1690 85.6975 126.4571 29743.3862 15.0090 68.7780
ENERGY: 1500000 6.6456 10.1206 3.7615 0.0000 -10556.7941 1380.2890 0.0000 0.0000 1741.3555 -7414.6220 299.1261 -9155.9775 -7399.4184 301.0859 -591.0708 -581.8052 30297.0913 -25.7143 25.4990
TCL: Running FEP window  15: Lambda1 0.7000000000000001 Lambda2 0.7500000000000001 [dLambda 0.050000000000000044]
TCL: Setting parameter firsttimestep to 0
TCL: Setting parameter alchLambda to 0.7000000000000001
Info: NONBONDED TABLE R-SQUARED SPACING: 0.0625
Info: NONBONDED TABLE SIZE: 705 POINTS
TCL: Setting parameter alchLambda2 to 0.7500000000000001
Info: NONBONDED TABLE R-SQUARED SPACING: 0.0625
Info: NONBONDED TABLE SIZE: 705 POINTS
TCL: Running for 1500000 steps
ETITLE: TS BOND ANGLE DIHED IMPRP ELECT VDW BOUNDARY MISC KINETIC TOTAL TEMP POTENTIAL TOTALAVG TEMPAVG PRESSURE GPRESSURE VOLUME PRESSAVG GPRESSAVG
ENERGY: 0 6.6456 10.1206 3.7615 0.0000 -10556.9384 1380.2963 0.0000 0.0000 1740.4773 -7415.6371 298.9753 -9156.1145 -7415.6371 298.9753 -654.9702 -571.4488 30297.0913 -654.9702 -571.4488
ENERGY: 300000 5.6976 1.9015 6.2625 0.0000 -10584.1433 1410.0919 0.0000 0.0000 1763.3000 -7396.8899 302.8957 -9160.1899 -7438.2474 302.2199 -107.0650 -91.4026 30076.4848 98.2017 164.4667
ENERGY: 600000 2.9414 4.7340 7.4100 0.0000 -10667.6623 1513.2054 0.0000 0.0000 1763.4042 -7375.9674 302.9136 -9139.3716 -7406.9580 301.6687 968.0969 1093.3398 29926.7325 165.0097 229.5134
ENERGY: 900000 2.6551 6.3664 4.3245 0.0000 -10639.9585 1462.3452 0.0000 0.0000 1725.4496 -7438.8176 296.3938 -9164.2672 -7419.9700 299.8796 535.2550 596.3790 29725.3716 92.2707 150.4528
ENERGY: 1200000 0.9724 1.1810 3.6330 0.0000 -10655.1092 1487.8106 0.0000 0.0000 1731.2747 -7430.2374 297.3945 -9161.5122 -7420.4626 300.5595 780.8041 820.8952 29653.8121 130.5369 187.2303
ENERGY: 1500000 3.2476 4.2675 3.2044 0.0000 -10473.0623 1413.6071 0.0000 0.0000 1731.8119 -7316.9238 297.4867 -9048.7357 -7410.3722 300.2003 293.7963 346.1468 30060.0751 124.0008 181.6590
TCL: Running FEP window  16: Lambda1 0.7500000000000001 Lambda2 0.8000000000000002 [dLambda 0.050000000000000044]
TCL: Setting parameter firsttimestep to 0
TCL: Setting parameter alchLambda to 0.7500000000000001
Info: NONBONDED TABLE R-SQUARED SPACING: 0.0625
Info: NONBONDED TABLE SIZE: 705 POINTS
TCL: Setting parameter alchLambda2 to 0.8000000000000002
Info: NONBONDED TABLE R-SQUARED SPACING: 0.0625
Info: NONBONDED TABLE SIZE: 705 POINTS
TCL: Running for 1500000 steps
ETITLE: TS BOND ANGLE DIHED IMPRP ELECT VDW BOUNDARY MISC KINETIC TOTAL TEMP POTENTIAL TOTALAVG TEMPAVG PRESSURE GPRESSURE VOLUME PRESSAVG GPRESSAVG
ENERGY: 0 3.2476 4.2675 3.2044 0.0000 -10474.4358 1415.0084 0.0000 0.0000 1730.9384 -7317.7695 297.3367 -9048.7079 -7317.7695 297.3367 281.5757 365.4270 30060.0751 281.5757 365.4270
ENERGY: 300000 3.0840 3.5708 3.5740 0.0000 -10523.8700 1311.0421 0.0000 0.0000 1777.9052 -7424.6940 305.4045 -9202.5992 -7355.1456 305.1482 -1073.1214 -974.2942 30436.8021 -119.5367 -40.3598
ENERGY: 600000 3.4420 1.5640 5.9205 0.0000 -10623.2562 1413.4617 0.0000 0.0000 1733.2952 -7465.5729 297.7415 -9198.8681 -7384.5701 301.5407 -277.2374 -144.8725 30179.5297 -41.1657 49.0985
ENERGY: 900000 1.7319 4.5267 5.4085 0.0000 -10669.5507 1437.2724 0.0000 0.0000 1705.8869 -7514.7244 293.0334 -9220.6113 -7398.2748 301.5206 -60.0846 33.8729 30100.0041 7.8852 91.2571
ENERGY: 1200000 3.6957 4.9718 7.4329 0.0000 -10560.8438 1403.2775 0.0000 0.0000 1726.4015 -7415.0643 296.5573 -9141.4658 -7394.9045 301.6254 -120.1728 -129.8711 30257.8778 49.7831 121.9766
ENERGY: 1500000 6.2923 4.2350 5.7179 0.0000 -10438.0482 1240.3453 0.0000 0.0000 1754.0134 -7427.4443 301.3005 -9181.4577 -7399.9860 301.3908 -1630.5267 -1683.1067 30615.7363 -87.4186 -19.3438
TCL: Running FEP window  17: Lambda1 0.8000000000000002 Lambda2 0.8500000000000002 [dLambda 0.050000000000000044]
TCL: Setting parameter firsttimestep to 0
TCL: Setting parameter alchLambda to 0.8000000000000002
Info: NONBONDED TABLE R-SQUARED SPACING: 0.0625
Info: NONBONDED TABLE SIZE: 705 POINTS
TCL: Setting parameter alchLambda2 to 0.8500000000000002
Info: NONBONDED TABLE R-SQUARED SPACING: 0.0625
Info: NONBONDED TABLE SIZE: 705 POINTS
TCL: Running for 1500000 steps
ETITLE: TS BOND ANGLE DIHED IMPRP ELECT VDW BOUNDARY MISC KINETIC TOTAL TEMP POTENTIAL TOTALAVG TEMPAVG PRESSURE GPRESSURE VOLUME PRESSAVG GPRESSAVG
ENERGY: 0 6.2923 4.2350 5.7179 0.0000 -10438.5062 1239.5717 0.0000 0.0000 1753.1472 -7429.5421 301.1517 -9182.6893 -7429.5421 301.1517 -1747.9724 -1683.1532 30615.7363 -1747.9724 -1683.1532
ENERGY: 300000 3.9233 4.9922 6.9826 0.0000 -10622.4072 1466.2505 0.0000 0.0000 1755.2931 -7384.9655 301.5203 -9140.2587 -7429.3900 300.5529 89.1171 156.6220 30380.0184 -61.0193 0.6964
ENERGY: 600000 6.0556 6.6235 6.2019 0.0000 -10576.5715 1426.3473 0.0000 0.0000 1819.1281 -7312.2152 312.4857 -9131.3433 -7401.7134 302.7325 160.4958 213.2013 30423.9252 -68.7431 -12.7617
ENERGY: 900000 1.1078 3.8654 6.0845 0.0000 -10712.0349 1523.4757 0.0000 0.0000 1713.2798 -7464.2216 294.3033 -9177.5014 -7410.9992 301.5303 701.7068 758.9904 30242.8161 150.5585 197.0274
ENERGY: 1200000 5.1529 4.2188 6.6816 0.0000 -10445.0628 1383.5741 0.0000 0.0000 1735.9227 -7309.5127 298.1929 -9045.4354 -7398.8096 300.9342 -59.8042 -33.0978 30288.3992 17.5076 63.4440
ENERGY: 1500000 3.0821 4.2342 5.7747 0.0000 -10633.9536 1399.6922 0.0000 0.0000 1786.9730 -7434.1974 306.9622 -9221.1704 -7400.9473 302.1792 -257.1120 -209.2633 29948.8291 0.8704 50.3054
TCL: Running FEP window  18: Lambda1 0.8500000000000002 Lambda2 0.9000000000000002 [dLambda 0.050000000000000044]
TCL: Setting parameter firsttimestep to 0
TCL: Setting parameter alchLambda to 0.8500000000000002
Info: NONBONDED TABLE R-SQUARED SPACING: 0.0625
Info: NONBONDED TABLE SIZE: 705 POINTS
TCL: Setting parameter alchLambda2 to 0.9000000000000002
Info: NONBONDED TABLE R-SQUARED SPACING: 0.0625
Info: NONBONDED TABLE SIZE: 705 POINTS
TCL: Running for 1500000 steps
ETITLE: TS BOND ANGLE DIHED IMPRP ELECT VDW BOUNDARY MISC KINETIC TOTAL TEMP POTENTIAL TOTALAVG TEMPAVG PRESSURE GPRESSURE VOLUME PRESSAVG GPRESSAVG
ENERGY: 0 3.0821 4.2342 5.7747 0.0000 -10635.5018 1400.2055 0.0000 0.0000 1786.1140 -7436.0914 306.8146 -9222.2054 -7436.0914 306.8146 -262.0027 -191.8781 29948.8291 -262.0027 -191.8781
ENERGY: 300000 2.1757 5.5856 5.2880 0.0000 -10683.7902 1478.8076 0.0000 0.0000 1728.4730 -7463.4603 296.9132 -9191.9333 -7456.9105 297.9551 241.8909 313.5293 30110.4829 77.5751 162.3224
ENERGY: 600000 6.9030 3.4987 6.2669 0.0000 -10703.3507 1512.1578 0.0000 0.0000 1747.5242 -7427.0001 300.1858 -9174.5243 -7438.7231 298.8419 566.6636 670.3048 30174.6326 72.5787 142.7839
ENERGY: 900000 5.6289 5.1814 4.9423 0.0000 -10638.9424 1422.6230 0.0000 0.0000 1729.4217 -7471.1451 297.0762 -9200.5669 -7446.1116 298.2471 -69.0142 -84.4976 30040.5887 77.3206 134.4328
ENERGY: 1200000 1.1814 3.9013 6.6335 0.0000 -10635.0624 1495.1806 0.0000 0.0000 1728.2306 -7399.9350 296.8715 -9128.1656 -7434.6083 298.3012 1005.6570 1040.8010 29700.9127 59.4597 118.5124
ENERGY: 1500000 4.0802 2.7979 3.3211 0.0000 -10594.9982 1398.0147 0.0000 0.0000 1737.5070 -7449.2773 298.4650 -9186.7843 -7439.3894 297.3001 -315.1312 -317.6879 30204.1516 18.2030 74.5382
TCL: Running FEP window  19: Lambda1 0.9000000000000002 Lambda2 0.9500000000000003 [dLambda 0.050000000000000044]
TCL: Setting parameter firsttimestep to 0
TCL: Setting parameter alchLambda to 0.9000000000000002
Info: NONBONDED TABLE R-SQUARED SPACING: 0.0625
Info: NONBONDED TABLE SIZE: 705 POINTS
TCL: Setting parameter alchLambda2 to 0.9500000000000003
Info: NONBONDED TABLE R-SQUARED SPACING: 0.0625
Info: NONBONDED TABLE SIZE: 705 POINTS
TCL: Running for 1500000 steps
ETITLE: TS BOND ANGLE DIHED IMPRP ELECT VDW BOUNDARY MISC KINETIC TOTAL TEMP POTENTIAL TOTALAVG TEMPAVG PRESSURE GPRESSURE VOLUME PRESSAVG GPRESSAVG
ENERGY: 0 4.0802 2.7979 3.3211 0.0000 -10596.7580 1399.1446 0.0000 0.0000 1736.6044 -7450.8098 298.3100 -9187.4142 -7450.8098 298.3100 -375.5794 -297.4851 30204.1516 -375.5794 -297.4851
ENERGY: 300000 2.7686 2.7207 4.2633 0.0000 -10675.9514 1487.3635 0.0000 0.0000 1780.2106 -7398.6248 305.8006 -9178.8354 -7437.1344 300.4521 607.5433 641.1436 30084.3302 57.9242 118.4518
ENERGY: 600000 4.0864 8.3682 4.3164 0.0000 -10777.6581 1549.4995 0.0000 0.0000 1764.0520 -7447.3357 303.0249 -9211.3877 -7437.5962 298.9563 884.3811 1002.8201 29906.7011 9.3806 68.6871
ENERGY: 900000 3.7072 4.0580 5.6330 0.0000 -10616.1937 1340.9593 0.0000 0.0000 1784.6670 -7477.1692 306.5661 -9261.8362 -7437.1076 300.0540 -998.7268 -927.5673 30315.1169 -74.6956 -13.7704
ENERGY: 1200000 2.7305 4.6478 8.9572 0.0000 -10512.2754 1334.2303 0.0000 0.0000 1736.5826 -7425.1270 298.3062 -9161.7096 -7425.4085 299.7988 -752.1202 -703.1332 30367.9789 -43.1409 10.6841
ENERGY: 1500000 3.0755 1.7716 4.2044 0.0000 -10650.2781 1426.4832 0.0000 0.0000 1776.3128 -7438.4305 305.1310 -9214.7433 -7428.0012 300.1662 29.3293 97.6018 30107.2991 3.4289 63.0059
TCL: Running FEP window  20: Lambda1 0.9500000000000003 Lambda2 1.0    [dLambda 0.04999999999999971]
TCL: Setting parameter firsttimestep to 0
TCL: Setting parameter alchLambda to 0.9500000000000003
Info: NONBONDED TABLE R-SQUARED SPACING: 0.0625
Info: NONBONDED TABLE SIZE: 705 POINTS
TCL: Setting parameter alchLambda2 to 1.0
Info: NONBONDED TABLE R-SQUARED SPACING: 0.0625
Info: NONBONDED TABLE SIZE: 705 POINTS
TCL: Running for 1500000 steps
ETITLE: TS BOND ANGLE DIHED IMPRP ELECT VDW BOUNDARY MISC KINETIC TOTAL TEMP POTENTIAL TOTALAVG TEMPAVG PRESSURE GPRESSURE VOLUME PRESSAVG GPRESSAVG
ENERGY: 0 3.0755 1.7716 4.2044 0.0000 -10651.0503 1426.6196 0.0000 0.0000 1775.4144 -7439.9648 304.9767 -9215.3792 -7439.9648 304.9767 22.8297 110.2102 30107.2991 22.8297 110.2102
ENERGY: 300000 3.0235 3.4222 7.8961 0.0000 -10546.3464 1345.3529 0.0000 0.0000 1731.3828 -7455.2688 297.4130 -9186.6517 -7452.5040 296.1904 -823.1829 -712.2240 30188.0663 -561.6748 -481.5432
ENERGY: 600000 2.2228 5.8071 8.2239 0.0000 -10609.3595 1429.5731 0.0000 0.0000 1791.4097 -7372.1229 307.7243 -9163.5326 -7444.4916 297.3780 -26.5268 -5.2373 30390.9621 -441.8210 -369.9346
ENERGY: 900000 3.7906 4.7757 7.8499 0.0000 -10596.8159 1485.3686 0.0000 0.0000 1766.4568 -7328.5743 303.4380 -9095.0311 -7441.3994 298.0729 464.6151 474.4975 30589.2280 -335.7589 -265.0161
ENERGY: 1200000 2.5326 4.5453 8.7312 0.0000 -10643.8364 1483.4803 0.0000 0.0000 1737.5708 -7406.9762 298.4760 -9144.5470 -7443.5241 297.8055 497.1103 582.8636 30115.6192 -255.9438 -187.5316
ENERGY: 1500000 1.5462 4.5766 6.1366 0.0000 -10575.4553 1452.4532 0.0000 0.0000 1733.0423 -7377.7004 297.6981 -9110.7427 -7436.1762 298.5621 649.3547 755.6507 29887.1457 -148.4889 -75.0788
TCL: Exiting due to exit command.
