Info: SIMULATION PARAMETERS:
Info: TIMESTEP               2
Info: NUMBER OF STEPS        0
Info: STEPS PER CYCLE        10
Info: PERIODIC CELL BASIS 1  31.0085 0 0
Info: PERIODIC CELL BASIS 2  0 29.6019 0
Info: PERIODIC CELL BASIS 3  0 0 32.9663
Info: PERIODIC CELL CENTER   0 0 0
Info: WRAPPING WATERS AROUND PERIODIC BOUNDARIES ON OUTPUT.
Info: WRAPPING ALL CLUSTERS AROUND PERIODIC BOUNDARIES ON OUTPUT.
Info: FIRST LDB TIMESTEP     50
Info: LAST LDB TIMESTEP     -1
Info: HOM BACKGROUND SCALING 1
Info: PME BACKGROUND SCALING 1
Info: MIN ATOMS PER PATCH    40
Info: EMPTY PATCH LOAD       40 ATOMS
Info: VELOCITY FILE          mobley_2913224_equil.vel
Info: CENTER OF MASS MOVING INITIALLY? NO
Info: DIELECTRIC             1
Info: EXCLUDE                SCALED ONE-FOUR
Info: 1-4 ELECTROSTATICS SCALED BY 0.833333
Info: MODIFIED 1-4 VDW PARAMETERS WILL BE USED
Info: DCD FILENAME           mobley_2913224_prod.dcd
Info: DCD FREQUENCY          100000
Info: DCD FIRST STEP         100000
Info: DCD FILE WILL CONTAIN UNIT CELL DATA
Info: XST FILENAME           mobley_2913224_prod.xst
Info: XST FREQUENCY          100000
Info: NO VELOCITY DCD OUTPUT
Info: NO FORCE DCD OUTPUT
Info: OUTPUT FILENAME        mobley_2913224_prod
Info: BINARY OUTPUT FILES WILL BE USED
Info: RESTART FILENAME       mobley_2913224_prod.restart
Info: RESTART FREQUENCY      100000
Info: BINARY RESTART FILES WILL BE USED
Info: CUTOFF                 9
Info: PAIRLIST DISTANCE      11
Info: PAIRLIST SHRINK RATE   0.01
Info: PAIRLIST GROW RATE     0.01
Info: PAIRLIST TRIGGER       0.3
Info: PAIRLISTS PER CYCLE    2
Info: PAIRLISTS ENABLED
Info: MARGIN                 2
Info: HYDROGEN GROUP CUTOFF  2.5
Info: PATCH DIMENSION        15.5
Info: ENERGY OUTPUT STEPS    100000
Info: ENERGY EVALUATION STEPS    100000
Info: OUTPUT ENERGY PRECISION 4
Info: CROSSTERM ENERGY INCLUDED IN DIHEDRAL
Info: TIMING OUTPUT STEPS    1000000
Info: PRESSURE OUTPUT STEPS  100000
Info: ALCHEMICAL FEP ON
Info: FEP CURRENT LAMBDA VALUE     1
Info: FEP COMPARISON LAMBDA VALUE  0.95
Info: FEP INTRA-ALCHEMICAL NON-BONDED INTERACTIONS WILL BE RETAINED
Info: FEP INTRA-ALCHEMICAL BONDED INTERACTIONS WILL BE RETAINED
Info: FEP VDW SHIFTING COEFFICIENT 5
Info: FEP ELEC. ACTIVE FOR ANNIHILATED PARTICLES BETWEEN LAMBDA = 0 AND LAMBDA = 0.5
Info: FEP ELEC. ACTIVE FOR EXNIHILATED PARTICLES BETWEEN LAMBDA = 0.5 AND LAMBDA = 1
Info: FEP VDW ACTIVE FOR ANNIHILATED PARTICLES BETWEEN LAMBDA = 0 AND LAMBDA = 1
Info: FEP VDW ACTIVE FOR EXNIHILATED PARTICLES BETWEEN LAMBDA = 0 AND LAMBDA = 1
Info: FEP BOND ACTIVE FOR ANNIHILATED PARTICLES BETWEEN LAMBDA = 1 AND LAMBDA = 1
Info: FEP BOND ACTIVE FOR EXNIHILATED PARTICLES BETWEEN LAMBDA = 0 AND LAMBDA = 0
Info: LANGEVIN DYNAMICS ACTIVE
Info: LANGEVIN TEMPERATURE   300
Info: LANGEVIN USING BBK INTEGRATOR
Info: LANGEVIN DAMPING COEFFICIENT IS 1 INVERSE PS
Info: LANGEVIN DYNAMICS APPLIED TO HYDROGENS
Info: LANGEVIN PISTON PRESSURE CONTROL ACTIVE
Info:        TARGET PRESSURE IS 1.01325 BAR
Info:     OSCILLATION PERIOD IS 50 FS
Info:             DECAY TIME IS 25 FS
Info:     PISTON TEMPERATURE IS 300 K
Info:       PRESSURE CONTROL IS GROUP-BASED
Info:    INITIAL STRAIN RATE IS -0.000114678 -0.000114678 -0.000114678
Info:       CELL FLUCTUATION IS ISOTROPIC
Info: PARTICLE MESH EWALD (PME) ACTIVE
Info: PME TOLERANCE               1e-06
Info: PME EWALD COEFFICIENT       0.348832
Info: PME INTERPOLATION ORDER     4
Info: PME GRID DIMENSIONS         32 32 36
Info: PME MAXIMUM GRID SPACING    1
Info: PME CALCULATION WILL BE PERFORMED ON GPU
Info: FULL ELECTROSTATIC EVALUATION FREQUENCY      2
Info: USING VERLET I (r-RESPA) MTS SCHEME.
Info: C1 SPLITTING OF LONG RANGE ELECTROSTATICS
Info: PLACING ATOMS IN PATCHES BY HYDROGEN GROUPS
Info: RIGID BONDS TO HYDROGEN : ALL
Info:         ERROR TOLERANCE : 1e-08
Info:          MAX ITERATIONS : 100
Info: RIGID WATER USING SETTLE ALGORITHM
Info: RANDOM NUMBER SEED     1743874598
Info: USE HYDROGEN BONDS?    NO
Info: Using AMBER format force field!
Info: AMBER PARM FILE        mobley_2913224.prmtop
Info: COORDINATE PDB         mobley_2913224.pdb
Info: Exclusions will be read from PARM file!
Info: SCNB (VDW SCALING)     2
Info: USING ARITHMETIC MEAN TO COMBINE L-J SIGMA PARAMETERS
Info: BINARY COORDINATES     mobley_2913224_equil.coor
Info: SUMMARY OF PARAMETERS:
Info: 12 BONDS
Info: 14 ANGLES
Info:   14 HARMONIC
Info:   0 COSINE-BASED
Info: 11 DIHEDRAL
Info: 0 IMPROPER
Info: 0 CROSSTERM
Info: 0 VDW
Info: 45 VDW_PAIRS
Info: 0 NBTHOLE_PAIRS
Info: To read alchdata from file: mobley_2913224.pdb
Info: To read alchflag data from column: 5
Info: STRUCTURE SUMMARY:
Info: 2904 ATOMS
Info: 2904 BONDS
Info: 32 ANGLES
Info: 55 DIHEDRALS
Info: 0 IMPROPERS
Info: 0 CROSSTERMS
Info: 2973 EXCLUSIONS
Info: 2891 RIGID BONDS
Info: ALCH: 0 ATOMS TO DISAPPEAR IN FINAL STATE
Info: ALCH: 21 ATOMS TO APPEAR IN FINAL STATE
Info: 5821 DEGREES OF FREEDOM
Info: 974 HYDROGEN GROUPS
Info: 4 ATOMS IN LARGEST HYDROGEN GROUP
Info: 974 MIGRATION GROUPS
Info: 4 ATOMS IN LARGEST MIGRATION GROUP
Info: TOTAL MASS = 17493.5 amu
Info: TOTAL CHARGE = 9.99421e-05 e
Info: MASS DENSITY = 0.95999 g/cm^3
Info: ATOM DENSITY = 0.0959681 atoms/A^3
Info: ADDED 0 IMPLICIT EXCLUSIONS
Info: NONBONDED TABLE R-SQUARED SPACING: 0.0625
Info: NONBONDED TABLE SIZE: 705 POINTS
Info: REMOVING COM VELOCITY 0.00633278 0.184047 0.0231258
Info: Use 3D box decompostion in PME FFT.
Info: Updated CUDA force table with 4096 elements.
Info: Updated CUDA LJ table with 9 x 9 elements.
Info: Found 19 unique exclusion lists needing 48 bytes
TCL: Running for 1500000 steps
ETITLE: TS BOND ANGLE DIHED IMPRP ELECT VDW BOUNDARY MISC KINETIC TOTAL TEMP POTENTIAL TOTALAVG TEMPAVG PRESSURE GPRESSURE VOLUME PRESSAVG GPRESSAVG
ENERGY: 0 8.4326 7.3152 14.3858 0.0000 -10639.4132 1459.4553 0.0000 0.0000 1716.1813 -7433.6429 296.7262 -9149.8242 -7433.6429 296.7262 153.8554 242.4522 30260.0613 153.8554 242.4522
ENERGY: 300000 3.3950 9.2919 14.1877 0.0000 -10551.3912 1411.1314 0.0000 0.0000 1760.9558 -7352.4295 304.4677 -9113.3853 -7368.7688 301.3774 324.1822 313.5236 29899.5870 -12.7466 48.7756
ENERGY: 600000 5.5273 10.8640 18.4129 0.0000 -10593.1364 1442.8919 0.0000 0.0000 1861.8443 -7253.5960 321.9112 -9115.4404 -7362.8780 304.1983 158.3199 204.6663 30092.9498 -158.9155 -89.9873
ENERGY: 900000 4.7126 8.5106 15.8070 0.0000 -10654.6318 1423.1680 0.0000 0.0000 1743.3338 -7459.0999 301.4209 -9202.4337 -7385.2847 302.3714 -5.8475 45.2809 29884.7571 -169.4845 -96.9791
ENERGY: 1200000 3.0228 7.8177 15.0150 0.0000 -10627.6738 1404.2200 0.0000 0.0000 1745.9189 -7451.6794 301.8678 -9197.5983 -7392.7339 301.8871 -500.5639 -381.0838 30173.8874 -49.4256 22.0426
ENERGY: 1500000 4.3680 9.4057 16.0357 0.0000 -10580.1214 1375.6852 0.0000 0.0000 1758.0493 -7416.5774 303.9652 -9174.6267 -7396.3291 302.1844 -293.5379 -199.3897 29636.3866 -147.0185 -82.3552
TCL: Running FEP window   2: Lambda1 0.95   Lambda2 0.8999999999999999 [dLambda -0.050000000000000044]
TCL: Setting parameter firsttimestep to 0
TCL: Setting parameter alchLambda to 0.95
Info: NONBONDED TABLE R-SQUARED SPACING: 0.0625
Info: NONBONDED TABLE SIZE: 705 POINTS
TCL: Setting parameter alchLambda2 to 0.8999999999999999
Info: NONBONDED TABLE R-SQUARED SPACING: 0.0625
Info: NONBONDED TABLE SIZE: 705 POINTS
TCL: Running for 1500000 steps
ETITLE: TS BOND ANGLE DIHED IMPRP ELECT VDW BOUNDARY MISC KINETIC TOTAL TEMP POTENTIAL TOTALAVG TEMPAVG PRESSURE GPRESSURE VOLUME PRESSAVG GPRESSAVG
ENERGY: 0 4.3680 9.4057 16.0357 0.0000 -10577.4412 1375.4104 0.0000 0.0000 1757.1870 -7415.0344 303.8161 -9172.2214 -7415.0344 303.8161 -310.3180 -216.4909 29636.3866 -310.3180 -216.4909
ENERGY: 300000 5.6938 6.5701 21.4084 0.0000 -10608.3119 1428.6571 0.0000 0.0000 1771.4385 -7374.5440 306.2802 -9145.9825 -7372.9423 304.3155 63.1592 139.2877 29981.9808 -537.3185 -456.6410
ENERGY: 600000 5.0473 8.7959 13.9867 0.0000 -10529.1752 1382.3731 0.0000 0.0000 1700.5216 -7418.4505 294.0187 -9118.9721 -7391.4189 299.4186 -254.4790 -125.5608 29961.2145 -346.1387 -259.2715
ENERGY: 900000 4.8901 7.9882 14.9446 0.0000 -10681.2604 1507.6388 0.0000 0.0000 1740.0525 -7405.7461 300.8535 -9145.7986 -7406.6823 298.3142 613.7217 732.1874 29728.7063 -52.2695 29.7380
ENERGY: 1200000 5.4780 9.3613 12.8517 0.0000 -10531.5969 1383.9027 0.0000 0.0000 1747.9368 -7372.0663 302.2167 -9120.0032 -7400.1868 298.5297 -176.0729 -84.0243 29862.6893 -39.5991 37.6338
ENERGY: 1500000 3.0355 7.1768 14.3054 0.0000 -10748.5671 1458.1533 0.0000 0.0000 1722.8618 -7543.0342 297.8813 -9265.8960 -7404.2124 299.7627 160.8147 276.8764 29376.2586 -84.4005 -12.3713
TCL: Running FEP window   3: Lambda1 0.8999999999999999 Lambda2 0.8499999999999999 [dLambda -0.050000000000000044]
TCL: Setting parameter firsttimestep to 0
TCL: Setting parameter alchLambda to 0.8999999999999999
Info: NONBONDED TABLE R-SQUARED SPACING: 0.0625
Info: NONBONDED TABLE SIZE: 705 POINTS
TCL: Setting parameter alchLambda2 to 0.8499999999999999
Info: NONBONDED TABLE R-SQUARED SPACING: 0.0625
Info: NONBONDED TABLE SIZE: 705 POINTS
TCL: Running for 1500000 steps
ETITLE: TS BOND ANGLE DIHED IMPRP ELECT VDW BOUNDARY MISC KINETIC TOTAL TEMP POTENTIAL TOTALAVG TEMPAVG PRESSURE GPRESSURE VOLUME PRESSAVG GPRESSAVG
ENERGY: 0 3.0355 7.1768 14.3054 0.0000 -10745.8013 1456.6282 0.0000 0.0000 1721.9969 -7542.6585 297.7318 -9264.6554 -7542.6585 297.7318 142.0814 249.9933 29376.2586 142.0814 249.9933
ENERGY: 300000 4.4892 9.7260 13.9966 0.0000 -10584.9257 1378.8882 0.0000 0.0000 1666.6081 -7511.2176 288.1551 -9177.8257 -7485.9314 297.5342 -445.6258 -403.9606 29822.4908 -37.9833 15.9466
ENERGY: 600000 3.2277 7.5762 21.4322 0.0000 -10411.5000 1320.9126 0.0000 0.0000 1732.1440 -7326.2073 299.4862 -9058.3513 -7452.4137 297.1339 -418.4896 -439.5685 30162.5043 -258.0692 -210.9842
ENERGY: 900000 2.1358 9.1171 14.5643 0.0000 -10564.8124 1375.5771 0.0000 0.0000 1659.3085 -7504.1094 286.8930 -9163.4180 -7459.6989 295.7674 -8.9723 45.0430 29533.5208 -135.3553 -92.9603
ENERGY: 1200000 4.6485 9.4745 13.0245 0.0000 -10841.2284 1607.2471 0.0000 0.0000 1791.7383 -7415.0954 309.7900 -9206.8337 -7456.6754 296.6180 985.2764 1028.5184 30212.3306 -97.6369 -49.5560
ENERGY: 1500000 4.0538 8.5842 12.1099 0.0000 -10528.1878 1391.2161 0.0000 0.0000 1700.8418 -7411.3822 294.0740 -9112.2239 -7442.4991 296.7533 -249.4318 -117.8664 30318.7002 -89.2075 -38.0186
TCL: Running FEP window   4: Lambda1 0.8499999999999999 Lambda2 0.7999999999999998 [dLambda -0.050000000000000044]
TCL: Setting parameter firsttimestep to 0
TCL: Setting parameter alchLambda to 0.8499999999999999
Info: NONBONDED TABLE R-SQUARED SPACING: 0.0625
Info: NONBONDED TABLE SIZE: 705 POINTS
TCL: Setting parameter alchLambda2 to 0.7999999999999998
Info: NONBONDED TABLE R-SQUARED SPACING: 0.0625
Info: NONBONDED TABLE SIZE: 705 POINTS
TCL: Running for 1500000 steps
ETITLE: TS BOND ANGLE DIHED IMPRP ELECT VDW BOUNDARY MISC KINETIC TOTAL TEMP POTENTIAL TOTALAVG TEMPAVG PRESSURE GPRESSURE VOLUME PRESSAVG GPRESSAVG
ENERGY: 0 4.0538 8.5841 12.1099 0.0000 -10525.5405 1390.2926 0.0000 0.0000 1699.9922 -7410.5079 293.9271 -9110.5001 -7410.5079 293.9271 -215.1495 -138.8892 30318.7002 -215.1495 -138.8892
ENERGY: 300000 6.1732 15.5983 15.2400 0.0000 -10599.2274 1447.1294 0.0000 0.0000 1736.0545 -7379.0319 300.1623 -9115.0865 -7416.4943 296.0769 273.3737 327.0190 29678.5446 121.0321 172.9336
ENERGY: 600000 3.5899 9.2374 14.2069 0.0000 -10612.7051 1429.7131 0.0000 0.0000 1743.5779 -7412.3799 301.4631 -9155.9578 -7409.0720 298.4637 355.3788 420.5218 29822.0732 41.0297 91.9972
ENERGY: 900000 3.0700 9.7451 14.4948 0.0000 -10457.5404 1336.3673 0.0000 0.0000 1752.8663 -7340.9968 303.0690 -9093.8631 -7399.0998 299.8669 -268.4438 -174.7706 29765.3971 -10.2180 48.5888
ENERGY: 1200000 2.7450 6.0104 14.0601 0.0000 -10446.2182 1356.4178 0.0000 0.0000 1713.5902 -7353.3947 296.2782 -9066.9849 -7400.9338 298.9545 -456.4505 -411.5397 30360.3160 -169.9891 -109.1465
ENERGY: 1500000 2.1240 5.0396 15.9843 0.0000 -10478.3941 1349.1627 0.0000 0.0000 1748.5811 -7357.5025 302.3281 -9106.0836 -7396.1098 298.9121 -214.0694 -140.8910 29733.9611 -199.9890 -135.2914
TCL: Running FEP window   5: Lambda1 0.7999999999999998 Lambda2 0.7499999999999998 [dLambda -0.050000000000000044]
TCL: Setting parameter firsttimestep to 0
TCL: Setting parameter alchLambda to 0.7999999999999998
Info: NONBONDED TABLE R-SQUARED SPACING: 0.0625
Info: NONBONDED TABLE SIZE: 705 POINTS
TCL: Setting parameter alchLambda2 to 0.7499999999999998
Info: NONBONDED TABLE R-SQUARED SPACING: 0.0625
Info: NONBONDED TABLE SIZE: 705 POINTS
TCL: Running for 1500000 steps
ETITLE: TS BOND ANGLE DIHED IMPRP ELECT VDW BOUNDARY MISC KINETIC TOTAL TEMP POTENTIAL TOTALAVG TEMPAVG PRESSURE GPRESSURE VOLUME PRESSAVG GPRESSAVG
ENERGY: 0 2.1240 5.0397 15.9843 0.0000 -10475.7557 1348.7706 0.0000 0.0000 1747.7120 -7356.1252 302.1779 -9103.8372 -7356.1252 302.1779 -240.6857 -152.7463 29733.9611 -240.6857 -152.7463
ENERGY: 300000 7.2583 7.1021 15.6288 0.0000 -10708.5463 1502.6064 0.0000 0.0000 1706.6319 -7469.3187 295.0752 -9175.9506 -7441.6863 296.3968 749.3596 775.7364 29441.9486 -168.6656 -109.5257
ENERGY: 600000 6.7848 9.1065 11.5227 0.0000 -10658.3626 1469.0689 0.0000 0.0000 1734.9294 -7426.9503 299.9678 -9161.8797 -7433.4102 296.9069 272.0234 334.3934 29813.0424 -91.4123 -37.8119
ENERGY: 900000 4.2594 9.5289 16.0528 0.0000 -10525.1443 1367.3584 0.0000 0.0000 1763.3486 -7364.5962 304.8814 -9127.9448 -7417.8308 298.0270 -310.8925 -279.7460 29861.4630 -49.7396 -2.0923
ENERGY: 1200000 2.8136 10.9838 11.1655 0.0000 -10536.0154 1386.4926 0.0000 0.0000 1771.7703 -7352.7896 306.3375 -9124.5600 -7408.7489 298.7058 37.4696 70.5744 29753.0428 42.4736 88.7302
ENERGY: 1500000 4.4824 13.3324 13.8588 0.0000 -10665.6653 1448.8235 0.0000 0.0000 1721.9198 -7463.2484 297.7184 -9185.1682 -7413.7548 298.7303 -93.8452 -132.5374 30637.4584 95.1313 137.1962
TCL: Running FEP window   6: Lambda1 0.7499999999999998 Lambda2 0.6999999999999997 [dLambda -0.050000000000000044]
TCL: Setting parameter firsttimestep to 0
TCL: Setting parameter alchLambda to 0.7499999999999998
Info: NONBONDED TABLE R-SQUARED SPACING: 0.0625
Info: NONBONDED TABLE SIZE: 705 POINTS
TCL: Setting parameter alchLambda2 to 0.6999999999999997
Info: NONBONDED TABLE R-SQUARED SPACING: 0.0625
Info: NONBONDED TABLE SIZE: 705 POINTS
TCL: Running for 1500000 steps
ETITLE: TS BOND ANGLE DIHED IMPRP ELECT VDW BOUNDARY MISC KINETIC TOTAL TEMP POTENTIAL TOTALAVG TEMPAVG PRESSURE GPRESSURE VOLUME PRESSAVG GPRESSAVG
ENERGY: 0 4.4824 13.3324 13.8588 0.0000 -10663.7028 1449.0891 0.0000 0.0000 1721.0868 -7461.8533 297.5744 -9182.9401 -7461.8533 297.5744 -205.7363 -137.0736 30637.4584 -205.7363 -137.0736
ENERGY: 300000 4.5524 7.7377 16.1383 0.0000 -10708.7899 1454.4136 0.0000 0.0000 1786.7339 -7439.2140 308.9247 -9225.9479 -7441.1011 302.2009 335.7504 384.1212 29618.3189 -125.8298 -71.1480
ENERGY: 600000 2.7892 8.6627 12.6560 0.0000 -10572.7543 1425.6784 0.0000 0.0000 1738.9765 -7383.9915 300.6675 -9122.9680 -7444.4275 299.9634 -212.5100 -102.0605 30266.3809 -260.8571 -195.9870
ENERGY: 900000 1.4721 6.0098 12.0709 0.0000 -10548.5341 1403.5066 0.0000 0.0000 1737.9767 -7387.4980 300.4946 -9125.4747 -7417.6042 301.0846 -124.3789 -88.5843 29902.0782 -267.4709 -207.8887
ENERGY: 1200000 5.0635 16.6844 12.8938 0.0000 -10506.6317 1364.5112 0.0000 0.0000 1760.0199 -7347.4589 304.3059 -9107.4788 -7409.6878 301.8885 -112.3275 -131.3499 29795.2432 -222.1437 -175.5626
ENERGY: 1500000 3.9181 8.6154 13.3843 0.0000 -10674.6886 1472.6012 0.0000 0.0000 1720.2033 -7455.9664 297.4216 -9176.1697 -7412.0930 300.7300 558.9888 625.2943 29640.7431 -191.1966 -144.2535
TCL: Running FEP window   7: Lambda1 0.6999999999999997 Lambda2 0.6499999999999997 [dLambda -0.050000000000000044]
TCL: Setting parameter firsttimestep to 0
TCL: Setting parameter alchLambda to 0.6999999999999997
Info: NONBONDED TABLE R-SQUARED SPACING: 0.0625
Info: NONBONDED TABLE SIZE: 705 POINTS
TCL: Setting parameter alchLambda2 to 0.6499999999999997
Info: NONBONDED TABLE R-SQUARED SPACING: 0.0625
Info: NONBONDED TABLE SIZE: 705 POINTS
TCL: Running for 1500000 steps
ETITLE: TS BOND ANGLE DIHED IMPRP ELECT VDW BOUNDARY MISC KINETIC TOTAL TEMP POTENTIAL TOTALAVG TEMPAVG PRESSURE GPRESSURE VOLUME PRESSAVG GPRESSAVG
ENERGY: 0 3.9181 8.6154 13.3843 0.0000 -10672.5582 1472.0822 0.0000 0.0000 1719.3671 -7455.1911 297.2771 -9174.5582 -7455.1911 297.2771 524.7448 612.8193 29640.7431 524.7448 612.8193
ENERGY: 300000 2.6749 12.3085 11.9018 0.0000 -10579.0692 1389.1494 0.0000 0.0000 1715.4925 -7447.5420 296.6072 -9163.0346 -7433.3209 298.1943 -449.8562 -343.8166 30021.1725 -221.4372 -108.4131
ENERGY: 600000 5.7070 13.1719 11.1864 0.0000 -10638.3775 1421.9766 0.0000 0.0000 1711.2389 -7475.0967 295.8717 -9186.3356 -7434.5553 299.4533 111.4664 160.2419 29411.4922 -252.3795 -152.0477
ENERGY: 900000 7.3850 7.8143 12.4683 0.0000 -10496.8736 1386.9627 0.0000 0.0000 1705.5164 -7376.7269 294.8823 -9082.2433 -7430.1532 297.9565 -377.6504 -315.3299 30502.4317 -222.0186 -133.2582
ENERGY: 1200000 2.1499 11.2832 13.7488 0.0000 -10573.1819 1403.5063 0.0000 0.0000 1735.4232 -7407.0705 300.0531 -9142.4937 -7421.5339 297.8731 -284.5133 -238.7129 30179.0442 -280.1373 -202.7792
ENERGY: 1500000 5.0057 9.2386 15.2637 0.0000 -10732.6826 1490.0017 0.0000 0.0000 1756.2615 -7456.9113 303.6561 -9213.1728 -7421.2476 299.0025 536.6405 597.2934 29668.1559 -202.3308 -127.1548
TCL: Running FEP window   8: Lambda1 0.6499999999999997 Lambda2 0.5999999999999996 [dLambda -0.050000000000000044]
TCL: Setting parameter firsttimestep to 0
TCL: Setting parameter alchLambda to 0.6499999999999997
Info: NONBONDED TABLE R-SQUARED SPACING: 0.0625
Info: NONBONDED TABLE SIZE: 705 POINTS
TCL: Setting parameter alchLambda2 to 0.5999999999999996
Info: NONBONDED TABLE R-SQUARED SPACING: 0.0625
Info: NONBONDED TABLE SIZE: 705 POINTS
TCL: Running for 1500000 steps
ETITLE: TS BOND ANGLE DIHED IMPRP ELECT VDW BOUNDARY MISC KINETIC TOTAL TEMP POTENTIAL TOTALAVG TEMPAVG PRESSURE GPRESSURE VOLUME PRESSAVG GPRESSAVG
ENERGY: 0 5.0057 9.2386 15.2637 0.0000 -10730.5699 1488.4343 0.0000 0.0000 1755.3598 -7457.2678 303.5002 -9212.6276 -7457.2678 303.5002 494.3166 574.1763 29668.1559 494.3166 574.1763
ENERGY: 300000 1.1557 13.1034 13.9073 0.0000 -10650.0149 1465.5341 0.0000 0.0000 1737.2071 -7419.1074 300.3616 -9156.3144 -7428.0217 300.4186 410.2529 453.1092 29857.4627 342.7206 424.9591
ENERGY: 600000 3.4649 8.4998 12.1577 0.0000 -10718.6645 1534.4251 0.0000 0.0000 1715.1734 -7444.9436 296.5520 -9160.1170 -7410.1142 301.7106 1118.7580 1203.0120 29568.1759 131.3710 212.3413
ENERGY: 900000 4.6814 9.8759 14.4463 0.0000 -10645.6807 1407.7144 0.0000 0.0000 1691.3917 -7517.5710 292.4401 -9208.9627 -7411.7914 300.6363 -483.6731 -404.3764 29753.5062 4.1244 77.3893
ENERGY: 1200000 3.8262 12.9009 15.3161 0.0000 -10450.4899 1330.2664 0.0000 0.0000 1775.1205 -7313.0599 306.9168 -9088.1803 -7406.2705 300.3824 -770.4752 -705.6932 30562.8319 -2.7843 65.3471
ENERGY: 1500000 2.8330 7.2585 12.3178 0.0000 -10619.5148 1409.9438 0.0000 0.0000 1751.5030 -7435.6587 302.8333 -9187.1617 -7408.8017 300.7156 -88.2255 -34.9907 29691.8333 -62.8388 4.0662
TCL: Running FEP window   9: Lambda1 0.5999999999999996 Lambda2 0.5499999999999996 [dLambda -0.050000000000000044]
TCL: Setting parameter firsttimestep to 0
TCL: Setting parameter alchLambda to 0.5999999999999996
Info: NONBONDED TABLE R-SQUARED SPACING: 0.0625
Info: NONBONDED TABLE SIZE: 705 POINTS
TCL: Setting parameter alchLambda2 to 0.5499999999999996
Info: NONBONDED TABLE R-SQUARED SPACING: 0.0625
Info: NONBONDED TABLE SIZE: 705 POINTS
TCL: Running for 1500000 steps
ETITLE: TS BOND ANGLE DIHED IMPRP ELECT VDW BOUNDARY MISC KINETIC TOTAL TEMP POTENTIAL TOTALAVG TEMPAVG PRESSURE GPRESSURE VOLUME PRESSAVG GPRESSAVG
ENERGY: 0 2.8330 7.2585 12.3178 0.0000 -10617.1206 1409.6426 0.0000 0.0000 1750.6761 -7434.3927 302.6904 -9185.0688 -7434.3927 302.6904 -124.9026 -41.7050 29691.8333 -124.9026 -41.7050
ENERGY: 300000 5.2444 11.1229 13.0475 0.0000 -10441.1024 1302.4597 0.0000 0.0000 1752.3361 -7356.8917 302.9774 -9109.2278 -7360.1062 302.3677 -792.1961 -703.1170 29634.7781 -382.2166 -305.8006
ENERGY: 600000 3.3452 11.4261 16.1316 0.0000 -10477.9206 1318.8264 0.0000 0.0000 1790.4683 -7337.7230 309.5704 -9128.1913 -7358.6285 303.0983 -1012.8190 -1019.5632 30510.4095 -480.2713 -414.6341
ENERGY: 900000 4.6020 5.7555 14.6836 0.0000 -10571.9659 1423.4115 0.0000 0.0000 1679.2063 -7444.3071 290.3333 -9123.5134 -7368.5709 302.0142 289.7901 305.1264 29668.8071 -267.5450 -207.1424
ENERGY: 1200000 2.1902 11.5976 16.1881 0.0000 -10728.2155 1447.9057 0.0000 0.0000 1727.2861 -7523.0477 298.6462 -9250.3338 -7382.8760 301.4810 69.3184 104.4777 29783.5488 -229.1502 -176.3524
ENERGY: 1500000 5.0903 12.2038 9.4208 0.0000 -10651.2045 1459.0635 0.0000 0.0000 1696.4340 -7468.9920 293.3119 -9165.4260 -7394.9852 300.5057 213.8542 272.9779 30052.5609 -224.7323 -171.8335
TCL: Running FEP window  10: Lambda1 0.5499999999999996 Lambda2 0.4999999999999996 [dLambda -0.04999999999999999]
TCL: Setting parameter firsttimestep to 0
TCL: Setting parameter alchLambda to 0.5499999999999996
Info: NONBONDED TABLE R-SQUARED SPACING: 0.0625
Info: NONBONDED TABLE SIZE: 705 POINTS
TCL: Setting parameter alchLambda2 to 0.4999999999999996
Info: NONBONDED TABLE R-SQUARED SPACING: 0.0625
Info: NONBONDED TABLE SIZE: 705 POINTS
TCL: Running for 1500000 steps
ETITLE: TS BOND ANGLE DIHED IMPRP ELECT VDW BOUNDARY MISC KINETIC TOTAL TEMP POTENTIAL TOTALAVG TEMPAVG PRESSURE GPRESSURE VOLUME PRESSAVG GPRESSAVG
ENERGY: 0 5.0903 12.2038 9.4208 0.0000 -10649.9335 1459.4764 0.0000 0.0000 1695.6113 -7468.1308 293.1697 -9163.7421 -7468.1308 293.1697 193.6355 270.5655 30052.5609 193.6355 270.5655
ENERGY: 300000 2.6903 9.9590 16.6123 0.0000 -10635.6363 1447.7226 0.0000 0.0000 1687.1794 -7471.4725 291.7118 -9158.6519 -7438.1137 297.0316 230.8575 289.7610 29387.9926 104.0249 163.7790
ENERGY: 600000 4.2236 9.0331 12.9732 0.0000 -10528.5277 1433.5839 0.0000 0.0000 1736.7010 -7332.0130 300.2741 -9068.7140 -7405.5149 298.6621 123.9256 107.1247 30514.1200 -12.0764 34.1799
ENERGY: 900000 4.9471 8.9796 13.2760 0.0000 -10550.8322 1364.9427 0.0000 0.0000 1723.8906 -7434.7961 298.0592 -9158.6868 -7394.9317 301.1114 -282.3648 -197.6871 29584.0825 -39.6155 11.9243
ENERGY: 1200000 4.4786 4.9613 14.5448 0.0000 -10503.4645 1402.3816 0.0000 0.0000 1741.5293 -7335.5688 301.1089 -9077.0981 -7385.6117 301.2191 -170.8874 -104.4896 30111.3742 -65.3757 -13.7921
ENERGY: 1500000 5.8635 5.6265 12.7498 0.0000 -10577.6782 1437.3265 0.0000 0.0000 1742.6968 -7373.4151 301.3107 -9116.1119 -7379.6485 301.3765 98.8253 114.2748 30087.2026 -37.1274 11.0079
TCL: Running FEP window  11: Lambda1 0.4999999999999996 Lambda2 0.4499999999999996 [dLambda -0.04999999999999999]
TCL: Setting parameter firsttimestep to 0
TCL: Setting parameter alchLambda to 0.4999999999999996
Info: NONBONDED TABLE R-SQUARED SPACING: 0.0625
Info: NONBONDED TABLE SIZE: 705 POINTS
TCL: Setting parameter alchLambda2 to 0.4499999999999996
Info: NONBONDED TABLE R-SQUARED SPACING: 0.0625
Info: NONBONDED TABLE SIZE: 705 POINTS
TCL: Running for 1500000 steps
ETITLE: TS BOND ANGLE DIHED IMPRP ELECT VDW BOUNDARY MISC KINETIC TOTAL TEMP POTENTIAL TOTALAVG TEMPAVG PRESSURE GPRESSURE VOLUME PRESSAVG GPRESSAVG
ENERGY: 0 5.8635 5.6265 12.7498 0.0000 -10577.6953 1437.7238 0.0000 0.0000 1741.8460 -7373.8857 301.1636 -9115.7317 -7373.8857 301.1636 35.1653 110.7448 30087.2026 35.1653 110.7448
ENERGY: 300000 5.3967 8.5741 13.5695 0.0000 -10549.2496 1355.3737 0.0000 0.0000 1712.3525 -7453.9831 296.0642 -9166.3356 -7375.9949 300.5181 -572.9179 -487.7052 29711.1575 -250.9732 -176.6042
ENERGY: 600000 7.9354 8.5255 13.5803 0.0000 -10502.5587 1381.9346 0.0000 0.0000 1683.9356 -7406.6473 291.1510 -9090.5830 -7376.9595 300.5844 -782.4372 -693.6997 30807.9447 -188.7723 -132.2381
ENERGY: 900000 3.9219 5.3298 14.6708 0.0000 -10537.3956 1457.0319 0.0000 0.0000 1739.5652 -7316.8760 300.7693 -9056.4412 -7374.7679 300.1161 885.6001 888.6779 29559.3416 -32.3486 8.8195
ENERGY: 1200000 7.1908 16.9416 13.2342 0.0000 -10441.8328 1279.3175 0.0000 0.0000 1714.1012 -7411.0476 296.3666 -9125.1487 -7378.6333 300.7793 -1388.2108 -1333.4158 30147.8233 -137.1561 -84.0973
ENERGY: 1500000 3.5296 9.1584 15.6941 0.0000 -10611.0574 1431.0858 0.0000 0.0000 1766.6672 -7384.9223 305.4552 -9151.5895 -7368.6814 301.3316 138.4590 158.4693 29683.5768 -124.6548 -73.7350
TCL: Running FEP window  12: Lambda1 0.4499999999999996 Lambda2 0.39999999999999963 [dLambda -0.04999999999999999]
TCL: Setting parameter firsttimestep to 0
TCL: Setting parameter alchLambda to 0.4499999999999996
Info: NONBONDED TABLE R-SQUARED SPACING: 0.0625
Info: NONBONDED TABLE SIZE: 705 POINTS
TCL: Setting parameter alchLambda2 to 0.39999999999999963
Info: NONBONDED TABLE R-SQUARED SPACING: 0.0625
Info: NONBONDED TABLE SIZE: 705 POINTS
TCL: Running for 1500000 steps
ETITLE: TS BOND ANGLE DIHED IMPRP ELECT VDW BOUNDARY MISC KINETIC TOTAL TEMP POTENTIAL TOTALAVG TEMPAVG PRESSURE GPRESSURE VOLUME PRESSAVG GPRESSAVG
ENERGY: 0 3.5296 9.1584 15.6941 0.0000 -10611.0571 1431.3786 0.0000 0.0000 1765.8234 -7385.4730 305.3093 -9151.2964 -7385.4730 305.3093 72.1519 153.4122 29683.5768 72.1519 153.4122
ENERGY: 300000 5.1647 7.9612 14.7363 0.0000 -10634.3341 1454.1132 0.0000 0.0000 1793.3054 -7359.0533 310.0609 -9152.3587 -7371.9479 308.4059 416.4038 486.0586 29619.2043 -60.3766 17.7129
ENERGY: 600000 4.2625 8.6872 14.4323 0.0000 -10505.0219 1442.4951 0.0000 0.0000 1763.4328 -7271.7121 304.8960 -9035.1449 -7371.8977 304.8589 417.8422 531.4512 30125.6375 -6.3343 54.1750
ENERGY: 900000 3.8261 10.2203 11.2682 0.0000 -10474.3223 1395.6502 0.0000 0.0000 1738.1686 -7315.1889 300.5278 -9053.3575 -7349.1693 304.1343 156.3435 202.6509 30031.3641 -38.6653 19.7133
ENERGY: 1200000 2.3450 11.6575 11.3008 0.0000 -10632.4113 1467.1460 0.0000 0.0000 1725.4810 -7414.4811 298.3341 -9139.9621 -7348.2882 303.2607 364.3442 445.2250 29598.5249 4.0466 67.5016
ENERGY: 1500000 3.5852 11.7694 15.5135 0.0000 -10476.2135 1357.0287 0.0000 0.0000 1747.9519 -7340.3649 302.2193 -9088.3167 -7353.9365 302.5917 -232.0652 -178.2421 29677.7652 -20.2521 48.0408
TCL: Running FEP window  13: Lambda1 0.39999999999999963 Lambda2 0.34999999999999964 [dLambda -0.04999999999999999]
TCL: Setting parameter firsttimestep to 0
TCL: Setting parameter alchLambda to 0.39999999999999963
Info: NONBONDED TABLE R-SQUARED SPACING: 0.0625
Info: NONBONDED TABLE SIZE: 705 POINTS
TCL: Setting parameter alchLambda2 to 0.34999999999999964
Info: NONBONDED TABLE R-SQUARED SPACING: 0.0625
Info: NONBONDED TABLE SIZE: 705 POINTS
TCL: Running for 1500000 steps
ETITLE: TS BOND ANGLE DIHED IMPRP ELECT VDW BOUNDARY MISC KINETIC TOTAL TEMP POTENTIAL TOTALAVG TEMPAVG PRESSURE GPRESSURE VOLUME PRESSAVG GPRESSAVG
ENERGY: 0 3.5852 11.7694 15.5135 0.0000 -10476.2138 1357.5288 0.0000 0.0000 1747.0675 -7340.7494 302.0664 -9087.8169 -7340.7494 302.0664 -275.8425 -181.9471 29677.7652 -275.8425 -181.9471
ENERGY: 300000 7.4416 7.7809 12.5523 0.0000 -10640.5041 1485.4335 0.0000 0.0000 1749.3851 -7377.9107 302.4671 -9127.2958 -7371.3628 301.4318 581.7909 619.4754 29586.3336 283.8339 361.7653
ENERGY: 600000 3.1649 4.2040 13.6712 0.0000 -10562.5624 1409.6900 0.0000 0.0000 1734.7397 -7397.0925 299.9350 -9131.8323 -7378.6984 299.5323 112.8266 172.1259 29582.6596 88.2216 158.7854
ENERGY: 900000 2.9658 9.5031 13.5303 0.0000 -10564.1826 1441.3515 0.0000 0.0000 1736.8367 -7359.9952 300.2975 -9096.8319 -7369.4169 299.9610 403.6858 421.8849 29655.0311 92.4575 139.4020
ENERGY: 1200000 11.4122 8.4822 12.9586 0.0000 -10600.7190 1396.1212 0.0000 0.0000 1769.6915 -7402.0534 305.9781 -9171.7450 -7360.2209 301.4708 -342.5666 -366.5650 29630.0958 -17.6723 22.9012
ENERGY: 1500000 6.9295 11.4424 15.9065 0.0000 -10535.6383 1328.8144 0.0000 0.0000 1734.5030 -7438.0425 299.8940 -9172.5455 -7365.8188 300.8982 -744.7208 -628.0679 29676.6441 -53.8182 -5.6839
TCL: Running FEP window  14: Lambda1 0.34999999999999964 Lambda2 0.29999999999999966 [dLambda -0.04999999999999999]
TCL: Setting parameter firsttimestep to 0
TCL: Setting parameter alchLambda to 0.34999999999999964
Info: NONBONDED TABLE R-SQUARED SPACING: 0.0625
Info: NONBONDED TABLE SIZE: 705 POINTS
TCL: Setting parameter alchLambda2 to 0.29999999999999966
Info: NONBONDED TABLE R-SQUARED SPACING: 0.0625
Info: NONBONDED TABLE SIZE: 705 POINTS
TCL: Running for 1500000 steps
ETITLE: TS BOND ANGLE DIHED IMPRP ELECT VDW BOUNDARY MISC KINETIC TOTAL TEMP POTENTIAL TOTALAVG TEMPAVG PRESSURE GPRESSURE VOLUME PRESSAVG GPRESSAVG
ENERGY: 0 6.9295 11.4424 15.9065 0.0000 -10535.6370 1328.9440 0.0000 0.0000 1733.6563 -7438.7582 299.7477 -9172.4145 -7438.7582 299.7477 -732.1957 -635.2133 29676.6441 -732.1957 -635.2133
ENERGY: 300000 4.0349 10.8618 13.5621 0.0000 -10480.3460 1362.6829 0.0000 0.0000 1691.7388 -7397.4654 292.5002 -9089.2042 -7399.2383 297.9077 -566.1125 -507.6553 30245.7232 -414.9930 -347.8640
ENERGY: 600000 3.5160 7.1484 15.2170 0.0000 -10559.5091 1447.4567 0.0000 0.0000 1704.9066 -7381.2644 294.7769 -9086.1710 -7399.5908 297.0402 272.4489 360.8907 29830.9419 -317.0753 -253.1941
ENERGY: 900000 4.9197 11.4054 12.2729 0.0000 -10531.1889 1391.0603 0.0000 0.0000 1747.0270 -7364.5036 302.0594 -9111.5306 -7390.8295 298.0271 -412.0202 -322.9082 30159.0195 -395.5834 -333.4987
ENERGY: 1200000 4.6141 4.5826 11.6525 0.0000 -10588.0296 1412.1881 0.0000 0.0000 1729.1876 -7425.8046 298.9750 -9154.9922 -7386.6908 298.3079 -187.3089 -119.5544 29928.6541 -303.0579 -241.3402
ENERGY: 1500000 3.0016 8.1762 13.8712 0.0000 -10585.7061 1460.1386 0.0000 0.0000 1698.6833 -7401.8352 293.7008 -9100.5185 -7394.8118 298.2395 486.3905 561.4377 29737.9118 -231.8196 -170.8817
TCL: Running FEP window  15: Lambda1 0.29999999999999966 Lambda2 0.24999999999999967 [dLambda -0.04999999999999999]
TCL: Setting parameter firsttimestep to 0
TCL: Setting parameter alchLambda to 0.29999999999999966
Info: NONBONDED TABLE R-SQUARED SPACING: 0.0625
Info: NONBONDED TABLE SIZE: 705 POINTS
TCL: Setting parameter alchLambda2 to 0.24999999999999967
Info: NONBONDED TABLE R-SQUARED SPACING: 0.0625
Info: NONBONDED TABLE SIZE: 705 POINTS
TCL: Running for 1500000 steps
ETITLE: TS BOND ANGLE DIHED IMPRP ELECT VDW BOUNDARY MISC KINETIC TOTAL TEMP POTENTIAL TOTALAVG TEMPAVG PRESSURE GPRESSURE VOLUME PRESSAVG GPRESSAVG
ENERGY: 0 3.0016 8.1762 13.8712 0.0000 -10585.7039 1460.4906 0.0000 0.0000 1697.8013 -7402.3630 293.5483 -9100.1643 -7402.3630 293.5483 481.0676 557.8319 29737.9118 481.0676 557.8319
ENERGY: 300000 6.7136 9.2483 13.1452 0.0000 -10621.7845 1431.3428 0.0000 0.0000 1723.3508 -7437.9837 297.9658 -9161.3345 -7435.0477 294.4355 -99.6034 -45.0089 29906.3862 -101.3594 -37.9147
ENERGY: 600000 3.4796 6.3078 12.1162 0.0000 -10496.0163 1348.0796 0.0000 0.0000 1750.2780 -7375.7550 302.6215 -9126.0330 -7435.1803 295.9185 -820.7506 -727.3959 30001.1442 -195.3428 -119.5251
ENERGY: 900000 5.3039 10.2569 14.6976 0.0000 -10540.2418 1396.4050 0.0000 0.0000 1797.7429 -7315.8355 310.8282 -9113.5783 -7416.7115 297.9359 -330.9096 -281.8231 30274.7322 -254.2558 -178.4482
ENERGY: 1200000 3.0905 6.4598 11.4728 0.0000 -10706.4376 1441.2074 0.0000 0.0000 1729.4615 -7514.7457 299.0224 -9244.2071 -7413.0735 298.5967 164.8550 216.3821 29310.7264 -191.9441 -125.4867
ENERGY: 1500000 2.9712 11.3981 12.3615 0.0000 -10441.5736 1321.8794 0.0000 0.0000 1733.9632 -7359.0002 299.8007 -9092.9634 -7400.8214 299.4553 -776.0751 -721.7594 30403.4191 -268.6133 -205.6200
TCL: Running FEP window  16: Lambda1 0.24999999999999967 Lambda2 0.19999999999999968 [dLambda -0.04999999999999999]
TCL: Setting parameter firsttimestep to 0
TCL: Setting parameter alchLambda to 0.24999999999999967
Info: NONBONDED TABLE R-SQUARED SPACING: 0.0625
Info: NONBONDED TABLE SIZE: 705 POINTS
TCL: Setting parameter alchLambda2 to 0.19999999999999968
Info: NONBONDED TABLE R-SQUARED SPACING: 0.0625
Info: NONBONDED TABLE SIZE: 705 POINTS
TCL: Running for 1500000 steps
ETITLE: TS BOND ANGLE DIHED IMPRP ELECT VDW BOUNDARY MISC KINETIC TOTAL TEMP POTENTIAL TOTALAVG TEMPAVG PRESSURE GPRESSURE VOLUME PRESSAVG GPRESSAVG
ENERGY: 0 2.9712 11.3981 12.3615 0.0000 -10441.5736 1322.3360 0.0000 0.0000 1733.1083 -7359.3986 299.6529 -9092.5069 -7359.3986 299.6529 -801.3873 -724.0003 30403.4191 -801.3873 -724.0003
ENERGY: 300000 4.6400 7.9894 13.7082 0.0000 -10591.6804 1426.7671 0.0000 0.0000 1747.0020 -7391.5737 302.0551 -9138.5756 -7404.0103 299.8962 25.5071 102.2467 29578.9636 -131.3025 -66.8934
ENERGY: 600000 4.2554 3.4773 12.1860 0.0000 -10464.4710 1353.4697 0.0000 0.0000 1726.7897 -7364.2929 298.5604 -9091.0826 -7392.1582 299.2356 -613.3048 -575.0254 30179.1502 -232.4950 -165.3549
ENERGY: 900000 1.9761 7.0719 10.7381 0.0000 -10362.2425 1280.9182 0.0000 0.0000 1770.2212 -7291.3170 306.0697 -9061.5382 -7396.2518 299.9589 -803.8640 -720.6875 29957.4246 -173.6101 -108.2285
ENERGY: 1200000 4.2779 17.2122 11.7977 0.0000 -10454.9969 1342.9806 0.0000 0.0000 1746.4080 -7332.3206 301.9524 -9078.7285 -7395.6538 300.5689 -462.3258 -445.8734 29809.5084 -159.7028 -91.4411
ENERGY: 1500000 5.7491 12.5905 15.5848 0.0000 -10489.0792 1420.4140 0.0000 0.0000 1774.0053 -7260.7356 306.7240 -9034.7409 -7396.8886 300.1121 52.3229 111.3578 30007.1468 -78.4925 -6.6571
TCL: Running FEP window  17: Lambda1 0.19999999999999968 Lambda2 0.1499999999999997 [dLambda -0.04999999999999999]
TCL: Setting parameter firsttimestep to 0
TCL: Setting parameter alchLambda to 0.19999999999999968
Info: NONBONDED TABLE R-SQUARED SPACING: 0.0625
Info: NONBONDED TABLE SIZE: 705 POINTS
TCL: Setting parameter alchLambda2 to 0.1499999999999997
Info: NONBONDED TABLE R-SQUARED SPACING: 0.0625
Info: NONBONDED TABLE SIZE: 705 POINTS
TCL: Running for 1500000 steps
ETITLE: TS BOND ANGLE DIHED IMPRP ELECT VDW BOUNDARY MISC KINETIC TOTAL TEMP POTENTIAL TOTALAVG TEMPAVG PRESSURE GPRESSURE VOLUME PRESSAVG GPRESSAVG
ENERGY: 0 5.7491 12.5905 15.5848 0.0000 -10489.0792 1420.6060 0.0000 0.0000 1773.0932 -7261.4556 306.5663 -9034.5489 -7261.4556 306.5663 38.3308 111.8094 30007.1468 38.3308 111.8094
ENERGY: 300000 4.5978 10.2421 13.7712 0.0000 -10470.6974 1351.0908 0.0000 0.0000 1729.1290 -7361.8664 298.9649 -9090.9954 -7340.0334 300.6860 -787.1385 -707.1356 30326.0667 -395.5017 -282.1544
ENERGY: 600000 4.8685 14.9184 19.0324 0.0000 -10521.4360 1358.7348 0.0000 0.0000 1752.6968 -7371.1851 303.0397 -9123.8819 -7357.9531 301.5657 -628.5868 -535.2571 29986.3511 -189.6106 -95.9286
ENERGY: 900000 6.8307 10.9254 13.3805 0.0000 -10428.3328 1318.4842 0.0000 0.0000 1732.5676 -7346.1445 299.5594 -9078.7121 -7357.0398 301.7256 -820.2319 -778.5168 30094.7997 -156.8132 -76.3533
ENERGY: 1200000 2.5968 6.8997 14.7261 0.0000 -10489.1191 1362.1536 0.0000 0.0000 1712.5827 -7390.1602 296.1040 -9102.7429 -7367.8918 301.8458 -551.6908 -479.3666 30028.4669 -148.8496 -71.0437
ENERGY: 1500000 2.8376 12.0874 17.0532 0.0000 -10632.3229 1444.0641 0.0000 0.0000 1706.3151 -7449.9655 295.0204 -9156.2806 -7381.3942 300.8329 108.6276 135.0086 29733.3351 -104.5987 -34.2167
TCL: Running FEP window  18: Lambda1 0.1499999999999997 Lambda2 0.09999999999999969 [dLambda -0.05 ]
TCL: Setting parameter firsttimestep to 0
TCL: Setting parameter alchLambda to 0.1499999999999997
Info: NONBONDED TABLE R-SQUARED SPACING: 0.0625
Info: NONBONDED TABLE SIZE: 705 POINTS
TCL: Setting parameter alchLambda2 to 0.09999999999999969
Info: NONBONDED TABLE R-SQUARED SPACING: 0.0625
Info: NONBONDED TABLE SIZE: 705 POINTS
TCL: Running for 1500000 steps
ETITLE: TS BOND ANGLE DIHED IMPRP ELECT VDW BOUNDARY MISC KINETIC TOTAL TEMP POTENTIAL TOTALAVG TEMPAVG PRESSURE GPRESSURE VOLUME PRESSAVG GPRESSAVG
ENERGY: 0 2.8376 12.0874 17.0532 0.0000 -10632.3208 1444.5602 0.0000 0.0000 1705.4735 -7450.3090 294.8749 -9155.7825 -7450.3090 294.8749 48.2809 134.9316 29733.3351 48.2809 134.9316
ENERGY: 300000 3.5401 7.8131 18.1653 0.0000 -10548.2372 1404.2559 0.0000 0.0000 1721.1650 -7393.2978 297.5879 -9114.4628 -7419.8144 298.6474 -7.1349 50.3813 29441.2710 60.7822 141.6910
ENERGY: 600000 2.5669 7.9580 18.9150 0.0000 -10626.6881 1394.6084 0.0000 0.0000 1728.6788 -7473.9610 298.8870 -9202.6398 -7413.5021 297.8835 -57.2026 -12.6406 29092.9664 53.6527 125.3259
ENERGY: 900000 3.8804 13.2825 14.4250 0.0000 -10565.0975 1353.9061 0.0000 0.0000 1707.9271 -7471.6764 295.2991 -9179.6035 -7411.5220 297.4636 -722.9336 -657.7933 29703.7836 -121.0865 -44.4481
ENERGY: 1200000 3.1996 9.9107 14.9245 0.0000 -10665.5747 1522.2307 0.0000 0.0000 1718.5063 -7396.8029 297.1282 -9115.3093 -7405.4821 297.2074 1067.7409 1116.0750 29396.2837 -133.3937 -64.6523
ENERGY: 1500000 7.8276 8.3490 16.2350 0.0000 -10537.4695 1364.9092 0.0000 0.0000 1768.7046 -7371.4441 305.8075 -9140.1487 -7406.9987 298.8419 -482.0621 -467.7915 29697.3768 -154.6849 -94.3236
TCL: Running FEP window  19: Lambda1 0.09999999999999969 Lambda2 0.049999999999999684 [dLambda -0.05 ]
TCL: Setting parameter firsttimestep to 0
TCL: Setting parameter alchLambda to 0.09999999999999969
Info: NONBONDED TABLE R-SQUARED SPACING: 0.0625
Info: NONBONDED TABLE SIZE: 705 POINTS
TCL: Setting parameter alchLambda2 to 0.049999999999999684
Info: NONBONDED TABLE R-SQUARED SPACING: 0.0625
Info: NONBONDED TABLE SIZE: 705 POINTS
TCL: Running for 1500000 steps
ETITLE: TS BOND ANGLE DIHED IMPRP ELECT VDW BOUNDARY MISC KINETIC TOTAL TEMP POTENTIAL TOTALAVG TEMPAVG PRESSURE GPRESSURE VOLUME PRESSAVG GPRESSAVG
ENERGY: 0 7.8276 8.3490 16.2350 0.0000 -10537.4701 1365.0340 0.0000 0.0000 1767.8628 -7372.1616 305.6619 -9140.0244 -7372.1616 305.6619 -549.3372 -468.3301 29697.3768 -549.3372 -468.3301
ENERGY: 300000 3.2564 11.8330 14.5536 0.0000 -10573.6391 1349.9344 0.0000 0.0000 1729.6621 -7464.3997 299.0571 -9194.0617 -7374.3604 301.5570 -969.2556 -818.7167 29618.2261 -181.8145 -89.1345
ENERGY: 600000 8.0033 9.7315 16.2973 0.0000 -10596.0907 1403.3463 0.0000 0.0000 1770.6670 -7388.0453 306.1468 -9158.7123 -7395.0282 300.3982 -282.0247 -171.9624 29482.6994 -259.2404 -167.8219
ENERGY: 900000 5.5796 4.1117 12.3733 0.0000 -10598.9032 1438.4855 0.0000 0.0000 1735.5803 -7402.7729 300.0803 -9138.3533 -7396.2503 300.7006 -198.7208 -70.5322 30049.4932 -173.6237 -86.8308
ENERGY: 1200000 2.7125 6.3475 14.8946 0.0000 -10571.5002 1383.6971 0.0000 0.0000 1748.6152 -7415.2332 302.3340 -9163.8484 -7397.0689 300.2790 -604.7318 -524.0711 29668.8137 -91.3962 -2.0333
ENERGY: 1500000 7.1001 13.3363 11.2254 0.0000 -10574.3415 1424.1273 0.0000 0.0000 1726.0640 -7392.4884 298.4349 -9118.5523 -7390.5005 300.7251 -57.2488 22.3029 30037.5894 -54.1401 29.3308
TCL: Running FEP window  20: Lambda1 0.049999999999999684 Lambda2 0.0    [dLambda -0.049999999999999684]
TCL: Setting parameter firsttimestep to 0
TCL: Setting parameter alchLambda to 0.049999999999999684
Info: NONBONDED TABLE R-SQUARED SPACING: 0.0625
Info: NONBONDED TABLE SIZE: 705 POINTS
TCL: Setting parameter alchLambda2 to 0.0
Info: NONBONDED TABLE R-SQUARED SPACING: 0.0625
Info: NONBONDED TABLE SIZE: 705 POINTS
TCL: Running for 1500000 steps
ETITLE: TS BOND ANGLE DIHED IMPRP ELECT VDW BOUNDARY MISC KINETIC TOTAL TEMP POTENTIAL TOTALAVG TEMPAVG PRESSURE GPRESSURE VOLUME PRESSAVG GPRESSAVG
ENERGY: 0 7.1001 13.3363 11.2254 0.0000 -10574.3424 1422.5220 0.0000 0.0000 1725.2064 -7394.9522 298.2867 -9120.1585 -7394.9522 298.2867 -76.9089 13.3412 30037.5894 -76.9089 13.3412
ENERGY: 300000 4.9193 12.6961 12.9843 0.0000 -10671.3066 1487.0723 0.0000 0.0000 1717.4129 -7436.2218 296.9392 -9153.6347 -7398.2227 298.8607 462.3292 618.3231 29531.7393 65.7539 163.7504
ENERGY: 600000 2.4682 9.1829 14.7030 0.0000 -10638.9470 1404.7558 0.0000 0.0000 1776.2675 -7431.5695 307.1151 -9207.8370 -7387.2250 300.9680 -74.7382 -35.0242 29384.0018 -2.4859 74.9245
ENERGY: 900000 2.6348 11.0439 11.9673 0.0000 -10513.1057 1444.4785 0.0000 0.0000 1730.4609 -7312.5203 299.1952 -9042.9813 -7387.6623 299.8327 330.3349 401.8559 29721.9879 1.3138 72.2519
ENERGY: 1200000 5.7292 15.2376 15.1873 0.0000 -10529.0405 1383.2606 0.0000 0.0000 1776.9351 -7332.6908 307.2305 -9109.6259 -7385.8197 301.2440 -613.8575 -513.7523 30269.2464 -116.8404 -43.0800
ENERGY: 1500000 6.8142 11.7439 10.8273 0.0000 -10538.5928 1414.0061 0.0000 0.0000 1740.2155 -7354.9858 300.8817 -9095.2013 -7378.6172 301.3480 -319.0232 -277.5487 30206.1247 -102.0454 -37.1801
TCL: Exiting due to exit command.
