Info: SIMULATION PARAMETERS:
Info: TIMESTEP               2
Info: NUMBER OF STEPS        0
Info: STEPS PER CYCLE        10
Info: PERIODIC CELL BASIS 1  30.9067 0 0
Info: PERIODIC CELL BASIS 2  0 30.2446 0
Info: PERIODIC CELL BASIS 3  0 0 31.9564
Info: PERIODIC CELL CENTER   0 0 0
Info: WRAPPING WATERS AROUND PERIODIC BOUNDARIES ON OUTPUT.
Info: WRAPPING ALL CLUSTERS AROUND PERIODIC BOUNDARIES ON OUTPUT.
Info: FIRST LDB TIMESTEP     50
Info: LAST LDB TIMESTEP     -1
Info: HOM BACKGROUND SCALING 1
Info: PME BACKGROUND SCALING 1
Info: MIN ATOMS PER PATCH    40
Info: EMPTY PATCH LOAD       40 ATOMS
Info: VELOCITY FILE          mobley_6727159_equil.vel
Info: CENTER OF MASS MOVING INITIALLY? NO
Info: DIELECTRIC             1
Info: EXCLUDE                SCALED ONE-FOUR
Info: 1-4 ELECTROSTATICS SCALED BY 0.833333
Info: MODIFIED 1-4 VDW PARAMETERS WILL BE USED
Info: DCD FILENAME           mobley_6727159_prod.dcd
Info: DCD FREQUENCY          100000
Info: DCD FIRST STEP         100000
Info: DCD FILE WILL CONTAIN UNIT CELL DATA
Info: XST FILENAME           mobley_6727159_prod.xst
Info: XST FREQUENCY          100000
Info: NO VELOCITY DCD OUTPUT
Info: NO FORCE DCD OUTPUT
Info: OUTPUT FILENAME        mobley_6727159_prod
Info: BINARY OUTPUT FILES WILL BE USED
Info: RESTART FILENAME       mobley_6727159_prod.restart
Info: RESTART FREQUENCY      100000
Info: BINARY RESTART FILES WILL BE USED
Info: CUTOFF                 9
Info: PAIRLIST DISTANCE      11
Info: PAIRLIST SHRINK RATE   0.01
Info: PAIRLIST GROW RATE     0.01
Info: PAIRLIST TRIGGER       0.3
Info: PAIRLISTS PER CYCLE    2
Info: PAIRLISTS ENABLED
Info: MARGIN                 2
Info: HYDROGEN GROUP CUTOFF  2.5
Info: PATCH DIMENSION        15.5
Info: ENERGY OUTPUT STEPS    100000
Info: ENERGY EVALUATION STEPS    100000
Info: OUTPUT ENERGY PRECISION 4
Info: CROSSTERM ENERGY INCLUDED IN DIHEDRAL
Info: TIMING OUTPUT STEPS    1000000
Info: PRESSURE OUTPUT STEPS  100000
Info: ALCHEMICAL FEP ON
Info: FEP CURRENT LAMBDA VALUE     0
Info: FEP COMPARISON LAMBDA VALUE  0.05
Info: FEP INTRA-ALCHEMICAL NON-BONDED INTERACTIONS WILL BE RETAINED
Info: FEP INTRA-ALCHEMICAL BONDED INTERACTIONS WILL BE RETAINED
Info: FEP VDW SHIFTING COEFFICIENT 5
Info: FEP ELEC. ACTIVE FOR ANNIHILATED PARTICLES BETWEEN LAMBDA = 0 AND LAMBDA = 0.5
Info: FEP ELEC. ACTIVE FOR EXNIHILATED PARTICLES BETWEEN LAMBDA = 0.5 AND LAMBDA = 1
Info: FEP VDW ACTIVE FOR ANNIHILATED PARTICLES BETWEEN LAMBDA = 0 AND LAMBDA = 1
Info: FEP VDW ACTIVE FOR EXNIHILATED PARTICLES BETWEEN LAMBDA = 0 AND LAMBDA = 1
Info: FEP BOND ACTIVE FOR ANNIHILATED PARTICLES BETWEEN LAMBDA = 1 AND LAMBDA = 1
Info: FEP BOND ACTIVE FOR EXNIHILATED PARTICLES BETWEEN LAMBDA = 0 AND LAMBDA = 0
Info: LANGEVIN DYNAMICS ACTIVE
Info: LANGEVIN TEMPERATURE   300
Info: LANGEVIN USING BBK INTEGRATOR
Info: LANGEVIN DAMPING COEFFICIENT IS 1 INVERSE PS
Info: LANGEVIN DYNAMICS APPLIED TO HYDROGENS
Info: LANGEVIN PISTON PRESSURE CONTROL ACTIVE
Info:        TARGET PRESSURE IS 1.01325 BAR
Info:     OSCILLATION PERIOD IS 50 FS
Info:             DECAY TIME IS 25 FS
Info:     PISTON TEMPERATURE IS 300 K
Info:       PRESSURE CONTROL IS GROUP-BASED
Info:    INITIAL STRAIN RATE IS -3.09333e-05 -3.09333e-05 -3.09333e-05
Info:       CELL FLUCTUATION IS ISOTROPIC
Info: PARTICLE MESH EWALD (PME) ACTIVE
Info: PME TOLERANCE               1e-06
Info: PME EWALD COEFFICIENT       0.348832
Info: PME INTERPOLATION ORDER     4
Info: PME GRID DIMENSIONS         32 32 32
Info: PME MAXIMUM GRID SPACING    1
Info: PME CALCULATION WILL BE PERFORMED ON GPU
Info: FULL ELECTROSTATIC EVALUATION FREQUENCY      2
Info: USING VERLET I (r-RESPA) MTS SCHEME.
Info: C1 SPLITTING OF LONG RANGE ELECTROSTATICS
Info: PLACING ATOMS IN PATCHES BY HYDROGEN GROUPS
Info: RIGID BONDS TO HYDROGEN : ALL
Info:         ERROR TOLERANCE : 1e-08
Info:          MAX ITERATIONS : 100
Info: RIGID WATER USING SETTLE ALGORITHM
Info: RANDOM NUMBER SEED     1743903587
Info: USE HYDROGEN BONDS?    NO
Info: Using AMBER format force field!
Info: AMBER PARM FILE        mobley_6727159.prmtop
Info: COORDINATE PDB         mobley_6727159.pdb
Info: Exclusions will be read from PARM file!
Info: SCNB (VDW SCALING)     2
Info: USING ARITHMETIC MEAN TO COMBINE L-J SIGMA PARAMETERS
Info: BINARY COORDINATES     mobley_6727159_equil.coor
Info: SUMMARY OF PARAMETERS:
Info: 9 BONDS
Info: 10 ANGLES
Info:   10 HARMONIC
Info:   0 COSINE-BASED
Info: 9 DIHEDRAL
Info: 0 IMPROPER
Info: 0 CROSSTERM
Info: 0 VDW
Info: 36 VDW_PAIRS
Info: 0 NBTHOLE_PAIRS
Info: To read alchdata from file: mobley_6727159.pdb
Info: To read alchflag data from column: 5
Info: STRUCTURE SUMMARY:
Info: 2940 ATOMS
Info: 2939 BONDS
Info: 17 ANGLES
Info: 23 DIHEDRALS
Info: 0 IMPROPERS
Info: 0 CROSSTERMS
Info: 2973 EXCLUSIONS
Info: 2933 RIGID BONDS
Info: ALCH: 0 ATOMS TO DISAPPEAR IN FINAL STATE
Info: ALCH: 12 ATOMS TO APPEAR IN FINAL STATE
Info: 5887 DEGREES OF FREEDOM
Info: 983 HYDROGEN GROUPS
Info: 3 ATOMS IN LARGEST HYDROGEN GROUP
Info: 983 MIGRATION GROUPS
Info: 3 ATOMS IN LARGEST MIGRATION GROUP
Info: TOTAL MASS = 17690.7 amu
Info: TOTAL CHARGE = 0.000100009 e
Info: MASS DENSITY = 0.983436 g/cm^3
Info: ATOM DENSITY = 0.0984214 atoms/A^3
Info: ADDED 0 IMPLICIT EXCLUSIONS
Info: NONBONDED TABLE R-SQUARED SPACING: 0.0625
Info: NONBONDED TABLE SIZE: 705 POINTS
Info: REMOVING COM VELOCITY 0.0836472 -0.0534379 0.0430838
Info: Use 3D box decompostion in PME FFT.
Info: Updated CUDA force table with 4096 elements.
Info: Updated CUDA LJ table with 8 x 8 elements.
Info: Found 15 unique exclusion lists needing 28 bytes
TCL: Running for 1500000 steps
ETITLE: TS BOND ANGLE DIHED IMPRP ELECT VDW BOUNDARY MISC KINETIC TOTAL TEMP POTENTIAL TOTALAVG TEMPAVG PRESSURE GPRESSURE VOLUME PRESSAVG GPRESSAVG
ENERGY: 0 2.7248 4.6408 3.2186 0.0000 -10733.6195 1426.2828 0.0000 0.0000 1743.5995 -7553.1531 298.0870 -9296.7526 -7553.1531 298.0870 -334.1339 -251.0051 29871.5578 -334.1339 -251.0051
ENERGY: 300000 4.1072 4.0030 3.4422 0.0000 -10650.2332 1439.5695 0.0000 0.0000 1772.6619 -7426.4494 303.0556 -9199.1112 -7451.4307 305.3073 -169.2345 -158.7228 30384.2908 28.5884 54.1607
ENERGY: 600000 2.7249 1.5725 2.0189 0.0000 -10691.8018 1478.7716 0.0000 0.0000 1746.2482 -7460.4656 298.5399 -9206.7138 -7441.1040 303.4931 259.9930 316.8965 30025.8195 106.0643 159.1087
ENERGY: 900000 1.0826 3.1981 3.6524 0.0000 -10619.7688 1410.4648 0.0000 0.0000 1702.8714 -7498.4995 291.1241 -9201.3709 -7447.0791 300.8432 -495.6902 -428.4113 30774.7286 31.2369 79.0476
ENERGY: 1200000 1.1962 8.6449 3.0672 0.0000 -10689.0186 1448.1966 0.0000 0.0000 1771.2105 -7456.7033 302.8074 -9227.9137 -7444.8587 301.6462 195.9084 241.9776 29848.3283 50.5872 101.6748
ENERGY: 1500000 2.2208 4.8739 1.6335 0.0000 -10597.0311 1386.3108 0.0000 0.0000 1781.0647 -7420.9274 304.4921 -9201.9921 -7441.7934 302.1033 -236.0381 -156.9431 30047.5569 -4.9383 51.5053
TCL: Running FEP window   2: Lambda1 0.05   Lambda2 0.1    [dLambda 0.05  ]
TCL: Setting parameter firsttimestep to 0
TCL: Setting parameter alchLambda to 0.05
Info: NONBONDED TABLE R-SQUARED SPACING: 0.0625
Info: NONBONDED TABLE SIZE: 705 POINTS
TCL: Setting parameter alchLambda2 to 0.1
Info: NONBONDED TABLE R-SQUARED SPACING: 0.0625
Info: NONBONDED TABLE SIZE: 705 POINTS
TCL: Running for 1500000 steps
ETITLE: TS BOND ANGLE DIHED IMPRP ELECT VDW BOUNDARY MISC KINETIC TOTAL TEMP POTENTIAL TOTALAVG TEMPAVG PRESSURE GPRESSURE VOLUME PRESSAVG GPRESSAVG
ENERGY: 0 2.2207 4.8738 1.6335 0.0000 -10597.0309 1385.9959 0.0000 0.0000 1780.2150 -7422.0918 304.3469 -9202.3069 -7422.0918 304.3469 -246.5128 -156.5779 30047.5569 -246.5128 -156.5779
ENERGY: 300000 1.5788 3.1477 3.2669 0.0000 -10737.1906 1528.3170 0.0000 0.0000 1769.9611 -7430.9191 302.5938 -9200.8802 -7427.0767 303.5958 606.2317 736.3334 30269.3579 44.2694 148.2779
ENERGY: 600000 1.4240 5.4709 3.5763 0.0000 -10605.7090 1401.5524 0.0000 0.0000 1774.9443 -7418.7411 303.4458 -9193.6854 -7441.4545 302.1471 -496.6398 -389.5376 30650.3734 -24.4301 70.0858
ENERGY: 900000 1.3078 5.5480 3.9781 0.0000 -10503.5003 1301.0809 0.0000 0.0000 1753.1866 -7438.3988 299.7261 -9191.5855 -7448.0979 302.4934 -1131.2924 -988.1098 30280.7043 -205.6219 -105.1332
ENERGY: 1200000 0.6062 3.7377 3.2666 0.0000 -10714.3251 1493.4785 0.0000 0.0000 1778.5933 -7434.6428 304.0696 -9213.2361 -7446.0552 302.2885 389.5350 480.2269 30197.2706 -150.9442 -51.0141
ENERGY: 1500000 0.2292 6.2732 2.3607 0.0000 -10660.7663 1444.8094 0.0000 0.0000 1725.0382 -7482.0556 294.9138 -9207.0938 -7443.9340 302.0683 98.4895 241.1495 30079.8393 -93.3356 1.7823
TCL: Running FEP window   3: Lambda1 0.1    Lambda2 0.15000000000000002 [dLambda 0.05000000000000002]
TCL: Setting parameter firsttimestep to 0
TCL: Setting parameter alchLambda to 0.1
Info: NONBONDED TABLE R-SQUARED SPACING: 0.0625
Info: NONBONDED TABLE SIZE: 705 POINTS
TCL: Setting parameter alchLambda2 to 0.15000000000000002
Info: NONBONDED TABLE R-SQUARED SPACING: 0.0625
Info: NONBONDED TABLE SIZE: 705 POINTS
TCL: Running for 1500000 steps
ETITLE: TS BOND ANGLE DIHED IMPRP ELECT VDW BOUNDARY MISC KINETIC TOTAL TEMP POTENTIAL TOTALAVG TEMPAVG PRESSURE GPRESSURE VOLUME PRESSAVG GPRESSAVG
ENERGY: 0 0.2292 6.2732 2.3607 0.0000 -10660.7658 1445.9978 0.0000 0.0000 1724.1368 -7481.7682 294.7597 -9205.9050 -7481.7682 294.7597 159.2496 247.0474 30079.8393 159.2496 247.0474
ENERGY: 300000 1.9904 5.0527 1.9714 0.0000 -10650.3539 1378.6839 0.0000 0.0000 1772.1296 -7490.5259 302.9646 -9262.6556 -7480.0841 299.1669 -444.5772 -442.8193 30109.9248 135.7008 188.1870
ENERGY: 600000 2.6064 7.5597 1.6214 0.0000 -10622.6117 1395.3460 0.0000 0.0000 1700.9869 -7514.4913 290.8020 -9215.4783 -7481.2759 297.4931 -200.6742 -119.7613 29705.1621 96.5969 153.6004
ENERGY: 900000 3.0011 4.1959 4.4417 0.0000 -10622.3413 1444.1921 0.0000 0.0000 1768.4996 -7398.0110 302.3440 -9166.5105 -7476.1508 297.6980 -383.5285 -259.1271 30900.3615 -57.7804 6.0588
ENERGY: 1200000 1.0391 6.7561 3.1167 0.0000 -10607.7523 1447.0233 0.0000 0.0000 1797.1778 -7352.6393 307.2468 -9149.8171 -7462.2331 299.0997 20.5153 167.4617 30786.4408 -30.8171 36.5523
ENERGY: 1500000 3.3562 6.0432 2.6549 0.0000 -10726.6634 1482.0558 0.0000 0.0000 1810.7730 -7421.7803 309.5711 -9232.5533 -7455.5624 299.3886 217.7575 265.4807 30220.1326 0.4711 63.3448
TCL: Running FEP window   4: Lambda1 0.15000000000000002 Lambda2 0.2    [dLambda 0.04999999999999999]
TCL: Setting parameter firsttimestep to 0
TCL: Setting parameter alchLambda to 0.15000000000000002
Info: NONBONDED TABLE R-SQUARED SPACING: 0.0625
Info: NONBONDED TABLE SIZE: 705 POINTS
TCL: Setting parameter alchLambda2 to 0.2
Info: NONBONDED TABLE R-SQUARED SPACING: 0.0625
Info: NONBONDED TABLE SIZE: 705 POINTS
TCL: Running for 1500000 steps
ETITLE: TS BOND ANGLE DIHED IMPRP ELECT VDW BOUNDARY MISC KINETIC TOTAL TEMP POTENTIAL TOTALAVG TEMPAVG PRESSURE GPRESSURE VOLUME PRESSAVG GPRESSAVG
ENERGY: 0 3.3562 6.0432 2.6549 0.0000 -10726.6637 1482.7933 0.0000 0.0000 1809.9273 -7421.8888 309.4265 -9231.8161 -7421.8888 309.4265 185.4180 268.4309 30220.1326 185.4180 268.4309
ENERGY: 300000 1.2939 4.0167 3.3281 0.0000 -10631.9411 1433.5375 0.0000 0.0000 1732.4261 -7457.3388 296.1768 -9189.7649 -7413.5620 304.6512 -129.8458 -50.6171 30283.9959 -229.7720 -166.0927
ENERGY: 600000 0.8782 2.9299 2.2097 0.0000 -10950.0725 1606.7684 0.0000 0.0000 1673.6399 -7663.6465 286.1267 -9337.2863 -7477.3662 298.8337 1064.0934 1099.4077 29888.0514 -8.5923 44.9623
ENERGY: 900000 3.2928 6.5963 2.3264 0.0000 -10713.5100 1501.5759 0.0000 0.0000 1729.0698 -7470.6488 295.6030 -9199.7186 -7480.4324 298.1531 822.0733 892.8982 29664.2750 -28.1416 36.1033
ENERGY: 1200000 1.3872 7.2165 2.5155 0.0000 -10618.2730 1413.8454 0.0000 0.0000 1761.3042 -7432.0043 301.1138 -9193.3084 -7468.2840 299.6914 68.0809 94.4203 29807.4271 -59.0050 1.8106
ENERGY: 1500000 3.4547 6.6074 2.4162 0.0000 -10637.1379 1366.2238 0.0000 0.0000 1761.7448 -7496.6909 301.1892 -9258.4357 -7467.5380 300.1055 -697.9133 -648.6445 30210.2472 -65.3130 -4.9309
TCL: Running FEP window   5: Lambda1 0.2    Lambda2 0.25   [dLambda 0.04999999999999999]
TCL: Setting parameter firsttimestep to 0
TCL: Setting parameter alchLambda to 0.2
Info: NONBONDED TABLE R-SQUARED SPACING: 0.0625
Info: NONBONDED TABLE SIZE: 705 POINTS
TCL: Setting parameter alchLambda2 to 0.25
Info: NONBONDED TABLE R-SQUARED SPACING: 0.0625
Info: NONBONDED TABLE SIZE: 705 POINTS
TCL: Running for 1500000 steps
ETITLE: TS BOND ANGLE DIHED IMPRP ELECT VDW BOUNDARY MISC KINETIC TOTAL TEMP POTENTIAL TOTALAVG TEMPAVG PRESSURE GPRESSURE VOLUME PRESSAVG GPRESSAVG
ENERGY: 0 3.4547 6.6074 2.4162 0.0000 -10637.1389 1365.9630 0.0000 0.0000 1760.8752 -7497.8223 301.0405 -9258.6975 -7497.8223 301.0405 -738.8563 -646.2224 30210.2472 -738.8563 -646.2224
ENERGY: 300000 2.7810 9.2285 2.1627 0.0000 -10771.6539 1441.5120 0.0000 0.0000 1765.9693 -7550.0003 301.9114 -9315.9696 -7496.5548 300.7036 -159.2223 -108.5297 29764.1820 -296.6628 -260.9938
ENERGY: 600000 1.5080 1.9108 2.1935 0.0000 -10731.7908 1478.9125 0.0000 0.0000 1725.4100 -7521.8559 294.9773 -9247.2659 -7520.5132 298.4600 -97.1951 -27.6651 30632.2898 -144.2792 -99.1916
ENERGY: 900000 1.1612 6.0465 3.2672 0.0000 -10630.9834 1397.5512 0.0000 0.0000 1759.4519 -7463.5054 300.7972 -9222.9574 -7493.7046 299.9871 -682.7773 -638.4907 30751.5935 -218.8223 -176.5832
ENERGY: 1200000 1.0911 2.4097 2.6395 0.0000 -10611.9021 1437.3178 0.0000 0.0000 1768.0385 -7400.4057 302.2651 -9168.4442 -7484.0007 300.1769 27.3155 57.3301 30448.4587 -165.9323 -118.6729
ENERGY: 1500000 1.8287 3.4308 4.1068 0.0000 -10783.6862 1547.4737 0.0000 0.0000 1795.5017 -7431.3445 306.9603 -9226.8462 -7468.2197 300.8996 1039.0377 1091.8399 29786.0299 -125.8541 -74.8702
TCL: Running FEP window   6: Lambda1 0.25   Lambda2 0.3    [dLambda 0.04999999999999999]
TCL: Setting parameter firsttimestep to 0
TCL: Setting parameter alchLambda to 0.25
Info: NONBONDED TABLE R-SQUARED SPACING: 0.0625
Info: NONBONDED TABLE SIZE: 705 POINTS
TCL: Setting parameter alchLambda2 to 0.3
Info: NONBONDED TABLE R-SQUARED SPACING: 0.0625
Info: NONBONDED TABLE SIZE: 705 POINTS
TCL: Running for 1500000 steps
ETITLE: TS BOND ANGLE DIHED IMPRP ELECT VDW BOUNDARY MISC KINETIC TOTAL TEMP POTENTIAL TOTALAVG TEMPAVG PRESSURE GPRESSURE VOLUME PRESSAVG GPRESSAVG
ENERGY: 0 1.8287 3.4308 4.1068 0.0000 -10783.6855 1547.3466 0.0000 0.0000 1794.6177 -7432.3548 306.8091 -9226.9726 -7432.3548 306.8091 1003.7708 1093.4654 29786.0299 1003.7708 1093.4654
ENERGY: 300000 1.4550 5.1059 3.6138 0.0000 -10682.7816 1424.4869 0.0000 0.0000 1747.7811 -7500.3389 298.8019 -9248.1200 -7482.8206 298.4975 -90.1049 -20.5119 29990.8555 -53.0046 12.2935
ENERGY: 600000 2.1600 3.0991 2.7896 0.0000 -10592.8745 1420.6800 0.0000 0.0000 1768.7288 -7395.4170 302.3832 -9164.1458 -7460.5771 299.5968 -41.6051 32.5862 30137.1198 21.8946 85.8237
ENERGY: 900000 3.3714 8.4729 3.2783 0.0000 -10760.6923 1543.0223 0.0000 0.0000 1761.1169 -7441.4304 301.0818 -9202.5473 -7461.5864 299.5976 652.7241 730.7535 30187.0762 141.9723 207.9413
ENERGY: 1200000 5.5383 5.2383 2.6642 0.0000 -10650.0869 1440.8735 0.0000 0.0000 1760.1336 -7435.6391 300.9137 -9195.7727 -7455.3910 299.7139 -112.2366 -61.1249 30348.1052 70.6251 135.7900
ENERGY: 1500000 0.7242 4.7306 2.3023 0.0000 -10719.0974 1472.8122 0.0000 0.0000 1773.4106 -7465.1174 303.1836 -9238.5280 -7461.9798 299.5874 197.5435 249.5785 30007.5269 22.2858 86.1882
TCL: Running FEP window   7: Lambda1 0.3    Lambda2 0.35   [dLambda 0.04999999999999999]
TCL: Setting parameter firsttimestep to 0
TCL: Setting parameter alchLambda to 0.3
Info: NONBONDED TABLE R-SQUARED SPACING: 0.0625
Info: NONBONDED TABLE SIZE: 705 POINTS
TCL: Setting parameter alchLambda2 to 0.35
Info: NONBONDED TABLE R-SQUARED SPACING: 0.0625
Info: NONBONDED TABLE SIZE: 705 POINTS
TCL: Running for 1500000 steps
ETITLE: TS BOND ANGLE DIHED IMPRP ELECT VDW BOUNDARY MISC KINETIC TOTAL TEMP POTENTIAL TOTALAVG TEMPAVG PRESSURE GPRESSURE VOLUME PRESSAVG GPRESSAVG
ENERGY: 0 0.7242 4.7306 2.3023 0.0000 -10719.0965 1473.2607 0.0000 0.0000 1772.5439 -7465.5348 303.0354 -9238.0787 -7465.5348 303.0354 167.2048 255.0448 30007.5269 167.2048 255.0448
ENERGY: 300000 2.0738 3.8493 2.2656 0.0000 -10496.1332 1359.3966 0.0000 0.0000 1720.9745 -7407.5733 294.2190 -9128.5478 -7434.4009 299.8492 -298.4642 -234.7226 30019.4469 84.5230 136.7637
ENERGY: 600000 3.0293 3.0687 4.5944 0.0000 -10449.6466 1314.6429 0.0000 0.0000 1751.6533 -7372.6580 299.4639 -9124.3113 -7435.5520 299.5894 -831.5365 -821.6020 30500.8245 -190.5901 -150.4137
ENERGY: 900000 2.3692 6.2003 2.5987 0.0000 -10561.0263 1385.8753 0.0000 0.0000 1790.1922 -7373.7906 306.0526 -9163.9828 -7421.6415 301.3324 138.8488 209.6549 29638.5091 -140.9500 -97.0860
ENERGY: 1200000 1.2068 8.6620 2.2044 0.0000 -10713.1162 1443.1240 0.0000 0.0000 1706.6853 -7551.2336 291.7762 -9257.9190 -7436.7972 301.0042 -214.9089 -156.9699 30221.7123 -230.2698 -188.9707
ENERGY: 1500000 1.8380 1.5765 2.6600 0.0000 -10679.3736 1495.0848 0.0000 0.0000 1801.4688 -7376.7455 307.9804 -9178.2143 -7432.4989 301.1551 772.3206 791.8816 30004.1414 -129.3624 -84.5814
TCL: Running FEP window   8: Lambda1 0.35   Lambda2 0.39999999999999997 [dLambda 0.04999999999999999]
TCL: Setting parameter firsttimestep to 0
TCL: Setting parameter alchLambda to 0.35
Info: NONBONDED TABLE R-SQUARED SPACING: 0.0625
Info: NONBONDED TABLE SIZE: 705 POINTS
TCL: Setting parameter alchLambda2 to 0.39999999999999997
Info: NONBONDED TABLE R-SQUARED SPACING: 0.0625
Info: NONBONDED TABLE SIZE: 705 POINTS
TCL: Running for 1500000 steps
ETITLE: TS BOND ANGLE DIHED IMPRP ELECT VDW BOUNDARY MISC KINETIC TOTAL TEMP POTENTIAL TOTALAVG TEMPAVG PRESSURE GPRESSURE VOLUME PRESSAVG GPRESSAVG
ENERGY: 0 1.8380 1.5765 2.6600 0.0000 -10679.3757 1495.8631 0.0000 0.0000 1800.5735 -7376.8645 307.8274 -9177.4380 -7376.8645 307.8274 719.7958 802.6240 30004.1414 719.7958 802.6240
ENERGY: 300000 2.0975 4.0789 3.1193 0.0000 -10723.5598 1490.4914 0.0000 0.0000 1739.9287 -7483.8440 297.4595 -9223.7727 -7464.3981 299.2068 552.8833 641.0691 29901.7946 401.6691 499.1096
ENERGY: 600000 2.8706 4.8926 3.3305 0.0000 -10756.5868 1490.6616 0.0000 0.0000 1709.2482 -7545.5833 292.2143 -9254.8315 -7483.9295 297.3748 660.7791 687.9636 29748.4761 410.1347 483.6959
ENERGY: 900000 1.0319 4.2874 4.1145 0.0000 -10470.5424 1287.1876 0.0000 0.0000 1783.0258 -7390.8952 304.8274 -9173.9210 -7474.2364 299.3658 -1200.6862 -1142.8513 30691.3982 162.9390 230.2559
ENERGY: 1200000 3.2852 3.8021 3.7802 0.0000 -10583.8072 1349.6818 0.0000 0.0000 1752.2623 -7470.9956 299.5680 -9223.2578 -7471.6362 299.0936 -963.0492 -915.7251 30693.0457 52.2084 115.4016
ENERGY: 1500000 4.3815 7.5368 2.6400 0.0000 -10621.0616 1438.1662 0.0000 0.0000 1775.4672 -7392.8700 303.5352 -9168.3372 -7463.9038 299.3348 -60.1759 -48.4897 30411.1357 -9.2943 49.9220
TCL: Running FEP window   9: Lambda1 0.39999999999999997 Lambda2 0.44999999999999996 [dLambda 0.04999999999999999]
TCL: Setting parameter firsttimestep to 0
TCL: Setting parameter alchLambda to 0.39999999999999997
Info: NONBONDED TABLE R-SQUARED SPACING: 0.0625
Info: NONBONDED TABLE SIZE: 705 POINTS
TCL: Setting parameter alchLambda2 to 0.44999999999999996
Info: NONBONDED TABLE R-SQUARED SPACING: 0.0625
Info: NONBONDED TABLE SIZE: 705 POINTS
TCL: Running for 1500000 steps
ETITLE: TS BOND ANGLE DIHED IMPRP ELECT VDW BOUNDARY MISC KINETIC TOTAL TEMP POTENTIAL TOTALAVG TEMPAVG PRESSURE GPRESSURE VOLUME PRESSAVG GPRESSAVG
ENERGY: 0 4.3815 7.5368 2.6400 0.0000 -10621.0610 1438.1256 0.0000 0.0000 1774.5976 -7393.7795 303.3865 -9168.3771 -7393.7795 303.3865 -125.0712 -42.6100 30411.1357 -125.0712 -42.6100
ENERGY: 300000 1.3787 5.6421 2.6297 0.0000 -10709.6909 1516.1556 0.0000 0.0000 1714.8088 -7469.0761 293.1649 -9183.8848 -7437.3053 299.4230 438.1175 514.0937 30486.6170 51.8636 140.2491
ENERGY: 600000 0.9052 5.8756 2.3381 0.0000 -10630.3905 1433.6958 0.0000 0.0000 1765.7782 -7421.7976 301.8787 -9187.5758 -7424.7906 300.5153 23.7745 124.9342 30451.7698 -207.6552 -119.1623
ENERGY: 900000 1.7829 7.0346 2.4384 0.0000 -10687.1145 1470.5615 0.0000 0.0000 1742.0602 -7463.2370 297.8239 -9205.2972 -7441.5682 301.6923 260.1650 338.4046 30159.9452 -15.6606 61.2777
ENERGY: 1200000 3.6791 4.4525 3.5479 0.0000 -10680.6090 1416.9480 0.0000 0.0000 1808.6648 -7443.3167 309.2106 -9251.9815 -7451.3054 301.9544 -127.8567 -54.9136 29890.2320 -40.1810 32.5191
ENERGY: 1500000 2.1385 3.7299 3.2610 0.0000 -10507.6347 1323.6795 0.0000 0.0000 1740.4226 -7434.4033 297.5439 -9174.8259 -7452.9623 301.3541 -1020.8029 -1015.0161 30715.0540 -91.0546 -25.9401
TCL: Running FEP window  10: Lambda1 0.44999999999999996 Lambda2 0.49999999999999994 [dLambda 0.04999999999999999]
TCL: Setting parameter firsttimestep to 0
TCL: Setting parameter alchLambda to 0.44999999999999996
Info: NONBONDED TABLE R-SQUARED SPACING: 0.0625
Info: NONBONDED TABLE SIZE: 705 POINTS
TCL: Setting parameter alchLambda2 to 0.49999999999999994
Info: NONBONDED TABLE R-SQUARED SPACING: 0.0625
Info: NONBONDED TABLE SIZE: 705 POINTS
TCL: Running for 1500000 steps
ETITLE: TS BOND ANGLE DIHED IMPRP ELECT VDW BOUNDARY MISC KINETIC TOTAL TEMP POTENTIAL TOTALAVG TEMPAVG PRESSURE GPRESSURE VOLUME PRESSAVG GPRESSAVG
ENERGY: 0 2.1385 3.7299 3.2610 0.0000 -10507.6347 1323.7320 0.0000 0.0000 1739.5940 -7435.1794 297.4022 -9174.7733 -7435.1794 297.4022 -1092.3806 -1013.8968 30715.0540 -1092.3806 -1013.8968
ENERGY: 300000 3.9507 3.9890 3.2619 0.0000 -10524.7436 1327.3691 0.0000 0.0000 1799.6767 -7386.4962 307.6740 -9186.1729 -7413.4798 304.8694 -891.5212 -859.1119 30595.3653 -619.3527 -554.6438
ENERGY: 600000 2.2888 4.4706 2.0268 0.0000 -10647.3219 1445.9405 0.0000 0.0000 1693.0199 -7499.5753 289.4399 -9192.5952 -7438.5244 300.9674 258.5084 232.4005 30407.2201 -272.0332 -217.7390
ENERGY: 900000 1.3809 4.8618 3.3049 0.0000 -10598.2634 1379.3789 0.0000 0.0000 1760.5198 -7448.8171 300.9797 -9209.3369 -7441.5534 300.2549 -506.0561 -497.5704 30407.2778 -303.5585 -250.8369
ENERGY: 1200000 2.2493 6.2107 2.4348 0.0000 -10737.0452 1388.7083 0.0000 0.0000 1743.4867 -7593.9553 298.0678 -9337.4420 -7468.4742 299.4370 -580.5085 -582.6268 30094.8577 -301.4881 -254.4144
ENERGY: 1500000 1.4548 5.3253 5.3987 0.0000 -10608.9313 1377.0099 0.0000 0.0000 1729.0664 -7490.6763 295.6024 -9219.7427 -7466.3133 300.0144 -423.8497 -300.6665 29993.6076 -287.5168 -236.0052
TCL: Running FEP window  11: Lambda1 0.49999999999999994 Lambda2 0.5499999999999999 [dLambda 0.04999999999999999]
TCL: Setting parameter firsttimestep to 0
TCL: Setting parameter alchLambda to 0.49999999999999994
Info: NONBONDED TABLE R-SQUARED SPACING: 0.0625
Info: NONBONDED TABLE SIZE: 705 POINTS
TCL: Setting parameter alchLambda2 to 0.5499999999999999
Info: NONBONDED TABLE R-SQUARED SPACING: 0.0625
Info: NONBONDED TABLE SIZE: 705 POINTS
TCL: Running for 1500000 steps
ETITLE: TS BOND ANGLE DIHED IMPRP ELECT VDW BOUNDARY MISC KINETIC TOTAL TEMP POTENTIAL TOTALAVG TEMPAVG PRESSURE GPRESSURE VOLUME PRESSAVG GPRESSAVG
ENERGY: 0 1.4548 5.3253 5.3987 0.0000 -10608.9306 1377.0273 0.0000 0.0000 1728.2136 -7491.5110 295.4566 -9219.7246 -7491.5110 295.4566 -388.5610 -295.5972 29993.6076 -388.5610 -295.5972
ENERGY: 300000 2.2782 4.7588 3.9943 0.0000 -10627.1381 1444.0287 0.0000 0.0000 1721.1051 -7450.9730 294.2414 -9172.0781 -7441.3837 297.4555 69.1231 127.5540 30300.0900 -178.4536 -106.1508
ENERGY: 600000 0.5620 6.6154 1.9889 0.0000 -10637.7840 1415.0369 0.0000 0.0000 1783.5375 -7430.0432 304.9149 -9213.5808 -7431.4803 299.7262 193.5362 294.6741 29625.9288 -138.4297 -71.6433
ENERGY: 900000 2.6397 5.6530 4.2804 0.0000 -10579.9517 1393.3332 0.0000 0.0000 1749.6767 -7424.3687 299.1260 -9174.0454 -7431.2891 299.6270 -400.4187 -326.7418 30558.3082 7.4632 62.0864
ENERGY: 1200000 1.4080 4.8555 2.5689 0.0000 -10575.4083 1371.7072 0.0000 0.0000 1730.7527 -7464.1159 295.8907 -9194.8686 -7429.9158 299.7949 -370.1741 -332.0412 30077.3190 -53.9935 5.7608
ENERGY: 1500000 0.6085 3.6880 3.4990 0.0000 -10790.2840 1477.8110 0.0000 0.0000 1830.6573 -7474.0202 312.9705 -9304.6775 -7425.1824 300.6534 374.3435 406.9793 29736.4734 -77.6721 -19.4862
TCL: Running FEP window  12: Lambda1 0.5499999999999999 Lambda2 0.6    [dLambda 0.050000000000000044]
TCL: Setting parameter firsttimestep to 0
TCL: Setting parameter alchLambda to 0.5499999999999999
Info: NONBONDED TABLE R-SQUARED SPACING: 0.0625
Info: NONBONDED TABLE SIZE: 705 POINTS
TCL: Setting parameter alchLambda2 to 0.6
Info: NONBONDED TABLE R-SQUARED SPACING: 0.0625
Info: NONBONDED TABLE SIZE: 705 POINTS
TCL: Running for 1500000 steps
ETITLE: TS BOND ANGLE DIHED IMPRP ELECT VDW BOUNDARY MISC KINETIC TOTAL TEMP POTENTIAL TOTALAVG TEMPAVG PRESSURE GPRESSURE VOLUME PRESSAVG GPRESSAVG
ENERGY: 0 0.6085 3.6880 3.4990 0.0000 -10789.7275 1477.7172 0.0000 0.0000 1829.7150 -7474.4998 312.8094 -9304.2148 -7474.4998 312.8094 348.7835 417.7798 29736.4734 348.7835 417.7798
ENERGY: 300000 1.4212 3.7826 2.0642 0.0000 -10712.4794 1478.4307 0.0000 0.0000 1788.8219 -7437.9589 305.8183 -9226.7808 -7498.7450 299.5655 345.7379 444.5706 30031.1730 -74.6020 2.0292
ENERGY: 600000 0.8160 3.9509 4.2549 0.0000 -10582.1386 1423.7343 0.0000 0.0000 1776.0851 -7373.2975 303.6408 -9149.3826 -7459.0641 300.3879 -464.7858 -454.0680 31221.0907 -110.3771 -29.2274
ENERGY: 900000 4.5067 5.1868 2.9767 0.0000 -10612.6193 1452.0096 0.0000 0.0000 1705.7655 -7442.1739 291.6189 -9147.9395 -7460.9385 299.8045 294.2228 366.3958 30004.0450 -18.2234 66.1687
ENERGY: 1200000 0.9589 3.3355 3.5815 0.0000 -10519.0364 1358.3925 0.0000 0.0000 1715.4272 -7437.3407 293.2707 -9152.7679 -7459.5651 299.7216 -680.7706 -553.4024 30720.8256 -76.3242 7.5708
ENERGY: 1500000 3.0751 4.2921 3.5293 0.0000 -10623.6859 1407.1831 0.0000 0.0000 1711.2549 -7494.3514 292.5574 -9205.6063 -7458.7994 300.2573 -92.3290 -132.4791 30154.4853 -25.4588 47.2206
TCL: Running FEP window  13: Lambda1 0.6    Lambda2 0.65   [dLambda 0.050000000000000044]
TCL: Setting parameter firsttimestep to 0
TCL: Setting parameter alchLambda to 0.6
Info: NONBONDED TABLE R-SQUARED SPACING: 0.0625
Info: NONBONDED TABLE SIZE: 705 POINTS
TCL: Setting parameter alchLambda2 to 0.65
Info: NONBONDED TABLE R-SQUARED SPACING: 0.0625
Info: NONBONDED TABLE SIZE: 705 POINTS
TCL: Running for 1500000 steps
ETITLE: TS BOND ANGLE DIHED IMPRP ELECT VDW BOUNDARY MISC KINETIC TOTAL TEMP POTENTIAL TOTALAVG TEMPAVG PRESSURE GPRESSURE VOLUME PRESSAVG GPRESSAVG
ENERGY: 0 3.0750 4.2921 3.5293 0.0000 -10623.7423 1407.1884 0.0000 0.0000 1710.4007 -7495.2567 292.4113 -9205.6574 -7495.2567 292.4113 -201.7840 -123.6757 30154.4853 -201.7840 -123.6757
ENERGY: 300000 0.3290 10.7785 5.4649 0.0000 -10684.9600 1429.5153 0.0000 0.0000 1729.4238 -7509.4485 295.6636 -9238.8723 -7486.3278 297.9972 -188.0011 -156.8071 30462.8242 -30.4490 23.0915
ENERGY: 600000 2.2992 6.3069 2.7166 0.0000 -10655.0901 1415.1824 0.0000 0.0000 1815.9471 -7412.6379 310.4556 -9228.5850 -7463.0361 301.0120 -112.5642 -18.5859 30179.1606 -95.5419 -27.3882
ENERGY: 900000 1.7476 5.5696 3.1287 0.0000 -10763.6148 1456.5598 0.0000 0.0000 1764.5340 -7532.0751 301.6660 -9296.6090 -7488.4184 300.1184 -47.0404 11.4477 30201.0923 -53.2317 8.7456
ENERGY: 1200000 1.1843 2.3064 2.0667 0.0000 -10565.8482 1349.3736 0.0000 0.0000 1745.9692 -7464.9480 298.4922 -9210.9172 -7472.4331 299.9086 -679.7752 -596.5281 30498.7018 -154.3502 -91.0512
ENERGY: 1500000 1.9931 4.9608 3.0545 0.0000 -10622.1128 1382.3279 0.0000 0.0000 1772.1911 -7457.5855 302.9751 -9229.7766 -7470.5253 299.3387 -772.0146 -723.4905 30922.8888 -247.7953 -188.6706
TCL: Running FEP window  14: Lambda1 0.65   Lambda2 0.7000000000000001 [dLambda 0.050000000000000044]
TCL: Setting parameter firsttimestep to 0
TCL: Setting parameter alchLambda to 0.65
Info: NONBONDED TABLE R-SQUARED SPACING: 0.0625
Info: NONBONDED TABLE SIZE: 705 POINTS
TCL: Setting parameter alchLambda2 to 0.7000000000000001
Info: NONBONDED TABLE R-SQUARED SPACING: 0.0625
Info: NONBONDED TABLE SIZE: 705 POINTS
TCL: Running for 1500000 steps
ETITLE: TS BOND ANGLE DIHED IMPRP ELECT VDW BOUNDARY MISC KINETIC TOTAL TEMP POTENTIAL TOTALAVG TEMPAVG PRESSURE GPRESSURE VOLUME PRESSAVG GPRESSAVG
ENERGY: 0 1.9931 4.9608 3.0545 0.0000 -10622.0308 1382.1973 0.0000 0.0000 1771.3030 -7458.5221 302.8232 -9229.8252 -7458.5221 302.8232 -796.9724 -716.9130 30922.8888 -796.9724 -716.9130
ENERGY: 300000 1.0536 4.5389 3.4238 0.0000 -10563.1975 1406.4899 0.0000 0.0000 1789.5151 -7358.1763 305.9368 -9147.6914 -7422.9434 303.5135 130.6645 140.4397 30542.8279 -85.2423 -17.2379
ENERGY: 600000 3.1018 5.2880 2.0764 0.0000 -10590.1797 1416.7347 0.0000 0.0000 1794.7315 -7368.2472 306.8286 -9162.9787 -7434.6662 303.6814 401.6890 494.6963 29806.7820 -63.0015 19.6049
ENERGY: 900000 0.8195 5.7671 2.2150 0.0000 -10686.6956 1460.6046 0.0000 0.0000 1724.1690 -7493.1204 294.7652 -9217.2894 -7464.1590 302.4681 162.9760 217.3709 30483.5231 38.2163 116.5371
ENERGY: 1200000 1.4277 5.9752 2.7257 0.0000 -10665.7894 1425.8963 0.0000 0.0000 1792.3607 -7437.4038 306.4233 -9229.7645 -7455.2750 303.0527 -257.9524 -224.1080 30440.3175 -37.1716 35.5731
ENERGY: 1500000 1.5247 5.0785 2.6199 0.0000 -10577.7588 1327.9936 0.0000 0.0000 1749.1183 -7491.4238 299.0305 -9240.5420 -7451.9437 303.4409 -1102.8512 -1027.0749 30650.5234 -106.1385 -39.3984
TCL: Running FEP window  15: Lambda1 0.7000000000000001 Lambda2 0.7500000000000001 [dLambda 0.050000000000000044]
TCL: Setting parameter firsttimestep to 0
TCL: Setting parameter alchLambda to 0.7000000000000001
Info: NONBONDED TABLE R-SQUARED SPACING: 0.0625
Info: NONBONDED TABLE SIZE: 705 POINTS
TCL: Setting parameter alchLambda2 to 0.7500000000000001
Info: NONBONDED TABLE R-SQUARED SPACING: 0.0625
Info: NONBONDED TABLE SIZE: 705 POINTS
TCL: Running for 1500000 steps
ETITLE: TS BOND ANGLE DIHED IMPRP ELECT VDW BOUNDARY MISC KINETIC TOTAL TEMP POTENTIAL TOTALAVG TEMPAVG PRESSURE GPRESSURE VOLUME PRESSAVG GPRESSAVG
ENERGY: 0 1.5247 5.0786 2.6199 0.0000 -10577.9516 1327.5663 0.0000 0.0000 1748.2541 -7492.9080 298.8828 -9241.1621 -7492.9080 298.8828 -1116.9005 -1023.9664 30650.5234 -1116.9005 -1023.9664
ENERGY: 300000 2.5033 6.0827 2.8736 0.0000 -10662.7187 1425.5800 0.0000 0.0000 1795.5250 -7430.1541 306.9643 -9225.6791 -7442.8438 305.0146 -225.6119 -158.3465 30406.8590 -72.0865 23.1196
ENERGY: 600000 1.8911 2.5141 2.2955 0.0000 -10613.8146 1351.8087 0.0000 0.0000 1771.2805 -7484.0247 302.8194 -9255.3052 -7473.4672 303.2935 -721.3499 -655.2931 30445.2151 -208.1460 -126.0848
ENERGY: 900000 1.5409 4.1463 2.4658 0.0000 -10670.9634 1472.0652 0.0000 0.0000 1802.7193 -7388.0260 308.1942 -9190.7452 -7450.9440 303.5007 550.0583 543.7372 30235.2822 -85.6637 -16.1882
ENERGY: 1200000 2.3030 5.6464 2.6506 0.0000 -10832.7440 1498.8966 0.0000 0.0000 1759.9364 -7563.3110 300.8800 -9323.2474 -7459.3780 302.8281 444.8297 504.8155 29770.0780 -127.5514 -57.3429
ENERGY: 1500000 1.6413 2.6688 1.7424 0.0000 -10645.8697 1398.5816 0.0000 0.0000 1742.2376 -7498.9979 297.8542 -9241.2355 -7468.6775 302.5077 -345.9188 -308.5314 30330.1503 -129.2728 -66.7774
TCL: Running FEP window  16: Lambda1 0.7500000000000001 Lambda2 0.8000000000000002 [dLambda 0.050000000000000044]
TCL: Setting parameter firsttimestep to 0
TCL: Setting parameter alchLambda to 0.7500000000000001
Info: NONBONDED TABLE R-SQUARED SPACING: 0.0625
Info: NONBONDED TABLE SIZE: 705 POINTS
TCL: Setting parameter alchLambda2 to 0.8000000000000002
Info: NONBONDED TABLE R-SQUARED SPACING: 0.0625
Info: NONBONDED TABLE SIZE: 705 POINTS
TCL: Running for 1500000 steps
ETITLE: TS BOND ANGLE DIHED IMPRP ELECT VDW BOUNDARY MISC KINETIC TOTAL TEMP POTENTIAL TOTALAVG TEMPAVG PRESSURE GPRESSURE VOLUME PRESSAVG GPRESSAVG
ENERGY: 0 1.6413 2.6688 1.7424 0.0000 -10646.8498 1399.2030 0.0000 0.0000 1741.3871 -7500.2072 297.7088 -9241.5943 -7500.2072 297.7088 -390.9898 -296.7438 30330.1503 -390.9898 -296.7438
ENERGY: 300000 3.9931 5.3943 2.9848 0.0000 -10599.0221 1334.4987 0.0000 0.0000 1780.0570 -7472.0942 304.3198 -9252.1512 -7487.4917 298.4826 -1018.0867 -934.3909 30329.0520 -472.8257 -387.5747
ENERGY: 600000 2.9863 6.0538 1.8810 0.0000 -10638.7512 1419.3516 0.0000 0.0000 1771.3399 -7437.1386 302.8296 -9208.4785 -7486.8809 300.5092 -429.8120 -359.4270 30652.1754 -425.0542 -338.3469
ENERGY: 900000 2.1926 3.2283 6.1828 0.0000 -10631.5290 1417.7136 0.0000 0.0000 1800.9538 -7401.2579 307.8924 -9202.2116 -7480.6503 300.7770 47.9589 19.8736 30189.8004 -325.6890 -266.9893
ENERGY: 1200000 2.1897 5.6438 2.5857 0.0000 -10669.6920 1450.1705 0.0000 0.0000 1790.4918 -7418.6105 306.1038 -9209.1023 -7485.3952 300.8835 16.6216 62.7149 30449.6892 -257.6960 -196.1568
ENERGY: 1500000 3.7118 5.2105 2.7828 0.0000 -10713.0483 1425.7928 0.0000 0.0000 1733.8680 -7541.6824 296.4233 -9275.5503 -7490.6075 300.2634 -57.0618 -51.4196 29980.8943 -275.5081 -213.9696
TCL: Running FEP window  17: Lambda1 0.8000000000000002 Lambda2 0.8500000000000002 [dLambda 0.050000000000000044]
TCL: Setting parameter firsttimestep to 0
TCL: Setting parameter alchLambda to 0.8000000000000002
Info: NONBONDED TABLE R-SQUARED SPACING: 0.0625
Info: NONBONDED TABLE SIZE: 705 POINTS
TCL: Setting parameter alchLambda2 to 0.8500000000000002
Info: NONBONDED TABLE R-SQUARED SPACING: 0.0625
Info: NONBONDED TABLE SIZE: 705 POINTS
TCL: Running for 1500000 steps
ETITLE: TS BOND ANGLE DIHED IMPRP ELECT VDW BOUNDARY MISC KINETIC TOTAL TEMP POTENTIAL TOTALAVG TEMPAVG PRESSURE GPRESSURE VOLUME PRESSAVG GPRESSAVG
ENERGY: 0 3.7118 5.2105 2.7828 0.0000 -10714.3781 1425.6639 0.0000 0.0000 1732.9852 -7544.0239 296.2724 -9277.0091 -7544.0239 296.2724 -118.9989 -47.1243 29980.8943 -118.9989 -47.1243
ENERGY: 300000 1.4224 4.9669 3.4715 0.0000 -10680.8947 1397.1412 0.0000 0.0000 1793.2977 -7480.5949 306.5835 -9273.8927 -7497.0926 298.3405 -605.7713 -576.1779 30404.9396 -168.4645 -130.3043
ENERGY: 600000 1.6800 3.0233 2.3512 0.0000 -10687.2637 1385.4468 0.0000 0.0000 1721.3784 -7573.3841 294.2881 -9294.7625 -7506.7253 297.2626 -703.5905 -585.4434 29913.3368 -197.9923 -138.1137
ENERGY: 900000 1.3536 4.7977 3.2713 0.0000 -10668.2129 1403.1335 0.0000 0.0000 1781.9219 -7473.7350 304.6387 -9255.6569 -7506.2365 298.6881 -664.2022 -553.8527 30623.2449 -135.3356 -68.9997
ENERGY: 1200000 1.1642 6.5580 1.6743 0.0000 -10682.5673 1444.3876 0.0000 0.0000 1765.5054 -7463.2777 301.8321 -9228.7831 -7506.8113 298.2256 128.7004 159.9140 29955.8900 -161.9911 -96.5814
ENERGY: 1500000 1.6162 5.1894 2.4039 0.0000 -10607.5398 1407.2649 0.0000 0.0000 1790.2041 -7400.8613 306.0546 -9191.0654 -7493.8660 298.8197 18.9191 41.1498 30074.5203 -160.2353 -99.2063
TCL: Running FEP window  18: Lambda1 0.8500000000000002 Lambda2 0.9000000000000002 [dLambda 0.050000000000000044]
TCL: Setting parameter firsttimestep to 0
TCL: Setting parameter alchLambda to 0.8500000000000002
Info: NONBONDED TABLE R-SQUARED SPACING: 0.0625
Info: NONBONDED TABLE SIZE: 705 POINTS
TCL: Setting parameter alchLambda2 to 0.9000000000000002
Info: NONBONDED TABLE R-SQUARED SPACING: 0.0625
Info: NONBONDED TABLE SIZE: 705 POINTS
TCL: Running for 1500000 steps
ETITLE: TS BOND ANGLE DIHED IMPRP ELECT VDW BOUNDARY MISC KINETIC TOTAL TEMP POTENTIAL TOTALAVG TEMPAVG PRESSURE GPRESSURE VOLUME PRESSAVG GPRESSAVG
ENERGY: 0 1.6162 5.1894 2.4039 0.0000 -10608.6202 1407.0309 0.0000 0.0000 1789.3325 -7403.0473 305.9056 -9192.3799 -7403.0473 305.9056 -26.3944 48.5525 30074.5203 -26.3944 48.5525
ENERGY: 300000 1.6114 2.6892 2.2076 0.0000 -10879.0674 1568.2175 0.0000 0.0000 1732.8478 -7571.4938 296.2489 -9304.3417 -7468.5778 300.4747 1338.2613 1387.9828 29447.1487 258.5217 322.9718
ENERGY: 600000 1.9180 4.5120 2.1899 0.0000 -10649.0887 1424.6196 0.0000 0.0000 1750.8990 -7464.9501 299.3350 -9215.8491 -7464.3092 301.0338 -61.5734 31.8198 30071.9441 -34.6080 36.9718
ENERGY: 900000 0.8314 4.1417 2.1582 0.0000 -10731.3399 1435.2015 0.0000 0.0000 1768.7771 -7520.2300 302.3914 -9289.0070 -7466.9129 301.6496 272.1850 361.0616 29454.1172 -3.2391 60.9366
ENERGY: 1200000 2.6520 4.8817 2.4822 0.0000 -10723.9201 1475.8010 0.0000 0.0000 1779.9780 -7458.1252 304.3063 -9238.1032 -7467.2564 301.0751 427.1636 480.4981 30032.8553 -50.2179 13.3010
ENERGY: 1500000 4.6883 4.0253 2.4029 0.0000 -10608.6329 1416.2524 0.0000 0.0000 1709.3896 -7471.8744 292.2385 -9181.2640 -7465.1346 300.5991 -288.8094 -240.8874 30342.3563 -169.7060 -102.7858
TCL: Running FEP window  19: Lambda1 0.9000000000000002 Lambda2 0.9500000000000003 [dLambda 0.050000000000000044]
TCL: Setting parameter firsttimestep to 0
TCL: Setting parameter alchLambda to 0.9000000000000002
Info: NONBONDED TABLE R-SQUARED SPACING: 0.0625
Info: NONBONDED TABLE SIZE: 705 POINTS
TCL: Setting parameter alchLambda2 to 0.9500000000000003
Info: NONBONDED TABLE R-SQUARED SPACING: 0.0625
Info: NONBONDED TABLE SIZE: 705 POINTS
TCL: Running for 1500000 steps
ETITLE: TS BOND ANGLE DIHED IMPRP ELECT VDW BOUNDARY MISC KINETIC TOTAL TEMP POTENTIAL TOTALAVG TEMPAVG PRESSURE GPRESSURE VOLUME PRESSAVG GPRESSAVG
ENERGY: 0 4.6883 4.0253 2.4029 0.0000 -10610.0349 1416.5826 0.0000 0.0000 1708.5342 -7473.8016 292.0922 -9182.3358 -7473.8016 292.0922 -310.5485 -230.2330 30342.3563 -310.5485 -230.2330
ENERGY: 300000 3.3938 6.3312 3.4540 0.0000 -10658.9647 1363.5607 0.0000 0.0000 1785.3956 -7496.8294 305.2325 -9282.2250 -7489.6398 297.0240 -833.2082 -748.1140 30569.6383 -236.9397 -181.8198
ENERGY: 600000 2.6619 8.0694 3.8403 0.0000 -10764.3191 1495.4987 0.0000 0.0000 1759.7839 -7494.4649 300.8539 -9254.2489 -7490.0559 296.3871 577.0779 683.8004 30046.4922 -95.1653 -24.9737
ENERGY: 900000 0.4715 4.5206 4.6220 0.0000 -10765.4171 1455.4576 0.0000 0.0000 1783.1677 -7517.1779 304.8516 -9300.3456 -7474.6138 299.5043 245.3165 299.5045 29747.8420 -65.5038 2.5239
ENERGY: 1200000 2.5685 4.4589 2.4068 0.0000 -10692.8588 1395.1611 0.0000 0.0000 1697.0952 -7591.1682 290.1366 -9288.2635 -7478.7980 299.4080 -560.3983 -491.8133 30036.8475 -93.3364 -30.8053
ENERGY: 1500000 1.0780 2.7403 3.0128 0.0000 -10471.3103 1289.1632 0.0000 0.0000 1673.2792 -7502.0369 286.0650 -9175.3160 -7481.7898 298.6827 -944.1495 -884.8947 30356.2998 -79.1490 -15.6696
TCL: Running FEP window  20: Lambda1 0.9500000000000003 Lambda2 1.0    [dLambda 0.04999999999999971]
TCL: Setting parameter firsttimestep to 0
TCL: Setting parameter alchLambda to 0.9500000000000003
Info: NONBONDED TABLE R-SQUARED SPACING: 0.0625
Info: NONBONDED TABLE SIZE: 705 POINTS
TCL: Setting parameter alchLambda2 to 1.0
Info: NONBONDED TABLE R-SQUARED SPACING: 0.0625
Info: NONBONDED TABLE SIZE: 705 POINTS
TCL: Running for 1500000 steps
ETITLE: TS BOND ANGLE DIHED IMPRP ELECT VDW BOUNDARY MISC KINETIC TOTAL TEMP POTENTIAL TOTALAVG TEMPAVG PRESSURE GPRESSURE VOLUME PRESSAVG GPRESSAVG
ENERGY: 0 1.0780 2.7403 3.0128 0.0000 -10474.1835 1289.7876 0.0000 0.0000 1672.3830 -7505.1818 285.9118 -9177.5648 -7505.1818 285.9118 -949.6577 -875.1029 30356.2998 -949.6577 -875.1029
ENERGY: 300000 1.9089 4.9926 2.8133 0.0000 -10706.2194 1449.6677 0.0000 0.0000 1771.5134 -7475.3235 302.8592 -9246.8369 -7488.6446 295.7261 27.9543 82.9430 30461.6883 -336.1404 -258.8059
ENERGY: 600000 0.9217 4.6288 3.2442 0.0000 -10666.2276 1480.4069 0.0000 0.0000 1699.5629 -7477.4630 290.5585 -9177.0259 -7491.1658 296.4944 364.8434 472.8933 30435.4652 -34.3002 47.8083
ENERGY: 900000 0.8161 4.6936 6.1409 0.0000 -10653.2784 1414.0066 0.0000 0.0000 1787.2894 -7440.3317 305.5563 -9227.6211 -7480.7613 298.3506 47.5106 85.0014 30059.7887 13.8262 78.3336
ENERGY: 1200000 1.3849 5.3307 3.3553 0.0000 -10568.0666 1419.8537 0.0000 0.0000 1741.8837 -7396.2583 297.7937 -9138.1419 -7475.4826 297.9244 218.9461 234.2957 30105.3714 17.5486 79.9898
ENERGY: 1500000 2.0967 6.0111 2.9793 0.0000 -10598.5951 1373.4577 0.0000 0.0000 1717.4330 -7496.6173 293.6136 -9214.0503 -7473.3642 298.3147 -694.4668 -598.5933 30649.4711 -41.6023 26.9561
TCL: Exiting due to exit command.
