Info: SIMULATION PARAMETERS:
Info: TIMESTEP               2
Info: NUMBER OF STEPS        0
Info: STEPS PER CYCLE        10
Info: PERIODIC CELL BASIS 1  32.333 0 0
Info: PERIODIC CELL BASIS 2  0 31.6147 0
Info: PERIODIC CELL BASIS 3  0 0 29.9331
Info: PERIODIC CELL CENTER   0 0 0
Info: WRAPPING WATERS AROUND PERIODIC BOUNDARIES ON OUTPUT.
Info: WRAPPING ALL CLUSTERS AROUND PERIODIC BOUNDARIES ON OUTPUT.
Info: FIRST LDB TIMESTEP     50
Info: LAST LDB TIMESTEP     -1
Info: HOM BACKGROUND SCALING 1
Info: PME BACKGROUND SCALING 1
Info: MIN ATOMS PER PATCH    40
Info: EMPTY PATCH LOAD       40 ATOMS
Info: VELOCITY FILE          mobley_352111_equil.vel
Info: CENTER OF MASS MOVING INITIALLY? NO
Info: DIELECTRIC             1
Info: EXCLUDE                SCALED ONE-FOUR
Info: 1-4 ELECTROSTATICS SCALED BY 0.833333
Info: MODIFIED 1-4 VDW PARAMETERS WILL BE USED
Info: DCD FILENAME           mobley_352111_prod.dcd
Info: DCD FREQUENCY          100000
Info: DCD FIRST STEP         100000
Info: DCD FILE WILL CONTAIN UNIT CELL DATA
Info: XST FILENAME           mobley_352111_prod.xst
Info: XST FREQUENCY          100000
Info: NO VELOCITY DCD OUTPUT
Info: NO FORCE DCD OUTPUT
Info: OUTPUT FILENAME        mobley_352111_prod
Info: BINARY OUTPUT FILES WILL BE USED
Info: RESTART FILENAME       mobley_352111_prod.restart
Info: RESTART FREQUENCY      100000
Info: BINARY RESTART FILES WILL BE USED
Info: CUTOFF                 9
Info: PAIRLIST DISTANCE      11
Info: PAIRLIST SHRINK RATE   0.01
Info: PAIRLIST GROW RATE     0.01
Info: PAIRLIST TRIGGER       0.3
Info: PAIRLISTS PER CYCLE    2
Info: PAIRLISTS ENABLED
Info: MARGIN                 2
Info: HYDROGEN GROUP CUTOFF  2.5
Info: PATCH DIMENSION        15.5
Info: ENERGY OUTPUT STEPS    100000
Info: ENERGY EVALUATION STEPS    100000
Info: OUTPUT ENERGY PRECISION 4
Info: CROSSTERM ENERGY INCLUDED IN DIHEDRAL
Info: TIMING OUTPUT STEPS    1000000
Info: PRESSURE OUTPUT STEPS  100000
Info: ALCHEMICAL FEP ON
Info: FEP CURRENT LAMBDA VALUE     1
Info: FEP COMPARISON LAMBDA VALUE  0.95
Info: FEP INTRA-ALCHEMICAL NON-BONDED INTERACTIONS WILL BE RETAINED
Info: FEP INTRA-ALCHEMICAL BONDED INTERACTIONS WILL BE RETAINED
Info: FEP VDW SHIFTING COEFFICIENT 5
Info: FEP ELEC. ACTIVE FOR ANNIHILATED PARTICLES BETWEEN LAMBDA = 0 AND LAMBDA = 0.5
Info: FEP ELEC. ACTIVE FOR EXNIHILATED PARTICLES BETWEEN LAMBDA = 0.5 AND LAMBDA = 1
Info: FEP VDW ACTIVE FOR ANNIHILATED PARTICLES BETWEEN LAMBDA = 0 AND LAMBDA = 1
Info: FEP VDW ACTIVE FOR EXNIHILATED PARTICLES BETWEEN LAMBDA = 0 AND LAMBDA = 1
Info: FEP BOND ACTIVE FOR ANNIHILATED PARTICLES BETWEEN LAMBDA = 1 AND LAMBDA = 1
Info: FEP BOND ACTIVE FOR EXNIHILATED PARTICLES BETWEEN LAMBDA = 0 AND LAMBDA = 0
Info: LANGEVIN DYNAMICS ACTIVE
Info: LANGEVIN TEMPERATURE   300
Info: LANGEVIN USING BBK INTEGRATOR
Info: LANGEVIN DAMPING COEFFICIENT IS 1 INVERSE PS
Info: LANGEVIN DYNAMICS APPLIED TO HYDROGENS
Info: LANGEVIN PISTON PRESSURE CONTROL ACTIVE
Info:        TARGET PRESSURE IS 1.01325 BAR
Info:     OSCILLATION PERIOD IS 50 FS
Info:             DECAY TIME IS 25 FS
Info:     PISTON TEMPERATURE IS 300 K
Info:       PRESSURE CONTROL IS GROUP-BASED
Info:    INITIAL STRAIN RATE IS -9.39742e-05 -9.39742e-05 -9.39742e-05
Info:       CELL FLUCTUATION IS ISOTROPIC
Info: PARTICLE MESH EWALD (PME) ACTIVE
Info: PME TOLERANCE               1e-06
Info: PME EWALD COEFFICIENT       0.348832
Info: PME INTERPOLATION ORDER     4
Info: PME GRID DIMENSIONS         36 32 32
Info: PME MAXIMUM GRID SPACING    1
Info: PME CALCULATION WILL BE PERFORMED ON GPU
Info: FULL ELECTROSTATIC EVALUATION FREQUENCY      2
Info: USING VERLET I (r-RESPA) MTS SCHEME.
Info: C1 SPLITTING OF LONG RANGE ELECTROSTATICS
Info: PLACING ATOMS IN PATCHES BY HYDROGEN GROUPS
Info: RIGID BONDS TO HYDROGEN : ALL
Info:         ERROR TOLERANCE : 1e-08
Info:          MAX ITERATIONS : 100
Info: RIGID WATER USING SETTLE ALGORITHM
Info: RANDOM NUMBER SEED     1743925131
Info: USE HYDROGEN BONDS?    NO
Info: Using AMBER format force field!
Info: AMBER PARM FILE        mobley_352111.prmtop
Info: COORDINATE PDB         mobley_352111.pdb
Info: Exclusions will be read from PARM file!
Info: SCNB (VDW SCALING)     2
Info: USING ARITHMETIC MEAN TO COMBINE L-J SIGMA PARAMETERS
Info: BINARY COORDINATES     mobley_352111_equil.coor
Info: SUMMARY OF PARAMETERS:
Info: 9 BONDS
Info: 10 ANGLES
Info:   10 HARMONIC
Info:   0 COSINE-BASED
Info: 17 DIHEDRAL
Info: 0 IMPROPER
Info: 0 CROSSTERM
Info: 0 VDW
Info: 36 VDW_PAIRS
Info: 0 NBTHOLE_PAIRS
Info: To read alchdata from file: mobley_352111.pdb
Info: To read alchflag data from column: 5
Info: STRUCTURE SUMMARY:
Info: 2924 ATOMS
Info: 2923 BONDS
Info: 32 ANGLES
Info: 58 DIHEDRALS
Info: 0 IMPROPERS
Info: 0 CROSSTERMS
Info: 2986 EXCLUSIONS
Info: 2914 RIGID BONDS
Info: ALCH: 0 ATOMS TO DISAPPEAR IN FINAL STATE
Info: ALCH: 20 ATOMS TO APPEAR IN FINAL STATE
Info: 5858 DEGREES OF FREEDOM
Info: 978 HYDROGEN GROUPS
Info: 4 ATOMS IN LARGEST HYDROGEN GROUP
Info: 978 MIGRATION GROUPS
Info: 4 ATOMS IN LARGEST MIGRATION GROUP
Info: TOTAL MASS = 17585.6 amu
Info: TOTAL CHARGE = 0.00029996 e
Info: MASS DENSITY = 0.954399 g/cm^3
Info: ATOM DENSITY = 0.0955631 atoms/A^3
Info: ADDED 0 IMPLICIT EXCLUSIONS
Info: NONBONDED TABLE R-SQUARED SPACING: 0.0625
Info: NONBONDED TABLE SIZE: 705 POINTS
Info: REDUCING NUMBER OF PATCHES TO IMPROVE LOAD BALANCE
Info: REMOVING COM VELOCITY 0.156774 0.00125845 -0.329568
Info: Use 3D box decompostion in PME FFT.
Info: Updated CUDA force table with 4096 elements.
Info: Updated CUDA LJ table with 8 x 8 elements.
Info: Found 22 unique exclusion lists needing 56 bytes
TCL: Running for 1500000 steps
ETITLE: TS BOND ANGLE DIHED IMPRP ELECT VDW BOUNDARY MISC KINETIC TOTAL TEMP POTENTIAL TOTALAVG TEMPAVG PRESSURE GPRESSURE VOLUME PRESSAVG GPRESSAVG
ENERGY: 0 3.4834 7.9749 9.2761 0.0000 -10757.6162 1439.6962 0.0000 0.0000 1726.3173 -7570.8684 296.5935 -9297.1857 -7570.8684 296.5935 -425.1386 -368.5163 30597.5793 -425.1386 -368.5163
ENERGY: 300000 3.5124 12.0148 9.4274 0.0000 -10555.0130 1349.2465 0.0000 0.0000 1738.0705 -7442.7414 298.6128 -9180.8119 -7453.0568 301.0885 -485.9113 -446.1561 30418.3570 -335.0497 -276.8772
ENERGY: 600000 6.4841 3.9298 11.6074 0.0000 -10774.8686 1525.6553 0.0000 0.0000 1743.2805 -7483.9115 299.5079 -9227.1920 -7445.0338 301.5227 718.7161 777.9356 29939.2633 -111.2838 -41.7955
ENERGY: 900000 2.4809 8.4393 11.2426 0.0000 -10448.7856 1295.4922 0.0000 0.0000 1754.8605 -7376.2701 301.4974 -9131.1306 -7423.9113 301.8358 -912.4586 -864.8344 30363.4166 -100.2495 -43.0981
ENERGY: 1200000 1.6208 10.3393 9.2031 0.0000 -10552.6399 1352.8041 0.0000 0.0000 1707.6680 -7471.0045 293.3894 -9178.6726 -7431.7040 300.8007 -437.2266 -410.5747 29842.7501 -81.7711 -24.2037
ENERGY: 1500000 0.9607 7.7791 11.3052 0.0000 -10556.9945 1370.2439 0.0000 0.0000 1716.8398 -7449.8658 294.9652 -9166.7056 -7435.0012 300.1902 -50.6657 -62.9009 29978.7186 8.7826 65.7083
TCL: Running FEP window   2: Lambda1 0.95   Lambda2 0.8999999999999999 [dLambda -0.050000000000000044]
TCL: Setting parameter firsttimestep to 0
TCL: Setting parameter alchLambda to 0.95
Info: NONBONDED TABLE R-SQUARED SPACING: 0.0625
Info: NONBONDED TABLE SIZE: 705 POINTS
TCL: Setting parameter alchLambda2 to 0.8999999999999999
Info: NONBONDED TABLE R-SQUARED SPACING: 0.0625
Info: NONBONDED TABLE SIZE: 705 POINTS
TCL: Running for 1500000 steps
ETITLE: TS BOND ANGLE DIHED IMPRP ELECT VDW BOUNDARY MISC KINETIC TOTAL TEMP POTENTIAL TOTALAVG TEMPAVG PRESSURE GPRESSURE VOLUME PRESSAVG GPRESSAVG
ENERGY: 0 0.9607 7.7791 11.3052 0.0000 -10553.8752 1367.1837 0.0000 0.0000 1715.9837 -7450.6629 294.8181 -9166.6466 -7450.6629 294.8181 -195.6292 -107.4906 29978.7186 -195.6292 -107.4906
ENERGY: 300000 2.8009 8.5097 10.2221 0.0000 -10631.3500 1380.3660 0.0000 0.0000 1716.3153 -7513.1359 294.8751 -9229.4513 -7435.3511 296.1564 -87.6140 -12.9717 29695.1808 47.9561 104.8051
ENERGY: 600000 2.7149 11.5649 10.0922 0.0000 -10529.6294 1329.4522 0.0000 0.0000 1692.5445 -7483.2607 290.7911 -9175.8052 -7456.5716 296.2077 -787.3396 -721.8845 30391.0723 -117.4498 -62.7558
ENERGY: 900000 4.5087 11.5889 10.9542 0.0000 -10617.1954 1394.0709 0.0000 0.0000 1724.7811 -7471.2915 296.3296 -9196.0727 -7445.6360 298.5712 -365.2900 -301.8472 30306.7646 -117.9757 -56.6451
ENERGY: 1200000 3.5545 7.1468 9.5165 0.0000 -10629.1237 1446.3697 0.0000 0.0000 1674.9777 -7487.5584 287.7730 -9162.5361 -7456.9445 297.4611 200.4653 211.1778 30477.3066 -11.9153 38.4129
ENERGY: 1500000 3.7804 6.1343 11.7700 0.0000 -10699.2347 1483.7911 0.0000 0.0000 1704.9875 -7488.7713 292.9289 -9193.7588 -7455.5420 297.3907 387.1422 438.1716 30410.4818 -13.2194 42.1780
TCL: Running FEP window   3: Lambda1 0.8999999999999999 Lambda2 0.8499999999999999 [dLambda -0.050000000000000044]
TCL: Setting parameter firsttimestep to 0
TCL: Setting parameter alchLambda to 0.8999999999999999
Info: NONBONDED TABLE R-SQUARED SPACING: 0.0625
Info: NONBONDED TABLE SIZE: 705 POINTS
TCL: Setting parameter alchLambda2 to 0.8499999999999999
Info: NONBONDED TABLE R-SQUARED SPACING: 0.0625
Info: NONBONDED TABLE SIZE: 705 POINTS
TCL: Running for 1500000 steps
ETITLE: TS BOND ANGLE DIHED IMPRP ELECT VDW BOUNDARY MISC KINETIC TOTAL TEMP POTENTIAL TOTALAVG TEMPAVG PRESSURE GPRESSURE VOLUME PRESSAVG GPRESSAVG
ENERGY: 0 3.7804 6.1343 11.7700 0.0000 -10697.5369 1483.9122 0.0000 0.0000 1704.1018 -7487.8382 292.7767 -9191.9400 -7487.8382 292.7767 345.1839 428.2708 30410.4818 345.1839 428.2708
ENERGY: 300000 1.7047 11.7335 10.1654 0.0000 -10576.1615 1387.6715 0.0000 0.0000 1687.5747 -7477.3118 289.9372 -9164.8865 -7442.6746 295.9993 -253.6604 -198.7862 29995.9404 -2.7225 40.9447
ENERGY: 600000 1.9221 7.8471 10.1592 0.0000 -10592.1056 1354.5771 0.0000 0.0000 1741.7744 -7475.8258 299.2491 -9217.6002 -7431.7117 299.0211 -769.8392 -707.4728 30841.9167 -28.5939 8.1411
ENERGY: 900000 0.5241 7.7562 11.0038 0.0000 -10613.4452 1434.2871 0.0000 0.0000 1746.1541 -7413.7199 300.0016 -9159.8739 -7429.4957 300.8521 394.2679 476.9474 29853.5919 -29.6689 14.3650
ENERGY: 1200000 1.2968 13.1754 9.8068 0.0000 -10659.2769 1449.6615 0.0000 0.0000 1745.7990 -7439.5374 299.9406 -9185.3363 -7425.7754 301.7595 115.4640 143.6036 30259.5266 -57.5297 -5.1783
ENERGY: 1500000 2.6445 9.0974 15.2935 0.0000 -10552.4358 1349.1280 0.0000 0.0000 1742.2005 -7434.0719 299.3223 -9176.2724 -7427.1446 301.4912 -433.2990 -393.8779 30048.0312 -83.7143 -32.5239
TCL: Running FEP window   4: Lambda1 0.8499999999999999 Lambda2 0.7999999999999998 [dLambda -0.050000000000000044]
TCL: Setting parameter firsttimestep to 0
TCL: Setting parameter alchLambda to 0.8499999999999999
Info: NONBONDED TABLE R-SQUARED SPACING: 0.0625
Info: NONBONDED TABLE SIZE: 705 POINTS
TCL: Setting parameter alchLambda2 to 0.7999999999999998
Info: NONBONDED TABLE R-SQUARED SPACING: 0.0625
Info: NONBONDED TABLE SIZE: 705 POINTS
TCL: Running for 1500000 steps
ETITLE: TS BOND ANGLE DIHED IMPRP ELECT VDW BOUNDARY MISC KINETIC TOTAL TEMP POTENTIAL TOTALAVG TEMPAVG PRESSURE GPRESSURE VOLUME PRESSAVG GPRESSAVG
ENERGY: 0 2.6445 9.0974 15.2935 0.0000 -10549.9606 1348.0556 0.0000 0.0000 1741.3882 -7433.4814 299.1828 -9174.8696 -7433.4814 299.1828 -500.6585 -418.2861 30048.0312 -500.6585 -418.2861
ENERGY: 300000 1.5753 7.2946 9.4973 0.0000 -10471.7197 1326.5536 0.0000 0.0000 1750.2414 -7376.5575 300.7038 -9126.7990 -7450.2574 302.7658 -517.1387 -439.6063 30168.2872 -282.8340 -233.3831
ENERGY: 600000 1.1660 9.8466 9.4344 0.0000 -10656.9147 1487.9102 0.0000 0.0000 1795.8899 -7352.6676 308.5466 -9148.5575 -7437.7194 302.2209 923.4244 946.0692 29817.2029 -48.0919 2.1231
ENERGY: 900000 2.7840 11.9988 9.3881 0.0000 -10565.9616 1358.1213 0.0000 0.0000 1703.2361 -7480.4334 292.6280 -9183.6695 -7458.7023 300.2260 -396.7619 -322.2220 29923.3650 -73.1163 -19.1060
ENERGY: 1200000 2.5956 12.4254 10.1261 0.0000 -10713.6050 1497.4790 0.0000 0.0000 1776.4754 -7414.5035 305.2110 -9190.9789 -7436.8527 301.3418 266.4878 353.0106 30336.9174 -21.6082 28.6510
ENERGY: 1500000 4.1999 9.7362 8.8100 0.0000 -10663.3839 1444.8107 0.0000 0.0000 1768.9179 -7426.9092 303.9126 -9195.8271 -7432.2819 301.0050 284.2403 310.1714 29803.3879 15.5304 68.3464
TCL: Running FEP window   5: Lambda1 0.7999999999999998 Lambda2 0.7499999999999998 [dLambda -0.050000000000000044]
TCL: Setting parameter firsttimestep to 0
TCL: Setting parameter alchLambda to 0.7999999999999998
Info: NONBONDED TABLE R-SQUARED SPACING: 0.0625
Info: NONBONDED TABLE SIZE: 705 POINTS
TCL: Setting parameter alchLambda2 to 0.7499999999999998
Info: NONBONDED TABLE R-SQUARED SPACING: 0.0625
Info: NONBONDED TABLE SIZE: 705 POINTS
TCL: Running for 1500000 steps
ETITLE: TS BOND ANGLE DIHED IMPRP ELECT VDW BOUNDARY MISC KINETIC TOTAL TEMP POTENTIAL TOTALAVG TEMPAVG PRESSURE GPRESSURE VOLUME PRESSAVG GPRESSAVG
ENERGY: 0 4.1999 9.7362 8.8100 0.0000 -10662.0190 1444.7035 0.0000 0.0000 1768.0346 -7426.5347 303.7608 -9194.5693 -7426.5347 303.7608 216.2205 293.9082 29803.3879 216.2205 293.9082
ENERGY: 300000 5.3395 7.3136 9.0213 0.0000 -10479.1808 1319.4209 0.0000 0.0000 1850.1116 -7287.9740 317.8622 -9138.0856 -7404.0164 303.2652 -723.6382 -705.1912 30532.0854 -47.5188 14.1352
ENERGY: 600000 2.9258 12.4695 8.9335 0.0000 -10410.9036 1296.5207 0.0000 0.0000 1809.5025 -7280.5517 310.8853 -9090.0542 -7391.0322 304.5378 -676.9989 -590.7442 30275.4738 -4.5829 49.8469
ENERGY: 900000 2.1315 8.3847 12.2689 0.0000 -10646.8323 1417.7796 0.0000 0.0000 1750.2309 -7456.0367 300.7020 -9206.2676 -7408.9909 303.9409 -273.3667 -178.3244 30233.6658 -14.6811 43.7864
ENERGY: 1200000 1.4524 11.8735 10.7027 0.0000 -10749.8085 1503.7295 0.0000 0.0000 1747.9260 -7474.1243 300.3060 -9222.0503 -7414.7155 303.0644 427.0292 520.9962 29888.5448 -18.6876 39.7748
ENERGY: 1500000 1.3198 8.1418 10.3023 0.0000 -10646.5018 1383.6010 0.0000 0.0000 1752.5372 -7490.5996 301.0983 -9243.1368 -7418.1848 303.1427 -170.4038 -90.0553 29578.7994 -35.2961 25.7308
TCL: Running FEP window   6: Lambda1 0.7499999999999998 Lambda2 0.6999999999999997 [dLambda -0.050000000000000044]
TCL: Setting parameter firsttimestep to 0
TCL: Setting parameter alchLambda to 0.7499999999999998
Info: NONBONDED TABLE R-SQUARED SPACING: 0.0625
Info: NONBONDED TABLE SIZE: 705 POINTS
TCL: Setting parameter alchLambda2 to 0.6999999999999997
Info: NONBONDED TABLE R-SQUARED SPACING: 0.0625
Info: NONBONDED TABLE SIZE: 705 POINTS
TCL: Running for 1500000 steps
ETITLE: TS BOND ANGLE DIHED IMPRP ELECT VDW BOUNDARY MISC KINETIC TOTAL TEMP POTENTIAL TOTALAVG TEMPAVG PRESSURE GPRESSURE VOLUME PRESSAVG GPRESSAVG
ENERGY: 0 1.3198 8.1418 10.3023 0.0000 -10645.1053 1383.9074 0.0000 0.0000 1751.6193 -7489.8147 300.9406 -9241.4340 -7489.8147 300.9406 -190.8941 -97.1306 29578.7994 -190.8941 -97.1306
ENERGY: 300000 3.2393 6.0716 9.7299 0.0000 -10629.8123 1414.6614 0.0000 0.0000 1779.9766 -7416.1334 305.8126 -9196.1101 -7464.0970 302.9887 -262.6529 -180.9103 30168.6555 90.9021 151.1923
ENERGY: 600000 1.7925 7.1548 9.9896 0.0000 -10684.9726 1447.9172 0.0000 0.0000 1797.4022 -7420.7163 308.8064 -9218.1185 -7435.3097 305.0016 104.6026 206.4106 30052.4729 62.0313 118.3308
ENERGY: 900000 1.1585 6.0548 10.5585 0.0000 -10598.2340 1358.1781 0.0000 0.0000 1819.0467 -7403.2374 312.5251 -9222.2842 -7435.4163 304.8653 -489.9613 -433.2528 30109.7209 72.7827 138.9907
ENERGY: 1200000 2.8762 8.7312 11.2138 0.0000 -10794.0473 1578.9630 0.0000 0.0000 1714.1546 -7478.1083 294.5039 -9192.2629 -7439.3206 303.7955 1360.8641 1490.8858 29558.3801 167.5861 241.2000
ENERGY: 1500000 4.1365 12.3134 9.5229 0.0000 -10542.8384 1340.7477 0.0000 0.0000 1782.6923 -7393.4257 306.2791 -9176.1180 -7435.8793 303.2923 -440.9638 -402.1228 29971.9612 118.3055 193.8203
TCL: Running FEP window   7: Lambda1 0.6999999999999997 Lambda2 0.6499999999999997 [dLambda -0.050000000000000044]
TCL: Setting parameter firsttimestep to 0
TCL: Setting parameter alchLambda to 0.6999999999999997
Info: NONBONDED TABLE R-SQUARED SPACING: 0.0625
Info: NONBONDED TABLE SIZE: 705 POINTS
TCL: Setting parameter alchLambda2 to 0.6499999999999997
Info: NONBONDED TABLE R-SQUARED SPACING: 0.0625
Info: NONBONDED TABLE SIZE: 705 POINTS
TCL: Running for 1500000 steps
ETITLE: TS BOND ANGLE DIHED IMPRP ELECT VDW BOUNDARY MISC KINETIC TOTAL TEMP POTENTIAL TOTALAVG TEMPAVG PRESSURE GPRESSURE VOLUME PRESSAVG GPRESSAVG
ENERGY: 0 4.1365 12.3134 9.5229 0.0000 -10540.8781 1340.6758 0.0000 0.0000 1781.8319 -7392.3976 306.1313 -9174.2295 -7392.3976 306.1313 -500.8836 -409.4013 29971.9612 -500.8836 -409.4013
ENERGY: 300000 2.0233 7.9893 10.1891 0.0000 -10638.0839 1459.9987 0.0000 0.0000 1722.2291 -7435.6544 295.8911 -9157.8836 -7418.9695 299.5353 409.9539 445.8953 30170.2655 17.8052 74.2458
ENERGY: 600000 1.6810 10.1989 8.3564 0.0000 -10662.0282 1419.1045 0.0000 0.0000 1769.0575 -7453.6299 303.9366 -9222.6874 -7438.0910 300.3859 -154.2393 -53.4004 29970.7206 -27.2144 39.6655
ENERGY: 900000 3.0327 7.0522 12.4189 0.0000 -10704.6382 1453.3041 0.0000 0.0000 1748.5088 -7480.3214 300.4062 -9228.8303 -7433.9559 301.9622 214.3702 254.7103 29796.3169 16.5977 83.2795
ENERGY: 1200000 4.0544 11.0787 9.6644 0.0000 -10683.2824 1454.0955 0.0000 0.0000 1739.0974 -7465.2920 298.7892 -9204.3894 -7430.9730 301.9720 330.0833 376.3080 29552.3347 96.1862 161.2324
ENERGY: 1500000 6.2021 9.3369 9.0804 0.0000 -10540.6435 1395.2694 0.0000 0.0000 1772.4812 -7348.2736 304.5248 -9120.7548 -7434.3112 301.4894 -229.1574 -156.2553 30148.7899 119.8337 187.2850
TCL: Running FEP window   8: Lambda1 0.6499999999999997 Lambda2 0.5999999999999996 [dLambda -0.050000000000000044]
TCL: Setting parameter firsttimestep to 0
TCL: Setting parameter alchLambda to 0.6499999999999997
Info: NONBONDED TABLE R-SQUARED SPACING: 0.0625
Info: NONBONDED TABLE SIZE: 705 POINTS
TCL: Setting parameter alchLambda2 to 0.5999999999999996
Info: NONBONDED TABLE R-SQUARED SPACING: 0.0625
Info: NONBONDED TABLE SIZE: 705 POINTS
TCL: Running for 1500000 steps
ETITLE: TS BOND ANGLE DIHED IMPRP ELECT VDW BOUNDARY MISC KINETIC TOTAL TEMP POTENTIAL TOTALAVG TEMPAVG PRESSURE GPRESSURE VOLUME PRESSAVG GPRESSAVG
ENERGY: 0 6.2021 9.3369 9.0804 0.0000 -10540.1336 1395.0589 0.0000 0.0000 1771.6382 -7348.8173 304.3800 -9120.4555 -7348.8173 304.3800 -260.7208 -170.2122 30148.7899 -260.7208 -170.2122
ENERGY: 300000 4.5544 6.7712 9.5504 0.0000 -10473.3638 1368.2576 0.0000 0.0000 1685.3540 -7398.8762 289.5557 -9084.2302 -7388.8806 298.0684 -190.4087 -139.4752 30265.9299 -243.8868 -206.3689
ENERGY: 600000 3.4059 9.1501 8.7990 0.0000 -10715.1522 1451.8426 0.0000 0.0000 1720.7226 -7521.2320 295.6323 -9241.9546 -7429.9313 298.6718 388.8130 397.2037 29928.4447 -73.0799 -23.8547
ENERGY: 900000 1.1572 9.1594 10.0181 0.0000 -10609.2718 1354.7600 0.0000 0.0000 1818.0243 -7416.1528 312.3494 -9234.1771 -7428.1736 300.2463 -644.7136 -594.8907 30256.4308 -117.5788 -56.5656
ENERGY: 1200000 1.2850 7.9984 9.0879 0.0000 -10452.0073 1345.0834 0.0000 0.0000 1763.3643 -7325.1883 302.9584 -9088.5526 -7426.0328 300.2097 -420.3036 -312.8838 30262.1164 -220.2997 -157.2181
ENERGY: 1500000 3.5461 9.3445 9.1636 0.0000 -10701.0650 1503.6017 0.0000 0.0000 1732.8253 -7442.5838 297.7116 -9175.4091 -7413.9760 300.5746 819.0184 858.4297 29877.5154 -166.9845 -105.5174
TCL: Running FEP window   9: Lambda1 0.5999999999999996 Lambda2 0.5499999999999996 [dLambda -0.050000000000000044]
TCL: Setting parameter firsttimestep to 0
TCL: Setting parameter alchLambda to 0.5999999999999996
Info: NONBONDED TABLE R-SQUARED SPACING: 0.0625
Info: NONBONDED TABLE SIZE: 705 POINTS
TCL: Setting parameter alchLambda2 to 0.5499999999999996
Info: NONBONDED TABLE R-SQUARED SPACING: 0.0625
Info: NONBONDED TABLE SIZE: 705 POINTS
TCL: Running for 1500000 steps
ETITLE: TS BOND ANGLE DIHED IMPRP ELECT VDW BOUNDARY MISC KINETIC TOTAL TEMP POTENTIAL TOTALAVG TEMPAVG PRESSURE GPRESSURE VOLUME PRESSAVG GPRESSAVG
ENERGY: 0 3.5461 9.3445 9.1636 0.0000 -10699.6903 1503.2182 0.0000 0.0000 1731.9683 -7442.4496 297.5644 -9174.4179 -7442.4496 297.5644 761.2320 847.2737 29877.5154 761.2320 847.2737
ENERGY: 300000 1.9947 7.4065 9.5509 0.0000 -10607.8800 1407.5883 0.0000 0.0000 1780.0730 -7401.2665 305.8291 -9181.3395 -7429.8166 299.7358 96.9132 186.0767 29757.7225 449.1716 549.0739
ENERGY: 600000 2.1585 11.9059 9.6314 0.0000 -10734.1993 1489.6878 0.0000 0.0000 1729.6202 -7491.1955 297.1610 -9220.8157 -7448.7109 299.4539 741.0668 778.6559 29536.1362 562.6322 631.8468
ENERGY: 900000 3.4557 7.1003 10.0723 0.0000 -10723.3959 1450.2282 0.0000 0.0000 1738.2302 -7514.3092 298.6402 -9252.5394 -7458.0956 298.9880 -64.0302 12.3324 30195.2988 582.4513 650.2871
ENERGY: 1200000 1.7240 5.5426 8.9874 0.0000 -10726.4753 1459.2643 0.0000 0.0000 1752.0434 -7498.9138 301.0134 -9250.9571 -7447.3078 299.9254 168.1932 220.8560 29877.7335 464.8648 528.3275
ENERGY: 1500000 4.9241 8.1673 9.5960 0.0000 -10531.7038 1393.7269 0.0000 0.0000 1733.6433 -7381.6463 297.8522 -9115.2895 -7441.5788 299.4032 -16.4528 -0.8252 30158.4104 384.1893 448.8819
TCL: Running FEP window  10: Lambda1 0.5499999999999996 Lambda2 0.4999999999999996 [dLambda -0.04999999999999999]
TCL: Setting parameter firsttimestep to 0
TCL: Setting parameter alchLambda to 0.5499999999999996
Info: NONBONDED TABLE R-SQUARED SPACING: 0.0625
Info: NONBONDED TABLE SIZE: 705 POINTS
TCL: Setting parameter alchLambda2 to 0.4999999999999996
Info: NONBONDED TABLE R-SQUARED SPACING: 0.0625
Info: NONBONDED TABLE SIZE: 705 POINTS
TCL: Running for 1500000 steps
ETITLE: TS BOND ANGLE DIHED IMPRP ELECT VDW BOUNDARY MISC KINETIC TOTAL TEMP POTENTIAL TOTALAVG TEMPAVG PRESSURE GPRESSURE VOLUME PRESSAVG GPRESSAVG
ENERGY: 0 4.9241 8.1673 9.5960 0.0000 -10531.1356 1394.1702 0.0000 0.0000 1732.7817 -7381.4964 297.7041 -9114.2781 -7381.4964 297.7041 -79.2594 -4.3125 30158.4104 -79.2594 -4.3125
ENERGY: 300000 2.8164 8.1892 9.6755 0.0000 -10632.3794 1405.7807 0.0000 0.0000 1680.1434 -7525.7741 288.6605 -9205.9175 -7471.7079 294.3727 -64.3211 -18.9518 29876.1943 -224.2645 -174.5167
ENERGY: 600000 1.5781 6.5852 9.8618 0.0000 -10638.5630 1412.6356 0.0000 0.0000 1732.9605 -7474.9418 297.7349 -9207.9023 -7464.7802 295.9516 -213.3130 -178.2359 30353.0273 -92.9112 -48.6888
ENERGY: 900000 5.5874 9.0394 12.2457 0.0000 -10528.1930 1414.8213 0.0000 0.0000 1759.0879 -7327.4113 302.2237 -9086.4992 -7441.3305 297.2527 -41.6368 27.3362 30367.0069 -138.9339 -85.9980
ENERGY: 1200000 2.6949 9.0458 11.0231 0.0000 -10704.2317 1450.2864 0.0000 0.0000 1728.7956 -7502.3859 297.0193 -9231.1815 -7442.0151 297.3769 180.1833 198.0831 29773.8518 -212.5414 -159.6071
ENERGY: 1500000 3.5046 5.4629 13.6207 0.0000 -10642.9054 1420.5726 0.0000 0.0000 1741.8876 -7457.8570 299.2686 -9199.7446 -7449.8978 297.6874 -320.6874 -283.5205 30218.2015 -182.2654 -130.8590
TCL: Running FEP window  11: Lambda1 0.4999999999999996 Lambda2 0.4499999999999996 [dLambda -0.04999999999999999]
TCL: Setting parameter firsttimestep to 0
TCL: Setting parameter alchLambda to 0.4999999999999996
Info: NONBONDED TABLE R-SQUARED SPACING: 0.0625
Info: NONBONDED TABLE SIZE: 705 POINTS
TCL: Setting parameter alchLambda2 to 0.4499999999999996
Info: NONBONDED TABLE R-SQUARED SPACING: 0.0625
Info: NONBONDED TABLE SIZE: 705 POINTS
TCL: Running for 1500000 steps
ETITLE: TS BOND ANGLE DIHED IMPRP ELECT VDW BOUNDARY MISC KINETIC TOTAL TEMP POTENTIAL TOTALAVG TEMPAVG PRESSURE GPRESSURE VOLUME PRESSAVG GPRESSAVG
ENERGY: 0 3.5046 5.4629 13.6207 0.0000 -10642.0373 1420.9483 0.0000 0.0000 1741.0179 -7457.4828 299.1192 -9198.5007 -7457.4828 299.1192 -373.2252 -288.5111 30218.2015 -373.2252 -288.5111
ENERGY: 300000 1.3298 5.6856 9.6466 0.0000 -10622.6467 1402.7241 0.0000 0.0000 1754.4322 -7448.8284 301.4238 -9203.2605 -7460.5698 301.0696 -460.0692 -370.9197 30244.3053 -372.3956 -270.7703
ENERGY: 600000 1.8358 5.9732 10.8521 0.0000 -10686.5112 1434.2835 0.0000 0.0000 1775.3149 -7458.2517 305.0116 -9233.5666 -7458.2924 302.0517 41.7247 55.2557 30154.0574 -285.1077 -205.8642
ENERGY: 900000 3.3685 4.9418 9.6382 0.0000 -10627.5956 1418.9150 0.0000 0.0000 1702.4172 -7488.3149 292.4873 -9190.7321 -7448.0911 301.2787 -280.3127 -242.9469 30307.3475 -240.5734 -163.9585
ENERGY: 1200000 5.2914 5.2179 10.0819 0.0000 -10709.9309 1449.8118 0.0000 0.0000 1733.3697 -7506.1582 297.8052 -9239.5279 -7464.5913 300.4413 181.7171 282.3912 29602.4587 -27.6485 54.1526
ENERGY: 1500000 2.9533 10.2184 9.5402 0.0000 -10659.3977 1425.5452 0.0000 0.0000 1718.8515 -7492.2890 295.3108 -9211.1406 -7459.7751 300.3135 17.8649 41.6164 29878.1273 -86.1138 -5.2240
TCL: Running FEP window  12: Lambda1 0.4499999999999996 Lambda2 0.39999999999999963 [dLambda -0.04999999999999999]
TCL: Setting parameter firsttimestep to 0
TCL: Setting parameter alchLambda to 0.4499999999999996
Info: NONBONDED TABLE R-SQUARED SPACING: 0.0625
Info: NONBONDED TABLE SIZE: 705 POINTS
TCL: Setting parameter alchLambda2 to 0.39999999999999963
Info: NONBONDED TABLE R-SQUARED SPACING: 0.0625
Info: NONBONDED TABLE SIZE: 705 POINTS
TCL: Running for 1500000 steps
ETITLE: TS BOND ANGLE DIHED IMPRP ELECT VDW BOUNDARY MISC KINETIC TOTAL TEMP POTENTIAL TOTALAVG TEMPAVG PRESSURE GPRESSURE VOLUME PRESSAVG GPRESSAVG
ENERGY: 0 2.9533 10.2184 9.5402 0.0000 -10659.3974 1426.2099 0.0000 0.0000 1718.0141 -7492.4615 295.1670 -9210.4756 -7492.4615 295.1670 -47.6990 44.4764 29878.1273 -47.6990 44.4764
ENERGY: 300000 1.7589 10.2853 11.3484 0.0000 -10780.9019 1515.0896 0.0000 0.0000 1715.4080 -7527.0116 294.7192 -9242.4196 -7435.3799 299.5048 599.6302 684.8738 29914.3688 204.3156 299.5336
ENERGY: 600000 2.3106 8.4748 8.8942 0.0000 -10593.0560 1460.8654 0.0000 0.0000 1737.8451 -7374.6659 298.5741 -9112.5110 -7427.7233 299.8650 418.0893 464.9315 30129.5696 127.8291 206.7996
ENERGY: 900000 2.2870 7.9753 14.0444 0.0000 -10649.4846 1394.7153 0.0000 0.0000 1747.1114 -7483.3512 300.1661 -9230.4626 -7433.3320 298.9988 -271.5866 -209.3650 29990.9536 86.9642 162.0386
ENERGY: 1200000 3.3553 6.2761 12.2387 0.0000 -10715.9302 1439.2948 0.0000 0.0000 1726.2123 -7528.5531 296.5755 -9254.7653 -7440.8657 298.3343 -73.2170 -28.5359 29906.1925 -2.5846 77.2114
ENERGY: 1500000 3.5971 7.3315 8.5684 0.0000 -10455.7328 1369.9844 0.0000 0.0000 1677.9433 -7388.3081 288.2825 -9066.2514 -7438.7406 297.7486 -260.5897 -164.4645 30497.9351 -49.7951 23.9821
TCL: Running FEP window  13: Lambda1 0.39999999999999963 Lambda2 0.34999999999999964 [dLambda -0.04999999999999999]
TCL: Setting parameter firsttimestep to 0
TCL: Setting parameter alchLambda to 0.39999999999999963
Info: NONBONDED TABLE R-SQUARED SPACING: 0.0625
Info: NONBONDED TABLE SIZE: 705 POINTS
TCL: Setting parameter alchLambda2 to 0.34999999999999964
Info: NONBONDED TABLE R-SQUARED SPACING: 0.0625
Info: NONBONDED TABLE SIZE: 705 POINTS
TCL: Running for 1500000 steps
ETITLE: TS BOND ANGLE DIHED IMPRP ELECT VDW BOUNDARY MISC KINETIC TOTAL TEMP POTENTIAL TOTALAVG TEMPAVG PRESSURE GPRESSURE VOLUME PRESSAVG GPRESSAVG
ENERGY: 0 3.5971 7.3315 8.5684 0.0000 -10455.7328 1370.7853 0.0000 0.0000 1677.0892 -7388.3613 288.1358 -9065.4506 -7388.3613 288.1358 -247.9897 -164.3622 30497.9351 -247.9897 -164.3622
ENERGY: 300000 5.8280 9.4360 11.0214 0.0000 -10542.4898 1350.0574 0.0000 0.0000 1799.3765 -7366.7705 309.1456 -9166.1470 -7414.6888 299.4042 -513.5532 -488.3433 29901.5923 -247.1441 -178.9835
ENERGY: 600000 2.6834 7.4287 9.5770 0.0000 -10632.8106 1476.3510 0.0000 0.0000 1686.7196 -7450.0508 289.7903 -9136.7704 -7417.8760 299.4076 534.1978 533.4338 30136.6211 23.9662 62.0585
ENERGY: 900000 3.5724 9.2082 11.4215 0.0000 -10631.0728 1392.8038 0.0000 0.0000 1759.2126 -7454.8542 302.2452 -9214.0669 -7431.6418 298.6279 -195.2333 -176.9429 29583.5790 -25.3458 15.0851
ENERGY: 1200000 2.3304 8.7201 9.3267 0.0000 -10663.5437 1459.5739 0.0000 0.0000 1780.1606 -7403.4320 305.8442 -9183.5926 -7432.8542 299.8790 84.3413 126.0585 30089.4517 48.2711 85.5393
ENERGY: 1500000 4.2720 8.1867 10.1784 0.0000 -10465.5041 1376.1487 0.0000 0.0000 1771.5337 -7295.1846 304.3620 -9066.7184 -7430.3331 299.6229 8.3918 48.4047 30074.7458 34.0443 73.5269
TCL: Running FEP window  14: Lambda1 0.34999999999999964 Lambda2 0.29999999999999966 [dLambda -0.04999999999999999]
TCL: Setting parameter firsttimestep to 0
TCL: Setting parameter alchLambda to 0.34999999999999964
Info: NONBONDED TABLE R-SQUARED SPACING: 0.0625
Info: NONBONDED TABLE SIZE: 705 POINTS
TCL: Setting parameter alchLambda2 to 0.29999999999999966
Info: NONBONDED TABLE R-SQUARED SPACING: 0.0625
Info: NONBONDED TABLE SIZE: 705 POINTS
TCL: Running for 1500000 steps
ETITLE: TS BOND ANGLE DIHED IMPRP ELECT VDW BOUNDARY MISC KINETIC TOTAL TEMP POTENTIAL TOTALAVG TEMPAVG PRESSURE GPRESSURE VOLUME PRESSAVG GPRESSAVG
ENERGY: 0 4.2720 8.1867 10.1784 0.0000 -10465.5045 1375.6998 0.0000 0.0000 1770.6454 -7296.5222 304.2094 -9067.1677 -7296.5222 304.2094 -48.2589 39.0600 30074.7458 -48.2589 39.0600
ENERGY: 300000 3.6885 9.4959 12.0290 0.0000 -10603.9033 1437.3931 0.0000 0.0000 1779.8002 -7361.4965 305.7822 -9141.2967 -7385.9183 302.4085 372.1463 450.5544 29788.8376 -133.6891 -54.5803
ENERGY: 600000 2.1308 18.2653 11.6751 0.0000 -10597.4104 1449.8815 0.0000 0.0000 1781.2800 -7334.1777 306.0365 -9115.4577 -7375.1084 302.3839 382.8626 424.9624 30108.3019 -102.4995 -44.1672
ENERGY: 900000 1.7102 7.6847 9.3545 0.0000 -10562.2187 1366.0682 0.0000 0.0000 1688.5012 -7488.8999 290.0964 -9177.4011 -7391.5551 301.2715 -480.3754 -437.9008 30232.3256 -193.7957 -123.8895
ENERGY: 1200000 2.3224 5.7386 9.3074 0.0000 -10824.9967 1530.6166 0.0000 0.0000 1738.0933 -7538.9184 298.6167 -9277.0117 -7408.1338 301.0304 519.3388 510.7889 30014.4907 -152.8398 -88.2466
ENERGY: 1500000 2.1925 14.5232 8.5164 0.0000 -10637.6839 1410.7274 0.0000 0.0000 1732.3771 -7469.3473 297.6346 -9201.7244 -7414.3896 300.7083 -96.6491 -27.9848 29927.8888 -128.5117 -66.2921
TCL: Running FEP window  15: Lambda1 0.29999999999999966 Lambda2 0.24999999999999967 [dLambda -0.04999999999999999]
TCL: Setting parameter firsttimestep to 0
TCL: Setting parameter alchLambda to 0.29999999999999966
Info: NONBONDED TABLE R-SQUARED SPACING: 0.0625
Info: NONBONDED TABLE SIZE: 705 POINTS
TCL: Setting parameter alchLambda2 to 0.24999999999999967
Info: NONBONDED TABLE R-SQUARED SPACING: 0.0625
Info: NONBONDED TABLE SIZE: 705 POINTS
TCL: Running for 1500000 steps
ETITLE: TS BOND ANGLE DIHED IMPRP ELECT VDW BOUNDARY MISC KINETIC TOTAL TEMP POTENTIAL TOTALAVG TEMPAVG PRESSURE GPRESSURE VOLUME PRESSAVG GPRESSAVG
ENERGY: 0 2.1925 14.5232 8.5164 0.0000 -10637.6840 1410.9579 0.0000 0.0000 1731.5030 -7469.9910 297.4844 -9201.4940 -7469.9910 297.4844 -105.0636 -32.4387 29927.8888 -105.0636 -32.4387
ENERGY: 300000 2.4023 8.0233 10.0253 0.0000 -10677.5339 1438.7823 0.0000 0.0000 1737.0926 -7481.2081 298.4448 -9218.3007 -7458.4289 301.9051 -140.0526 -68.0746 30191.8436 25.8007 107.6636
ENERGY: 600000 3.1580 7.4268 7.8487 0.0000 -10624.6012 1459.7360 0.0000 0.0000 1790.8562 -7355.5754 307.6817 -9146.4316 -7429.6523 303.4543 587.2485 596.3317 29724.8259 -45.3803 29.7888
ENERGY: 900000 1.3309 8.1605 13.5520 0.0000 -10634.1613 1457.9238 0.0000 0.0000 1730.2116 -7422.9825 297.2626 -9153.1941 -7429.5563 301.4425 199.8806 226.6620 30297.8440 -25.8456 47.5020
ENERGY: 1200000 1.5691 6.6293 9.6273 0.0000 -10534.4135 1352.7696 0.0000 0.0000 1747.4944 -7416.3238 300.2319 -9163.8182 -7435.7452 300.0087 -537.1738 -439.7231 30125.9029 -115.2170 -40.6440
ENERGY: 1500000 4.3755 7.9110 13.1344 0.0000 -10728.6313 1478.8171 0.0000 0.0000 1701.9808 -7522.4123 292.4123 -9224.3932 -7437.1457 299.2714 236.1698 316.3494 29831.2028 -78.1060 -1.4838
TCL: Running FEP window  16: Lambda1 0.24999999999999967 Lambda2 0.19999999999999968 [dLambda -0.04999999999999999]
TCL: Setting parameter firsttimestep to 0
TCL: Setting parameter alchLambda to 0.24999999999999967
Info: NONBONDED TABLE R-SQUARED SPACING: 0.0625
Info: NONBONDED TABLE SIZE: 705 POINTS
TCL: Setting parameter alchLambda2 to 0.19999999999999968
Info: NONBONDED TABLE R-SQUARED SPACING: 0.0625
Info: NONBONDED TABLE SIZE: 705 POINTS
TCL: Running for 1500000 steps
ETITLE: TS BOND ANGLE DIHED IMPRP ELECT VDW BOUNDARY MISC KINETIC TOTAL TEMP POTENTIAL TOTALAVG TEMPAVG PRESSURE GPRESSURE VOLUME PRESSAVG GPRESSAVG
ENERGY: 0 4.3755 7.9110 13.1344 0.0000 -10728.6319 1478.8827 0.0000 0.0000 1701.1153 -7523.2128 292.2636 -9224.3281 -7523.2128 292.2636 224.2374 309.9890 29831.2028 224.2374 309.9890
ENERGY: 300000 1.8254 15.2780 9.7731 0.0000 -10637.4589 1394.8078 0.0000 0.0000 1709.1945 -7506.5801 293.6517 -9215.7746 -7469.8936 297.6598 -306.1096 -249.4289 29680.7487 174.6593 243.3386
ENERGY: 600000 3.7948 13.0331 13.0758 0.0000 -10784.8528 1525.1156 0.0000 0.0000 1733.7711 -7496.0624 297.8741 -9229.8335 -7445.7381 298.1027 595.9110 688.2969 29871.5002 128.7961 197.6483
ENERGY: 900000 2.9194 13.1479 10.7289 0.0000 -10755.9825 1487.5609 0.0000 0.0000 1785.0903 -7456.5351 306.6911 -9241.6254 -7434.5865 299.9448 200.5246 284.8514 30006.8634 -12.9500 56.5344
ENERGY: 1200000 0.8336 9.1172 8.9754 0.0000 -10692.7592 1481.6370 0.0000 0.0000 1723.7992 -7468.3968 296.1609 -9192.1960 -7438.3851 299.9002 191.8615 266.8329 30008.3905 -34.0236 34.4244
ENERGY: 1500000 5.6616 8.9690 11.9435 0.0000 -10628.7429 1388.8667 0.0000 0.0000 1776.9971 -7436.3050 305.3007 -9213.3021 -7442.8234 299.3970 -450.7671 -402.4577 30143.3555 -29.2145 38.4930
TCL: Running FEP window  17: Lambda1 0.19999999999999968 Lambda2 0.1499999999999997 [dLambda -0.04999999999999999]
TCL: Setting parameter firsttimestep to 0
TCL: Setting parameter alchLambda to 0.19999999999999968
Info: NONBONDED TABLE R-SQUARED SPACING: 0.0625
Info: NONBONDED TABLE SIZE: 705 POINTS
TCL: Setting parameter alchLambda2 to 0.1499999999999997
Info: NONBONDED TABLE R-SQUARED SPACING: 0.0625
Info: NONBONDED TABLE SIZE: 705 POINTS
TCL: Running for 1500000 steps
ETITLE: TS BOND ANGLE DIHED IMPRP ELECT VDW BOUNDARY MISC KINETIC TOTAL TEMP POTENTIAL TOTALAVG TEMPAVG PRESSURE GPRESSURE VOLUME PRESSAVG GPRESSAVG
ENERGY: 0 5.6616 8.9690 11.9435 0.0000 -10628.7416 1388.1204 0.0000 0.0000 1776.1176 -7437.9295 305.1495 -9214.0471 -7437.9295 305.1495 -487.8905 -410.8495 30143.3555 -487.8905 -410.8495
ENERGY: 300000 4.8572 8.4554 8.4639 0.0000 -10585.4189 1356.4750 0.0000 0.0000 1732.2794 -7474.8880 297.6178 -9207.1674 -7444.9200 298.8781 -879.9711 -724.7917 30496.8328 -192.5616 -100.2827
ENERGY: 600000 3.6229 4.5700 8.3170 0.0000 -10445.7024 1343.4105 0.0000 0.0000 1755.1470 -7330.6350 301.5467 -9085.7820 -7423.1269 298.8794 -690.1219 -616.7416 30409.6350 28.2060 113.8644
ENERGY: 900000 5.1610 7.7765 12.6628 0.0000 -10593.6496 1468.4420 0.0000 0.0000 1766.6749 -7332.9324 303.5272 -9099.6074 -7412.7397 299.5874 575.1701 590.7263 29801.5530 11.8116 86.0927
ENERGY: 1200000 2.3035 8.6668 9.1175 0.0000 -10613.0153 1429.7285 0.0000 0.0000 1686.0695 -7477.1295 289.6787 -9163.1990 -7416.5760 299.1849 -14.6283 79.1322 30000.9424 -20.1891 56.4365
ENERGY: 1500000 3.4036 6.4494 10.1478 0.0000 -10561.3181 1378.4931 0.0000 0.0000 1751.4546 -7411.3697 300.9123 -9162.8242 -7425.5275 298.8192 -354.7017 -302.1114 30233.8076 12.3838 85.2032
TCL: Running FEP window  18: Lambda1 0.1499999999999997 Lambda2 0.09999999999999969 [dLambda -0.05 ]
TCL: Setting parameter firsttimestep to 0
TCL: Setting parameter alchLambda to 0.1499999999999997
Info: NONBONDED TABLE R-SQUARED SPACING: 0.0625
Info: NONBONDED TABLE SIZE: 705 POINTS
TCL: Setting parameter alchLambda2 to 0.09999999999999969
Info: NONBONDED TABLE R-SQUARED SPACING: 0.0625
Info: NONBONDED TABLE SIZE: 705 POINTS
TCL: Running for 1500000 steps
ETITLE: TS BOND ANGLE DIHED IMPRP ELECT VDW BOUNDARY MISC KINETIC TOTAL TEMP POTENTIAL TOTALAVG TEMPAVG PRESSURE GPRESSURE VOLUME PRESSAVG GPRESSAVG
ENERGY: 0 3.4036 6.4494 10.1478 0.0000 -10561.3182 1377.4496 0.0000 0.0000 1750.6216 -7413.2462 300.7692 -9163.8678 -7413.2462 300.7692 -387.6616 -310.1913 30233.8076 -387.6616 -310.1913
ENERGY: 300000 1.8681 6.7930 8.2819 0.0000 -10470.5548 1342.2978 0.0000 0.0000 1786.0282 -7325.2858 306.8523 -9111.3140 -7401.5320 300.8873 -720.6269 -631.9319 30183.8367 -514.0759 -454.6351
ENERGY: 600000 2.9482 9.6556 10.3195 0.0000 -10446.6891 1312.2517 0.0000 0.0000 1711.2509 -7400.2632 294.0050 -9111.5141 -7395.9948 300.4864 -909.1688 -844.9760 30178.9141 -446.3115 -391.9167
ENERGY: 900000 4.1669 8.1480 9.6605 0.0000 -10593.0472 1359.8375 0.0000 0.0000 1738.6768 -7472.5577 298.7170 -9211.2345 -7411.2439 299.2779 -1025.2745 -929.2292 30288.4732 -397.7639 -334.0123
ENERGY: 1200000 2.5968 13.0462 10.5375 0.0000 -10634.3958 1427.8875 0.0000 0.0000 1770.7257 -7409.6021 304.2232 -9180.3279 -7415.0481 299.9314 -127.2608 -51.9267 30185.2226 -337.5660 -272.7618
ENERGY: 1500000 1.9495 9.0171 11.9541 0.0000 -10606.3900 1367.7641 0.0000 0.0000 1791.4870 -7424.2183 307.7901 -9215.7053 -7418.6210 300.2067 -812.4156 -737.3128 30433.5431 -408.2325 -347.0992
TCL: Running FEP window  19: Lambda1 0.09999999999999969 Lambda2 0.049999999999999684 [dLambda -0.05 ]
TCL: Setting parameter firsttimestep to 0
TCL: Setting parameter alchLambda to 0.09999999999999969
Info: NONBONDED TABLE R-SQUARED SPACING: 0.0625
Info: NONBONDED TABLE SIZE: 705 POINTS
TCL: Setting parameter alchLambda2 to 0.049999999999999684
Info: NONBONDED TABLE R-SQUARED SPACING: 0.0625
Info: NONBONDED TABLE SIZE: 705 POINTS
TCL: Running for 1500000 steps
ETITLE: TS BOND ANGLE DIHED IMPRP ELECT VDW BOUNDARY MISC KINETIC TOTAL TEMP POTENTIAL TOTALAVG TEMPAVG PRESSURE GPRESSURE VOLUME PRESSAVG GPRESSAVG
ENERGY: 0 1.9495 9.0171 11.9540 0.0000 -10606.3915 1366.9386 0.0000 0.0000 1790.6420 -7425.8903 307.6449 -9216.5323 -7425.8903 307.6449 -833.5991 -744.1737 30433.5431 -833.5991 -744.1737
ENERGY: 300000 1.5280 9.4826 10.0853 0.0000 -10529.7100 1335.0720 0.0000 0.0000 1747.2968 -7426.2452 300.1979 -9173.5421 -7435.3063 303.2031 -609.7934 -510.3840 30026.6700 -762.2017 -682.8237
ENERGY: 600000 4.7565 7.7770 10.8484 0.0000 -10497.2198 1370.0340 0.0000 0.0000 1712.6074 -7391.1964 294.2381 -9103.8038 -7451.0744 299.6063 -288.9330 -269.3673 30321.3527 -351.9420 -282.4595
ENERGY: 900000 2.8674 5.0406 9.3897 0.0000 -10557.3670 1416.9420 0.0000 0.0000 1698.3692 -7424.7581 291.7918 -9123.1273 -7433.1929 299.7603 -99.2746 -66.7251 30196.6070 -400.0322 -336.1277
ENERGY: 1200000 1.5713 9.3757 10.1384 0.0000 -10598.0849 1345.6309 0.0000 0.0000 1738.1719 -7493.1968 298.6302 -9231.3687 -7434.7026 298.6402 -949.0134 -852.0083 30090.9809 -412.5201 -352.1011
ENERGY: 1500000 3.2118 14.1173 11.4472 0.0000 -10620.9698 1471.1022 0.0000 0.0000 1773.5433 -7347.5481 304.7073 -9121.0914 -7424.7138 299.0040 425.9282 523.8479 29944.0173 -320.6772 -253.6573
TCL: Running FEP window  20: Lambda1 0.049999999999999684 Lambda2 0.0    [dLambda -0.049999999999999684]
TCL: Setting parameter firsttimestep to 0
TCL: Setting parameter alchLambda to 0.049999999999999684
Info: NONBONDED TABLE R-SQUARED SPACING: 0.0625
Info: NONBONDED TABLE SIZE: 705 POINTS
TCL: Setting parameter alchLambda2 to 0.0
Info: NONBONDED TABLE R-SQUARED SPACING: 0.0625
Info: NONBONDED TABLE SIZE: 705 POINTS
TCL: Running for 1500000 steps
ETITLE: TS BOND ANGLE DIHED IMPRP ELECT VDW BOUNDARY MISC KINETIC TOTAL TEMP POTENTIAL TOTALAVG TEMPAVG PRESSURE GPRESSURE VOLUME PRESSAVG GPRESSAVG
ENERGY: 0 3.2118 14.1173 11.4472 0.0000 -10620.9695 1470.4818 0.0000 0.0000 1772.7110 -7349.0004 304.5643 -9121.7114 -7349.0004 304.5643 428.7923 517.7415 29944.0173 428.7923 517.7415
ENERGY: 300000 2.6164 6.4458 13.5386 0.0000 -10635.3096 1449.9957 0.0000 0.0000 1718.6131 -7444.1000 295.2699 -9162.7132 -7378.7132 304.2372 -47.0902 72.3741 30289.7051 -154.7454 -75.5519
ENERGY: 600000 2.8523 13.0453 9.7110 0.0000 -10583.6044 1381.0310 0.0000 0.0000 1763.6909 -7413.2740 303.0146 -9176.9649 -7400.9520 302.5033 -172.0314 -227.5478 29700.7537 -30.9142 29.1842
ENERGY: 900000 2.4881 13.1078 9.3061 0.0000 -10642.9296 1458.5882 0.0000 0.0000 1743.0295 -7416.4099 299.4648 -9159.4394 -7422.0649 300.9576 353.4233 364.2390 29727.5048 -49.1509 10.4238
ENERGY: 1200000 3.0286 8.3222 10.2693 0.0000 -10775.7583 1520.1456 0.0000 0.0000 1761.6023 -7472.3904 302.6557 -9233.9927 -7422.7559 300.7977 660.0661 654.4670 29868.5972 -69.0408 -13.2879
ENERGY: 1500000 1.4691 7.8508 8.5363 0.0000 -10576.1238 1379.6477 0.0000 0.0000 1770.9489 -7407.6710 304.2615 -9178.6199 -7419.7110 300.6288 -631.6236 -568.9356 30326.5531 -103.6646 -49.5396
TCL: Exiting due to exit command.
