Info: SIMULATION PARAMETERS:
Info: TIMESTEP               2
Info: NUMBER OF STEPS        0
Info: STEPS PER CYCLE        10
Info: PERIODIC CELL BASIS 1  29.8416 0 0
Info: PERIODIC CELL BASIS 2  0 30.1028 0
Info: PERIODIC CELL BASIS 3  0 0 34.4438
Info: PERIODIC CELL CENTER   0 0 0
Info: WRAPPING WATERS AROUND PERIODIC BOUNDARIES ON OUTPUT.
Info: WRAPPING ALL CLUSTERS AROUND PERIODIC BOUNDARIES ON OUTPUT.
Info: FIRST LDB TIMESTEP     50
Info: LAST LDB TIMESTEP     -1
Info: HOM BACKGROUND SCALING 1
Info: PME BACKGROUND SCALING 1
Info: MIN ATOMS PER PATCH    40
Info: EMPTY PATCH LOAD       40 ATOMS
Info: VELOCITY FILE          mobley_8823527_equil.vel
Info: CENTER OF MASS MOVING INITIALLY? NO
Info: DIELECTRIC             1
Info: EXCLUDE                SCALED ONE-FOUR
Info: 1-4 ELECTROSTATICS SCALED BY 0.833333
Info: MODIFIED 1-4 VDW PARAMETERS WILL BE USED
Info: DCD FILENAME           mobley_8823527_prod.dcd
Info: DCD FREQUENCY          100000
Info: DCD FIRST STEP         100000
Info: DCD FILE WILL CONTAIN UNIT CELL DATA
Info: XST FILENAME           mobley_8823527_prod.xst
Info: XST FREQUENCY          100000
Info: NO VELOCITY DCD OUTPUT
Info: NO FORCE DCD OUTPUT
Info: OUTPUT FILENAME        mobley_8823527_prod
Info: BINARY OUTPUT FILES WILL BE USED
Info: RESTART FILENAME       mobley_8823527_prod.restart
Info: RESTART FREQUENCY      100000
Info: BINARY RESTART FILES WILL BE USED
Info: CUTOFF                 9
Info: PAIRLIST DISTANCE      11
Info: PAIRLIST SHRINK RATE   0.01
Info: PAIRLIST GROW RATE     0.01
Info: PAIRLIST TRIGGER       0.3
Info: PAIRLISTS PER CYCLE    2
Info: PAIRLISTS ENABLED
Info: MARGIN                 2
Info: HYDROGEN GROUP CUTOFF  2.5
Info: PATCH DIMENSION        15.5
Info: ENERGY OUTPUT STEPS    100000
Info: ENERGY EVALUATION STEPS    100000
Info: OUTPUT ENERGY PRECISION 4
Info: CROSSTERM ENERGY INCLUDED IN DIHEDRAL
Info: TIMING OUTPUT STEPS    1000000
Info: PRESSURE OUTPUT STEPS  100000
Info: ALCHEMICAL FEP ON
Info: FEP CURRENT LAMBDA VALUE     1
Info: FEP COMPARISON LAMBDA VALUE  0.95
Info: FEP INTRA-ALCHEMICAL NON-BONDED INTERACTIONS WILL BE RETAINED
Info: FEP INTRA-ALCHEMICAL BONDED INTERACTIONS WILL BE RETAINED
Info: FEP VDW SHIFTING COEFFICIENT 5
Info: FEP ELEC. ACTIVE FOR ANNIHILATED PARTICLES BETWEEN LAMBDA = 0 AND LAMBDA = 0.5
Info: FEP ELEC. ACTIVE FOR EXNIHILATED PARTICLES BETWEEN LAMBDA = 0.5 AND LAMBDA = 1
Info: FEP VDW ACTIVE FOR ANNIHILATED PARTICLES BETWEEN LAMBDA = 0 AND LAMBDA = 1
Info: FEP VDW ACTIVE FOR EXNIHILATED PARTICLES BETWEEN LAMBDA = 0 AND LAMBDA = 1
Info: FEP BOND ACTIVE FOR ANNIHILATED PARTICLES BETWEEN LAMBDA = 1 AND LAMBDA = 1
Info: FEP BOND ACTIVE FOR EXNIHILATED PARTICLES BETWEEN LAMBDA = 0 AND LAMBDA = 0
Info: LANGEVIN DYNAMICS ACTIVE
Info: LANGEVIN TEMPERATURE   300
Info: LANGEVIN USING BBK INTEGRATOR
Info: LANGEVIN DAMPING COEFFICIENT IS 1 INVERSE PS
Info: LANGEVIN DYNAMICS APPLIED TO HYDROGENS
Info: LANGEVIN PISTON PRESSURE CONTROL ACTIVE
Info:        TARGET PRESSURE IS 1.01325 BAR
Info:     OSCILLATION PERIOD IS 50 FS
Info:             DECAY TIME IS 25 FS
Info:     PISTON TEMPERATURE IS 300 K
Info:       PRESSURE CONTROL IS GROUP-BASED
Info:    INITIAL STRAIN RATE IS -0.000223328 -0.000223328 -0.000223328
Info:       CELL FLUCTUATION IS ISOTROPIC
Info: PARTICLE MESH EWALD (PME) ACTIVE
Info: PME TOLERANCE               1e-06
Info: PME EWALD COEFFICIENT       0.348832
Info: PME INTERPOLATION ORDER     4
Info: PME GRID DIMENSIONS         32 32 36
Info: PME MAXIMUM GRID SPACING    1
Info: PME CALCULATION WILL BE PERFORMED ON GPU
Info: FULL ELECTROSTATIC EVALUATION FREQUENCY      2
Info: USING VERLET I (r-RESPA) MTS SCHEME.
Info: C1 SPLITTING OF LONG RANGE ELECTROSTATICS
Info: PLACING ATOMS IN PATCHES BY HYDROGEN GROUPS
Info: RIGID BONDS TO HYDROGEN : ALL
Info:         ERROR TOLERANCE : 1e-08
Info:          MAX ITERATIONS : 100
Info: RIGID WATER USING SETTLE ALGORITHM
Info: RANDOM NUMBER SEED     1743803846
Info: USE HYDROGEN BONDS?    NO
Info: Using AMBER format force field!
Info: AMBER PARM FILE        mobley_8823527.prmtop
Info: COORDINATE PDB         mobley_8823527.pdb
Info: Exclusions will be read from PARM file!
Info: SCNB (VDW SCALING)     2
Info: USING ARITHMETIC MEAN TO COMBINE L-J SIGMA PARAMETERS
Info: BINARY COORDINATES     mobley_8823527_equil.coor
Info: SUMMARY OF PARAMETERS:
Info: 7 BONDS
Info: 8 ANGLES
Info:   8 HARMONIC
Info:   0 COSINE-BASED
Info: 3 DIHEDRAL
Info: 0 IMPROPER
Info: 0 CROSSTERM
Info: 0 VDW
Info: 15 VDW_PAIRS
Info: 0 NBTHOLE_PAIRS
Info: To read alchdata from file: mobley_8823527.pdb
Info: To read alchflag data from column: 5
Info: STRUCTURE SUMMARY:
Info: 2941 ATOMS
Info: 2942 BONDS
Info: 36 ANGLES
Info: 64 DIHEDRALS
Info: 0 IMPROPERS
Info: 0 CROSSTERMS
Info: 3024 EXCLUSIONS
Info: 2924 RIGID BONDS
Info: ALCH: 0 ATOMS TO DISAPPEAR IN FINAL STATE
Info: ALCH: 22 ATOMS TO APPEAR IN FINAL STATE
Info: 5899 DEGREES OF FREEDOM
Info: 990 HYDROGEN GROUPS
Info: 3 ATOMS IN LARGEST HYDROGEN GROUP
Info: 990 MIGRATION GROUPS
Info: 3 ATOMS IN LARGEST MIGRATION GROUP
Info: TOTAL MASS = 17856 amu
Info: TOTAL CHARGE = 2.79397e-08 e
Info: MASS DENSITY = 0.958305 g/cm^3
Info: ATOM DENSITY = 0.0950508 atoms/A^3
Info: ADDED 0 IMPLICIT EXCLUSIONS
Info: NONBONDED TABLE R-SQUARED SPACING: 0.0625
Info: NONBONDED TABLE SIZE: 705 POINTS
Info: REMOVING COM VELOCITY 0.113122 -0.287309 -0.00309704
Info: Use 3D box decompostion in PME FFT.
Info: Updated CUDA force table with 4096 elements.
Info: Updated CUDA LJ table with 5 x 5 elements.
Info: Found 25 unique exclusion lists needing 76 bytes
TCL: Running for 1500000 steps
ETITLE: TS BOND ANGLE DIHED IMPRP ELECT VDW BOUNDARY MISC KINETIC TOTAL TEMP POTENTIAL TOTALAVG TEMPAVG PRESSURE GPRESSURE VOLUME PRESSAVG GPRESSAVG
ENERGY: 0 5.2335 5.8280 12.2915 0.0000 -10586.0438 1432.9060 0.0000 0.0000 1739.6023 -7390.1825 296.7987 -9129.7848 -7390.1825 296.7987 16.2876 99.7630 30941.3482 16.2876 99.7630
ENERGY: 300000 9.7526 5.0769 10.2077 0.0000 -10540.7368 1403.4167 0.0000 0.0000 1728.8121 -7383.4707 294.9577 -9112.2828 -7392.8076 297.0674 -169.2253 -103.1349 30562.6306 152.1261 222.4938
ENERGY: 600000 3.9561 6.6126 10.2332 0.0000 -10659.8629 1478.8372 0.0000 0.0000 1782.8077 -7377.4162 304.1701 -9160.2239 -7378.3876 299.5545 332.3196 396.5512 30822.4306 260.6228 338.8835
ENERGY: 900000 3.7223 4.9707 10.0713 0.0000 -10652.8643 1484.1014 0.0000 0.0000 1773.9221 -7376.0766 302.6541 -9149.9986 -7370.2706 300.8160 869.3867 907.2417 30291.6224 286.7484 353.0710
ENERGY: 1200000 2.5461 4.4522 10.7962 0.0000 -10557.2836 1355.0957 0.0000 0.0000 1788.7461 -7395.6472 305.1832 -9184.3933 -7371.2033 302.0291 -350.8296 -286.2731 30205.5793 132.5037 194.8399
ENERGY: 1500000 4.5402 7.2887 8.3138 0.0000 -10584.5849 1408.1900 0.0000 0.0000 1791.1999 -7365.0523 305.6019 -9156.2522 -7377.2805 302.5587 275.8813 294.5997 30088.2664 43.5748 102.1651
TCL: Running FEP window   2: Lambda1 0.95   Lambda2 0.8999999999999999 [dLambda -0.050000000000000044]
TCL: Setting parameter firsttimestep to 0
TCL: Setting parameter alchLambda to 0.95
Info: NONBONDED TABLE R-SQUARED SPACING: 0.0625
Info: NONBONDED TABLE SIZE: 705 POINTS
TCL: Setting parameter alchLambda2 to 0.8999999999999999
Info: NONBONDED TABLE R-SQUARED SPACING: 0.0625
Info: NONBONDED TABLE SIZE: 705 POINTS
TCL: Running for 1500000 steps
ETITLE: TS BOND ANGLE DIHED IMPRP ELECT VDW BOUNDARY MISC KINETIC TOTAL TEMP POTENTIAL TOTALAVG TEMPAVG PRESSURE GPRESSURE VOLUME PRESSAVG GPRESSAVG
ENERGY: 0 4.5402 7.2887 8.3138 0.0000 -10584.3690 1409.4123 0.0000 0.0000 1790.3298 -7364.4843 305.4534 -9154.8141 -7364.4843 305.4534 207.3906 290.3257 30088.2664 207.3906 290.3257
ENERGY: 300000 6.5912 5.2026 9.7607 0.0000 -10633.7006 1445.9159 0.0000 0.0000 1757.2628 -7408.9674 299.8118 -9166.2302 -7417.7459 304.7638 -189.1504 -108.2483 30963.0363 196.8569 267.4520
ENERGY: 600000 4.3230 5.9671 9.3122 0.0000 -10596.2673 1462.7528 0.0000 0.0000 1799.2853 -7314.6269 306.9814 -9113.9123 -7390.8499 306.6371 453.9724 452.3347 30838.2112 44.9026 93.0993
ENERGY: 900000 4.3109 5.0571 13.6766 0.0000 -10597.7884 1361.3830 0.0000 0.0000 1765.3337 -7448.0271 301.1888 -9213.3608 -7407.9006 305.9126 -821.4315 -720.4456 30550.9016 -46.5590 11.2698
ENERGY: 1200000 9.3550 6.6034 11.2309 0.0000 -10591.5231 1371.3716 0.0000 0.0000 1763.0775 -7429.8848 300.8038 -9192.9623 -7417.3406 304.2479 -506.1787 -430.5161 30506.1253 -65.0287 -1.5304
ENERGY: 1500000 6.4496 5.7519 9.8679 0.0000 -10606.9836 1462.7627 0.0000 0.0000 1790.7009 -7331.4506 305.5168 -9122.1515 -7405.4716 304.4703 465.2417 512.1636 30518.6487 -47.8653 16.3009
TCL: Running FEP window   3: Lambda1 0.8999999999999999 Lambda2 0.8499999999999999 [dLambda -0.050000000000000044]
TCL: Setting parameter firsttimestep to 0
TCL: Setting parameter alchLambda to 0.8999999999999999
Info: NONBONDED TABLE R-SQUARED SPACING: 0.0625
Info: NONBONDED TABLE SIZE: 705 POINTS
TCL: Setting parameter alchLambda2 to 0.8499999999999999
Info: NONBONDED TABLE R-SQUARED SPACING: 0.0625
Info: NONBONDED TABLE SIZE: 705 POINTS
TCL: Running for 1500000 steps
ETITLE: TS BOND ANGLE DIHED IMPRP ELECT VDW BOUNDARY MISC KINETIC TOTAL TEMP POTENTIAL TOTALAVG TEMPAVG PRESSURE GPRESSURE VOLUME PRESSAVG GPRESSAVG
ENERGY: 0 6.4495 5.7520 9.8679 0.0000 -10606.8705 1463.5814 0.0000 0.0000 1789.8240 -7331.3958 305.3671 -9121.2197 -7331.3958 305.3671 428.0500 507.3611 30518.6487 428.0500 507.3611
ENERGY: 300000 7.7099 4.8464 15.8948 0.0000 -10631.5367 1361.4778 0.0000 0.0000 1770.6622 -7470.9457 302.0979 -9241.6078 -7407.0445 303.1179 -625.7648 -580.4624 30237.0387 -60.0553 13.2716
ENERGY: 600000 8.0275 5.0895 12.2245 0.0000 -10661.2384 1388.3736 0.0000 0.0000 1766.4372 -7481.0861 301.3771 -9247.5233 -7423.8013 302.5354 -570.6357 -472.4201 30118.8006 -169.8933 -113.1773
ENERGY: 900000 9.3126 6.5990 12.1769 0.0000 -10651.6377 1383.3753 0.0000 0.0000 1787.7390 -7452.4349 305.0114 -9240.1739 -7420.2246 303.2928 -937.5609 -833.0850 30923.1089 -366.6192 -302.3150
ENERGY: 1200000 6.1700 8.6528 13.9984 0.0000 -10550.2630 1333.1759 0.0000 0.0000 1739.2972 -7448.9687 296.7466 -9188.2659 -7421.3367 302.4442 -821.7937 -778.1157 30638.9923 -425.7669 -359.3573
ENERGY: 1500000 4.5128 4.2596 13.8316 0.0000 -10588.0822 1411.3620 0.0000 0.0000 1769.1065 -7385.0097 301.8325 -9154.1162 -7418.6118 301.7820 -61.9798 -46.8583 30778.2091 -303.3256 -239.4605
TCL: Running FEP window   4: Lambda1 0.8499999999999999 Lambda2 0.7999999999999998 [dLambda -0.050000000000000044]
TCL: Setting parameter firsttimestep to 0
TCL: Setting parameter alchLambda to 0.8499999999999999
Info: NONBONDED TABLE R-SQUARED SPACING: 0.0625
Info: NONBONDED TABLE SIZE: 705 POINTS
TCL: Setting parameter alchLambda2 to 0.7999999999999998
Info: NONBONDED TABLE R-SQUARED SPACING: 0.0625
Info: NONBONDED TABLE SIZE: 705 POINTS
TCL: Running for 1500000 steps
ETITLE: TS BOND ANGLE DIHED IMPRP ELECT VDW BOUNDARY MISC KINETIC TOTAL TEMP POTENTIAL TOTALAVG TEMPAVG PRESSURE GPRESSURE VOLUME PRESSAVG GPRESSAVG
ENERGY: 0 4.5128 4.2596 13.8316 0.0000 -10587.6765 1412.5613 0.0000 0.0000 1768.2652 -7384.2460 301.6889 -9152.5111 -7384.2460 301.6889 -118.2895 -51.4927 30778.2091 -118.2895 -51.4927
ENERGY: 300000 4.5917 7.9290 12.0919 0.0000 -10634.9902 1403.6274 0.0000 0.0000 1756.2431 -7450.5071 299.6378 -9206.7502 -7392.1428 302.2489 -33.0070 13.7753 29869.1715 173.1668 232.9245
ENERGY: 600000 8.9588 7.0755 8.1718 0.0000 -10622.7917 1401.3213 0.0000 0.0000 1803.8381 -7393.4262 307.7581 -9197.2643 -7406.9712 303.3859 -345.5019 -288.6586 30654.3181 171.4100 219.8458
ENERGY: 900000 4.2082 6.0426 11.2312 0.0000 -10579.1505 1462.6822 0.0000 0.0000 1686.8960 -7408.0901 287.8063 -9094.9862 -7415.1619 300.3916 602.4155 607.1096 30381.6766 165.2985 216.1259
ENERGY: 1200000 6.3019 4.5993 12.0609 0.0000 -10609.4491 1401.6468 0.0000 0.0000 1776.1190 -7408.7211 303.0289 -9184.8402 -7417.3985 299.3995 -336.7845 -312.2097 30493.1085 106.0182 162.0114
ENERGY: 1500000 4.0159 6.6596 11.5860 0.0000 -10557.5676 1390.5037 0.0000 0.0000 1791.0838 -7353.7185 305.5821 -9144.8023 -7416.6483 299.9587 -276.1631 -236.9560 30655.1717 123.2678 181.4928
TCL: Running FEP window   5: Lambda1 0.7999999999999998 Lambda2 0.7499999999999998 [dLambda -0.050000000000000044]
TCL: Setting parameter firsttimestep to 0
TCL: Setting parameter alchLambda to 0.7999999999999998
Info: NONBONDED TABLE R-SQUARED SPACING: 0.0625
Info: NONBONDED TABLE SIZE: 705 POINTS
TCL: Setting parameter alchLambda2 to 0.7499999999999998
Info: NONBONDED TABLE R-SQUARED SPACING: 0.0625
Info: NONBONDED TABLE SIZE: 705 POINTS
TCL: Running for 1500000 steps
ETITLE: TS BOND ANGLE DIHED IMPRP ELECT VDW BOUNDARY MISC KINETIC TOTAL TEMP POTENTIAL TOTALAVG TEMPAVG PRESSURE GPRESSURE VOLUME PRESSAVG GPRESSAVG
ENERGY: 0 4.0159 6.6596 11.5860 0.0000 -10557.0934 1391.4089 0.0000 0.0000 1790.1793 -7353.2436 305.4278 -9143.4230 -7353.2436 305.4278 -319.1664 -240.9519 30655.1717 -319.1664 -240.9519
ENERGY: 300000 7.1523 4.4160 7.6155 0.0000 -10651.2655 1463.6401 0.0000 0.0000 1744.1579 -7424.2838 297.5759 -9168.4416 -7380.9937 300.7895 312.0452 379.6962 30409.5058 53.1433 142.6364
ENERGY: 600000 5.8084 5.6258 11.3102 0.0000 -10639.2148 1427.0586 0.0000 0.0000 1751.5710 -7437.8408 298.8407 -9189.4118 -7395.8652 299.8973 -137.3382 -125.2999 30439.6303 -149.2828 -82.6808
ENERGY: 900000 4.6620 3.7522 10.0545 0.0000 -10704.8318 1482.8130 0.0000 0.0000 1753.6502 -7449.8999 299.1954 -9203.5500 -7404.2444 300.6271 468.7036 445.1972 30539.7052 -21.6695 35.2406
ENERGY: 1200000 3.3816 6.0959 8.7069 0.0000 -10695.8291 1487.1988 0.0000 0.0000 1813.6665 -7376.7794 309.4350 -9190.4459 -7403.0739 300.3528 484.5011 536.3442 30657.6373 130.1565 190.2487
ENERGY: 1500000 5.0771 5.7387 16.9664 0.0000 -10681.3742 1476.9217 0.0000 0.0000 1813.4535 -7363.2167 309.3986 -9176.6702 -7391.1919 300.7694 555.5958 661.7230 30097.0509 94.1088 158.5053
TCL: Running FEP window   6: Lambda1 0.7499999999999998 Lambda2 0.6999999999999997 [dLambda -0.050000000000000044]
TCL: Setting parameter firsttimestep to 0
TCL: Setting parameter alchLambda to 0.7499999999999998
Info: NONBONDED TABLE R-SQUARED SPACING: 0.0625
Info: NONBONDED TABLE SIZE: 705 POINTS
TCL: Setting parameter alchLambda2 to 0.6999999999999997
Info: NONBONDED TABLE R-SQUARED SPACING: 0.0625
Info: NONBONDED TABLE SIZE: 705 POINTS
TCL: Running for 1500000 steps
ETITLE: TS BOND ANGLE DIHED IMPRP ELECT VDW BOUNDARY MISC KINETIC TOTAL TEMP POTENTIAL TOTALAVG TEMPAVG PRESSURE GPRESSURE VOLUME PRESSAVG GPRESSAVG
ENERGY: 0 5.0771 5.7387 16.9664 0.0000 -10680.9569 1477.3449 0.0000 0.0000 1812.5857 -7363.2441 309.2506 -9175.8298 -7363.2441 309.2506 556.0769 647.2193 30097.0509 556.0769 647.2193
ENERGY: 300000 5.0179 4.6064 8.0503 0.0000 -10713.7902 1421.2764 0.0000 0.0000 1766.5999 -7508.2394 301.4048 -9274.8392 -7410.8456 302.4817 -520.9496 -464.8803 30467.5086 -401.2992 -344.2651
ENERGY: 600000 8.4030 6.7638 12.5041 0.0000 -10610.1030 1415.1194 0.0000 0.0000 1725.0675 -7442.2451 294.3189 -9167.3126 -7420.6353 298.2749 -59.3292 -30.6470 29941.0579 -197.6224 -135.9186
ENERGY: 900000 8.0267 3.3578 9.5593 0.0000 -10604.0684 1413.9702 0.0000 0.0000 1734.3428 -7434.8116 295.9013 -9169.1545 -7421.0408 299.5887 -347.3786 -254.1405 30474.3388 -221.3415 -153.9533
ENERGY: 1200000 5.7989 3.5079 11.1117 0.0000 -10568.1185 1419.9684 0.0000 0.0000 1708.4160 -7419.3155 291.4779 -9127.7315 -7423.4409 298.0661 -258.9079 -119.3553 30731.3715 -251.7519 -182.0324
ENERGY: 1500000 7.0257 2.5645 12.5615 0.0000 -10602.8906 1408.4083 0.0000 0.0000 1751.7352 -7420.5953 298.8687 -9172.3306 -7422.8249 297.9253 54.2270 80.5934 30458.9284 -220.0320 -149.3630
TCL: Running FEP window   7: Lambda1 0.6999999999999997 Lambda2 0.6499999999999997 [dLambda -0.050000000000000044]
TCL: Setting parameter firsttimestep to 0
TCL: Setting parameter alchLambda to 0.6999999999999997
Info: NONBONDED TABLE R-SQUARED SPACING: 0.0625
Info: NONBONDED TABLE SIZE: 705 POINTS
TCL: Setting parameter alchLambda2 to 0.6499999999999997
Info: NONBONDED TABLE R-SQUARED SPACING: 0.0625
Info: NONBONDED TABLE SIZE: 705 POINTS
TCL: Running for 1500000 steps
ETITLE: TS BOND ANGLE DIHED IMPRP ELECT VDW BOUNDARY MISC KINETIC TOTAL TEMP POTENTIAL TOTALAVG TEMPAVG PRESSURE GPRESSURE VOLUME PRESSAVG GPRESSAVG
ENERGY: 0 7.0257 2.5645 12.5615 0.0000 -10602.6729 1409.0063 0.0000 0.0000 1750.8727 -7420.6423 298.7216 -9171.5149 -7420.6423 298.7216 -4.0216 77.5513 30458.9284 -4.0216 77.5513
ENERGY: 300000 6.0404 6.9466 8.5193 0.0000 -10482.1024 1276.3866 0.0000 0.0000 1726.1633 -7458.0462 294.5058 -9184.2095 -7422.8751 299.5662 -1333.5980 -1264.9969 30564.4660 -939.4725 -890.7959
ENERGY: 600000 3.7905 4.7320 15.8551 0.0000 -10796.7611 1484.0983 0.0000 0.0000 1782.3305 -7505.9547 304.0887 -9288.2852 -7414.5619 299.9325 259.9318 298.6224 29973.1219 -469.2056 -437.1445
ENERGY: 900000 3.2222 8.5995 10.0665 0.0000 -10686.2646 1500.1281 0.0000 0.0000 1781.0955 -7383.1529 303.8779 -9164.2483 -7398.0381 300.4021 857.5540 886.2711 30219.4886 -285.6562 -247.8395
ENERGY: 1200000 6.0975 5.2619 8.7356 0.0000 -10570.3594 1382.7159 0.0000 0.0000 1764.5166 -7403.0318 301.0494 -9167.5485 -7409.6342 299.4654 -341.4540 -266.8319 30477.1835 -268.7273 -227.1939
ENERGY: 1500000 5.6489 5.2539 12.9661 0.0000 -10621.1436 1439.4798 0.0000 0.0000 1721.3676 -7436.4273 293.6876 -9157.7948 -7419.6692 298.6995 325.0655 344.2842 29973.3735 -127.2182 -84.3604
TCL: Running FEP window   8: Lambda1 0.6499999999999997 Lambda2 0.5999999999999996 [dLambda -0.050000000000000044]
TCL: Setting parameter firsttimestep to 0
TCL: Setting parameter alchLambda to 0.6499999999999997
Info: NONBONDED TABLE R-SQUARED SPACING: 0.0625
Info: NONBONDED TABLE SIZE: 705 POINTS
TCL: Setting parameter alchLambda2 to 0.5999999999999996
Info: NONBONDED TABLE R-SQUARED SPACING: 0.0625
Info: NONBONDED TABLE SIZE: 705 POINTS
TCL: Running for 1500000 steps
ETITLE: TS BOND ANGLE DIHED IMPRP ELECT VDW BOUNDARY MISC KINETIC TOTAL TEMP POTENTIAL TOTALAVG TEMPAVG PRESSURE GPRESSURE VOLUME PRESSAVG GPRESSAVG
ENERGY: 0 5.6489 5.2540 12.9661 0.0000 -10620.8883 1439.8101 0.0000 0.0000 1720.4773 -7436.7320 293.5357 -9157.2092 -7436.7320 293.5357 256.3307 330.3260 29973.3735 256.3307 330.3260
ENERGY: 300000 6.5299 6.3536 7.7060 0.0000 -10615.4899 1478.8557 0.0000 0.0000 1776.4641 -7339.5805 303.0878 -9116.0447 -7404.6207 301.3646 606.9986 676.1366 30364.1056 273.3009 357.1942
ENERGY: 600000 3.3923 3.8586 9.2709 0.0000 -10632.0541 1425.3194 0.0000 0.0000 1747.4193 -7442.7934 298.1324 -9190.2127 -7416.1828 301.9790 49.0707 106.5177 30310.0754 179.1210 254.5101
ENERGY: 900000 6.2391 7.0513 8.6142 0.0000 -10553.1977 1403.2995 0.0000 0.0000 1768.2135 -7359.7801 301.6801 -9127.9936 -7410.9261 300.7202 -355.3866 -280.1913 30697.3273 50.9972 117.8742
ENERGY: 1200000 3.7966 7.1398 15.5321 0.0000 -10592.0543 1438.9597 0.0000 0.0000 1790.3554 -7336.2706 305.4578 -9126.6260 -7404.4666 300.7989 384.1616 466.5527 30123.1665 20.5106 85.8470
ENERGY: 1500000 4.2936 4.9969 9.3478 0.0000 -10496.1558 1347.8806 0.0000 0.0000 1713.2356 -7416.4014 292.3002 -9129.6370 -7406.9249 299.6300 -341.8603 -337.9105 30544.8312 92.5345 154.9091
TCL: Running FEP window   9: Lambda1 0.5999999999999996 Lambda2 0.5499999999999996 [dLambda -0.050000000000000044]
TCL: Setting parameter firsttimestep to 0
TCL: Setting parameter alchLambda to 0.5999999999999996
Info: NONBONDED TABLE R-SQUARED SPACING: 0.0625
Info: NONBONDED TABLE SIZE: 705 POINTS
TCL: Setting parameter alchLambda2 to 0.5499999999999996
Info: NONBONDED TABLE R-SQUARED SPACING: 0.0625
Info: NONBONDED TABLE SIZE: 705 POINTS
TCL: Running for 1500000 steps
ETITLE: TS BOND ANGLE DIHED IMPRP ELECT VDW BOUNDARY MISC KINETIC TOTAL TEMP POTENTIAL TOTALAVG TEMPAVG PRESSURE GPRESSURE VOLUME PRESSAVG GPRESSAVG
ENERGY: 0 4.2936 4.9969 9.3478 0.0000 -10496.5336 1348.0384 0.0000 0.0000 1712.3578 -7417.4991 292.1504 -9129.8570 -7417.4991 292.1504 -443.3420 -353.5726 30544.8312 -443.3420 -353.5726
ENERGY: 300000 3.4042 4.6620 11.9331 0.0000 -10744.1127 1462.0573 0.0000 0.0000 1760.7922 -7501.2639 300.4139 -9262.0561 -7433.8349 298.4056 43.5527 171.1418 30122.7281 -126.2188 -11.0126
ENERGY: 600000 6.1587 5.6697 15.2191 0.0000 -10714.9157 1493.3433 0.0000 0.0000 1746.6441 -7447.8807 298.0001 -9194.5249 -7417.3649 298.7501 331.6477 445.3392 30319.9704 -132.0963 -32.8362
ENERGY: 900000 7.8958 6.1826 14.2447 0.0000 -10671.9649 1462.9615 0.0000 0.0000 1809.3291 -7371.3512 308.6950 -9180.6803 -7411.5420 300.8213 223.2190 299.6172 30506.5551 -28.2128 62.0324
ENERGY: 1200000 4.8502 2.8431 12.9403 0.0000 -10477.4233 1434.5257 0.0000 0.0000 1835.9492 -7186.3148 313.2367 -9022.2640 -7396.7091 301.7617 324.8849 347.5772 30702.4372 22.4483 106.1870
ENERGY: 1500000 3.7170 3.4798 9.1147 0.0000 -10756.5099 1458.6251 0.0000 0.0000 1762.9444 -7518.6288 300.7811 -9281.5732 -7413.1634 301.3623 216.5217 266.6914 29782.0263 -63.8874 13.9539
TCL: Running FEP window  10: Lambda1 0.5499999999999996 Lambda2 0.4999999999999996 [dLambda -0.04999999999999999]
TCL: Setting parameter firsttimestep to 0
TCL: Setting parameter alchLambda to 0.5499999999999996
Info: NONBONDED TABLE R-SQUARED SPACING: 0.0625
Info: NONBONDED TABLE SIZE: 705 POINTS
TCL: Setting parameter alchLambda2 to 0.4999999999999996
Info: NONBONDED TABLE R-SQUARED SPACING: 0.0625
Info: NONBONDED TABLE SIZE: 705 POINTS
TCL: Running for 1500000 steps
ETITLE: TS BOND ANGLE DIHED IMPRP ELECT VDW BOUNDARY MISC KINETIC TOTAL TEMP POTENTIAL TOTALAVG TEMPAVG PRESSURE GPRESSURE VOLUME PRESSAVG GPRESSAVG
ENERGY: 0 3.7170 3.4798 9.1147 0.0000 -10755.8964 1459.1017 0.0000 0.0000 1762.0646 -7518.4185 300.6310 -9280.4831 -7518.4185 300.6310 167.4314 262.2397 29782.0263 167.4314 262.2397
ENERGY: 300000 7.2392 3.8815 9.7135 0.0000 -10605.1014 1391.7856 0.0000 0.0000 1781.9447 -7410.5370 304.0228 -9192.4816 -7424.2922 300.9091 -430.7873 -449.0170 30260.4528 -146.6214 -89.8148
ENERGY: 600000 4.5877 2.9027 10.4972 0.0000 -10714.5534 1486.9158 0.0000 0.0000 1808.9101 -7400.7398 308.6235 -9209.6499 -7428.0547 300.5282 476.9149 557.5386 30267.4581 -130.2166 -59.8522
ENERGY: 900000 6.1990 9.1729 11.7692 0.0000 -10597.9569 1373.6808 0.0000 0.0000 1738.4625 -7458.6726 296.6042 -9197.1350 -7434.4163 299.4727 -297.9723 -322.4067 30201.5108 -176.2108 -106.0732
ENERGY: 1200000 7.2001 5.4572 11.3389 0.0000 -10669.5352 1509.9430 0.0000 0.0000 1767.0927 -7368.5033 301.4889 -9135.5960 -7422.4537 299.7874 742.8964 771.8567 30541.5173 -232.8499 -173.8907
ENERGY: 1500000 7.0825 5.6846 16.0735 0.0000 -10599.6232 1335.2251 0.0000 0.0000 1756.4856 -7479.0718 299.6792 -9235.5574 -7433.5432 299.7669 -1223.1305 -1198.6009 30623.4620 -259.8139 -202.2985
TCL: Running FEP window  11: Lambda1 0.4999999999999996 Lambda2 0.4499999999999996 [dLambda -0.04999999999999999]
TCL: Setting parameter firsttimestep to 0
TCL: Setting parameter alchLambda to 0.4999999999999996
Info: NONBONDED TABLE R-SQUARED SPACING: 0.0625
Info: NONBONDED TABLE SIZE: 705 POINTS
TCL: Setting parameter alchLambda2 to 0.4499999999999996
Info: NONBONDED TABLE R-SQUARED SPACING: 0.0625
Info: NONBONDED TABLE SIZE: 705 POINTS
TCL: Running for 1500000 steps
ETITLE: TS BOND ANGLE DIHED IMPRP ELECT VDW BOUNDARY MISC KINETIC TOTAL TEMP POTENTIAL TOTALAVG TEMPAVG PRESSURE GPRESSURE VOLUME PRESSAVG GPRESSAVG
ENERGY: 0 7.0825 5.6846 16.0735 0.0000 -10599.1041 1335.3432 0.0000 0.0000 1755.5830 -7479.3373 299.5252 -9234.9202 -7479.3373 299.5252 -1308.5585 -1205.6602 30623.4620 -1308.5585 -1205.6602
ENERGY: 300000 9.8721 8.6912 11.3301 0.0000 -10744.0945 1461.3195 0.0000 0.0000 1764.8465 -7488.0351 301.1057 -9252.8816 -7450.8520 299.8468 93.6985 218.6741 29881.7626 -568.4241 -505.5165
ENERGY: 600000 8.9069 4.2022 14.0498 0.0000 -10663.0577 1460.5376 0.0000 0.0000 1752.9916 -7422.3695 299.0831 -9175.3611 -7456.4054 298.4675 124.3552 266.3429 29998.0490 -216.4964 -143.7454
ENERGY: 900000 5.7388 9.1489 11.3429 0.0000 -10643.8450 1468.9005 0.0000 0.0000 1793.3334 -7355.3805 305.9659 -9148.7139 -7415.6347 300.6814 373.0518 466.1519 30108.0680 -75.5385 0.4789
ENERGY: 1200000 6.3035 3.5512 11.4549 0.0000 -10573.2822 1402.4845 0.0000 0.0000 1738.8650 -7410.6233 296.6729 -9149.4882 -7426.1313 299.9057 -318.9080 -260.9994 30160.4793 -61.3579 12.7178
ENERGY: 1500000 5.4433 5.4581 10.4101 0.0000 -10592.5900 1377.7212 0.0000 0.0000 1708.8224 -7484.7349 291.5472 -9193.5573 -7437.0443 299.0128 -524.3173 -425.3584 30509.5831 8.2756 77.8092
TCL: Running FEP window  12: Lambda1 0.4499999999999996 Lambda2 0.39999999999999963 [dLambda -0.04999999999999999]
TCL: Setting parameter firsttimestep to 0
TCL: Setting parameter alchLambda to 0.4499999999999996
Info: NONBONDED TABLE R-SQUARED SPACING: 0.0625
Info: NONBONDED TABLE SIZE: 705 POINTS
TCL: Setting parameter alchLambda2 to 0.39999999999999963
Info: NONBONDED TABLE R-SQUARED SPACING: 0.0625
Info: NONBONDED TABLE SIZE: 705 POINTS
TCL: Running for 1500000 steps
ETITLE: TS BOND ANGLE DIHED IMPRP ELECT VDW BOUNDARY MISC KINETIC TOTAL TEMP POTENTIAL TOTALAVG TEMPAVG PRESSURE GPRESSURE VOLUME PRESSAVG GPRESSAVG
ENERGY: 0 5.4433 5.4581 10.4101 0.0000 -10592.5912 1378.3158 0.0000 0.0000 1707.9636 -7485.0003 291.4007 -9192.9638 -7485.0003 291.4007 -523.7321 -431.8103 30509.5831 -523.7321 -431.8103
ENERGY: 300000 4.5622 6.3052 9.1894 0.0000 -10589.7589 1457.7379 0.0000 0.0000 1787.5171 -7324.4471 304.9736 -9111.9642 -7419.5410 295.3376 445.2221 517.9024 30119.9089 -179.3238 -103.5469
ENERGY: 600000 3.6500 5.4190 8.6146 0.0000 -10680.0929 1434.6291 0.0000 0.0000 1748.8013 -7478.9789 298.3681 -9227.7802 -7430.8389 296.6947 -215.8314 -181.0018 30642.0022 -132.9679 -82.3556
ENERGY: 900000 3.7130 8.0789 9.8919 0.0000 -10644.6917 1429.7601 0.0000 0.0000 1819.2506 -7373.9972 310.3877 -9193.2479 -7413.7461 299.6197 -188.3591 -52.8881 30165.5656 -22.9538 30.2857
ENERGY: 1200000 6.5048 5.6161 11.0432 0.0000 -10664.2815 1474.3629 0.0000 0.0000 1789.2993 -7377.4552 305.2776 -9166.7544 -7406.0015 300.7078 161.9861 248.6188 30493.8267 69.8176 128.1682
ENERGY: 1500000 6.7522 5.0535 11.1411 0.0000 -10689.7101 1445.4134 0.0000 0.0000 1761.6630 -7459.6869 300.5625 -9221.3500 -7415.3492 300.2905 -382.7746 -274.1882 30783.8533 -15.8675 39.9881
TCL: Running FEP window  13: Lambda1 0.39999999999999963 Lambda2 0.34999999999999964 [dLambda -0.04999999999999999]
TCL: Setting parameter firsttimestep to 0
TCL: Setting parameter alchLambda to 0.39999999999999963
Info: NONBONDED TABLE R-SQUARED SPACING: 0.0625
Info: NONBONDED TABLE SIZE: 705 POINTS
TCL: Setting parameter alchLambda2 to 0.34999999999999964
Info: NONBONDED TABLE R-SQUARED SPACING: 0.0625
Info: NONBONDED TABLE SIZE: 705 POINTS
TCL: Running for 1500000 steps
ETITLE: TS BOND ANGLE DIHED IMPRP ELECT VDW BOUNDARY MISC KINETIC TOTAL TEMP POTENTIAL TOTALAVG TEMPAVG PRESSURE GPRESSURE VOLUME PRESSAVG GPRESSAVG
ENERGY: 0 6.7522 5.0535 11.1411 0.0000 -10689.7109 1445.9371 0.0000 0.0000 1760.7359 -7460.0912 300.4043 -9220.8271 -7460.0912 300.4043 -377.6974 -278.6961 30783.8533 -377.6974 -278.6961
ENERGY: 300000 5.2129 5.8023 11.1666 0.0000 -10648.3319 1463.0470 0.0000 0.0000 1764.6401 -7398.4631 301.0705 -9163.1032 -7416.9080 300.7414 -100.4490 -61.4219 30713.8555 -230.2016 -176.4993
ENERGY: 600000 6.0850 9.8938 7.3904 0.0000 -10490.0970 1389.5475 0.0000 0.0000 1692.2482 -7384.9320 288.7195 -9077.1802 -7420.5817 299.4491 -781.3573 -683.6787 31491.1311 -405.5234 -340.6409
ENERGY: 900000 4.8076 3.3084 15.0891 0.0000 -10689.3105 1443.1602 0.0000 0.0000 1747.0562 -7475.8890 298.0704 -9222.9452 -7419.9213 300.5183 -161.3534 -52.0459 30378.6873 -481.7533 -412.6287
ENERGY: 1200000 6.2170 6.7448 7.5712 0.0000 -10629.2325 1443.9342 0.0000 0.0000 1783.5606 -7381.2046 304.2985 -9164.7652 -7417.8888 301.7229 262.3195 335.4377 29673.7324 -384.6363 -311.0096
ENERGY: 1500000 5.7413 6.9056 10.4511 0.0000 -10704.4623 1539.1643 0.0000 0.0000 1686.2938 -7455.9061 287.7036 -9142.1999 -7419.2830 300.3860 437.7478 615.9487 30828.7096 -300.9730 -231.9961
TCL: Running FEP window  14: Lambda1 0.34999999999999964 Lambda2 0.29999999999999966 [dLambda -0.04999999999999999]
TCL: Setting parameter firsttimestep to 0
TCL: Setting parameter alchLambda to 0.34999999999999964
Info: NONBONDED TABLE R-SQUARED SPACING: 0.0625
Info: NONBONDED TABLE SIZE: 705 POINTS
TCL: Setting parameter alchLambda2 to 0.29999999999999966
Info: NONBONDED TABLE R-SQUARED SPACING: 0.0625
Info: NONBONDED TABLE SIZE: 705 POINTS
TCL: Running for 1500000 steps
ETITLE: TS BOND ANGLE DIHED IMPRP ELECT VDW BOUNDARY MISC KINETIC TOTAL TEMP POTENTIAL TOTALAVG TEMPAVG PRESSURE GPRESSURE VOLUME PRESSAVG GPRESSAVG
ENERGY: 0 5.7413 6.9056 10.4511 0.0000 -10704.4620 1539.7480 0.0000 0.0000 1685.4176 -7456.1983 287.5541 -9141.6160 -7456.1983 287.5541 530.4477 613.3620 30828.7096 530.4477 613.3620
ENERGY: 300000 6.9813 7.8516 7.2258 0.0000 -10557.6268 1390.8357 0.0000 0.0000 1728.7019 -7416.0305 294.9389 -9144.7325 -7450.6512 295.5102 -475.1908 -424.0084 30793.0067 -145.3933 -70.7183
ENERGY: 600000 4.9116 5.1969 11.9211 0.0000 -10562.2492 1379.6717 0.0000 0.0000 1781.7288 -7378.8190 303.9860 -9160.5478 -7413.1003 298.5319 -184.1705 -126.2020 30011.9350 6.0457 78.7536
ENERGY: 900000 8.5225 8.1636 12.8298 0.0000 -10714.4624 1513.8460 0.0000 0.0000 1795.3262 -7375.7743 306.3059 -9171.1004 -7396.6983 298.8806 825.4095 867.1093 29956.8872 81.1750 161.8999
ENERGY: 1200000 3.4287 7.7544 11.4124 0.0000 -10471.4077 1354.2658 0.0000 0.0000 1816.9587 -7277.5877 309.9967 -9094.5464 -7383.3966 300.4023 -399.3402 -357.9575 30767.9108 -0.0508 75.1995
ENERGY: 1500000 2.9135 10.0002 13.6950 0.0000 -10605.0832 1410.9953 0.0000 0.0000 1758.7858 -7408.6933 300.0716 -9167.4791 -7382.7820 301.2409 -296.6841 -242.6510 30764.5521 10.9539 78.6268
TCL: Running FEP window  15: Lambda1 0.29999999999999966 Lambda2 0.24999999999999967 [dLambda -0.04999999999999999]
TCL: Setting parameter firsttimestep to 0
TCL: Setting parameter alchLambda to 0.29999999999999966
Info: NONBONDED TABLE R-SQUARED SPACING: 0.0625
Info: NONBONDED TABLE SIZE: 705 POINTS
TCL: Setting parameter alchLambda2 to 0.24999999999999967
Info: NONBONDED TABLE R-SQUARED SPACING: 0.0625
Info: NONBONDED TABLE SIZE: 705 POINTS
TCL: Running for 1500000 steps
ETITLE: TS BOND ANGLE DIHED IMPRP ELECT VDW BOUNDARY MISC KINETIC TOTAL TEMP POTENTIAL TOTALAVG TEMPAVG PRESSURE GPRESSURE VOLUME PRESSAVG GPRESSAVG
ENERGY: 0 2.9135 10.0002 13.6950 0.0000 -10605.0835 1411.4707 0.0000 0.0000 1757.9229 -7409.0812 299.9244 -9167.0041 -7409.0812 299.9244 -336.2246 -248.0327 30764.5521 -336.2246 -248.0327
ENERGY: 300000 8.1248 7.2039 12.3346 0.0000 -10559.5516 1376.9483 0.0000 0.0000 1753.8082 -7401.1318 299.2224 -9154.9400 -7425.4138 298.8232 -308.4202 -193.0579 30339.9516 66.1073 165.1000
ENERGY: 600000 5.5911 3.7569 10.6502 0.0000 -10784.5266 1499.7538 0.0000 0.0000 1709.9616 -7554.8130 291.7416 -9264.7746 -7447.2091 297.4413 90.2185 195.2149 30179.7207 -6.6677 73.6445
ENERGY: 900000 4.2525 4.3623 13.6481 0.0000 -10672.0291 1420.3099 0.0000 0.0000 1712.3586 -7517.0976 292.1506 -9229.4562 -7449.4409 296.2588 -459.8533 -432.5931 30325.4673 -8.2231 70.6106
ENERGY: 1200000 6.1012 5.0661 11.4390 0.0000 -10577.8209 1377.7926 0.0000 0.0000 1734.0947 -7443.3273 295.8590 -9177.4220 -7438.9710 296.6190 -641.9422 -641.7025 30413.9871 17.3887 88.1945
ENERGY: 1500000 4.8809 8.2299 11.5390 0.0000 -10632.3391 1482.1616 0.0000 0.0000 1783.8549 -7341.6729 304.3487 -9125.5277 -7441.3321 296.7227 623.1360 654.3652 30471.0250 27.4854 92.7385
TCL: Running FEP window  16: Lambda1 0.24999999999999967 Lambda2 0.19999999999999968 [dLambda -0.04999999999999999]
TCL: Setting parameter firsttimestep to 0
TCL: Setting parameter alchLambda to 0.24999999999999967
Info: NONBONDED TABLE R-SQUARED SPACING: 0.0625
Info: NONBONDED TABLE SIZE: 705 POINTS
TCL: Setting parameter alchLambda2 to 0.19999999999999968
Info: NONBONDED TABLE R-SQUARED SPACING: 0.0625
Info: NONBONDED TABLE SIZE: 705 POINTS
TCL: Running for 1500000 steps
ETITLE: TS BOND ANGLE DIHED IMPRP ELECT VDW BOUNDARY MISC KINETIC TOTAL TEMP POTENTIAL TOTALAVG TEMPAVG PRESSURE GPRESSURE VOLUME PRESSAVG GPRESSAVG
ENERGY: 0 4.8809 8.2299 11.5390 0.0000 -10632.3389 1482.9964 0.0000 0.0000 1783.0109 -7341.6819 304.2047 -9124.6927 -7341.6819 304.2047 577.0392 649.5941 30471.0250 577.0392 649.5941
ENERGY: 300000 8.8627 2.6101 12.0440 0.0000 -10696.9168 1450.6030 0.0000 0.0000 1736.4386 -7486.3584 296.2589 -9222.7970 -7428.0064 298.8696 -61.6925 7.5728 30238.6277 -79.7661 -32.0037
ENERGY: 600000 5.1808 3.3661 10.1461 0.0000 -10687.5709 1487.0949 0.0000 0.0000 1780.4815 -7401.3017 303.7732 -9181.7831 -7418.3485 300.2190 241.4074 334.8596 30400.6982 -94.0641 -43.3864
ENERGY: 900000 8.1960 7.2050 9.5548 0.0000 -10639.1925 1467.7104 0.0000 0.0000 1793.5829 -7352.9434 306.0085 -9146.5262 -7398.4353 302.2310 503.1816 517.8417 30056.0192 -53.5321 -2.2655
ENERGY: 1200000 7.4046 4.0624 10.6199 0.0000 -10578.4346 1334.5748 0.0000 0.0000 1777.2466 -7444.5263 303.2213 -9221.7729 -7403.4300 301.9383 -1173.8525 -1167.9326 30435.4921 -96.1449 -37.3187
ENERGY: 1500000 5.5615 4.2820 9.4200 0.0000 -10647.5259 1471.4839 0.0000 0.0000 1790.6824 -7366.0962 305.5136 -9156.7786 -7398.3712 301.4070 185.1083 233.7086 30074.4288 -5.5031 51.7517
TCL: Running FEP window  17: Lambda1 0.19999999999999968 Lambda2 0.1499999999999997 [dLambda -0.04999999999999999]
TCL: Setting parameter firsttimestep to 0
TCL: Setting parameter alchLambda to 0.19999999999999968
Info: NONBONDED TABLE R-SQUARED SPACING: 0.0625
Info: NONBONDED TABLE SIZE: 705 POINTS
TCL: Setting parameter alchLambda2 to 0.1499999999999997
Info: NONBONDED TABLE R-SQUARED SPACING: 0.0625
Info: NONBONDED TABLE SIZE: 705 POINTS
TCL: Running for 1500000 steps
ETITLE: TS BOND ANGLE DIHED IMPRP ELECT VDW BOUNDARY MISC KINETIC TOTAL TEMP POTENTIAL TOTALAVG TEMPAVG PRESSURE GPRESSURE VOLUME PRESSAVG GPRESSAVG
ENERGY: 0 5.5615 4.2820 9.4200 0.0000 -10647.5271 1471.4318 0.0000 0.0000 1789.8357 -7366.9961 305.3691 -9156.8318 -7366.9961 305.3691 157.2016 227.6791 30074.4288 157.2016 227.6791
ENERGY: 300000 6.3503 4.9610 8.9992 0.0000 -10693.4870 1450.5953 0.0000 0.0000 1786.3287 -7436.2525 304.7708 -9222.5812 -7408.6551 299.7510 -79.5587 17.8157 30024.9696 54.9503 141.7834
ENERGY: 600000 7.8600 4.0255 11.8240 0.0000 -10732.6680 1536.4804 0.0000 0.0000 1726.6453 -7445.8328 294.5880 -9172.4781 -7419.0170 298.4046 836.3638 904.4845 30267.5168 -49.2334 16.9269
ENERGY: 900000 5.6358 6.5884 11.7262 0.0000 -10664.1631 1386.2065 0.0000 0.0000 1777.7753 -7476.2308 303.3115 -9254.0062 -7431.0638 299.2872 -730.9453 -668.9895 29962.9113 -31.6654 36.1656
ENERGY: 1200000 4.3192 9.2623 10.0192 0.0000 -10589.5640 1445.9741 0.0000 0.0000 1744.5602 -7375.4290 297.6446 -9119.9891 -7412.5643 300.1465 24.9892 126.1487 30630.8694 -72.8396 4.1255
ENERGY: 1500000 12.8857 9.3301 7.3303 0.0000 -10508.4315 1351.1185 0.0000 0.0000 1786.0261 -7341.7408 304.7192 -9127.7669 -7407.5294 300.5737 -183.4857 -113.7690 30363.5543 4.4980 81.4979
TCL: Running FEP window  18: Lambda1 0.1499999999999997 Lambda2 0.09999999999999969 [dLambda -0.05 ]
TCL: Setting parameter firsttimestep to 0
TCL: Setting parameter alchLambda to 0.1499999999999997
Info: NONBONDED TABLE R-SQUARED SPACING: 0.0625
Info: NONBONDED TABLE SIZE: 705 POINTS
TCL: Setting parameter alchLambda2 to 0.09999999999999969
Info: NONBONDED TABLE R-SQUARED SPACING: 0.0625
Info: NONBONDED TABLE SIZE: 705 POINTS
TCL: Running for 1500000 steps
ETITLE: TS BOND ANGLE DIHED IMPRP ELECT VDW BOUNDARY MISC KINETIC TOTAL TEMP POTENTIAL TOTALAVG TEMPAVG PRESSURE GPRESSURE VOLUME PRESSAVG GPRESSAVG
ENERGY: 0 12.8857 9.3301 7.3303 0.0000 -10508.4318 1350.9431 0.0000 0.0000 1785.1514 -7342.7913 304.5699 -9127.9427 -7342.7913 304.5699 -208.9302 -122.8671 30363.5543 -208.9302 -122.8671
ENERGY: 300000 3.8467 8.6172 14.5720 0.0000 -10601.9092 1463.3739 0.0000 0.0000 1782.8206 -7328.6787 304.1723 -9111.4994 -7391.3165 301.2687 588.6191 588.2449 30087.6341 29.9368 75.1206
ENERGY: 600000 5.7738 4.6992 6.9384 0.0000 -10632.2010 1453.1862 0.0000 0.0000 1666.7897 -7494.8137 284.3759 -9161.6034 -7391.9148 299.3114 15.0311 64.6629 30417.1292 -20.5277 27.5838
ENERGY: 900000 8.1487 6.0038 8.7039 0.0000 -10631.7081 1411.0312 0.0000 0.0000 1710.6800 -7487.1405 291.8642 -9197.8205 -7399.7757 298.8926 -642.7344 -596.6026 30562.6643 -11.5066 52.3468
ENERGY: 1200000 7.7368 7.1245 14.3669 0.0000 -10658.3952 1443.2721 0.0000 0.0000 1774.5684 -7411.3266 302.7643 -9185.8950 -7396.9406 299.3986 -164.8879 -95.5214 30773.1084 -59.5528 3.8137
ENERGY: 1500000 6.0319 4.7289 8.6318 0.0000 -10775.9627 1464.0728 0.0000 0.0000 1760.0077 -7532.4897 300.2801 -9292.4974 -7407.8502 299.4795 -226.1811 -160.0670 30138.9022 -82.2397 -22.9257
TCL: Running FEP window  19: Lambda1 0.09999999999999969 Lambda2 0.049999999999999684 [dLambda -0.05 ]
TCL: Setting parameter firsttimestep to 0
TCL: Setting parameter alchLambda to 0.09999999999999969
Info: NONBONDED TABLE R-SQUARED SPACING: 0.0625
Info: NONBONDED TABLE SIZE: 705 POINTS
TCL: Setting parameter alchLambda2 to 0.049999999999999684
Info: NONBONDED TABLE R-SQUARED SPACING: 0.0625
Info: NONBONDED TABLE SIZE: 705 POINTS
TCL: Running for 1500000 steps
ETITLE: TS BOND ANGLE DIHED IMPRP ELECT VDW BOUNDARY MISC KINETIC TOTAL TEMP POTENTIAL TOTALAVG TEMPAVG PRESSURE GPRESSURE VOLUME PRESSAVG GPRESSAVG
ENERGY: 0 6.0319 4.7289 8.6318 0.0000 -10775.9637 1461.6436 0.0000 0.0000 1759.1426 -7535.7850 300.1325 -9294.9276 -7535.7850 300.1325 -254.9973 -172.6500 30138.9022 -254.9973 -172.6500
ENERGY: 300000 7.9648 2.8900 14.2264 0.0000 -10463.9436 1331.3145 0.0000 0.0000 1818.7806 -7288.7673 310.3075 -9107.5479 -7393.2900 301.6022 -582.0861 -519.2929 29993.2252 -381.7665 -321.0047
ENERGY: 600000 5.5182 4.0691 11.3461 0.0000 -10654.1549 1450.3333 0.0000 0.0000 1782.5281 -7400.3601 304.1224 -9182.8882 -7395.6756 301.9383 122.1788 216.2602 30182.0927 -234.8083 -167.8859
ENERGY: 900000 5.9480 4.8131 7.8268 0.0000 -10568.2981 1349.8943 0.0000 0.0000 1760.1374 -7439.6786 300.3022 -9199.8160 -7392.8306 301.7235 -847.6839 -780.2109 30072.3359 -302.0546 -239.7624
ENERGY: 1200000 5.2118 4.9655 14.4163 0.0000 -10616.0646 1442.0356 0.0000 0.0000 1763.1744 -7386.2612 300.8204 -9149.4355 -7400.0317 301.3871 71.0457 186.4364 30226.9301 -199.7402 -132.1048
ENERGY: 1500000 6.5173 3.0738 8.9626 0.0000 -10580.5028 1447.0762 0.0000 0.0000 1774.3822 -7340.4906 302.7326 -9114.8728 -7392.9825 301.3105 -35.6742 38.0887 30886.5613 -122.8270 -54.9225
TCL: Running FEP window  20: Lambda1 0.049999999999999684 Lambda2 0.0    [dLambda -0.049999999999999684]
TCL: Setting parameter firsttimestep to 0
TCL: Setting parameter alchLambda to 0.049999999999999684
Info: NONBONDED TABLE R-SQUARED SPACING: 0.0625
Info: NONBONDED TABLE SIZE: 705 POINTS
TCL: Setting parameter alchLambda2 to 0.0
Info: NONBONDED TABLE R-SQUARED SPACING: 0.0625
Info: NONBONDED TABLE SIZE: 705 POINTS
TCL: Running for 1500000 steps
ETITLE: TS BOND ANGLE DIHED IMPRP ELECT VDW BOUNDARY MISC KINETIC TOTAL TEMP POTENTIAL TOTALAVG TEMPAVG PRESSURE GPRESSURE VOLUME PRESSAVG GPRESSAVG
ENERGY: 0 6.5173 3.0738 8.9626 0.0000 -10580.5043 1447.8618 0.0000 0.0000 1773.5193 -7340.5695 302.5853 -9114.0888 -7340.5695 302.5853 -51.9966 37.8784 30886.5613 -51.9966 37.8784
ENERGY: 300000 5.4971 5.7252 8.9897 0.0000 -10475.5567 1360.8274 0.0000 0.0000 1768.6275 -7325.8899 301.7508 -9094.5174 -7398.4298 301.2626 -480.6537 -437.5143 30272.0964 123.5192 176.5449
ENERGY: 600000 7.2106 8.0829 9.9162 0.0000 -10614.8790 1420.3850 0.0000 0.0000 1773.9558 -7395.3285 302.6598 -9169.2842 -7387.2243 302.9809 -476.9075 -365.6313 30405.5552 148.7539 208.3267
ENERGY: 900000 4.4091 4.8001 8.0121 0.0000 -10726.1357 1509.5839 0.0000 0.0000 1794.3782 -7404.9524 306.1441 -9199.3306 -7400.6652 302.2540 346.5183 433.9770 30326.6105 155.4459 220.1388
ENERGY: 1200000 3.2334 6.6446 12.9123 0.0000 -10628.7771 1407.5968 0.0000 0.0000 1721.8691 -7476.5209 293.7732 -9198.3900 -7411.5809 301.4462 -307.9280 -218.4552 29788.6487 29.9258 96.4801
ENERGY: 1500000 6.4868 10.0517 8.4674 0.0000 -10590.8778 1406.1452 0.0000 0.0000 1734.2932 -7425.4335 295.8929 -9159.7267 -7410.7539 300.5352 -123.7823 -35.5017 30048.8711 -75.0764 -9.5842
TCL: Exiting due to exit command.
