Info: SIMULATION PARAMETERS:
Info: TIMESTEP               2
Info: NUMBER OF STEPS        0
Info: STEPS PER CYCLE        10
Info: PERIODIC CELL BASIS 1  32.0432 0 0
Info: PERIODIC CELL BASIS 2  0 28.521 0
Info: PERIODIC CELL BASIS 3  0 0 33.0765
Info: PERIODIC CELL CENTER   0 0 0
Info: WRAPPING WATERS AROUND PERIODIC BOUNDARIES ON OUTPUT.
Info: WRAPPING ALL CLUSTERS AROUND PERIODIC BOUNDARIES ON OUTPUT.
Info: FIRST LDB TIMESTEP     50
Info: LAST LDB TIMESTEP     -1
Info: HOM BACKGROUND SCALING 1
Info: PME BACKGROUND SCALING 1
Info: MIN ATOMS PER PATCH    40
Info: EMPTY PATCH LOAD       40 ATOMS
Info: VELOCITY FILE          mobley_6688723_equil.vel
Info: CENTER OF MASS MOVING INITIALLY? NO
Info: DIELECTRIC             1
Info: EXCLUDE                SCALED ONE-FOUR
Info: 1-4 ELECTROSTATICS SCALED BY 0.833333
Info: MODIFIED 1-4 VDW PARAMETERS WILL BE USED
Info: DCD FILENAME           mobley_6688723_prod.dcd
Info: DCD FREQUENCY          100000
Info: DCD FIRST STEP         100000
Info: DCD FILE WILL CONTAIN UNIT CELL DATA
Info: XST FILENAME           mobley_6688723_prod.xst
Info: XST FREQUENCY          100000
Info: NO VELOCITY DCD OUTPUT
Info: NO FORCE DCD OUTPUT
Info: OUTPUT FILENAME        mobley_6688723_prod
Info: BINARY OUTPUT FILES WILL BE USED
Info: RESTART FILENAME       mobley_6688723_prod.restart
Info: RESTART FREQUENCY      100000
Info: BINARY RESTART FILES WILL BE USED
Info: CUTOFF                 9
Info: PAIRLIST DISTANCE      11
Info: PAIRLIST SHRINK RATE   0.01
Info: PAIRLIST GROW RATE     0.01
Info: PAIRLIST TRIGGER       0.3
Info: PAIRLISTS PER CYCLE    2
Info: PAIRLISTS ENABLED
Info: MARGIN                 2
Info: HYDROGEN GROUP CUTOFF  2.5
Info: PATCH DIMENSION        15.5
Info: ENERGY OUTPUT STEPS    100000
Info: ENERGY EVALUATION STEPS    100000
Info: OUTPUT ENERGY PRECISION 4
Info: CROSSTERM ENERGY INCLUDED IN DIHEDRAL
Info: TIMING OUTPUT STEPS    1000000
Info: PRESSURE OUTPUT STEPS  100000
Info: ALCHEMICAL FEP ON
Info: FEP CURRENT LAMBDA VALUE     1
Info: FEP COMPARISON LAMBDA VALUE  0.95
Info: FEP INTRA-ALCHEMICAL NON-BONDED INTERACTIONS WILL BE RETAINED
Info: FEP INTRA-ALCHEMICAL BONDED INTERACTIONS WILL BE RETAINED
Info: FEP VDW SHIFTING COEFFICIENT 5
Info: FEP ELEC. ACTIVE FOR ANNIHILATED PARTICLES BETWEEN LAMBDA = 0 AND LAMBDA = 0.5
Info: FEP ELEC. ACTIVE FOR EXNIHILATED PARTICLES BETWEEN LAMBDA = 0.5 AND LAMBDA = 1
Info: FEP VDW ACTIVE FOR ANNIHILATED PARTICLES BETWEEN LAMBDA = 0 AND LAMBDA = 1
Info: FEP VDW ACTIVE FOR EXNIHILATED PARTICLES BETWEEN LAMBDA = 0 AND LAMBDA = 1
Info: FEP BOND ACTIVE FOR ANNIHILATED PARTICLES BETWEEN LAMBDA = 1 AND LAMBDA = 1
Info: FEP BOND ACTIVE FOR EXNIHILATED PARTICLES BETWEEN LAMBDA = 0 AND LAMBDA = 0
Info: LANGEVIN DYNAMICS ACTIVE
Info: LANGEVIN TEMPERATURE   300
Info: LANGEVIN USING BBK INTEGRATOR
Info: LANGEVIN DAMPING COEFFICIENT IS 1 INVERSE PS
Info: LANGEVIN DYNAMICS APPLIED TO HYDROGENS
Info: LANGEVIN PISTON PRESSURE CONTROL ACTIVE
Info:        TARGET PRESSURE IS 1.01325 BAR
Info:     OSCILLATION PERIOD IS 50 FS
Info:             DECAY TIME IS 25 FS
Info:     PISTON TEMPERATURE IS 300 K
Info:       PRESSURE CONTROL IS GROUP-BASED
Info:    INITIAL STRAIN RATE IS -0.000628768 -0.000628768 -0.000628768
Info:       CELL FLUCTUATION IS ISOTROPIC
Info: PARTICLE MESH EWALD (PME) ACTIVE
Info: PME TOLERANCE               1e-06
Info: PME EWALD COEFFICIENT       0.348832
Info: PME INTERPOLATION ORDER     4
Info: PME GRID DIMENSIONS         36 32 36
Info: PME MAXIMUM GRID SPACING    1
Info: PME CALCULATION WILL BE PERFORMED ON GPU
Info: FULL ELECTROSTATIC EVALUATION FREQUENCY      2
Info: USING VERLET I (r-RESPA) MTS SCHEME.
Info: C1 SPLITTING OF LONG RANGE ELECTROSTATICS
Info: PLACING ATOMS IN PATCHES BY HYDROGEN GROUPS
Info: RIGID BONDS TO HYDROGEN : ALL
Info:         ERROR TOLERANCE : 1e-08
Info:          MAX ITERATIONS : 100
Info: RIGID WATER USING SETTLE ALGORITHM
Info: RANDOM NUMBER SEED     1743877003
Info: USE HYDROGEN BONDS?    NO
Info: Using AMBER format force field!
Info: AMBER PARM FILE        mobley_6688723.prmtop
Info: COORDINATE PDB         mobley_6688723.pdb
Info: Exclusions will be read from PARM file!
Info: SCNB (VDW SCALING)     2
Info: USING ARITHMETIC MEAN TO COMBINE L-J SIGMA PARAMETERS
Info: BINARY COORDINATES     mobley_6688723_equil.coor
Info: SUMMARY OF PARAMETERS:
Info: 10 BONDS
Info: 9 ANGLES
Info:   9 HARMONIC
Info:   0 COSINE-BASED
Info: 4 DIHEDRAL
Info: 0 IMPROPER
Info: 0 CROSSTERM
Info: 0 VDW
Info: 45 VDW_PAIRS
Info: 0 NBTHOLE_PAIRS
Info: To read alchdata from file: mobley_6688723.pdb
Info: To read alchflag data from column: 5
Info: STRUCTURE SUMMARY:
Info: 2943 ATOMS
Info: 2943 BONDS
Info: 33 ANGLES
Info: 42 DIHEDRALS
Info: 0 IMPROPERS
Info: 0 CROSSTERMS
Info: 3009 EXCLUSIONS
Info: 2930 RIGID BONDS
Info: ALCH: 0 ATOMS TO DISAPPEAR IN FINAL STATE
Info: ALCH: 21 ATOMS TO APPEAR IN FINAL STATE
Info: 5899 DEGREES OF FREEDOM
Info: 987 HYDROGEN GROUPS
Info: 4 ATOMS IN LARGEST HYDROGEN GROUP
Info: 987 MIGRATION GROUPS
Info: 4 ATOMS IN LARGEST MIGRATION GROUP
Info: TOTAL MASS = 17770.6 amu
Info: TOTAL CHARGE = -3.72529e-08 e
Info: MASS DENSITY = 0.976205 g/cm^3
Info: ATOM DENSITY = 0.0973575 atoms/A^3
Info: ADDED 0 IMPLICIT EXCLUSIONS
Info: NONBONDED TABLE R-SQUARED SPACING: 0.0625
Info: NONBONDED TABLE SIZE: 705 POINTS
Info: REMOVING COM VELOCITY -0.0592049 0.0747917 -0.059566
Info: Use 3D box decompostion in PME FFT.
Info: Updated CUDA force table with 4096 elements.
Info: Updated CUDA LJ table with 9 x 9 elements.
Info: Found 24 unique exclusion lists needing 64 bytes
TCL: Running for 1500000 steps
ETITLE: TS BOND ANGLE DIHED IMPRP ELECT VDW BOUNDARY MISC KINETIC TOTAL TEMP POTENTIAL TOTALAVG TEMPAVG PRESSURE GPRESSURE VOLUME PRESSAVG GPRESSAVG
ENERGY: 0 4.9107 9.6280 9.4582 0.0000 -10693.2711 1459.1069 0.0000 0.0000 1721.5630 -7488.6044 293.7209 -9210.1674 -7488.6044 293.7209 212.3388 291.7599 30228.8020 212.3388 291.7599
ENERGY: 300000 2.9340 5.9598 8.7014 0.0000 -10668.1670 1415.7383 0.0000 0.0000 1790.1600 -7444.6734 305.4245 -9234.8335 -7453.1317 299.8689 -241.5393 -187.2198 30296.6862 43.1877 105.5215
ENERGY: 600000 4.5864 3.2809 13.5704 0.0000 -10625.9297 1393.2977 0.0000 0.0000 1736.9005 -7474.2938 296.3377 -9211.1943 -7442.9169 300.3427 -277.0208 -224.2613 30241.0279 -132.2771 -76.4734
ENERGY: 900000 4.0623 8.9835 9.1563 0.0000 -10684.6126 1422.8181 0.0000 0.0000 1772.0251 -7467.5673 302.3304 -9239.5923 -7443.1566 299.5308 -41.1315 -11.8805 29943.3060 -6.7201 42.0953
ENERGY: 1200000 7.0815 11.7747 8.1216 0.0000 -10669.2631 1426.2572 0.0000 0.0000 1774.0004 -7442.0278 302.6674 -9216.0282 -7436.4588 300.8554 -93.4425 -29.9576 30183.4631 -58.2034 3.1247
ENERGY: 1500000 5.6765 6.4447 11.2497 0.0000 -10530.1980 1351.2802 0.0000 0.0000 1707.3628 -7448.1842 291.2982 -9155.5470 -7434.9083 300.4803 -451.7577 -456.5155 30615.5428 -103.9991 -44.2453
TCL: Running FEP window   2: Lambda1 0.95   Lambda2 0.8999999999999999 [dLambda -0.050000000000000044]
TCL: Setting parameter firsttimestep to 0
TCL: Setting parameter alchLambda to 0.95
Info: NONBONDED TABLE R-SQUARED SPACING: 0.0625
Info: NONBONDED TABLE SIZE: 705 POINTS
TCL: Setting parameter alchLambda2 to 0.8999999999999999
Info: NONBONDED TABLE R-SQUARED SPACING: 0.0625
Info: NONBONDED TABLE SIZE: 705 POINTS
TCL: Running for 1500000 steps
ETITLE: TS BOND ANGLE DIHED IMPRP ELECT VDW BOUNDARY MISC KINETIC TOTAL TEMP POTENTIAL TOTALAVG TEMPAVG PRESSURE GPRESSURE VOLUME PRESSAVG GPRESSAVG
ENERGY: 0 5.6765 6.4446 11.2497 0.0000 -10528.6584 1351.7112 0.0000 0.0000 1706.4914 -7447.0849 291.1495 -9153.5763 -7447.0849 291.1495 -538.8224 -464.0028 30615.5428 -538.8224 -464.0028
ENERGY: 300000 6.5287 8.4997 9.4908 0.0000 -10715.7591 1491.5024 0.0000 0.0000 1780.7444 -7418.9931 303.8180 -9199.7375 -7435.9621 298.0213 572.2179 610.5028 29844.3363 -77.3225 -46.0653
ENERGY: 600000 4.5178 5.1469 8.1989 0.0000 -10683.2205 1420.6520 0.0000 0.0000 1759.6863 -7485.0186 300.2253 -9244.7049 -7448.4871 298.2166 -28.9134 32.3860 30247.5035 -150.7067 -100.2764
ENERGY: 900000 6.6083 5.7500 8.6862 0.0000 -10586.0201 1422.6960 0.0000 0.0000 1751.8506 -7390.4290 298.8884 -9142.2796 -7436.6198 298.4169 89.6272 111.4416 30149.8116 -85.3647 -42.8051
ENERGY: 1200000 3.6222 7.8308 8.8453 0.0000 -10677.0502 1514.9363 0.0000 0.0000 1798.3803 -7343.4353 306.8270 -9141.8156 -7428.6545 298.5956 870.2145 917.7344 30262.9601 60.5603 104.5440
ENERGY: 1500000 1.9978 4.6013 11.6541 0.0000 -10591.9548 1421.9220 0.0000 0.0000 1769.0648 -7382.7149 301.8254 -9151.7797 -7428.4176 299.2165 107.5087 176.3590 30558.4394 83.1660 134.6025
TCL: Running FEP window   3: Lambda1 0.8999999999999999 Lambda2 0.8499999999999999 [dLambda -0.050000000000000044]
TCL: Setting parameter firsttimestep to 0
TCL: Setting parameter alchLambda to 0.8999999999999999
Info: NONBONDED TABLE R-SQUARED SPACING: 0.0625
Info: NONBONDED TABLE SIZE: 705 POINTS
TCL: Setting parameter alchLambda2 to 0.8499999999999999
Info: NONBONDED TABLE R-SQUARED SPACING: 0.0625
Info: NONBONDED TABLE SIZE: 705 POINTS
TCL: Running for 1500000 steps
ETITLE: TS BOND ANGLE DIHED IMPRP ELECT VDW BOUNDARY MISC KINETIC TOTAL TEMP POTENTIAL TOTALAVG TEMPAVG PRESSURE GPRESSURE VOLUME PRESSAVG GPRESSAVG
ENERGY: 0 1.9978 4.6013 11.6541 0.0000 -10590.1475 1421.6677 0.0000 0.0000 1768.1972 -7382.0294 301.6773 -9150.2266 -7382.0294 301.6773 84.5006 162.9382 30558.4394 84.5006 162.9382
ENERGY: 300000 3.7012 10.0198 9.1433 0.0000 -10596.9807 1399.5208 0.0000 0.0000 1792.8572 -7381.7384 305.8847 -9174.5956 -7389.8676 301.8910 -499.2957 -444.2405 30857.2373 -221.8402 -175.2687
ENERGY: 600000 4.2365 9.4779 8.1920 0.0000 -10722.1180 1459.0824 0.0000 0.0000 1740.6433 -7500.4859 296.9763 -9241.1292 -7420.8973 300.4092 280.7858 346.2012 29648.9728 12.6112 62.2946
ENERGY: 900000 3.3042 11.4894 8.3982 0.0000 -10585.1993 1377.1918 0.0000 0.0000 1730.3550 -7454.4606 295.2210 -9184.8156 -7429.4582 298.4831 -421.3346 -380.2845 30344.3630 39.7127 89.8419
ENERGY: 1200000 5.4938 11.0132 6.7451 0.0000 -10426.6342 1321.4682 0.0000 0.0000 1746.0761 -7335.8378 297.9032 -9081.9139 -7436.3819 297.9342 -822.4498 -769.5664 30824.3607 -75.7222 -26.3217
ENERGY: 1500000 5.0419 4.2211 9.9941 0.0000 -10539.3261 1346.6364 0.0000 0.0000 1762.4173 -7411.0153 300.6912 -9173.4325 -7440.6454 298.6091 -649.9435 -563.8100 30778.1653 -74.3101 -24.0447
TCL: Running FEP window   4: Lambda1 0.8499999999999999 Lambda2 0.7999999999999998 [dLambda -0.050000000000000044]
TCL: Setting parameter firsttimestep to 0
TCL: Setting parameter alchLambda to 0.8499999999999999
Info: NONBONDED TABLE R-SQUARED SPACING: 0.0625
Info: NONBONDED TABLE SIZE: 705 POINTS
TCL: Setting parameter alchLambda2 to 0.7999999999999998
Info: NONBONDED TABLE R-SQUARED SPACING: 0.0625
Info: NONBONDED TABLE SIZE: 705 POINTS
TCL: Running for 1500000 steps
ETITLE: TS BOND ANGLE DIHED IMPRP ELECT VDW BOUNDARY MISC KINETIC TOTAL TEMP POTENTIAL TOTALAVG TEMPAVG PRESSURE GPRESSURE VOLUME PRESSAVG GPRESSAVG
ENERGY: 0 5.0419 4.2211 9.9941 0.0000 -10536.6741 1345.6663 0.0000 0.0000 1761.5437 -7410.2069 300.5422 -9171.7506 -7410.2069 300.5422 -649.1920 -587.4785 30778.1653 -649.1920 -587.4785
ENERGY: 300000 4.2329 8.7676 9.3905 0.0000 -10427.7043 1327.0392 0.0000 0.0000 1773.8342 -7304.4399 302.6391 -9078.2741 -7395.1581 301.2537 -722.3370 -674.9326 31206.8563 -523.9975 -454.1483
ENERGY: 600000 2.3176 3.1741 11.0011 0.0000 -10638.1932 1428.4694 0.0000 0.0000 1850.8821 -7342.3488 315.7844 -9193.2309 -7417.8367 303.6022 178.9158 246.8750 30099.7650 -216.2452 -146.0508
ENERGY: 900000 2.3579 5.5911 10.7083 0.0000 -10605.9382 1366.6620 0.0000 0.0000 1725.6490 -7494.9700 294.4181 -9220.6189 -7439.6439 301.2388 -484.1987 -367.1505 30053.8484 -120.4890 -41.9351
ENERGY: 1200000 5.8664 12.3736 9.9731 0.0000 -10720.3711 1494.2782 0.0000 0.0000 1788.4563 -7409.4234 305.1338 -9197.8798 -7437.1119 301.9173 547.0880 579.2373 30124.4866 -4.0617 62.1663
ENERGY: 1500000 3.8494 5.9017 10.7608 0.0000 -10518.8071 1372.7558 0.0000 0.0000 1756.2907 -7369.2486 299.6459 -9125.5393 -7427.5857 301.0262 -310.6128 -255.3052 30453.3345 14.1031 85.7337
TCL: Running FEP window   5: Lambda1 0.7999999999999998 Lambda2 0.7499999999999998 [dLambda -0.050000000000000044]
TCL: Setting parameter firsttimestep to 0
TCL: Setting parameter alchLambda to 0.7999999999999998
Info: NONBONDED TABLE R-SQUARED SPACING: 0.0625
Info: NONBONDED TABLE SIZE: 705 POINTS
TCL: Setting parameter alchLambda2 to 0.7499999999999998
Info: NONBONDED TABLE R-SQUARED SPACING: 0.0625
Info: NONBONDED TABLE SIZE: 705 POINTS
TCL: Running for 1500000 steps
ETITLE: TS BOND ANGLE DIHED IMPRP ELECT VDW BOUNDARY MISC KINETIC TOTAL TEMP POTENTIAL TOTALAVG TEMPAVG PRESSURE GPRESSURE VOLUME PRESSAVG GPRESSAVG
ENERGY: 0 3.8494 5.9018 10.7608 0.0000 -10516.0145 1372.0096 0.0000 0.0000 1755.4183 -7368.0746 299.4971 -9123.4929 -7368.0746 299.4971 -353.8569 -270.8825 30453.3345 -353.8569 -270.8825
ENERGY: 300000 5.9314 4.9908 11.6405 0.0000 -10605.2478 1373.2096 0.0000 0.0000 1789.2022 -7420.2734 305.2611 -9209.4756 -7377.2091 303.9987 -387.0989 -332.5308 30119.6999 -485.5414 -427.0380
ENERGY: 600000 4.0086 5.2437 7.9676 0.0000 -10637.2731 1439.3188 0.0000 0.0000 1777.2036 -7403.5307 303.2139 -9180.7343 -7385.8062 302.0639 265.6454 359.0094 30212.6830 -269.1665 -202.6888
ENERGY: 900000 2.6155 8.4018 10.6992 0.0000 -10695.7018 1493.9432 0.0000 0.0000 1744.2092 -7435.8330 297.5847 -9180.0421 -7388.3639 300.8517 421.2405 445.1289 30586.2378 -198.1739 -140.9623
ENERGY: 1200000 2.9866 7.4966 9.9459 0.0000 -10777.1222 1518.8684 0.0000 0.0000 1724.1730 -7513.6517 294.1662 -9237.8247 -7401.4210 300.0851 872.8665 912.2622 29558.8079 -65.5443 -13.7933
ENERGY: 1500000 1.6828 5.6898 7.3331 0.0000 -10590.2578 1385.6833 0.0000 0.0000 1696.5057 -7493.3632 289.4458 -9189.8689 -7411.1547 299.6572 -284.2296 -265.5246 30319.3747 -101.8842 -49.4258
TCL: Running FEP window   6: Lambda1 0.7499999999999998 Lambda2 0.6999999999999997 [dLambda -0.050000000000000044]
TCL: Setting parameter firsttimestep to 0
TCL: Setting parameter alchLambda to 0.7499999999999998
Info: NONBONDED TABLE R-SQUARED SPACING: 0.0625
Info: NONBONDED TABLE SIZE: 705 POINTS
TCL: Setting parameter alchLambda2 to 0.6999999999999997
Info: NONBONDED TABLE R-SQUARED SPACING: 0.0625
Info: NONBONDED TABLE SIZE: 705 POINTS
TCL: Running for 1500000 steps
ETITLE: TS BOND ANGLE DIHED IMPRP ELECT VDW BOUNDARY MISC KINETIC TOTAL TEMP POTENTIAL TOTALAVG TEMPAVG PRESSURE GPRESSURE VOLUME PRESSAVG GPRESSAVG
ENERGY: 0 1.6828 5.6898 7.3331 0.0000 -10589.6796 1385.5608 0.0000 0.0000 1695.6153 -7493.7980 289.2939 -9189.4132 -7493.7980 289.2939 -347.9052 -280.6091 30319.3747 -347.9052 -280.6091
ENERGY: 300000 4.9225 12.4613 9.9042 0.0000 -10678.7506 1460.3270 0.0000 0.0000 1759.9117 -7431.2238 300.2637 -9191.1355 -7440.7203 297.9577 205.8298 276.4400 30302.6385 -127.0245 -59.9858
ENERGY: 600000 4.4942 10.9828 11.8077 0.0000 -10525.5026 1284.5708 0.0000 0.0000 1687.1700 -7526.4771 287.8531 -9213.6471 -7427.8449 298.4568 -1159.1950 -1161.1508 30336.0676 -207.4447 -158.6026
ENERGY: 900000 4.5975 7.4479 8.3553 0.0000 -10512.2448 1362.9479 0.0000 0.0000 1757.3959 -7371.5004 299.8345 -9128.8962 -7424.2206 299.5450 -389.5604 -365.3776 30407.1605 -0.9899 42.9268
ENERGY: 1200000 5.7813 10.0098 9.9580 0.0000 -10685.9087 1489.8677 0.0000 0.0000 1831.6990 -7338.5929 312.5116 -9170.2918 -7411.7223 300.6999 464.6714 541.6032 30197.0532 -35.1376 12.9077
ENERGY: 1500000 2.7182 6.0548 8.4888 0.0000 -10623.7150 1456.8087 0.0000 0.0000 1745.6869 -7403.9576 297.8368 -9149.6444 -7409.8670 300.3081 594.3745 617.1810 30104.7539 0.5756 48.1255
TCL: Running FEP window   7: Lambda1 0.6999999999999997 Lambda2 0.6499999999999997 [dLambda -0.050000000000000044]
TCL: Setting parameter firsttimestep to 0
TCL: Setting parameter alchLambda to 0.6999999999999997
Info: NONBONDED TABLE R-SQUARED SPACING: 0.0625
Info: NONBONDED TABLE SIZE: 705 POINTS
TCL: Setting parameter alchLambda2 to 0.6499999999999997
Info: NONBONDED TABLE R-SQUARED SPACING: 0.0625
Info: NONBONDED TABLE SIZE: 705 POINTS
TCL: Running for 1500000 steps
ETITLE: TS BOND ANGLE DIHED IMPRP ELECT VDW BOUNDARY MISC KINETIC TOTAL TEMP POTENTIAL TOTALAVG TEMPAVG PRESSURE GPRESSURE VOLUME PRESSAVG GPRESSAVG
ENERGY: 0 2.7182 6.0548 8.4888 0.0000 -10623.0288 1457.3633 0.0000 0.0000 1744.8227 -7403.5810 297.6893 -9148.4036 -7403.5810 297.6893 549.1328 613.8999 30104.7539 549.1328 613.8999
ENERGY: 300000 3.1381 9.5129 9.8996 0.0000 -10749.8710 1511.6810 0.0000 0.0000 1702.9027 -7512.7367 290.5372 -9215.6394 -7450.4536 295.9863 754.8509 762.2663 29961.5989 584.8671 630.5209
ENERGY: 600000 4.0497 7.0561 9.9603 0.0000 -10601.2294 1441.2152 0.0000 0.0000 1728.9831 -7409.9650 294.9869 -9138.9482 -7429.4874 296.8153 -28.5636 6.6332 30813.1914 409.2153 442.0389
ENERGY: 900000 2.7766 10.0927 6.9906 0.0000 -10641.3195 1413.6624 0.0000 0.0000 1756.0004 -7451.7969 299.5964 -9207.7972 -7430.0114 298.3809 -236.6317 -146.0366 30279.4697 138.2227 189.1122
ENERGY: 1200000 4.8309 7.9308 8.7328 0.0000 -10760.8075 1548.0335 0.0000 0.0000 1758.8962 -7432.3833 300.0905 -9191.2795 -7423.0710 299.4000 698.8888 741.6450 30766.0287 180.6991 226.5070
ENERGY: 1500000 5.5344 7.0539 13.3700 0.0000 -10624.2974 1402.0610 0.0000 0.0000 1734.2087 -7462.0693 295.8785 -9196.2780 -7424.4415 299.3148 -514.5508 -465.8352 30360.3957 172.1345 220.9318
TCL: Running FEP window   8: Lambda1 0.6499999999999997 Lambda2 0.5999999999999996 [dLambda -0.050000000000000044]
TCL: Setting parameter firsttimestep to 0
TCL: Setting parameter alchLambda to 0.6499999999999997
Info: NONBONDED TABLE R-SQUARED SPACING: 0.0625
Info: NONBONDED TABLE SIZE: 705 POINTS
TCL: Setting parameter alchLambda2 to 0.5999999999999996
Info: NONBONDED TABLE R-SQUARED SPACING: 0.0625
Info: NONBONDED TABLE SIZE: 705 POINTS
TCL: Running for 1500000 steps
ETITLE: TS BOND ANGLE DIHED IMPRP ELECT VDW BOUNDARY MISC KINETIC TOTAL TEMP POTENTIAL TOTALAVG TEMPAVG PRESSURE GPRESSURE VOLUME PRESSAVG GPRESSAVG
ENERGY: 0 5.5344 7.0539 13.3700 0.0000 -10622.7497 1401.9388 0.0000 0.0000 1733.3176 -7461.5349 295.7264 -9194.8525 -7461.5349 295.7264 -550.5313 -474.6576 30360.3957 -550.5313 -474.6576
ENERGY: 300000 11.3552 8.7029 9.7543 0.0000 -10464.9454 1282.4633 0.0000 0.0000 1729.9820 -7422.6876 295.1573 -9152.6696 -7401.7235 300.0146 -1276.3587 -1217.3230 30504.7445 -507.1689 -437.4538
ENERGY: 600000 4.8558 7.4074 8.6022 0.0000 -10592.0480 1396.6981 0.0000 0.0000 1757.0206 -7417.4639 299.7705 -9174.4845 -7419.9246 297.9512 -164.6647 -100.7437 30258.3300 -246.3206 -177.6310
ENERGY: 900000 5.8304 7.9863 8.6286 0.0000 -10472.9296 1283.4159 0.0000 0.0000 1818.8955 -7348.1729 310.3271 -9167.0684 -7423.0377 298.9173 -1102.1552 -1073.3559 30444.7483 -305.6197 -242.2427
ENERGY: 1200000 3.7115 10.8670 10.3675 0.0000 -10647.6030 1347.7882 0.0000 0.0000 1799.7186 -7475.1502 307.0553 -9274.8688 -7437.0947 298.4174 -606.6716 -579.8402 29897.9297 -278.6374 -229.9729
ENERGY: 1500000 4.5299 9.2559 8.4045 0.0000 -10693.9324 1534.1381 0.0000 0.0000 1768.7639 -7368.8402 301.7740 -9137.6041 -7430.4622 298.7809 1211.1880 1208.7284 30038.2068 -141.9567 -96.9449
TCL: Running FEP window   9: Lambda1 0.5999999999999996 Lambda2 0.5499999999999996 [dLambda -0.050000000000000044]
TCL: Setting parameter firsttimestep to 0
TCL: Setting parameter alchLambda to 0.5999999999999996
Info: NONBONDED TABLE R-SQUARED SPACING: 0.0625
Info: NONBONDED TABLE SIZE: 705 POINTS
TCL: Setting parameter alchLambda2 to 0.5499999999999996
Info: NONBONDED TABLE R-SQUARED SPACING: 0.0625
Info: NONBONDED TABLE SIZE: 705 POINTS
TCL: Running for 1500000 steps
ETITLE: TS BOND ANGLE DIHED IMPRP ELECT VDW BOUNDARY MISC KINETIC TOTAL TEMP POTENTIAL TOTALAVG TEMPAVG PRESSURE GPRESSURE VOLUME PRESSAVG GPRESSAVG
ENERGY: 0 4.5299 9.2559 8.4045 0.0000 -10693.0012 1534.6045 0.0000 0.0000 1767.8902 -7368.3162 301.6250 -9136.2064 -7368.3162 301.6250 1131.4035 1208.6334 30038.2068 1131.4035 1208.6334
ENERGY: 300000 6.6459 5.5840 12.6814 0.0000 -10582.2254 1424.5000 0.0000 0.0000 1752.9233 -7379.8907 299.0714 -9132.8140 -7382.0231 299.9066 -321.5184 -249.0095 30534.9563 -130.6963 -77.1726
ENERGY: 600000 2.9398 11.0075 9.2809 0.0000 -10677.4723 1486.9369 0.0000 0.0000 1756.2367 -7411.0705 299.6367 -9167.3072 -7391.1540 300.5773 474.8187 594.3481 30375.7539 -68.6901 -0.9451
ENERGY: 900000 1.8173 6.8690 8.1473 0.0000 -10570.7414 1388.2357 0.0000 0.0000 1802.7668 -7362.9052 307.5754 -9165.6720 -7407.8977 300.5631 -259.7094 -189.4245 30113.3733 -110.0383 -43.8095
ENERGY: 1200000 4.8759 7.3863 14.2779 0.0000 -10715.9457 1511.2408 0.0000 0.0000 1728.9555 -7449.2093 294.9822 -9178.1648 -7416.2343 299.9177 930.6936 964.5000 30063.8168 68.1596 126.2989
ENERGY: 1500000 4.9805 7.9925 9.1547 0.0000 -10560.9361 1433.2012 0.0000 0.0000 1811.7225 -7293.8848 309.1033 -9105.6072 -7410.6221 300.5235 38.3887 97.7215 30889.3589 84.9644 145.7923
TCL: Running FEP window  10: Lambda1 0.5499999999999996 Lambda2 0.4999999999999996 [dLambda -0.04999999999999999]
TCL: Setting parameter firsttimestep to 0
TCL: Setting parameter alchLambda to 0.5499999999999996
Info: NONBONDED TABLE R-SQUARED SPACING: 0.0625
Info: NONBONDED TABLE SIZE: 705 POINTS
TCL: Setting parameter alchLambda2 to 0.4999999999999996
Info: NONBONDED TABLE R-SQUARED SPACING: 0.0625
Info: NONBONDED TABLE SIZE: 705 POINTS
TCL: Running for 1500000 steps
ETITLE: TS BOND ANGLE DIHED IMPRP ELECT VDW BOUNDARY MISC KINETIC TOTAL TEMP POTENTIAL TOTALAVG TEMPAVG PRESSURE GPRESSURE VOLUME PRESSAVG GPRESSAVG
ENERGY: 0 4.9805 7.9925 9.1547 0.0000 -10559.7480 1433.7960 0.0000 0.0000 1810.8485 -7292.9758 308.9542 -9103.8243 -7292.9758 308.9542 14.3337 96.0240 30889.3589 14.3337 96.0240
ENERGY: 300000 2.3635 5.2031 10.1833 0.0000 -10642.0143 1424.5651 0.0000 0.0000 1829.5892 -7370.1101 312.1516 -9199.6993 -7364.3859 305.5544 -89.7601 -9.0170 30233.8849 97.7006 176.8238
ENERGY: 600000 4.4619 8.0419 9.8614 0.0000 -10488.6874 1392.8919 0.0000 0.0000 1819.5012 -7253.9291 310.4305 -9073.4303 -7356.0275 305.2368 -103.1366 -32.8939 30713.2362 25.2040 96.6854
ENERGY: 900000 5.9425 6.2104 13.8215 0.0000 -10711.0818 1480.9485 0.0000 0.0000 1731.9569 -7472.2020 295.4943 -9204.1589 -7371.0980 304.2090 425.5871 488.0045 30086.1072 22.3155 96.6756
ENERGY: 1200000 1.9927 10.1537 9.0061 0.0000 -10573.3966 1475.3969 0.0000 0.0000 1777.3465 -7299.5007 303.2383 -9076.8473 -7375.6059 302.5735 863.2033 874.9044 30028.5807 50.9156 120.8049
ENERGY: 1500000 3.6895 6.0326 9.2899 0.0000 -10723.5925 1471.1353 0.0000 0.0000 1713.1176 -7520.3275 292.2801 -9233.4451 -7384.8733 301.6822 381.4830 418.5265 30185.5711 128.2179 188.0281
TCL: Running FEP window  11: Lambda1 0.4999999999999996 Lambda2 0.4499999999999996 [dLambda -0.04999999999999999]
TCL: Setting parameter firsttimestep to 0
TCL: Setting parameter alchLambda to 0.4999999999999996
Info: NONBONDED TABLE R-SQUARED SPACING: 0.0625
Info: NONBONDED TABLE SIZE: 705 POINTS
TCL: Setting parameter alchLambda2 to 0.4499999999999996
Info: NONBONDED TABLE R-SQUARED SPACING: 0.0625
Info: NONBONDED TABLE SIZE: 705 POINTS
TCL: Running for 1500000 steps
ETITLE: TS BOND ANGLE DIHED IMPRP ELECT VDW BOUNDARY MISC KINETIC TOTAL TEMP POTENTIAL TOTALAVG TEMPAVG PRESSURE GPRESSURE VOLUME PRESSAVG GPRESSAVG
ENERGY: 0 3.6895 6.0326 9.2899 0.0000 -10723.0120 1471.2639 0.0000 0.0000 1712.2041 -7520.5320 292.1242 -9232.7361 -7520.5320 292.1242 317.6722 404.3256 30185.5711 317.6722 404.3256
ENERGY: 300000 3.5436 11.5181 10.0819 0.0000 -10696.6953 1449.0087 0.0000 0.0000 1738.4084 -7484.1346 296.5950 -9222.5430 -7485.8276 296.8343 -31.5730 29.3015 30154.6909 7.0961 54.7119
ENERGY: 600000 1.9575 8.0957 11.5409 0.0000 -10649.4959 1384.8049 0.0000 0.0000 1716.0922 -7527.0047 292.7876 -9243.0969 -7487.2116 296.6571 -658.5678 -522.1257 30418.1967 -130.9547 -79.1513
ENERGY: 900000 4.4288 6.4634 9.1016 0.0000 -10768.7188 1571.0909 0.0000 0.0000 1829.2968 -7348.3373 312.1017 -9177.6341 -7449.0086 299.3361 830.4695 933.3358 30452.0253 -103.5112 -43.7925
ENERGY: 1200000 4.9164 9.6504 9.6655 0.0000 -10821.6486 1534.9300 0.0000 0.0000 1742.4598 -7520.0265 297.2862 -9262.4863 -7437.1707 299.8145 631.6262 621.5252 29929.0824 63.4801 119.9954
ENERGY: 1500000 2.2593 7.9645 8.0720 0.0000 -10590.7697 1389.3786 0.0000 0.0000 1730.8077 -7452.2877 295.2982 -9183.0954 -7432.9861 300.1479 -390.7417 -404.6457 30435.3350 60.7748 107.2360
TCL: Running FEP window  12: Lambda1 0.4499999999999996 Lambda2 0.39999999999999963 [dLambda -0.04999999999999999]
TCL: Setting parameter firsttimestep to 0
TCL: Setting parameter alchLambda to 0.4499999999999996
Info: NONBONDED TABLE R-SQUARED SPACING: 0.0625
Info: NONBONDED TABLE SIZE: 705 POINTS
TCL: Setting parameter alchLambda2 to 0.39999999999999963
Info: NONBONDED TABLE R-SQUARED SPACING: 0.0625
Info: NONBONDED TABLE SIZE: 705 POINTS
TCL: Running for 1500000 steps
ETITLE: TS BOND ANGLE DIHED IMPRP ELECT VDW BOUNDARY MISC KINETIC TOTAL TEMP POTENTIAL TOTALAVG TEMPAVG PRESSURE GPRESSURE VOLUME PRESSAVG GPRESSAVG
ENERGY: 0 2.2593 7.9645 8.0720 0.0000 -10590.7688 1389.7082 0.0000 0.0000 1729.8613 -7452.9036 295.1367 -9182.7649 -7452.9036 295.1367 -484.7038 -411.1693 30435.3350 -484.7038 -411.1693
ENERGY: 300000 4.3923 7.6756 9.3027 0.0000 -10654.7756 1444.2439 0.0000 0.0000 1710.2825 -7478.8786 291.7963 -9189.1611 -7443.0209 297.6823 -27.6520 20.0516 30376.1344 -118.5186 -56.2605
ENERGY: 600000 5.4540 10.4728 8.7188 0.0000 -10705.2917 1432.9500 0.0000 0.0000 1752.1743 -7495.5219 298.9436 -9247.6961 -7449.9869 296.7644 -284.5848 -193.0480 30165.2808 -247.8090 -187.7700
ENERGY: 900000 7.1387 9.9666 10.7584 0.0000 -10698.0647 1387.8373 0.0000 0.0000 1788.2513 -7494.1124 305.0988 -9282.3637 -7441.4738 298.0366 -622.1026 -518.5082 29865.6112 -124.8111 -62.1180
ENERGY: 1200000 4.4136 5.6180 13.5170 0.0000 -10594.4841 1428.7998 0.0000 0.0000 1748.4034 -7393.7323 298.3003 -9142.1357 -7444.0295 297.7932 -83.7969 -38.4793 30336.1054 -178.3059 -118.6358
ENERGY: 1500000 7.3219 4.6151 9.7881 0.0000 -10752.1637 1503.8295 0.0000 0.0000 1723.4393 -7503.1698 294.0411 -9226.6090 -7441.2390 298.2854 339.4830 462.5498 29873.5770 -123.3207 -60.1902
TCL: Running FEP window  13: Lambda1 0.39999999999999963 Lambda2 0.34999999999999964 [dLambda -0.04999999999999999]
TCL: Setting parameter firsttimestep to 0
TCL: Setting parameter alchLambda to 0.39999999999999963
Info: NONBONDED TABLE R-SQUARED SPACING: 0.0625
Info: NONBONDED TABLE SIZE: 705 POINTS
TCL: Setting parameter alchLambda2 to 0.34999999999999964
Info: NONBONDED TABLE R-SQUARED SPACING: 0.0625
Info: NONBONDED TABLE SIZE: 705 POINTS
TCL: Running for 1500000 steps
ETITLE: TS BOND ANGLE DIHED IMPRP ELECT VDW BOUNDARY MISC KINETIC TOTAL TEMP POTENTIAL TOTALAVG TEMPAVG PRESSURE GPRESSURE VOLUME PRESSAVG GPRESSAVG
ENERGY: 0 7.3219 4.6151 9.7881 0.0000 -10752.1641 1503.7840 0.0000 0.0000 1722.5971 -7504.0578 293.8974 -9226.6550 -7504.0578 293.8974 378.0444 453.8017 29873.5770 378.0444 453.8017
ENERGY: 300000 4.8964 7.3675 10.6369 0.0000 -10579.2334 1417.4729 0.0000 0.0000 1772.7466 -7366.1131 302.4535 -9138.8597 -7423.7718 298.4904 -133.8861 -44.3583 30068.2837 81.6659 152.5945
ENERGY: 600000 3.3388 6.3667 10.1337 0.0000 -10602.7893 1459.2048 0.0000 0.0000 1713.9946 -7409.7508 292.4297 -9123.7454 -7410.6889 298.6103 292.3765 379.2835 30446.7234 26.3380 90.4631
ENERGY: 900000 2.6809 15.0399 6.2245 0.0000 -10554.8780 1365.9028 0.0000 0.0000 1795.3649 -7369.6650 306.3125 -9165.0299 -7400.3071 300.7652 -464.0397 -461.6869 30142.6656 -107.2327 -47.6923
ENERGY: 1200000 5.1950 7.2292 15.3369 0.0000 -10842.1711 1512.2841 0.0000 0.0000 1785.9796 -7516.1462 304.7113 -9302.1258 -7413.6933 301.3066 402.9817 434.7736 29964.4989 -57.5869 -8.2213
ENERGY: 1500000 2.0353 4.8707 9.1031 0.0000 -10640.5337 1400.1778 0.0000 0.0000 1748.3391 -7476.0077 298.2893 -9224.3468 -7423.5409 300.7727 -155.8505 -172.3861 29972.2883 -22.5792 26.8685
TCL: Running FEP window  14: Lambda1 0.34999999999999964 Lambda2 0.29999999999999966 [dLambda -0.04999999999999999]
TCL: Setting parameter firsttimestep to 0
TCL: Setting parameter alchLambda to 0.34999999999999964
Info: NONBONDED TABLE R-SQUARED SPACING: 0.0625
Info: NONBONDED TABLE SIZE: 705 POINTS
TCL: Setting parameter alchLambda2 to 0.29999999999999966
Info: NONBONDED TABLE R-SQUARED SPACING: 0.0625
Info: NONBONDED TABLE SIZE: 705 POINTS
TCL: Running for 1500000 steps
ETITLE: TS BOND ANGLE DIHED IMPRP ELECT VDW BOUNDARY MISC KINETIC TOTAL TEMP POTENTIAL TOTALAVG TEMPAVG PRESSURE GPRESSURE VOLUME PRESSAVG GPRESSAVG
ENERGY: 0 2.0353 4.8707 9.1031 0.0000 -10640.5332 1400.2772 0.0000 0.0000 1747.4602 -7476.7867 298.1393 -9224.2469 -7476.7867 298.1393 -269.2504 -181.3821 29972.2883 -269.2504 -181.3821
ENERGY: 300000 5.7643 8.3543 10.4040 0.0000 -10683.3022 1420.1955 0.0000 0.0000 1712.2520 -7526.3320 292.1324 -9238.5840 -7413.3870 302.8364 22.8510 14.0146 29925.7676 -242.2601 -193.4225
ENERGY: 600000 2.0313 5.4155 8.4465 0.0000 -10516.1989 1348.8169 0.0000 0.0000 1754.3151 -7397.1735 299.3089 -9151.4886 -7419.9602 301.6258 -922.5021 -909.1343 31206.2750 -257.7754 -215.2250
ENERGY: 900000 5.2700 8.6086 10.3854 0.0000 -10706.4449 1455.5791 0.0000 0.0000 1716.9494 -7509.6523 292.9338 -9226.6018 -7432.1159 298.7385 -266.2129 -162.0231 30388.6130 -342.4551 -296.5029
ENERGY: 1200000 4.1377 5.7326 8.6702 0.0000 -10594.9352 1358.6981 0.0000 0.0000 1768.4011 -7449.2955 301.7121 -9217.6966 -7432.9704 298.0256 -670.7137 -612.6971 29805.8025 -253.0710 -209.0465
ENERGY: 1500000 2.6585 11.9532 8.6162 0.0000 -10689.4661 1450.5940 0.0000 0.0000 1738.9064 -7476.7377 296.6800 -9215.6441 -7431.4142 298.0709 -1.0190 -10.9784 30247.9632 -197.2560 -155.0035
TCL: Running FEP window  15: Lambda1 0.29999999999999966 Lambda2 0.24999999999999967 [dLambda -0.04999999999999999]
TCL: Setting parameter firsttimestep to 0
TCL: Setting parameter alchLambda to 0.29999999999999966
Info: NONBONDED TABLE R-SQUARED SPACING: 0.0625
Info: NONBONDED TABLE SIZE: 705 POINTS
TCL: Setting parameter alchLambda2 to 0.24999999999999967
Info: NONBONDED TABLE R-SQUARED SPACING: 0.0625
Info: NONBONDED TABLE SIZE: 705 POINTS
TCL: Running for 1500000 steps
ETITLE: TS BOND ANGLE DIHED IMPRP ELECT VDW BOUNDARY MISC KINETIC TOTAL TEMP POTENTIAL TOTALAVG TEMPAVG PRESSURE GPRESSURE VOLUME PRESSAVG GPRESSAVG
ENERGY: 0 2.6585 11.9532 8.6162 0.0000 -10689.4668 1451.0792 0.0000 0.0000 1738.0139 -7477.1458 296.5277 -9215.1596 -7477.1458 296.5277 -93.2710 -13.8473 30247.9632 -93.2710 -13.8473
ENERGY: 300000 7.2133 7.0339 12.5271 0.0000 -10632.0124 1428.7176 0.0000 0.0000 1816.2421 -7360.2785 309.8744 -9176.5205 -7438.0331 300.4566 -89.5904 -21.3508 30037.4142 -194.0880 -97.3936
ENERGY: 600000 2.9236 4.3062 11.7489 0.0000 -10503.1730 1384.9987 0.0000 0.0000 1766.6291 -7332.5665 301.4098 -9099.1956 -7415.6146 300.6260 -144.1617 -122.3674 30304.0130 -100.5025 -15.5422
ENERGY: 900000 3.7381 9.8554 8.9704 0.0000 -10687.9941 1514.3082 0.0000 0.0000 1734.4618 -7416.6602 295.9216 -9151.1219 -7413.5761 300.3563 660.8285 732.1936 30321.2056 -55.3905 25.9889
ENERGY: 1200000 2.8901 5.8764 12.0387 0.0000 -10641.2265 1495.9177 0.0000 0.0000 1780.5428 -7343.9609 303.7837 -9124.5037 -7390.9654 301.6108 659.4778 697.0604 30038.5135 -40.8157 35.4277
ENERGY: 1500000 5.6548 7.8265 11.5689 0.0000 -10540.1606 1317.2518 0.0000 0.0000 1758.4629 -7439.3956 300.0165 -9197.8586 -7401.1089 301.3889 -1250.5345 -1184.6640 30501.7052 -103.1234 -29.0198
TCL: Running FEP window  16: Lambda1 0.24999999999999967 Lambda2 0.19999999999999968 [dLambda -0.04999999999999999]
TCL: Setting parameter firsttimestep to 0
TCL: Setting parameter alchLambda to 0.24999999999999967
Info: NONBONDED TABLE R-SQUARED SPACING: 0.0625
Info: NONBONDED TABLE SIZE: 705 POINTS
TCL: Setting parameter alchLambda2 to 0.19999999999999968
Info: NONBONDED TABLE R-SQUARED SPACING: 0.0625
Info: NONBONDED TABLE SIZE: 705 POINTS
TCL: Running for 1500000 steps
ETITLE: TS BOND ANGLE DIHED IMPRP ELECT VDW BOUNDARY MISC KINETIC TOTAL TEMP POTENTIAL TOTALAVG TEMPAVG PRESSURE GPRESSURE VOLUME PRESSAVG GPRESSAVG
ENERGY: 0 5.6548 7.8265 11.5689 0.0000 -10540.1609 1317.4677 0.0000 0.0000 1757.5671 -7440.0758 299.8637 -9197.6429 -7440.0758 299.8637 -1275.0752 -1189.2891 30501.7052 -1275.0752 -1189.2891
ENERGY: 300000 3.2602 7.4114 7.7607 0.0000 -10411.7329 1360.9814 0.0000 0.0000 1752.9842 -7279.3350 299.0818 -9032.3192 -7401.9513 300.1518 -96.4119 34.3762 29959.1768 -435.5353 -357.6433
ENERGY: 600000 3.7956 7.6984 7.8843 0.0000 -10539.0910 1315.6149 0.0000 0.0000 1760.9057 -7443.1921 300.4333 -9204.0978 -7412.9795 298.8127 -856.7896 -749.4136 30169.4252 -406.4206 -327.9868
ENERGY: 900000 2.0008 8.7830 7.5981 0.0000 -10700.8957 1489.9075 0.0000 0.0000 1740.3823 -7452.2240 296.9317 -9192.6062 -7411.1615 300.0325 170.0116 232.1854 30867.5484 -298.6313 -225.8346
ENERGY: 1200000 3.7343 7.6759 9.2327 0.0000 -10706.5816 1474.7694 0.0000 0.0000 1739.3713 -7471.7981 296.7593 -9211.1693 -7410.7731 300.4009 197.6841 223.7002 30307.8872 -285.0773 -219.1906
ENERGY: 1500000 4.8262 6.5995 10.4280 0.0000 -10724.8012 1502.4032 0.0000 0.0000 1731.1486 -7469.3958 295.3564 -9200.5444 -7409.1866 300.7422 520.3414 612.4690 29803.0246 -242.6028 -181.3707
TCL: Running FEP window  17: Lambda1 0.19999999999999968 Lambda2 0.1499999999999997 [dLambda -0.04999999999999999]
TCL: Setting parameter firsttimestep to 0
TCL: Setting parameter alchLambda to 0.19999999999999968
Info: NONBONDED TABLE R-SQUARED SPACING: 0.0625
Info: NONBONDED TABLE SIZE: 705 POINTS
TCL: Setting parameter alchLambda2 to 0.1499999999999997
Info: NONBONDED TABLE R-SQUARED SPACING: 0.0625
Info: NONBONDED TABLE SIZE: 705 POINTS
TCL: Running for 1500000 steps
ETITLE: TS BOND ANGLE DIHED IMPRP ELECT VDW BOUNDARY MISC KINETIC TOTAL TEMP POTENTIAL TOTALAVG TEMPAVG PRESSURE GPRESSURE VOLUME PRESSAVG GPRESSAVG
ENERGY: 0 4.8262 6.5995 10.4280 0.0000 -10724.8002 1502.5259 0.0000 0.0000 1730.2984 -7470.1222 295.2113 -9200.4206 -7470.1222 295.2113 528.7406 607.9094 29803.0246 528.7406 607.9094
ENERGY: 300000 5.7726 10.3490 9.9689 0.0000 -10717.8264 1463.4718 0.0000 0.0000 1705.0650 -7523.1992 290.9062 -9228.2641 -7465.9130 294.0769 217.4388 296.3899 29833.6721 9.0310 72.0668
ENERGY: 600000 3.8933 5.2226 9.6392 0.0000 -10738.6478 1529.1979 0.0000 0.0000 1774.1360 -7416.5587 302.6906 -9190.6947 -7453.7523 298.5294 847.8954 830.3421 29841.0151 12.4625 64.1588
ENERGY: 900000 6.5340 8.3529 9.3348 0.0000 -10669.7434 1482.0569 0.0000 0.0000 1782.8437 -7380.6210 304.1762 -9163.4647 -7431.6541 298.6205 215.2136 259.8174 30184.5130 31.9404 88.5007
ENERGY: 1200000 7.0700 9.3033 11.2183 0.0000 -10669.4342 1419.1965 0.0000 0.0000 1793.9126 -7428.7336 306.0647 -9222.6462 -7415.2219 299.8933 -360.5361 -335.6961 30253.4770 53.5118 112.6754
ENERGY: 1500000 1.1197 6.3382 16.1408 0.0000 -10759.2557 1589.0805 0.0000 0.0000 1752.2083 -7394.3683 298.9494 -9146.5766 -7406.3271 300.5016 1190.7113 1285.0004 30221.7121 111.8325 169.2094
TCL: Running FEP window  18: Lambda1 0.1499999999999997 Lambda2 0.09999999999999969 [dLambda -0.05 ]
TCL: Setting parameter firsttimestep to 0
TCL: Setting parameter alchLambda to 0.1499999999999997
Info: NONBONDED TABLE R-SQUARED SPACING: 0.0625
Info: NONBONDED TABLE SIZE: 705 POINTS
TCL: Setting parameter alchLambda2 to 0.09999999999999969
Info: NONBONDED TABLE R-SQUARED SPACING: 0.0625
Info: NONBONDED TABLE SIZE: 705 POINTS
TCL: Running for 1500000 steps
ETITLE: TS BOND ANGLE DIHED IMPRP ELECT VDW BOUNDARY MISC KINETIC TOTAL TEMP POTENTIAL TOTALAVG TEMPAVG PRESSURE GPRESSURE VOLUME PRESSAVG GPRESSAVG
ENERGY: 0 1.1197 6.3382 16.1408 0.0000 -10759.2576 1588.3624 0.0000 0.0000 1751.3590 -7395.9377 298.8045 -9147.2967 -7395.9377 298.8045 1196.1544 1276.0073 30221.7121 1196.1544 1276.0073
ENERGY: 300000 5.7102 7.0056 8.1733 0.0000 -10581.3486 1431.9489 0.0000 0.0000 1801.4177 -7327.0930 307.3452 -9128.5107 -7389.1286 300.4274 -82.1650 -5.1833 30338.0875 270.4528 339.0024
ENERGY: 600000 4.4741 7.7531 8.4465 0.0000 -10734.9901 1558.3397 0.0000 0.0000 1738.9088 -7417.0678 296.6804 -9155.9767 -7397.9156 301.6197 763.3285 845.4669 30372.3924 338.0161 403.2544
ENERGY: 900000 5.1813 11.6626 9.6268 0.0000 -10546.9863 1419.8326 0.0000 0.0000 1789.8363 -7310.8468 305.3693 -9100.6831 -7396.5616 300.1990 8.1157 124.0166 30288.5128 193.9641 270.6077
ENERGY: 1200000 3.8054 3.8443 9.9319 0.0000 -10663.1293 1422.8267 0.0000 0.0000 1725.7975 -7496.9235 294.4434 -9222.7210 -7415.2046 299.1927 -464.7185 -425.5646 30545.8186 75.4101 144.9174
ENERGY: 1500000 6.3610 6.9878 8.4220 0.0000 -10707.7305 1525.2931 0.0000 0.0000 1750.9905 -7409.6760 298.7417 -9160.6666 -7418.4213 299.3238 641.4417 707.4809 30094.5335 70.0094 130.5898
TCL: Running FEP window  19: Lambda1 0.09999999999999969 Lambda2 0.049999999999999684 [dLambda -0.05 ]
TCL: Setting parameter firsttimestep to 0
TCL: Setting parameter alchLambda to 0.09999999999999969
Info: NONBONDED TABLE R-SQUARED SPACING: 0.0625
Info: NONBONDED TABLE SIZE: 705 POINTS
TCL: Setting parameter alchLambda2 to 0.049999999999999684
Info: NONBONDED TABLE R-SQUARED SPACING: 0.0625
Info: NONBONDED TABLE SIZE: 705 POINTS
TCL: Running for 1500000 steps
ETITLE: TS BOND ANGLE DIHED IMPRP ELECT VDW BOUNDARY MISC KINETIC TOTAL TEMP POTENTIAL TOTALAVG TEMPAVG PRESSURE GPRESSURE VOLUME PRESSAVG GPRESSAVG
ENERGY: 0 6.3610 6.9878 8.4220 0.0000 -10707.7298 1524.9489 0.0000 0.0000 1750.0665 -7410.9435 298.5840 -9161.0101 -7410.9435 298.5840 608.7807 701.1461 30094.5335 608.7807 701.1461
ENERGY: 300000 3.4549 8.7595 9.4725 0.0000 -10718.4539 1474.2971 0.0000 0.0000 1768.6453 -7453.8245 301.7538 -9222.4699 -7426.5791 299.6727 274.5631 345.6347 30210.2386 -137.4431 -76.9024
ENERGY: 600000 5.0504 4.4878 9.7772 0.0000 -10620.8886 1455.7336 0.0000 0.0000 1679.5882 -7466.2514 286.5595 -9145.8396 -7430.2419 298.1676 42.7994 124.6715 29964.2762 11.5966 85.1113
ENERGY: 900000 4.9150 8.4375 7.2086 0.0000 -10594.5431 1417.4665 0.0000 0.0000 1759.2606 -7397.2549 300.1526 -9156.5155 -7415.0661 301.3359 -372.1523 -328.4957 30551.7699 -103.4311 -32.6481
ENERGY: 1200000 4.3354 9.9243 8.6745 0.0000 -10513.4557 1341.5991 0.0000 0.0000 1800.1273 -7348.7952 307.1250 -9148.9225 -7407.6077 301.8581 -628.8205 -576.3079 30008.4209 -73.2402 -5.1527
ENERGY: 1500000 4.0268 5.7219 8.8342 0.0000 -10746.8956 1510.6507 0.0000 0.0000 1742.5460 -7475.1161 297.3009 -9217.6621 -7416.6655 300.8186 316.7265 334.0939 30445.7306 -87.3908 -16.9520
TCL: Running FEP window  20: Lambda1 0.049999999999999684 Lambda2 0.0    [dLambda -0.049999999999999684]
TCL: Setting parameter firsttimestep to 0
TCL: Setting parameter alchLambda to 0.049999999999999684
Info: NONBONDED TABLE R-SQUARED SPACING: 0.0625
Info: NONBONDED TABLE SIZE: 705 POINTS
TCL: Setting parameter alchLambda2 to 0.0
Info: NONBONDED TABLE R-SQUARED SPACING: 0.0625
Info: NONBONDED TABLE SIZE: 705 POINTS
TCL: Running for 1500000 steps
ETITLE: TS BOND ANGLE DIHED IMPRP ELECT VDW BOUNDARY MISC KINETIC TOTAL TEMP POTENTIAL TOTALAVG TEMPAVG PRESSURE GPRESSURE VOLUME PRESSAVG GPRESSAVG
ENERGY: 0 4.0268 5.7219 8.8342 0.0000 -10746.8957 1510.9609 0.0000 0.0000 1741.6653 -7475.6867 297.1507 -9217.3520 -7475.6867 297.1507 264.3605 328.6837 30445.7306 264.3605 328.6837
ENERGY: 300000 4.2627 5.2849 10.8748 0.0000 -10721.3713 1536.6704 0.0000 0.0000 1764.6193 -7399.6591 301.0669 -9164.2784 -7407.2650 303.0618 445.3567 539.1785 30511.8672 197.8398 268.6118
ENERGY: 600000 4.6901 6.6181 6.3003 0.0000 -10512.7496 1413.3699 0.0000 0.0000 1768.6556 -7313.1157 301.7555 -9081.7713 -7377.4087 301.8852 -59.0436 -28.9343 30561.0570 122.1623 175.6206
ENERGY: 900000 4.2785 10.3193 9.3594 0.0000 -10696.5175 1486.0301 0.0000 0.0000 1746.8621 -7439.6681 298.0373 -9186.5301 -7390.9408 300.4168 -24.7070 15.4336 30568.4922 94.0599 158.9841
ENERGY: 1200000 5.2832 10.0415 10.6190 0.0000 -10541.4679 1363.1536 0.0000 0.0000 1788.0292 -7364.3414 305.0609 -9152.3706 -7389.3979 300.5983 -672.5022 -586.0304 29861.6018 -43.3140 18.6772
ENERGY: 1500000 4.4217 7.8397 6.2972 0.0000 -10673.4564 1456.4392 0.0000 0.0000 1720.3205 -7478.1380 293.5089 -9198.4585 -7405.6393 300.1683 -271.0052 -169.4567 30402.8509 -53.5771 7.9798
TCL: Exiting due to exit command.
