Info: SIMULATION PARAMETERS:
Info: TIMESTEP               2
Info: NUMBER OF STEPS        0
Info: STEPS PER CYCLE        10
Info: PERIODIC CELL BASIS 1  30.9864 0 0
Info: PERIODIC CELL BASIS 2  0 31.3628 0
Info: PERIODIC CELL BASIS 3  0 0 32.0607
Info: PERIODIC CELL CENTER   0 0 0
Info: WRAPPING WATERS AROUND PERIODIC BOUNDARIES ON OUTPUT.
Info: WRAPPING ALL CLUSTERS AROUND PERIODIC BOUNDARIES ON OUTPUT.
Info: FIRST LDB TIMESTEP     50
Info: LAST LDB TIMESTEP     -1
Info: HOM BACKGROUND SCALING 1
Info: PME BACKGROUND SCALING 1
Info: MIN ATOMS PER PATCH    40
Info: EMPTY PATCH LOAD       40 ATOMS
Info: VELOCITY FILE          mobley_2245668_equil.vel
Info: CENTER OF MASS MOVING INITIALLY? NO
Info: DIELECTRIC             1
Info: EXCLUDE                SCALED ONE-FOUR
Info: 1-4 ELECTROSTATICS SCALED BY 0.833333
Info: MODIFIED 1-4 VDW PARAMETERS WILL BE USED
Info: DCD FILENAME           mobley_2245668_prod.dcd
Info: DCD FREQUENCY          100000
Info: DCD FIRST STEP         100000
Info: DCD FILE WILL CONTAIN UNIT CELL DATA
Info: XST FILENAME           mobley_2245668_prod.xst
Info: XST FREQUENCY          100000
Info: NO VELOCITY DCD OUTPUT
Info: NO FORCE DCD OUTPUT
Info: OUTPUT FILENAME        mobley_2245668_prod
Info: BINARY OUTPUT FILES WILL BE USED
Info: RESTART FILENAME       mobley_2245668_prod.restart
Info: RESTART FREQUENCY      100000
Info: BINARY RESTART FILES WILL BE USED
Info: CUTOFF                 9
Info: PAIRLIST DISTANCE      11
Info: PAIRLIST SHRINK RATE   0.01
Info: PAIRLIST GROW RATE     0.01
Info: PAIRLIST TRIGGER       0.3
Info: PAIRLISTS PER CYCLE    2
Info: PAIRLISTS ENABLED
Info: MARGIN                 2
Info: HYDROGEN GROUP CUTOFF  2.5
Info: PATCH DIMENSION        15.5
Info: ENERGY OUTPUT STEPS    100000
Info: ENERGY EVALUATION STEPS    100000
Info: OUTPUT ENERGY PRECISION 4
Info: CROSSTERM ENERGY INCLUDED IN DIHEDRAL
Info: TIMING OUTPUT STEPS    1000000
Info: PRESSURE OUTPUT STEPS  100000
Info: ALCHEMICAL FEP ON
Info: FEP CURRENT LAMBDA VALUE     0
Info: FEP COMPARISON LAMBDA VALUE  0.05
Info: FEP INTRA-ALCHEMICAL NON-BONDED INTERACTIONS WILL BE RETAINED
Info: FEP INTRA-ALCHEMICAL BONDED INTERACTIONS WILL BE RETAINED
Info: FEP VDW SHIFTING COEFFICIENT 5
Info: FEP ELEC. ACTIVE FOR ANNIHILATED PARTICLES BETWEEN LAMBDA = 0 AND LAMBDA = 0.5
Info: FEP ELEC. ACTIVE FOR EXNIHILATED PARTICLES BETWEEN LAMBDA = 0.5 AND LAMBDA = 1
Info: FEP VDW ACTIVE FOR ANNIHILATED PARTICLES BETWEEN LAMBDA = 0 AND LAMBDA = 1
Info: FEP VDW ACTIVE FOR EXNIHILATED PARTICLES BETWEEN LAMBDA = 0 AND LAMBDA = 1
Info: FEP BOND ACTIVE FOR ANNIHILATED PARTICLES BETWEEN LAMBDA = 1 AND LAMBDA = 1
Info: FEP BOND ACTIVE FOR EXNIHILATED PARTICLES BETWEEN LAMBDA = 0 AND LAMBDA = 0
Info: LANGEVIN DYNAMICS ACTIVE
Info: LANGEVIN TEMPERATURE   300
Info: LANGEVIN USING BBK INTEGRATOR
Info: LANGEVIN DAMPING COEFFICIENT IS 1 INVERSE PS
Info: LANGEVIN DYNAMICS APPLIED TO HYDROGENS
Info: LANGEVIN PISTON PRESSURE CONTROL ACTIVE
Info:        TARGET PRESSURE IS 1.01325 BAR
Info:     OSCILLATION PERIOD IS 50 FS
Info:             DECAY TIME IS 25 FS
Info:     PISTON TEMPERATURE IS 300 K
Info:       PRESSURE CONTROL IS GROUP-BASED
Info:    INITIAL STRAIN RATE IS -0.000285186 -0.000285186 -0.000285186
Info:       CELL FLUCTUATION IS ISOTROPIC
Info: PARTICLE MESH EWALD (PME) ACTIVE
Info: PME TOLERANCE               1e-06
Info: PME EWALD COEFFICIENT       0.348832
Info: PME INTERPOLATION ORDER     4
Info: PME GRID DIMENSIONS         32 32 36
Info: PME MAXIMUM GRID SPACING    1
Info: PME CALCULATION WILL BE PERFORMED ON GPU
Info: FULL ELECTROSTATIC EVALUATION FREQUENCY      2
Info: USING VERLET I (r-RESPA) MTS SCHEME.
Info: C1 SPLITTING OF LONG RANGE ELECTROSTATICS
Info: PLACING ATOMS IN PATCHES BY HYDROGEN GROUPS
Info: RIGID BONDS TO HYDROGEN : ALL
Info:         ERROR TOLERANCE : 1e-08
Info:          MAX ITERATIONS : 100
Info: RIGID WATER USING SETTLE ALGORITHM
Info: RANDOM NUMBER SEED     1743743463
Info: USE HYDROGEN BONDS?    NO
Info: Using AMBER format force field!
Info: AMBER PARM FILE        mobley_2245668.prmtop
Info: COORDINATE PDB         mobley_2245668.pdb
Info: Exclusions will be read from PARM file!
Info: SCNB (VDW SCALING)     2
Info: USING ARITHMETIC MEAN TO COMBINE L-J SIGMA PARAMETERS
Info: BINARY COORDINATES     mobley_2245668_equil.coor
Info: SUMMARY OF PARAMETERS:
Info: 7 BONDS
Info: 8 ANGLES
Info:   8 HARMONIC
Info:   0 COSINE-BASED
Info: 6 DIHEDRAL
Info: 0 IMPROPER
Info: 0 CROSSTERM
Info: 0 VDW
Info: 21 VDW_PAIRS
Info: 0 NBTHOLE_PAIRS
Info: To read alchdata from file: mobley_2245668.pdb
Info: To read alchflag data from column: 5
Info: STRUCTURE SUMMARY:
Info: 3000 ATOMS
Info: 2999 BONDS
Info: 25 ANGLES
Info: 32 DIHEDRALS
Info: 0 IMPROPERS
Info: 0 CROSSTERMS
Info: 3054 EXCLUSIONS
Info: 2995 RIGID BONDS
Info: ALCH: 0 ATOMS TO DISAPPEAR IN FINAL STATE
Info: ALCH: 15 ATOMS TO APPEAR IN FINAL STATE
Info: 6005 DEGREES OF FREEDOM
Info: 1000 HYDROGEN GROUPS
Info: 4 ATOMS IN LARGEST HYDROGEN GROUP
Info: 1000 MIGRATION GROUPS
Info: 4 ATOMS IN LARGEST MIGRATION GROUP
Info: TOTAL MASS = 18000 amu
Info: TOTAL CHARGE = 2.98023e-08 e
Info: MASS DENSITY = 0.95934 g/cm^3
Info: ATOM DENSITY = 0.0962856 atoms/A^3
Info: ADDED 0 IMPLICIT EXCLUSIONS
Info: NONBONDED TABLE R-SQUARED SPACING: 0.0625
Info: NONBONDED TABLE SIZE: 705 POINTS
Info: REMOVING COM VELOCITY -0.0709647 0.028458 -0.0879417
Info: Use 3D box decompostion in PME FFT.
Info: Updated CUDA force table with 4096 elements.
Info: Updated CUDA LJ table with 6 x 6 elements.
Info: Found 18 unique exclusion lists needing 40 bytes
TCL: Running for 1500000 steps
ETITLE: TS BOND ANGLE DIHED IMPRP ELECT VDW BOUNDARY MISC KINETIC TOTAL TEMP POTENTIAL TOTALAVG TEMPAVG PRESSURE GPRESSURE VOLUME PRESSAVG GPRESSAVG
ENERGY: 0 0.2297 5.5725 0.6186 0.0000 -10786.4079 1391.0446 0.0000 0.0000 1789.1094 -7599.8331 299.8571 -9388.9425 -7599.8331 299.8571 -704.4453 -621.5194 31157.3091 -704.4453 -621.5194
ENERGY: 300000 1.0497 6.9788 2.7021 0.0000 -10959.1042 1494.0674 0.0000 0.0000 1770.4161 -7683.8901 296.7240 -9454.3062 -7642.1870 297.4483 -164.3164 -42.3861 30732.5054 -287.1178 -234.5773
ENERGY: 600000 0.0880 6.7618 3.6868 0.0000 -10982.4354 1550.7959 0.0000 0.0000 1772.7387 -7648.3641 297.1133 -9421.1028 -7634.5953 298.6723 530.4631 615.6827 30555.0056 -136.4150 -72.9955
ENERGY: 900000 2.2347 6.3012 0.4819 0.0000 -10928.1200 1446.6506 0.0000 0.0000 1805.5418 -7666.9097 302.6111 -9472.4515 -7636.2138 299.6673 -756.6970 -657.2111 30944.8871 -294.3494 -224.8152
ENERGY: 1200000 1.6238 7.6008 1.6908 0.0000 -10912.8998 1455.9906 0.0000 0.0000 1760.0937 -7685.9000 294.9940 -9445.9937 -7628.4976 299.9145 -238.0145 -158.3772 30769.5994 -280.5999 -205.9906
ENERGY: 1500000 0.4575 6.1347 0.7269 0.0000 -10784.1406 1390.4697 0.0000 0.0000 1744.3801 -7641.9717 292.3604 -9386.3518 -7620.6585 299.9570 -719.5908 -664.0232 31072.0926 -320.6806 -247.5447
TCL: Running FEP window   2: Lambda1 0.05   Lambda2 0.1    [dLambda 0.05  ]
TCL: Setting parameter firsttimestep to 0
TCL: Setting parameter alchLambda to 0.05
Info: NONBONDED TABLE R-SQUARED SPACING: 0.0625
Info: NONBONDED TABLE SIZE: 705 POINTS
TCL: Setting parameter alchLambda2 to 0.1
Info: NONBONDED TABLE R-SQUARED SPACING: 0.0625
Info: NONBONDED TABLE SIZE: 705 POINTS
TCL: Running for 1500000 steps
ETITLE: TS BOND ANGLE DIHED IMPRP ELECT VDW BOUNDARY MISC KINETIC TOTAL TEMP POTENTIAL TOTALAVG TEMPAVG PRESSURE GPRESSURE VOLUME PRESSAVG GPRESSAVG
ENERGY: 0 0.4575 6.1347 0.7269 0.0000 -10784.1428 1393.8583 0.0000 0.0000 1743.4741 -7639.4913 292.2085 -9382.9654 -7639.4913 292.2085 -746.6479 -661.9225 31072.0926 -746.6479 -661.9225
ENERGY: 300000 1.7316 6.4228 1.0508 0.0000 -10908.1876 1451.6618 0.0000 0.0000 1806.8761 -7640.4445 302.8348 -9447.3206 -7623.4967 298.2279 -254.1425 -186.8828 30844.5441 -429.6848 -352.4962
ENERGY: 600000 0.9807 5.6783 1.9156 0.0000 -10857.4278 1437.5528 0.0000 0.0000 1803.2376 -7608.0628 302.2250 -9411.3004 -7621.9576 299.8018 -111.7632 -50.0360 30652.3890 -231.1903 -165.2686
ENERGY: 900000 0.0862 5.0108 1.5581 0.0000 -10811.9656 1465.8400 0.0000 0.0000 1825.2300 -7514.2404 305.9109 -9339.4704 -7603.4636 300.0923 71.7147 148.9448 30912.0152 -187.8532 -114.1302
ENERGY: 1200000 1.8598 5.2597 3.5839 0.0000 -10877.3605 1420.8593 0.0000 0.0000 1835.6233 -7610.1744 307.6528 -9445.7977 -7605.9139 301.2397 -600.9172 -474.0269 30634.3370 -50.1098 25.1398
ENERGY: 1500000 1.5359 5.4718 2.9692 0.0000 -10857.5692 1428.6520 0.0000 0.0000 1793.6256 -7625.3148 300.6140 -9418.9404 -7601.1919 301.4533 -220.5679 -218.4622 30597.7222 -97.0212 -27.3035
TCL: Running FEP window   3: Lambda1 0.1    Lambda2 0.15000000000000002 [dLambda 0.05000000000000002]
TCL: Setting parameter firsttimestep to 0
TCL: Setting parameter alchLambda to 0.1
Info: NONBONDED TABLE R-SQUARED SPACING: 0.0625
Info: NONBONDED TABLE SIZE: 705 POINTS
TCL: Setting parameter alchLambda2 to 0.15000000000000002
Info: NONBONDED TABLE R-SQUARED SPACING: 0.0625
Info: NONBONDED TABLE SIZE: 705 POINTS
TCL: Running for 1500000 steps
ETITLE: TS BOND ANGLE DIHED IMPRP ELECT VDW BOUNDARY MISC KINETIC TOTAL TEMP POTENTIAL TOTALAVG TEMPAVG PRESSURE GPRESSURE VOLUME PRESSAVG GPRESSAVG
ENERGY: 0 1.5359 5.4718 2.9692 0.0000 -10857.5696 1430.6159 0.0000 0.0000 1792.7406 -7624.2362 300.4657 -9416.9769 -7624.2362 300.4657 -300.6322 -213.2956 30597.7222 -300.6322 -213.2956
ENERGY: 300000 1.2460 5.0220 0.8668 0.0000 -10872.7927 1424.0366 0.0000 0.0000 1766.3871 -7675.2341 296.0488 -9441.6212 -7642.4783 297.0990 -441.8773 -336.5356 30502.6458 -205.6650 -143.7955
ENERGY: 600000 3.6274 11.0536 0.7980 0.0000 -10907.0524 1441.9047 0.0000 0.0000 1805.7293 -7643.9394 302.6426 -9449.6687 -7640.5308 296.7961 -690.7106 -626.2242 31246.3072 -253.9471 -187.4281
ENERGY: 900000 1.4673 4.9227 1.2481 0.0000 -10920.0072 1482.3005 0.0000 0.0000 1850.5577 -7579.5109 310.1559 -9430.0686 -7635.7775 298.4478 385.8238 447.5837 29977.0259 -145.2594 -74.8604
ENERGY: 1200000 1.0181 3.4297 1.5183 0.0000 -10732.2586 1391.5323 0.0000 0.0000 1813.6913 -7521.0690 303.9770 -9334.7603 -7623.6519 298.8386 -467.9684 -417.0618 30950.9034 -203.5691 -138.0396
ENERGY: 1500000 2.0663 5.3032 2.0863 0.0000 -10810.7456 1445.4525 0.0000 0.0000 1849.1696 -7506.6676 309.9232 -9355.8372 -7618.7727 299.0752 -110.4827 -75.0096 30930.8255 -230.0332 -165.4448
TCL: Running FEP window   4: Lambda1 0.15000000000000002 Lambda2 0.2    [dLambda 0.04999999999999999]
TCL: Setting parameter firsttimestep to 0
TCL: Setting parameter alchLambda to 0.15000000000000002
Info: NONBONDED TABLE R-SQUARED SPACING: 0.0625
Info: NONBONDED TABLE SIZE: 705 POINTS
TCL: Setting parameter alchLambda2 to 0.2
Info: NONBONDED TABLE R-SQUARED SPACING: 0.0625
Info: NONBONDED TABLE SIZE: 705 POINTS
TCL: Running for 1500000 steps
ETITLE: TS BOND ANGLE DIHED IMPRP ELECT VDW BOUNDARY MISC KINETIC TOTAL TEMP POTENTIAL TOTALAVG TEMPAVG PRESSURE GPRESSURE VOLUME PRESSAVG GPRESSAVG
ENERGY: 0 2.0663 5.3032 2.0863 0.0000 -10810.7455 1445.8371 0.0000 0.0000 1848.2880 -7507.1645 309.7755 -9355.4525 -7507.1645 309.7755 -143.6491 -71.9696 30930.8255 -143.6491 -71.9696
ENERGY: 300000 0.7702 5.7512 1.4560 0.0000 -10977.9358 1541.3414 0.0000 0.0000 1779.1645 -7649.4525 298.1903 -9428.6169 -7618.3639 300.3656 777.9618 843.8185 30438.6570 -153.7960 -76.4693
ENERGY: 600000 1.2558 3.9413 1.6043 0.0000 -10956.2794 1518.0348 0.0000 0.0000 1772.7983 -7658.6450 297.1233 -9431.4432 -7638.8616 300.0547 137.9492 157.1303 30901.2094 -88.7337 -30.7553
ENERGY: 900000 0.5643 8.7704 1.2247 0.0000 -10773.7045 1432.9549 0.0000 0.0000 1796.6943 -7533.4958 301.1283 -9330.1901 -7617.0930 301.0385 -1.3422 81.5152 30805.3711 5.5602 69.7261
ENERGY: 1200000 1.4301 4.1509 2.3734 0.0000 -10843.4517 1491.8729 0.0000 0.0000 1779.8904 -7563.7341 298.3119 -9343.6245 -7608.1335 300.8021 480.9468 528.4423 30562.6058 25.2892 92.7631
ENERGY: 1500000 1.4445 5.9830 2.6977 0.0000 -10959.0636 1449.3069 0.0000 0.0000 1806.1629 -7693.4687 302.7152 -9499.6315 -7618.0730 300.3620 -260.2173 -234.3470 30794.5512 -33.7156 37.3531
TCL: Running FEP window   5: Lambda1 0.2    Lambda2 0.25   [dLambda 0.04999999999999999]
TCL: Setting parameter firsttimestep to 0
TCL: Setting parameter alchLambda to 0.2
Info: NONBONDED TABLE R-SQUARED SPACING: 0.0625
Info: NONBONDED TABLE SIZE: 705 POINTS
TCL: Setting parameter alchLambda2 to 0.25
Info: NONBONDED TABLE R-SQUARED SPACING: 0.0625
Info: NONBONDED TABLE SIZE: 705 POINTS
TCL: Running for 1500000 steps
ETITLE: TS BOND ANGLE DIHED IMPRP ELECT VDW BOUNDARY MISC KINETIC TOTAL TEMP POTENTIAL TOTALAVG TEMPAVG PRESSURE GPRESSURE VOLUME PRESSAVG GPRESSAVG
ENERGY: 0 1.4445 5.9830 2.6977 0.0000 -10959.0627 1449.1368 0.0000 0.0000 1805.2662 -7694.5346 302.5649 -9499.8007 -7694.5346 302.5649 -324.6013 -232.2092 30794.5512 -324.6013 -232.2092
ENERGY: 300000 1.9922 8.1179 1.2036 0.0000 -10973.1340 1466.7555 0.0000 0.0000 1800.0401 -7695.0247 301.6890 -9495.0648 -7673.1635 300.5084 -388.2394 -330.5439 30654.7202 125.5126 200.6899
ENERGY: 600000 1.8185 10.1286 2.6027 0.0000 -10852.4330 1492.0685 0.0000 0.0000 1829.9044 -7515.9102 306.6944 -9345.8146 -7633.7041 300.0845 278.7033 263.3711 31071.3261 105.9680 161.9928
ENERGY: 900000 1.4276 6.6344 1.4875 0.0000 -10767.7761 1377.6436 0.0000 0.0000 1784.1620 -7596.4210 299.0279 -9380.5830 -7618.9382 300.3959 -430.9429 -338.8201 30572.3825 43.0306 102.2029
ENERGY: 1200000 3.5251 6.1068 1.4461 0.0000 -10808.7176 1398.3471 0.0000 0.0000 1753.0481 -7646.2445 293.8131 -9399.2926 -7613.3744 300.3198 -984.4635 -968.1969 31645.0106 -52.3616 1.7803
ENERGY: 1500000 1.8805 6.6367 0.8246 0.0000 -10929.3541 1522.4623 0.0000 0.0000 1744.3801 -7653.1699 292.3604 -9397.5500 -7609.7587 300.5746 589.3300 599.8408 30202.4378 33.1994 81.4462
TCL: Running FEP window   6: Lambda1 0.25   Lambda2 0.3    [dLambda 0.04999999999999999]
TCL: Setting parameter firsttimestep to 0
TCL: Setting parameter alchLambda to 0.25
Info: NONBONDED TABLE R-SQUARED SPACING: 0.0625
Info: NONBONDED TABLE SIZE: 705 POINTS
TCL: Setting parameter alchLambda2 to 0.3
Info: NONBONDED TABLE R-SQUARED SPACING: 0.0625
Info: NONBONDED TABLE SIZE: 705 POINTS
TCL: Running for 1500000 steps
ETITLE: TS BOND ANGLE DIHED IMPRP ELECT VDW BOUNDARY MISC KINETIC TOTAL TEMP POTENTIAL TOTALAVG TEMPAVG PRESSURE GPRESSURE VOLUME PRESSAVG GPRESSAVG
ENERGY: 0 1.8805 6.6367 0.8246 0.0000 -10929.3549 1524.4024 0.0000 0.0000 1743.4561 -7652.1545 292.2055 -9395.6107 -7652.1545 292.2055 521.9848 612.8996 30202.4378 521.9848 612.8996
ENERGY: 300000 2.7215 5.7957 0.9035 0.0000 -10788.3096 1423.5221 0.0000 0.0000 1808.0219 -7547.3450 303.0268 -9355.3669 -7590.4988 301.2267 -267.0937 -202.3821 30916.5795 406.6521 500.4679
ENERGY: 600000 3.0375 6.3655 1.2050 0.0000 -10775.3570 1406.4761 0.0000 0.0000 1817.2947 -7540.9781 304.5810 -9358.2728 -7599.8691 299.9215 -503.4015 -394.3508 31027.9233 279.1115 368.7954
ENERGY: 900000 0.5619 5.3143 2.1088 0.0000 -10978.2615 1578.1381 0.0000 0.0000 1764.2411 -7627.8974 295.6891 -9392.1384 -7596.2819 300.0047 934.1715 992.8901 30557.7606 239.7457 323.3896
ENERGY: 1200000 0.9246 5.6759 0.9761 0.0000 -10649.3537 1343.5786 0.0000 0.0000 1770.4135 -7527.7850 296.7236 -9298.1985 -7591.2792 300.2762 -556.8906 -505.1043 30976.2460 146.4401 223.2069
ENERGY: 1500000 0.2793 4.6533 1.3231 0.0000 -10796.2426 1383.1435 0.0000 0.0000 1764.0018 -7642.8417 295.6490 -9406.8435 -7596.1615 300.3276 -780.4839 -686.2169 31337.3980 26.2274 99.2716
TCL: Running FEP window   7: Lambda1 0.3    Lambda2 0.35   [dLambda 0.04999999999999999]
TCL: Setting parameter firsttimestep to 0
TCL: Setting parameter alchLambda to 0.3
Info: NONBONDED TABLE R-SQUARED SPACING: 0.0625
Info: NONBONDED TABLE SIZE: 705 POINTS
TCL: Setting parameter alchLambda2 to 0.35
Info: NONBONDED TABLE R-SQUARED SPACING: 0.0625
Info: NONBONDED TABLE SIZE: 705 POINTS
TCL: Running for 1500000 steps
ETITLE: TS BOND ANGLE DIHED IMPRP ELECT VDW BOUNDARY MISC KINETIC TOTAL TEMP POTENTIAL TOTALAVG TEMPAVG PRESSURE GPRESSURE VOLUME PRESSAVG GPRESSAVG
ENERGY: 0 0.2793 4.6533 1.3231 0.0000 -10796.2442 1383.6426 0.0000 0.0000 1763.1300 -7643.2159 295.5029 -9406.3459 -7643.2159 295.5029 -767.4918 -682.6943 31337.3980 -767.4918 -682.6943
ENERGY: 300000 1.3279 5.8695 1.3576 0.0000 -10810.5487 1389.1533 0.0000 0.0000 1798.6919 -7614.1486 301.4631 -9412.8405 -7609.2548 300.5254 -719.9679 -671.2110 31119.2868 -813.1630 -741.9974
ENERGY: 600000 1.0454 5.2517 0.4969 0.0000 -10763.2784 1396.9845 0.0000 0.0000 1800.7817 -7558.7183 301.8133 -9359.4999 -7587.2986 300.6930 -398.0085 -338.9930 30860.7839 -417.4275 -354.5489
ENERGY: 900000 0.4142 7.5537 1.2792 0.0000 -10866.5137 1441.9953 0.0000 0.0000 1815.4731 -7599.7981 304.2756 -9415.2713 -7596.9292 301.8072 -314.3701 -280.7545 31006.4465 -284.4771 -226.3970
ENERGY: 1200000 1.0288 10.0290 1.6719 0.0000 -10808.5168 1426.2161 0.0000 0.0000 1833.5567 -7536.0143 307.3065 -9369.5710 -7606.2214 301.0846 -95.8912 -85.7695 30911.0070 -221.1722 -161.1987
ENERGY: 1500000 0.6390 5.4414 1.4971 0.0000 -11014.3873 1516.6740 0.0000 0.0000 1783.7571 -7706.3786 298.9600 -9490.1357 -7614.6303 301.1899 166.9242 219.9130 30527.8571 -188.1265 -127.9804
TCL: Running FEP window   8: Lambda1 0.35   Lambda2 0.39999999999999997 [dLambda 0.04999999999999999]
TCL: Setting parameter firsttimestep to 0
TCL: Setting parameter alchLambda to 0.35
Info: NONBONDED TABLE R-SQUARED SPACING: 0.0625
Info: NONBONDED TABLE SIZE: 705 POINTS
TCL: Setting parameter alchLambda2 to 0.39999999999999997
Info: NONBONDED TABLE R-SQUARED SPACING: 0.0625
Info: NONBONDED TABLE SIZE: 705 POINTS
TCL: Running for 1500000 steps
ETITLE: TS BOND ANGLE DIHED IMPRP ELECT VDW BOUNDARY MISC KINETIC TOTAL TEMP POTENTIAL TOTALAVG TEMPAVG PRESSURE GPRESSURE VOLUME PRESSAVG GPRESSAVG
ENERGY: 0 0.6390 5.4414 1.4971 0.0000 -11014.3876 1517.7316 0.0000 0.0000 1782.8814 -7706.1969 298.8132 -9489.0784 -7706.1969 298.8132 141.7757 231.3911 30527.8571 141.7757 231.3911
ENERGY: 300000 1.1472 5.2866 2.5228 0.0000 -10943.1657 1460.6263 0.0000 0.0000 1814.6758 -7658.9070 304.1420 -9473.5828 -7638.9812 299.4115 -166.6677 -141.7078 30449.4361 156.1234 216.5532
ENERGY: 600000 1.8243 7.8387 1.6231 0.0000 -10907.8565 1456.8634 0.0000 0.0000 1782.0620 -7657.6451 298.6759 -9439.7071 -7634.6212 298.8968 -212.4641 -126.5713 30881.3706 110.8885 165.5192
ENERGY: 900000 2.4315 6.5772 0.9964 0.0000 -10876.2219 1448.3507 0.0000 0.0000 1806.8883 -7610.9778 302.8368 -9417.8660 -7621.1622 300.3501 -261.4126 -151.4073 30662.7364 79.7381 140.2514
ENERGY: 1200000 2.8156 6.6893 2.1002 0.0000 -10866.2588 1438.0318 0.0000 0.0000 1775.5664 -7641.0557 297.5872 -9416.6221 -7607.0713 301.4392 -215.7136 -151.4792 30591.9519 49.2714 104.6404
ENERGY: 1500000 3.1673 8.6065 2.7750 0.0000 -10821.2319 1449.8717 0.0000 0.0000 1776.9239 -7579.8875 297.8147 -9356.8114 -7605.5813 301.0501 53.1379 106.2776 30610.5307 13.1160 70.9143
TCL: Running FEP window   9: Lambda1 0.39999999999999997 Lambda2 0.44999999999999996 [dLambda 0.04999999999999999]
TCL: Setting parameter firsttimestep to 0
TCL: Setting parameter alchLambda to 0.39999999999999997
Info: NONBONDED TABLE R-SQUARED SPACING: 0.0625
Info: NONBONDED TABLE SIZE: 705 POINTS
TCL: Setting parameter alchLambda2 to 0.44999999999999996
Info: NONBONDED TABLE R-SQUARED SPACING: 0.0625
Info: NONBONDED TABLE SIZE: 705 POINTS
TCL: Running for 1500000 steps
ETITLE: TS BOND ANGLE DIHED IMPRP ELECT VDW BOUNDARY MISC KINETIC TOTAL TEMP POTENTIAL TOTALAVG TEMPAVG PRESSURE GPRESSURE VOLUME PRESSAVG GPRESSAVG
ENERGY: 0 3.1673 8.6065 2.7750 0.0000 -10821.2317 1450.6993 0.0000 0.0000 1776.0179 -7579.9658 297.6629 -9355.9836 -7579.9658 297.6629 24.6818 115.3138 30610.5307 24.6818 115.3138
ENERGY: 300000 1.6192 6.4734 0.7820 0.0000 -10753.8146 1374.7754 0.0000 0.0000 1833.4342 -7536.7305 307.2859 -9370.1646 -7603.9979 303.2627 -642.8585 -598.9834 30890.1340 100.1407 165.8054
ENERGY: 600000 4.3430 4.3322 1.5602 0.0000 -10853.4573 1457.6683 0.0000 0.0000 1849.9631 -7535.5905 310.0562 -9385.5536 -7607.1675 302.7127 -123.4697 -50.9983 30779.9514 79.8300 139.2477
ENERGY: 900000 1.4409 9.8179 1.1246 0.0000 -10759.3905 1426.4497 0.0000 0.0000 1806.1065 -7514.4508 302.7058 -9320.5573 -7604.1824 301.1991 -177.7832 -135.8652 30762.9689 90.5115 159.5292
ENERGY: 1200000 0.8130 10.2138 2.0664 0.0000 -10832.3427 1500.0034 0.0000 0.0000 1803.1290 -7516.1171 302.2068 -9319.2461 -7593.8335 301.2387 154.0732 198.9245 31136.4273 52.9584 120.2545
ENERGY: 1500000 2.0753 4.7868 1.9031 0.0000 -10905.5741 1493.4683 0.0000 0.0000 1789.5321 -7613.8084 299.9279 -9403.3405 -7593.4591 301.3895 309.0173 388.7036 30483.9073 122.3222 187.4799
TCL: Running FEP window  10: Lambda1 0.44999999999999996 Lambda2 0.49999999999999994 [dLambda 0.04999999999999999]
TCL: Setting parameter firsttimestep to 0
TCL: Setting parameter alchLambda to 0.44999999999999996
Info: NONBONDED TABLE R-SQUARED SPACING: 0.0625
Info: NONBONDED TABLE SIZE: 705 POINTS
TCL: Setting parameter alchLambda2 to 0.49999999999999994
Info: NONBONDED TABLE R-SQUARED SPACING: 0.0625
Info: NONBONDED TABLE SIZE: 705 POINTS
TCL: Running for 1500000 steps
ETITLE: TS BOND ANGLE DIHED IMPRP ELECT VDW BOUNDARY MISC KINETIC TOTAL TEMP POTENTIAL TOTALAVG TEMPAVG PRESSURE GPRESSURE VOLUME PRESSAVG GPRESSAVG
ENERGY: 0 2.0753 4.7868 1.9031 0.0000 -10905.5739 1493.9065 0.0000 0.0000 1788.6414 -7614.2608 299.7786 -9402.9022 -7614.2608 299.7786 298.7951 395.5724 30483.9073 298.7951 395.5724
ENERGY: 300000 1.1874 6.2247 1.0741 0.0000 -10905.9198 1515.2009 0.0000 0.0000 1799.9607 -7582.2719 301.6758 -9382.2326 -7604.5533 301.8387 405.0805 490.9077 30978.6739 452.9876 511.6442
ENERGY: 600000 2.2482 8.7299 1.0644 0.0000 -10811.4316 1455.0030 0.0000 0.0000 1793.3024 -7551.0838 300.5598 -9344.3862 -7591.9302 301.0000 -101.2100 -43.4239 31057.0796 120.7938 177.8564
ENERGY: 900000 0.4037 11.1417 2.2938 0.0000 -10794.7979 1413.5780 0.0000 0.0000 1783.0947 -7584.2860 298.8490 -9367.3806 -7598.6597 301.2260 -319.9213 -260.9777 30884.3633 65.5241 116.8225
ENERGY: 1200000 0.1217 6.9180 1.5200 0.0000 -11008.1325 1485.7262 0.0000 0.0000 1780.6726 -7733.1739 298.4430 -9513.8465 -7607.5185 300.4897 -102.9696 -50.2044 30625.4138 106.0299 152.8451
ENERGY: 1500000 0.4057 9.1093 0.9144 0.0000 -10787.5048 1337.2812 0.0000 0.0000 1765.5121 -7674.2822 295.9021 -9439.7943 -7605.5051 300.8686 -962.8358 -902.0506 30491.8701 19.7306 73.0611
TCL: Running FEP window  11: Lambda1 0.49999999999999994 Lambda2 0.5499999999999999 [dLambda 0.04999999999999999]
TCL: Setting parameter firsttimestep to 0
TCL: Setting parameter alchLambda to 0.49999999999999994
Info: NONBONDED TABLE R-SQUARED SPACING: 0.0625
Info: NONBONDED TABLE SIZE: 705 POINTS
TCL: Setting parameter alchLambda2 to 0.5499999999999999
Info: NONBONDED TABLE R-SQUARED SPACING: 0.0625
Info: NONBONDED TABLE SIZE: 705 POINTS
TCL: Running for 1500000 steps
ETITLE: TS BOND ANGLE DIHED IMPRP ELECT VDW BOUNDARY MISC KINETIC TOTAL TEMP POTENTIAL TOTALAVG TEMPAVG PRESSURE GPRESSURE VOLUME PRESSAVG GPRESSAVG
ENERGY: 0 0.4057 9.1093 0.9144 0.0000 -10787.5049 1337.3279 0.0000 0.0000 1764.6076 -7675.1401 295.7505 -9439.7477 -7675.1401 295.7505 -980.2229 -900.8361 30491.8701 -980.2229 -900.8361
ENERGY: 300000 1.4875 7.2406 1.0889 0.0000 -10885.2402 1463.8189 0.0000 0.0000 1765.9651 -7645.6392 295.9780 -9411.6043 -7615.5467 299.2130 -308.8515 -274.8411 31199.5469 -434.1517 -346.1909
ENERGY: 600000 1.4948 10.4362 1.2464 0.0000 -10925.8859 1439.8885 0.0000 0.0000 1780.5884 -7692.2315 298.4289 -9472.8199 -7614.7378 300.8531 -306.0823 -183.8403 30272.0275 -411.1577 -343.5440
ENERGY: 900000 0.5691 4.2194 2.5847 0.0000 -10844.7648 1466.8114 0.0000 0.0000 1820.2804 -7550.2998 305.0813 -9370.5801 -7597.6858 301.8134 390.9539 368.7081 30644.9983 -287.0185 -225.8221
ENERGY: 1200000 1.2255 7.2061 0.8324 0.0000 -10882.4979 1467.8675 0.0000 0.0000 1824.2636 -7581.1029 305.7489 -9405.3665 -7599.6690 301.3371 180.2635 211.0283 30527.6131 -197.4770 -135.9942
ENERGY: 1500000 2.1706 7.9154 1.5403 0.0000 -10798.2665 1419.3233 0.0000 0.0000 1794.1185 -7573.1984 300.6966 -9367.3169 -7590.9104 301.5009 -350.8452 -266.3972 30839.5459 -169.5001 -111.3352
TCL: Running FEP window  12: Lambda1 0.5499999999999999 Lambda2 0.6    [dLambda 0.050000000000000044]
TCL: Setting parameter firsttimestep to 0
TCL: Setting parameter alchLambda to 0.5499999999999999
Info: NONBONDED TABLE R-SQUARED SPACING: 0.0625
Info: NONBONDED TABLE SIZE: 705 POINTS
TCL: Setting parameter alchLambda2 to 0.6
Info: NONBONDED TABLE R-SQUARED SPACING: 0.0625
Info: NONBONDED TABLE SIZE: 705 POINTS
TCL: Running for 1500000 steps
ETITLE: TS BOND ANGLE DIHED IMPRP ELECT VDW BOUNDARY MISC KINETIC TOTAL TEMP POTENTIAL TOTALAVG TEMPAVG PRESSURE GPRESSURE VOLUME PRESSAVG GPRESSAVG
ENERGY: 0 2.1706 7.9154 1.5403 0.0000 -10798.4895 1419.3015 0.0000 0.0000 1793.2263 -7574.3354 300.5471 -9367.5617 -7574.3354 300.5471 -338.7249 -260.2919 30839.5459 -338.7249 -260.2919
ENERGY: 300000 1.3098 5.4687 1.1489 0.0000 -10832.7662 1474.5909 0.0000 0.0000 1806.0125 -7544.2354 302.6900 -9350.2479 -7565.6043 301.0462 -119.5254 -11.5148 31327.1597 73.1523 163.4593
ENERGY: 600000 0.9049 7.8929 3.3742 0.0000 -10794.6205 1451.6756 0.0000 0.0000 1847.8579 -7482.9149 309.7034 -9330.7728 -7576.1966 301.4364 84.7900 129.1404 31090.6074 -22.1435 60.4424
ENERGY: 900000 0.4904 4.2878 2.2511 0.0000 -10951.7915 1523.8270 0.0000 0.0000 1844.9915 -7575.9437 309.2230 -9420.9352 -7583.9846 302.0179 414.1117 452.6421 30926.3362 72.3299 149.9579
ENERGY: 1200000 5.0631 6.5744 0.9147 0.0000 -11013.9592 1580.9859 0.0000 0.0000 1741.5304 -7678.8907 291.8827 -9420.4210 -7589.0879 302.0673 788.6522 879.0356 30386.5615 28.1507 116.7453
ENERGY: 1500000 0.2489 4.7758 1.6978 0.0000 -10889.0172 1478.8109 0.0000 0.0000 1753.8179 -7649.6658 293.9422 -9403.4838 -7593.9506 302.2564 -4.0489 64.5713 31175.8526 -40.6954 43.0847
TCL: Running FEP window  13: Lambda1 0.6    Lambda2 0.65   [dLambda 0.050000000000000044]
TCL: Setting parameter firsttimestep to 0
TCL: Setting parameter alchLambda to 0.6
Info: NONBONDED TABLE R-SQUARED SPACING: 0.0625
Info: NONBONDED TABLE SIZE: 705 POINTS
TCL: Setting parameter alchLambda2 to 0.65
Info: NONBONDED TABLE R-SQUARED SPACING: 0.0625
Info: NONBONDED TABLE SIZE: 705 POINTS
TCL: Running for 1500000 steps
ETITLE: TS BOND ANGLE DIHED IMPRP ELECT VDW BOUNDARY MISC KINETIC TOTAL TEMP POTENTIAL TOTALAVG TEMPAVG PRESSURE GPRESSURE VOLUME PRESSAVG GPRESSAVG
ENERGY: 0 0.2489 4.7758 1.6978 0.0000 -10889.3199 1478.6167 0.0000 0.0000 1752.9359 -7651.0448 293.7943 -9403.9807 -7651.0448 293.7943 -21.2074 65.7934 31175.8526 -21.2074 65.7934
ENERGY: 300000 0.9485 6.0209 1.6641 0.0000 -10756.1164 1364.8803 0.0000 0.0000 1794.1699 -7588.4327 300.7052 -9382.6026 -7597.9020 301.1777 -849.7661 -782.6713 31235.4275 -242.2158 -154.6003
ENERGY: 600000 2.5795 6.4419 0.9980 0.0000 -10964.7635 1515.2289 0.0000 0.0000 1764.1411 -7675.3739 295.6723 -9439.5150 -7608.5785 299.9031 434.3039 484.2085 30239.9220 -82.7423 -5.3882
ENERGY: 900000 1.8867 4.1368 2.9836 0.0000 -10859.0640 1451.4088 0.0000 0.0000 1790.1540 -7608.4940 300.0321 -9398.6480 -7612.3227 299.7363 -283.5073 -160.8007 30869.9358 -111.2261 -37.0362
ENERGY: 1200000 1.8819 6.9740 1.5127 0.0000 -11019.0041 1537.3663 0.0000 0.0000 1803.2616 -7668.0075 302.2290 -9471.2691 -7620.1846 300.5840 326.6876 331.4579 30851.7044 -100.4932 -36.6397
ENERGY: 1500000 0.2578 6.6473 1.3693 0.0000 -10657.0027 1333.8703 0.0000 0.0000 1773.8579 -7541.0003 297.3009 -9314.8581 -7614.5426 300.3730 -1211.4789 -1159.2993 31758.2984 -124.3521 -57.7518
TCL: Running FEP window  14: Lambda1 0.65   Lambda2 0.7000000000000001 [dLambda 0.050000000000000044]
TCL: Setting parameter firsttimestep to 0
TCL: Setting parameter alchLambda to 0.65
Info: NONBONDED TABLE R-SQUARED SPACING: 0.0625
Info: NONBONDED TABLE SIZE: 705 POINTS
TCL: Setting parameter alchLambda2 to 0.7000000000000001
Info: NONBONDED TABLE R-SQUARED SPACING: 0.0625
Info: NONBONDED TABLE SIZE: 705 POINTS
TCL: Running for 1500000 steps
ETITLE: TS BOND ANGLE DIHED IMPRP ELECT VDW BOUNDARY MISC KINETIC TOTAL TEMP POTENTIAL TOTALAVG TEMPAVG PRESSURE GPRESSURE VOLUME PRESSAVG GPRESSAVG
ENERGY: 0 0.2578 6.6473 1.3693 0.0000 -10657.1119 1334.0814 0.0000 0.0000 1772.9659 -7541.7903 297.1514 -9314.7562 -7541.7903 297.1514 -1228.8134 -1151.8329 31758.2984 -1228.8134 -1151.8329
ENERGY: 300000 1.7410 4.3357 1.5110 0.0000 -10789.2259 1437.4381 0.0000 0.0000 1878.4097 -7465.7903 314.8239 -9344.2001 -7550.2156 304.2707 92.1049 105.3782 30965.8732 -447.3856 -417.8002
ENERGY: 600000 0.5019 4.6148 1.7203 0.0000 -10782.3521 1385.5653 0.0000 0.0000 1789.3374 -7600.6124 299.8953 -9389.9498 -7552.0607 303.5670 -496.8906 -402.2770 30933.2160 -307.2104 -258.9758
ENERGY: 900000 0.8425 5.6701 2.7969 0.0000 -10808.2158 1421.9690 0.0000 0.0000 1812.8228 -7564.1145 303.8315 -9376.9373 -7566.3382 302.9739 -46.1119 -21.0279 30457.6769 -295.4517 -241.1260
ENERGY: 1200000 1.1816 6.3074 2.1085 0.0000 -11067.8776 1526.1158 0.0000 0.0000 1798.4219 -7733.7424 301.4178 -9532.1643 -7576.1235 302.3605 20.6368 136.9414 30872.9268 -260.9210 -199.9808
ENERGY: 1500000 1.9236 5.3215 1.8593 0.0000 -10947.7511 1519.9669 0.0000 0.0000 1806.4204 -7612.2594 302.7584 -9418.6798 -7574.5733 303.2469 553.1360 596.7356 30572.6840 -231.1151 -166.6884
TCL: Running FEP window  15: Lambda1 0.7000000000000001 Lambda2 0.7500000000000001 [dLambda 0.050000000000000044]
TCL: Setting parameter firsttimestep to 0
TCL: Setting parameter alchLambda to 0.7000000000000001
Info: NONBONDED TABLE R-SQUARED SPACING: 0.0625
Info: NONBONDED TABLE SIZE: 705 POINTS
TCL: Setting parameter alchLambda2 to 0.7500000000000001
Info: NONBONDED TABLE R-SQUARED SPACING: 0.0625
Info: NONBONDED TABLE SIZE: 705 POINTS
TCL: Running for 1500000 steps
ETITLE: TS BOND ANGLE DIHED IMPRP ELECT VDW BOUNDARY MISC KINETIC TOTAL TEMP POTENTIAL TOTALAVG TEMPAVG PRESSURE GPRESSURE VOLUME PRESSAVG GPRESSAVG
ENERGY: 0 1.9236 5.3215 1.8593 0.0000 -10947.7616 1519.9797 0.0000 0.0000 1805.5317 -7613.1458 302.6094 -9418.6774 -7613.1458 302.6094 522.7893 601.7104 30572.6840 522.7893 601.7104
ENERGY: 300000 0.3411 6.1392 1.5320 0.0000 -10885.7059 1477.7078 0.0000 0.0000 1818.4191 -7581.5667 304.7694 -9399.9858 -7567.9955 304.9188 55.0741 43.7052 30890.4730 387.3522 412.5864
ENERGY: 600000 0.5007 5.7068 1.6730 0.0000 -10905.6298 1532.2087 0.0000 0.0000 1796.9350 -7568.6056 301.1686 -9365.5406 -7585.4423 303.4080 798.5881 885.5751 30369.4932 403.0903 444.3813
ENERGY: 900000 0.5847 10.1318 1.2053 0.0000 -10769.9304 1361.6136 0.0000 0.0000 1776.3088 -7620.0862 297.7117 -9396.3950 -7612.9622 301.0635 -576.3896 -559.8693 30793.5100 242.2417 279.2920
ENERGY: 1200000 0.7937 7.1750 2.1014 0.0000 -10975.4575 1509.8933 0.0000 0.0000 1751.1311 -7704.3631 293.4918 -9455.4942 -7621.8130 300.7837 -14.1583 94.7052 30811.4147 149.7810 195.1562
ENERGY: 1500000 0.9925 5.0470 0.6637 0.0000 -10862.9225 1420.7563 0.0000 0.0000 1789.3353 -7646.1277 299.8949 -9435.4630 -7627.7872 300.2717 -402.6835 -309.4464 30564.9156 79.4960 128.3176
TCL: Running FEP window  16: Lambda1 0.7500000000000001 Lambda2 0.8000000000000002 [dLambda 0.050000000000000044]
TCL: Setting parameter firsttimestep to 0
TCL: Setting parameter alchLambda to 0.7500000000000001
Info: NONBONDED TABLE R-SQUARED SPACING: 0.0625
Info: NONBONDED TABLE SIZE: 705 POINTS
TCL: Setting parameter alchLambda2 to 0.8000000000000002
Info: NONBONDED TABLE R-SQUARED SPACING: 0.0625
Info: NONBONDED TABLE SIZE: 705 POINTS
TCL: Running for 1500000 steps
ETITLE: TS BOND ANGLE DIHED IMPRP ELECT VDW BOUNDARY MISC KINETIC TOTAL TEMP POTENTIAL TOTALAVG TEMPAVG PRESSURE GPRESSURE VOLUME PRESSAVG GPRESSAVG
ENERGY: 0 0.9925 5.0470 0.6637 0.0000 -10864.9308 1424.4661 0.0000 0.0000 1788.4279 -7645.3336 299.7428 -9433.7614 -7645.3336 299.7428 -358.6517 -266.1648 30564.9156 -358.6517 -266.1648
ENERGY: 300000 0.4252 7.5087 1.5774 0.0000 -10832.2578 1467.6281 0.0000 0.0000 1769.1972 -7585.9211 296.5197 -9355.1184 -7617.4534 297.5417 213.0010 245.4948 30953.3059 114.0514 179.4096
ENERGY: 600000 1.2310 6.3740 0.8846 0.0000 -10840.0701 1457.7481 0.0000 0.0000 1783.6582 -7590.1741 298.9434 -9373.8324 -7597.8803 299.4631 -266.1384 -179.2427 31284.2017 -32.0894 37.1308
ENERGY: 900000 2.5052 9.0173 1.7634 0.0000 -10865.6632 1521.9622 0.0000 0.0000 1805.0004 -7525.4146 302.5204 -9330.4150 -7588.6879 300.4830 646.4956 677.3844 30864.5754 -56.7568 7.4736
ENERGY: 1200000 0.2951 13.5506 0.9751 0.0000 -10744.4605 1377.7442 0.0000 0.0000 1751.2547 -7600.6408 293.5126 -9351.8955 -7596.6253 299.9155 -473.0561 -433.7667 31010.1665 -59.6357 -0.4379
ENERGY: 1500000 1.0133 3.9540 0.6657 0.0000 -10764.3818 1400.3405 0.0000 0.0000 1735.5573 -7622.8511 290.8816 -9358.4084 -7599.6929 299.4414 -461.0341 -367.4528 31205.9567 -40.9739 18.8731
TCL: Running FEP window  17: Lambda1 0.8000000000000002 Lambda2 0.8500000000000002 [dLambda 0.050000000000000044]
TCL: Setting parameter firsttimestep to 0
TCL: Setting parameter alchLambda to 0.8000000000000002
Info: NONBONDED TABLE R-SQUARED SPACING: 0.0625
Info: NONBONDED TABLE SIZE: 705 POINTS
TCL: Setting parameter alchLambda2 to 0.8500000000000002
Info: NONBONDED TABLE R-SQUARED SPACING: 0.0625
Info: NONBONDED TABLE SIZE: 705 POINTS
TCL: Running for 1500000 steps
ETITLE: TS BOND ANGLE DIHED IMPRP ELECT VDW BOUNDARY MISC KINETIC TOTAL TEMP POTENTIAL TOTALAVG TEMPAVG PRESSURE GPRESSURE VOLUME PRESSAVG GPRESSAVG
ENERGY: 0 1.0133 3.9540 0.6657 0.0000 -10764.7871 1400.1412 0.0000 0.0000 1734.6884 -7624.3245 290.7360 -9359.0130 -7624.3245 290.7360 -450.1984 -363.4425 31205.9567 -450.1984 -363.4425
ENERGY: 300000 4.7414 4.7145 1.3213 0.0000 -10919.3195 1453.5316 0.0000 0.0000 1856.0616 -7598.9491 311.0783 -9455.0107 -7620.2230 297.6245 -191.0182 -131.2408 30668.5076 -22.5023 43.9341
ENERGY: 600000 1.5266 6.1261 1.0382 0.0000 -10810.8239 1392.9209 0.0000 0.0000 1781.8577 -7627.3543 298.6417 -9409.2120 -7620.6736 297.9690 -715.5655 -635.0690 30998.0089 -179.5716 -114.3841
ENERGY: 900000 4.6482 6.6374 0.9051 0.0000 -10866.1371 1453.6731 0.0000 0.0000 1745.7553 -7654.5179 292.5909 -9400.2732 -7625.8340 297.5061 -37.1745 19.0814 30503.7301 -66.5607 1.3047
ENERGY: 1200000 2.7596 5.7705 2.0952 0.0000 -10876.5359 1464.1208 0.0000 0.0000 1814.2090 -7587.5808 304.0638 -9401.7898 -7607.9192 299.1317 124.5516 208.0079 30537.6475 -38.7608 36.2502
ENERGY: 1500000 3.8136 5.9211 2.0213 0.0000 -10952.1207 1531.2595 0.0000 0.0000 1832.7951 -7576.3100 307.1788 -9409.1051 -7612.3752 299.0720 479.6960 518.4404 30871.3497 16.4916 86.8509
TCL: Running FEP window  18: Lambda1 0.8500000000000002 Lambda2 0.9000000000000002 [dLambda 0.050000000000000044]
TCL: Setting parameter firsttimestep to 0
TCL: Setting parameter alchLambda to 0.8500000000000002
Info: NONBONDED TABLE R-SQUARED SPACING: 0.0625
Info: NONBONDED TABLE SIZE: 705 POINTS
TCL: Setting parameter alchLambda2 to 0.9000000000000002
Info: NONBONDED TABLE R-SQUARED SPACING: 0.0625
Info: NONBONDED TABLE SIZE: 705 POINTS
TCL: Running for 1500000 steps
ETITLE: TS BOND ANGLE DIHED IMPRP ELECT VDW BOUNDARY MISC KINETIC TOTAL TEMP POTENTIAL TOTALAVG TEMPAVG PRESSURE GPRESSURE VOLUME PRESSAVG GPRESSAVG
ENERGY: 0 3.8136 5.9211 2.0213 0.0000 -10953.8502 1531.9783 0.0000 0.0000 1831.9121 -7578.2038 307.0308 -9410.1159 -7578.2038 307.0308 455.4565 527.6549 30871.3497 455.4565 527.6549
ENERGY: 300000 2.1752 6.5792 2.3502 0.0000 -10837.6057 1474.0742 0.0000 0.0000 1773.2664 -7579.1606 297.2017 -9352.4269 -7609.7497 299.2239 151.2885 178.5999 30660.1849 119.0204 168.3123
ENERGY: 600000 4.7462 4.8689 2.1483 0.0000 -10967.6724 1522.9052 0.0000 0.0000 1762.9304 -7670.0735 295.4694 -9433.0039 -7613.7144 301.5645 176.8370 258.8275 30935.8174 93.2425 153.3547
ENERGY: 900000 1.5223 5.0697 2.1839 0.0000 -10877.2907 1445.3910 0.0000 0.0000 1829.4686 -7593.6553 306.6213 -9423.1239 -7605.7009 302.3483 -75.1827 -2.9334 30767.0300 -35.3466 20.5391
ENERGY: 1200000 1.2595 7.0997 2.0903 0.0000 -10863.7559 1492.5450 0.0000 0.0000 1749.6091 -7611.1524 293.2368 -9360.7615 -7608.6752 301.6789 195.0145 275.3347 30783.7872 114.0930 169.3769
ENERGY: 1500000 0.4605 5.8082 2.3059 0.0000 -11097.9663 1584.2757 0.0000 0.0000 1797.0928 -7708.0232 301.1951 -9505.1161 -7620.9370 300.6653 717.2129 815.1336 30450.5117 152.9914 202.1944
TCL: Running FEP window  19: Lambda1 0.9000000000000002 Lambda2 0.9500000000000003 [dLambda 0.050000000000000044]
TCL: Setting parameter firsttimestep to 0
TCL: Setting parameter alchLambda to 0.9000000000000002
Info: NONBONDED TABLE R-SQUARED SPACING: 0.0625
Info: NONBONDED TABLE SIZE: 705 POINTS
TCL: Setting parameter alchLambda2 to 0.9500000000000003
Info: NONBONDED TABLE R-SQUARED SPACING: 0.0625
Info: NONBONDED TABLE SIZE: 705 POINTS
TCL: Running for 1500000 steps
ETITLE: TS BOND ANGLE DIHED IMPRP ELECT VDW BOUNDARY MISC KINETIC TOTAL TEMP POTENTIAL TOTALAVG TEMPAVG PRESSURE GPRESSURE VOLUME PRESSAVG GPRESSAVG
ENERGY: 0 0.4605 5.8082 2.3059 0.0000 -11099.6107 1584.5103 0.0000 0.0000 1796.2223 -7710.3034 301.0492 -9506.5257 -7710.3034 301.0492 727.2737 823.8616 30450.5117 727.2737 823.8616
ENERGY: 300000 0.6950 7.9894 1.1490 0.0000 -10803.1648 1409.8568 0.0000 0.0000 1803.4156 -7580.0590 302.2548 -9383.4746 -7576.9466 302.5929 -611.1941 -555.6785 31265.5700 -202.7609 -110.4343
ENERGY: 600000 2.0291 4.5054 1.9521 0.0000 -10922.4249 1463.1354 0.0000 0.0000 1805.5861 -7645.2168 302.6186 -9450.8028 -7609.9522 299.9150 -244.9608 -164.3418 31095.4546 -350.6500 -272.5815
ENERGY: 900000 0.7987 7.2282 1.1455 0.0000 -10923.5705 1477.5834 0.0000 0.0000 1821.2712 -7615.5435 305.2474 -9436.8147 -7619.3371 300.8497 39.8650 136.2553 30694.9007 -244.1381 -177.7095
ENERGY: 1200000 0.5833 6.7111 1.6446 0.0000 -10952.2570 1474.7235 0.0000 0.0000 1773.5374 -7695.0571 297.2472 -9468.5945 -7625.3023 300.4686 -146.5699 -105.9828 30934.1218 -187.2673 -127.9475
ENERGY: 1500000 1.6190 4.1083 1.5160 0.0000 -10892.4877 1458.1423 0.0000 0.0000 1769.2152 -7657.8869 296.5228 -9427.1021 -7631.2348 299.9552 9.0302 12.6327 30920.0212 -176.6220 -127.9828
TCL: Running FEP window  20: Lambda1 0.9500000000000003 Lambda2 1.0    [dLambda 0.04999999999999971]
TCL: Setting parameter firsttimestep to 0
TCL: Setting parameter alchLambda to 0.9500000000000003
Info: NONBONDED TABLE R-SQUARED SPACING: 0.0625
Info: NONBONDED TABLE SIZE: 705 POINTS
TCL: Setting parameter alchLambda2 to 1.0
Info: NONBONDED TABLE R-SQUARED SPACING: 0.0625
Info: NONBONDED TABLE SIZE: 705 POINTS
TCL: Running for 1500000 steps
ETITLE: TS BOND ANGLE DIHED IMPRP ELECT VDW BOUNDARY MISC KINETIC TOTAL TEMP POTENTIAL TOTALAVG TEMPAVG PRESSURE GPRESSURE VOLUME PRESSAVG GPRESSAVG
ENERGY: 0 1.6190 4.1083 1.5160 0.0000 -10893.5550 1458.1969 0.0000 0.0000 1768.3164 -7659.7984 296.3721 -9428.1148 -7659.7984 296.3721 -67.2280 22.3385 30920.0212 -67.2280 22.3385
ENERGY: 300000 1.2172 11.3012 0.5971 0.0000 -10922.9944 1456.7301 0.0000 0.0000 1788.8882 -7664.2605 299.8200 -9453.1488 -7618.6063 302.4113 -71.7858 -33.3110 30723.4648 319.5332 386.6874
ENERGY: 600000 2.0102 4.8108 1.2798 0.0000 -10959.4022 1513.9015 0.0000 0.0000 1823.3097 -7614.0901 305.5891 -9437.3999 -7622.2920 301.0796 421.0002 485.6216 30639.9234 174.0791 230.3425
ENERGY: 900000 0.7578 6.8612 1.3154 0.0000 -10901.0045 1445.4860 0.0000 0.0000 1770.4798 -7676.1043 296.7347 -9446.5841 -7623.8897 300.5653 -109.4531 -4.0830 30788.7430 126.4717 194.3946
ENERGY: 1200000 0.4692 7.2334 1.8516 0.0000 -10765.0882 1395.0672 0.0000 0.0000 1767.3016 -7593.1652 296.2020 -9360.4668 -7624.6442 300.5551 -215.0345 -148.1040 30494.9153 107.9279 172.6888
ENERGY: 1500000 0.7901 7.2762 1.3083 0.0000 -11078.6124 1579.4014 0.0000 0.0000 1774.7928 -7715.0436 297.4576 -9489.8364 -7631.4824 299.6245 521.3132 642.4703 30544.2718 109.2352 178.5717
TCL: Exiting due to exit command.
