Info: SIMULATION PARAMETERS:
Info: TIMESTEP               2
Info: NUMBER OF STEPS        0
Info: STEPS PER CYCLE        10
Info: PERIODIC CELL BASIS 1  31.0462 0 0
Info: PERIODIC CELL BASIS 2  0 29.7649 0
Info: PERIODIC CELL BASIS 3  0 0 33.2337
Info: PERIODIC CELL CENTER   0 0 0
Info: WRAPPING WATERS AROUND PERIODIC BOUNDARIES ON OUTPUT.
Info: WRAPPING ALL CLUSTERS AROUND PERIODIC BOUNDARIES ON OUTPUT.
Info: FIRST LDB TIMESTEP     50
Info: LAST LDB TIMESTEP     -1
Info: HOM BACKGROUND SCALING 1
Info: PME BACKGROUND SCALING 1
Info: MIN ATOMS PER PATCH    40
Info: EMPTY PATCH LOAD       40 ATOMS
Info: VELOCITY FILE          mobley_2126135_equil.vel
Info: CENTER OF MASS MOVING INITIALLY? NO
Info: DIELECTRIC             1
Info: EXCLUDE                SCALED ONE-FOUR
Info: 1-4 ELECTROSTATICS SCALED BY 0.833333
Info: MODIFIED 1-4 VDW PARAMETERS WILL BE USED
Info: DCD FILENAME           mobley_2126135_prod.dcd
Info: DCD FREQUENCY          100000
Info: DCD FIRST STEP         100000
Info: DCD FILE WILL CONTAIN UNIT CELL DATA
Info: XST FILENAME           mobley_2126135_prod.xst
Info: XST FREQUENCY          100000
Info: NO VELOCITY DCD OUTPUT
Info: NO FORCE DCD OUTPUT
Info: OUTPUT FILENAME        mobley_2126135_prod
Info: BINARY OUTPUT FILES WILL BE USED
Info: RESTART FILENAME       mobley_2126135_prod.restart
Info: RESTART FREQUENCY      100000
Info: BINARY RESTART FILES WILL BE USED
Info: CUTOFF                 9
Info: PAIRLIST DISTANCE      11
Info: PAIRLIST SHRINK RATE   0.01
Info: PAIRLIST GROW RATE     0.01
Info: PAIRLIST TRIGGER       0.3
Info: PAIRLISTS PER CYCLE    2
Info: PAIRLISTS ENABLED
Info: MARGIN                 2
Info: HYDROGEN GROUP CUTOFF  2.5
Info: PATCH DIMENSION        15.5
Info: ENERGY OUTPUT STEPS    100000
Info: ENERGY EVALUATION STEPS    100000
Info: OUTPUT ENERGY PRECISION 4
Info: CROSSTERM ENERGY INCLUDED IN DIHEDRAL
Info: TIMING OUTPUT STEPS    1000000
Info: PRESSURE OUTPUT STEPS  100000
Info: ALCHEMICAL FEP ON
Info: FEP CURRENT LAMBDA VALUE     0
Info: FEP COMPARISON LAMBDA VALUE  0.05
Info: FEP INTRA-ALCHEMICAL NON-BONDED INTERACTIONS WILL BE RETAINED
Info: FEP INTRA-ALCHEMICAL BONDED INTERACTIONS WILL BE RETAINED
Info: FEP VDW SHIFTING COEFFICIENT 5
Info: FEP ELEC. ACTIVE FOR ANNIHILATED PARTICLES BETWEEN LAMBDA = 0 AND LAMBDA = 0.5
Info: FEP ELEC. ACTIVE FOR EXNIHILATED PARTICLES BETWEEN LAMBDA = 0.5 AND LAMBDA = 1
Info: FEP VDW ACTIVE FOR ANNIHILATED PARTICLES BETWEEN LAMBDA = 0 AND LAMBDA = 1
Info: FEP VDW ACTIVE FOR EXNIHILATED PARTICLES BETWEEN LAMBDA = 0 AND LAMBDA = 1
Info: FEP BOND ACTIVE FOR ANNIHILATED PARTICLES BETWEEN LAMBDA = 1 AND LAMBDA = 1
Info: FEP BOND ACTIVE FOR EXNIHILATED PARTICLES BETWEEN LAMBDA = 0 AND LAMBDA = 0
Info: LANGEVIN DYNAMICS ACTIVE
Info: LANGEVIN TEMPERATURE   300
Info: LANGEVIN USING BBK INTEGRATOR
Info: LANGEVIN DAMPING COEFFICIENT IS 1 INVERSE PS
Info: LANGEVIN DYNAMICS APPLIED TO HYDROGENS
Info: LANGEVIN PISTON PRESSURE CONTROL ACTIVE
Info:        TARGET PRESSURE IS 1.01325 BAR
Info:     OSCILLATION PERIOD IS 50 FS
Info:             DECAY TIME IS 25 FS
Info:     PISTON TEMPERATURE IS 300 K
Info:       PRESSURE CONTROL IS GROUP-BASED
Info:    INITIAL STRAIN RATE IS 7.19736e-05 7.19736e-05 7.19736e-05
Info:       CELL FLUCTUATION IS ISOTROPIC
Info: PARTICLE MESH EWALD (PME) ACTIVE
Info: PME TOLERANCE               1e-06
Info: PME EWALD COEFFICIENT       0.348832
Info: PME INTERPOLATION ORDER     4
Info: PME GRID DIMENSIONS         32 32 36
Info: PME MAXIMUM GRID SPACING    1
Info: PME CALCULATION WILL BE PERFORMED ON GPU
Info: FULL ELECTROSTATIC EVALUATION FREQUENCY      2
Info: USING VERLET I (r-RESPA) MTS SCHEME.
Info: C1 SPLITTING OF LONG RANGE ELECTROSTATICS
Info: PLACING ATOMS IN PATCHES BY HYDROGEN GROUPS
Info: RIGID BONDS TO HYDROGEN : ALL
Info:         ERROR TOLERANCE : 1e-08
Info:          MAX ITERATIONS : 100
Info: RIGID WATER USING SETTLE ALGORITHM
Info: RANDOM NUMBER SEED     1743777681
Info: USE HYDROGEN BONDS?    NO
Info: Using AMBER format force field!
Info: AMBER PARM FILE        mobley_2126135.prmtop
Info: COORDINATE PDB         mobley_2126135.pdb
Info: Exclusions will be read from PARM file!
Info: SCNB (VDW SCALING)     2
Info: USING ARITHMETIC MEAN TO COMBINE L-J SIGMA PARAMETERS
Info: BINARY COORDINATES     mobley_2126135_equil.coor
Info: SUMMARY OF PARAMETERS:
Info: 9 BONDS
Info: 9 ANGLES
Info:   9 HARMONIC
Info:   0 COSINE-BASED
Info: 6 DIHEDRAL
Info: 0 IMPROPER
Info: 0 CROSSTERM
Info: 0 VDW
Info: 28 VDW_PAIRS
Info: 0 NBTHOLE_PAIRS
Info: To read alchdata from file: mobley_2126135.pdb
Info: To read alchflag data from column: 5
Info: STRUCTURE SUMMARY:
Info: 2989 ATOMS
Info: 2989 BONDS
Info: 31 ANGLES
Info: 47 DIHEDRALS
Info: 0 IMPROPERS
Info: 0 CROSSTERMS
Info: 3058 EXCLUSIONS
Info: 2980 RIGID BONDS
Info: ALCH: 0 ATOMS TO DISAPPEAR IN FINAL STATE
Info: ALCH: 19 ATOMS TO APPEAR IN FINAL STATE
Info: 5987 DEGREES OF FREEDOM
Info: 999 HYDROGEN GROUPS
Info: 4 ATOMS IN LARGEST HYDROGEN GROUP
Info: 999 MIGRATION GROUPS
Info: 4 ATOMS IN LARGEST MIGRATION GROUP
Info: TOTAL MASS = 17958 amu
Info: TOTAL CHARGE = -0.000100028 e
Info: MASS DENSITY = 0.971016 g/cm^3
Info: ATOM DENSITY = 0.0973274 atoms/A^3
Info: ADDED 0 IMPLICIT EXCLUSIONS
Info: NONBONDED TABLE R-SQUARED SPACING: 0.0625
Info: NONBONDED TABLE SIZE: 705 POINTS
Info: REMOVING COM VELOCITY 0.185762 0.0597426 -0.051992
Info: Use 3D box decompostion in PME FFT.
Info: Updated CUDA force table with 4096 elements.
Info: Updated CUDA LJ table with 7 x 7 elements.
Info: Found 18 unique exclusion lists needing 48 bytes
TCL: Running for 1500000 steps
ETITLE: TS BOND ANGLE DIHED IMPRP ELECT VDW BOUNDARY MISC KINETIC TOTAL TEMP POTENTIAL TOTALAVG TEMPAVG PRESSURE GPRESSURE VOLUME PRESSAVG GPRESSAVG
ENERGY: 0 2.1508 7.0815 6.6053 0.0000 -10865.6842 1502.4047 0.0000 0.0000 1783.5309 -7563.9110 299.8208 -9347.4419 -7563.9110 299.8208 271.5935 350.6463 30710.7841 271.5935 350.6463
ENERGY: 300000 7.0928 6.4020 3.8686 0.0000 -10852.8872 1436.1287 0.0000 0.0000 1792.1532 -7607.2419 301.2703 -9399.3951 -7601.0137 300.3718 -309.6431 -184.4151 30532.7654 225.6766 312.2025
ENERGY: 600000 3.7584 7.1223 3.8970 0.0000 -10881.6746 1494.9186 0.0000 0.0000 1821.9152 -7550.0632 306.2734 -9371.9784 -7587.1400 301.1563 210.5013 248.3915 30336.3826 86.4219 167.7439
ENERGY: 900000 2.4239 4.1167 3.5149 0.0000 -10851.1821 1538.3014 0.0000 0.0000 1784.0014 -7518.8237 299.8999 -9302.8251 -7567.2956 301.3661 878.5365 942.6632 30598.5260 293.0230 364.5755
ENERGY: 1200000 0.6636 5.8117 2.8418 0.0000 -10901.1118 1535.2694 0.0000 0.0000 1768.3052 -7588.2201 297.2613 -9356.5253 -7564.1731 301.8742 583.2436 643.1823 30851.1046 284.3027 350.3698
ENERGY: 1500000 3.0554 6.8620 2.7497 0.0000 -10904.7887 1523.4220 0.0000 0.0000 1788.0790 -7580.6205 300.5854 -9368.6995 -7563.9999 301.6012 477.4578 521.3854 30254.0657 242.1569 306.2029
TCL: Running FEP window   2: Lambda1 0.05   Lambda2 0.1    [dLambda 0.05  ]
TCL: Setting parameter firsttimestep to 0
TCL: Setting parameter alchLambda to 0.05
Info: NONBONDED TABLE R-SQUARED SPACING: 0.0625
Info: NONBONDED TABLE SIZE: 705 POINTS
TCL: Setting parameter alchLambda2 to 0.1
Info: NONBONDED TABLE R-SQUARED SPACING: 0.0625
Info: NONBONDED TABLE SIZE: 705 POINTS
TCL: Running for 1500000 steps
ETITLE: TS BOND ANGLE DIHED IMPRP ELECT VDW BOUNDARY MISC KINETIC TOTAL TEMP POTENTIAL TOTALAVG TEMPAVG PRESSURE GPRESSURE VOLUME PRESSAVG GPRESSAVG
ENERGY: 0 3.0554 6.8620 2.7497 0.0000 -10904.7885 1526.4971 0.0000 0.0000 1787.2034 -7578.4210 300.4382 -9365.6244 -7578.4210 300.4382 437.3160 528.0824 30254.0657 437.3160 528.0824
ENERGY: 300000 3.4207 4.6470 1.6477 0.0000 -10927.4832 1508.2157 0.0000 0.0000 1797.0728 -7612.4794 302.0973 -9409.5521 -7591.7052 299.6108 55.9450 80.8782 31012.4642 -117.2623 -50.6466
ENERGY: 600000 2.4565 4.5821 6.3273 0.0000 -10860.6546 1409.9998 0.0000 0.0000 1778.8829 -7658.4059 299.0395 -9437.2888 -7597.4451 299.5230 -450.4845 -330.8667 29915.7213 -182.7954 -112.0501
ENERGY: 900000 2.8026 5.6951 3.5702 0.0000 -10988.9603 1577.1915 0.0000 0.0000 1765.9861 -7633.7148 296.8714 -9399.7009 -7605.4890 298.1220 660.7127 769.7772 30037.9038 -143.3957 -76.4107
ENERGY: 1200000 1.3654 5.0887 4.7788 0.0000 -10898.7868 1527.7156 0.0000 0.0000 1809.6680 -7550.1704 304.2146 -9359.8384 -7590.9243 299.8266 327.2533 403.6790 30842.6302 -52.2764 18.8841
ENERGY: 1500000 1.8895 7.8434 3.9303 0.0000 -10746.4826 1406.6000 0.0000 0.0000 1809.6633 -7516.5561 304.2138 -9326.2194 -7587.3049 299.9303 -172.6546 -62.5449 30259.7605 -70.8972 3.9045
TCL: Running FEP window   3: Lambda1 0.1    Lambda2 0.15000000000000002 [dLambda 0.05000000000000002]
TCL: Setting parameter firsttimestep to 0
TCL: Setting parameter alchLambda to 0.1
Info: NONBONDED TABLE R-SQUARED SPACING: 0.0625
Info: NONBONDED TABLE SIZE: 705 POINTS
TCL: Setting parameter alchLambda2 to 0.15000000000000002
Info: NONBONDED TABLE R-SQUARED SPACING: 0.0625
Info: NONBONDED TABLE SIZE: 705 POINTS
TCL: Running for 1500000 steps
ETITLE: TS BOND ANGLE DIHED IMPRP ELECT VDW BOUNDARY MISC KINETIC TOTAL TEMP POTENTIAL TOTALAVG TEMPAVG PRESSURE GPRESSURE VOLUME PRESSAVG GPRESSAVG
ENERGY: 0 1.8895 7.8434 3.9303 0.0000 -10746.4839 1407.7648 0.0000 0.0000 1808.7720 -7516.2838 304.0640 -9325.0558 -7516.2838 304.0640 -134.7617 -53.5710 30259.7605 -134.7617 -53.5710
ENERGY: 300000 2.4571 5.1388 1.0312 0.0000 -10822.6777 1508.6042 0.0000 0.0000 1698.9762 -7606.4701 285.6067 -9305.4463 -7570.9218 298.8538 625.9786 640.9652 30704.8351 241.8227 277.7808
ENERGY: 600000 2.8613 5.1411 2.8423 0.0000 -10768.2249 1430.0871 0.0000 0.0000 1811.0103 -7516.2829 304.4402 -9327.2932 -7543.9577 300.2120 -302.2456 -192.8415 30717.2369 38.4206 92.3692
ENERGY: 900000 2.3690 7.8967 5.4670 0.0000 -10888.9277 1518.0562 0.0000 0.0000 1784.2871 -7570.8518 299.9479 -9355.1389 -7555.1577 299.9444 234.6841 303.1113 30820.2311 -3.2067 45.1422
ENERGY: 1200000 5.1328 6.5632 2.9336 0.0000 -10923.6591 1501.9591 0.0000 0.0000 1731.3531 -7675.7172 291.0494 -9407.0703 -7566.1424 298.9601 435.9205 602.1002 30020.5198 10.5316 77.4798
ENERGY: 1500000 1.8275 4.7345 2.9533 0.0000 -10966.1017 1482.0017 0.0000 0.0000 1750.7658 -7723.8189 294.3128 -9474.5847 -7576.7217 298.7355 -88.3786 11.7994 30164.1728 -49.3364 18.2051
TCL: Running FEP window   4: Lambda1 0.15000000000000002 Lambda2 0.2    [dLambda 0.04999999999999999]
TCL: Setting parameter firsttimestep to 0
TCL: Setting parameter alchLambda to 0.15000000000000002
Info: NONBONDED TABLE R-SQUARED SPACING: 0.0625
Info: NONBONDED TABLE SIZE: 705 POINTS
TCL: Setting parameter alchLambda2 to 0.2
Info: NONBONDED TABLE R-SQUARED SPACING: 0.0625
Info: NONBONDED TABLE SIZE: 705 POINTS
TCL: Running for 1500000 steps
ETITLE: TS BOND ANGLE DIHED IMPRP ELECT VDW BOUNDARY MISC KINETIC TOTAL TEMP POTENTIAL TOTALAVG TEMPAVG PRESSURE GPRESSURE VOLUME PRESSAVG GPRESSAVG
ENERGY: 0 1.8275 4.7345 2.9533 0.0000 -10966.1019 1483.9369 0.0000 0.0000 1749.8516 -7722.7981 294.1591 -9472.6497 -7722.7981 294.1591 -66.6403 22.6870 30164.1728 -66.6403 22.6870
ENERGY: 300000 3.4342 3.5421 2.0992 0.0000 -10653.7354 1346.9504 0.0000 0.0000 1771.3982 -7526.3112 297.7812 -9297.7094 -7587.8366 299.0550 -849.4553 -779.9796 30877.1450 -267.9240 -215.2953
ENERGY: 600000 2.2783 3.9039 2.4078 0.0000 -10687.1318 1345.7859 0.0000 0.0000 1740.2392 -7592.5167 292.5432 -9332.7559 -7580.7297 299.5189 -938.1972 -880.5905 31020.1036 -436.7697 -377.7691
ENERGY: 900000 7.9934 10.1812 3.9695 0.0000 -10787.3185 1443.6035 0.0000 0.0000 1827.4701 -7494.1008 307.2072 -9321.5709 -7563.3780 300.3146 -193.4061 -117.7273 30519.7436 -326.1317 -277.2342
ENERGY: 1200000 4.7428 8.3414 2.3915 0.0000 -10841.8953 1466.2577 0.0000 0.0000 1745.8054 -7614.3566 293.4789 -9360.1620 -7566.9853 299.4684 -54.1378 4.2291 30938.2568 -199.5426 -146.7907
ENERGY: 1500000 1.2565 8.6372 6.3871 0.0000 -10882.9890 1504.8640 0.0000 0.0000 1809.7126 -7552.1315 304.2221 -9361.8441 -7566.3866 299.9542 236.9054 379.6557 30787.4022 -138.0771 -79.6287
TCL: Running FEP window   5: Lambda1 0.2    Lambda2 0.25   [dLambda 0.04999999999999999]
TCL: Setting parameter firsttimestep to 0
TCL: Setting parameter alchLambda to 0.2
Info: NONBONDED TABLE R-SQUARED SPACING: 0.0625
Info: NONBONDED TABLE SIZE: 705 POINTS
TCL: Setting parameter alchLambda2 to 0.25
Info: NONBONDED TABLE R-SQUARED SPACING: 0.0625
Info: NONBONDED TABLE SIZE: 705 POINTS
TCL: Running for 1500000 steps
ETITLE: TS BOND ANGLE DIHED IMPRP ELECT VDW BOUNDARY MISC KINETIC TOTAL TEMP POTENTIAL TOTALAVG TEMPAVG PRESSURE GPRESSURE VOLUME PRESSAVG GPRESSAVG
ENERGY: 0 1.2565 8.6372 6.3871 0.0000 -10882.9900 1504.6286 0.0000 0.0000 1808.8140 -7553.2666 304.0710 -9362.0806 -7553.2666 304.0710 287.6610 380.9220 30787.4022 287.6610 380.9220
ENERGY: 300000 4.7225 4.8421 2.3840 0.0000 -10669.1533 1377.1626 0.0000 0.0000 1793.6590 -7486.3830 301.5234 -9280.0420 -7516.3578 304.0348 -295.3793 -364.3023 30950.6927 342.3014 387.4182
ENERGY: 600000 2.1666 8.0632 4.7255 0.0000 -10997.8790 1585.5360 0.0000 0.0000 1827.9945 -7569.3933 307.2954 -9397.3878 -7509.9475 303.2867 876.4048 934.5833 30521.3663 342.4126 399.9125
ENERGY: 900000 4.9388 7.4266 1.6620 0.0000 -10617.3782 1353.6332 0.0000 0.0000 1799.6231 -7450.0945 302.5260 -9249.7176 -7514.5473 303.5718 -1113.6137 -1081.1393 31686.7718 214.1815 266.7882
ENERGY: 1200000 4.6902 4.8606 3.5563 0.0000 -10674.9892 1343.1864 0.0000 0.0000 1768.3758 -7550.3198 297.2732 -9318.6956 -7533.2072 302.5565 -1000.9100 -967.5210 31058.5750 3.9713 51.4378
ENERGY: 1500000 4.1319 4.2233 2.3878 0.0000 -10877.3422 1506.9879 0.0000 0.0000 1765.4902 -7594.1212 296.7881 -9359.6113 -7537.4873 301.3885 337.0757 432.7740 30587.7020 58.4378 112.8340
TCL: Running FEP window   6: Lambda1 0.25   Lambda2 0.3    [dLambda 0.04999999999999999]
TCL: Setting parameter firsttimestep to 0
TCL: Setting parameter alchLambda to 0.25
Info: NONBONDED TABLE R-SQUARED SPACING: 0.0625
Info: NONBONDED TABLE SIZE: 705 POINTS
TCL: Setting parameter alchLambda2 to 0.3
Info: NONBONDED TABLE R-SQUARED SPACING: 0.0625
Info: NONBONDED TABLE SIZE: 705 POINTS
TCL: Running for 1500000 steps
ETITLE: TS BOND ANGLE DIHED IMPRP ELECT VDW BOUNDARY MISC KINETIC TOTAL TEMP POTENTIAL TOTALAVG TEMPAVG PRESSURE GPRESSURE VOLUME PRESSAVG GPRESSAVG
ENERGY: 0 4.1319 4.2233 2.3878 0.0000 -10877.3431 1506.7064 0.0000 0.0000 1764.5931 -7595.3006 296.6373 -9359.8937 -7595.3006 296.6373 339.0806 437.9495 30587.7020 339.0806 437.9495
ENERGY: 300000 2.9115 6.9485 2.6683 0.0000 -10659.7865 1347.8316 0.0000 0.0000 1724.3240 -7575.1025 289.8678 -9299.4265 -7557.6059 298.2402 -967.8609 -897.9572 31041.5366 11.8622 85.4388
ENERGY: 600000 0.7724 5.4341 2.2337 0.0000 -10751.9929 1419.6965 0.0000 0.0000 1753.6029 -7570.2534 294.7897 -9323.8563 -7582.9607 296.2167 -77.1199 -0.7342 30584.7308 116.7844 184.6079
ENERGY: 900000 3.5820 5.1969 2.1146 0.0000 -10783.4838 1455.5636 0.0000 0.0000 1750.4732 -7566.5536 294.2636 -9317.0267 -7581.5776 295.8496 248.6724 299.3152 30502.2783 -12.5852 53.3229
ENERGY: 1200000 2.5270 3.8582 4.1377 0.0000 -10942.0297 1525.7108 0.0000 0.0000 1825.3946 -7580.4014 306.8583 -9405.7959 -7579.3052 297.2049 354.1734 411.3912 30546.3447 -46.2306 13.4013
ENERGY: 1500000 3.0641 5.4393 5.0691 0.0000 -10773.7169 1425.7311 0.0000 0.0000 1824.8383 -7509.5751 306.7648 -9334.4134 -7580.0954 297.6189 -194.0771 -129.7626 30682.0022 -73.3887 -9.1856
TCL: Running FEP window   7: Lambda1 0.3    Lambda2 0.35   [dLambda 0.04999999999999999]
TCL: Setting parameter firsttimestep to 0
TCL: Setting parameter alchLambda to 0.3
Info: NONBONDED TABLE R-SQUARED SPACING: 0.0625
Info: NONBONDED TABLE SIZE: 705 POINTS
TCL: Setting parameter alchLambda2 to 0.35
Info: NONBONDED TABLE R-SQUARED SPACING: 0.0625
Info: NONBONDED TABLE SIZE: 705 POINTS
TCL: Running for 1500000 steps
ETITLE: TS BOND ANGLE DIHED IMPRP ELECT VDW BOUNDARY MISC KINETIC TOTAL TEMP POTENTIAL TOTALAVG TEMPAVG PRESSURE GPRESSURE VOLUME PRESSAVG GPRESSAVG
ENERGY: 0 3.0641 5.4393 5.0691 0.0000 -10773.7173 1425.7672 0.0000 0.0000 1823.9744 -7510.4033 306.6196 -9334.3777 -7510.4033 306.6196 -215.2286 -123.9559 30682.0022 -215.2286 -123.9559
ENERGY: 300000 2.9532 4.8326 5.4465 0.0000 -10829.2888 1461.0138 0.0000 0.0000 1785.8839 -7569.1588 300.2164 -9355.0427 -7555.8373 305.0673 -123.5735 -60.7051 30712.3889 207.1577 265.4415
ENERGY: 600000 2.2025 8.9893 3.6988 0.0000 -10925.3629 1535.8605 0.0000 0.0000 1778.9091 -7595.7027 299.0439 -9374.6118 -7565.4326 303.3880 722.3033 796.0513 30320.0104 148.5428 195.1780
ENERGY: 900000 4.9477 5.2182 3.7681 0.0000 -10697.5329 1328.1582 0.0000 0.0000 1779.7433 -7575.6973 299.1841 -9355.4406 -7575.8480 302.3844 -1081.1043 -1077.9579 30683.4101 38.2910 84.7656
ENERGY: 1200000 2.5876 6.4280 3.3123 0.0000 -10929.6215 1570.3446 0.0000 0.0000 1769.7031 -7577.2458 297.4963 -9346.9490 -7582.3196 301.2123 695.3407 688.8714 30921.0944 31.6630 73.0858
ENERGY: 1500000 2.3881 6.8435 1.5391 0.0000 -10805.5568 1446.0439 0.0000 0.0000 1788.9940 -7559.7481 300.7392 -9348.7422 -7581.1887 300.1902 -183.5663 -84.2882 30966.3300 -8.4816 35.1827
TCL: Running FEP window   8: Lambda1 0.35   Lambda2 0.39999999999999997 [dLambda 0.04999999999999999]
TCL: Setting parameter firsttimestep to 0
TCL: Setting parameter alchLambda to 0.35
Info: NONBONDED TABLE R-SQUARED SPACING: 0.0625
Info: NONBONDED TABLE SIZE: 705 POINTS
TCL: Setting parameter alchLambda2 to 0.39999999999999997
Info: NONBONDED TABLE R-SQUARED SPACING: 0.0625
Info: NONBONDED TABLE SIZE: 705 POINTS
TCL: Running for 1500000 steps
ETITLE: TS BOND ANGLE DIHED IMPRP ELECT VDW BOUNDARY MISC KINETIC TOTAL TEMP POTENTIAL TOTALAVG TEMPAVG PRESSURE GPRESSURE VOLUME PRESSAVG GPRESSAVG
ENERGY: 0 2.3881 6.8435 1.5392 0.0000 -10805.5563 1446.0881 0.0000 0.0000 1788.1338 -7560.5637 300.5946 -9348.6975 -7560.5637 300.5946 -152.0111 -80.0037 30966.3300 -152.0111 -80.0037
ENERGY: 300000 2.3909 4.7619 4.2959 0.0000 -10724.9717 1423.9663 0.0000 0.0000 1762.6531 -7526.9037 296.3111 -9289.5567 -7561.3627 299.0676 -184.7218 -194.4171 31108.1766 -188.7271 -139.8065
ENERGY: 600000 4.8050 4.8137 5.0517 0.0000 -10907.0672 1485.3258 0.0000 0.0000 1756.8940 -7650.1770 295.3430 -9407.0710 -7562.3870 299.7484 97.3773 222.1550 30353.9075 -249.1486 -186.0500
ENERGY: 900000 1.4840 5.6561 2.5123 0.0000 -10706.9693 1448.6922 0.0000 0.0000 1781.7392 -7466.8857 299.5196 -9248.6249 -7548.5565 299.0254 -282.1803 -230.8358 31411.1627 -235.6694 -175.1057
ENERGY: 1200000 3.1468 4.5555 3.4188 0.0000 -10845.3479 1490.8100 0.0000 0.0000 1835.9864 -7507.4305 308.6388 -9343.4168 -7543.5347 299.7454 522.6147 662.5039 29846.6295 -236.1976 -167.9795
ENERGY: 1500000 2.3128 9.9692 3.9772 0.0000 -10769.9575 1434.6342 0.0000 0.0000 1797.3768 -7521.6874 302.1484 -9319.0642 -7543.9944 300.4570 -126.3672 -72.0834 30822.3718 -225.6753 -155.7366
TCL: Running FEP window   9: Lambda1 0.39999999999999997 Lambda2 0.44999999999999996 [dLambda 0.04999999999999999]
TCL: Setting parameter firsttimestep to 0
TCL: Setting parameter alchLambda to 0.39999999999999997
Info: NONBONDED TABLE R-SQUARED SPACING: 0.0625
Info: NONBONDED TABLE SIZE: 705 POINTS
TCL: Setting parameter alchLambda2 to 0.44999999999999996
Info: NONBONDED TABLE R-SQUARED SPACING: 0.0625
Info: NONBONDED TABLE SIZE: 705 POINTS
TCL: Running for 1500000 steps
ETITLE: TS BOND ANGLE DIHED IMPRP ELECT VDW BOUNDARY MISC KINETIC TOTAL TEMP POTENTIAL TOTALAVG TEMPAVG PRESSURE GPRESSURE VOLUME PRESSAVG GPRESSAVG
ENERGY: 0 2.3128 9.9692 3.9772 0.0000 -10769.9575 1434.9843 0.0000 0.0000 1796.4685 -7522.2456 301.9957 -9318.7141 -7522.2456 301.9957 -157.9937 -65.0152 30822.3718 -157.9937 -65.0152
ENERGY: 300000 4.2306 7.6168 1.1293 0.0000 -10917.5602 1494.1467 0.0000 0.0000 1818.7868 -7591.6500 305.7475 -9410.4368 -7557.3526 305.3353 248.5281 303.1082 30583.7639 177.8311 242.9535
ENERGY: 600000 2.4504 6.4495 4.9602 0.0000 -10920.5390 1516.1120 0.0000 0.0000 1809.7567 -7580.8101 304.2295 -9390.5668 -7555.9454 304.5048 519.5539 520.2347 30361.5453 156.9461 222.6269
ENERGY: 900000 4.6523 4.5054 2.7511 0.0000 -10852.0891 1491.7382 0.0000 0.0000 1824.7147 -7523.7274 306.7440 -9348.4421 -7555.5696 304.0770 259.9504 362.0703 30578.0427 161.4098 225.5904
ENERGY: 1200000 3.2261 8.9087 4.4710 0.0000 -10692.8541 1376.7298 0.0000 0.0000 1818.3841 -7481.1345 305.6798 -9299.5186 -7549.3232 303.1661 -318.1094 -266.7874 30789.2401 -15.8689 43.8334
ENERGY: 1500000 2.0028 5.1477 3.4161 0.0000 -10755.5043 1428.5479 0.0000 0.0000 1761.9987 -7554.3911 296.2011 -9316.3898 -7552.4106 301.2750 -306.4823 -235.8654 30941.1756 -19.3389 39.5681
TCL: Running FEP window  10: Lambda1 0.44999999999999996 Lambda2 0.49999999999999994 [dLambda 0.04999999999999999]
TCL: Setting parameter firsttimestep to 0
TCL: Setting parameter alchLambda to 0.44999999999999996
Info: NONBONDED TABLE R-SQUARED SPACING: 0.0625
Info: NONBONDED TABLE SIZE: 705 POINTS
TCL: Setting parameter alchLambda2 to 0.49999999999999994
Info: NONBONDED TABLE R-SQUARED SPACING: 0.0625
Info: NONBONDED TABLE SIZE: 705 POINTS
TCL: Running for 1500000 steps
ETITLE: TS BOND ANGLE DIHED IMPRP ELECT VDW BOUNDARY MISC KINETIC TOTAL TEMP POTENTIAL TOTALAVG TEMPAVG PRESSURE GPRESSURE VOLUME PRESSAVG GPRESSAVG
ENERGY: 0 2.0028 5.1477 3.4161 0.0000 -10755.5044 1428.7825 0.0000 0.0000 1761.0705 -7555.0849 296.0451 -9316.1554 -7555.0849 296.0451 -303.4038 -222.0866 30941.1756 -303.4038 -222.0866
ENERGY: 300000 1.1881 5.0498 3.3855 0.0000 -10891.3014 1520.3305 0.0000 0.0000 1734.0090 -7627.3385 291.4959 -9361.3475 -7560.9420 298.9420 558.3347 611.7849 30480.7365 -15.6713 42.9161
ENERGY: 600000 0.8392 7.9710 5.6719 0.0000 -10823.7413 1478.2501 0.0000 0.0000 1784.5787 -7546.4304 299.9970 -9331.0092 -7542.9680 300.6886 182.8865 292.9810 30624.9782 24.8905 108.3549
ENERGY: 900000 2.9860 6.7105 6.7525 0.0000 -11113.2122 1573.3595 0.0000 0.0000 1751.8239 -7771.5798 294.4907 -9523.4037 -7577.7267 299.4145 520.6806 588.2508 30431.2460 151.3405 224.8370
ENERGY: 1200000 2.0558 6.5769 4.2289 0.0000 -10774.1605 1380.9977 0.0000 0.0000 1749.2419 -7631.0594 294.0567 -9380.3013 -7573.5730 298.9905 -761.3430 -694.5071 30916.2027 -20.0584 49.9987
ENERGY: 1500000 2.0330 4.6016 4.6119 0.0000 -10719.9848 1391.5298 0.0000 0.0000 1777.3054 -7539.9031 298.7743 -9317.2084 -7578.3179 298.0162 -316.8422 -338.6341 30723.6461 -68.6953 -6.9788
TCL: Running FEP window  11: Lambda1 0.49999999999999994 Lambda2 0.5499999999999999 [dLambda 0.04999999999999999]
TCL: Setting parameter firsttimestep to 0
TCL: Setting parameter alchLambda to 0.49999999999999994
Info: NONBONDED TABLE R-SQUARED SPACING: 0.0625
Info: NONBONDED TABLE SIZE: 705 POINTS
TCL: Setting parameter alchLambda2 to 0.5499999999999999
Info: NONBONDED TABLE R-SQUARED SPACING: 0.0625
Info: NONBONDED TABLE SIZE: 705 POINTS
TCL: Running for 1500000 steps
ETITLE: TS BOND ANGLE DIHED IMPRP ELECT VDW BOUNDARY MISC KINETIC TOTAL TEMP POTENTIAL TOTALAVG TEMPAVG PRESSURE GPRESSURE VOLUME PRESSAVG GPRESSAVG
ENERGY: 0 2.0330 4.6016 4.6119 0.0000 -10719.9858 1392.0263 0.0000 0.0000 1776.4557 -7540.2572 298.6314 -9316.7129 -7540.2572 298.6314 -400.5674 -325.9063 30723.6461 -400.5674 -325.9063
ENERGY: 300000 3.3647 5.1689 2.8334 0.0000 -10851.2639 1501.4115 0.0000 0.0000 1765.2125 -7573.2730 296.7414 -9338.4855 -7583.7111 299.5926 624.3816 724.0465 30079.0805 58.2217 124.9234
ENERGY: 600000 4.3081 7.9356 4.9322 0.0000 -10913.4220 1501.6262 0.0000 0.0000 1748.9553 -7645.6645 294.0085 -9394.6199 -7594.3066 299.0222 135.1258 204.2535 31042.5455 99.9447 159.5478
ENERGY: 900000 2.0391 7.3589 2.2466 0.0000 -10957.9905 1487.4231 0.0000 0.0000 1725.5038 -7733.4189 290.0662 -9458.9228 -7613.2821 296.2693 105.3863 196.5873 30130.1232 62.9927 132.1207
ENERGY: 1200000 1.3986 8.9112 6.8770 0.0000 -10895.8676 1511.3023 0.0000 0.0000 1802.3933 -7564.9852 302.9917 -9367.3785 -7606.9517 297.0744 269.6458 366.7490 30949.9478 40.8582 119.0528
ENERGY: 1500000 2.1466 4.9502 6.0941 0.0000 -10988.6283 1547.9765 0.0000 0.0000 1837.8185 -7589.6424 308.9468 -9427.4609 -7601.7293 298.3169 655.1398 708.0931 30536.5747 142.0678 217.3479
TCL: Running FEP window  12: Lambda1 0.5499999999999999 Lambda2 0.6    [dLambda 0.050000000000000044]
TCL: Setting parameter firsttimestep to 0
TCL: Setting parameter alchLambda to 0.5499999999999999
Info: NONBONDED TABLE R-SQUARED SPACING: 0.0625
Info: NONBONDED TABLE SIZE: 705 POINTS
TCL: Setting parameter alchLambda2 to 0.6
Info: NONBONDED TABLE R-SQUARED SPACING: 0.0625
Info: NONBONDED TABLE SIZE: 705 POINTS
TCL: Running for 1500000 steps
ETITLE: TS BOND ANGLE DIHED IMPRP ELECT VDW BOUNDARY MISC KINETIC TOTAL TEMP POTENTIAL TOTALAVG TEMPAVG PRESSURE GPRESSURE VOLUME PRESSAVG GPRESSAVG
ENERGY: 0 2.1466 4.9502 6.0941 0.0000 -10989.1580 1548.1578 0.0000 0.0000 1836.9435 -7590.8658 308.7997 -9427.8093 -7590.8658 308.7997 640.9280 715.4397 30536.5747 640.9280 715.4397
ENERGY: 300000 3.0928 6.3095 5.0838 0.0000 -10795.6874 1500.2527 0.0000 0.0000 1729.3179 -7551.6307 290.7073 -9280.9486 -7565.1407 299.5228 561.7077 630.2724 30570.2280 332.3259 381.1472
ENERGY: 600000 3.6279 5.2118 5.9655 0.0000 -10890.9361 1558.3310 0.0000 0.0000 1800.8822 -7516.9176 302.7376 -9317.7998 -7545.9854 300.6184 773.0158 829.3665 30826.3303 308.1963 348.4573
ENERGY: 900000 2.8209 6.1277 3.1272 0.0000 -10729.1591 1356.8814 0.0000 0.0000 1792.8352 -7567.3667 301.3849 -9360.2019 -7550.1224 300.4955 -974.0171 -884.4271 30898.1907 77.9245 134.0759
ENERGY: 1200000 1.8104 5.2761 4.3224 0.0000 -10847.0740 1460.0565 0.0000 0.0000 1815.4377 -7560.1709 305.1845 -9375.6087 -7561.1222 300.9043 -17.3773 122.5964 30772.8283 34.3116 95.8228
ENERGY: 1500000 2.7855 5.6886 2.3568 0.0000 -10832.8596 1437.1730 0.0000 0.0000 1772.9085 -7611.9473 298.0351 -9384.8558 -7559.6100 301.0373 -431.8742 -435.8194 31108.6799 -33.1015 23.8071
TCL: Running FEP window  13: Lambda1 0.6    Lambda2 0.65   [dLambda 0.050000000000000044]
TCL: Setting parameter firsttimestep to 0
TCL: Setting parameter alchLambda to 0.6
Info: NONBONDED TABLE R-SQUARED SPACING: 0.0625
Info: NONBONDED TABLE SIZE: 705 POINTS
TCL: Setting parameter alchLambda2 to 0.65
Info: NONBONDED TABLE R-SQUARED SPACING: 0.0625
Info: NONBONDED TABLE SIZE: 705 POINTS
TCL: Running for 1500000 steps
ETITLE: TS BOND ANGLE DIHED IMPRP ELECT VDW BOUNDARY MISC KINETIC TOTAL TEMP POTENTIAL TOTALAVG TEMPAVG PRESSURE GPRESSURE VOLUME PRESSAVG GPRESSAVG
ENERGY: 0 2.7855 5.6886 2.3568 0.0000 -10833.1520 1437.1946 0.0000 0.0000 1772.0220 -7613.1045 297.8861 -9385.1265 -7613.1045 297.8861 -510.5745 -427.2050 31108.6799 -510.5745 -427.2050
ENERGY: 300000 1.6907 7.6572 2.5838 0.0000 -11069.1323 1618.2777 0.0000 0.0000 1770.7125 -7668.2105 297.6660 -9438.9230 -7589.0615 300.1731 1184.9150 1266.8075 30257.4702 54.7951 115.4984
ENERGY: 600000 3.8353 6.3895 5.9378 0.0000 -10887.0106 1436.3702 0.0000 0.0000 1740.3681 -7694.1097 292.5649 -9434.4778 -7584.9107 298.4203 -532.1929 -475.1401 30856.6959 -194.5244 -129.7918
ENERGY: 900000 4.7536 5.8394 5.1055 0.0000 -10752.5036 1374.7790 0.0000 0.0000 1810.2155 -7551.8106 304.3066 -9362.0262 -7577.6027 299.8203 -720.0338 -681.6510 30954.9451 -103.4353 -40.0061
ENERGY: 1200000 3.6846 6.9212 3.3557 0.0000 -10850.8234 1458.7389 0.0000 0.0000 1803.9437 -7574.1793 303.2523 -9378.1230 -7573.6448 300.7050 205.8391 248.8832 30436.9154 -61.1460 -2.1476
ENERGY: 1500000 5.8305 6.6648 2.9816 0.0000 -10894.6613 1521.8406 0.0000 0.0000 1794.1089 -7563.2348 301.5990 -9357.3438 -7574.4447 300.4094 145.3628 201.0845 31016.9533 -95.1298 -40.2566
TCL: Running FEP window  14: Lambda1 0.65   Lambda2 0.7000000000000001 [dLambda 0.050000000000000044]
TCL: Setting parameter firsttimestep to 0
TCL: Setting parameter alchLambda to 0.65
Info: NONBONDED TABLE R-SQUARED SPACING: 0.0625
Info: NONBONDED TABLE SIZE: 705 POINTS
TCL: Setting parameter alchLambda2 to 0.7000000000000001
Info: NONBONDED TABLE R-SQUARED SPACING: 0.0625
Info: NONBONDED TABLE SIZE: 705 POINTS
TCL: Running for 1500000 steps
ETITLE: TS BOND ANGLE DIHED IMPRP ELECT VDW BOUNDARY MISC KINETIC TOTAL TEMP POTENTIAL TOTALAVG TEMPAVG PRESSURE GPRESSURE VOLUME PRESSAVG GPRESSAVG
ENERGY: 0 5.8305 6.6648 2.9816 0.0000 -10895.1075 1521.2842 0.0000 0.0000 1793.2361 -7565.1103 301.4523 -9358.3464 -7565.1103 301.4523 112.7332 201.2855 31016.9533 112.7332 201.2855
ENERGY: 300000 2.7634 3.3123 2.1483 0.0000 -10924.8962 1500.7341 0.0000 0.0000 1713.5047 -7702.4334 288.0490 -9415.9381 -7596.2216 297.6439 83.2937 190.3761 30711.2569 -163.0116 -82.2763
ENERGY: 600000 3.2715 5.1761 3.2827 0.0000 -10785.3183 1372.4279 0.0000 0.0000 1759.4000 -7641.7602 295.7643 -9401.1601 -7577.8445 298.4992 -809.2824 -688.8827 30457.5553 -248.8960 -165.3036
ENERGY: 900000 2.7777 4.5834 1.7074 0.0000 -10688.5572 1364.4568 0.0000 0.0000 1820.7269 -7494.3050 306.0737 -9315.0320 -7568.3176 300.8493 -801.5650 -755.7731 31175.4178 -236.6071 -157.9231
ENERGY: 1200000 3.3591 2.9593 3.2205 0.0000 -10879.5481 1428.0025 0.0000 0.0000 1762.1659 -7679.8408 296.2292 -9442.0067 -7566.3990 300.7797 -564.9585 -482.2510 30916.6916 -275.5409 -193.9946
ENERGY: 1500000 4.7078 7.0573 5.2519 0.0000 -10771.9893 1374.5418 0.0000 0.0000 1803.5861 -7576.8444 303.1922 -9380.4305 -7565.1273 300.4268 -541.9597 -512.7826 30801.6030 -269.4033 -190.7041
TCL: Running FEP window  15: Lambda1 0.7000000000000001 Lambda2 0.7500000000000001 [dLambda 0.050000000000000044]
TCL: Setting parameter firsttimestep to 0
TCL: Setting parameter alchLambda to 0.7000000000000001
Info: NONBONDED TABLE R-SQUARED SPACING: 0.0625
Info: NONBONDED TABLE SIZE: 705 POINTS
TCL: Setting parameter alchLambda2 to 0.7500000000000001
Info: NONBONDED TABLE R-SQUARED SPACING: 0.0625
Info: NONBONDED TABLE SIZE: 705 POINTS
TCL: Running for 1500000 steps
ETITLE: TS BOND ANGLE DIHED IMPRP ELECT VDW BOUNDARY MISC KINETIC TOTAL TEMP POTENTIAL TOTALAVG TEMPAVG PRESSURE GPRESSURE VOLUME PRESSAVG GPRESSAVG
ENERGY: 0 4.7078 7.0573 5.2519 0.0000 -10772.6707 1374.6229 0.0000 0.0000 1802.6702 -7578.3606 303.0382 -9381.0308 -7578.3606 303.0382 -582.9552 -503.3098 30801.6030 -582.9552 -503.3098
ENERGY: 300000 2.4868 7.8678 7.1705 0.0000 -10973.1439 1504.0753 0.0000 0.0000 1805.5790 -7645.9645 303.5272 -9451.5435 -7640.5658 299.3395 130.6550 175.4800 30455.1086 -373.6212 -319.3111
ENERGY: 600000 3.1977 9.4851 1.3192 0.0000 -10667.0048 1396.3805 0.0000 0.0000 1766.3329 -7490.2893 296.9297 -9256.6222 -7604.2438 297.4117 -259.3352 -234.9309 31032.7267 -283.6803 -246.4408
ENERGY: 900000 4.4759 4.9144 4.6030 0.0000 -10749.8589 1427.1921 0.0000 0.0000 1776.7834 -7531.8901 298.6865 -9308.6735 -7588.7898 297.7537 -259.7739 -178.8812 31045.1257 -198.9992 -155.9184
ENERGY: 1200000 3.5238 7.2323 5.2417 0.0000 -10784.7462 1447.2866 0.0000 0.0000 1796.9962 -7524.4656 302.0844 -9321.4617 -7578.8175 299.2543 160.8358 192.4844 30521.7976 -183.3481 -135.3936
ENERGY: 1500000 4.1488 8.6931 2.4926 0.0000 -10893.8612 1507.0517 0.0000 0.0000 1821.1199 -7550.3551 306.1397 -9371.4750 -7578.8660 299.7775 236.2771 367.4930 30769.1177 -210.6362 -152.5892
TCL: Running FEP window  16: Lambda1 0.7500000000000001 Lambda2 0.8000000000000002 [dLambda 0.050000000000000044]
TCL: Setting parameter firsttimestep to 0
TCL: Setting parameter alchLambda to 0.7500000000000001
Info: NONBONDED TABLE R-SQUARED SPACING: 0.0625
Info: NONBONDED TABLE SIZE: 705 POINTS
TCL: Setting parameter alchLambda2 to 0.8000000000000002
Info: NONBONDED TABLE R-SQUARED SPACING: 0.0625
Info: NONBONDED TABLE SIZE: 705 POINTS
TCL: Running for 1500000 steps
ETITLE: TS BOND ANGLE DIHED IMPRP ELECT VDW BOUNDARY MISC KINETIC TOTAL TEMP POTENTIAL TOTALAVG TEMPAVG PRESSURE GPRESSURE VOLUME PRESSAVG GPRESSAVG
ENERGY: 0 4.1488 8.6931 2.4926 0.0000 -10894.1820 1506.3533 0.0000 0.0000 1820.2350 -7552.2592 305.9909 -9372.4942 -7552.2592 305.9909 279.3992 367.2796 30769.1177 279.3992 367.2796
ENERGY: 300000 1.9713 6.1285 3.7017 0.0000 -10796.5857 1469.9926 0.0000 0.0000 1790.9914 -7523.8001 301.0749 -9314.7915 -7571.2601 303.7782 89.2174 238.0396 30993.3538 428.9469 519.3609
ENERGY: 600000 4.6361 4.9416 1.9328 0.0000 -10741.8608 1410.3128 0.0000 0.0000 1811.4837 -7508.5538 304.5198 -9320.0375 -7549.2995 302.1010 -245.3259 -204.6481 30576.4058 400.0192 468.7766
ENERGY: 900000 3.5982 3.7916 2.8596 0.0000 -10722.9292 1382.1645 0.0000 0.0000 1724.3030 -7606.2122 289.8643 -9330.5152 -7575.8264 299.8540 -598.1675 -528.5595 30922.5361 270.4240 346.1776
ENERGY: 1200000 5.9019 6.4547 2.9405 0.0000 -10585.6900 1305.8795 0.0000 0.0000 1801.3961 -7463.1174 302.8240 -9264.5135 -7561.7810 299.8950 -1167.9417 -1113.1161 31320.3697 55.1498 125.6035
ENERGY: 1500000 0.7326 5.3780 0.9389 0.0000 -10870.4612 1470.9583 0.0000 0.0000 1756.1960 -7636.2573 295.2257 -9392.4533 -7571.1959 299.2265 -202.2026 -102.9412 30871.6285 51.1214 113.4346
TCL: Running FEP window  17: Lambda1 0.8000000000000002 Lambda2 0.8500000000000002 [dLambda 0.050000000000000044]
TCL: Setting parameter firsttimestep to 0
TCL: Setting parameter alchLambda to 0.8000000000000002
Info: NONBONDED TABLE R-SQUARED SPACING: 0.0625
Info: NONBONDED TABLE SIZE: 705 POINTS
TCL: Setting parameter alchLambda2 to 0.8500000000000002
Info: NONBONDED TABLE R-SQUARED SPACING: 0.0625
Info: NONBONDED TABLE SIZE: 705 POINTS
TCL: Running for 1500000 steps
ETITLE: TS BOND ANGLE DIHED IMPRP ELECT VDW BOUNDARY MISC KINETIC TOTAL TEMP POTENTIAL TOTALAVG TEMPAVG PRESSURE GPRESSURE VOLUME PRESSAVG GPRESSAVG
ENERGY: 0 0.7326 5.3780 0.9389 0.0000 -10871.8613 1472.0746 0.0000 0.0000 1755.3048 -7637.4323 295.0759 -9392.7371 -7637.4323 295.0759 -167.8012 -83.1512 30871.6285 -167.8012 -83.1512
ENERGY: 300000 2.3439 7.6001 3.5108 0.0000 -10791.6516 1436.7764 0.0000 0.0000 1828.1848 -7513.2356 307.3273 -9341.4203 -7597.1632 299.1817 -9.8735 -1.4063 30727.7461 -4.8544 51.1758
ENERGY: 600000 3.3061 9.8789 3.6879 0.0000 -10883.1314 1447.5017 0.0000 0.0000 1805.0510 -7613.7057 303.4384 -9418.7567 -7579.1003 302.4569 -143.0269 -142.5283 30812.8332 -106.1880 -64.8467
ENERGY: 900000 1.9865 5.7772 4.5409 0.0000 -10760.6772 1383.5898 0.0000 0.0000 1776.2526 -7588.5302 298.5973 -9364.7828 -7586.8631 300.1610 -735.4136 -629.3949 30914.5179 -236.1026 -184.8713
ENERGY: 1200000 4.4885 5.4097 2.3910 0.0000 -10801.3863 1396.1929 0.0000 0.0000 1759.3542 -7633.5500 295.7566 -9392.9043 -7586.7595 300.0122 -546.8698 -446.7383 30508.2592 -232.2090 -174.6627
ENERGY: 1500000 4.0016 4.9156 4.5776 0.0000 -10794.9470 1455.4866 0.0000 0.0000 1812.6611 -7513.3045 304.7177 -9325.9655 -7580.8579 300.7050 22.0681 129.5842 30635.0749 -288.7716 -223.8719
TCL: Running FEP window  18: Lambda1 0.8500000000000002 Lambda2 0.9000000000000002 [dLambda 0.050000000000000044]
TCL: Setting parameter firsttimestep to 0
TCL: Setting parameter alchLambda to 0.8500000000000002
Info: NONBONDED TABLE R-SQUARED SPACING: 0.0625
Info: NONBONDED TABLE SIZE: 705 POINTS
TCL: Setting parameter alchLambda2 to 0.9000000000000002
Info: NONBONDED TABLE R-SQUARED SPACING: 0.0625
Info: NONBONDED TABLE SIZE: 705 POINTS
TCL: Running for 1500000 steps
ETITLE: TS BOND ANGLE DIHED IMPRP ELECT VDW BOUNDARY MISC KINETIC TOTAL TEMP POTENTIAL TOTALAVG TEMPAVG PRESSURE GPRESSURE VOLUME PRESSAVG GPRESSAVG
ENERGY: 0 4.0016 4.9156 4.5776 0.0000 -10796.3140 1456.2386 0.0000 0.0000 1811.8080 -7514.7726 304.5743 -9326.5806 -7514.7726 304.5743 49.1803 145.0355 30635.0749 49.1803 145.0355
ENERGY: 300000 2.9393 6.6776 1.5179 0.0000 -10843.2200 1476.2328 0.0000 0.0000 1740.9884 -7614.8640 292.6692 -9355.8524 -7541.3187 299.6842 12.4788 115.2777 30645.8673 76.1521 163.8914
ENERGY: 600000 2.1436 6.2789 6.1684 0.0000 -10858.5343 1500.4750 0.0000 0.0000 1785.3578 -7558.1106 300.1279 -9343.4684 -7548.0671 300.2260 520.9842 565.4082 30526.3024 41.3129 113.5705
ENERGY: 900000 2.8240 5.8229 4.3786 0.0000 -10769.8225 1452.2566 0.0000 0.0000 1829.7765 -7474.7639 307.5949 -9304.5404 -7539.8066 301.8727 -63.9928 0.4790 30933.9175 -32.9340 38.4800
ENERGY: 1200000 1.4020 5.7118 1.9105 0.0000 -10799.1955 1415.3908 0.0000 0.0000 1787.0809 -7587.6995 300.4176 -9374.7804 -7556.4898 301.2965 -358.1979 -332.3932 30907.4639 -83.6659 -23.2841
ENERGY: 1500000 1.7875 9.0635 3.0942 0.0000 -10809.3146 1486.3780 0.0000 0.0000 1763.3005 -7545.6910 296.4200 -9308.9915 -7555.1143 300.6426 675.8450 739.0107 30449.6477 1.3121 59.2931
TCL: Running FEP window  19: Lambda1 0.9000000000000002 Lambda2 0.9500000000000003 [dLambda 0.050000000000000044]
TCL: Setting parameter firsttimestep to 0
TCL: Setting parameter alchLambda to 0.9000000000000002
Info: NONBONDED TABLE R-SQUARED SPACING: 0.0625
Info: NONBONDED TABLE SIZE: 705 POINTS
TCL: Setting parameter alchLambda2 to 0.9500000000000003
Info: NONBONDED TABLE R-SQUARED SPACING: 0.0625
Info: NONBONDED TABLE SIZE: 705 POINTS
TCL: Running for 1500000 steps
ETITLE: TS BOND ANGLE DIHED IMPRP ELECT VDW BOUNDARY MISC KINETIC TOTAL TEMP POTENTIAL TOTALAVG TEMPAVG PRESSURE GPRESSURE VOLUME PRESSAVG GPRESSAVG
ENERGY: 0 1.7875 9.0635 3.0942 0.0000 -10810.4981 1486.5371 0.0000 0.0000 1762.4249 -7547.5910 296.2728 -9310.0159 -7547.5910 296.2728 676.3450 749.1599 30449.6477 676.3450 749.1599
ENERGY: 300000 3.9946 7.1112 3.1033 0.0000 -10644.4061 1378.8864 0.0000 0.0000 1723.5062 -7527.8044 289.7303 -9251.3107 -7549.5516 294.7210 -466.7145 -453.7902 31025.3346 99.6454 168.5782
ENERGY: 600000 3.4866 6.3363 4.2976 0.0000 -10862.4066 1458.1074 0.0000 0.0000 1811.8531 -7578.3256 304.5819 -9390.1787 -7564.4492 299.1507 -200.6891 -133.8707 31000.5056 153.2964 211.7472
ENERGY: 900000 2.2984 7.2501 8.0656 0.0000 -10768.6829 1409.4404 0.0000 0.0000 1815.3459 -7526.2826 305.1691 -9341.6285 -7560.1719 299.3433 -577.5804 -477.9046 31313.8909 -40.2724 24.6422
ENERGY: 1200000 3.8761 7.5301 3.9850 0.0000 -10733.8749 1416.2463 0.0000 0.0000 1789.6440 -7512.5934 300.8485 -9302.2374 -7551.9619 299.2705 -509.6197 -484.6009 31476.7863 -58.7169 1.3623
ENERGY: 1500000 4.0895 4.5541 2.6255 0.0000 -10791.7276 1431.7609 0.0000 0.0000 1789.4274 -7559.2703 300.8120 -9348.6976 -7563.8143 299.3375 319.4503 409.8062 30432.6296 -48.1115 15.7326
TCL: Running FEP window  20: Lambda1 0.9500000000000003 Lambda2 1.0    [dLambda 0.04999999999999971]
TCL: Setting parameter firsttimestep to 0
TCL: Setting parameter alchLambda to 0.9500000000000003
Info: NONBONDED TABLE R-SQUARED SPACING: 0.0625
Info: NONBONDED TABLE SIZE: 705 POINTS
TCL: Setting parameter alchLambda2 to 1.0
Info: NONBONDED TABLE R-SQUARED SPACING: 0.0625
Info: NONBONDED TABLE SIZE: 705 POINTS
TCL: Running for 1500000 steps
ETITLE: TS BOND ANGLE DIHED IMPRP ELECT VDW BOUNDARY MISC KINETIC TOTAL TEMP POTENTIAL TOTALAVG TEMPAVG PRESSURE GPRESSURE VOLUME PRESSAVG GPRESSAVG
ENERGY: 0 4.0895 4.5541 2.6255 0.0000 -10793.2587 1433.6941 0.0000 0.0000 1788.5449 -7559.7508 300.6637 -9348.2956 -7559.7508 300.6637 365.8150 446.7311 30432.6296 365.8150 446.7311
ENERGY: 300000 1.4787 6.5410 4.4631 0.0000 -10955.0294 1495.3296 0.0000 0.0000 1801.9355 -7645.2816 302.9147 -9447.2171 -7595.4404 300.8998 282.8747 313.4820 30613.9716 -34.8220 26.4894
ENERGY: 600000 1.8942 10.2375 5.8943 0.0000 -10782.3234 1419.2862 0.0000 0.0000 1826.9948 -7518.0163 307.1273 -9345.0111 -7583.8389 301.3662 -12.2486 45.0429 30703.6074 -118.7175 -43.0153
ENERGY: 900000 3.6670 6.3134 3.1421 0.0000 -10732.1081 1404.8959 0.0000 0.0000 1789.3287 -7524.7610 300.7954 -9314.0897 -7568.6337 302.1187 -183.8294 -146.9165 30802.6623 27.4151 86.9499
ENERGY: 1200000 2.9850 6.9322 2.0559 0.0000 -11005.6934 1544.4884 0.0000 0.0000 1777.5706 -7671.6613 298.8188 -9449.2319 -7582.5224 301.7274 595.0125 692.9257 30518.8804 66.6622 131.1765
ENERGY: 1500000 0.7733 7.3153 6.0291 0.0000 -10840.6153 1466.1612 0.0000 0.0000 1799.7824 -7560.5540 302.5528 -9360.3364 -7584.7515 301.1759 106.2314 178.2489 30986.5465 81.2817 143.5533
TCL: Exiting due to exit command.
