Info: SIMULATION PARAMETERS:
Info: TIMESTEP               2
Info: NUMBER OF STEPS        0
Info: STEPS PER CYCLE        10
Info: PERIODIC CELL BASIS 1  31.6914 0 0
Info: PERIODIC CELL BASIS 2  0 30.3289 0
Info: PERIODIC CELL BASIS 3  0 0 31.261
Info: PERIODIC CELL CENTER   0 0 0
Info: WRAPPING WATERS AROUND PERIODIC BOUNDARIES ON OUTPUT.
Info: WRAPPING ALL CLUSTERS AROUND PERIODIC BOUNDARIES ON OUTPUT.
Info: FIRST LDB TIMESTEP     50
Info: LAST LDB TIMESTEP     -1
Info: HOM BACKGROUND SCALING 1
Info: PME BACKGROUND SCALING 1
Info: MIN ATOMS PER PATCH    40
Info: EMPTY PATCH LOAD       40 ATOMS
Info: VELOCITY FILE          mobley_3083321_equil.vel
Info: CENTER OF MASS MOVING INITIALLY? NO
Info: DIELECTRIC             1
Info: EXCLUDE                SCALED ONE-FOUR
Info: 1-4 ELECTROSTATICS SCALED BY 0.833333
Info: MODIFIED 1-4 VDW PARAMETERS WILL BE USED
Info: DCD FILENAME           mobley_3083321_prod.dcd
Info: DCD FREQUENCY          100000
Info: DCD FIRST STEP         100000
Info: DCD FILE WILL CONTAIN UNIT CELL DATA
Info: XST FILENAME           mobley_3083321_prod.xst
Info: XST FREQUENCY          100000
Info: NO VELOCITY DCD OUTPUT
Info: NO FORCE DCD OUTPUT
Info: OUTPUT FILENAME        mobley_3083321_prod
Info: BINARY OUTPUT FILES WILL BE USED
Info: RESTART FILENAME       mobley_3083321_prod.restart
Info: RESTART FREQUENCY      100000
Info: BINARY RESTART FILES WILL BE USED
Info: CUTOFF                 9
Info: PAIRLIST DISTANCE      11
Info: PAIRLIST SHRINK RATE   0.01
Info: PAIRLIST GROW RATE     0.01
Info: PAIRLIST TRIGGER       0.3
Info: PAIRLISTS PER CYCLE    2
Info: PAIRLISTS ENABLED
Info: MARGIN                 2
Info: HYDROGEN GROUP CUTOFF  2.5
Info: PATCH DIMENSION        15.5
Info: ENERGY OUTPUT STEPS    100000
Info: ENERGY EVALUATION STEPS    100000
Info: OUTPUT ENERGY PRECISION 4
Info: CROSSTERM ENERGY INCLUDED IN DIHEDRAL
Info: TIMING OUTPUT STEPS    1000000
Info: PRESSURE OUTPUT STEPS  100000
Info: ALCHEMICAL FEP ON
Info: FEP CURRENT LAMBDA VALUE     1
Info: FEP COMPARISON LAMBDA VALUE  0.95
Info: FEP INTRA-ALCHEMICAL NON-BONDED INTERACTIONS WILL BE RETAINED
Info: FEP INTRA-ALCHEMICAL BONDED INTERACTIONS WILL BE RETAINED
Info: FEP VDW SHIFTING COEFFICIENT 5
Info: FEP ELEC. ACTIVE FOR ANNIHILATED PARTICLES BETWEEN LAMBDA = 0 AND LAMBDA = 0.5
Info: FEP ELEC. ACTIVE FOR EXNIHILATED PARTICLES BETWEEN LAMBDA = 0.5 AND LAMBDA = 1
Info: FEP VDW ACTIVE FOR ANNIHILATED PARTICLES BETWEEN LAMBDA = 0 AND LAMBDA = 1
Info: FEP VDW ACTIVE FOR EXNIHILATED PARTICLES BETWEEN LAMBDA = 0 AND LAMBDA = 1
Info: FEP BOND ACTIVE FOR ANNIHILATED PARTICLES BETWEEN LAMBDA = 1 AND LAMBDA = 1
Info: FEP BOND ACTIVE FOR EXNIHILATED PARTICLES BETWEEN LAMBDA = 0 AND LAMBDA = 0
Info: LANGEVIN DYNAMICS ACTIVE
Info: LANGEVIN TEMPERATURE   300
Info: LANGEVIN USING BBK INTEGRATOR
Info: LANGEVIN DAMPING COEFFICIENT IS 1 INVERSE PS
Info: LANGEVIN DYNAMICS APPLIED TO HYDROGENS
Info: LANGEVIN PISTON PRESSURE CONTROL ACTIVE
Info:        TARGET PRESSURE IS 1.01325 BAR
Info:     OSCILLATION PERIOD IS 50 FS
Info:             DECAY TIME IS 25 FS
Info:     PISTON TEMPERATURE IS 300 K
Info:       PRESSURE CONTROL IS GROUP-BASED
Info:    INITIAL STRAIN RATE IS 0.000165417 0.000165417 0.000165417
Info:       CELL FLUCTUATION IS ISOTROPIC
Info: PARTICLE MESH EWALD (PME) ACTIVE
Info: PME TOLERANCE               1e-06
Info: PME EWALD COEFFICIENT       0.348832
Info: PME INTERPOLATION ORDER     4
Info: PME GRID DIMENSIONS         32 32 32
Info: PME MAXIMUM GRID SPACING    1
Info: PME CALCULATION WILL BE PERFORMED ON GPU
Info: FULL ELECTROSTATIC EVALUATION FREQUENCY      2
Info: USING VERLET I (r-RESPA) MTS SCHEME.
Info: C1 SPLITTING OF LONG RANGE ELECTROSTATICS
Info: PLACING ATOMS IN PATCHES BY HYDROGEN GROUPS
Info: RIGID BONDS TO HYDROGEN : ALL
Info:         ERROR TOLERANCE : 1e-08
Info:          MAX ITERATIONS : 100
Info: RIGID WATER USING SETTLE ALGORITHM
Info: RANDOM NUMBER SEED     1743827617
Info: USE HYDROGEN BONDS?    NO
Info: Using AMBER format force field!
Info: AMBER PARM FILE        mobley_3083321.prmtop
Info: COORDINATE PDB         mobley_3083321.pdb
Info: Exclusions will be read from PARM file!
Info: SCNB (VDW SCALING)     2
Info: USING ARITHMETIC MEAN TO COMBINE L-J SIGMA PARAMETERS
Info: BINARY COORDINATES     mobley_3083321_equil.coor
Info: SUMMARY OF PARAMETERS:
Info: 5 BONDS
Info: 6 ANGLES
Info:   6 HARMONIC
Info:   0 COSINE-BASED
Info: 4 DIHEDRAL
Info: 0 IMPROPER
Info: 0 CROSSTERM
Info: 0 VDW
Info: 21 VDW_PAIRS
Info: 0 NBTHOLE_PAIRS
Info: To read alchdata from file: mobley_3083321.pdb
Info: To read alchflag data from column: 5
Info: STRUCTURE SUMMARY:
Info: 2920 ATOMS
Info: 2919 BONDS
Info: 20 ANGLES
Info: 16 DIHEDRALS
Info: 0 IMPROPERS
Info: 0 CROSSTERMS
Info: 2951 EXCLUSIONS
Info: 2915 RIGID BONDS
Info: ALCH: 0 ATOMS TO DISAPPEAR IN FINAL STATE
Info: ALCH: 13 ATOMS TO APPEAR IN FINAL STATE
Info: 5845 DEGREES OF FREEDOM
Info: 974 HYDROGEN GROUPS
Info: 4 ATOMS IN LARGEST HYDROGEN GROUP
Info: 974 MIGRATION GROUPS
Info: 4 ATOMS IN LARGEST MIGRATION GROUP
Info: TOTAL MASS = 17533.6 amu
Info: TOTAL CHARGE = 0.000200003 e
Info: MASS DENSITY = 0.96901 g/cm^3
Info: ATOM DENSITY = 0.0971808 atoms/A^3
Info: ADDED 0 IMPLICIT EXCLUSIONS
Info: NONBONDED TABLE R-SQUARED SPACING: 0.0625
Info: NONBONDED TABLE SIZE: 705 POINTS
Info: REMOVING COM VELOCITY -0.173863 0.118694 -0.109662
Info: Use 3D box decompostion in PME FFT.
Info: Updated CUDA force table with 4096 elements.
Info: Updated CUDA LJ table with 6 x 6 elements.
Info: Found 16 unique exclusion lists needing 28 bytes
TCL: Running for 1500000 steps
ETITLE: TS BOND ANGLE DIHED IMPRP ELECT VDW BOUNDARY MISC KINETIC TOTAL TEMP POTENTIAL TOTALAVG TEMPAVG PRESSURE GPRESSURE VOLUME PRESSAVG GPRESSAVG
ENERGY: 0 1.9315 6.0427 6.7156 0.0000 -10621.3587 1451.6421 0.0000 0.0000 1782.3411 -7372.6857 306.8999 -9155.0268 -7372.6857 306.8999 245.1831 337.3569 30047.0740 245.1831 337.3569
ENERGY: 300000 1.1530 5.1210 5.7866 0.0000 -10654.5703 1452.4913 0.0000 0.0000 1727.2559 -7462.7625 297.4148 -9190.0184 -7413.7669 299.3233 141.3063 205.1699 30179.0975 -99.8617 -32.7373
ENERGY: 600000 2.2651 3.1422 6.1172 0.0000 -10489.5183 1387.2168 0.0000 0.0000 1723.5269 -7367.2500 296.7727 -9090.7769 -7395.3626 300.7859 -122.5280 -88.8718 30166.6377 -85.0942 -38.9959
ENERGY: 900000 1.5472 4.2043 6.8005 0.0000 -10537.0233 1374.8024 0.0000 0.0000 1731.5329 -7418.1360 298.1512 -9149.6688 -7399.7376 301.0004 -377.2480 -343.3060 29989.2022 -116.7362 -70.1319
ENERGY: 1200000 0.1463 5.0804 8.2334 0.0000 -10589.5177 1465.8728 0.0000 0.0000 1783.5770 -7326.6079 307.1127 -9110.1849 -7394.4400 300.6838 629.8637 701.1655 29982.2675 -70.9811 -13.7648
ENERGY: 1500000 0.7608 6.1523 5.0087 0.0000 -10551.1003 1360.5053 0.0000 0.0000 1663.7931 -7514.8801 286.4872 -9178.6733 -7403.6064 299.6854 -702.1387 -606.6983 30184.7794 -80.0566 -24.7581
TCL: Running FEP window   2: Lambda1 0.95   Lambda2 0.8999999999999999 [dLambda -0.050000000000000044]
TCL: Setting parameter firsttimestep to 0
TCL: Setting parameter alchLambda to 0.95
Info: NONBONDED TABLE R-SQUARED SPACING: 0.0625
Info: NONBONDED TABLE SIZE: 705 POINTS
TCL: Setting parameter alchLambda2 to 0.8999999999999999
Info: NONBONDED TABLE R-SQUARED SPACING: 0.0625
Info: NONBONDED TABLE SIZE: 705 POINTS
TCL: Running for 1500000 steps
ETITLE: TS BOND ANGLE DIHED IMPRP ELECT VDW BOUNDARY MISC KINETIC TOTAL TEMP POTENTIAL TOTALAVG TEMPAVG PRESSURE GPRESSURE VOLUME PRESSAVG GPRESSAVG
ENERGY: 0 0.7608 6.1523 5.0087 0.0000 -10549.7376 1360.5595 0.0000 0.0000 1662.9257 -7514.3307 286.3378 -9177.2563 -7514.3307 286.3378 -713.2377 -614.3688 30184.7794 -713.2377 -614.3688
ENERGY: 300000 1.0226 4.2393 4.8531 0.0000 -10598.4632 1424.8797 0.0000 0.0000 1716.1569 -7447.3117 295.5036 -9163.4686 -7449.1321 293.5368 49.5809 122.1357 29796.5713 -278.2685 -205.5851
ENERGY: 600000 1.4528 6.8328 8.3575 0.0000 -10415.6892 1276.8728 0.0000 0.0000 1723.1633 -7399.0099 296.7101 -9122.1733 -7438.7952 294.1021 -1008.6311 -984.2540 30444.4631 -374.9435 -319.0017
ENERGY: 900000 2.0463 6.0889 5.4328 0.0000 -10639.8837 1476.2541 0.0000 0.0000 1757.6491 -7392.4125 302.6482 -9150.0616 -7439.0247 296.2989 209.0272 367.9514 30203.8982 -284.5646 -207.3291
ENERGY: 1200000 2.0300 5.0072 6.8353 0.0000 -10554.8111 1384.1763 0.0000 0.0000 1729.0160 -7427.7462 297.7178 -9156.7622 -7439.2661 296.4565 -538.6033 -472.7015 30543.0067 -312.9158 -240.6116
ENERGY: 1500000 1.1810 7.2826 5.8961 0.0000 -10598.8922 1438.8110 0.0000 0.0000 1752.2010 -7393.5205 301.7101 -9145.7215 -7429.3189 297.8873 184.2356 235.8224 29928.5630 -168.2231 -99.3172
TCL: Running FEP window   3: Lambda1 0.8999999999999999 Lambda2 0.8499999999999999 [dLambda -0.050000000000000044]
TCL: Setting parameter firsttimestep to 0
TCL: Setting parameter alchLambda to 0.8999999999999999
Info: NONBONDED TABLE R-SQUARED SPACING: 0.0625
Info: NONBONDED TABLE SIZE: 705 POINTS
TCL: Setting parameter alchLambda2 to 0.8499999999999999
Info: NONBONDED TABLE R-SQUARED SPACING: 0.0625
Info: NONBONDED TABLE SIZE: 705 POINTS
TCL: Running for 1500000 steps
ETITLE: TS BOND ANGLE DIHED IMPRP ELECT VDW BOUNDARY MISC KINETIC TOTAL TEMP POTENTIAL TOTALAVG TEMPAVG PRESSURE GPRESSURE VOLUME PRESSAVG GPRESSAVG
ENERGY: 0 1.1810 7.2826 5.8961 0.0000 -10597.2475 1438.9708 0.0000 0.0000 1751.3440 -7392.5730 301.5625 -9143.9170 -7392.5730 301.5625 156.4562 231.8313 29928.5630 156.4562 231.8313
ENERGY: 300000 0.5211 4.6237 9.8294 0.0000 -10540.9129 1457.1856 0.0000 0.0000 1715.2140 -7353.5391 295.3413 -9068.7531 -7385.3974 302.2737 275.0524 333.2484 30379.6534 -183.8244 -93.1621
ENERGY: 600000 1.5427 6.8896 5.6346 0.0000 -10637.9730 1470.6850 0.0000 0.0000 1779.5793 -7373.6417 306.4243 -9153.2210 -7399.0426 303.5595 338.7526 427.8195 30124.1766 217.9983 285.9550
ENERGY: 900000 2.3026 6.2482 5.0881 0.0000 -10597.9519 1389.3077 0.0000 0.0000 1744.2126 -7450.7926 300.3345 -9195.0052 -7416.4805 302.2724 -652.4214 -652.4979 30472.8865 197.0179 268.1810
ENERGY: 1200000 0.7844 3.4766 6.5154 0.0000 -10445.6614 1308.0801 0.0000 0.0000 1778.2952 -7348.5097 306.2032 -9126.8049 -7412.6606 301.3154 -816.3425 -762.8474 30353.8289 53.4572 115.7897
ENERGY: 1500000 0.8376 9.5581 6.9189 0.0000 -10532.6190 1374.1991 0.0000 0.0000 1764.4923 -7376.6129 303.8265 -9141.1053 -7408.1885 301.5260 -290.5326 -240.1404 29908.0777 24.3223 83.2034
TCL: Running FEP window   4: Lambda1 0.8499999999999999 Lambda2 0.7999999999999998 [dLambda -0.050000000000000044]
TCL: Setting parameter firsttimestep to 0
TCL: Setting parameter alchLambda to 0.8499999999999999
Info: NONBONDED TABLE R-SQUARED SPACING: 0.0625
Info: NONBONDED TABLE SIZE: 705 POINTS
TCL: Setting parameter alchLambda2 to 0.7999999999999998
Info: NONBONDED TABLE R-SQUARED SPACING: 0.0625
Info: NONBONDED TABLE SIZE: 705 POINTS
TCL: Running for 1500000 steps
ETITLE: TS BOND ANGLE DIHED IMPRP ELECT VDW BOUNDARY MISC KINETIC TOTAL TEMP POTENTIAL TOTALAVG TEMPAVG PRESSURE GPRESSURE VOLUME PRESSAVG GPRESSAVG
ENERGY: 0 0.8376 9.5581 6.9189 0.0000 -10531.5202 1374.2492 0.0000 0.0000 1763.6081 -7376.3484 303.6742 -9139.9564 -7376.3484 303.6742 -329.7459 -247.1472 29908.0777 -329.7459 -247.1472
ENERGY: 300000 0.2407 2.9404 5.4103 0.0000 -10639.7810 1477.2804 0.0000 0.0000 1716.2455 -7437.6636 295.5189 -9153.9091 -7412.6448 299.5923 334.3118 428.5290 29930.0149 -20.5387 51.7958
ENERGY: 600000 1.8812 4.5141 7.8939 0.0000 -10670.3882 1469.1574 0.0000 0.0000 1700.9008 -7486.0408 292.8767 -9186.9417 -7429.6723 298.6858 160.2106 235.2920 29894.0387 -8.8517 56.3911
ENERGY: 900000 3.4975 3.6526 3.6413 0.0000 -10300.9769 1272.2711 0.0000 0.0000 1696.5969 -7321.3176 292.1356 -9017.9145 -7414.6953 298.6440 -986.7853 -958.0486 30569.3330 -72.0400 -7.6905
ENERGY: 1200000 0.4535 7.0742 7.2557 0.0000 -10549.1231 1339.9925 0.0000 0.0000 1753.6482 -7440.6990 301.9593 -9194.3472 -7412.6375 299.6826 -696.7583 -704.2569 29904.3206 -61.6379 -1.2272
ENERGY: 1500000 0.3527 4.5493 5.2243 0.0000 -10621.5665 1435.9470 0.0000 0.0000 1712.1096 -7463.3837 294.8068 -9175.4932 -7420.8747 299.5329 315.2073 321.7511 29581.9759 -60.7957 -3.7238
TCL: Running FEP window   5: Lambda1 0.7999999999999998 Lambda2 0.7499999999999998 [dLambda -0.050000000000000044]
TCL: Setting parameter firsttimestep to 0
TCL: Setting parameter alchLambda to 0.7999999999999998
Info: NONBONDED TABLE R-SQUARED SPACING: 0.0625
Info: NONBONDED TABLE SIZE: 705 POINTS
TCL: Setting parameter alchLambda2 to 0.7499999999999998
Info: NONBONDED TABLE R-SQUARED SPACING: 0.0625
Info: NONBONDED TABLE SIZE: 705 POINTS
TCL: Running for 1500000 steps
ETITLE: TS BOND ANGLE DIHED IMPRP ELECT VDW BOUNDARY MISC KINETIC TOTAL TEMP POTENTIAL TOTALAVG TEMPAVG PRESSURE GPRESSURE VOLUME PRESSAVG GPRESSAVG
ENERGY: 0 0.3527 4.5493 5.2243 0.0000 -10620.1220 1434.8836 0.0000 0.0000 1711.2130 -7463.8992 294.6524 -9175.1122 -7463.8992 294.6524 227.7988 307.0443 29581.9759 227.7988 307.0443
ENERGY: 300000 4.2397 2.7603 6.3107 0.0000 -10504.4407 1453.5665 0.0000 0.0000 1736.2675 -7301.2960 298.9665 -9037.5635 -7408.8980 300.0721 274.1056 311.6302 30613.5431 -157.3510 -110.4163
ENERGY: 600000 2.2821 1.7914 5.6405 0.0000 -10609.9536 1446.2814 0.0000 0.0000 1715.3856 -7438.5726 295.3708 -9153.9582 -7415.6726 300.8640 78.0474 117.4014 30068.4019 9.8058 74.4257
ENERGY: 900000 0.7267 7.1584 6.0463 0.0000 -10625.4199 1407.9282 0.0000 0.0000 1802.1603 -7401.4001 310.3125 -9203.5603 -7407.7834 301.9963 -196.8755 -137.5471 29780.5133 -73.5509 -17.4893
ENERGY: 1200000 2.9916 8.4111 5.3822 0.0000 -10354.1792 1295.7126 0.0000 0.0000 1711.4053 -7330.2766 294.6855 -9041.6818 -7414.2426 300.6694 -1024.6952 -981.3478 30502.5430 -130.8047 -81.8034
ENERGY: 1500000 0.4433 3.6767 5.9073 0.0000 -10728.1057 1518.7607 0.0000 0.0000 1754.0269 -7445.2907 302.0245 -9199.3177 -7413.3392 301.7456 711.2768 747.9466 29937.3729 -94.4839 -46.4383
TCL: Running FEP window   6: Lambda1 0.7499999999999998 Lambda2 0.6999999999999997 [dLambda -0.050000000000000044]
TCL: Setting parameter firsttimestep to 0
TCL: Setting parameter alchLambda to 0.7499999999999998
Info: NONBONDED TABLE R-SQUARED SPACING: 0.0625
Info: NONBONDED TABLE SIZE: 705 POINTS
TCL: Setting parameter alchLambda2 to 0.6999999999999997
Info: NONBONDED TABLE R-SQUARED SPACING: 0.0625
Info: NONBONDED TABLE SIZE: 705 POINTS
TCL: Running for 1500000 steps
ETITLE: TS BOND ANGLE DIHED IMPRP ELECT VDW BOUNDARY MISC KINETIC TOTAL TEMP POTENTIAL TOTALAVG TEMPAVG PRESSURE GPRESSURE VOLUME PRESSAVG GPRESSAVG
ENERGY: 0 0.4433 3.6767 5.9073 0.0000 -10727.3784 1518.4465 0.0000 0.0000 1753.1442 -7445.7604 301.8725 -9198.9046 -7445.7604 301.8725 644.2210 737.3808 29937.3729 644.2210 737.3808
ENERGY: 300000 0.6333 3.8142 5.6855 0.0000 -10588.9292 1392.3107 0.0000 0.0000 1784.2993 -7402.1863 307.2370 -9186.4856 -7440.0387 298.9008 -405.8001 -278.6996 30389.2410 324.7045 419.3615
ENERGY: 600000 0.5474 5.9152 4.7804 0.0000 -10494.9764 1384.5033 0.0000 0.0000 1781.4127 -7317.8174 306.7400 -9099.2301 -7417.7718 298.2279 -391.6042 -299.7496 30462.9433 156.0917 259.1883
ENERGY: 900000 2.3125 4.5847 4.0992 0.0000 -10625.3600 1459.7427 0.0000 0.0000 1727.1951 -7427.4256 297.4043 -9154.6208 -7423.5334 297.1813 128.5021 167.0097 30218.6732 69.4375 159.3993
ENERGY: 1200000 1.8373 4.7882 5.0875 0.0000 -10655.0111 1422.5727 0.0000 0.0000 1785.8530 -7434.8725 307.5046 -9220.7255 -7427.9399 298.4660 -130.7057 -88.0914 30075.4815 103.6780 180.4531
ENERGY: 1500000 1.4379 3.2772 6.3568 0.0000 -10543.9074 1393.9007 0.0000 0.0000 1758.7567 -7380.1783 302.8389 -9138.9349 -7421.9495 299.9780 -330.6260 -234.3472 30351.9987 125.2152 203.3225
TCL: Running FEP window   7: Lambda1 0.6999999999999997 Lambda2 0.6499999999999997 [dLambda -0.050000000000000044]
TCL: Setting parameter firsttimestep to 0
TCL: Setting parameter alchLambda to 0.6999999999999997
Info: NONBONDED TABLE R-SQUARED SPACING: 0.0625
Info: NONBONDED TABLE SIZE: 705 POINTS
TCL: Setting parameter alchLambda2 to 0.6499999999999997
Info: NONBONDED TABLE R-SQUARED SPACING: 0.0625
Info: NONBONDED TABLE SIZE: 705 POINTS
TCL: Running for 1500000 steps
ETITLE: TS BOND ANGLE DIHED IMPRP ELECT VDW BOUNDARY MISC KINETIC TOTAL TEMP POTENTIAL TOTALAVG TEMPAVG PRESSURE GPRESSURE VOLUME PRESSAVG GPRESSAVG
ENERGY: 0 1.4379 3.2772 6.3568 0.0000 -10542.7857 1394.1739 0.0000 0.0000 1757.9315 -7379.6085 302.6968 -9137.5400 -7379.6085 302.6968 -313.9759 -237.3545 30351.9987 -313.9759 -237.3545
ENERGY: 300000 0.6574 4.2451 4.2720 0.0000 -10642.2516 1448.2978 0.0000 0.0000 1731.7336 -7453.0456 298.1858 -9184.7792 -7434.6897 298.4584 71.3407 130.2741 30264.9463 -73.5968 -15.3094
ENERGY: 600000 1.0259 5.5520 3.8808 0.0000 -10603.1827 1439.7088 0.0000 0.0000 1745.8619 -7407.1533 300.6185 -9153.0151 -7417.7389 300.0408 -86.5451 -17.9795 30451.1193 -41.4961 27.8012
ENERGY: 900000 0.9654 5.2451 3.8553 0.0000 -10536.9824 1365.6421 0.0000 0.0000 1718.8136 -7442.4610 295.9611 -9161.2745 -7419.1832 300.4997 -550.9282 -484.4295 30093.5138 -98.1324 -30.9127
ENERGY: 1200000 0.2289 6.4205 6.4516 0.0000 -10611.9499 1419.9498 0.0000 0.0000 1706.0698 -7472.8294 293.7668 -9178.8992 -7418.1963 300.7889 21.2526 56.1776 29876.3309 -83.9467 -18.9798
ENERGY: 1500000 1.8878 4.6831 4.1463 0.0000 -10579.2823 1414.7336 0.0000 0.0000 1689.8547 -7463.9769 290.9747 -9153.8316 -7420.1704 299.5397 148.7056 248.2869 29465.2033 -187.4137 -120.8081
TCL: Running FEP window   8: Lambda1 0.6499999999999997 Lambda2 0.5999999999999996 [dLambda -0.050000000000000044]
TCL: Setting parameter firsttimestep to 0
TCL: Setting parameter alchLambda to 0.6499999999999997
Info: NONBONDED TABLE R-SQUARED SPACING: 0.0625
Info: NONBONDED TABLE SIZE: 705 POINTS
TCL: Setting parameter alchLambda2 to 0.5999999999999996
Info: NONBONDED TABLE R-SQUARED SPACING: 0.0625
Info: NONBONDED TABLE SIZE: 705 POINTS
TCL: Running for 1500000 steps
ETITLE: TS BOND ANGLE DIHED IMPRP ELECT VDW BOUNDARY MISC KINETIC TOTAL TEMP POTENTIAL TOTALAVG TEMPAVG PRESSURE GPRESSURE VOLUME PRESSAVG GPRESSAVG
ENERGY: 0 1.8878 4.6831 4.1463 0.0000 -10578.0725 1414.2938 0.0000 0.0000 1689.0046 -7464.0570 290.8283 -9153.0615 -7464.0570 290.8283 149.8344 240.8326 29465.2033 149.8344 240.8326
ENERGY: 300000 0.6172 6.7239 4.6080 0.0000 -10533.9801 1381.4322 0.0000 0.0000 1686.8719 -7453.7268 290.4611 -9140.5987 -7447.4266 297.8446 -509.9377 -413.5704 30294.4100 12.7326 77.5360
ENERGY: 600000 0.9083 3.2334 5.4593 0.0000 -10496.5165 1343.1115 0.0000 0.0000 1735.4826 -7408.3213 298.8313 -9143.8039 -7422.9291 298.9854 -557.6970 -523.2534 30051.1059 -189.9791 -131.2561
ENERGY: 900000 1.5790 5.0667 6.2690 0.0000 -10623.2207 1435.5593 0.0000 0.0000 1701.7672 -7472.9796 293.0259 -9174.7468 -7428.9191 299.3370 101.5366 94.5583 30034.5550 -2.2781 54.4685
ENERGY: 1200000 0.7717 4.1369 4.7813 0.0000 -10592.3066 1422.2950 0.0000 0.0000 1752.9572 -7407.3644 301.8403 -9160.3217 -7424.3635 299.6577 -10.4198 2.8339 30042.6195 -123.1073 -63.8663
ENERGY: 1500000 0.6099 3.5025 4.2917 0.0000 -10683.2339 1468.8352 0.0000 0.0000 1764.7539 -7441.2406 303.8715 -9205.9945 -7417.8037 300.9186 539.7378 581.8882 29641.0181 -97.5820 -39.5583
TCL: Running FEP window   9: Lambda1 0.5999999999999996 Lambda2 0.5499999999999996 [dLambda -0.050000000000000044]
TCL: Setting parameter firsttimestep to 0
TCL: Setting parameter alchLambda to 0.5999999999999996
Info: NONBONDED TABLE R-SQUARED SPACING: 0.0625
Info: NONBONDED TABLE SIZE: 705 POINTS
TCL: Setting parameter alchLambda2 to 0.5499999999999996
Info: NONBONDED TABLE R-SQUARED SPACING: 0.0625
Info: NONBONDED TABLE SIZE: 705 POINTS
TCL: Running for 1500000 steps
ETITLE: TS BOND ANGLE DIHED IMPRP ELECT VDW BOUNDARY MISC KINETIC TOTAL TEMP POTENTIAL TOTALAVG TEMPAVG PRESSURE GPRESSURE VOLUME PRESSAVG GPRESSAVG
ENERGY: 0 0.6099 3.5025 4.2917 0.0000 -10682.7031 1469.0587 0.0000 0.0000 1763.8673 -7441.3730 303.7189 -9205.2403 -7441.3730 303.7189 504.3318 579.6000 29641.0181 504.3318 579.6000
ENERGY: 300000 0.8378 6.8937 6.4511 0.0000 -10689.3435 1488.5565 0.0000 0.0000 1717.9056 -7468.6988 295.8048 -9186.6044 -7401.1756 300.3654 0.5923 100.3351 30489.0154 161.0469 235.6188
ENERGY: 600000 0.0818 5.8286 5.1666 0.0000 -10453.7862 1343.9380 0.0000 0.0000 1770.6303 -7328.1408 304.8834 -9098.7711 -7384.0740 302.0729 -463.8505 -409.6059 30297.6460 92.3577 159.8745
ENERGY: 900000 1.2129 7.5418 3.6316 0.0000 -10625.7652 1482.5545 0.0000 0.0000 1803.3637 -7327.4606 310.5197 -9130.8243 -7396.2681 302.0061 366.4864 452.9105 30286.3905 176.0609 240.7295
ENERGY: 1200000 2.3840 6.3836 5.1444 0.0000 -10600.7711 1418.0769 0.0000 0.0000 1762.6932 -7406.0890 303.5167 -9168.7822 -7397.2684 301.9839 63.8926 181.7368 29921.5433 100.3540 167.6808
ENERGY: 1500000 0.7283 7.1261 6.9483 0.0000 -10576.8608 1403.5699 0.0000 0.0000 1746.1561 -7412.3322 300.6692 -9158.4883 -7397.8286 301.8908 -42.8612 -25.6207 29751.7873 80.2844 140.4776
TCL: Running FEP window  10: Lambda1 0.5499999999999996 Lambda2 0.4999999999999996 [dLambda -0.04999999999999999]
TCL: Setting parameter firsttimestep to 0
TCL: Setting parameter alchLambda to 0.5499999999999996
Info: NONBONDED TABLE R-SQUARED SPACING: 0.0625
Info: NONBONDED TABLE SIZE: 705 POINTS
TCL: Setting parameter alchLambda2 to 0.4999999999999996
Info: NONBONDED TABLE R-SQUARED SPACING: 0.0625
Info: NONBONDED TABLE SIZE: 705 POINTS
TCL: Running for 1500000 steps
ETITLE: TS BOND ANGLE DIHED IMPRP ELECT VDW BOUNDARY MISC KINETIC TOTAL TEMP POTENTIAL TOTALAVG TEMPAVG PRESSURE GPRESSURE VOLUME PRESSAVG GPRESSAVG
ENERGY: 0 0.7283 7.1261 6.9483 0.0000 -10576.6751 1403.8306 0.0000 0.0000 1745.2502 -7412.7916 300.5132 -9158.0418 -7412.7916 300.5132 -104.0732 -25.8980 29751.7873 -104.0732 -25.8980
ENERGY: 300000 1.0997 1.6200 5.3649 0.0000 -10555.1598 1420.6480 0.0000 0.0000 1754.7083 -7371.7189 302.1418 -9126.4272 -7403.5534 300.4263 -17.4605 82.6161 29954.1085 -98.1047 -20.6485
ENERGY: 600000 2.5334 4.2248 4.6712 0.0000 -10524.6722 1417.5787 0.0000 0.0000 1741.6340 -7354.0302 299.8905 -9095.6642 -7396.6084 298.7345 57.9102 98.4869 29969.5444 -61.0559 8.4544
ENERGY: 900000 0.9201 9.2932 5.1232 0.0000 -10548.4704 1411.0553 0.0000 0.0000 1755.9284 -7366.1502 302.3519 -9122.0786 -7403.0683 298.8157 -316.7477 -189.3698 30371.5052 -169.0140 -100.1725
ENERGY: 1200000 1.5294 5.8020 4.6535 0.0000 -10627.8883 1429.7304 0.0000 0.0000 1754.1591 -7432.0139 302.0472 -9186.1729 -7399.9332 299.6422 143.1386 140.7148 29653.4055 -200.6601 -143.0939
ENERGY: 1500000 1.0862 5.7315 4.0780 0.0000 -10526.3399 1374.7730 0.0000 0.0000 1753.0156 -7387.6556 301.8503 -9140.6712 -7392.9739 300.0978 -406.6638 -346.1430 30320.2418 -187.8152 -134.0211
TCL: Running FEP window  11: Lambda1 0.4999999999999996 Lambda2 0.4499999999999996 [dLambda -0.04999999999999999]
TCL: Setting parameter firsttimestep to 0
TCL: Setting parameter alchLambda to 0.4999999999999996
Info: NONBONDED TABLE R-SQUARED SPACING: 0.0625
Info: NONBONDED TABLE SIZE: 705 POINTS
TCL: Setting parameter alchLambda2 to 0.4499999999999996
Info: NONBONDED TABLE R-SQUARED SPACING: 0.0625
Info: NONBONDED TABLE SIZE: 705 POINTS
TCL: Running for 1500000 steps
ETITLE: TS BOND ANGLE DIHED IMPRP ELECT VDW BOUNDARY MISC KINETIC TOTAL TEMP POTENTIAL TOTALAVG TEMPAVG PRESSURE GPRESSURE VOLUME PRESSAVG GPRESSAVG
ENERGY: 0 1.0862 5.7315 4.0780 0.0000 -10526.2117 1375.2730 0.0000 0.0000 1752.1499 -7387.8932 301.7013 -9140.0431 -7387.8932 301.7013 -423.3113 -345.0917 30320.2418 -423.3113 -345.0917
ENERGY: 300000 0.9243 6.1151 4.7043 0.0000 -10576.8306 1379.6633 0.0000 0.0000 1704.9446 -7480.4791 293.5730 -9185.4237 -7429.1709 301.1183 -428.6694 -435.3442 29845.8954 -77.1724 -25.4577
ENERGY: 600000 1.4114 5.0092 4.0195 0.0000 -10451.8694 1322.8673 0.0000 0.0000 1791.1382 -7327.4239 308.4146 -9118.5620 -7411.4667 300.7222 -593.5064 -571.4834 30307.9100 -290.8744 -247.4855
ENERGY: 900000 0.7565 3.0023 5.6172 0.0000 -10550.7907 1375.9675 0.0000 0.0000 1763.9824 -7401.4647 303.7387 -9165.4471 -7413.0622 298.7651 -510.6460 -461.5477 30371.8881 -173.3209 -123.1023
ENERGY: 1200000 0.1484 6.2325 3.6929 0.0000 -10565.1016 1426.0782 0.0000 0.0000 1749.9400 -7379.0096 301.3207 -9128.9496 -7414.8773 298.3811 -35.8210 70.9777 30027.4414 -103.9225 -47.5015
ENERGY: 1500000 1.2239 7.5975 4.9557 0.0000 -10666.9748 1481.3627 0.0000 0.0000 1741.3172 -7430.5178 299.8360 -9171.8350 -7413.2535 298.5332 281.1230 341.0689 29965.3895 -13.3434 46.0946
TCL: Running FEP window  12: Lambda1 0.4499999999999996 Lambda2 0.39999999999999963 [dLambda -0.04999999999999999]
TCL: Setting parameter firsttimestep to 0
TCL: Setting parameter alchLambda to 0.4499999999999996
Info: NONBONDED TABLE R-SQUARED SPACING: 0.0625
Info: NONBONDED TABLE SIZE: 705 POINTS
TCL: Setting parameter alchLambda2 to 0.39999999999999963
Info: NONBONDED TABLE R-SQUARED SPACING: 0.0625
Info: NONBONDED TABLE SIZE: 705 POINTS
TCL: Running for 1500000 steps
ETITLE: TS BOND ANGLE DIHED IMPRP ELECT VDW BOUNDARY MISC KINETIC TOTAL TEMP POTENTIAL TOTALAVG TEMPAVG PRESSURE GPRESSURE VOLUME PRESSAVG GPRESSAVG
ENERGY: 0 1.2239 7.5975 4.9557 0.0000 -10666.9734 1481.4630 0.0000 0.0000 1740.4610 -7431.2723 299.6886 -9171.7333 -7431.2723 299.6886 260.0867 336.0907 29965.3895 260.0867 336.0907
ENERGY: 300000 2.1075 6.1777 4.9130 0.0000 -10496.2677 1342.9559 0.0000 0.0000 1754.2535 -7385.8601 302.0635 -9140.1136 -7395.5030 299.0905 -786.6143 -718.3251 30169.2502 -196.7381 -144.1446
ENERGY: 600000 1.7480 4.4614 4.6964 0.0000 -10576.6081 1445.9525 0.0000 0.0000 1758.4411 -7361.3088 302.7845 -9119.7498 -7403.9613 298.7804 -69.7562 38.6875 30038.1513 -109.9940 -41.8412
ENERGY: 900000 1.9637 5.3615 4.9351 0.0000 -10583.6816 1414.8226 0.0000 0.0000 1744.2865 -7412.3123 300.3473 -9156.5988 -7391.0567 299.9468 -126.4960 -71.4304 30090.3648 -107.3275 -41.2129
ENERGY: 1200000 1.0201 7.8678 6.8880 0.0000 -10648.9673 1416.7379 0.0000 0.0000 1739.7712 -7476.6822 299.5698 -9216.4534 -7397.1323 300.2949 -23.0099 13.1965 29709.7651 -141.0212 -77.4637
ENERGY: 1500000 0.2352 7.0723 4.0367 0.0000 -10488.6551 1369.2535 0.0000 0.0000 1746.2476 -7361.8097 300.6850 -9108.0573 -7396.7717 300.1836 -266.8712 -185.3103 30201.6087 -117.4629 -56.5707
TCL: Running FEP window  13: Lambda1 0.39999999999999963 Lambda2 0.34999999999999964 [dLambda -0.04999999999999999]
TCL: Setting parameter firsttimestep to 0
TCL: Setting parameter alchLambda to 0.39999999999999963
Info: NONBONDED TABLE R-SQUARED SPACING: 0.0625
Info: NONBONDED TABLE SIZE: 705 POINTS
TCL: Setting parameter alchLambda2 to 0.34999999999999964
Info: NONBONDED TABLE R-SQUARED SPACING: 0.0625
Info: NONBONDED TABLE SIZE: 705 POINTS
TCL: Running for 1500000 steps
ETITLE: TS BOND ANGLE DIHED IMPRP ELECT VDW BOUNDARY MISC KINETIC TOTAL TEMP POTENTIAL TOTALAVG TEMPAVG PRESSURE GPRESSURE VOLUME PRESSAVG GPRESSAVG
ENERGY: 0 0.2352 7.0723 4.0367 0.0000 -10488.6536 1369.5193 0.0000 0.0000 1745.3953 -7362.3947 300.5382 -9107.7901 -7362.3947 300.5382 -277.7193 -189.7151 30201.6087 -277.7193 -189.7151
ENERGY: 300000 0.5886 9.0005 5.7193 0.0000 -10447.1506 1380.3523 0.0000 0.0000 1728.8826 -7322.6074 297.6949 -9051.4900 -7352.1913 297.6252 -89.9495 2.9505 30135.7279 -114.2996 -43.7897
ENERGY: 600000 0.9397 4.6695 6.4235 0.0000 -10481.8625 1378.8726 0.0000 0.0000 1789.1374 -7301.8198 308.0701 -9090.9571 -7352.1710 300.2326 -145.5257 -51.9103 29889.5621 -91.4221 -13.5991
ENERGY: 900000 0.3564 4.9690 6.0727 0.0000 -10457.1763 1416.6193 0.0000 0.0000 1784.4505 -7244.7084 307.2631 -9029.1589 -7355.7520 301.1753 199.1992 253.4294 30292.4972 -158.0190 -100.3846
ENERGY: 1200000 3.1550 9.4337 4.7078 0.0000 -10394.4501 1346.4432 0.0000 0.0000 1763.9479 -7266.7624 303.7328 -9030.7103 -7358.8886 300.9739 -383.7429 -299.9485 30152.2393 -185.1153 -130.4571
ENERGY: 1500000 3.9674 3.8219 6.1424 0.0000 -10421.9602 1367.6887 0.0000 0.0000 1781.3961 -7258.9437 306.7371 -9040.3399 -7353.5967 302.2384 -380.3394 -315.7129 30446.3788 -183.3548 -122.9738
TCL: Running FEP window  14: Lambda1 0.34999999999999964 Lambda2 0.29999999999999966 [dLambda -0.04999999999999999]
TCL: Setting parameter firsttimestep to 0
TCL: Setting parameter alchLambda to 0.34999999999999964
Info: NONBONDED TABLE R-SQUARED SPACING: 0.0625
Info: NONBONDED TABLE SIZE: 705 POINTS
TCL: Setting parameter alchLambda2 to 0.29999999999999966
Info: NONBONDED TABLE R-SQUARED SPACING: 0.0625
Info: NONBONDED TABLE SIZE: 705 POINTS
TCL: Running for 1500000 steps
ETITLE: TS BOND ANGLE DIHED IMPRP ELECT VDW BOUNDARY MISC KINETIC TOTAL TEMP POTENTIAL TOTALAVG TEMPAVG PRESSURE GPRESSURE VOLUME PRESSAVG GPRESSAVG
ENERGY: 0 3.9674 3.8219 6.1424 0.0000 -10421.9596 1367.9945 0.0000 0.0000 1780.5070 -7259.5265 306.5840 -9040.0334 -7259.5265 306.5840 -404.0308 -316.5139 30446.3788 -404.0308 -316.5139
ENERGY: 300000 1.4434 5.8913 4.0282 0.0000 -10672.1320 1465.5278 0.0000 0.0000 1830.5858 -7364.6555 315.2071 -9195.2413 -7383.5315 303.4364 164.6761 179.3703 30200.7378 149.5548 210.7506
ENERGY: 600000 2.5554 7.2882 5.3504 0.0000 -10665.7491 1503.3292 0.0000 0.0000 1767.5025 -7379.7234 304.3448 -9147.2259 -7386.2199 303.2095 861.2067 870.2319 29793.5541 72.2654 116.0575
ENERGY: 900000 0.7150 6.5136 5.4922 0.0000 -10636.1514 1456.0271 0.0000 0.0000 1751.4579 -7415.9456 301.5821 -9167.4035 -7401.5407 303.2247 171.2554 215.2972 30222.7044 102.0616 144.8619
ENERGY: 1200000 1.7147 2.0036 6.1930 0.0000 -10506.6198 1390.0250 0.0000 0.0000 1757.0089 -7349.6746 302.5379 -9106.6835 -7405.8600 302.7755 -156.6031 -177.2904 30232.7689 -24.8301 17.1569
ENERGY: 1500000 0.9835 6.7702 7.5478 0.0000 -10512.7228 1373.7772 0.0000 0.0000 1756.1541 -7367.4899 302.3907 -9123.6440 -7408.3156 302.0698 -168.3721 -91.1556 29876.7159 -71.4963 -28.5620
TCL: Running FEP window  15: Lambda1 0.29999999999999966 Lambda2 0.24999999999999967 [dLambda -0.04999999999999999]
TCL: Setting parameter firsttimestep to 0
TCL: Setting parameter alchLambda to 0.29999999999999966
Info: NONBONDED TABLE R-SQUARED SPACING: 0.0625
Info: NONBONDED TABLE SIZE: 705 POINTS
TCL: Setting parameter alchLambda2 to 0.24999999999999967
Info: NONBONDED TABLE R-SQUARED SPACING: 0.0625
Info: NONBONDED TABLE SIZE: 705 POINTS
TCL: Running for 1500000 steps
ETITLE: TS BOND ANGLE DIHED IMPRP ELECT VDW BOUNDARY MISC KINETIC TOTAL TEMP POTENTIAL TOTALAVG TEMPAVG PRESSURE GPRESSURE VOLUME PRESSAVG GPRESSAVG
ENERGY: 0 0.9835 6.7702 7.5478 0.0000 -10512.7226 1373.9984 0.0000 0.0000 1755.3237 -7368.0990 302.2478 -9123.4226 -7368.0990 302.2478 -186.6818 -95.4696 29876.7159 -186.6818 -95.4696
ENERGY: 300000 1.1545 3.2851 4.0717 0.0000 -10442.2478 1380.6903 0.0000 0.0000 1726.2762 -7326.7700 297.2461 -9053.0462 -7331.8031 302.5535 -313.5176 -270.4483 30749.9746 24.3794 84.2719
ENERGY: 600000 0.7183 8.6405 3.7979 0.0000 -10635.7574 1493.3698 0.0000 0.0000 1730.4652 -7398.7657 297.9674 -9129.2309 -7369.6736 301.6179 727.4095 768.7676 29751.2721 144.1376 203.6273
ENERGY: 900000 1.2922 8.7898 5.5257 0.0000 -10435.4482 1364.0770 0.0000 0.0000 1803.3054 -7252.4580 310.5097 -9055.7634 -7363.9353 301.9732 -128.9383 -104.4661 30188.6465 -74.9737 -18.7875
ENERGY: 1200000 2.7190 8.1654 4.2345 0.0000 -10702.8307 1480.6705 0.0000 0.0000 1775.5336 -7431.5077 305.7277 -9207.0413 -7374.6953 302.0486 315.7682 379.2162 30037.5211 -129.5480 -70.8262
ENERGY: 1500000 1.8362 7.5853 4.5196 0.0000 -10493.4039 1382.8710 0.0000 0.0000 1728.2420 -7368.3498 297.5846 -9096.5918 -7378.7032 301.1052 -326.6843 -248.3848 30158.3001 -140.0478 -74.8204
TCL: Running FEP window  16: Lambda1 0.24999999999999967 Lambda2 0.19999999999999968 [dLambda -0.04999999999999999]
TCL: Setting parameter firsttimestep to 0
TCL: Setting parameter alchLambda to 0.24999999999999967
Info: NONBONDED TABLE R-SQUARED SPACING: 0.0625
Info: NONBONDED TABLE SIZE: 705 POINTS
TCL: Setting parameter alchLambda2 to 0.19999999999999968
Info: NONBONDED TABLE R-SQUARED SPACING: 0.0625
Info: NONBONDED TABLE SIZE: 705 POINTS
TCL: Running for 1500000 steps
ETITLE: TS BOND ANGLE DIHED IMPRP ELECT VDW BOUNDARY MISC KINETIC TOTAL TEMP POTENTIAL TOTALAVG TEMPAVG PRESSURE GPRESSURE VOLUME PRESSAVG GPRESSAVG
ENERGY: 0 1.8362 7.5853 4.5196 0.0000 -10493.4038 1382.7256 0.0000 0.0000 1727.3368 -7369.4003 297.4287 -9096.7370 -7369.4003 297.4287 -334.5623 -251.9067 30158.3001 -334.5623 -251.9067
ENERGY: 300000 0.4582 3.7589 5.4871 0.0000 -10641.8307 1495.6053 0.0000 0.0000 1723.1831 -7413.3380 296.7135 -9136.5211 -7422.7823 298.2406 418.9500 440.2039 30225.3223 329.4711 376.4925
ENERGY: 600000 0.3492 7.4174 7.3964 0.0000 -10631.6692 1424.8588 0.0000 0.0000 1782.3161 -7409.3313 306.8955 -9191.6474 -7423.2339 299.8548 -151.1343 -108.6765 30176.0949 239.1905 274.0325
ENERGY: 900000 1.2229 4.7640 4.9252 0.0000 -10678.2293 1513.2189 0.0000 0.0000 1751.2953 -7402.8030 301.5541 -9154.0983 -7402.6991 301.2624 643.5936 643.4183 30087.6530 149.1802 184.3150
ENERGY: 1200000 1.0945 7.7396 5.2321 0.0000 -10664.0996 1405.3306 0.0000 0.0000 1771.2342 -7473.4687 304.9874 -9244.7029 -7399.6262 301.0962 -409.3504 -311.3377 29646.1619 147.0570 195.6621
ENERGY: 1500000 1.5879 8.1360 5.5062 0.0000 -10589.8293 1455.3385 0.0000 0.0000 1801.5036 -7317.7571 310.1994 -9119.2606 -7408.4267 300.5487 228.3196 301.3528 30120.7302 155.2084 205.3588
TCL: Running FEP window  17: Lambda1 0.19999999999999968 Lambda2 0.1499999999999997 [dLambda -0.04999999999999999]
TCL: Setting parameter firsttimestep to 0
TCL: Setting parameter alchLambda to 0.19999999999999968
Info: NONBONDED TABLE R-SQUARED SPACING: 0.0625
Info: NONBONDED TABLE SIZE: 705 POINTS
TCL: Setting parameter alchLambda2 to 0.1499999999999997
Info: NONBONDED TABLE R-SQUARED SPACING: 0.0625
Info: NONBONDED TABLE SIZE: 705 POINTS
TCL: Running for 1500000 steps
ETITLE: TS BOND ANGLE DIHED IMPRP ELECT VDW BOUNDARY MISC KINETIC TOTAL TEMP POTENTIAL TOTALAVG TEMPAVG PRESSURE GPRESSURE VOLUME PRESSAVG GPRESSAVG
ENERGY: 0 1.5879 8.1360 5.5062 0.0000 -10589.8274 1455.7900 0.0000 0.0000 1800.6688 -7318.1384 310.0557 -9118.8072 -7318.1384 310.0557 223.4368 302.7080 30120.7302 223.4368 302.7080
ENERGY: 300000 0.3552 5.1069 3.8713 0.0000 -10692.3023 1486.0262 0.0000 0.0000 1825.2158 -7371.7268 314.2824 -9196.9427 -7377.4232 306.4177 489.7541 565.0389 29634.9732 159.6390 222.9187
ENERGY: 600000 0.8666 7.0985 4.3849 0.0000 -10549.3821 1378.5462 0.0000 0.0000 1767.3956 -7391.0902 304.3264 -9158.4858 -7366.4302 305.6814 -242.6591 -184.2249 29860.3573 285.1001 340.6461
ENERGY: 900000 2.0798 6.4932 4.2293 0.0000 -10542.0266 1348.5324 0.0000 0.0000 1749.4765 -7431.2153 301.2409 -9180.6917 -7368.9483 305.4368 -736.8506 -713.6743 29875.6666 56.0834 96.5112
ENERGY: 1200000 0.2769 4.7351 5.0476 0.0000 -10610.8464 1395.0371 0.0000 0.0000 1711.7885 -7493.9612 294.7515 -9205.7497 -7388.8971 303.3388 -448.8292 -384.8940 30047.7533 -12.3247 34.2143
ENERGY: 1500000 0.5756 6.9981 5.0155 0.0000 -10518.5612 1432.4404 0.0000 0.0000 1751.2624 -7322.2692 301.5484 -9073.5316 -7380.0633 304.0925 19.0178 28.9841 30542.1596 -3.4601 37.5176
TCL: Running FEP window  18: Lambda1 0.1499999999999997 Lambda2 0.09999999999999969 [dLambda -0.05 ]
TCL: Setting parameter firsttimestep to 0
TCL: Setting parameter alchLambda to 0.1499999999999997
Info: NONBONDED TABLE R-SQUARED SPACING: 0.0625
Info: NONBONDED TABLE SIZE: 705 POINTS
TCL: Setting parameter alchLambda2 to 0.09999999999999969
Info: NONBONDED TABLE R-SQUARED SPACING: 0.0625
Info: NONBONDED TABLE SIZE: 705 POINTS
TCL: Running for 1500000 steps
ETITLE: TS BOND ANGLE DIHED IMPRP ELECT VDW BOUNDARY MISC KINETIC TOTAL TEMP POTENTIAL TOTALAVG TEMPAVG PRESSURE GPRESSURE VOLUME PRESSAVG GPRESSAVG
ENERGY: 0 0.5756 6.9981 5.0155 0.0000 -10518.5613 1432.0908 0.0000 0.0000 1750.3367 -7323.5445 301.3891 -9073.8812 -7323.5445 301.3891 -44.3515 25.6199 30542.1596 -44.3515 25.6199
ENERGY: 300000 0.7840 4.8057 6.5031 0.0000 -10554.7531 1427.5192 0.0000 0.0000 1710.2464 -7404.8949 294.4859 -9115.1412 -7391.8448 299.7006 -100.5731 -8.0784 30279.4669 -281.8354 -204.6341
ENERGY: 600000 0.9614 6.3032 4.4789 0.0000 -10512.3347 1379.3387 0.0000 0.0000 1719.4639 -7401.7884 296.0731 -9121.2523 -7391.0709 298.7395 -75.8074 -61.8241 29847.0668 -280.3942 -230.9209
ENERGY: 900000 2.4508 11.4593 4.5449 0.0000 -10628.1957 1450.3406 0.0000 0.0000 1692.5143 -7466.8858 291.4327 -9159.4001 -7401.3890 297.8345 244.2533 252.4895 29890.9328 -239.4810 -192.2214
ENERGY: 1200000 0.9667 8.6581 4.8614 0.0000 -10635.9775 1457.9587 0.0000 0.0000 1732.6087 -7430.9239 298.3365 -9163.5326 -7413.8780 297.4797 342.6491 354.9993 29667.5868 -250.9302 -203.1144
ENERGY: 1500000 0.5032 5.6496 5.2051 0.0000 -10617.6872 1401.1169 0.0000 0.0000 1741.1147 -7464.0976 299.8011 -9205.2124 -7409.5002 298.2807 -266.5676 -206.0675 29649.9093 -208.7253 -151.8111
TCL: Running FEP window  19: Lambda1 0.09999999999999969 Lambda2 0.049999999999999684 [dLambda -0.05 ]
TCL: Setting parameter firsttimestep to 0
TCL: Setting parameter alchLambda to 0.09999999999999969
Info: NONBONDED TABLE R-SQUARED SPACING: 0.0625
Info: NONBONDED TABLE SIZE: 705 POINTS
TCL: Setting parameter alchLambda2 to 0.049999999999999684
Info: NONBONDED TABLE R-SQUARED SPACING: 0.0625
Info: NONBONDED TABLE SIZE: 705 POINTS
TCL: Running for 1500000 steps
ETITLE: TS BOND ANGLE DIHED IMPRP ELECT VDW BOUNDARY MISC KINETIC TOTAL TEMP POTENTIAL TOTALAVG TEMPAVG PRESSURE GPRESSURE VOLUME PRESSAVG GPRESSAVG
ENERGY: 0 0.5032 5.6496 5.2051 0.0000 -10617.6872 1401.0217 0.0000 0.0000 1740.2467 -7465.0609 299.6517 -9205.3076 -7465.0609 299.6517 -283.2553 -209.9275 29649.9093 -283.2553 -209.9275
ENERGY: 300000 1.8647 4.4505 6.0693 0.0000 -10748.0862 1477.1793 0.0000 0.0000 1745.5753 -7512.9472 300.5692 -9258.5224 -7410.9096 301.9667 206.3590 279.0424 29545.5105 -99.8748 -31.2340
ENERGY: 600000 1.7574 4.7653 5.8812 0.0000 -10571.9562 1447.2601 0.0000 0.0000 1704.6503 -7407.6419 293.5223 -9112.2922 -7415.3310 299.7795 174.8152 240.9082 30048.2125 80.8924 146.6564
ENERGY: 900000 0.7275 6.6242 5.2156 0.0000 -10612.5378 1432.7481 0.0000 0.0000 1743.7621 -7423.4603 300.2570 -9167.2224 -7403.8963 299.8368 125.0466 164.0783 29688.5689 -5.6985 59.0038
ENERGY: 1200000 0.9261 6.5038 4.2446 0.0000 -10609.4579 1432.3229 0.0000 0.0000 1735.4903 -7429.9703 298.8327 -9165.4605 -7413.4366 299.3988 -254.3096 -192.0834 30169.0429 -9.0264 50.0401
ENERGY: 1500000 2.7817 3.9380 4.2869 0.0000 -10623.5787 1453.1264 0.0000 0.0000 1698.4277 -7461.0180 292.4509 -9159.4457 -7409.7936 298.8512 22.3906 -7.5905 30007.2526 -49.6101 0.2779
TCL: Running FEP window  20: Lambda1 0.049999999999999684 Lambda2 0.0    [dLambda -0.049999999999999684]
TCL: Setting parameter firsttimestep to 0
TCL: Setting parameter alchLambda to 0.049999999999999684
Info: NONBONDED TABLE R-SQUARED SPACING: 0.0625
Info: NONBONDED TABLE SIZE: 705 POINTS
TCL: Setting parameter alchLambda2 to 0.0
Info: NONBONDED TABLE R-SQUARED SPACING: 0.0625
Info: NONBONDED TABLE SIZE: 705 POINTS
TCL: Running for 1500000 steps
ETITLE: TS BOND ANGLE DIHED IMPRP ELECT VDW BOUNDARY MISC KINETIC TOTAL TEMP POTENTIAL TOTALAVG TEMPAVG PRESSURE GPRESSURE VOLUME PRESSAVG GPRESSAVG
ENERGY: 0 2.7817 3.9380 4.2869 0.0000 -10623.5791 1453.4457 0.0000 0.0000 1697.5543 -7461.5725 292.3005 -9159.1268 -7461.5725 292.3005 -79.8172 -6.6069 30007.2526 -79.8172 -6.6069
ENERGY: 300000 1.5014 6.9156 5.4106 0.0000 -10557.7402 1415.5216 0.0000 0.0000 1709.8238 -7418.5672 294.4132 -9128.3910 -7412.2754 296.0490 -193.1843 -92.8890 30284.2457 -231.0747 -158.0295
ENERGY: 600000 1.2010 3.9126 5.6397 0.0000 -10461.7147 1346.4999 0.0000 0.0000 1752.1751 -7352.2864 301.7056 -9104.4616 -7386.7248 297.8818 -629.0640 -565.7684 30094.0257 -115.4183 -58.3112
ENERGY: 900000 0.9546 5.0248 6.4530 0.0000 -10710.0347 1478.4761 0.0000 0.0000 1725.1839 -7493.9422 297.0580 -9219.1261 -7417.7560 297.2991 141.1481 264.0617 29863.0416 7.6190 64.4425
ENERGY: 1200000 3.6939 7.5878 5.6928 0.0000 -10631.0278 1435.5140 0.0000 0.0000 1751.2617 -7427.2775 301.5483 -9178.5393 -7421.4562 298.2389 -158.7714 -119.4339 30304.5919 27.2079 81.8791
ENERGY: 1500000 2.0267 5.9215 5.6255 0.0000 -10674.6859 1421.4792 0.0000 0.0000 1769.8475 -7469.7856 304.7486 -9239.6331 -7422.4098 299.4058 -205.5092 -169.0434 29828.2527 -11.7896 48.0018
TCL: Exiting due to exit command.
