Info: SIMULATION PARAMETERS:
Info: TIMESTEP               2
Info: NUMBER OF STEPS        0
Info: STEPS PER CYCLE        10
Info: PERIODIC CELL BASIS 1  30.4857 0 0
Info: PERIODIC CELL BASIS 2  0 30.3904 0
Info: PERIODIC CELL BASIS 3  0 0 33.1487
Info: PERIODIC CELL CENTER   0 0 0
Info: WRAPPING WATERS AROUND PERIODIC BOUNDARIES ON OUTPUT.
Info: WRAPPING ALL CLUSTERS AROUND PERIODIC BOUNDARIES ON OUTPUT.
Info: FIRST LDB TIMESTEP     50
Info: LAST LDB TIMESTEP     -1
Info: HOM BACKGROUND SCALING 1
Info: PME BACKGROUND SCALING 1
Info: MIN ATOMS PER PATCH    40
Info: EMPTY PATCH LOAD       40 ATOMS
Info: VELOCITY FILE          mobley_7943327_equil.vel
Info: CENTER OF MASS MOVING INITIALLY? NO
Info: DIELECTRIC             1
Info: EXCLUDE                SCALED ONE-FOUR
Info: 1-4 ELECTROSTATICS SCALED BY 0.833333
Info: MODIFIED 1-4 VDW PARAMETERS WILL BE USED
Info: DCD FILENAME           mobley_7943327_prod.dcd
Info: DCD FREQUENCY          100000
Info: DCD FIRST STEP         100000
Info: DCD FILE WILL CONTAIN UNIT CELL DATA
Info: XST FILENAME           mobley_7943327_prod.xst
Info: XST FREQUENCY          100000
Info: NO VELOCITY DCD OUTPUT
Info: NO FORCE DCD OUTPUT
Info: OUTPUT FILENAME        mobley_7943327_prod
Info: BINARY OUTPUT FILES WILL BE USED
Info: RESTART FILENAME       mobley_7943327_prod.restart
Info: RESTART FREQUENCY      100000
Info: BINARY RESTART FILES WILL BE USED
Info: CUTOFF                 9
Info: PAIRLIST DISTANCE      11
Info: PAIRLIST SHRINK RATE   0.01
Info: PAIRLIST GROW RATE     0.01
Info: PAIRLIST TRIGGER       0.3
Info: PAIRLISTS PER CYCLE    2
Info: PAIRLISTS ENABLED
Info: MARGIN                 2
Info: HYDROGEN GROUP CUTOFF  2.5
Info: PATCH DIMENSION        15.5
Info: ENERGY OUTPUT STEPS    100000
Info: ENERGY EVALUATION STEPS    100000
Info: OUTPUT ENERGY PRECISION 4
Info: CROSSTERM ENERGY INCLUDED IN DIHEDRAL
Info: TIMING OUTPUT STEPS    1000000
Info: PRESSURE OUTPUT STEPS  100000
Info: ALCHEMICAL FEP ON
Info: FEP CURRENT LAMBDA VALUE     0
Info: FEP COMPARISON LAMBDA VALUE  0.05
Info: FEP INTRA-ALCHEMICAL NON-BONDED INTERACTIONS WILL BE RETAINED
Info: FEP INTRA-ALCHEMICAL BONDED INTERACTIONS WILL BE RETAINED
Info: FEP VDW SHIFTING COEFFICIENT 5
Info: FEP ELEC. ACTIVE FOR ANNIHILATED PARTICLES BETWEEN LAMBDA = 0 AND LAMBDA = 0.5
Info: FEP ELEC. ACTIVE FOR EXNIHILATED PARTICLES BETWEEN LAMBDA = 0.5 AND LAMBDA = 1
Info: FEP VDW ACTIVE FOR ANNIHILATED PARTICLES BETWEEN LAMBDA = 0 AND LAMBDA = 1
Info: FEP VDW ACTIVE FOR EXNIHILATED PARTICLES BETWEEN LAMBDA = 0 AND LAMBDA = 1
Info: FEP BOND ACTIVE FOR ANNIHILATED PARTICLES BETWEEN LAMBDA = 1 AND LAMBDA = 1
Info: FEP BOND ACTIVE FOR EXNIHILATED PARTICLES BETWEEN LAMBDA = 0 AND LAMBDA = 0
Info: LANGEVIN DYNAMICS ACTIVE
Info: LANGEVIN TEMPERATURE   300
Info: LANGEVIN USING BBK INTEGRATOR
Info: LANGEVIN DAMPING COEFFICIENT IS 1 INVERSE PS
Info: LANGEVIN DYNAMICS APPLIED TO HYDROGENS
Info: LANGEVIN PISTON PRESSURE CONTROL ACTIVE
Info:        TARGET PRESSURE IS 1.01325 BAR
Info:     OSCILLATION PERIOD IS 50 FS
Info:             DECAY TIME IS 25 FS
Info:     PISTON TEMPERATURE IS 300 K
Info:       PRESSURE CONTROL IS GROUP-BASED
Info:    INITIAL STRAIN RATE IS 0.000156339 0.000156339 0.000156339
Info:       CELL FLUCTUATION IS ISOTROPIC
Info: PARTICLE MESH EWALD (PME) ACTIVE
Info: PME TOLERANCE               1e-06
Info: PME EWALD COEFFICIENT       0.348832
Info: PME INTERPOLATION ORDER     4
Info: PME GRID DIMENSIONS         32 32 36
Info: PME MAXIMUM GRID SPACING    1
Info: PME CALCULATION WILL BE PERFORMED ON GPU
Info: FULL ELECTROSTATIC EVALUATION FREQUENCY      2
Info: USING VERLET I (r-RESPA) MTS SCHEME.
Info: C1 SPLITTING OF LONG RANGE ELECTROSTATICS
Info: PLACING ATOMS IN PATCHES BY HYDROGEN GROUPS
Info: RIGID BONDS TO HYDROGEN : ALL
Info:         ERROR TOLERANCE : 1e-08
Info:          MAX ITERATIONS : 100
Info: RIGID WATER USING SETTLE ALGORITHM
Info: RANDOM NUMBER SEED     1743849599
Info: USE HYDROGEN BONDS?    NO
Info: Using AMBER format force field!
Info: AMBER PARM FILE        mobley_7943327.prmtop
Info: COORDINATE PDB         mobley_7943327.pdb
Info: Exclusions will be read from PARM file!
Info: SCNB (VDW SCALING)     2
Info: USING ARITHMETIC MEAN TO COMBINE L-J SIGMA PARAMETERS
Info: BINARY COORDINATES     mobley_7943327_equil.coor
Info: SUMMARY OF PARAMETERS:
Info: 9 BONDS
Info: 12 ANGLES
Info:   12 HARMONIC
Info:   0 COSINE-BASED
Info: 16 DIHEDRAL
Info: 0 IMPROPER
Info: 0 CROSSTERM
Info: 0 VDW
Info: 36 VDW_PAIRS
Info: 0 NBTHOLE_PAIRS
Info: To read alchdata from file: mobley_7943327.pdb
Info: To read alchflag data from column: 5
Info: STRUCTURE SUMMARY:
Info: 2933 ATOMS
Info: 2932 BONDS
Info: 28 ANGLES
Info: 41 DIHEDRALS
Info: 0 IMPROPERS
Info: 0 CROSSTERMS
Info: 2989 EXCLUSIONS
Info: 2926 RIGID BONDS
Info: ALCH: 0 ATOMS TO DISAPPEAR IN FINAL STATE
Info: ALCH: 17 ATOMS TO APPEAR IN FINAL STATE
Info: 5873 DEGREES OF FREEDOM
Info: 979 HYDROGEN GROUPS
Info: 4 ATOMS IN LARGEST HYDROGEN GROUP
Info: 979 MIGRATION GROUPS
Info: 4 ATOMS IN LARGEST MIGRATION GROUP
Info: TOTAL MASS = 17613.7 amu
Info: TOTAL CHARGE = 4.84288e-08 e
Info: MASS DENSITY = 0.952381 g/cm^3
Info: ATOM DENSITY = 0.0955022 atoms/A^3
Info: ADDED 0 IMPLICIT EXCLUSIONS
Info: NONBONDED TABLE R-SQUARED SPACING: 0.0625
Info: NONBONDED TABLE SIZE: 705 POINTS
Info: REMOVING COM VELOCITY -0.112623 -0.00244705 -0.00539867
Info: Use 3D box decompostion in PME FFT.
Info: Updated CUDA force table with 4096 elements.
Info: Updated CUDA LJ table with 8 x 8 elements.
Info: Found 20 unique exclusion lists needing 44 bytes
TCL: Running for 1500000 steps
ETITLE: TS BOND ANGLE DIHED IMPRP ELECT VDW BOUNDARY MISC KINETIC TOTAL TEMP POTENTIAL TOTALAVG TEMPAVG PRESSURE GPRESSURE VOLUME PRESSAVG GPRESSAVG
ENERGY: 0 0.5486 6.4768 3.0289 0.0000 -10510.8530 1403.5697 0.0000 0.0000 1756.5847 -7340.6444 301.0229 -9097.2291 -7340.6444 301.0229 -180.8414 -96.9494 30711.3189 -180.8414 -96.9494
ENERGY: 300000 1.7443 6.9059 4.5729 0.0000 -10518.2068 1405.5335 0.0000 0.0000 1751.3301 -7348.1202 300.1224 -9099.4503 -7378.6603 302.5914 72.1929 142.0164 30060.8109 -142.0497 -64.5690
ENERGY: 600000 4.6204 5.2121 4.5296 0.0000 -10583.8870 1332.9971 0.0000 0.0000 1765.3748 -7471.1530 302.5292 -9236.5278 -7404.6591 302.0573 -1240.4652 -1144.5803 30314.0617 -217.3777 -134.0118
ENERGY: 900000 3.5849 6.5081 4.7064 0.0000 -10730.8686 1467.2778 0.0000 0.0000 1647.9794 -7600.8121 282.4114 -9248.7915 -7439.9902 299.4777 71.4056 157.5036 29868.1847 -219.4313 -151.1213
ENERGY: 1200000 1.0107 3.9268 6.2390 0.0000 -10603.0855 1431.0513 0.0000 0.0000 1769.6074 -7391.2503 303.2545 -9160.8577 -7445.8988 298.5223 163.8892 256.5858 29745.5539 -258.2362 -189.1234
ENERGY: 1500000 0.3098 9.7178 5.3116 0.0000 -10751.0452 1507.7339 0.0000 0.0000 1737.7601 -7490.2119 297.7969 -9227.9720 -7438.4463 298.7844 425.7015 484.3032 30090.6925 -161.0569 -91.9430
TCL: Running FEP window   2: Lambda1 0.05   Lambda2 0.1    [dLambda 0.05  ]
TCL: Setting parameter firsttimestep to 0
TCL: Setting parameter alchLambda to 0.05
Info: NONBONDED TABLE R-SQUARED SPACING: 0.0625
Info: NONBONDED TABLE SIZE: 705 POINTS
TCL: Setting parameter alchLambda2 to 0.1
Info: NONBONDED TABLE R-SQUARED SPACING: 0.0625
Info: NONBONDED TABLE SIZE: 705 POINTS
TCL: Running for 1500000 steps
ETITLE: TS BOND ANGLE DIHED IMPRP ELECT VDW BOUNDARY MISC KINETIC TOTAL TEMP POTENTIAL TOTALAVG TEMPAVG PRESSURE GPRESSURE VOLUME PRESSAVG GPRESSAVG
ENERGY: 0 0.3098 9.7178 5.3116 0.0000 -10751.0459 1510.6041 0.0000 0.0000 1736.8898 -7488.2127 297.6478 -9225.1025 -7488.2127 297.6478 411.6343 490.4164 30090.6925 411.6343 490.4164
ENERGY: 300000 3.2217 12.6912 3.3495 0.0000 -10574.9546 1411.9628 0.0000 0.0000 1769.0593 -7374.6701 303.1606 -9143.7294 -7440.9943 302.1175 -304.1846 -249.7584 30517.1366 -104.9768 -55.6784
ENERGY: 600000 2.2044 5.8196 4.8856 0.0000 -10733.9872 1434.2697 0.0000 0.0000 1713.7025 -7573.1053 293.6742 -9286.8078 -7480.9312 299.2314 -76.3030 -81.0231 29825.4225 -60.8656 -30.7838
ENERGY: 900000 1.0349 5.7610 5.0492 0.0000 -10569.9034 1416.5029 0.0000 0.0000 1770.4182 -7371.1372 303.3935 -9141.5554 -7459.7086 299.1004 -303.9666 -175.7242 30351.5661 -35.7186 8.2246
ENERGY: 1200000 1.2931 10.3358 3.4881 0.0000 -10712.5528 1487.5157 0.0000 0.0000 1730.0780 -7479.8421 296.4804 -9209.9201 -7454.8736 298.4630 606.3550 706.7609 29663.9821 277.3659 323.7914
ENERGY: 1500000 3.8227 5.5774 5.6235 0.0000 -10563.0312 1374.4832 0.0000 0.0000 1694.2424 -7479.2819 290.3394 -9173.5244 -7453.5822 297.7804 -465.3781 -369.0882 29854.5696 179.9648 232.0402
TCL: Running FEP window   3: Lambda1 0.1    Lambda2 0.15000000000000002 [dLambda 0.05000000000000002]
TCL: Setting parameter firsttimestep to 0
TCL: Setting parameter alchLambda to 0.1
Info: NONBONDED TABLE R-SQUARED SPACING: 0.0625
Info: NONBONDED TABLE SIZE: 705 POINTS
TCL: Setting parameter alchLambda2 to 0.15000000000000002
Info: NONBONDED TABLE R-SQUARED SPACING: 0.0625
Info: NONBONDED TABLE SIZE: 705 POINTS
TCL: Running for 1500000 steps
ETITLE: TS BOND ANGLE DIHED IMPRP ELECT VDW BOUNDARY MISC KINETIC TOTAL TEMP POTENTIAL TOTALAVG TEMPAVG PRESSURE GPRESSURE VOLUME PRESSAVG GPRESSAVG
ENERGY: 0 3.8227 5.5774 5.6235 0.0000 -10563.0316 1375.7938 0.0000 0.0000 1693.3758 -7478.8384 290.1909 -9172.2142 -7478.8384 290.1909 -444.4727 -358.8856 29854.5696 -444.4727 -358.8856
ENERGY: 300000 1.9281 6.4593 7.2079 0.0000 -10635.9389 1408.6941 0.0000 0.0000 1713.7264 -7497.9230 293.6783 -9211.6494 -7430.4921 297.4734 19.7504 16.0806 29525.0920 56.6156 89.2812
ENERGY: 600000 2.2100 4.9850 5.4940 0.0000 -10713.9003 1462.8340 0.0000 0.0000 1744.2221 -7494.1550 298.9043 -9238.3772 -7426.0572 298.9519 109.7907 131.6375 30245.4829 159.9158 207.6772
ENERGY: 900000 1.9753 4.9126 7.5978 0.0000 -10580.9004 1401.3218 0.0000 0.0000 1780.7599 -7384.3329 305.1657 -9165.0928 -7414.8080 300.1411 -107.4023 -57.2476 30289.8778 90.4963 148.2649
ENERGY: 1200000 2.2989 6.3714 4.8775 0.0000 -10597.9147 1411.9709 0.0000 0.0000 1789.1212 -7383.2748 306.5986 -9172.3960 -7419.8766 300.9951 10.9896 36.8955 30211.1315 111.1324 170.9094
ENERGY: 1500000 0.8505 8.3457 5.0547 0.0000 -10680.2831 1454.9926 0.0000 0.0000 1710.1536 -7500.8860 293.0660 -9211.0396 -7432.2519 301.3794 7.4530 54.6145 30331.4620 101.0205 162.2687
TCL: Running FEP window   4: Lambda1 0.15000000000000002 Lambda2 0.2    [dLambda 0.04999999999999999]
TCL: Setting parameter firsttimestep to 0
TCL: Setting parameter alchLambda to 0.15000000000000002
Info: NONBONDED TABLE R-SQUARED SPACING: 0.0625
Info: NONBONDED TABLE SIZE: 705 POINTS
TCL: Setting parameter alchLambda2 to 0.2
Info: NONBONDED TABLE R-SQUARED SPACING: 0.0625
Info: NONBONDED TABLE SIZE: 705 POINTS
TCL: Running for 1500000 steps
ETITLE: TS BOND ANGLE DIHED IMPRP ELECT VDW BOUNDARY MISC KINETIC TOTAL TEMP POTENTIAL TOTALAVG TEMPAVG PRESSURE GPRESSURE VOLUME PRESSAVG GPRESSAVG
ENERGY: 0 0.8505 8.3457 5.0547 0.0000 -10680.2832 1454.9948 0.0000 0.0000 1709.3113 -7501.7262 292.9217 -9211.0375 -7501.7262 292.9217 -31.5153 56.6330 30331.4620 -31.5153 56.6330
ENERGY: 300000 2.2527 4.6023 3.7564 0.0000 -10667.7791 1505.8014 0.0000 0.0000 1754.4164 -7396.9498 300.6513 -9151.3662 -7430.2581 296.8776 569.7031 575.8470 30251.3303 36.3906 97.4219
ENERGY: 600000 3.3850 5.9919 5.9423 0.0000 -10574.2215 1373.8366 0.0000 0.0000 1787.1369 -7397.9288 306.2585 -9185.0657 -7415.3870 299.4424 -594.6361 -486.6872 30180.7714 -202.1110 -146.8954
ENERGY: 900000 2.7033 5.9423 4.3885 0.0000 -10530.4473 1365.3251 0.0000 0.0000 1706.1124 -7445.9756 292.3735 -9152.0881 -7423.6280 298.5924 -618.5071 -519.1631 30124.0241 -170.6356 -104.8944
ENERGY: 1200000 2.0200 7.0354 4.2484 0.0000 -10592.2821 1340.8936 0.0000 0.0000 1738.0444 -7500.0402 297.8456 -9238.0846 -7423.5167 299.6648 -1089.1866 -981.3678 30291.2263 -204.4797 -132.5640
ENERGY: 1500000 3.6361 10.5688 6.2087 0.0000 -10573.1174 1272.3488 0.0000 0.0000 1767.3843 -7512.9706 302.8736 -9280.3550 -7436.7695 299.6582 -1578.7401 -1513.7895 29909.8330 -203.9441 -136.6725
TCL: Running FEP window   5: Lambda1 0.2    Lambda2 0.25   [dLambda 0.04999999999999999]
TCL: Setting parameter firsttimestep to 0
TCL: Setting parameter alchLambda to 0.2
Info: NONBONDED TABLE R-SQUARED SPACING: 0.0625
Info: NONBONDED TABLE SIZE: 705 POINTS
TCL: Setting parameter alchLambda2 to 0.25
Info: NONBONDED TABLE R-SQUARED SPACING: 0.0625
Info: NONBONDED TABLE SIZE: 705 POINTS
TCL: Running for 1500000 steps
ETITLE: TS BOND ANGLE DIHED IMPRP ELECT VDW BOUNDARY MISC KINETIC TOTAL TEMP POTENTIAL TOTALAVG TEMPAVG PRESSURE GPRESSURE VOLUME PRESSAVG GPRESSAVG
ENERGY: 0 3.6361 10.5688 6.2087 0.0000 -10573.1177 1273.5015 0.0000 0.0000 1766.5177 -7512.6850 302.7251 -9279.2027 -7512.6850 302.7251 -1591.8629 -1503.8781 29909.8330 -1591.8629 -1503.8781
ENERGY: 300000 2.0396 8.6184 6.7489 0.0000 -10591.1659 1352.1063 0.0000 0.0000 1748.6492 -7473.0035 299.6630 -9221.6527 -7478.5138 297.9375 -668.2560 -620.4420 29822.3100 -559.3757 -475.8803
ENERGY: 600000 2.4528 5.2488 5.5989 0.0000 -10619.4396 1391.5328 0.0000 0.0000 1738.3218 -7476.2845 297.8932 -9214.6063 -7463.7156 297.6373 -440.3298 -381.2328 29941.1817 -616.6421 -542.8651
ENERGY: 900000 0.4434 7.0698 5.0865 0.0000 -10716.4903 1431.4912 0.0000 0.0000 1759.2187 -7513.1807 301.4742 -9272.3994 -7455.0719 298.2351 -77.0354 -4.1167 29933.6888 -442.4714 -372.9524
ENERGY: 1200000 3.8510 6.6922 4.6070 0.0000 -10687.1085 1447.6806 0.0000 0.0000 1753.0897 -7471.1879 300.4239 -9224.2776 -7444.2581 298.5771 -140.5443 -95.3475 30514.1178 -441.1626 -372.2960
ENERGY: 1500000 2.2545 7.4886 7.8754 0.0000 -10757.2229 1527.1046 0.0000 0.0000 1765.9448 -7446.5550 302.6269 -9212.4997 -7433.4550 299.8374 518.8387 630.8640 30222.5116 -357.0662 -276.6158
TCL: Running FEP window   6: Lambda1 0.25   Lambda2 0.3    [dLambda 0.04999999999999999]
TCL: Setting parameter firsttimestep to 0
TCL: Setting parameter alchLambda to 0.25
Info: NONBONDED TABLE R-SQUARED SPACING: 0.0625
Info: NONBONDED TABLE SIZE: 705 POINTS
TCL: Setting parameter alchLambda2 to 0.3
Info: NONBONDED TABLE R-SQUARED SPACING: 0.0625
Info: NONBONDED TABLE SIZE: 705 POINTS
TCL: Running for 1500000 steps
ETITLE: TS BOND ANGLE DIHED IMPRP ELECT VDW BOUNDARY MISC KINETIC TOTAL TEMP POTENTIAL TOTALAVG TEMPAVG PRESSURE GPRESSURE VOLUME PRESSAVG GPRESSAVG
ENERGY: 0 2.2546 7.4886 7.8754 0.0000 -10757.2211 1527.0345 0.0000 0.0000 1765.0665 -7447.5016 302.4764 -9212.5681 -7447.5016 302.4764 550.5844 636.9780 30222.5116 550.5844 636.9780
ENERGY: 300000 2.2354 5.8914 4.2419 0.0000 -10498.3460 1303.4111 0.0000 0.0000 1729.8408 -7452.7254 296.4398 -9182.5662 -7439.3962 303.3335 -1030.4060 -1000.9944 30442.8235 94.4183 121.4261
ENERGY: 600000 0.4624 8.7943 3.8666 0.0000 -10625.5289 1409.2749 0.0000 0.0000 1784.5885 -7418.5422 305.8218 -9203.1306 -7430.8091 302.3916 29.8868 89.6896 29746.4318 62.6545 104.1582
ENERGY: 900000 3.1696 8.6182 4.8127 0.0000 -10592.4671 1431.0806 0.0000 0.0000 1698.8051 -7445.9810 291.1213 -9144.7860 -7427.0211 300.8766 -41.3118 5.8061 30027.8139 20.4520 72.8068
ENERGY: 1200000 1.6577 8.7274 4.5950 0.0000 -10666.5734 1462.0047 0.0000 0.0000 1770.5472 -7419.0415 303.4156 -9189.5886 -7427.7133 301.2934 -79.5718 -36.2394 30510.6107 -42.7269 5.9072
ENERGY: 1500000 1.4116 5.1138 5.3208 0.0000 -10736.4099 1484.4178 0.0000 0.0000 1734.8429 -7505.3030 297.2970 -9240.1459 -7430.0324 301.6419 294.5100 334.2728 30046.8298 -8.4083 30.3299
TCL: Running FEP window   7: Lambda1 0.3    Lambda2 0.35   [dLambda 0.04999999999999999]
TCL: Setting parameter firsttimestep to 0
TCL: Setting parameter alchLambda to 0.3
Info: NONBONDED TABLE R-SQUARED SPACING: 0.0625
Info: NONBONDED TABLE SIZE: 705 POINTS
TCL: Setting parameter alchLambda2 to 0.35
Info: NONBONDED TABLE R-SQUARED SPACING: 0.0625
Info: NONBONDED TABLE SIZE: 705 POINTS
TCL: Running for 1500000 steps
ETITLE: TS BOND ANGLE DIHED IMPRP ELECT VDW BOUNDARY MISC KINETIC TOTAL TEMP POTENTIAL TOTALAVG TEMPAVG PRESSURE GPRESSURE VOLUME PRESSAVG GPRESSAVG
ENERGY: 0 1.4116 5.1138 5.3208 0.0000 -10736.4094 1484.6298 0.0000 0.0000 1733.9604 -7505.9730 297.1458 -9239.9334 -7505.9730 297.1458 251.8363 338.5222 30046.8298 251.8363 338.5222
ENERGY: 300000 2.1995 6.2148 4.4778 0.0000 -10643.9721 1460.8906 0.0000 0.0000 1714.2200 -7455.9693 293.7629 -9170.1893 -7445.9681 300.0990 381.6510 408.4241 29789.3851 352.7557 434.1433
ENERGY: 600000 4.0268 13.5815 4.6082 0.0000 -10513.1001 1311.4305 0.0000 0.0000 1762.7236 -7416.7295 302.0749 -9179.4531 -7434.5100 299.0241 -895.5559 -781.7203 29934.8343 -109.1855 -46.0820
ENERGY: 900000 1.2707 5.6882 4.8760 0.0000 -10539.9490 1383.8002 0.0000 0.0000 1699.2648 -7445.0492 291.2001 -9144.3140 -7427.5640 299.0333 -548.5195 -550.5765 30604.8701 -181.7296 -121.2904
ENERGY: 1200000 1.7295 5.1986 4.4938 0.0000 -10574.0443 1361.7694 0.0000 0.0000 1750.9216 -7449.9314 300.0524 -9200.8530 -7433.2241 299.5284 -572.9753 -575.1568 29891.3079 -204.0860 -153.2295
ENERGY: 1500000 1.6215 10.0780 4.2543 0.0000 -10679.1402 1462.8279 0.0000 0.0000 1791.2123 -7409.1462 306.9569 -9200.3585 -7434.9665 298.9936 143.2435 147.0625 30220.3654 -132.5814 -81.1531
TCL: Running FEP window   8: Lambda1 0.35   Lambda2 0.39999999999999997 [dLambda 0.04999999999999999]
TCL: Setting parameter firsttimestep to 0
TCL: Setting parameter alchLambda to 0.35
Info: NONBONDED TABLE R-SQUARED SPACING: 0.0625
Info: NONBONDED TABLE SIZE: 705 POINTS
TCL: Setting parameter alchLambda2 to 0.39999999999999997
Info: NONBONDED TABLE R-SQUARED SPACING: 0.0625
Info: NONBONDED TABLE SIZE: 705 POINTS
TCL: Running for 1500000 steps
ETITLE: TS BOND ANGLE DIHED IMPRP ELECT VDW BOUNDARY MISC KINETIC TOTAL TEMP POTENTIAL TOTALAVG TEMPAVG PRESSURE GPRESSURE VOLUME PRESSAVG GPRESSAVG
ENERGY: 0 1.6215 10.0780 4.2543 0.0000 -10679.1416 1462.3481 0.0000 0.0000 1790.3261 -7410.5137 306.8051 -9200.8398 -7410.5137 306.8051 56.9721 145.8478 30220.3654 56.9721 145.8478
ENERGY: 300000 3.1545 8.4757 4.8989 0.0000 -10545.0909 1418.8021 0.0000 0.0000 1703.3337 -7406.4260 291.8973 -9109.7598 -7398.2881 299.8799 -141.3670 -22.2027 30183.4693 98.9147 167.9971
ENERGY: 600000 2.8499 8.1461 4.2431 0.0000 -10652.2746 1441.4571 0.0000 0.0000 1717.2582 -7478.3202 294.2835 -9195.5784 -7417.1313 299.2125 150.7829 223.3469 29788.2894 5.0644 83.7484
ENERGY: 900000 0.6642 5.5554 5.7698 0.0000 -10599.8816 1391.6310 0.0000 0.0000 1693.9799 -7502.2812 290.2944 -9196.2611 -7423.3834 298.4123 -209.8805 -222.1620 30175.6950 -15.3414 44.9756
ENERGY: 1200000 1.9430 4.1536 5.8613 0.0000 -10546.6362 1419.4043 0.0000 0.0000 1779.1580 -7336.1160 304.8912 -9115.2740 -7414.5262 298.6692 281.8418 355.1949 29898.2679 32.8716 94.2623
ENERGY: 1500000 0.7975 12.6387 3.8280 0.0000 -10605.7065 1425.8561 0.0000 0.0000 1745.0484 -7417.5378 299.0459 -9162.5862 -7420.2460 298.0893 22.8385 41.3492 30065.1913 78.8437 133.4851
TCL: Running FEP window   9: Lambda1 0.39999999999999997 Lambda2 0.44999999999999996 [dLambda 0.04999999999999999]
TCL: Setting parameter firsttimestep to 0
TCL: Setting parameter alchLambda to 0.39999999999999997
Info: NONBONDED TABLE R-SQUARED SPACING: 0.0625
Info: NONBONDED TABLE SIZE: 705 POINTS
TCL: Setting parameter alchLambda2 to 0.44999999999999996
Info: NONBONDED TABLE R-SQUARED SPACING: 0.0625
Info: NONBONDED TABLE SIZE: 705 POINTS
TCL: Running for 1500000 steps
ETITLE: TS BOND ANGLE DIHED IMPRP ELECT VDW BOUNDARY MISC KINETIC TOTAL TEMP POTENTIAL TOTALAVG TEMPAVG PRESSURE GPRESSURE VOLUME PRESSAVG GPRESSAVG
ENERGY: 0 0.7975 12.6387 3.8280 0.0000 -10605.7055 1426.6357 0.0000 0.0000 1744.1714 -7417.6343 298.8956 -9161.8057 -7417.6343 298.8956 -30.5711 54.4772 30065.1913 -30.5711 54.4772
ENERGY: 300000 1.2169 9.3463 4.0920 0.0000 -10502.7980 1384.7928 0.0000 0.0000 1829.1428 -7274.2073 313.4570 -9103.3501 -7366.2047 302.9253 173.1860 155.4061 30304.3966 129.9383 183.1935
ENERGY: 600000 1.0312 6.6660 4.0061 0.0000 -10573.0754 1414.4564 0.0000 0.0000 1735.6205 -7411.2953 297.4303 -9146.9158 -7380.6432 301.5503 -121.2885 -32.1297 30198.5111 92.3774 146.0794
ENERGY: 900000 1.7190 7.0251 4.4051 0.0000 -10673.7400 1477.1656 0.0000 0.0000 1750.9760 -7432.4493 300.0617 -9183.4252 -7401.4826 300.3860 451.9463 499.5165 30073.9697 -15.8393 46.3872
ENERGY: 1200000 2.8108 6.4856 3.9536 0.0000 -10706.9764 1441.6581 0.0000 0.0000 1784.4679 -7467.6003 305.8012 -9252.0683 -7406.3524 300.1998 -204.8791 -169.3558 30193.7540 -55.4349 6.2018
ENERGY: 1500000 4.0584 11.7619 5.5705 0.0000 -10661.4368 1449.5548 0.0000 0.0000 1709.9812 -7480.5100 293.0365 -9190.4912 -7413.5666 299.9397 -18.1744 42.4677 30190.0627 18.9390 84.2927
TCL: Running FEP window  10: Lambda1 0.44999999999999996 Lambda2 0.49999999999999994 [dLambda 0.04999999999999999]
TCL: Setting parameter firsttimestep to 0
TCL: Setting parameter alchLambda to 0.44999999999999996
Info: NONBONDED TABLE R-SQUARED SPACING: 0.0625
Info: NONBONDED TABLE SIZE: 705 POINTS
TCL: Setting parameter alchLambda2 to 0.49999999999999994
Info: NONBONDED TABLE R-SQUARED SPACING: 0.0625
Info: NONBONDED TABLE SIZE: 705 POINTS
TCL: Running for 1500000 steps
ETITLE: TS BOND ANGLE DIHED IMPRP ELECT VDW BOUNDARY MISC KINETIC TOTAL TEMP POTENTIAL TOTALAVG TEMPAVG PRESSURE GPRESSURE VOLUME PRESSAVG GPRESSAVG
ENERGY: 0 4.0584 11.7619 5.5705 0.0000 -10661.4371 1449.4508 0.0000 0.0000 1709.1032 -7481.4923 292.8860 -9190.5955 -7481.4923 292.8860 -47.4172 46.5098 30190.0627 -47.4172 46.5098
ENERGY: 300000 1.7999 6.7089 6.8319 0.0000 -10675.3790 1312.5695 0.0000 0.0000 1738.1533 -7609.3154 297.8643 -9347.4687 -7501.1549 298.1529 -1597.5389 -1563.7527 30461.7771 -784.6918 -674.0888
ENERGY: 600000 2.8141 6.1688 4.7754 0.0000 -10616.4739 1408.0399 0.0000 0.0000 1789.4142 -7405.2615 306.6488 -9194.6757 -7460.6277 300.0103 -62.2705 97.8144 29648.1502 -474.7085 -369.6071
ENERGY: 900000 3.0482 6.0997 5.2620 0.0000 -10618.6242 1438.0050 0.0000 0.0000 1786.0803 -7380.1290 306.0775 -9166.2092 -7449.6021 300.1535 22.0680 78.0011 30447.1895 -259.2778 -177.7548
ENERGY: 1200000 3.5459 8.0857 5.9007 0.0000 -10728.1646 1477.3006 0.0000 0.0000 1710.2354 -7523.0964 293.0801 -9233.3318 -7452.1524 299.9274 128.1429 210.4378 30028.4727 -194.5469 -102.7526
ENERGY: 1500000 1.0359 15.1508 4.9795 0.0000 -10546.7120 1363.4974 0.0000 0.0000 1733.3607 -7428.6876 297.0430 -9162.0483 -7458.8572 299.2397 -189.2548 -172.0906 29809.2856 -186.0005 -103.1896
TCL: Running FEP window  11: Lambda1 0.49999999999999994 Lambda2 0.5499999999999999 [dLambda 0.04999999999999999]
TCL: Setting parameter firsttimestep to 0
TCL: Setting parameter alchLambda to 0.49999999999999994
Info: NONBONDED TABLE R-SQUARED SPACING: 0.0625
Info: NONBONDED TABLE SIZE: 705 POINTS
TCL: Setting parameter alchLambda2 to 0.5499999999999999
Info: NONBONDED TABLE R-SQUARED SPACING: 0.0625
Info: NONBONDED TABLE SIZE: 705 POINTS
TCL: Running for 1500000 steps
ETITLE: TS BOND ANGLE DIHED IMPRP ELECT VDW BOUNDARY MISC KINETIC TOTAL TEMP POTENTIAL TOTALAVG TEMPAVG PRESSURE GPRESSURE VOLUME PRESSAVG GPRESSAVG
ENERGY: 0 1.0359 15.1508 4.9795 0.0000 -10546.7129 1363.8731 0.0000 0.0000 1732.4986 -7429.1750 296.8953 -9161.6736 -7429.1750 296.8953 -244.2359 -162.3688 29809.2856 -244.2359 -162.3688
ENERGY: 300000 3.0299 5.0855 4.5019 0.0000 -10580.3079 1354.4376 0.0000 0.0000 1761.8885 -7451.3644 301.9318 -9213.2530 -7434.9102 300.5567 -438.4378 -416.9058 29999.8352 -337.5582 -278.2715
ENERGY: 600000 2.5026 6.9141 4.8467 0.0000 -10466.8859 1335.8355 0.0000 0.0000 1672.0277 -7444.7592 286.5325 -9116.7870 -7445.0658 296.8975 -567.2735 -512.5673 30245.5545 -366.9400 -303.8603
ENERGY: 900000 4.2494 5.9346 2.5165 0.0000 -10556.9396 1342.9774 0.0000 0.0000 1750.4611 -7450.8007 299.9735 -9201.2618 -7447.2639 298.3484 -583.2618 -590.3713 29944.1579 -141.0666 -90.5102
ENERGY: 1200000 0.9436 5.4822 4.9169 0.0000 -10485.6027 1347.4257 0.0000 0.0000 1773.5996 -7353.2347 303.9387 -9126.8343 -7437.6902 299.2251 -471.6812 -392.7430 30522.9298 -162.8258 -108.2914
ENERGY: 1500000 0.5711 6.8228 5.2755 0.0000 -10509.9451 1380.6360 0.0000 0.0000 1686.1336 -7430.5060 288.9498 -9116.6397 -7432.8220 299.1681 -338.8564 -315.3096 30414.6189 -198.7158 -146.8120
TCL: Running FEP window  12: Lambda1 0.5499999999999999 Lambda2 0.6    [dLambda 0.050000000000000044]
TCL: Setting parameter firsttimestep to 0
TCL: Setting parameter alchLambda to 0.5499999999999999
Info: NONBONDED TABLE R-SQUARED SPACING: 0.0625
Info: NONBONDED TABLE SIZE: 705 POINTS
TCL: Setting parameter alchLambda2 to 0.6
Info: NONBONDED TABLE R-SQUARED SPACING: 0.0625
Info: NONBONDED TABLE SIZE: 705 POINTS
TCL: Running for 1500000 steps
ETITLE: TS BOND ANGLE DIHED IMPRP ELECT VDW BOUNDARY MISC KINETIC TOTAL TEMP POTENTIAL TOTALAVG TEMPAVG PRESSURE GPRESSURE VOLUME PRESSAVG GPRESSAVG
ENERGY: 0 0.5711 6.8228 5.2755 0.0000 -10510.8767 1380.8199 0.0000 0.0000 1685.2505 -7432.1369 288.7984 -9117.3873 -7432.1369 288.7984 -388.6929 -307.9283 30414.6189 -388.6929 -307.9283
ENERGY: 300000 3.3251 5.0461 3.7527 0.0000 -10674.1717 1462.8501 0.0000 0.0000 1756.8708 -7442.3269 301.0719 -9199.1977 -7452.0131 298.1930 509.1928 573.1536 29851.7299 9.8529 96.8279
ENERGY: 600000 0.5408 12.2739 7.6901 0.0000 -10673.9660 1498.5047 0.0000 0.0000 1724.8836 -7430.0729 295.5903 -9154.9565 -7460.6934 297.7124 473.2611 484.9439 30490.9375 -190.9505 -111.3316
ENERGY: 900000 0.8396 6.1566 4.9387 0.0000 -10662.7483 1463.7598 0.0000 0.0000 1780.8425 -7406.2111 305.1799 -9187.0537 -7450.4854 300.2458 207.3254 244.0786 30427.9822 -166.0312 -98.3375
ENERGY: 1200000 3.3688 8.1864 5.0532 0.0000 -10540.2824 1348.5329 0.0000 0.0000 1802.3654 -7372.7758 308.8682 -9175.1412 -7437.4400 301.1781 -801.1077 -755.4524 30867.4393 -147.7092 -82.1574
ENERGY: 1500000 1.5146 10.1312 6.1389 0.0000 -10669.6481 1478.3881 0.0000 0.0000 1786.0374 -7387.4378 306.0701 -9173.4753 -7436.9751 301.2210 641.8045 685.0670 29852.0882 -111.2058 -46.7381
TCL: Running FEP window  13: Lambda1 0.6    Lambda2 0.65   [dLambda 0.050000000000000044]
TCL: Setting parameter firsttimestep to 0
TCL: Setting parameter alchLambda to 0.6
Info: NONBONDED TABLE R-SQUARED SPACING: 0.0625
Info: NONBONDED TABLE SIZE: 705 POINTS
TCL: Setting parameter alchLambda2 to 0.65
Info: NONBONDED TABLE R-SQUARED SPACING: 0.0625
Info: NONBONDED TABLE SIZE: 705 POINTS
TCL: Running for 1500000 steps
ETITLE: TS BOND ANGLE DIHED IMPRP ELECT VDW BOUNDARY MISC KINETIC TOTAL TEMP POTENTIAL TOTALAVG TEMPAVG PRESSURE GPRESSURE VOLUME PRESSAVG GPRESSAVG
ENERGY: 0 1.5146 10.1312 6.1389 0.0000 -10669.5117 1478.1312 0.0000 0.0000 1785.1364 -7388.4594 305.9157 -9173.5959 -7388.4594 305.9157 606.4121 690.0584 29852.0882 606.4121 690.0584
ENERGY: 300000 4.8752 8.4261 4.3593 0.0000 -10485.7623 1354.6266 0.0000 0.0000 1777.1971 -7336.2780 304.5552 -9113.4751 -7396.2352 298.5991 -249.6019 -151.8030 29769.1387 -43.6072 23.4217
ENERGY: 600000 2.2393 5.9748 5.0922 0.0000 -10729.5603 1522.7708 0.0000 0.0000 1782.8080 -7410.6753 305.5167 -9193.4833 -7400.9946 299.5921 470.9958 559.6388 30549.1349 -61.9809 0.3529
ENERGY: 900000 6.9806 4.5719 4.0258 0.0000 -10643.5308 1389.4780 0.0000 0.0000 1719.2047 -7519.2699 294.6171 -9238.4745 -7423.7379 298.8753 -892.7012 -874.0000 30619.1738 -99.0979 -46.5302
ENERGY: 1200000 1.2396 9.3944 5.1363 0.0000 -10555.2512 1362.7467 0.0000 0.0000 1769.0714 -7407.6628 303.1627 -9176.7343 -7422.0936 299.1852 -270.4461 -183.9493 29934.7285 -85.6272 -29.7168
ENERGY: 1500000 0.6274 5.9127 4.8463 0.0000 -10630.8389 1419.8753 0.0000 0.0000 1733.9194 -7465.6579 297.1387 -9199.5773 -7419.2491 299.1978 -9.2355 27.8854 30009.0413 -115.2727 -57.1388
TCL: Running FEP window  14: Lambda1 0.65   Lambda2 0.7000000000000001 [dLambda 0.050000000000000044]
TCL: Setting parameter firsttimestep to 0
TCL: Setting parameter alchLambda to 0.65
Info: NONBONDED TABLE R-SQUARED SPACING: 0.0625
Info: NONBONDED TABLE SIZE: 705 POINTS
TCL: Setting parameter alchLambda2 to 0.7000000000000001
Info: NONBONDED TABLE R-SQUARED SPACING: 0.0625
Info: NONBONDED TABLE SIZE: 705 POINTS
TCL: Running for 1500000 steps
ETITLE: TS BOND ANGLE DIHED IMPRP ELECT VDW BOUNDARY MISC KINETIC TOTAL TEMP POTENTIAL TOTALAVG TEMPAVG PRESSURE GPRESSURE VOLUME PRESSAVG GPRESSAVG
ENERGY: 0 0.6274 5.9127 4.8463 0.0000 -10631.4758 1420.2702 0.0000 0.0000 1733.0368 -7466.7824 296.9875 -9199.8193 -7466.7824 296.9875 -57.6292 36.8276 30009.0413 -57.6292 36.8276
ENERGY: 300000 2.0245 6.9911 4.4816 0.0000 -10641.6431 1425.9559 0.0000 0.0000 1753.7943 -7448.3957 300.5447 -9202.1900 -7455.4728 299.5600 27.9568 87.8731 29783.5021 -188.4672 -116.7875
ENERGY: 600000 1.8214 5.6188 4.8625 0.0000 -10523.7063 1333.2943 0.0000 0.0000 1729.1815 -7448.9278 296.3268 -9178.1093 -7447.4844 300.0085 -893.6857 -752.0037 30325.7881 -182.8687 -105.9338
ENERGY: 900000 1.6442 6.2642 5.5555 0.0000 -10621.7169 1439.5477 0.0000 0.0000 1775.1289 -7393.5764 304.2007 -9168.7053 -7443.6830 300.4103 -100.3158 19.8945 30470.0033 -58.5638 21.3252
ENERGY: 1200000 3.9117 4.6291 3.3206 0.0000 -10680.7730 1448.2883 0.0000 0.0000 1776.6377 -7443.9858 304.4593 -9220.6235 -7429.2378 300.8820 -192.3640 -71.0521 30307.1843 -22.3518 59.9073
ENERGY: 1500000 1.1048 7.7352 3.5849 0.0000 -10762.6243 1541.2801 0.0000 0.0000 1740.6793 -7468.2401 298.2972 -9208.9194 -7433.4428 300.8293 957.4643 989.7001 30025.5881 53.7779 124.8571
TCL: Running FEP window  15: Lambda1 0.7000000000000001 Lambda2 0.7500000000000001 [dLambda 0.050000000000000044]
TCL: Setting parameter firsttimestep to 0
TCL: Setting parameter alchLambda to 0.7000000000000001
Info: NONBONDED TABLE R-SQUARED SPACING: 0.0625
Info: NONBONDED TABLE SIZE: 705 POINTS
TCL: Setting parameter alchLambda2 to 0.7500000000000001
Info: NONBONDED TABLE R-SQUARED SPACING: 0.0625
Info: NONBONDED TABLE SIZE: 705 POINTS
TCL: Running for 1500000 steps
ETITLE: TS BOND ANGLE DIHED IMPRP ELECT VDW BOUNDARY MISC KINETIC TOTAL TEMP POTENTIAL TOTALAVG TEMPAVG PRESSURE GPRESSURE VOLUME PRESSAVG GPRESSAVG
ENERGY: 0 1.1048 7.7352 3.5849 0.0000 -10762.7407 1541.9140 0.0000 0.0000 1739.8677 -7468.5341 298.1581 -9208.4018 -7468.5341 298.1581 940.1495 1006.5289 30025.5881 940.1495 1006.5289
ENERGY: 300000 1.4825 4.2959 7.1166 0.0000 -10616.9321 1428.8157 0.0000 0.0000 1805.9576 -7369.2639 309.4838 -9175.2215 -7427.6663 303.9177 190.3507 189.9852 30237.0494 357.8093 432.9006
ENERGY: 600000 0.4838 7.2873 5.7935 0.0000 -10642.7677 1439.2650 0.0000 0.0000 1810.2451 -7379.6931 310.2185 -9189.9382 -7427.4667 303.5672 193.9352 303.0534 30174.5559 250.6009 307.4727
ENERGY: 900000 0.8143 6.9231 3.1966 0.0000 -10668.5710 1422.5329 0.0000 0.0000 1776.0752 -7459.0290 304.3629 -9235.1041 -7436.9129 303.3311 106.8541 155.7413 29732.9316 246.9360 309.6828
ENERGY: 1200000 0.8327 6.5458 4.5297 0.0000 -10698.3454 1406.8794 0.0000 0.0000 1763.0968 -7516.4610 302.1388 -9279.5578 -7437.1781 303.3410 -534.1617 -485.4764 30312.6885 123.2639 179.9879
ENERGY: 1500000 1.0931 8.9957 5.1273 0.0000 -10479.5579 1310.1748 0.0000 0.0000 1699.7327 -7454.4343 291.2802 -9154.1670 -7433.6371 302.8690 -947.9299 -831.9443 30299.9716 49.3951 115.2912
TCL: Running FEP window  16: Lambda1 0.7500000000000001 Lambda2 0.8000000000000002 [dLambda 0.050000000000000044]
TCL: Setting parameter firsttimestep to 0
TCL: Setting parameter alchLambda to 0.7500000000000001
Info: NONBONDED TABLE R-SQUARED SPACING: 0.0625
Info: NONBONDED TABLE SIZE: 705 POINTS
TCL: Setting parameter alchLambda2 to 0.8000000000000002
Info: NONBONDED TABLE R-SQUARED SPACING: 0.0625
Info: NONBONDED TABLE SIZE: 705 POINTS
TCL: Running for 1500000 steps
ETITLE: TS BOND ANGLE DIHED IMPRP ELECT VDW BOUNDARY MISC KINETIC TOTAL TEMP POTENTIAL TOTALAVG TEMPAVG PRESSURE GPRESSURE VOLUME PRESSAVG GPRESSAVG
ENERGY: 0 1.0931 8.9957 5.1273 0.0000 -10480.5805 1310.1264 0.0000 0.0000 1698.8595 -7456.3784 291.1306 -9155.2379 -7456.3784 291.1306 -903.7684 -827.2606 30299.9716 -903.7684 -827.2606
ENERGY: 300000 4.1181 7.0076 3.5950 0.0000 -10618.1062 1415.1648 0.0000 0.0000 1752.6519 -7435.5688 300.3489 -9188.2207 -7458.4952 296.1280 -259.3994 -163.0764 30189.9060 -303.0386 -236.7041
ENERGY: 600000 2.4159 3.5053 4.4601 0.0000 -10556.1328 1375.8015 0.0000 0.0000 1786.4524 -7383.4977 306.1412 -9169.9501 -7426.6994 298.4709 -706.8610 -569.9038 30557.9999 -340.9291 -257.1769
ENERGY: 900000 1.2910 5.6507 4.8711 0.0000 -10651.3141 1482.1435 0.0000 0.0000 1751.5609 -7405.7969 300.1619 -9157.3578 -7415.5626 299.4468 606.5590 618.1270 30323.0795 -203.8992 -129.3378
ENERGY: 1200000 1.1361 10.8851 4.9110 0.0000 -10597.1385 1402.1936 0.0000 0.0000 1712.1429 -7465.8698 293.4069 -9178.0127 -7424.4326 298.8745 -480.3082 -418.6657 30641.0333 -198.7242 -130.2672
ENERGY: 1500000 2.1035 5.4011 3.9862 0.0000 -10589.9475 1388.2357 0.0000 0.0000 1737.0780 -7453.1430 297.6800 -9190.2210 -7439.1689 298.7785 -486.1325 -441.3029 30495.1364 -210.2088 -142.4396
TCL: Running FEP window  17: Lambda1 0.8000000000000002 Lambda2 0.8500000000000002 [dLambda 0.050000000000000044]
TCL: Setting parameter firsttimestep to 0
TCL: Setting parameter alchLambda to 0.8000000000000002
Info: NONBONDED TABLE R-SQUARED SPACING: 0.0625
Info: NONBONDED TABLE SIZE: 705 POINTS
TCL: Setting parameter alchLambda2 to 0.8500000000000002
Info: NONBONDED TABLE R-SQUARED SPACING: 0.0625
Info: NONBONDED TABLE SIZE: 705 POINTS
TCL: Running for 1500000 steps
ETITLE: TS BOND ANGLE DIHED IMPRP ELECT VDW BOUNDARY MISC KINETIC TOTAL TEMP POTENTIAL TOTALAVG TEMPAVG PRESSURE GPRESSURE VOLUME PRESSAVG GPRESSAVG
ENERGY: 0 2.1035 5.4011 3.9862 0.0000 -10590.4921 1387.9037 0.0000 0.0000 1736.2167 -7454.8810 297.5324 -9191.0977 -7454.8810 297.5324 -520.7141 -435.2871 30495.1364 -520.7141 -435.2871
ENERGY: 300000 1.9162 6.8248 5.4229 0.0000 -10698.9593 1426.3588 0.0000 0.0000 1756.7270 -7501.7098 301.0472 -9258.4368 -7450.9704 301.3794 251.7694 355.2949 29482.1865 -273.2837 -203.7015
ENERGY: 600000 4.9397 7.0900 6.2655 0.0000 -10698.2429 1412.6595 0.0000 0.0000 1744.1262 -7523.1620 298.8879 -9267.2882 -7468.4132 299.4087 -399.2933 -289.3636 30350.6098 -257.7724 -202.0510
ENERGY: 900000 4.6464 5.9863 4.1770 0.0000 -10597.0381 1395.3069 0.0000 0.0000 1748.7450 -7438.1766 299.6794 -9186.9216 -7467.4629 298.9118 -107.7586 25.8791 30075.8843 -157.7647 -93.2983
ENERGY: 1200000 2.7792 10.9124 5.0468 0.0000 -10706.6515 1439.4040 0.0000 0.0000 1722.4472 -7526.0618 295.1728 -9248.5090 -7462.0675 298.4697 -252.7584 -210.2442 30753.9269 -109.3245 -44.1590
ENERGY: 1500000 0.9511 8.7947 4.8802 0.0000 -10590.7396 1412.8944 0.0000 0.0000 1719.8988 -7443.3204 294.7361 -9163.2192 -7455.2676 298.2063 11.5624 31.9203 30203.4065 -83.7089 -18.0548
TCL: Running FEP window  18: Lambda1 0.8500000000000002 Lambda2 0.9000000000000002 [dLambda 0.050000000000000044]
TCL: Setting parameter firsttimestep to 0
TCL: Setting parameter alchLambda to 0.8500000000000002
Info: NONBONDED TABLE R-SQUARED SPACING: 0.0625
Info: NONBONDED TABLE SIZE: 705 POINTS
TCL: Setting parameter alchLambda2 to 0.9000000000000002
Info: NONBONDED TABLE R-SQUARED SPACING: 0.0625
Info: NONBONDED TABLE SIZE: 705 POINTS
TCL: Running for 1500000 steps
ETITLE: TS BOND ANGLE DIHED IMPRP ELECT VDW BOUNDARY MISC KINETIC TOTAL TEMP POTENTIAL TOTALAVG TEMPAVG PRESSURE GPRESSURE VOLUME PRESSAVG GPRESSAVG
ENERGY: 0 0.9511 8.7947 4.8802 0.0000 -10591.7791 1412.8176 0.0000 0.0000 1719.0505 -7445.2850 294.5907 -9164.3355 -7445.2850 294.5907 -52.4615 35.6807 30203.4065 -52.4615 35.6807
ENERGY: 300000 3.6396 4.7172 4.0141 0.0000 -10663.8660 1487.6295 0.0000 0.0000 1728.0636 -7435.8021 296.1352 -9163.8656 -7432.3810 298.8601 510.6645 553.9300 30205.6965 -263.4962 -192.6351
ENERGY: 600000 1.0335 8.3956 3.0771 0.0000 -10515.3068 1364.6345 0.0000 0.0000 1770.6527 -7367.5134 303.4337 -9138.1661 -7421.6001 300.6858 -359.3376 -300.4027 30311.1904 -323.8333 -248.5660
ENERGY: 900000 2.7057 8.0185 5.6496 0.0000 -10780.5243 1503.8221 0.0000 0.0000 1732.4488 -7527.8797 296.8867 -9260.3284 -7449.5720 299.6397 349.2816 410.4108 30335.7395 -185.0214 -111.7712
ENERGY: 1200000 1.5981 4.9646 5.5186 0.0000 -10613.3894 1394.2171 0.0000 0.0000 1730.9317 -7476.1592 296.6268 -9207.0910 -7448.0522 299.3383 -385.1818 -352.1847 30534.1188 -180.5377 -111.8173
ENERGY: 1500000 1.1041 6.3631 3.7299 0.0000 -10570.5445 1367.8791 0.0000 0.0000 1749.0666 -7442.4019 299.7345 -9191.4685 -7448.2768 298.9099 -553.0820 -505.9241 30686.1501 -162.6243 -99.5080
TCL: Running FEP window  19: Lambda1 0.9000000000000002 Lambda2 0.9500000000000003 [dLambda 0.050000000000000044]
TCL: Setting parameter firsttimestep to 0
TCL: Setting parameter alchLambda to 0.9000000000000002
Info: NONBONDED TABLE R-SQUARED SPACING: 0.0625
Info: NONBONDED TABLE SIZE: 705 POINTS
TCL: Setting parameter alchLambda2 to 0.9500000000000003
Info: NONBONDED TABLE R-SQUARED SPACING: 0.0625
Info: NONBONDED TABLE SIZE: 705 POINTS
TCL: Running for 1500000 steps
ETITLE: TS BOND ANGLE DIHED IMPRP ELECT VDW BOUNDARY MISC KINETIC TOTAL TEMP POTENTIAL TOTALAVG TEMPAVG PRESSURE GPRESSURE VOLUME PRESSAVG GPRESSAVG
ENERGY: 0 1.1041 6.3631 3.7299 0.0000 -10571.8253 1367.9553 0.0000 0.0000 1748.1463 -7444.5268 299.5768 -9192.6731 -7444.5268 299.5768 -581.1426 -501.2684 30686.1501 -581.1426 -501.2684
ENERGY: 300000 1.6164 7.8760 4.2523 0.0000 -10573.1929 1373.9797 0.0000 0.0000 1766.0356 -7419.4328 302.6425 -9185.4684 -7452.1789 298.5009 -429.0938 -384.1201 30391.5903 -218.4308 -151.4969
ENERGY: 600000 2.6683 6.7564 4.0547 0.0000 -10626.3964 1413.6301 0.0000 0.0000 1772.9381 -7426.3487 303.8253 -9199.2868 -7463.4057 297.5903 -144.4140 -78.2081 30119.6768 -208.1499 -154.1078
ENERGY: 900000 2.8106 9.4463 7.8046 0.0000 -10718.0272 1447.9947 0.0000 0.0000 1733.8169 -7516.1540 297.1212 -9249.9709 -7474.9456 297.0241 148.5366 171.9637 30027.9871 -80.4042 -25.7301
ENERGY: 1200000 0.5707 3.8945 8.0751 0.0000 -10510.5169 1371.0411 0.0000 0.0000 1735.5547 -7391.3808 297.4190 -9126.9355 -7462.0221 296.9357 -332.4497 -284.2441 30373.2909 -103.9539 -49.8206
ENERGY: 1500000 2.0506 6.2838 4.3404 0.0000 -10566.3760 1422.3014 0.0000 0.0000 1736.4792 -7394.9206 297.5774 -9131.3998 -7462.4160 297.0053 -64.5747 32.4006 30424.0978 -115.5371 -57.4995
TCL: Running FEP window  20: Lambda1 0.9500000000000003 Lambda2 1.0    [dLambda 0.04999999999999971]
TCL: Setting parameter firsttimestep to 0
TCL: Setting parameter alchLambda to 0.9500000000000003
Info: NONBONDED TABLE R-SQUARED SPACING: 0.0625
Info: NONBONDED TABLE SIZE: 705 POINTS
TCL: Setting parameter alchLambda2 to 1.0
Info: NONBONDED TABLE R-SQUARED SPACING: 0.0625
Info: NONBONDED TABLE SIZE: 705 POINTS
TCL: Running for 1500000 steps
ETITLE: TS BOND ANGLE DIHED IMPRP ELECT VDW BOUNDARY MISC KINETIC TOTAL TEMP POTENTIAL TOTALAVG TEMPAVG PRESSURE GPRESSURE VOLUME PRESSAVG GPRESSAVG
ENERGY: 0 2.0506 6.2838 4.3404 0.0000 -10567.5224 1422.2605 0.0000 0.0000 1735.6086 -7396.9785 297.4282 -9132.5871 -7396.9785 297.4282 -50.0861 40.8648 30424.0978 -50.0861 40.8648
ENERGY: 300000 1.8220 11.3485 5.8472 0.0000 -10831.0991 1522.2485 0.0000 0.0000 1777.7510 -7512.0819 304.6501 -9289.8329 -7483.3472 296.4668 356.3112 400.8973 30407.4821 163.1308 236.7475
ENERGY: 600000 1.4771 8.9025 4.6559 0.0000 -10692.3377 1491.9209 0.0000 0.0000 1763.4233 -7421.9579 302.1948 -9185.3812 -7454.0114 299.5513 824.9451 890.0890 29624.8468 122.5545 191.7486
ENERGY: 900000 0.7519 3.6639 3.8972 0.0000 -10780.5840 1517.0599 0.0000 0.0000 1758.4480 -7496.7631 301.3422 -9255.2112 -7456.3377 299.9420 582.2888 653.1714 30449.2493 183.4449 253.4039
ENERGY: 1200000 1.5216 10.5335 4.2443 0.0000 -10631.9048 1389.1333 0.0000 0.0000 1721.6706 -7504.8016 295.0397 -9226.4722 -7466.3318 298.8526 -453.4025 -413.7517 30332.2894 43.9541 109.6921
ENERGY: 1500000 2.1083 3.8104 3.5255 0.0000 -10551.1564 1349.8040 0.0000 0.0000 1797.8379 -7394.0703 308.0923 -9191.9081 -7456.1845 299.2151 -256.1070 -193.2354 29660.2995 26.4722 97.6338
TCL: Exiting due to exit command.
