Info: SIMULATION PARAMETERS:
Info: TIMESTEP               2
Info: NUMBER OF STEPS        0
Info: STEPS PER CYCLE        10
Info: PERIODIC CELL BASIS 1  30.7714 0 0
Info: PERIODIC CELL BASIS 2  0 28.6807 0
Info: PERIODIC CELL BASIS 3  0 0 34.0859
Info: PERIODIC CELL CENTER   0 0 0
Info: WRAPPING WATERS AROUND PERIODIC BOUNDARIES ON OUTPUT.
Info: WRAPPING ALL CLUSTERS AROUND PERIODIC BOUNDARIES ON OUTPUT.
Info: FIRST LDB TIMESTEP     50
Info: LAST LDB TIMESTEP     -1
Info: HOM BACKGROUND SCALING 1
Info: PME BACKGROUND SCALING 1
Info: MIN ATOMS PER PATCH    40
Info: EMPTY PATCH LOAD       40 ATOMS
Info: VELOCITY FILE          mobley_3968739_equil.vel
Info: CENTER OF MASS MOVING INITIALLY? NO
Info: DIELECTRIC             1
Info: EXCLUDE                SCALED ONE-FOUR
Info: 1-4 ELECTROSTATICS SCALED BY 0.833333
Info: MODIFIED 1-4 VDW PARAMETERS WILL BE USED
Info: DCD FILENAME           mobley_3968739_prod.dcd
Info: DCD FREQUENCY          100000
Info: DCD FIRST STEP         100000
Info: DCD FILE WILL CONTAIN UNIT CELL DATA
Info: XST FILENAME           mobley_3968739_prod.xst
Info: XST FREQUENCY          100000
Info: NO VELOCITY DCD OUTPUT
Info: NO FORCE DCD OUTPUT
Info: OUTPUT FILENAME        mobley_3968739_prod
Info: BINARY OUTPUT FILES WILL BE USED
Info: RESTART FILENAME       mobley_3968739_prod.restart
Info: RESTART FREQUENCY      100000
Info: BINARY RESTART FILES WILL BE USED
Info: CUTOFF                 9
Info: PAIRLIST DISTANCE      11
Info: PAIRLIST SHRINK RATE   0.01
Info: PAIRLIST GROW RATE     0.01
Info: PAIRLIST TRIGGER       0.3
Info: PAIRLISTS PER CYCLE    2
Info: PAIRLISTS ENABLED
Info: MARGIN                 2
Info: HYDROGEN GROUP CUTOFF  2.5
Info: PATCH DIMENSION        15.5
Info: ENERGY OUTPUT STEPS    100000
Info: ENERGY EVALUATION STEPS    100000
Info: OUTPUT ENERGY PRECISION 4
Info: CROSSTERM ENERGY INCLUDED IN DIHEDRAL
Info: TIMING OUTPUT STEPS    1000000
Info: PRESSURE OUTPUT STEPS  100000
Info: ALCHEMICAL FEP ON
Info: FEP CURRENT LAMBDA VALUE     1
Info: FEP COMPARISON LAMBDA VALUE  0.95
Info: FEP INTRA-ALCHEMICAL NON-BONDED INTERACTIONS WILL BE RETAINED
Info: FEP INTRA-ALCHEMICAL BONDED INTERACTIONS WILL BE RETAINED
Info: FEP VDW SHIFTING COEFFICIENT 5
Info: FEP ELEC. ACTIVE FOR ANNIHILATED PARTICLES BETWEEN LAMBDA = 0 AND LAMBDA = 0.5
Info: FEP ELEC. ACTIVE FOR EXNIHILATED PARTICLES BETWEEN LAMBDA = 0.5 AND LAMBDA = 1
Info: FEP VDW ACTIVE FOR ANNIHILATED PARTICLES BETWEEN LAMBDA = 0 AND LAMBDA = 1
Info: FEP VDW ACTIVE FOR EXNIHILATED PARTICLES BETWEEN LAMBDA = 0 AND LAMBDA = 1
Info: FEP BOND ACTIVE FOR ANNIHILATED PARTICLES BETWEEN LAMBDA = 1 AND LAMBDA = 1
Info: FEP BOND ACTIVE FOR EXNIHILATED PARTICLES BETWEEN LAMBDA = 0 AND LAMBDA = 0
Info: LANGEVIN DYNAMICS ACTIVE
Info: LANGEVIN TEMPERATURE   300
Info: LANGEVIN USING BBK INTEGRATOR
Info: LANGEVIN DAMPING COEFFICIENT IS 1 INVERSE PS
Info: LANGEVIN DYNAMICS APPLIED TO HYDROGENS
Info: LANGEVIN PISTON PRESSURE CONTROL ACTIVE
Info:        TARGET PRESSURE IS 1.01325 BAR
Info:     OSCILLATION PERIOD IS 50 FS
Info:             DECAY TIME IS 25 FS
Info:     PISTON TEMPERATURE IS 300 K
Info:       PRESSURE CONTROL IS GROUP-BASED
Info:    INITIAL STRAIN RATE IS 5.56814e-05 5.56814e-05 5.56814e-05
Info:       CELL FLUCTUATION IS ISOTROPIC
Info: PARTICLE MESH EWALD (PME) ACTIVE
Info: PME TOLERANCE               1e-06
Info: PME EWALD COEFFICIENT       0.348832
Info: PME INTERPOLATION ORDER     4
Info: PME GRID DIMENSIONS         32 32 36
Info: PME MAXIMUM GRID SPACING    1
Info: PME CALCULATION WILL BE PERFORMED ON GPU
Info: FULL ELECTROSTATIC EVALUATION FREQUENCY      2
Info: USING VERLET I (r-RESPA) MTS SCHEME.
Info: C1 SPLITTING OF LONG RANGE ELECTROSTATICS
Info: PLACING ATOMS IN PATCHES BY HYDROGEN GROUPS
Info: RIGID BONDS TO HYDROGEN : ALL
Info:         ERROR TOLERANCE : 1e-08
Info:          MAX ITERATIONS : 100
Info: RIGID WATER USING SETTLE ALGORITHM
Info: RANDOM NUMBER SEED     1743775563
Info: USE HYDROGEN BONDS?    NO
Info: Using AMBER format force field!
Info: AMBER PARM FILE        mobley_3968739.prmtop
Info: COORDINATE PDB         mobley_3968739.pdb
Info: Exclusions will be read from PARM file!
Info: SCNB (VDW SCALING)     2
Info: USING ARITHMETIC MEAN TO COMBINE L-J SIGMA PARAMETERS
Info: BINARY COORDINATES     mobley_3968739_equil.coor
Info: SUMMARY OF PARAMETERS:
Info: 9 BONDS
Info: 9 ANGLES
Info:   9 HARMONIC
Info:   0 COSINE-BASED
Info: 6 DIHEDRAL
Info: 0 IMPROPER
Info: 0 CROSSTERM
Info: 0 VDW
Info: 36 VDW_PAIRS
Info: 0 NBTHOLE_PAIRS
Info: To read alchdata from file: mobley_3968739.pdb
Info: To read alchflag data from column: 5
Info: STRUCTURE SUMMARY:
Info: 2901 ATOMS
Info: 2901 BONDS
Info: 28 ANGLES
Info: 41 DIHEDRALS
Info: 0 IMPROPERS
Info: 0 CROSSTERMS
Info: 2959 EXCLUSIONS
Info: 2891 RIGID BONDS
Info: ALCH: 0 ATOMS TO DISAPPEAR IN FINAL STATE
Info: ALCH: 18 ATOMS TO APPEAR IN FINAL STATE
Info: 5812 DEGREES OF FREEDOM
Info: 971 HYDROGEN GROUPS
Info: 4 ATOMS IN LARGEST HYDROGEN GROUP
Info: 971 MIGRATION GROUPS
Info: 4 ATOMS IN LARGEST MIGRATION GROUP
Info: TOTAL MASS = 17449.5 amu
Info: TOTAL CHARGE = 0.000200033 e
Info: MASS DENSITY = 0.96323 g/cm^3
Info: ATOM DENSITY = 0.096435 atoms/A^3
Info: ADDED 0 IMPLICIT EXCLUSIONS
Info: NONBONDED TABLE R-SQUARED SPACING: 0.0625
Info: NONBONDED TABLE SIZE: 705 POINTS
Info: REMOVING COM VELOCITY 0.134314 0.00159734 0.12112
Info: Use 3D box decompostion in PME FFT.
Info: Updated CUDA force table with 4096 elements.
Info: Updated CUDA LJ table with 8 x 8 elements.
Info: Found 17 unique exclusion lists needing 40 bytes
TCL: Running for 1500000 steps
ETITLE: TS BOND ANGLE DIHED IMPRP ELECT VDW BOUNDARY MISC KINETIC TOTAL TEMP POTENTIAL TOTALAVG TEMPAVG PRESSURE GPRESSURE VOLUME PRESSAVG GPRESSAVG
ENERGY: 0 3.3539 6.8858 3.7409 0.0000 -10473.0915 1420.9756 0.0000 0.0000 1686.4859 -7351.6493 292.0435 -9038.1352 -7351.6493 292.0435 53.9701 133.8711 30082.4259 53.9701 133.8711
ENERGY: 300000 4.4382 5.5653 2.6146 0.0000 -10456.6253 1422.6318 0.0000 0.0000 1760.1162 -7261.2593 304.7938 -9021.3755 -7345.4768 300.6516 180.5891 266.8929 29805.8079 96.5613 138.1777
ENERGY: 600000 3.8939 6.8972 3.1986 0.0000 -10506.4896 1394.5251 0.0000 0.0000 1745.8953 -7352.0794 302.3312 -9097.9747 -7344.3426 302.3706 -93.0125 -56.0134 29826.2710 10.3615 52.9356
ENERGY: 900000 3.4218 6.3105 5.2537 0.0000 -10548.3332 1458.7617 0.0000 0.0000 1685.5266 -7389.0589 291.8773 -9074.5855 -7347.7630 300.1983 369.9146 396.4334 29885.6496 47.5470 83.5602
ENERGY: 1200000 3.3345 7.1888 3.4860 0.0000 -10537.4269 1450.8707 0.0000 0.0000 1753.4541 -7319.0929 303.6401 -9072.5470 -7348.1553 300.3165 264.2823 324.0605 29720.8724 -40.2885 -2.8354
ENERGY: 1500000 3.3504 5.8737 7.7550 0.0000 -10337.6605 1289.0073 0.0000 0.0000 1742.1294 -7289.5446 301.6791 -9031.6741 -7339.1821 299.8902 -622.0942 -563.9804 29937.4997 -108.5914 -70.1962
TCL: Running FEP window   2: Lambda1 0.95   Lambda2 0.8999999999999999 [dLambda -0.050000000000000044]
TCL: Setting parameter firsttimestep to 0
TCL: Setting parameter alchLambda to 0.95
Info: NONBONDED TABLE R-SQUARED SPACING: 0.0625
Info: NONBONDED TABLE SIZE: 705 POINTS
TCL: Setting parameter alchLambda2 to 0.8999999999999999
Info: NONBONDED TABLE R-SQUARED SPACING: 0.0625
Info: NONBONDED TABLE SIZE: 705 POINTS
TCL: Running for 1500000 steps
ETITLE: TS BOND ANGLE DIHED IMPRP ELECT VDW BOUNDARY MISC KINETIC TOTAL TEMP POTENTIAL TOTALAVG TEMPAVG PRESSURE GPRESSURE VOLUME PRESSAVG GPRESSAVG
ENERGY: 0 3.3504 5.8737 7.7550 0.0000 -10335.8330 1289.3197 0.0000 0.0000 1741.2719 -7288.2624 301.5306 -9029.5342 -7288.2624 301.5306 -664.5709 -568.2581 29937.4997 -664.5709 -568.2581
ENERGY: 300000 4.3536 6.0474 1.8499 0.0000 -10556.2965 1466.0924 0.0000 0.0000 1687.9060 -7390.0473 292.2894 -9077.9533 -7322.1153 297.8174 298.5970 317.7205 30193.0710 375.0092 422.8845
ENERGY: 600000 3.2346 6.0583 3.3004 0.0000 -10406.2858 1358.0947 0.0000 0.0000 1709.5025 -7326.0954 296.0292 -9035.5979 -7343.6772 297.9343 -316.1248 -212.7301 29787.3749 200.7606 263.9655
ENERGY: 900000 3.1430 4.9319 1.3871 0.0000 -10603.4221 1488.4061 0.0000 0.0000 1764.0761 -7341.4779 305.4795 -9105.5539 -7344.0720 299.2854 723.1158 717.3605 29777.2052 182.6621 246.2668
ENERGY: 1200000 3.1253 2.4894 4.4955 0.0000 -10431.6053 1397.4713 0.0000 0.0000 1715.0298 -7308.9940 296.9863 -9024.0238 -7344.4008 299.5110 -212.5514 -121.0166 30368.2783 148.2512 218.4790
ENERGY: 1500000 5.2551 11.1508 2.4554 0.0000 -10462.4753 1350.1813 0.0000 0.0000 1769.1895 -7324.2432 306.3650 -9093.4328 -7344.5175 299.7768 -667.5787 -527.1854 29780.3838 57.2749 122.3155
TCL: Running FEP window   3: Lambda1 0.8999999999999999 Lambda2 0.8499999999999999 [dLambda -0.050000000000000044]
TCL: Setting parameter firsttimestep to 0
TCL: Setting parameter alchLambda to 0.8999999999999999
Info: NONBONDED TABLE R-SQUARED SPACING: 0.0625
Info: NONBONDED TABLE SIZE: 705 POINTS
TCL: Setting parameter alchLambda2 to 0.8499999999999999
Info: NONBONDED TABLE R-SQUARED SPACING: 0.0625
Info: NONBONDED TABLE SIZE: 705 POINTS
TCL: Running for 1500000 steps
ETITLE: TS BOND ANGLE DIHED IMPRP ELECT VDW BOUNDARY MISC KINETIC TOTAL TEMP POTENTIAL TOTALAVG TEMPAVG PRESSURE GPRESSURE VOLUME PRESSAVG GPRESSAVG
ENERGY: 0 5.2550 11.1508 2.4554 0.0000 -10460.8612 1350.4337 0.0000 0.0000 1768.3231 -7323.2432 306.2149 -9091.5663 -7323.2432 306.2149 -635.2596 -536.0013 29780.3838 -635.2596 -536.0013
ENERGY: 300000 2.7303 6.6933 5.2052 0.0000 -10531.8386 1445.9324 0.0000 0.0000 1814.6412 -7256.6362 314.2357 -9071.2774 -7341.5272 303.0136 225.6859 248.7521 29999.9229 -99.6147 -51.8883
ENERGY: 600000 4.0794 5.5214 2.2873 0.0000 -10353.0320 1429.1722 0.0000 0.0000 1740.0096 -7171.9622 301.3120 -8911.9717 -7319.1824 302.9549 504.4786 570.2462 29933.3776 35.3122 96.2526
ENERGY: 900000 4.5236 6.3128 5.4467 0.0000 -10569.5998 1490.5581 0.0000 0.0000 1724.2966 -7338.4620 298.5910 -9062.7586 -7318.2556 302.1186 786.5775 894.4573 29466.2270 110.3215 168.2658
ENERGY: 1200000 3.6915 4.1019 9.6207 0.0000 -10295.2519 1337.0190 0.0000 0.0000 1776.1222 -7164.6966 307.5655 -8940.8188 -7309.1440 301.9725 -441.2429 -377.8843 30390.6397 -85.9613 -28.5025
ENERGY: 1500000 3.9660 4.6650 3.7509 0.0000 -10512.9595 1430.7077 0.0000 0.0000 1797.4367 -7272.4332 311.2565 -9069.8699 -7312.5822 302.4154 203.0133 227.3097 29935.7094 -123.2732 -58.8492
TCL: Running FEP window   4: Lambda1 0.8499999999999999 Lambda2 0.7999999999999998 [dLambda -0.050000000000000044]
TCL: Setting parameter firsttimestep to 0
TCL: Setting parameter alchLambda to 0.8499999999999999
Info: NONBONDED TABLE R-SQUARED SPACING: 0.0625
Info: NONBONDED TABLE SIZE: 705 POINTS
TCL: Setting parameter alchLambda2 to 0.7999999999999998
Info: NONBONDED TABLE R-SQUARED SPACING: 0.0625
Info: NONBONDED TABLE SIZE: 705 POINTS
TCL: Running for 1500000 steps
ETITLE: TS BOND ANGLE DIHED IMPRP ELECT VDW BOUNDARY MISC KINETIC TOTAL TEMP POTENTIAL TOTALAVG TEMPAVG PRESSURE GPRESSURE VOLUME PRESSAVG GPRESSAVG
ENERGY: 0 3.9660 4.6650 3.7509 0.0000 -10511.4930 1430.5091 0.0000 0.0000 1796.6293 -7271.9727 311.1166 -9068.6020 -7271.9727 311.1166 131.2729 211.6483 29935.7094 131.2729 211.6483
ENERGY: 300000 4.0623 8.7950 3.3548 0.0000 -10477.2823 1410.7386 0.0000 0.0000 1745.5781 -7304.7535 302.2763 -9050.3316 -7342.9060 303.1238 311.9997 427.5337 29296.5930 218.8430 293.4205
ENERGY: 600000 2.3878 3.2289 4.8231 0.0000 -10539.6167 1445.3288 0.0000 0.0000 1726.5189 -7357.3293 298.9759 -9083.8482 -7337.8182 301.7305 -111.1432 -39.2378 30439.1865 -20.4823 57.7151
ENERGY: 900000 4.0037 6.4726 5.1074 0.0000 -10462.1328 1396.3328 0.0000 0.0000 1753.1674 -7297.0488 303.5905 -9050.2162 -7333.9209 301.2827 -138.6781 -33.1193 29846.8734 -6.7791 65.4549
ENERGY: 1200000 0.9831 4.6811 5.0195 0.0000 -10482.9586 1380.9657 0.0000 0.0000 1686.6710 -7404.6382 292.0755 -9091.3093 -7333.3796 300.9005 -292.5168 -336.8851 29872.8052 -71.6323 -15.3577
ENERGY: 1500000 4.8276 4.7197 6.0677 0.0000 -10413.1578 1350.4469 0.0000 0.0000 1759.9347 -7287.1614 304.7624 -9047.0960 -7329.6421 301.1971 -663.1614 -595.9497 30540.7245 -58.2551 -3.7521
TCL: Running FEP window   5: Lambda1 0.7999999999999998 Lambda2 0.7499999999999998 [dLambda -0.050000000000000044]
TCL: Setting parameter firsttimestep to 0
TCL: Setting parameter alchLambda to 0.7999999999999998
Info: NONBONDED TABLE R-SQUARED SPACING: 0.0625
Info: NONBONDED TABLE SIZE: 705 POINTS
TCL: Setting parameter alchLambda2 to 0.7499999999999998
Info: NONBONDED TABLE R-SQUARED SPACING: 0.0625
Info: NONBONDED TABLE SIZE: 705 POINTS
TCL: Running for 1500000 steps
ETITLE: TS BOND ANGLE DIHED IMPRP ELECT VDW BOUNDARY MISC KINETIC TOTAL TEMP POTENTIAL TOTALAVG TEMPAVG PRESSURE GPRESSURE VOLUME PRESSAVG GPRESSAVG
ENERGY: 0 4.8276 4.7197 6.0677 0.0000 -10411.4592 1349.5666 0.0000 0.0000 1759.0757 -7287.2020 304.6136 -9046.2777 -7287.2020 304.6136 -695.5192 -616.0158 30540.7245 -695.5192 -616.0158
ENERGY: 300000 5.7487 3.8637 6.2811 0.0000 -10406.8344 1377.4623 0.0000 0.0000 1714.7685 -7298.7102 296.9411 -9013.4787 -7319.9920 299.3052 -196.3497 -117.9548 29783.2313 95.0049 147.0193
ENERGY: 600000 5.0603 6.5553 3.0279 0.0000 -10482.8183 1394.4859 0.0000 0.0000 1748.7249 -7324.9640 302.8212 -9073.6888 -7292.1225 299.7448 -183.0792 -66.2260 29823.2523 116.3507 179.9683
ENERGY: 900000 0.9777 4.2050 4.3198 0.0000 -10333.2516 1290.1600 0.0000 0.0000 1766.5870 -7267.0021 305.9143 -9033.5891 -7287.9659 300.5130 -683.2860 -607.8814 29586.1654 -82.4178 -26.4870
ENERGY: 1200000 5.5165 4.4103 4.6414 0.0000 -10521.2952 1481.8731 0.0000 0.0000 1792.9077 -7231.9463 310.4722 -9024.8540 -7293.5825 302.3649 1085.5766 1119.3352 29313.0482 41.9150 100.0775
ENERGY: 1500000 4.1916 3.5081 4.5532 0.0000 -10622.0418 1496.5498 0.0000 0.0000 1775.0247 -7338.2144 307.3755 -9113.2391 -7297.8929 302.6108 384.9731 438.9518 29825.9528 10.7986 79.0796
TCL: Running FEP window   6: Lambda1 0.7499999999999998 Lambda2 0.6999999999999997 [dLambda -0.050000000000000044]
TCL: Setting parameter firsttimestep to 0
TCL: Setting parameter alchLambda to 0.7499999999999998
Info: NONBONDED TABLE R-SQUARED SPACING: 0.0625
Info: NONBONDED TABLE SIZE: 705 POINTS
TCL: Setting parameter alchLambda2 to 0.6999999999999997
Info: NONBONDED TABLE R-SQUARED SPACING: 0.0625
Info: NONBONDED TABLE SIZE: 705 POINTS
TCL: Running for 1500000 steps
ETITLE: TS BOND ANGLE DIHED IMPRP ELECT VDW BOUNDARY MISC KINETIC TOTAL TEMP POTENTIAL TOTALAVG TEMPAVG PRESSURE GPRESSURE VOLUME PRESSAVG GPRESSAVG
ENERGY: 0 4.1916 3.5081 4.5532 0.0000 -10620.2904 1496.6766 0.0000 0.0000 1774.1583 -7337.2027 307.2254 -9111.3610 -7337.2027 307.2254 344.2972 430.8105 29825.9528 344.2972 430.8105
ENERGY: 300000 5.0864 9.5815 3.6902 0.0000 -10484.5612 1405.6709 0.0000 0.0000 1739.1655 -7321.3667 301.1658 -9060.5323 -7317.2162 302.8252 -333.9710 -241.4686 30146.5183 -104.2318 -15.8707
ENERGY: 600000 2.3630 4.7189 2.3041 0.0000 -10473.8460 1407.2957 0.0000 0.0000 1731.7347 -7325.4297 299.8791 -9057.1644 -7337.3620 300.9266 -120.3412 -77.5882 30046.2629 -3.4435 65.4147
ENERGY: 900000 3.9189 4.7154 7.3033 0.0000 -10561.9957 1458.3536 0.0000 0.0000 1730.8930 -7356.8116 299.7333 -9087.7046 -7330.5716 300.8312 218.4751 246.5899 30324.5035 70.4822 135.2478
ENERGY: 1200000 5.2714 2.9014 4.4273 0.0000 -10571.6429 1401.5342 0.0000 0.0000 1705.2680 -7452.2406 295.2959 -9157.5086 -7330.3450 301.4129 -288.3515 -249.2283 29566.9867 -33.8271 30.1418
ENERGY: 1500000 2.8959 6.0473 5.8218 0.0000 -10460.5877 1441.0411 0.0000 0.0000 1713.2936 -7291.4879 296.6857 -9004.7815 -7329.3355 300.8603 130.9278 214.4094 30109.3649 -77.2522 -11.7459
TCL: Running FEP window   7: Lambda1 0.6999999999999997 Lambda2 0.6499999999999997 [dLambda -0.050000000000000044]
TCL: Setting parameter firsttimestep to 0
TCL: Setting parameter alchLambda to 0.6999999999999997
Info: NONBONDED TABLE R-SQUARED SPACING: 0.0625
Info: NONBONDED TABLE SIZE: 705 POINTS
TCL: Setting parameter alchLambda2 to 0.6499999999999997
Info: NONBONDED TABLE R-SQUARED SPACING: 0.0625
Info: NONBONDED TABLE SIZE: 705 POINTS
TCL: Running for 1500000 steps
ETITLE: TS BOND ANGLE DIHED IMPRP ELECT VDW BOUNDARY MISC KINETIC TOTAL TEMP POTENTIAL TOTALAVG TEMPAVG PRESSURE GPRESSURE VOLUME PRESSAVG GPRESSAVG
ENERGY: 0 2.8959 6.0473 5.8218 0.0000 -10459.6718 1441.3792 0.0000 0.0000 1712.4291 -7291.0985 296.5360 -9003.5276 -7291.0985 296.5360 116.9202 205.4374 30109.3649 116.9202 205.4374
ENERGY: 300000 1.3684 5.2752 3.7066 0.0000 -10330.1037 1326.0963 0.0000 0.0000 1717.2302 -7276.4270 297.3674 -8993.6572 -7317.3373 298.0423 -227.7449 -160.4329 29562.1264 376.6487 439.1860
ENERGY: 600000 2.5407 6.0339 4.4477 0.0000 -10495.6583 1401.4160 0.0000 0.0000 1697.3765 -7383.8434 293.9294 -9081.2199 -7329.2210 299.2927 -116.5846 -32.6868 29786.2462 203.4189 277.8898
ENERGY: 900000 3.2320 3.7048 3.3182 0.0000 -10360.5039 1296.7757 0.0000 0.0000 1709.1975 -7344.2757 295.9764 -9053.4732 -7332.1982 299.1151 -1143.5080 -1055.6244 30172.4072 136.6334 209.3079
ENERGY: 1200000 1.7666 2.9032 1.6827 0.0000 -10332.1829 1266.0658 0.0000 0.0000 1721.3576 -7338.4070 298.0821 -9059.7646 -7334.8901 298.9930 -1041.0421 -932.8976 29678.6136 42.8531 117.2036
ENERGY: 1500000 2.2606 3.9611 2.5586 0.0000 -10503.5914 1445.9967 0.0000 0.0000 1758.3302 -7290.4843 304.4845 -9048.8145 -7336.4725 298.9199 197.8479 282.1393 30021.7332 32.8401 110.9745
TCL: Running FEP window   8: Lambda1 0.6499999999999997 Lambda2 0.5999999999999996 [dLambda -0.050000000000000044]
TCL: Setting parameter firsttimestep to 0
TCL: Setting parameter alchLambda to 0.6499999999999997
Info: NONBONDED TABLE R-SQUARED SPACING: 0.0625
Info: NONBONDED TABLE SIZE: 705 POINTS
TCL: Setting parameter alchLambda2 to 0.5999999999999996
Info: NONBONDED TABLE R-SQUARED SPACING: 0.0625
Info: NONBONDED TABLE SIZE: 705 POINTS
TCL: Running for 1500000 steps
ETITLE: TS BOND ANGLE DIHED IMPRP ELECT VDW BOUNDARY MISC KINETIC TOTAL TEMP POTENTIAL TOTALAVG TEMPAVG PRESSURE GPRESSURE VOLUME PRESSAVG GPRESSAVG
ENERGY: 0 2.2606 3.9611 2.5586 0.0000 -10502.9164 1446.5382 0.0000 0.0000 1757.4433 -7290.1546 304.3309 -9047.5979 -7290.1546 304.3309 185.2411 279.2301 30021.7332 185.2411 279.2301
ENERGY: 300000 3.4306 2.1272 2.4185 0.0000 -10595.2098 1492.9800 0.0000 0.0000 1711.6257 -7382.6277 296.3968 -9094.2534 -7344.3499 296.8930 356.5779 455.8865 29945.1971 -57.9838 3.6436
ENERGY: 600000 1.7140 3.6019 3.8146 0.0000 -10569.6403 1422.3130 0.0000 0.0000 1710.0849 -7428.1118 296.1300 -9138.1967 -7363.9289 296.0111 81.2257 73.8963 29553.3887 -36.8383 12.3352
ENERGY: 900000 2.8290 4.7397 1.4776 0.0000 -10541.2669 1372.7585 0.0000 0.0000 1696.8870 -7462.5751 293.8446 -9159.4620 -7379.6855 296.0937 -275.2965 -255.3273 29288.8743 -106.3427 -60.7333
ENERGY: 1200000 5.0512 9.9038 4.6112 0.0000 -10526.3288 1440.6993 0.0000 0.0000 1716.9408 -7349.1226 297.3172 -9066.0634 -7370.8594 297.1017 216.4986 289.5213 29737.6412 -107.7926 -53.9714
ENERGY: 1500000 3.9403 9.4726 4.7482 0.0000 -10478.3976 1439.5550 0.0000 0.0000 1740.3317 -7280.3498 301.3678 -9020.6815 -7355.8046 298.2724 144.1943 225.2662 30111.9877 -35.7353 21.7546
TCL: Running FEP window   9: Lambda1 0.5999999999999996 Lambda2 0.5499999999999996 [dLambda -0.050000000000000044]
TCL: Setting parameter firsttimestep to 0
TCL: Setting parameter alchLambda to 0.5999999999999996
Info: NONBONDED TABLE R-SQUARED SPACING: 0.0625
Info: NONBONDED TABLE SIZE: 705 POINTS
TCL: Setting parameter alchLambda2 to 0.5499999999999996
Info: NONBONDED TABLE R-SQUARED SPACING: 0.0625
Info: NONBONDED TABLE SIZE: 705 POINTS
TCL: Running for 1500000 steps
ETITLE: TS BOND ANGLE DIHED IMPRP ELECT VDW BOUNDARY MISC KINETIC TOTAL TEMP POTENTIAL TOTALAVG TEMPAVG PRESSURE GPRESSURE VOLUME PRESSAVG GPRESSAVG
ENERGY: 0 3.9403 9.4726 4.7482 0.0000 -10476.9295 1439.0536 0.0000 0.0000 1739.4814 -7280.2335 301.2205 -9019.7149 -7280.2335 301.2205 148.9937 217.7291 30111.9877 148.9937 217.7291
ENERGY: 300000 0.9377 6.1815 5.0539 0.0000 -10427.4763 1313.0710 0.0000 0.0000 1736.0933 -7366.1388 300.6338 -9102.2321 -7322.9837 302.1851 -1047.0320 -988.9002 30205.9937 -105.1461 -56.9696
ENERGY: 600000 4.9109 6.4504 3.9754 0.0000 -10490.9981 1406.8401 0.0000 0.0000 1689.7386 -7379.0827 292.6067 -9068.8214 -7340.4482 300.5090 -34.6193 84.6554 29668.8493 -124.9701 -62.1954
ENERGY: 900000 2.8747 6.0484 5.3998 0.0000 -10469.0889 1386.6909 0.0000 0.0000 1722.5975 -7345.4777 298.2968 -9068.0751 -7347.8726 299.9344 -39.9884 7.7746 29633.5041 -82.8110 -16.8383
ENERGY: 1200000 3.5249 4.0828 4.5561 0.0000 -10575.0040 1503.5990 0.0000 0.0000 1778.0161 -7281.2251 307.8935 -9059.2412 -7354.7281 300.4554 662.0855 726.9944 29794.1213 10.5646 72.6240
ENERGY: 1500000 3.5927 3.2209 3.3180 0.0000 -10414.2891 1377.2306 0.0000 0.0000 1726.0167 -7300.9103 298.8889 -9026.9269 -7339.8831 300.9151 -514.3267 -473.3113 30270.7459 -59.6341 -0.9612
TCL: Running FEP window  10: Lambda1 0.5499999999999996 Lambda2 0.4999999999999996 [dLambda -0.04999999999999999]
TCL: Setting parameter firsttimestep to 0
TCL: Setting parameter alchLambda to 0.5499999999999996
Info: NONBONDED TABLE R-SQUARED SPACING: 0.0625
Info: NONBONDED TABLE SIZE: 705 POINTS
TCL: Setting parameter alchLambda2 to 0.4999999999999996
Info: NONBONDED TABLE R-SQUARED SPACING: 0.0625
Info: NONBONDED TABLE SIZE: 705 POINTS
TCL: Running for 1500000 steps
ETITLE: TS BOND ANGLE DIHED IMPRP ELECT VDW BOUNDARY MISC KINETIC TOTAL TEMP POTENTIAL TOTALAVG TEMPAVG PRESSURE GPRESSURE VOLUME PRESSAVG GPRESSAVG
ENERGY: 0 3.5927 3.2210 3.3180 0.0000 -10414.1570 1377.3812 0.0000 0.0000 1725.1246 -7301.5195 298.7344 -9026.6441 -7301.5195 298.7344 -578.5481 -483.6087 30270.7459 -578.5481 -483.6087
ENERGY: 300000 1.8054 6.1274 5.4074 0.0000 -10612.9521 1480.0005 0.0000 0.0000 1726.8100 -7392.8013 299.0263 -9119.6114 -7296.6649 301.6718 630.7779 751.0258 29215.7615 23.7280 116.8635
ENERGY: 600000 3.3036 6.1024 3.4848 0.0000 -10530.6394 1405.9710 0.0000 0.0000 1701.1589 -7410.6187 294.5843 -9111.7776 -7303.1414 303.8429 -340.5487 -212.5953 29664.1353 -102.2425 -24.6696
ENERGY: 900000 2.7094 5.7638 6.3401 0.0000 -10548.2064 1455.3061 0.0000 0.0000 1737.3604 -7340.7266 300.8532 -9078.0870 -7303.6722 302.9837 476.1659 457.3025 29649.7398 -79.6728 -20.5440
ENERGY: 1200000 4.6829 3.4828 2.1081 0.0000 -10491.9452 1427.4038 0.0000 0.0000 1776.7285 -7277.5391 307.6705 -9054.2676 -7305.4557 303.5940 13.0044 8.1447 30200.0896 -37.5374 8.1896
ENERGY: 1500000 3.6080 7.1388 3.1236 0.0000 -10518.8425 1416.2491 0.0000 0.0000 1740.8459 -7347.8770 301.4568 -9088.7229 -7313.9794 302.2795 -205.1604 -97.3056 29869.2599 -58.8655 -8.3988
TCL: Running FEP window  11: Lambda1 0.4999999999999996 Lambda2 0.4499999999999996 [dLambda -0.04999999999999999]
TCL: Setting parameter firsttimestep to 0
TCL: Setting parameter alchLambda to 0.4999999999999996
Info: NONBONDED TABLE R-SQUARED SPACING: 0.0625
Info: NONBONDED TABLE SIZE: 705 POINTS
TCL: Setting parameter alchLambda2 to 0.4499999999999996
Info: NONBONDED TABLE R-SQUARED SPACING: 0.0625
Info: NONBONDED TABLE SIZE: 705 POINTS
TCL: Running for 1500000 steps
ETITLE: TS BOND ANGLE DIHED IMPRP ELECT VDW BOUNDARY MISC KINETIC TOTAL TEMP POTENTIAL TOTALAVG TEMPAVG PRESSURE GPRESSURE VOLUME PRESSAVG GPRESSAVG
ENERGY: 0 3.6080 7.1388 3.1236 0.0000 -10519.7199 1416.0604 0.0000 0.0000 1739.9673 -7349.8218 301.3047 -9089.7890 -7349.8218 301.3047 -194.2436 -110.6356 29869.2599 -194.2436 -110.6356
ENERGY: 300000 4.1935 7.2679 2.4679 0.0000 -10345.1658 1282.2203 0.0000 0.0000 1730.3902 -7318.6260 299.6462 -9049.0162 -7327.1399 302.7187 -1011.7589 -957.9785 29989.4469 -415.8382 -329.0862
ENERGY: 600000 1.8820 5.6584 2.9999 0.0000 -10450.6901 1307.7023 0.0000 0.0000 1744.9430 -7387.5044 302.1663 -9132.4474 -7346.9044 299.6029 -960.5778 -943.0057 29988.8652 -393.6257 -316.7007
ENERGY: 900000 5.5278 8.1666 1.7102 0.0000 -10487.7519 1385.7579 0.0000 0.0000 1731.1965 -7355.3929 299.7859 -9086.5894 -7336.0209 300.0493 -254.9451 -183.9497 29482.0527 -318.0114 -244.6935
ENERGY: 1200000 2.1837 6.4000 10.5578 0.0000 -10500.0585 1422.8352 0.0000 0.0000 1772.3047 -7285.7771 306.9044 -9058.0818 -7345.3276 300.1710 -106.2356 -13.0136 30282.7771 -369.0878 -292.0482
ENERGY: 1500000 6.4910 3.3023 2.8908 0.0000 -10459.2611 1403.6237 0.0000 0.0000 1735.6103 -7307.3431 300.5502 -9042.9533 -7341.0882 300.0277 -145.1515 -129.5046 29933.5472 -368.5859 -299.0953
TCL: Running FEP window  12: Lambda1 0.4499999999999996 Lambda2 0.39999999999999963 [dLambda -0.04999999999999999]
TCL: Setting parameter firsttimestep to 0
TCL: Setting parameter alchLambda to 0.4499999999999996
Info: NONBONDED TABLE R-SQUARED SPACING: 0.0625
Info: NONBONDED TABLE SIZE: 705 POINTS
TCL: Setting parameter alchLambda2 to 0.39999999999999963
Info: NONBONDED TABLE R-SQUARED SPACING: 0.0625
Info: NONBONDED TABLE SIZE: 705 POINTS
TCL: Running for 1500000 steps
ETITLE: TS BOND ANGLE DIHED IMPRP ELECT VDW BOUNDARY MISC KINETIC TOTAL TEMP POTENTIAL TOTALAVG TEMPAVG PRESSURE GPRESSURE VOLUME PRESSAVG GPRESSAVG
ENERGY: 0 6.4910 3.3023 2.8908 0.0000 -10459.2611 1404.1375 0.0000 0.0000 1734.7240 -7307.7155 300.3967 -9042.4395 -7307.7155 300.3967 -219.7917 -132.4287 29933.5472 -219.7917 -132.4287
ENERGY: 300000 4.8753 3.7278 2.7779 0.0000 -10446.6876 1404.7921 0.0000 0.0000 1701.0167 -7329.4978 294.5597 -9030.5145 -7304.6424 298.6650 15.2580 80.7491 29713.6079 -129.7290 -46.3016
ENERGY: 600000 2.3252 4.7817 4.9506 0.0000 -10507.7663 1394.9539 0.0000 0.0000 1726.9984 -7373.7565 299.0589 -9100.7549 -7325.5451 300.2718 -227.4401 -136.3054 29643.7714 -52.0672 18.9778
ENERGY: 900000 4.7354 4.8830 5.1226 0.0000 -10437.0530 1371.2953 0.0000 0.0000 1768.9587 -7282.0579 306.3250 -9051.0167 -7321.8731 299.9422 -326.9414 -346.0520 30032.3679 59.2136 119.2194
ENERGY: 1200000 2.5847 6.4954 2.1119 0.0000 -10576.9941 1447.0191 0.0000 0.0000 1719.6196 -7399.1634 297.7811 -9118.7830 -7316.3031 300.3488 29.1006 57.9431 29701.2493 -3.0410 53.4934
ENERGY: 1500000 4.9654 6.3917 4.2169 0.0000 -10425.1468 1343.6549 0.0000 0.0000 1729.3818 -7336.5361 299.4716 -9065.9179 -7331.7798 299.5671 -639.3555 -586.2752 29695.5456 -103.2488 -47.8505
TCL: Running FEP window  13: Lambda1 0.39999999999999963 Lambda2 0.34999999999999964 [dLambda -0.04999999999999999]
TCL: Setting parameter firsttimestep to 0
TCL: Setting parameter alchLambda to 0.39999999999999963
Info: NONBONDED TABLE R-SQUARED SPACING: 0.0625
Info: NONBONDED TABLE SIZE: 705 POINTS
TCL: Setting parameter alchLambda2 to 0.34999999999999964
Info: NONBONDED TABLE R-SQUARED SPACING: 0.0625
Info: NONBONDED TABLE SIZE: 705 POINTS
TCL: Running for 1500000 steps
ETITLE: TS BOND ANGLE DIHED IMPRP ELECT VDW BOUNDARY MISC KINETIC TOTAL TEMP POTENTIAL TOTALAVG TEMPAVG PRESSURE GPRESSURE VOLUME PRESSAVG GPRESSAVG
ENERGY: 0 4.9654 6.3917 4.2169 0.0000 -10425.1478 1343.7040 0.0000 0.0000 1728.4973 -7337.3726 299.3184 -9065.8698 -7337.3726 299.3184 -678.5666 -592.4603 29695.5456 -678.5666 -592.4603
ENERGY: 300000 3.1773 7.6129 4.9344 0.0000 -10365.6936 1334.8541 0.0000 0.0000 1763.6233 -7251.4916 305.4011 -9015.1149 -7317.1620 301.8667 -760.2565 -667.4194 30116.7594 -450.4769 -375.1151
ENERGY: 600000 4.0961 4.5020 4.4532 0.0000 -10399.1985 1404.2858 0.0000 0.0000 1694.4982 -7287.3632 293.4309 -8981.8614 -7317.8133 299.0690 -213.7255 -161.4165 30148.9595 -348.1379 -288.6810
ENERGY: 900000 5.3326 2.4459 2.8868 0.0000 -10469.9057 1405.4742 0.0000 0.0000 1718.0129 -7335.7532 297.5029 -9053.7660 -7325.1450 299.6412 -33.9796 -13.2094 29756.2896 -138.4521 -90.9767
ENERGY: 1200000 1.1188 2.7000 6.7508 0.0000 -10580.1864 1489.6062 0.0000 0.0000 1697.9860 -7382.0245 294.0349 -9080.0105 -7320.8025 300.3502 529.4428 586.3379 29805.4050 -118.8437 -67.9410
ENERGY: 1500000 5.9617 4.4362 8.9056 0.0000 -10442.0186 1390.2299 0.0000 0.0000 1754.4262 -7278.0590 303.8085 -9032.4852 -7321.7901 300.4057 -119.6733 -127.9743 29656.2875 -103.2417 -58.9623
TCL: Running FEP window  14: Lambda1 0.34999999999999964 Lambda2 0.29999999999999966 [dLambda -0.04999999999999999]
TCL: Setting parameter firsttimestep to 0
TCL: Setting parameter alchLambda to 0.34999999999999964
Info: NONBONDED TABLE R-SQUARED SPACING: 0.0625
Info: NONBONDED TABLE SIZE: 705 POINTS
TCL: Setting parameter alchLambda2 to 0.29999999999999966
Info: NONBONDED TABLE R-SQUARED SPACING: 0.0625
Info: NONBONDED TABLE SIZE: 705 POINTS
TCL: Running for 1500000 steps
ETITLE: TS BOND ANGLE DIHED IMPRP ELECT VDW BOUNDARY MISC KINETIC TOTAL TEMP POTENTIAL TOTALAVG TEMPAVG PRESSURE GPRESSURE VOLUME PRESSAVG GPRESSAVG
ENERGY: 0 5.9618 4.4362 8.9056 0.0000 -10442.0184 1390.1331 0.0000 0.0000 1753.5794 -7279.0023 303.6618 -9032.5817 -7279.0023 303.6618 -204.1045 -134.0371 29656.2875 -204.1045 -134.0371
ENERGY: 300000 1.1441 6.2022 2.8044 0.0000 -10419.1607 1417.3065 0.0000 0.0000 1730.8494 -7260.8542 299.7258 -8991.7036 -7306.6128 302.0808 205.0574 249.9255 29989.3473 -367.5608 -305.9079
ENERGY: 600000 5.1313 3.6228 3.2978 0.0000 -10489.3836 1386.5494 0.0000 0.0000 1776.8267 -7313.9556 307.6875 -9090.7823 -7293.5695 303.3274 -357.9854 -320.3611 29948.1156 -286.6402 -240.0297
ENERGY: 900000 3.3499 4.1899 2.0440 0.0000 -10458.9068 1383.0822 0.0000 0.0000 1728.5547 -7337.6860 299.3284 -9066.2408 -7297.6384 302.8271 -422.2757 -411.6268 29880.0757 -256.4823 -215.8397
ENERGY: 1200000 5.0524 4.9805 3.2557 0.0000 -10533.5438 1381.5246 0.0000 0.0000 1677.6908 -7461.0398 290.5204 -9138.7306 -7320.5571 300.8996 -584.1671 -593.5123 30056.1600 -264.8089 -225.4861
ENERGY: 1500000 5.1890 4.8763 3.4609 0.0000 -10380.1731 1369.8836 0.0000 0.0000 1715.3790 -7281.3843 297.0468 -8996.7633 -7327.9213 300.5354 -319.2854 -230.9934 30319.7778 -262.2178 -224.0520
TCL: Running FEP window  15: Lambda1 0.29999999999999966 Lambda2 0.24999999999999967 [dLambda -0.04999999999999999]
TCL: Setting parameter firsttimestep to 0
TCL: Setting parameter alchLambda to 0.29999999999999966
Info: NONBONDED TABLE R-SQUARED SPACING: 0.0625
Info: NONBONDED TABLE SIZE: 705 POINTS
TCL: Setting parameter alchLambda2 to 0.24999999999999967
Info: NONBONDED TABLE R-SQUARED SPACING: 0.0625
Info: NONBONDED TABLE SIZE: 705 POINTS
TCL: Running for 1500000 steps
ETITLE: TS BOND ANGLE DIHED IMPRP ELECT VDW BOUNDARY MISC KINETIC TOTAL TEMP POTENTIAL TOTALAVG TEMPAVG PRESSURE GPRESSURE VOLUME PRESSAVG GPRESSAVG
ENERGY: 0 5.1890 4.8763 3.4609 0.0000 -10380.1723 1370.2646 0.0000 0.0000 1714.5281 -7281.8535 296.8994 -8996.3816 -7281.8535 296.8994 -319.9692 -233.2849 30319.7778 -319.9692 -233.2849
ENERGY: 300000 5.5861 5.1000 2.8879 0.0000 -10577.6741 1450.4341 0.0000 0.0000 1759.8122 -7353.8538 304.7412 -9113.6661 -7330.2846 301.3224 294.2009 367.9857 29078.7688 -156.4405 -104.6868
ENERGY: 600000 4.9239 5.1121 3.5818 0.0000 -10414.9150 1330.1503 0.0000 0.0000 1728.9875 -7342.1593 299.4033 -9071.1468 -7335.2692 300.3864 -855.5689 -728.3180 30037.9073 -65.5761 -6.0198
ENERGY: 900000 3.9581 5.0300 3.9197 0.0000 -10553.6156 1429.9530 0.0000 0.0000 1759.9440 -7350.8109 304.7640 -9110.7549 -7326.5803 301.9274 -275.5584 -232.6192 30001.7398 -154.7027 -96.9467
ENERGY: 1200000 4.3532 5.0658 5.9051 0.0000 -10418.9109 1357.7851 0.0000 0.0000 1744.7011 -7301.1007 302.1244 -9045.8017 -7324.2432 301.7784 -487.6997 -400.0601 29785.2387 -168.0423 -103.2610
ENERGY: 1500000 6.8017 2.1004 4.0030 0.0000 -10426.2583 1358.1973 0.0000 0.0000 1720.8903 -7334.2655 298.0012 -9055.1558 -7326.7390 301.1395 -513.8127 -493.1901 29860.7902 -182.5929 -121.3571
TCL: Running FEP window  16: Lambda1 0.24999999999999967 Lambda2 0.19999999999999968 [dLambda -0.04999999999999999]
TCL: Setting parameter firsttimestep to 0
TCL: Setting parameter alchLambda to 0.24999999999999967
Info: NONBONDED TABLE R-SQUARED SPACING: 0.0625
Info: NONBONDED TABLE SIZE: 705 POINTS
TCL: Setting parameter alchLambda2 to 0.19999999999999968
Info: NONBONDED TABLE R-SQUARED SPACING: 0.0625
Info: NONBONDED TABLE SIZE: 705 POINTS
TCL: Running for 1500000 steps
ETITLE: TS BOND ANGLE DIHED IMPRP ELECT VDW BOUNDARY MISC KINETIC TOTAL TEMP POTENTIAL TOTALAVG TEMPAVG PRESSURE GPRESSURE VOLUME PRESSAVG GPRESSAVG
ENERGY: 0 6.8017 2.1004 4.0030 0.0000 -10426.2599 1358.3836 0.0000 0.0000 1720.0299 -7334.9413 297.8522 -9054.9712 -7334.9413 297.8522 -584.2929 -499.3264 29860.7902 -584.2929 -499.3264
ENERGY: 300000 2.6668 8.0480 3.4894 0.0000 -10414.8635 1370.4537 0.0000 0.0000 1680.6149 -7349.5908 291.0268 -9030.2057 -7331.6558 297.3217 -521.4506 -416.6824 30202.2176 -215.4169 -143.9273
ENERGY: 600000 3.4335 2.4861 3.4306 0.0000 -10471.1703 1399.5246 0.0000 0.0000 1718.0108 -7344.2847 297.5025 -9062.2955 -7323.5253 299.3572 -426.1360 -355.9554 30562.9607 -102.1420 -33.1260
ENERGY: 900000 3.6790 2.9024 7.3447 0.0000 -10383.9048 1351.8954 0.0000 0.0000 1761.7491 -7256.3341 305.0766 -9018.0832 -7326.0686 298.4014 -245.6561 -227.7807 29866.9445 -219.0267 -152.2698
ENERGY: 1200000 2.5202 4.3946 8.6808 0.0000 -10506.9852 1389.9252 0.0000 0.0000 1731.9696 -7369.4949 299.9197 -9101.4644 -7335.5306 297.9423 -313.2488 -273.9244 29756.7904 -159.1321 -96.6472
ENERGY: 1500000 1.9636 4.8757 4.0965 0.0000 -10536.3565 1436.9399 0.0000 0.0000 1709.6357 -7378.8452 296.0522 -9088.4809 -7342.4714 297.7292 64.6763 127.4739 29828.5372 -28.3057 26.0728
TCL: Running FEP window  17: Lambda1 0.19999999999999968 Lambda2 0.1499999999999997 [dLambda -0.04999999999999999]
TCL: Setting parameter firsttimestep to 0
TCL: Setting parameter alchLambda to 0.19999999999999968
Info: NONBONDED TABLE R-SQUARED SPACING: 0.0625
Info: NONBONDED TABLE SIZE: 705 POINTS
TCL: Setting parameter alchLambda2 to 0.1499999999999997
Info: NONBONDED TABLE R-SQUARED SPACING: 0.0625
Info: NONBONDED TABLE SIZE: 705 POINTS
TCL: Running for 1500000 steps
ETITLE: TS BOND ANGLE DIHED IMPRP ELECT VDW BOUNDARY MISC KINETIC TOTAL TEMP POTENTIAL TOTALAVG TEMPAVG PRESSURE GPRESSURE VOLUME PRESSAVG GPRESSAVG
ENERGY: 0 1.9636 4.8757 4.0965 0.0000 -10536.3559 1437.1952 0.0000 0.0000 1708.7923 -7379.4327 295.9062 -9088.2249 -7379.4327 295.9062 49.0566 126.7819 29828.5372 49.0566 126.7819
ENERGY: 300000 3.7846 8.0579 4.7067 0.0000 -10630.5331 1501.9155 0.0000 0.0000 1736.1805 -7375.8880 300.6489 -9112.0684 -7323.8718 299.2204 817.9366 818.5126 29321.6432 24.1703 80.3412
ENERGY: 600000 2.0096 6.0835 6.8815 0.0000 -10509.2793 1393.2308 0.0000 0.0000 1745.9022 -7355.1718 302.3324 -9101.0740 -7349.8929 299.0439 -43.3386 -106.5160 29519.0445 -3.5241 19.1387
ENERGY: 900000 6.5767 6.8550 4.9763 0.0000 -10677.3654 1558.3028 0.0000 0.0000 1757.6127 -7343.0419 304.3603 -9100.6546 -7350.7719 299.4502 1030.8134 1068.4931 29360.6733 130.8889 154.3329
ENERGY: 1200000 5.6320 3.5952 4.4700 0.0000 -10530.1146 1466.2142 0.0000 0.0000 1731.6350 -7318.5683 299.8618 -9050.2033 -7350.6304 299.0886 517.8261 539.9687 29451.3935 122.5569 155.0700
ENERGY: 1500000 4.0504 2.9713 4.5702 0.0000 -10553.2972 1450.8687 0.0000 0.0000 1726.7761 -7364.0604 299.0204 -9090.8366 -7358.1324 299.1201 90.6037 165.9088 29634.1966 140.2660 185.2156
TCL: Running FEP window  18: Lambda1 0.1499999999999997 Lambda2 0.09999999999999969 [dLambda -0.05 ]
TCL: Setting parameter firsttimestep to 0
TCL: Setting parameter alchLambda to 0.1499999999999997
Info: NONBONDED TABLE R-SQUARED SPACING: 0.0625
Info: NONBONDED TABLE SIZE: 705 POINTS
TCL: Setting parameter alchLambda2 to 0.09999999999999969
Info: NONBONDED TABLE R-SQUARED SPACING: 0.0625
Info: NONBONDED TABLE SIZE: 705 POINTS
TCL: Running for 1500000 steps
ETITLE: TS BOND ANGLE DIHED IMPRP ELECT VDW BOUNDARY MISC KINETIC TOTAL TEMP POTENTIAL TOTALAVG TEMPAVG PRESSURE GPRESSURE VOLUME PRESSAVG GPRESSAVG
ENERGY: 0 4.0504 2.9713 4.5702 0.0000 -10553.2970 1450.1388 0.0000 0.0000 1725.9208 -7365.6454 298.8723 -9091.5662 -7365.6454 298.8723 71.7084 159.6146 29634.1966 71.7084 159.6146
ENERGY: 300000 6.4120 6.0845 3.4112 0.0000 -10411.2286 1353.3977 0.0000 0.0000 1716.9095 -7325.0136 297.3118 -9041.9231 -7317.6756 301.3461 -490.9902 -438.6554 29909.4372 -254.8828 -174.5243
ENERGY: 600000 6.1701 4.8133 4.1878 0.0000 -10566.8294 1462.4228 0.0000 0.0000 1751.3128 -7337.9227 303.2693 -9089.2355 -7328.8177 301.2307 187.5698 231.0341 29500.3772 -135.5660 -61.1203
ENERGY: 900000 4.1403 4.1622 3.7365 0.0000 -10620.0617 1466.4455 0.0000 0.0000 1728.5688 -7413.0084 299.3308 -9141.5772 -7335.2782 301.1964 328.4598 329.9944 29560.8717 -81.2721 -19.1130
ENERGY: 1200000 4.5860 3.0540 2.1133 0.0000 -10499.0273 1380.7589 0.0000 0.0000 1742.4528 -7366.0624 301.7351 -9108.5152 -7339.0176 301.2289 -651.6274 -567.2432 29807.0881 -59.9847 7.6270
ENERGY: 1500000 2.5804 4.0296 5.1064 0.0000 -10553.7170 1450.4446 0.0000 0.0000 1737.8248 -7353.7312 300.9337 -9091.5560 -7335.1538 301.6582 9.7555 152.5748 29914.7492 -28.4451 52.7261
TCL: Running FEP window  19: Lambda1 0.09999999999999969 Lambda2 0.049999999999999684 [dLambda -0.05 ]
TCL: Setting parameter firsttimestep to 0
TCL: Setting parameter alchLambda to 0.09999999999999969
Info: NONBONDED TABLE R-SQUARED SPACING: 0.0625
Info: NONBONDED TABLE SIZE: 705 POINTS
TCL: Setting parameter alchLambda2 to 0.049999999999999684
Info: NONBONDED TABLE R-SQUARED SPACING: 0.0625
Info: NONBONDED TABLE SIZE: 705 POINTS
TCL: Running for 1500000 steps
ETITLE: TS BOND ANGLE DIHED IMPRP ELECT VDW BOUNDARY MISC KINETIC TOTAL TEMP POTENTIAL TOTALAVG TEMPAVG PRESSURE GPRESSURE VOLUME PRESSAVG GPRESSAVG
ENERGY: 0 2.5804 4.0296 5.1064 0.0000 -10553.7169 1450.8456 0.0000 0.0000 1736.9785 -7354.1763 300.7871 -9091.1548 -7354.1763 300.7871 47.7940 152.5800 29914.7492 47.7940 152.5800
ENERGY: 300000 2.9428 6.2234 4.3856 0.0000 -10507.2617 1477.0183 0.0000 0.0000 1762.6690 -7254.0225 305.2359 -9016.6915 -7292.8398 304.3199 1060.2606 1117.6270 29002.1143 173.2413 269.0245
ENERGY: 600000 3.2215 5.2109 6.8909 0.0000 -10368.0962 1320.5147 0.0000 0.0000 1715.7441 -7316.5141 297.1100 -9032.2582 -7302.8930 301.3071 -463.3429 -365.5879 29519.1926 57.0957 124.8251
ENERGY: 900000 3.3792 1.9580 4.4195 0.0000 -10378.5313 1340.8764 0.0000 0.0000 1812.7165 -7215.1816 313.9024 -9027.8981 -7302.9582 301.9406 -536.1697 -415.7156 30041.2564 -29.9376 38.8550
ENERGY: 1200000 2.1753 5.1366 5.7238 0.0000 -10648.6990 1464.1039 0.0000 0.0000 1757.8720 -7413.6876 304.4052 -9171.5595 -7325.6458 302.4717 110.2910 152.5770 29527.8365 23.9255 89.4771
ENERGY: 1500000 2.5061 4.1575 4.9189 0.0000 -10604.4679 1489.2178 0.0000 0.0000 1769.6485 -7334.0191 306.4445 -9103.6676 -7333.4230 302.2212 538.4631 608.3482 29490.3202 83.0433 149.2880
TCL: Running FEP window  20: Lambda1 0.049999999999999684 Lambda2 0.0    [dLambda -0.049999999999999684]
TCL: Setting parameter firsttimestep to 0
TCL: Setting parameter alchLambda to 0.049999999999999684
Info: NONBONDED TABLE R-SQUARED SPACING: 0.0625
Info: NONBONDED TABLE SIZE: 705 POINTS
TCL: Setting parameter alchLambda2 to 0.0
Info: NONBONDED TABLE R-SQUARED SPACING: 0.0625
Info: NONBONDED TABLE SIZE: 705 POINTS
TCL: Running for 1500000 steps
ETITLE: TS BOND ANGLE DIHED IMPRP ELECT VDW BOUNDARY MISC KINETIC TOTAL TEMP POTENTIAL TOTALAVG TEMPAVG PRESSURE GPRESSURE VOLUME PRESSAVG GPRESSAVG
ENERGY: 0 2.5061 4.1575 4.9189 0.0000 -10604.4679 1489.4246 0.0000 0.0000 1768.8073 -7334.6536 306.2988 -9103.4609 -7334.6536 306.2988 518.0629 602.6963 29490.3202 518.0629 602.6963
ENERGY: 300000 3.6674 5.9473 3.7922 0.0000 -10519.8102 1429.7106 0.0000 0.0000 1673.3143 -7403.3785 289.7626 -9076.6928 -7372.3154 300.3309 -115.5652 -63.2514 29662.8678 160.3649 238.7517
ENERGY: 600000 4.8870 3.9670 5.8188 0.0000 -10298.6246 1276.6180 0.0000 0.0000 1713.7189 -7293.6150 296.7593 -9007.3338 -7335.6724 300.0782 -1067.1150 -1017.4706 29857.1546 60.1008 135.7816
ENERGY: 900000 1.4968 3.8750 0.8288 0.0000 -10485.2612 1399.8092 0.0000 0.0000 1681.8636 -7397.3879 291.2430 -9079.2515 -7345.5896 299.3151 -234.8204 -243.5407 29924.4989 54.2684 116.8169
ENERGY: 1200000 4.8413 5.8287 4.8167 0.0000 -10607.2836 1507.1817 0.0000 0.0000 1697.8883 -7386.7268 294.0180 -9084.6151 -7340.6262 300.2903 847.5814 911.2466 29502.3019 184.7761 251.0864
ENERGY: 1500000 3.1049 7.8652 4.9121 0.0000 -10444.3743 1450.3633 0.0000 0.0000 1747.5281 -7230.6007 302.6139 -8978.1288 -7331.9228 300.1428 598.9921 664.0634 29901.7774 178.1648 244.1092
TCL: Exiting due to exit command.
