Info: SIMULATION PARAMETERS:
Info: TIMESTEP               2
Info: NUMBER OF STEPS        0
Info: STEPS PER CYCLE        10
Info: PERIODIC CELL BASIS 1  28.7269 0 0
Info: PERIODIC CELL BASIS 2  0 30.5031 0
Info: PERIODIC CELL BASIS 3  0 0 34.8293
Info: PERIODIC CELL CENTER   0 0 0
Info: WRAPPING WATERS AROUND PERIODIC BOUNDARIES ON OUTPUT.
Info: WRAPPING ALL CLUSTERS AROUND PERIODIC BOUNDARIES ON OUTPUT.
Info: FIRST LDB TIMESTEP     50
Info: LAST LDB TIMESTEP     -1
Info: HOM BACKGROUND SCALING 1
Info: PME BACKGROUND SCALING 1
Info: MIN ATOMS PER PATCH    40
Info: EMPTY PATCH LOAD       40 ATOMS
Info: VELOCITY FILE          mobley_9510785_equil.vel
Info: CENTER OF MASS MOVING INITIALLY? NO
Info: DIELECTRIC             1
Info: EXCLUDE                SCALED ONE-FOUR
Info: 1-4 ELECTROSTATICS SCALED BY 0.833333
Info: MODIFIED 1-4 VDW PARAMETERS WILL BE USED
Info: DCD FILENAME           mobley_9510785_prod.dcd
Info: DCD FREQUENCY          100000
Info: DCD FIRST STEP         100000
Info: DCD FILE WILL CONTAIN UNIT CELL DATA
Info: XST FILENAME           mobley_9510785_prod.xst
Info: XST FREQUENCY          100000
Info: NO VELOCITY DCD OUTPUT
Info: NO FORCE DCD OUTPUT
Info: OUTPUT FILENAME        mobley_9510785_prod
Info: BINARY OUTPUT FILES WILL BE USED
Info: RESTART FILENAME       mobley_9510785_prod.restart
Info: RESTART FREQUENCY      100000
Info: BINARY RESTART FILES WILL BE USED
Info: CUTOFF                 9
Info: PAIRLIST DISTANCE      11
Info: PAIRLIST SHRINK RATE   0.01
Info: PAIRLIST GROW RATE     0.01
Info: PAIRLIST TRIGGER       0.3
Info: PAIRLISTS PER CYCLE    2
Info: PAIRLISTS ENABLED
Info: MARGIN                 2
Info: HYDROGEN GROUP CUTOFF  2.5
Info: PATCH DIMENSION        15.5
Info: ENERGY OUTPUT STEPS    100000
Info: ENERGY EVALUATION STEPS    100000
Info: OUTPUT ENERGY PRECISION 4
Info: CROSSTERM ENERGY INCLUDED IN DIHEDRAL
Info: TIMING OUTPUT STEPS    1000000
Info: PRESSURE OUTPUT STEPS  100000
Info: ALCHEMICAL FEP ON
Info: FEP CURRENT LAMBDA VALUE     1
Info: FEP COMPARISON LAMBDA VALUE  0.95
Info: FEP INTRA-ALCHEMICAL NON-BONDED INTERACTIONS WILL BE RETAINED
Info: FEP INTRA-ALCHEMICAL BONDED INTERACTIONS WILL BE RETAINED
Info: FEP VDW SHIFTING COEFFICIENT 5
Info: FEP ELEC. ACTIVE FOR ANNIHILATED PARTICLES BETWEEN LAMBDA = 0 AND LAMBDA = 0.5
Info: FEP ELEC. ACTIVE FOR EXNIHILATED PARTICLES BETWEEN LAMBDA = 0.5 AND LAMBDA = 1
Info: FEP VDW ACTIVE FOR ANNIHILATED PARTICLES BETWEEN LAMBDA = 0 AND LAMBDA = 1
Info: FEP VDW ACTIVE FOR EXNIHILATED PARTICLES BETWEEN LAMBDA = 0 AND LAMBDA = 1
Info: FEP BOND ACTIVE FOR ANNIHILATED PARTICLES BETWEEN LAMBDA = 1 AND LAMBDA = 1
Info: FEP BOND ACTIVE FOR EXNIHILATED PARTICLES BETWEEN LAMBDA = 0 AND LAMBDA = 0
Info: LANGEVIN DYNAMICS ACTIVE
Info: LANGEVIN TEMPERATURE   300
Info: LANGEVIN USING BBK INTEGRATOR
Info: LANGEVIN DAMPING COEFFICIENT IS 1 INVERSE PS
Info: LANGEVIN DYNAMICS APPLIED TO HYDROGENS
Info: LANGEVIN PISTON PRESSURE CONTROL ACTIVE
Info:        TARGET PRESSURE IS 1.01325 BAR
Info:     OSCILLATION PERIOD IS 50 FS
Info:             DECAY TIME IS 25 FS
Info:     PISTON TEMPERATURE IS 300 K
Info:       PRESSURE CONTROL IS GROUP-BASED
Info:    INITIAL STRAIN RATE IS -0.000202116 -0.000202116 -0.000202116
Info:       CELL FLUCTUATION IS ISOTROPIC
Info: PARTICLE MESH EWALD (PME) ACTIVE
Info: PME TOLERANCE               1e-06
Info: PME EWALD COEFFICIENT       0.348832
Info: PME INTERPOLATION ORDER     4
Info: PME GRID DIMENSIONS         32 32 36
Info: PME MAXIMUM GRID SPACING    1
Info: PME CALCULATION WILL BE PERFORMED ON GPU
Info: FULL ELECTROSTATIC EVALUATION FREQUENCY      2
Info: USING VERLET I (r-RESPA) MTS SCHEME.
Info: C1 SPLITTING OF LONG RANGE ELECTROSTATICS
Info: PLACING ATOMS IN PATCHES BY HYDROGEN GROUPS
Info: RIGID BONDS TO HYDROGEN : ALL
Info:         ERROR TOLERANCE : 1e-08
Info:          MAX ITERATIONS : 100
Info: RIGID WATER USING SETTLE ALGORITHM
Info: RANDOM NUMBER SEED     1743803869
Info: USE HYDROGEN BONDS?    NO
Info: Using AMBER format force field!
Info: AMBER PARM FILE        mobley_9510785.prmtop
Info: COORDINATE PDB         mobley_9510785.pdb
Info: Exclusions will be read from PARM file!
Info: SCNB (VDW SCALING)     2
Info: USING ARITHMETIC MEAN TO COMBINE L-J SIGMA PARAMETERS
Info: BINARY COORDINATES     mobley_9510785_equil.coor
Info: SUMMARY OF PARAMETERS:
Info: 7 BONDS
Info: 8 ANGLES
Info:   8 HARMONIC
Info:   0 COSINE-BASED
Info: 3 DIHEDRAL
Info: 0 IMPROPER
Info: 0 CROSSTERM
Info: 0 VDW
Info: 15 VDW_PAIRS
Info: 0 NBTHOLE_PAIRS
Info: To read alchdata from file: mobley_9510785.pdb
Info: To read alchflag data from column: 5
Info: STRUCTURE SUMMARY:
Info: 2917 ATOMS
Info: 2918 BONDS
Info: 36 ANGLES
Info: 64 DIHEDRALS
Info: 0 IMPROPERS
Info: 0 CROSSTERMS
Info: 3000 EXCLUSIONS
Info: 2901 RIGID BONDS
Info: ALCH: 0 ATOMS TO DISAPPEAR IN FINAL STATE
Info: ALCH: 22 ATOMS TO APPEAR IN FINAL STATE
Info: 5850 DEGREES OF FREEDOM
Info: 981 HYDROGEN GROUPS
Info: 3 ATOMS IN LARGEST HYDROGEN GROUP
Info: 981 MIGRATION GROUPS
Info: 3 ATOMS IN LARGEST MIGRATION GROUP
Info: TOTAL MASS = 17677.4 amu
Info: TOTAL CHARGE = 5.02914e-08 e
Info: MASS DENSITY = 0.961837 g/cm^3
Info: ATOM DENSITY = 0.0955784 atoms/A^3
Info: ADDED 0 IMPLICIT EXCLUSIONS
Info: NONBONDED TABLE R-SQUARED SPACING: 0.0625
Info: NONBONDED TABLE SIZE: 705 POINTS
Info: REMOVING COM VELOCITY -0.115737 0.309268 -0.143084
Info: Use 3D box decompostion in PME FFT.
Info: Updated CUDA force table with 4096 elements.
Info: Updated CUDA LJ table with 5 x 5 elements.
Info: Found 24 unique exclusion lists needing 72 bytes
TCL: Running for 1500000 steps
ETITLE: TS BOND ANGLE DIHED IMPRP ELECT VDW BOUNDARY MISC KINETIC TOTAL TEMP POTENTIAL TOTALAVG TEMPAVG PRESSURE GPRESSURE VOLUME PRESSAVG GPRESSAVG
ENERGY: 0 2.1252 3.3691 8.4751 0.0000 -10550.3926 1494.6794 0.0000 0.0000 1748.7936 -7292.9501 300.8660 -9041.7438 -7292.9501 300.8660 743.0050 826.7605 30519.4356 743.0050 826.7605
ENERGY: 300000 6.8803 4.0740 9.8255 0.0000 -10434.7066 1323.1134 0.0000 0.0000 1745.3032 -7345.5102 300.2655 -9090.8134 -7343.0705 301.4286 -984.8400 -884.5347 30599.2116 -192.4427 -108.7264
ENERGY: 600000 7.3997 5.9652 12.1626 0.0000 -10743.9547 1511.6413 0.0000 0.0000 1783.1031 -7423.6827 306.7686 -9206.7858 -7365.0855 302.4673 490.8622 535.9996 29784.0207 -27.7378 40.7238
ENERGY: 900000 4.6289 6.6203 8.0523 0.0000 -10558.5220 1443.5456 0.0000 0.0000 1724.1980 -7371.4770 296.6345 -9095.6750 -7344.8099 301.7372 178.4503 235.9914 30199.0167 -51.4348 16.0674
ENERGY: 1200000 8.1631 5.2484 8.9970 0.0000 -10498.8258 1391.7674 0.0000 0.0000 1748.9722 -7335.6777 300.8967 -9084.6499 -7342.5233 301.0616 -136.4674 -44.4913 30210.9625 -19.6249 51.0642
ENERGY: 1500000 5.7266 3.6440 10.3367 0.0000 -10471.4217 1379.2096 0.0000 0.0000 1759.5207 -7312.9841 302.7115 -9072.5048 -7343.1899 301.6029 -80.4265 -76.5147 29912.9806 -47.7042 20.3822
TCL: Running FEP window   2: Lambda1 0.95   Lambda2 0.8999999999999999 [dLambda -0.050000000000000044]
TCL: Setting parameter firsttimestep to 0
TCL: Setting parameter alchLambda to 0.95
Info: NONBONDED TABLE R-SQUARED SPACING: 0.0625
Info: NONBONDED TABLE SIZE: 705 POINTS
TCL: Setting parameter alchLambda2 to 0.8999999999999999
Info: NONBONDED TABLE R-SQUARED SPACING: 0.0625
Info: NONBONDED TABLE SIZE: 705 POINTS
TCL: Running for 1500000 steps
ETITLE: TS BOND ANGLE DIHED IMPRP ELECT VDW BOUNDARY MISC KINETIC TOTAL TEMP POTENTIAL TOTALAVG TEMPAVG PRESSURE GPRESSURE VOLUME PRESSAVG GPRESSAVG
ENERGY: 0 5.7266 3.6440 10.3368 0.0000 -10471.2148 1380.3502 0.0000 0.0000 1758.6476 -7312.5097 302.5613 -9071.1572 -7312.5097 302.5613 -160.8599 -84.7023 29912.9806 -160.8599 -84.7023
ENERGY: 300000 7.9241 5.5687 5.0309 0.0000 -10576.1530 1412.4878 0.0000 0.0000 1754.0333 -7391.1082 301.7674 -9145.1415 -7304.2487 303.0935 128.9137 193.8796 29870.9510 -217.9836 -155.3426
ENERGY: 600000 5.1019 10.8394 16.6234 0.0000 -10503.4432 1413.6981 0.0000 0.0000 1774.6797 -7282.5007 305.3195 -9057.1804 -7315.8117 304.0501 59.7314 169.8377 30204.9870 -52.1159 10.2561
ENERGY: 900000 9.5343 4.8742 10.9525 0.0000 -10535.1387 1392.7813 0.0000 0.0000 1793.0725 -7323.9238 308.4838 -9116.9963 -7304.1734 304.2909 -136.5653 -80.8584 29684.9942 -69.7536 -0.2075
ENERGY: 1200000 5.7046 8.3715 10.2170 0.0000 -10593.2216 1468.8491 0.0000 0.0000 1721.4389 -7378.6405 296.1598 -9100.0795 -7322.9076 302.9130 534.5449 639.4609 29976.1858 -67.4196 4.4166
ENERGY: 1500000 7.2930 6.3924 9.9339 0.0000 -10418.8327 1289.4698 0.0000 0.0000 1719.9785 -7385.7652 295.9086 -9105.7436 -7324.7869 302.1993 -1052.6695 -1087.6141 30437.2163 -161.0775 -95.4480
TCL: Running FEP window   3: Lambda1 0.8999999999999999 Lambda2 0.8499999999999999 [dLambda -0.050000000000000044]
TCL: Setting parameter firsttimestep to 0
TCL: Setting parameter alchLambda to 0.8999999999999999
Info: NONBONDED TABLE R-SQUARED SPACING: 0.0625
Info: NONBONDED TABLE SIZE: 705 POINTS
TCL: Setting parameter alchLambda2 to 0.8499999999999999
Info: NONBONDED TABLE R-SQUARED SPACING: 0.0625
Info: NONBONDED TABLE SIZE: 705 POINTS
TCL: Running for 1500000 steps
ETITLE: TS BOND ANGLE DIHED IMPRP ELECT VDW BOUNDARY MISC KINETIC TOTAL TEMP POTENTIAL TOTALAVG TEMPAVG PRESSURE GPRESSURE VOLUME PRESSAVG GPRESSAVG
ENERGY: 0 7.2930 6.3924 9.9339 0.0000 -10418.2596 1290.3752 0.0000 0.0000 1719.1052 -7385.1600 295.7583 -9104.2652 -7385.1600 295.7583 -1174.5833 -1096.3189 30437.2163 -1174.5833 -1096.3189
ENERGY: 300000 6.6530 6.6535 10.6218 0.0000 -10681.6530 1527.2648 0.0000 0.0000 1755.6929 -7374.7671 302.0529 -9130.4600 -7401.1650 297.0131 743.1007 776.5554 30049.4829 -468.8885 -391.7576
ENERGY: 600000 2.9525 4.1125 10.8191 0.0000 -10463.1506 1345.4461 0.0000 0.0000 1722.9969 -7376.8236 296.4279 -9099.8205 -7383.8219 296.4658 -621.6587 -566.2537 30592.8408 -373.5903 -301.2050
ENERGY: 900000 5.9957 8.1579 8.4011 0.0000 -10568.9741 1427.9036 0.0000 0.0000 1788.4184 -7330.0973 307.6831 -9118.5158 -7376.0004 298.0015 -172.5793 -63.0739 30170.1423 -236.7605 -174.0683
ENERGY: 1200000 3.9762 4.3098 13.1587 0.0000 -10411.2756 1347.3827 0.0000 0.0000 1761.1768 -7281.2715 302.9964 -9042.4483 -7361.6432 300.0258 -180.4569 -128.7705 30344.1927 -127.7675 -68.3121
ENERGY: 1500000 8.7011 5.6726 13.9070 0.0000 -10377.2376 1339.0082 0.0000 0.0000 1711.3400 -7298.6087 294.4224 -9009.9487 -7356.9406 299.5353 -926.5697 -800.2636 30725.7873 -148.5587 -90.0832
TCL: Running FEP window   4: Lambda1 0.8499999999999999 Lambda2 0.7999999999999998 [dLambda -0.050000000000000044]
TCL: Setting parameter firsttimestep to 0
TCL: Setting parameter alchLambda to 0.8499999999999999
Info: NONBONDED TABLE R-SQUARED SPACING: 0.0625
Info: NONBONDED TABLE SIZE: 705 POINTS
TCL: Setting parameter alchLambda2 to 0.7999999999999998
Info: NONBONDED TABLE R-SQUARED SPACING: 0.0625
Info: NONBONDED TABLE SIZE: 705 POINTS
TCL: Running for 1500000 steps
ETITLE: TS BOND ANGLE DIHED IMPRP ELECT VDW BOUNDARY MISC KINETIC TOTAL TEMP POTENTIAL TOTALAVG TEMPAVG PRESSURE GPRESSURE VOLUME PRESSAVG GPRESSAVG
ENERGY: 0 8.7011 5.6726 13.9070 0.0000 -10376.6590 1339.7398 0.0000 0.0000 1710.4773 -7298.1612 294.2740 -9008.6385 -7298.1612 294.2740 -877.4675 -806.3972 30725.7873 -877.4675 -806.3972
ENERGY: 300000 3.4780 4.5370 12.8284 0.0000 -10604.4394 1447.6060 0.0000 0.0000 1698.3927 -7437.5973 292.1949 -9135.9899 -7362.1332 296.1811 208.8822 325.0226 30003.3503 -183.4683 -104.1213
ENERGY: 600000 8.2657 7.8569 7.4495 0.0000 -10395.3223 1343.4950 0.0000 0.0000 1707.0284 -7321.2267 293.6806 -9028.2551 -7366.8858 295.7127 -262.2945 -166.7822 29918.1662 -135.5230 -57.8397
ENERGY: 900000 9.7505 3.5049 13.7424 0.0000 -10424.0964 1318.8950 0.0000 0.0000 1725.0244 -7353.1793 296.7767 -9078.2036 -7369.0505 296.1102 -521.7306 -415.0589 29651.7516 -202.0532 -133.9445
ENERGY: 1200000 4.1583 4.0180 9.5988 0.0000 -10585.7046 1440.1385 0.0000 0.0000 1742.2332 -7385.5579 299.7373 -9127.7911 -7377.9279 296.7794 379.6451 444.1242 29802.8912 -125.0972 -61.5458
ENERGY: 1500000 7.9875 6.1598 6.8304 0.0000 -10550.1756 1421.4040 0.0000 0.0000 1793.7033 -7314.0905 308.5923 -9107.7939 -7379.4774 298.2225 -219.5290 -146.1358 30470.9297 -41.0171 21.6623
TCL: Running FEP window   5: Lambda1 0.7999999999999998 Lambda2 0.7499999999999998 [dLambda -0.050000000000000044]
TCL: Setting parameter firsttimestep to 0
TCL: Setting parameter alchLambda to 0.7999999999999998
Info: NONBONDED TABLE R-SQUARED SPACING: 0.0625
Info: NONBONDED TABLE SIZE: 705 POINTS
TCL: Setting parameter alchLambda2 to 0.7499999999999998
Info: NONBONDED TABLE R-SQUARED SPACING: 0.0625
Info: NONBONDED TABLE SIZE: 705 POINTS
TCL: Running for 1500000 steps
ETITLE: TS BOND ANGLE DIHED IMPRP ELECT VDW BOUNDARY MISC KINETIC TOTAL TEMP POTENTIAL TOTALAVG TEMPAVG PRESSURE GPRESSURE VOLUME PRESSAVG GPRESSAVG
ENERGY: 0 7.9875 6.1598 6.8304 0.0000 -10549.8697 1422.1214 0.0000 0.0000 1792.8182 -7313.9524 308.4401 -9106.7706 -7313.9524 308.4401 -225.1451 -151.4776 30470.9297 -225.1451 -151.4776
ENERGY: 300000 4.0254 4.9806 5.1259 0.0000 -10454.2241 1391.1511 0.0000 0.0000 1744.2383 -7304.7028 300.0823 -9048.9412 -7330.0144 301.8260 -28.6693 4.1965 30299.1661 -68.1385 -10.2416
ENERGY: 600000 8.0412 5.1434 9.8169 0.0000 -10551.5313 1434.6074 0.0000 0.0000 1744.5112 -7349.4112 300.1292 -9093.9224 -7326.0990 302.4373 22.8987 54.2521 30005.6798 -180.8742 -125.4444
ENERGY: 900000 7.7048 8.8574 15.1011 0.0000 -10396.8260 1342.5722 0.0000 0.0000 1747.2868 -7275.3038 300.6067 -9022.5906 -7332.9409 301.4894 -506.8194 -487.0506 30358.8064 -205.9093 -147.8668
ENERGY: 1200000 4.2692 7.5174 11.8331 0.0000 -10558.1702 1475.2702 0.0000 0.0000 1774.6102 -7284.6701 305.3075 -9059.2803 -7327.2221 301.8380 620.8982 647.7351 30431.7081 -131.6402 -76.9998
ENERGY: 1500000 6.8629 7.8410 14.5848 0.0000 -10477.4648 1388.4568 0.0000 0.0000 1763.5502 -7296.1690 303.4047 -9059.7192 -7330.8352 301.6510 43.1898 64.0366 30204.1240 -35.4123 17.7430
TCL: Running FEP window   6: Lambda1 0.7499999999999998 Lambda2 0.6999999999999997 [dLambda -0.050000000000000044]
TCL: Setting parameter firsttimestep to 0
TCL: Setting parameter alchLambda to 0.7499999999999998
Info: NONBONDED TABLE R-SQUARED SPACING: 0.0625
Info: NONBONDED TABLE SIZE: 705 POINTS
TCL: Setting parameter alchLambda2 to 0.6999999999999997
Info: NONBONDED TABLE R-SQUARED SPACING: 0.0625
Info: NONBONDED TABLE SIZE: 705 POINTS
TCL: Running for 1500000 steps
ETITLE: TS BOND ANGLE DIHED IMPRP ELECT VDW BOUNDARY MISC KINETIC TOTAL TEMP POTENTIAL TOTALAVG TEMPAVG PRESSURE GPRESSURE VOLUME PRESSAVG GPRESSAVG
ENERGY: 0 6.8629 7.8410 14.5848 0.0000 -10477.1478 1389.1534 0.0000 0.0000 1762.6960 -7296.0096 303.2578 -9058.7056 -7296.0096 303.2578 -7.5613 56.8758 30204.1240 -7.5613 56.8758
ENERGY: 300000 6.4114 6.2327 10.4354 0.0000 -10531.9328 1392.0197 0.0000 0.0000 1729.6729 -7387.1608 297.5764 -9116.8336 -7341.7170 301.2727 -106.5618 -28.4833 29838.1160 -50.8831 -9.2249
ENERGY: 600000 5.0034 3.9046 11.0976 0.0000 -10341.4554 1344.4725 0.0000 0.0000 1789.6497 -7187.3275 307.8949 -8976.9772 -7318.5961 302.7241 -248.9130 -189.8184 30333.2131 54.7176 97.5561
ENERGY: 900000 5.8808 5.7978 16.1539 0.0000 -10546.3552 1396.8075 0.0000 0.0000 1740.6700 -7381.0453 299.4684 -9121.7153 -7317.4264 302.0995 4.0729 66.0809 29537.4516 33.1063 76.0280
ENERGY: 1200000 7.4641 5.8002 11.6074 0.0000 -10625.6954 1466.0246 0.0000 0.0000 1685.7496 -7449.0495 290.0198 -9134.7991 -7338.9594 301.3440 296.7701 346.8042 30215.7851 87.5989 131.3868
ENERGY: 1500000 3.9016 7.5860 12.3401 0.0000 -10476.4580 1400.1354 0.0000 0.0000 1772.4334 -7280.0615 304.9330 -9052.4948 -7328.1814 302.4096 -109.2384 -102.3841 30530.3244 132.8379 178.6690
TCL: Running FEP window   7: Lambda1 0.6999999999999997 Lambda2 0.6499999999999997 [dLambda -0.050000000000000044]
TCL: Setting parameter firsttimestep to 0
TCL: Setting parameter alchLambda to 0.6999999999999997
Info: NONBONDED TABLE R-SQUARED SPACING: 0.0625
Info: NONBONDED TABLE SIZE: 705 POINTS
TCL: Setting parameter alchLambda2 to 0.6499999999999997
Info: NONBONDED TABLE R-SQUARED SPACING: 0.0625
Info: NONBONDED TABLE SIZE: 705 POINTS
TCL: Running for 1500000 steps
ETITLE: TS BOND ANGLE DIHED IMPRP ELECT VDW BOUNDARY MISC KINETIC TOTAL TEMP POTENTIAL TOTALAVG TEMPAVG PRESSURE GPRESSURE VOLUME PRESSAVG GPRESSAVG
ENERGY: 0 3.9016 7.5860 12.3401 0.0000 -10476.3462 1400.9476 0.0000 0.0000 1771.5525 -7280.0184 304.7815 -9051.5709 -7280.0184 304.7815 -189.7831 -106.8187 30530.3244 -189.7831 -106.8187
ENERGY: 300000 7.0282 6.8396 9.9274 0.0000 -10411.7345 1397.3590 0.0000 0.0000 1766.9951 -7223.5851 303.9974 -8990.5802 -7297.9397 304.6405 -159.9971 -112.7602 30379.5493 247.6870 288.6072
ENERGY: 600000 2.6002 3.5627 14.5007 0.0000 -10478.4913 1392.9978 0.0000 0.0000 1831.5821 -7233.2478 315.1091 -9064.8299 -7289.3483 306.0907 -154.2647 -42.4855 30133.6115 385.6118 430.0511
ENERGY: 900000 6.4592 2.0040 13.3110 0.0000 -10628.7090 1471.0462 0.0000 0.0000 1737.9486 -7397.9401 299.0002 -9135.8887 -7309.6263 303.5308 335.9962 447.9068 29818.4300 281.7883 337.6320
ENERGY: 1200000 6.9177 3.2971 10.4402 0.0000 -10580.6316 1473.9721 0.0000 0.0000 1737.9441 -7348.0603 298.9994 -9086.0044 -7327.2356 301.7446 723.3378 743.4286 30048.0930 239.3262 296.5276
ENERGY: 1500000 4.6909 7.5650 8.7971 0.0000 -10654.3604 1489.2534 0.0000 0.0000 1738.5438 -7405.5102 299.1026 -9144.0539 -7346.5191 300.3965 357.0961 463.2759 30144.2349 243.8487 302.5891
TCL: Running FEP window   8: Lambda1 0.6499999999999997 Lambda2 0.5999999999999996 [dLambda -0.050000000000000044]
TCL: Setting parameter firsttimestep to 0
TCL: Setting parameter alchLambda to 0.6499999999999997
Info: NONBONDED TABLE R-SQUARED SPACING: 0.0625
Info: NONBONDED TABLE SIZE: 705 POINTS
TCL: Setting parameter alchLambda2 to 0.5999999999999996
Info: NONBONDED TABLE R-SQUARED SPACING: 0.0625
Info: NONBONDED TABLE SIZE: 705 POINTS
TCL: Running for 1500000 steps
ETITLE: TS BOND ANGLE DIHED IMPRP ELECT VDW BOUNDARY MISC KINETIC TOTAL TEMP POTENTIAL TOTALAVG TEMPAVG PRESSURE GPRESSURE VOLUME PRESSAVG GPRESSAVG
ENERGY: 0 4.6909 7.5650 8.7971 0.0000 -10654.1229 1490.0113 0.0000 0.0000 1737.6740 -7405.3846 298.9529 -9143.0585 -7405.3846 298.9529 386.6077 458.2820 30144.2349 386.6077 458.2820
ENERGY: 300000 5.2428 3.7096 9.4248 0.0000 -10522.7533 1385.4548 0.0000 0.0000 1715.3032 -7403.6180 295.1042 -9118.9213 -7386.9451 297.5912 -295.2967 -274.8404 30269.3603 158.1220 186.6195
ENERGY: 600000 4.5065 4.6289 8.7430 0.0000 -10486.3241 1402.0603 0.0000 0.0000 1731.7122 -7334.6731 297.9273 -9066.3853 -7353.8743 297.8496 -473.8973 -401.2887 30802.5419 -21.9139 14.1667
ENERGY: 900000 5.0129 4.4791 12.9951 0.0000 -10533.7361 1365.0800 0.0000 0.0000 1693.4432 -7452.7258 291.3434 -9146.1690 -7373.8533 296.6872 -726.4087 -685.7800 30236.1483 -73.3554 -21.5440
ENERGY: 1200000 3.8024 4.3216 9.9963 0.0000 -10541.5639 1426.2394 0.0000 0.0000 1735.3797 -7361.8245 298.5582 -9097.2042 -7363.8052 296.5570 -58.8231 -48.5506 30482.3606 -46.9153 4.1699
ENERGY: 1500000 6.3183 6.3236 8.9504 0.0000 -10560.0485 1484.3186 0.0000 0.0000 1729.1483 -7324.9893 297.4862 -9054.1376 -7363.0677 296.8346 182.4931 218.9058 30879.6805 -66.5988 -18.5616
TCL: Running FEP window   9: Lambda1 0.5999999999999996 Lambda2 0.5499999999999996 [dLambda -0.050000000000000044]
TCL: Setting parameter firsttimestep to 0
TCL: Setting parameter alchLambda to 0.5999999999999996
Info: NONBONDED TABLE R-SQUARED SPACING: 0.0625
Info: NONBONDED TABLE SIZE: 705 POINTS
TCL: Setting parameter alchLambda2 to 0.5499999999999996
Info: NONBONDED TABLE R-SQUARED SPACING: 0.0625
Info: NONBONDED TABLE SIZE: 705 POINTS
TCL: Running for 1500000 steps
ETITLE: TS BOND ANGLE DIHED IMPRP ELECT VDW BOUNDARY MISC KINETIC TOTAL TEMP POTENTIAL TOTALAVG TEMPAVG PRESSURE GPRESSURE VOLUME PRESSAVG GPRESSAVG
ENERGY: 0 6.3183 6.3236 8.9504 0.0000 -10559.9252 1485.0790 0.0000 0.0000 1728.2533 -7325.0006 297.3322 -9053.2539 -7325.0006 297.3322 135.7492 216.2102 30879.6805 135.7492 216.2102
ENERGY: 300000 8.3724 3.8917 11.8753 0.0000 -10715.8370 1529.6625 0.0000 0.0000 1716.0408 -7445.9943 295.2311 -9162.0351 -7389.3857 295.2945 567.1940 590.1955 29955.2001 44.2911 102.6528
ENERGY: 600000 5.4856 6.5086 10.9696 0.0000 -10469.2487 1386.8974 0.0000 0.0000 1753.6111 -7305.7765 301.6948 -9059.3876 -7360.9581 296.6439 -202.3179 -150.2871 30501.5584 -55.9460 8.7831
ENERGY: 900000 3.6704 6.3331 10.1934 0.0000 -10608.1060 1491.3063 0.0000 0.0000 1762.1834 -7334.4195 303.1696 -9096.6029 -7357.2034 297.4821 771.3887 774.7380 29985.0170 57.7539 106.3532
ENERGY: 1200000 4.6302 4.6210 9.2839 0.0000 -10542.7663 1404.0476 0.0000 0.0000 1830.2626 -7289.9211 314.8821 -9120.1837 -7341.1380 300.2378 -252.0885 -145.3254 30395.9769 44.8675 101.3372
ENERGY: 1500000 7.4144 5.1005 13.4326 0.0000 -10485.3062 1370.9716 0.0000 0.0000 1764.5081 -7323.8789 303.5695 -9088.3870 -7330.8842 301.0063 -174.0293 -86.0033 29644.6960 -43.4822 15.8895
TCL: Running FEP window  10: Lambda1 0.5499999999999996 Lambda2 0.4999999999999996 [dLambda -0.04999999999999999]
TCL: Setting parameter firsttimestep to 0
TCL: Setting parameter alchLambda to 0.5499999999999996
Info: NONBONDED TABLE R-SQUARED SPACING: 0.0625
Info: NONBONDED TABLE SIZE: 705 POINTS
TCL: Setting parameter alchLambda2 to 0.4999999999999996
Info: NONBONDED TABLE R-SQUARED SPACING: 0.0625
Info: NONBONDED TABLE SIZE: 705 POINTS
TCL: Running for 1500000 steps
ETITLE: TS BOND ANGLE DIHED IMPRP ELECT VDW BOUNDARY MISC KINETIC TOTAL TEMP POTENTIAL TOTALAVG TEMPAVG PRESSURE GPRESSURE VOLUME PRESSAVG GPRESSAVG
ENERGY: 0 7.4144 5.1005 13.4326 0.0000 -10485.0944 1371.6311 0.0000 0.0000 1763.6169 -7323.8989 303.4162 -9087.5158 -7323.8989 303.4162 -175.3160 -90.6239 29644.6960 -175.3160 -90.6239
ENERGY: 300000 9.3990 3.7807 11.4150 0.0000 -10567.9800 1443.8181 0.0000 0.0000 1753.0397 -7346.5276 301.5965 -9099.5672 -7308.6062 301.2903 228.2072 286.2646 29795.9297 -138.7853 -78.6210
ENERGY: 600000 5.2197 3.5999 10.6103 0.0000 -10602.5622 1454.5439 0.0000 0.0000 1680.3512 -7448.2373 289.0910 -9128.5885 -7324.3315 299.3634 425.1115 440.6965 29640.8684 152.4968 210.2478
ENERGY: 900000 5.0374 6.7613 15.9747 0.0000 -10613.3129 1471.1456 0.0000 0.0000 1704.8470 -7409.5469 293.3053 -9114.3939 -7340.0304 299.4959 414.6704 426.5126 29706.2305 87.2987 146.8280
ENERGY: 1200000 6.9911 5.2908 13.9572 0.0000 -10424.4218 1336.2259 0.0000 0.0000 1762.9358 -7299.0210 303.2990 -9061.9568 -7338.0787 299.3680 -691.1890 -638.0890 30396.3574 -26.9055 33.0858
ENERGY: 1500000 5.2662 4.8181 10.9141 0.0000 -10398.4459 1335.6177 0.0000 0.0000 1750.7138 -7291.1160 301.1963 -9041.8298 -7341.8029 298.8605 -814.1124 -736.0793 30332.2724 -61.2287 -2.8827
TCL: Running FEP window  11: Lambda1 0.4999999999999996 Lambda2 0.4499999999999996 [dLambda -0.04999999999999999]
TCL: Setting parameter firsttimestep to 0
TCL: Setting parameter alchLambda to 0.4999999999999996
Info: NONBONDED TABLE R-SQUARED SPACING: 0.0625
Info: NONBONDED TABLE SIZE: 705 POINTS
TCL: Setting parameter alchLambda2 to 0.4499999999999996
Info: NONBONDED TABLE R-SQUARED SPACING: 0.0625
Info: NONBONDED TABLE SIZE: 705 POINTS
TCL: Running for 1500000 steps
ETITLE: TS BOND ANGLE DIHED IMPRP ELECT VDW BOUNDARY MISC KINETIC TOTAL TEMP POTENTIAL TOTALAVG TEMPAVG PRESSURE GPRESSURE VOLUME PRESSAVG GPRESSAVG
ENERGY: 0 5.2662 4.8181 10.9141 0.0000 -10398.4449 1336.3227 0.0000 0.0000 1749.8395 -7291.2842 301.0459 -9041.1237 -7291.2842 301.0459 -816.9633 -741.1389 30332.2724 -816.9633 -741.1389
ENERGY: 300000 4.1162 6.3613 9.9745 0.0000 -10417.3143 1339.4393 0.0000 0.0000 1734.4081 -7323.0150 298.3911 -9057.4231 -7298.4652 300.9303 -273.4159 -270.9503 29834.9679 -303.5232 -265.0670
ENERGY: 600000 8.9540 4.0530 10.1607 0.0000 -10522.7030 1468.3639 0.0000 0.0000 1735.6490 -7295.5224 298.6046 -9031.1714 -7296.6412 301.5594 168.0044 292.1526 30575.2115 -164.3730 -95.9145
ENERGY: 900000 5.3179 5.4829 11.9339 0.0000 -10419.1596 1330.7726 0.0000 0.0000 1785.4008 -7280.2514 307.1640 -9065.6523 -7306.8509 302.4378 -780.3887 -763.4467 29992.2728 -289.2699 -232.8608
ENERGY: 1200000 5.8852 5.0073 9.5720 0.0000 -10482.4608 1362.2156 0.0000 0.0000 1743.1142 -7356.6665 299.8889 -9099.7807 -7320.4824 301.2952 -612.9285 -543.1856 30446.2986 -288.7220 -229.3874
ENERGY: 1500000 7.2881 3.3991 12.1541 0.0000 -10654.3863 1458.0804 0.0000 0.0000 1706.3100 -7467.1546 293.5570 -9173.4645 -7326.0427 302.0653 400.4439 537.8815 29420.4528 -242.7853 -177.2985
TCL: Running FEP window  12: Lambda1 0.4499999999999996 Lambda2 0.39999999999999963 [dLambda -0.04999999999999999]
TCL: Setting parameter firsttimestep to 0
TCL: Setting parameter alchLambda to 0.4499999999999996
Info: NONBONDED TABLE R-SQUARED SPACING: 0.0625
Info: NONBONDED TABLE SIZE: 705 POINTS
TCL: Setting parameter alchLambda2 to 0.39999999999999963
Info: NONBONDED TABLE R-SQUARED SPACING: 0.0625
Info: NONBONDED TABLE SIZE: 705 POINTS
TCL: Running for 1500000 steps
ETITLE: TS BOND ANGLE DIHED IMPRP ELECT VDW BOUNDARY MISC KINETIC TOTAL TEMP POTENTIAL TOTALAVG TEMPAVG PRESSURE GPRESSURE VOLUME PRESSAVG GPRESSAVG
ENERGY: 0 7.2881 3.3991 12.1541 0.0000 -10654.3862 1458.8473 0.0000 0.0000 1705.4627 -7467.2349 293.4112 -9172.6976 -7467.2349 293.4112 451.6357 534.9753 29420.4528 451.6357 534.9753
ENERGY: 300000 3.9531 5.3470 9.6255 0.0000 -10540.4250 1475.7334 0.0000 0.0000 1711.1227 -7334.6433 294.3850 -9045.7660 -7379.1809 297.0817 482.5257 539.3304 29951.0517 279.8332 369.8387
ENERGY: 600000 6.7387 4.1479 11.4553 0.0000 -10461.2204 1330.9564 0.0000 0.0000 1821.1092 -7286.8129 313.3073 -9107.9221 -7346.6707 300.5101 -649.6681 -574.6338 29732.7311 40.8070 119.8121
ENERGY: 900000 5.3362 4.9534 10.4577 0.0000 -10384.9382 1293.4420 0.0000 0.0000 1726.3348 -7344.4141 297.0021 -9070.7490 -7340.4423 300.8401 -658.7727 -593.7851 29237.7963 150.4653 225.8924
ENERGY: 1200000 6.1005 3.4680 9.9470 0.0000 -10464.2919 1383.7516 0.0000 0.0000 1738.4579 -7322.5669 299.0878 -9061.0248 -7342.4875 300.1251 -644.1800 -619.0898 30464.0375 70.6657 140.4240
ENERGY: 1500000 8.2322 4.2417 11.7125 0.0000 -10501.2016 1388.8452 0.0000 0.0000 1760.1990 -7327.9711 302.8282 -9088.1701 -7335.7142 300.0119 -683.9483 -579.9100 30063.6687 -29.1112 48.5879
TCL: Running FEP window  13: Lambda1 0.39999999999999963 Lambda2 0.34999999999999964 [dLambda -0.04999999999999999]
TCL: Setting parameter firsttimestep to 0
TCL: Setting parameter alchLambda to 0.39999999999999963
Info: NONBONDED TABLE R-SQUARED SPACING: 0.0625
Info: NONBONDED TABLE SIZE: 705 POINTS
TCL: Setting parameter alchLambda2 to 0.34999999999999964
Info: NONBONDED TABLE R-SQUARED SPACING: 0.0625
Info: NONBONDED TABLE SIZE: 705 POINTS
TCL: Running for 1500000 steps
ETITLE: TS BOND ANGLE DIHED IMPRP ELECT VDW BOUNDARY MISC KINETIC TOTAL TEMP POTENTIAL TOTALAVG TEMPAVG PRESSURE GPRESSURE VOLUME PRESSAVG GPRESSAVG
ENERGY: 0 8.2322 4.2417 11.7125 0.0000 -10501.1991 1389.1001 0.0000 0.0000 1759.3393 -7328.5732 302.6803 -9087.9126 -7328.5732 302.6803 -658.6715 -585.2892 30063.6687 -658.6715 -585.2892
ENERGY: 300000 3.5404 7.5709 10.4677 0.0000 -10568.4594 1433.4327 0.0000 0.0000 1706.9253 -7406.5223 293.6629 -9113.4476 -7348.1581 298.9274 -337.4136 -272.6655 30487.4367 -151.4900 -98.8961
ENERGY: 600000 9.3125 4.4628 10.6062 0.0000 -10553.9161 1419.0281 0.0000 0.0000 1778.8607 -7331.6457 306.0388 -9110.5064 -7343.0302 299.8155 -320.3381 -248.2475 30151.5949 -271.0623 -214.9412
ENERGY: 900000 5.7032 3.1208 8.3399 0.0000 -10480.3990 1447.3380 0.0000 0.0000 1783.7653 -7232.1317 306.8826 -9015.8970 -7327.2560 300.9444 496.9865 634.0595 29918.3584 -139.9058 -68.4766
ENERGY: 1200000 5.7421 7.2302 9.2603 0.0000 -10436.4459 1390.6272 0.0000 0.0000 1774.1991 -7249.3871 305.2368 -9023.5862 -7326.4202 301.1691 -305.6310 -242.3531 30204.9920 -184.1387 -110.8824
ENERGY: 1500000 3.6801 5.7182 10.9564 0.0000 -10537.2522 1454.9345 0.0000 0.0000 1743.4500 -7318.5129 299.9467 -9061.9630 -7333.4082 300.8522 487.1720 523.8415 30090.8760 -137.2584 -68.3947
TCL: Running FEP window  14: Lambda1 0.34999999999999964 Lambda2 0.29999999999999966 [dLambda -0.04999999999999999]
TCL: Setting parameter firsttimestep to 0
TCL: Setting parameter alchLambda to 0.34999999999999964
Info: NONBONDED TABLE R-SQUARED SPACING: 0.0625
Info: NONBONDED TABLE SIZE: 705 POINTS
TCL: Setting parameter alchLambda2 to 0.29999999999999966
Info: NONBONDED TABLE R-SQUARED SPACING: 0.0625
Info: NONBONDED TABLE SIZE: 705 POINTS
TCL: Running for 1500000 steps
ETITLE: TS BOND ANGLE DIHED IMPRP ELECT VDW BOUNDARY MISC KINETIC TOTAL TEMP POTENTIAL TOTALAVG TEMPAVG PRESSURE GPRESSURE VOLUME PRESSAVG GPRESSAVG
ENERGY: 0 3.6801 5.7182 10.9564 0.0000 -10537.2539 1455.5287 0.0000 0.0000 1742.6394 -7318.7312 299.8072 -9061.3706 -7318.7312 299.8072 433.2605 521.0876 30090.8760 433.2605 521.0876
ENERGY: 300000 1.8113 4.9085 11.2372 0.0000 -10573.3695 1453.4432 0.0000 0.0000 1804.6534 -7297.3158 310.4762 -9101.9692 -7306.8230 302.3685 242.9096 346.5819 29973.0583 192.6975 296.6510
ENERGY: 600000 6.1048 9.8047 10.5216 0.0000 -10553.6072 1473.6203 0.0000 0.0000 1783.8985 -7269.6573 306.9055 -9053.5558 -7312.2971 301.1074 537.8158 572.6732 30025.0591 299.4204 384.5764
ENERGY: 900000 3.7223 3.1589 9.9769 0.0000 -10365.4507 1281.1090 0.0000 0.0000 1743.0795 -7324.4042 299.8829 -9067.4837 -7309.5640 302.7817 -873.8720 -829.3811 30050.3701 122.8149 194.5873
ENERGY: 1200000 4.9245 3.8981 8.3409 0.0000 -10751.0849 1572.2475 0.0000 0.0000 1771.8959 -7389.7781 304.8405 -9161.6740 -7321.8737 302.3323 1208.7132 1233.0039 29602.9208 157.3232 228.5410
ENERGY: 1500000 3.9060 6.0364 10.6442 0.0000 -10644.7288 1556.9889 0.0000 0.0000 1778.8306 -7288.3225 306.0336 -9067.1532 -7327.4715 301.4426 1272.9208 1397.4965 29898.6653 189.0001 256.9239
TCL: Running FEP window  15: Lambda1 0.29999999999999966 Lambda2 0.24999999999999967 [dLambda -0.04999999999999999]
TCL: Setting parameter firsttimestep to 0
TCL: Setting parameter alchLambda to 0.29999999999999966
Info: NONBONDED TABLE R-SQUARED SPACING: 0.0625
Info: NONBONDED TABLE SIZE: 705 POINTS
TCL: Setting parameter alchLambda2 to 0.24999999999999967
Info: NONBONDED TABLE R-SQUARED SPACING: 0.0625
Info: NONBONDED TABLE SIZE: 705 POINTS
TCL: Running for 1500000 steps
ETITLE: TS BOND ANGLE DIHED IMPRP ELECT VDW BOUNDARY MISC KINETIC TOTAL TEMP POTENTIAL TOTALAVG TEMPAVG PRESSURE GPRESSURE VOLUME PRESSAVG GPRESSAVG
ENERGY: 0 3.9060 6.0364 10.6442 0.0000 -10644.7286 1556.4231 0.0000 0.0000 1777.9469 -7289.7718 305.8816 -9067.7187 -7289.7718 305.8816 1304.4773 1383.2566 29898.6653 1304.4773 1383.2566
ENERGY: 300000 1.9147 6.0504 9.4652 0.0000 -10565.5052 1407.9557 0.0000 0.0000 1742.8331 -7397.2861 299.8405 -9140.1191 -7365.9021 299.6790 -235.9334 -184.3914 30155.4740 307.9591 358.2886
ENERGY: 600000 2.8495 4.7799 10.7746 0.0000 -10570.7141 1452.0965 0.0000 0.0000 1750.7774 -7349.4362 301.2073 -9100.2136 -7373.9704 300.2116 511.8324 548.4862 29552.5051 184.0066 230.1543
ENERGY: 900000 6.6712 7.6664 9.5535 0.0000 -10619.5067 1492.9723 0.0000 0.0000 1752.2203 -7350.4230 301.4555 -9102.6433 -7369.6889 299.7649 604.4881 675.2093 29480.6659 59.9563 122.4223
ENERGY: 1200000 4.5009 7.9660 8.1955 0.0000 -10526.0575 1417.6861 0.0000 0.0000 1799.3019 -7288.4071 309.5555 -9087.7090 -7362.4717 299.5883 90.8804 155.3784 29843.8241 118.1313 183.9856
ENERGY: 1500000 4.5113 4.0762 15.2992 0.0000 -10631.4110 1417.1485 0.0000 0.0000 1746.1637 -7444.2121 300.4135 -9190.3758 -7374.7968 298.6511 -328.8044 -315.7129 30177.4469 97.3234 155.5935
TCL: Running FEP window  16: Lambda1 0.24999999999999967 Lambda2 0.19999999999999968 [dLambda -0.04999999999999999]
TCL: Setting parameter firsttimestep to 0
TCL: Setting parameter alchLambda to 0.24999999999999967
Info: NONBONDED TABLE R-SQUARED SPACING: 0.0625
Info: NONBONDED TABLE SIZE: 705 POINTS
TCL: Setting parameter alchLambda2 to 0.19999999999999968
Info: NONBONDED TABLE R-SQUARED SPACING: 0.0625
Info: NONBONDED TABLE SIZE: 705 POINTS
TCL: Running for 1500000 steps
ETITLE: TS BOND ANGLE DIHED IMPRP ELECT VDW BOUNDARY MISC KINETIC TOTAL TEMP POTENTIAL TOTALAVG TEMPAVG PRESSURE GPRESSURE VOLUME PRESSAVG GPRESSAVG
ENERGY: 0 4.5113 4.0762 15.2992 0.0000 -10631.4107 1416.7119 0.0000 0.0000 1745.2972 -7445.5149 300.2644 -9190.8121 -7445.5149 300.2644 -418.9026 -322.9057 30177.4469 -418.9026 -322.9057
ENERGY: 300000 5.3618 9.2925 10.2464 0.0000 -10499.6396 1405.0104 0.0000 0.0000 1684.6699 -7385.0585 289.8340 -9069.7283 -7365.8200 300.2265 0.0212 47.7615 29800.3524 -200.4420 -146.0531
ENERGY: 600000 2.8012 5.4198 13.7237 0.0000 -10612.5076 1469.9176 0.0000 0.0000 1740.4125 -7380.2328 299.4241 -9120.6454 -7381.9368 300.2033 315.2886 384.4572 30223.6355 -32.9658 24.6313
ENERGY: 900000 4.9042 6.2778 9.4511 0.0000 -10473.6814 1392.5129 0.0000 0.0000 1707.5627 -7352.9726 293.7725 -9060.5354 -7351.8363 299.4361 -402.1705 -294.6475 30388.6115 26.5954 91.5049
ENERGY: 1200000 3.8372 3.9779 12.1208 0.0000 -10713.7090 1502.0571 0.0000 0.0000 1760.2780 -7431.4379 302.8418 -9191.7160 -7352.5876 300.4325 187.5480 214.2077 30364.1999 31.8539 93.7304
ENERGY: 1500000 4.4333 5.9335 11.9670 0.0000 -10465.4171 1338.8772 0.0000 0.0000 1767.3764 -7336.8296 304.0630 -9104.2060 -7352.3052 300.3387 -818.1217 -705.9245 29920.9934 27.8414 101.3455
TCL: Running FEP window  17: Lambda1 0.19999999999999968 Lambda2 0.1499999999999997 [dLambda -0.04999999999999999]
TCL: Setting parameter firsttimestep to 0
TCL: Setting parameter alchLambda to 0.19999999999999968
Info: NONBONDED TABLE R-SQUARED SPACING: 0.0625
Info: NONBONDED TABLE SIZE: 705 POINTS
TCL: Setting parameter alchLambda2 to 0.1499999999999997
Info: NONBONDED TABLE R-SQUARED SPACING: 0.0625
Info: NONBONDED TABLE SIZE: 705 POINTS
TCL: Running for 1500000 steps
ETITLE: TS BOND ANGLE DIHED IMPRP ELECT VDW BOUNDARY MISC KINETIC TOTAL TEMP POTENTIAL TOTALAVG TEMPAVG PRESSURE GPRESSURE VOLUME PRESSAVG GPRESSAVG
ENERGY: 0 4.4333 5.9335 11.9670 0.0000 -10465.4162 1338.9422 0.0000 0.0000 1766.5240 -7337.6161 303.9164 -9104.1402 -7337.6161 303.9164 -778.5306 -710.5977 29920.9934 -778.5306 -710.5977
ENERGY: 300000 7.4355 4.8597 11.5570 0.0000 -10539.0123 1414.4581 0.0000 0.0000 1723.1792 -7377.5226 296.4592 -9100.7018 -7336.0743 298.1997 -152.9576 -54.9321 29555.5422 -348.4364 -260.6890
ENERGY: 600000 12.5400 4.8626 7.2107 0.0000 -10364.7333 1359.6009 0.0000 0.0000 1720.0260 -7260.4930 295.9167 -8980.5190 -7312.0880 299.4377 -459.8570 -451.7994 30056.9288 -310.1908 -248.9727
ENERGY: 900000 5.9973 4.5596 11.2682 0.0000 -10441.1873 1383.9014 0.0000 0.0000 1719.4275 -7316.0333 295.8138 -9035.4608 -7317.8164 299.1584 -459.3068 -361.5794 30078.2333 -307.3522 -236.9354
ENERGY: 1200000 4.7003 7.4155 12.9179 0.0000 -10455.9664 1362.7701 0.0000 0.0000 1753.6241 -7314.5385 301.6970 -9068.1625 -7325.5891 298.8798 -515.1013 -501.7915 30060.8691 -291.4177 -225.9849
ENERGY: 1500000 4.1128 9.4530 7.0519 0.0000 -10475.0495 1392.6991 0.0000 0.0000 1796.4135 -7265.3192 309.0586 -9061.7327 -7323.8015 299.8570 -132.8609 -78.5157 30112.4924 -252.1591 -190.1307
TCL: Running FEP window  18: Lambda1 0.1499999999999997 Lambda2 0.09999999999999969 [dLambda -0.05 ]
TCL: Setting parameter firsttimestep to 0
TCL: Setting parameter alchLambda to 0.1499999999999997
Info: NONBONDED TABLE R-SQUARED SPACING: 0.0625
Info: NONBONDED TABLE SIZE: 705 POINTS
TCL: Setting parameter alchLambda2 to 0.09999999999999969
Info: NONBONDED TABLE R-SQUARED SPACING: 0.0625
Info: NONBONDED TABLE SIZE: 705 POINTS
TCL: Running for 1500000 steps
ETITLE: TS BOND ANGLE DIHED IMPRP ELECT VDW BOUNDARY MISC KINETIC TOTAL TEMP POTENTIAL TOTALAVG TEMPAVG PRESSURE GPRESSURE VOLUME PRESSAVG GPRESSAVG
ENERGY: 0 4.1128 9.4530 7.0519 0.0000 -10475.0516 1392.3852 0.0000 0.0000 1795.5473 -7266.5015 308.9096 -9062.0488 -7266.5015 308.9096 -157.3651 -81.6482 30112.4924 -157.3651 -81.6482
ENERGY: 300000 7.3622 4.9644 15.8553 0.0000 -10532.3800 1406.0879 0.0000 0.0000 1743.2440 -7354.8661 299.9112 -9098.1101 -7326.5974 302.8330 -244.6767 -181.4850 29738.7727 -41.8349 48.6615
ENERGY: 600000 4.0688 5.3789 14.9240 0.0000 -10597.1208 1517.4337 0.0000 0.0000 1723.2456 -7332.0700 296.4706 -9055.3155 -7339.4109 302.3588 774.2745 824.9721 29726.3244 124.1214 195.6501
ENERGY: 900000 8.1616 6.9441 11.5461 0.0000 -10493.1814 1398.0698 0.0000 0.0000 1672.5556 -7395.9042 287.7498 -9068.4598 -7341.5167 299.8818 -171.1478 -161.8606 29845.5522 60.2782 123.4392
ENERGY: 1200000 3.6296 8.4519 14.7533 0.0000 -10575.1269 1443.7094 0.0000 0.0000 1783.3749 -7321.2076 306.8154 -9104.5826 -7341.9258 299.6315 251.5038 326.0952 29742.1569 40.2557 102.9596
ENERGY: 1500000 6.9124 4.5975 9.0550 0.0000 -10580.5760 1421.0556 0.0000 0.0000 1741.9261 -7397.0295 299.6845 -9138.9556 -7342.7751 299.9194 77.2226 126.5982 29131.6532 36.5992 96.3136
TCL: Running FEP window  19: Lambda1 0.09999999999999969 Lambda2 0.049999999999999684 [dLambda -0.05 ]
TCL: Setting parameter firsttimestep to 0
TCL: Setting parameter alchLambda to 0.09999999999999969
Info: NONBONDED TABLE R-SQUARED SPACING: 0.0625
Info: NONBONDED TABLE SIZE: 705 POINTS
TCL: Setting parameter alchLambda2 to 0.049999999999999684
Info: NONBONDED TABLE R-SQUARED SPACING: 0.0625
Info: NONBONDED TABLE SIZE: 705 POINTS
TCL: Running for 1500000 steps
ETITLE: TS BOND ANGLE DIHED IMPRP ELECT VDW BOUNDARY MISC KINETIC TOTAL TEMP POTENTIAL TOTALAVG TEMPAVG PRESSURE GPRESSURE VOLUME PRESSAVG GPRESSAVG
ENERGY: 0 6.9124 4.5975 9.0550 0.0000 -10580.5759 1420.8805 0.0000 0.0000 1741.0886 -7398.0419 299.5404 -9139.1306 -7398.0419 299.5404 38.4585 119.7737 29131.6532 38.4585 119.7737
ENERGY: 300000 5.2633 2.5190 7.8674 0.0000 -10542.1375 1395.2000 0.0000 0.0000 1781.4951 -7349.7927 306.4920 -9131.2878 -7385.5175 301.1549 -66.0119 -84.3303 29431.6896 -233.1132 -172.8022
ENERGY: 600000 6.4265 4.3514 13.3175 0.0000 -10563.6361 1465.5458 0.0000 0.0000 1714.2080 -7359.7869 294.9158 -9073.9949 -7345.7902 302.6507 467.9104 495.0723 29915.4434 -42.6940 12.9188
ENERGY: 900000 4.8212 4.6211 13.7016 0.0000 -10553.7266 1465.0152 0.0000 0.0000 1751.2232 -7314.3442 301.2840 -9065.5675 -7326.6080 301.3294 314.1490 390.2031 29965.4853 -135.8496 -77.3790
ENERGY: 1200000 5.5044 4.8576 9.0531 0.0000 -10548.8033 1445.5449 0.0000 0.0000 1768.1887 -7315.6545 304.2027 -9083.8432 -7318.9256 302.9810 88.8945 149.4999 29733.1786 -53.3350 1.9201
ENERGY: 1500000 5.7718 4.2263 9.9612 0.0000 -10616.1943 1468.0814 0.0000 0.0000 1769.3696 -7358.7841 304.4059 -9128.1537 -7327.9955 302.9709 155.0903 183.1653 29833.9726 -98.1095 -46.4595
TCL: Running FEP window  20: Lambda1 0.049999999999999684 Lambda2 0.0    [dLambda -0.049999999999999684]
TCL: Setting parameter firsttimestep to 0
TCL: Setting parameter alchLambda to 0.049999999999999684
Info: NONBONDED TABLE R-SQUARED SPACING: 0.0625
Info: NONBONDED TABLE SIZE: 705 POINTS
TCL: Setting parameter alchLambda2 to 0.0
Info: NONBONDED TABLE R-SQUARED SPACING: 0.0625
Info: NONBONDED TABLE SIZE: 705 POINTS
TCL: Running for 1500000 steps
ETITLE: TS BOND ANGLE DIHED IMPRP ELECT VDW BOUNDARY MISC KINETIC TOTAL TEMP POTENTIAL TOTALAVG TEMPAVG PRESSURE GPRESSURE VOLUME PRESSAVG GPRESSAVG
ENERGY: 0 5.7718 4.2263 9.9612 0.0000 -10616.1933 1467.6086 0.0000 0.0000 1768.4788 -7360.1467 304.2527 -9128.6255 -7360.1467 304.2527 73.8294 175.4752 29833.9726 73.8294 175.4752
ENERGY: 300000 3.5387 4.1161 9.7962 0.0000 -10495.9329 1430.0586 0.0000 0.0000 1706.8398 -7341.5835 293.6482 -9048.4233 -7315.3540 302.1647 368.1062 383.5878 29822.8796 161.1852 245.9228
ENERGY: 600000 5.9261 3.7918 12.2235 0.0000 -10491.1039 1424.4728 0.0000 0.0000 1743.2306 -7301.4590 299.9089 -9044.6897 -7308.9523 301.1077 210.6349 279.1357 29912.3793 242.6218 317.9291
ENERGY: 900000 5.1911 6.7789 9.6580 0.0000 -10618.6183 1501.8752 0.0000 0.0000 1759.0452 -7336.0699 302.6297 -9095.1150 -7320.8713 300.4636 378.1542 426.0085 30066.6998 238.4854 301.6988
ENERGY: 1200000 9.1286 5.4951 6.7379 0.0000 -10586.0077 1459.8132 0.0000 0.0000 1734.5667 -7370.2662 298.4183 -9104.8328 -7334.2854 299.6027 192.2264 245.3702 29931.9303 203.3056 261.6841
ENERGY: 1500000 11.0546 7.0379 11.0601 0.0000 -10322.6333 1237.1888 0.0000 0.0000 1752.6203 -7303.6715 301.5243 -9056.2918 -7331.6212 300.3558 -1634.4242 -1618.4482 30088.7031 125.0151 181.4965
TCL: Exiting due to exit command.
