Info: SIMULATION PARAMETERS:
Info: TIMESTEP               2
Info: NUMBER OF STEPS        0
Info: STEPS PER CYCLE        10
Info: PERIODIC CELL BASIS 1  31.1176 0 0
Info: PERIODIC CELL BASIS 2  0 29.7105 0
Info: PERIODIC CELL BASIS 3  0 0 33.31
Info: PERIODIC CELL CENTER   0 0 0
Info: WRAPPING WATERS AROUND PERIODIC BOUNDARIES ON OUTPUT.
Info: WRAPPING ALL CLUSTERS AROUND PERIODIC BOUNDARIES ON OUTPUT.
Info: FIRST LDB TIMESTEP     50
Info: LAST LDB TIMESTEP     -1
Info: HOM BACKGROUND SCALING 1
Info: PME BACKGROUND SCALING 1
Info: MIN ATOMS PER PATCH    40
Info: EMPTY PATCH LOAD       40 ATOMS
Info: VELOCITY FILE          mobley_4193752_equil.vel
Info: CENTER OF MASS MOVING INITIALLY? NO
Info: DIELECTRIC             1
Info: EXCLUDE                SCALED ONE-FOUR
Info: 1-4 ELECTROSTATICS SCALED BY 0.833333
Info: MODIFIED 1-4 VDW PARAMETERS WILL BE USED
Info: DCD FILENAME           mobley_4193752_prod.dcd
Info: DCD FREQUENCY          100000
Info: DCD FIRST STEP         100000
Info: DCD FILE WILL CONTAIN UNIT CELL DATA
Info: XST FILENAME           mobley_4193752_prod.xst
Info: XST FREQUENCY          100000
Info: NO VELOCITY DCD OUTPUT
Info: NO FORCE DCD OUTPUT
Info: OUTPUT FILENAME        mobley_4193752_prod
Info: BINARY OUTPUT FILES WILL BE USED
Info: RESTART FILENAME       mobley_4193752_prod.restart
Info: RESTART FREQUENCY      100000
Info: BINARY RESTART FILES WILL BE USED
Info: CUTOFF                 9
Info: PAIRLIST DISTANCE      11
Info: PAIRLIST SHRINK RATE   0.01
Info: PAIRLIST GROW RATE     0.01
Info: PAIRLIST TRIGGER       0.3
Info: PAIRLISTS PER CYCLE    2
Info: PAIRLISTS ENABLED
Info: MARGIN                 2
Info: HYDROGEN GROUP CUTOFF  2.5
Info: PATCH DIMENSION        15.5
Info: ENERGY OUTPUT STEPS    100000
Info: ENERGY EVALUATION STEPS    100000
Info: OUTPUT ENERGY PRECISION 4
Info: CROSSTERM ENERGY INCLUDED IN DIHEDRAL
Info: TIMING OUTPUT STEPS    1000000
Info: PRESSURE OUTPUT STEPS  100000
Info: ALCHEMICAL FEP ON
Info: FEP CURRENT LAMBDA VALUE     0
Info: FEP COMPARISON LAMBDA VALUE  0.05
Info: FEP INTRA-ALCHEMICAL NON-BONDED INTERACTIONS WILL BE RETAINED
Info: FEP INTRA-ALCHEMICAL BONDED INTERACTIONS WILL BE RETAINED
Info: FEP VDW SHIFTING COEFFICIENT 5
Info: FEP ELEC. ACTIVE FOR ANNIHILATED PARTICLES BETWEEN LAMBDA = 0 AND LAMBDA = 0.5
Info: FEP ELEC. ACTIVE FOR EXNIHILATED PARTICLES BETWEEN LAMBDA = 0.5 AND LAMBDA = 1
Info: FEP VDW ACTIVE FOR ANNIHILATED PARTICLES BETWEEN LAMBDA = 0 AND LAMBDA = 1
Info: FEP VDW ACTIVE FOR EXNIHILATED PARTICLES BETWEEN LAMBDA = 0 AND LAMBDA = 1
Info: FEP BOND ACTIVE FOR ANNIHILATED PARTICLES BETWEEN LAMBDA = 1 AND LAMBDA = 1
Info: FEP BOND ACTIVE FOR EXNIHILATED PARTICLES BETWEEN LAMBDA = 0 AND LAMBDA = 0
Info: LANGEVIN DYNAMICS ACTIVE
Info: LANGEVIN TEMPERATURE   300
Info: LANGEVIN USING BBK INTEGRATOR
Info: LANGEVIN DAMPING COEFFICIENT IS 1 INVERSE PS
Info: LANGEVIN DYNAMICS APPLIED TO HYDROGENS
Info: LANGEVIN PISTON PRESSURE CONTROL ACTIVE
Info:        TARGET PRESSURE IS 1.01325 BAR
Info:     OSCILLATION PERIOD IS 50 FS
Info:             DECAY TIME IS 25 FS
Info:     PISTON TEMPERATURE IS 300 K
Info:       PRESSURE CONTROL IS GROUP-BASED
Info:    INITIAL STRAIN RATE IS 0.000198383 0.000198383 0.000198383
Info:       CELL FLUCTUATION IS ISOTROPIC
Info: PARTICLE MESH EWALD (PME) ACTIVE
Info: PME TOLERANCE               1e-06
Info: PME EWALD COEFFICIENT       0.348832
Info: PME INTERPOLATION ORDER     4
Info: PME GRID DIMENSIONS         32 32 36
Info: PME MAXIMUM GRID SPACING    1
Info: PME CALCULATION WILL BE PERFORMED ON GPU
Info: FULL ELECTROSTATIC EVALUATION FREQUENCY      2
Info: USING VERLET I (r-RESPA) MTS SCHEME.
Info: C1 SPLITTING OF LONG RANGE ELECTROSTATICS
Info: PLACING ATOMS IN PATCHES BY HYDROGEN GROUPS
Info: RIGID BONDS TO HYDROGEN : ALL
Info:         ERROR TOLERANCE : 1e-08
Info:          MAX ITERATIONS : 100
Info: RIGID WATER USING SETTLE ALGORITHM
Info: RANDOM NUMBER SEED     1743777057
Info: USE HYDROGEN BONDS?    NO
Info: Using AMBER format force field!
Info: AMBER PARM FILE        mobley_4193752.prmtop
Info: COORDINATE PDB         mobley_4193752.pdb
Info: Exclusions will be read from PARM file!
Info: SCNB (VDW SCALING)     2
Info: USING ARITHMETIC MEAN TO COMBINE L-J SIGMA PARAMETERS
Info: BINARY COORDINATES     mobley_4193752_equil.coor
Info: SUMMARY OF PARAMETERS:
Info: 6 BONDS
Info: 5 ANGLES
Info:   5 HARMONIC
Info:   0 COSINE-BASED
Info: 3 DIHEDRAL
Info: 0 IMPROPER
Info: 0 CROSSTERM
Info: 0 VDW
Info: 21 VDW_PAIRS
Info: 0 NBTHOLE_PAIRS
Info: To read alchdata from file: mobley_4193752.pdb
Info: To read alchflag data from column: 5
Info: STRUCTURE SUMMARY:
Info: 2999 ATOMS
Info: 2999 BONDS
Info: 21 ANGLES
Info: 34 DIHEDRALS
Info: 0 IMPROPERS
Info: 0 CROSSTERMS
Info: 3045 EXCLUSIONS
Info: 2990 RIGID BONDS
Info: ALCH: 0 ATOMS TO DISAPPEAR IN FINAL STATE
Info: ALCH: 14 ATOMS TO APPEAR IN FINAL STATE
Info: 6007 DEGREES OF FREEDOM
Info: 1004 HYDROGEN GROUPS
Info: 3 ATOMS IN LARGEST HYDROGEN GROUP
Info: 1004 MIGRATION GROUPS
Info: 3 ATOMS IN LARGEST MIGRATION GROUP
Info: TOTAL MASS = 18049 amu
Info: TOTAL CHARGE = 7.45058e-09 e
Info: MASS DENSITY = 0.973245 g/cm^3
Info: ATOM DENSITY = 0.0973835 atoms/A^3
Info: ADDED 0 IMPLICIT EXCLUSIONS
Info: NONBONDED TABLE R-SQUARED SPACING: 0.0625
Info: NONBONDED TABLE SIZE: 705 POINTS
Info: REMOVING COM VELOCITY 0.107038 0.0271324 -0.0124208
Info: Use 3D box decompostion in PME FFT.
Info: Updated CUDA force table with 4096 elements.
Info: Updated CUDA LJ table with 6 x 6 elements.
Info: Found 16 unique exclusion lists needing 32 bytes
TCL: Running for 1500000 steps
ETITLE: TS BOND ANGLE DIHED IMPRP ELECT VDW BOUNDARY MISC KINETIC TOTAL TEMP POTENTIAL TOTALAVG TEMPAVG PRESSURE GPRESSURE VOLUME PRESSAVG GPRESSAVG
ENERGY: 0 3.8059 7.0883 1.6445 0.0000 -10892.7742 1433.8178 0.0000 0.0000 1799.7854 -7646.6323 301.5459 -9446.4177 -7646.6323 301.5459 -511.4216 -428.9851 30795.7724 -511.4216 -428.9851
ENERGY: 300000 2.0449 2.9169 4.2767 0.0000 -10695.7694 1368.2549 0.0000 0.0000 1798.8909 -7519.3851 301.3961 -9318.2759 -7591.3379 299.3101 -646.5680 -609.4167 30813.7462 -51.1693 6.1166
ENERGY: 600000 3.1300 4.1676 1.7805 0.0000 -10923.5078 1444.8333 0.0000 0.0000 1815.6863 -7653.9101 304.2101 -9469.5964 -7591.9410 300.1398 -436.1180 -362.8245 30663.9483 -16.1570 56.2405
ENERGY: 900000 2.1470 2.6975 1.5999 0.0000 -10770.5884 1455.6825 0.0000 0.0000 1814.6900 -7493.7716 304.0431 -9308.4616 -7582.0326 300.2648 18.4239 135.0604 30914.7860 110.3627 174.3432
ENERGY: 1200000 4.6947 4.5183 8.9236 0.0000 -10954.5214 1542.9092 0.0000 0.0000 1778.5704 -7614.9052 297.9915 -9393.4756 -7592.6395 299.7251 485.5308 544.2768 30246.7040 184.7550 243.4179
ENERGY: 1500000 3.4338 4.3438 3.0728 0.0000 -10838.8927 1522.6803 0.0000 0.0000 1783.7186 -7521.6434 298.8540 -9305.3620 -7588.6574 300.1784 557.6104 585.4641 31120.1136 223.9882 284.7029
TCL: Running FEP window   2: Lambda1 0.05   Lambda2 0.1    [dLambda 0.05  ]
TCL: Setting parameter firsttimestep to 0
TCL: Setting parameter alchLambda to 0.05
Info: NONBONDED TABLE R-SQUARED SPACING: 0.0625
Info: NONBONDED TABLE SIZE: 705 POINTS
TCL: Setting parameter alchLambda2 to 0.1
Info: NONBONDED TABLE R-SQUARED SPACING: 0.0625
Info: NONBONDED TABLE SIZE: 705 POINTS
TCL: Running for 1500000 steps
ETITLE: TS BOND ANGLE DIHED IMPRP ELECT VDW BOUNDARY MISC KINETIC TOTAL TEMP POTENTIAL TOTALAVG TEMPAVG PRESSURE GPRESSURE VOLUME PRESSAVG GPRESSAVG
ENERGY: 0 3.4338 4.3438 3.0728 0.0000 -10838.8940 1524.6306 0.0000 0.0000 1782.8153 -7520.5978 298.7027 -9303.4130 -7520.5978 298.7027 504.2047 594.9915 31120.1136 504.2047 594.9915
ENERGY: 300000 0.7683 2.7562 3.6306 0.0000 -10899.0956 1475.5223 0.0000 0.0000 1833.3922 -7583.0260 307.1766 -9416.4182 -7614.6115 300.1228 12.2066 84.0069 30784.2763 249.3892 317.7432
ENERGY: 600000 1.5626 6.2762 4.3912 0.0000 -11023.0715 1536.9527 0.0000 0.0000 1769.7192 -7704.1695 296.5085 -9473.8888 -7636.9626 298.9850 386.3574 421.8112 30410.3631 59.7716 123.1596
ENERGY: 900000 2.9625 1.9645 6.9632 0.0000 -10850.9858 1537.2322 0.0000 0.0000 1722.4771 -7579.3864 288.5933 -9301.8635 -7627.4004 297.6231 578.7193 641.9891 30766.3525 119.8123 176.4256
ENERGY: 1200000 3.6061 1.2297 3.9163 0.0000 -10790.2220 1417.0917 0.0000 0.0000 1780.4352 -7583.9430 298.3039 -9364.3782 -7608.6568 298.8601 -481.5484 -427.9405 31077.4766 61.1861 118.8075
ENERGY: 1500000 3.9577 3.6335 2.5885 0.0000 -10766.1617 1371.3053 0.0000 0.0000 1829.1269 -7555.5499 306.4620 -9384.6767 -7608.0696 298.7610 -883.9889 -860.4031 31094.6246 -2.4142 53.4587
TCL: Running FEP window   3: Lambda1 0.1    Lambda2 0.15000000000000002 [dLambda 0.05000000000000002]
TCL: Setting parameter firsttimestep to 0
TCL: Setting parameter alchLambda to 0.1
Info: NONBONDED TABLE R-SQUARED SPACING: 0.0625
Info: NONBONDED TABLE SIZE: 705 POINTS
TCL: Setting parameter alchLambda2 to 0.15000000000000002
Info: NONBONDED TABLE R-SQUARED SPACING: 0.0625
Info: NONBONDED TABLE SIZE: 705 POINTS
TCL: Running for 1500000 steps
ETITLE: TS BOND ANGLE DIHED IMPRP ELECT VDW BOUNDARY MISC KINETIC TOTAL TEMP POTENTIAL TOTALAVG TEMPAVG PRESSURE GPRESSURE VOLUME PRESSAVG GPRESSAVG
ENERGY: 0 3.9577 3.6335 2.5885 0.0000 -10766.1617 1371.4335 0.0000 0.0000 1828.2577 -7556.2908 306.3163 -9384.5486 -7556.2908 306.3163 -935.7216 -857.6790 31094.6246 -935.7216 -857.6790
ENERGY: 300000 3.7208 3.3920 3.4966 0.0000 -10816.8830 1399.9616 0.0000 0.0000 1747.2566 -7659.0555 292.7450 -9406.3120 -7548.6991 303.2039 -948.6263 -827.5317 31087.6634 -605.1561 -524.2105
ENERGY: 600000 2.4328 6.5848 4.2646 0.0000 -10832.2986 1473.1078 0.0000 0.0000 1768.0085 -7577.8999 296.2219 -9345.9084 -7566.4823 300.6311 78.2671 211.4706 30721.3181 -284.4022 -193.5915
ENERGY: 900000 2.1398 3.3231 2.5713 0.0000 -10995.5638 1550.5649 0.0000 0.0000 1836.1370 -7600.8277 307.6365 -9436.9647 -7579.0209 300.6068 646.3960 720.2290 30519.7712 -121.9308 -37.1928
ENERGY: 1200000 4.0434 3.3155 4.3706 0.0000 -10957.0719 1576.8608 0.0000 0.0000 1824.7950 -7543.6865 305.7362 -9368.4815 -7579.7220 301.0949 909.7872 1004.8423 30562.3996 9.2599 91.9937
ENERGY: 1500000 2.5663 4.6387 3.5139 0.0000 -10814.2980 1454.6874 0.0000 0.0000 1772.6713 -7576.2204 297.0031 -9348.8917 -7583.0583 299.9979 34.6859 102.1380 30720.6814 -31.0110 50.6668
TCL: Running FEP window   4: Lambda1 0.15000000000000002 Lambda2 0.2    [dLambda 0.04999999999999999]
TCL: Setting parameter firsttimestep to 0
TCL: Setting parameter alchLambda to 0.15000000000000002
Info: NONBONDED TABLE R-SQUARED SPACING: 0.0625
Info: NONBONDED TABLE SIZE: 705 POINTS
TCL: Setting parameter alchLambda2 to 0.2
Info: NONBONDED TABLE R-SQUARED SPACING: 0.0625
Info: NONBONDED TABLE SIZE: 705 POINTS
TCL: Running for 1500000 steps
ETITLE: TS BOND ANGLE DIHED IMPRP ELECT VDW BOUNDARY MISC KINETIC TOTAL TEMP POTENTIAL TOTALAVG TEMPAVG PRESSURE GPRESSURE VOLUME PRESSAVG GPRESSAVG
ENERGY: 0 2.5663 4.6387 3.5139 0.0000 -10814.2983 1456.2026 0.0000 0.0000 1771.7716 -7575.6052 296.8523 -9347.3767 -7575.6052 296.8523 26.3562 107.3178 30720.6814 26.3562 107.3178
ENERGY: 300000 3.1942 4.9245 4.4855 0.0000 -10764.5503 1419.5229 0.0000 0.0000 1855.7794 -7476.6438 310.9275 -9332.4232 -7552.8344 303.4597 -660.2962 -609.9116 31458.3883 -221.3473 -152.9776
ENERGY: 600000 2.3422 5.0807 3.4155 0.0000 -10901.2404 1472.6419 0.0000 0.0000 1761.7645 -7655.9956 295.1757 -9417.7601 -7566.0848 301.0390 -219.5850 -146.4101 30900.3865 -126.4503 -55.2585
ENERGY: 900000 2.3291 5.2309 4.0086 0.0000 -10721.8943 1345.0780 0.0000 0.0000 1772.2754 -7592.9723 296.9368 -9365.2477 -7574.6744 299.7445 -829.1616 -751.4198 30873.3032 -207.2346 -133.0474
ENERGY: 1200000 3.6795 3.3391 2.7454 0.0000 -10756.3291 1400.3536 0.0000 0.0000 1800.6859 -7545.5256 301.6968 -9346.2115 -7571.2390 300.1619 -716.6482 -647.6220 31341.0634 -269.1007 -199.1433
ENERGY: 1500000 5.7054 1.3545 4.9317 0.0000 -10995.7942 1471.9950 0.0000 0.0000 1732.6819 -7779.1258 290.3030 -9511.8077 -7589.1774 300.2357 -460.0197 -384.6751 30367.8052 -235.8593 -171.2052
TCL: Running FEP window   5: Lambda1 0.2    Lambda2 0.25   [dLambda 0.04999999999999999]
TCL: Setting parameter firsttimestep to 0
TCL: Setting parameter alchLambda to 0.2
Info: NONBONDED TABLE R-SQUARED SPACING: 0.0625
Info: NONBONDED TABLE SIZE: 705 POINTS
TCL: Setting parameter alchLambda2 to 0.25
Info: NONBONDED TABLE R-SQUARED SPACING: 0.0625
Info: NONBONDED TABLE SIZE: 705 POINTS
TCL: Running for 1500000 steps
ETITLE: TS BOND ANGLE DIHED IMPRP ELECT VDW BOUNDARY MISC KINETIC TOTAL TEMP POTENTIAL TOTALAVG TEMPAVG PRESSURE GPRESSURE VOLUME PRESSAVG GPRESSAVG
ENERGY: 0 5.7054 1.3545 4.9317 0.0000 -10995.7935 1472.4391 0.0000 0.0000 1731.8097 -7779.5532 290.1569 -9511.3629 -7779.5532 290.1569 -463.4606 -380.1503 30367.8052 -463.4606 -380.1503
ENERGY: 300000 2.2564 2.4185 2.8519 0.0000 -10834.6217 1449.7413 0.0000 0.0000 1820.3334 -7557.0202 304.9887 -9377.3536 -7634.0515 298.5878 -46.5656 -38.6315 30830.3912 -381.7380 -323.9757
ENERGY: 600000 1.4670 2.7252 3.8783 0.0000 -10811.0118 1443.3311 0.0000 0.0000 1765.2631 -7594.3469 295.7619 -9359.6101 -7614.9628 297.9338 -171.1499 -80.6509 31158.8715 -331.8893 -261.0220
ENERGY: 900000 2.9163 3.7448 3.3551 0.0000 -10861.8655 1460.2780 0.0000 0.0000 1740.0699 -7651.5015 291.5409 -9391.5714 -7609.8609 298.7793 -336.8498 -288.4994 31146.7002 -209.7777 -147.7095
ENERGY: 1200000 1.9399 2.0338 0.6085 0.0000 -10875.1407 1475.8377 0.0000 0.0000 1785.9443 -7608.7764 299.2269 -9394.7207 -7600.3048 299.0983 266.2225 294.3591 30513.0409 -65.8516 -17.9128
ENERGY: 1500000 2.5692 2.4105 4.8837 0.0000 -10845.2361 1459.2279 0.0000 0.0000 1743.7396 -7632.4052 292.1557 -9376.1448 -7605.0564 298.4872 -303.3371 -211.1789 30821.7261 -68.9107 -19.1042
TCL: Running FEP window   6: Lambda1 0.25   Lambda2 0.3    [dLambda 0.04999999999999999]
TCL: Setting parameter firsttimestep to 0
TCL: Setting parameter alchLambda to 0.25
Info: NONBONDED TABLE R-SQUARED SPACING: 0.0625
Info: NONBONDED TABLE SIZE: 705 POINTS
TCL: Setting parameter alchLambda2 to 0.3
Info: NONBONDED TABLE R-SQUARED SPACING: 0.0625
Info: NONBONDED TABLE SIZE: 705 POINTS
TCL: Running for 1500000 steps
ETITLE: TS BOND ANGLE DIHED IMPRP ELECT VDW BOUNDARY MISC KINETIC TOTAL TEMP POTENTIAL TOTALAVG TEMPAVG PRESSURE GPRESSURE VOLUME PRESSAVG GPRESSAVG
ENERGY: 0 2.5692 2.4105 4.8837 0.0000 -10845.2364 1459.5791 0.0000 0.0000 1742.8484 -7632.9455 292.0064 -9375.7939 -7632.9455 292.0064 -311.9688 -205.8650 30821.7261 -311.9688 -205.8650
ENERGY: 300000 3.6205 4.3270 2.8577 0.0000 -10827.8371 1462.4098 0.0000 0.0000 1805.3754 -7549.2466 302.4825 -9354.6220 -7594.0246 298.6278 -14.8025 29.1902 30903.7947 -170.5635 -82.7049
ENERGY: 600000 4.3161 2.2149 3.4859 0.0000 -10873.7247 1500.8433 0.0000 0.0000 1814.4139 -7548.4505 303.9969 -9362.8644 -7601.1578 297.6985 148.1600 210.3075 30783.0139 12.9607 87.6467
ENERGY: 900000 3.3427 2.8547 1.4361 0.0000 -10848.8831 1445.9934 0.0000 0.0000 1797.7622 -7597.4941 301.2069 -9395.2562 -7595.7731 298.0576 -324.3973 -286.8604 30875.9795 -62.0807 -7.3113
ENERGY: 1200000 1.7077 3.2119 6.3173 0.0000 -10723.9429 1439.3184 0.0000 0.0000 1803.4097 -7469.9778 302.1532 -9273.3875 -7591.0122 297.8978 116.4211 164.7789 30884.2771 37.8633 85.4421
ENERGY: 1500000 1.0137 3.2550 1.6294 0.0000 -10836.8353 1453.3145 0.0000 0.0000 1783.6557 -7593.9670 298.8435 -9377.6227 -7596.0043 297.9549 -93.8863 2.3630 30969.8136 19.7997 69.5814
TCL: Running FEP window   7: Lambda1 0.3    Lambda2 0.35   [dLambda 0.04999999999999999]
TCL: Setting parameter firsttimestep to 0
TCL: Setting parameter alchLambda to 0.3
Info: NONBONDED TABLE R-SQUARED SPACING: 0.0625
Info: NONBONDED TABLE SIZE: 705 POINTS
TCL: Setting parameter alchLambda2 to 0.35
Info: NONBONDED TABLE R-SQUARED SPACING: 0.0625
Info: NONBONDED TABLE SIZE: 705 POINTS
TCL: Running for 1500000 steps
ETITLE: TS BOND ANGLE DIHED IMPRP ELECT VDW BOUNDARY MISC KINETIC TOTAL TEMP POTENTIAL TOTALAVG TEMPAVG PRESSURE GPRESSURE VOLUME PRESSAVG GPRESSAVG
ENERGY: 0 1.0137 3.2550 1.6294 0.0000 -10836.8342 1452.8753 0.0000 0.0000 1782.7667 -7595.2941 298.6945 -9378.0608 -7595.2941 298.6945 -77.5188 5.1348 30969.8136 -77.5188 5.1348
ENERGY: 300000 5.1833 3.5982 5.1176 0.0000 -10855.1732 1446.7546 0.0000 0.0000 1812.8441 -7581.6755 303.7339 -9394.5196 -7579.5287 302.5837 -131.1216 -70.7851 30894.3981 -166.2832 -90.5190
ENERGY: 600000 5.6357 3.9037 1.6925 0.0000 -10812.7162 1482.2576 0.0000 0.0000 1821.2269 -7497.9999 305.1384 -9319.2268 -7590.9881 302.3906 142.4997 106.8817 31303.7670 30.2312 90.9459
ENERGY: 900000 1.9091 2.1174 8.9005 0.0000 -10931.3911 1514.2529 0.0000 0.0000 1775.5781 -7628.6331 297.4901 -9404.2112 -7587.5439 301.9102 385.2402 455.4276 30514.5675 38.8061 103.8780
ENERGY: 1200000 4.4336 3.6663 1.9420 0.0000 -10850.9193 1440.0577 0.0000 0.0000 1746.3938 -7654.4260 292.6004 -9400.8198 -7600.8995 300.1781 -613.6657 -526.7269 31405.0155 -97.4801 -33.7500
ENERGY: 1500000 2.3681 2.4082 3.0236 0.0000 -10979.8359 1546.2954 0.0000 0.0000 1787.9579 -7637.7827 299.5643 -9425.7406 -7609.0347 300.7494 408.8449 514.3550 31084.0138 -21.5062 43.5327
TCL: Running FEP window   8: Lambda1 0.35   Lambda2 0.39999999999999997 [dLambda 0.04999999999999999]
TCL: Setting parameter firsttimestep to 0
TCL: Setting parameter alchLambda to 0.35
Info: NONBONDED TABLE R-SQUARED SPACING: 0.0625
Info: NONBONDED TABLE SIZE: 705 POINTS
TCL: Setting parameter alchLambda2 to 0.39999999999999997
Info: NONBONDED TABLE R-SQUARED SPACING: 0.0625
Info: NONBONDED TABLE SIZE: 705 POINTS
TCL: Running for 1500000 steps
ETITLE: TS BOND ANGLE DIHED IMPRP ELECT VDW BOUNDARY MISC KINETIC TOTAL TEMP POTENTIAL TOTALAVG TEMPAVG PRESSURE GPRESSURE VOLUME PRESSAVG GPRESSAVG
ENERGY: 0 2.3681 2.4082 3.0236 0.0000 -10979.8352 1546.2162 0.0000 0.0000 1787.1097 -7638.7094 299.4222 -9425.8191 -7638.7094 299.4222 418.7013 517.8249 31084.0138 418.7013 517.8249
ENERGY: 300000 0.8241 2.5543 5.6868 0.0000 -10810.9507 1527.8123 0.0000 0.0000 1719.9160 -7554.1572 288.1642 -9274.0732 -7595.5493 298.5035 564.3173 692.3172 30806.9259 107.5329 188.2335
ENERGY: 600000 1.6261 3.6499 4.0390 0.0000 -10933.5627 1522.6500 0.0000 0.0000 1797.2273 -7604.3704 301.1173 -9401.5977 -7606.2512 300.0881 679.5640 718.0837 30318.6997 78.3391 140.1234
ENERGY: 900000 1.8831 7.8585 2.9867 0.0000 -10917.2622 1480.7266 0.0000 0.0000 1754.4943 -7669.3130 293.9576 -9423.8074 -7605.0172 300.1870 126.5703 198.0417 30465.1623 74.5884 135.7907
ENERGY: 1200000 4.5171 3.4728 4.7991 0.0000 -10872.3461 1517.8708 0.0000 0.0000 1803.4512 -7538.2351 302.1601 -9341.6863 -7601.3242 300.3691 435.5876 498.2370 30693.7356 181.8115 239.3440
ENERGY: 1500000 4.7256 2.9138 7.0909 0.0000 -10951.6264 1544.4316 0.0000 0.0000 1789.0786 -7603.3861 299.7521 -9392.4647 -7607.3288 299.7534 419.5441 422.5316 30982.7413 201.1285 259.6347
TCL: Running FEP window   9: Lambda1 0.39999999999999997 Lambda2 0.44999999999999996 [dLambda 0.04999999999999999]
TCL: Setting parameter firsttimestep to 0
TCL: Setting parameter alchLambda to 0.39999999999999997
Info: NONBONDED TABLE R-SQUARED SPACING: 0.0625
Info: NONBONDED TABLE SIZE: 705 POINTS
TCL: Setting parameter alchLambda2 to 0.44999999999999996
Info: NONBONDED TABLE R-SQUARED SPACING: 0.0625
Info: NONBONDED TABLE SIZE: 705 POINTS
TCL: Running for 1500000 steps
ETITLE: TS BOND ANGLE DIHED IMPRP ELECT VDW BOUNDARY MISC KINETIC TOTAL TEMP POTENTIAL TOTALAVG TEMPAVG PRESSURE GPRESSURE VOLUME PRESSAVG GPRESSAVG
ENERGY: 0 4.7256 2.9138 7.0909 0.0000 -10951.6268 1544.2152 0.0000 0.0000 1788.1852 -7604.4961 299.6024 -9392.6813 -7604.4961 299.6024 347.4776 425.6771 30982.7413 347.4776 425.6771
ENERGY: 300000 1.5228 2.7327 2.4647 0.0000 -10879.5484 1517.8657 0.0000 0.0000 1878.0145 -7476.9480 314.6529 -9354.9625 -7599.5634 302.2842 282.3554 299.8626 31190.2391 374.8331 423.4820
ENERGY: 600000 3.8862 4.3225 3.1505 0.0000 -10817.1008 1356.5239 0.0000 0.0000 1797.5801 -7651.6376 301.1765 -9449.2177 -7609.5251 300.5699 -964.7240 -931.1093 30522.6948 25.0584 79.4523
ENERGY: 900000 1.8863 2.7883 4.3717 0.0000 -10763.1063 1386.3223 0.0000 0.0000 1759.8562 -7607.8815 294.8560 -9367.7377 -7610.6850 300.4285 -532.4184 -456.0765 30926.8818 -83.3310 -27.5731
ENERGY: 1200000 3.5579 3.8249 2.2718 0.0000 -10894.6618 1517.0183 0.0000 0.0000 1793.0774 -7574.9114 300.4220 -9367.9888 -7610.1614 300.3213 667.6641 848.8282 30345.8911 -4.9058 59.9601
ENERGY: 1500000 3.9367 6.4993 1.9296 0.0000 -10999.1014 1523.8119 0.0000 0.0000 1821.9267 -7640.9973 305.2556 -9462.9240 -7615.2160 300.3110 332.1626 355.6046 30733.1855 37.3076 103.9759
TCL: Running FEP window  10: Lambda1 0.44999999999999996 Lambda2 0.49999999999999994 [dLambda 0.04999999999999999]
TCL: Setting parameter firsttimestep to 0
TCL: Setting parameter alchLambda to 0.44999999999999996
Info: NONBONDED TABLE R-SQUARED SPACING: 0.0625
Info: NONBONDED TABLE SIZE: 705 POINTS
TCL: Setting parameter alchLambda2 to 0.49999999999999994
Info: NONBONDED TABLE R-SQUARED SPACING: 0.0625
Info: NONBONDED TABLE SIZE: 705 POINTS
TCL: Running for 1500000 steps
ETITLE: TS BOND ANGLE DIHED IMPRP ELECT VDW BOUNDARY MISC KINETIC TOTAL TEMP POTENTIAL TOTALAVG TEMPAVG PRESSURE GPRESSURE VOLUME PRESSAVG GPRESSAVG
ENERGY: 0 3.9366 6.4993 1.9296 0.0000 -10999.1028 1523.3430 0.0000 0.0000 1821.0543 -7642.3400 305.1094 -9463.3943 -7642.3400 305.1094 284.8448 358.1908 30733.1855 284.8448 358.1908
ENERGY: 300000 3.6863 2.6006 3.2676 0.0000 -10842.7132 1511.1024 0.0000 0.0000 1763.8654 -7558.1910 295.5277 -9322.0564 -7578.8426 302.6280 180.6777 290.8435 31300.9321 93.5868 153.2599
ENERGY: 600000 4.1536 3.2584 7.0103 0.0000 -10841.7189 1477.8981 0.0000 0.0000 1745.0385 -7604.3601 292.3733 -9349.3985 -7619.3151 298.6017 15.5222 85.4861 30913.8576 49.5356 105.4562
ENERGY: 900000 3.9630 4.1214 4.4768 0.0000 -10911.9881 1461.8957 0.0000 0.0000 1724.3729 -7713.1584 288.9109 -9437.5313 -7618.1170 298.1666 -150.4282 -122.4739 30578.2421 11.8058 61.0209
ENERGY: 1200000 3.7359 3.5424 3.6202 0.0000 -10864.8730 1485.7447 0.0000 0.0000 1809.1520 -7559.0779 303.1153 -9368.2298 -7604.8166 299.3742 -120.3295 -12.7098 31224.7796 -61.1548 -4.4588
ENERGY: 1500000 4.0721 4.2766 5.0693 0.0000 -10838.1401 1465.2172 0.0000 0.0000 1750.3208 -7609.1841 293.2584 -9359.5050 -7606.2308 299.2279 117.1466 155.9431 30682.0954 -78.3094 -25.6322
TCL: Running FEP window  11: Lambda1 0.49999999999999994 Lambda2 0.5499999999999999 [dLambda 0.04999999999999999]
TCL: Setting parameter firsttimestep to 0
TCL: Setting parameter alchLambda to 0.49999999999999994
Info: NONBONDED TABLE R-SQUARED SPACING: 0.0625
Info: NONBONDED TABLE SIZE: 705 POINTS
TCL: Setting parameter alchLambda2 to 0.5499999999999999
Info: NONBONDED TABLE R-SQUARED SPACING: 0.0625
Info: NONBONDED TABLE SIZE: 705 POINTS
TCL: Running for 1500000 steps
ETITLE: TS BOND ANGLE DIHED IMPRP ELECT VDW BOUNDARY MISC KINETIC TOTAL TEMP POTENTIAL TOTALAVG TEMPAVG PRESSURE GPRESSURE VOLUME PRESSAVG GPRESSAVG
ENERGY: 0 4.0721 4.2766 5.0693 0.0000 -10838.1403 1464.9668 0.0000 0.0000 1749.4197 -7610.3358 293.1074 -9359.7555 -7610.3358 293.1074 80.6171 159.8948 30682.0954 80.6171 159.8948
ENERGY: 300000 3.8759 4.3042 3.3512 0.0000 -10828.6302 1401.1258 0.0000 0.0000 1755.4014 -7660.5717 294.1096 -9415.9731 -7623.2383 295.9453 -834.9808 -716.6064 30850.1105 -131.7966 -29.8347
ENERGY: 600000 1.3412 2.8170 3.4573 0.0000 -10898.7268 1524.1704 0.0000 0.0000 1782.0128 -7584.9279 298.5682 -9366.9408 -7606.0902 297.6500 844.3379 867.0134 30444.0226 24.7004 98.0138
ENERGY: 900000 1.4898 1.6480 1.5501 0.0000 -10730.5158 1366.8463 0.0000 0.0000 1789.3423 -7569.6393 299.7962 -9358.9816 -7604.2553 297.1964 -797.1049 -749.0465 31145.0641 95.9385 160.0477
ENERGY: 1200000 2.0454 4.2364 3.9743 0.0000 -10909.7166 1572.5508 0.0000 0.0000 1800.1633 -7526.7463 301.6092 -9326.9096 -7586.6165 298.5567 776.9401 889.3967 31129.4670 98.6586 168.1118
ENERGY: 1500000 5.2886 2.0831 4.2064 0.0000 -10821.8454 1432.7737 0.0000 0.0000 1773.5592 -7603.9344 297.1518 -9377.4936 -7589.5087 298.3030 -320.7194 -221.7047 30680.6891 67.4373 137.7772
TCL: Running FEP window  12: Lambda1 0.5499999999999999 Lambda2 0.6    [dLambda 0.050000000000000044]
TCL: Setting parameter firsttimestep to 0
TCL: Setting parameter alchLambda to 0.5499999999999999
Info: NONBONDED TABLE R-SQUARED SPACING: 0.0625
Info: NONBONDED TABLE SIZE: 705 POINTS
TCL: Setting parameter alchLambda2 to 0.6
Info: NONBONDED TABLE R-SQUARED SPACING: 0.0625
Info: NONBONDED TABLE SIZE: 705 POINTS
TCL: Running for 1500000 steps
ETITLE: TS BOND ANGLE DIHED IMPRP ELECT VDW BOUNDARY MISC KINETIC TOTAL TEMP POTENTIAL TOTALAVG TEMPAVG PRESSURE GPRESSURE VOLUME PRESSAVG GPRESSAVG
ENERGY: 0 5.2886 2.0831 4.2064 0.0000 -10821.7250 1433.2465 0.0000 0.0000 1772.6627 -7604.2378 297.0016 -9376.9004 -7604.2378 297.0016 -299.9843 -211.8808 30680.6891 -299.9843 -211.8808
ENERGY: 300000 1.3651 4.3924 5.3341 0.0000 -10939.5121 1501.3393 0.0000 0.0000 1804.7825 -7622.2987 302.3832 -9427.0812 -7616.1008 298.0866 175.4913 249.0567 30711.5131 75.7638 165.0383
ENERGY: 600000 3.4219 4.1968 4.9221 0.0000 -10814.2735 1424.2864 0.0000 0.0000 1751.1865 -7626.2598 293.4034 -9377.4463 -7611.4724 297.8614 -188.4818 -117.9553 30896.3657 231.5132 323.8893
ENERGY: 900000 2.9378 2.0322 2.2318 0.0000 -10878.9093 1474.2992 0.0000 0.0000 1752.7380 -7644.6704 293.6633 -9397.4083 -7608.2351 297.9570 -110.9246 -22.5834 30750.4690 215.1479 296.0321
ENERGY: 1200000 1.4642 1.3635 3.4318 0.0000 -10881.4701 1491.5610 0.0000 0.0000 1788.7027 -7594.9468 299.6891 -9383.6495 -7596.0995 298.4453 175.1168 230.1512 30898.2035 227.2010 295.5464
ENERGY: 1500000 3.0674 1.7625 2.7258 0.0000 -11038.6414 1562.0917 0.0000 0.0000 1732.5136 -7736.4804 290.2748 -9468.9939 -7603.3960 298.4766 258.2483 333.3153 31160.4771 247.3846 318.9300
TCL: Running FEP window  13: Lambda1 0.6    Lambda2 0.65   [dLambda 0.050000000000000044]
TCL: Setting parameter firsttimestep to 0
TCL: Setting parameter alchLambda to 0.6
Info: NONBONDED TABLE R-SQUARED SPACING: 0.0625
Info: NONBONDED TABLE SIZE: 705 POINTS
TCL: Setting parameter alchLambda2 to 0.65
Info: NONBONDED TABLE R-SQUARED SPACING: 0.0625
Info: NONBONDED TABLE SIZE: 705 POINTS
TCL: Running for 1500000 steps
ETITLE: TS BOND ANGLE DIHED IMPRP ELECT VDW BOUNDARY MISC KINETIC TOTAL TEMP POTENTIAL TOTALAVG TEMPAVG PRESSURE GPRESSURE VOLUME PRESSAVG GPRESSAVG
ENERGY: 0 3.0674 1.7624 2.7258 0.0000 -11038.4913 1562.7944 0.0000 0.0000 1731.6111 -7736.5300 290.1236 -9468.1412 -7736.5300 290.1236 267.0121 345.1774 31160.4771 267.0121 345.1774
ENERGY: 300000 3.3371 4.0738 1.4294 0.0000 -10995.2696 1502.6510 0.0000 0.0000 1819.9944 -7663.7839 304.9319 -9483.7783 -7628.2682 301.2390 336.0567 397.8247 30382.8319 307.0542 369.5952
ENERGY: 600000 3.9399 2.9830 3.4073 0.0000 -10908.0971 1512.8521 0.0000 0.0000 1756.6698 -7628.2449 294.3221 -9384.9148 -7613.9743 301.1984 258.7489 295.3761 30830.0943 283.1471 353.0871
ENERGY: 900000 3.8212 4.5194 4.9584 0.0000 -10890.0221 1463.3956 0.0000 0.0000 1855.9664 -7557.3611 310.9588 -9413.3275 -7605.0428 301.0126 -17.9980 17.3964 31055.4063 265.3475 330.2982
ENERGY: 1200000 5.2960 2.6536 4.8468 0.0000 -10917.1950 1467.6500 0.0000 0.0000 1776.5586 -7660.1899 297.6544 -9436.7485 -7605.0110 300.6878 -233.8239 -160.3896 30856.4291 161.6477 220.8976
ENERGY: 1500000 1.6173 2.7649 4.3422 0.0000 -10974.2348 1547.9424 0.0000 0.0000 1810.3657 -7607.2023 303.3186 -9417.5680 -7605.5691 301.2058 634.4764 743.2044 30581.9546 185.4790 242.8002
TCL: Running FEP window  14: Lambda1 0.65   Lambda2 0.7000000000000001 [dLambda 0.050000000000000044]
TCL: Setting parameter firsttimestep to 0
TCL: Setting parameter alchLambda to 0.65
Info: NONBONDED TABLE R-SQUARED SPACING: 0.0625
Info: NONBONDED TABLE SIZE: 705 POINTS
TCL: Setting parameter alchLambda2 to 0.7000000000000001
Info: NONBONDED TABLE R-SQUARED SPACING: 0.0625
Info: NONBONDED TABLE SIZE: 705 POINTS
TCL: Running for 1500000 steps
ETITLE: TS BOND ANGLE DIHED IMPRP ELECT VDW BOUNDARY MISC KINETIC TOTAL TEMP POTENTIAL TOTALAVG TEMPAVG PRESSURE GPRESSURE VOLUME PRESSAVG GPRESSAVG
ENERGY: 0 1.6173 2.7649 4.3422 0.0000 -10974.2703 1547.6234 0.0000 0.0000 1809.4556 -7608.4669 303.1661 -9417.9225 -7608.4669 303.1661 664.2207 751.9013 30581.9546 664.2207 751.9013
ENERGY: 300000 2.2573 2.7766 1.9283 0.0000 -10800.4227 1372.4608 0.0000 0.0000 1734.5860 -7686.4137 290.6221 -9420.9997 -7634.2133 297.8724 -950.5107 -890.0861 31038.5243 139.4764 224.7408
ENERGY: 600000 1.4365 2.8793 6.1381 0.0000 -10958.2289 1469.7293 0.0000 0.0000 1817.1252 -7660.9206 304.4511 -9478.0458 -7620.1361 300.8689 -295.3764 -269.6552 31034.9552 77.8066 132.1135
ENERGY: 900000 3.6770 5.6578 2.7279 0.0000 -10846.8753 1459.7904 0.0000 0.0000 1864.2149 -7510.8074 312.3408 -9375.0222 -7606.7413 303.1341 171.6909 236.3540 30670.7298 68.0929 118.7043
ENERGY: 1200000 4.6954 4.6090 2.1373 0.0000 -10789.6820 1410.4606 0.0000 0.0000 1768.8175 -7598.9622 296.3574 -9367.7797 -7607.0520 302.8159 -383.4601 -312.6412 30883.6983 65.6561 121.2770
ENERGY: 1500000 3.1257 4.2719 3.1860 0.0000 -11003.5333 1530.7617 0.0000 0.0000 1772.8732 -7689.3149 297.0369 -9462.1880 -7612.6382 302.4066 584.6006 670.1571 30362.8694 20.3227 74.4222
TCL: Running FEP window  15: Lambda1 0.7000000000000001 Lambda2 0.7500000000000001 [dLambda 0.050000000000000044]
TCL: Setting parameter firsttimestep to 0
TCL: Setting parameter alchLambda to 0.7000000000000001
Info: NONBONDED TABLE R-SQUARED SPACING: 0.0625
Info: NONBONDED TABLE SIZE: 705 POINTS
TCL: Setting parameter alchLambda2 to 0.7500000000000001
Info: NONBONDED TABLE R-SQUARED SPACING: 0.0625
Info: NONBONDED TABLE SIZE: 705 POINTS
TCL: Running for 1500000 steps
ETITLE: TS BOND ANGLE DIHED IMPRP ELECT VDW BOUNDARY MISC KINETIC TOTAL TEMP POTENTIAL TOTALAVG TEMPAVG PRESSURE GPRESSURE VOLUME PRESSAVG GPRESSAVG
ENERGY: 0 3.1257 4.2719 3.1860 0.0000 -11004.0817 1530.8627 0.0000 0.0000 1771.9881 -7690.6473 296.8886 -9462.6355 -7690.6473 296.8886 594.8672 681.7009 30362.8694 594.8672 681.7009
ENERGY: 300000 4.4219 0.8690 2.0937 0.0000 -10821.6813 1420.5061 0.0000 0.0000 1778.8569 -7614.9337 298.0395 -9393.7905 -7614.7273 300.7185 -376.8146 -297.5720 30757.7361 37.3981 124.0652
ENERGY: 600000 2.9526 2.8909 3.5591 0.0000 -10738.9555 1379.2850 0.0000 0.0000 1805.1235 -7545.1444 302.4403 -9350.2679 -7605.9005 300.6908 -640.4655 -576.5936 30995.2685 -108.1881 -18.9818
ENERGY: 900000 1.3109 5.4681 7.1471 0.0000 -10785.4957 1407.3708 0.0000 0.0000 1784.5908 -7579.6081 299.0001 -9364.1989 -7596.0405 299.8863 -302.1397 -284.5748 31035.2429 -141.2788 -60.3464
ENERGY: 1200000 1.9015 2.3426 2.5095 0.0000 -10979.0812 1567.5263 0.0000 0.0000 1802.8485 -7601.9527 302.0591 -9404.8013 -7588.0721 300.5393 1018.3027 1039.0324 30340.3269 -120.1728 -54.2234
ENERGY: 1500000 3.0377 3.8842 5.0272 0.0000 -10811.3615 1437.9608 0.0000 0.0000 1780.8660 -7580.5856 298.3761 -9361.4516 -7590.8757 300.6608 -324.7209 -272.4687 31274.2317 -33.2264 27.9944
TCL: Running FEP window  16: Lambda1 0.7500000000000001 Lambda2 0.8000000000000002 [dLambda 0.050000000000000044]
TCL: Setting parameter firsttimestep to 0
TCL: Setting parameter alchLambda to 0.7500000000000001
Info: NONBONDED TABLE R-SQUARED SPACING: 0.0625
Info: NONBONDED TABLE SIZE: 705 POINTS
TCL: Setting parameter alchLambda2 to 0.8000000000000002
Info: NONBONDED TABLE R-SQUARED SPACING: 0.0625
Info: NONBONDED TABLE SIZE: 705 POINTS
TCL: Running for 1500000 steps
ETITLE: TS BOND ANGLE DIHED IMPRP ELECT VDW BOUNDARY MISC KINETIC TOTAL TEMP POTENTIAL TOTALAVG TEMPAVG PRESSURE GPRESSURE VOLUME PRESSAVG GPRESSAVG
ENERGY: 0 3.0377 3.8842 5.0272 0.0000 -10811.2062 1437.6373 0.0000 0.0000 1779.9656 -7581.6542 298.2252 -9361.6199 -7581.6542 298.2252 -340.3947 -268.8732 31274.2317 -340.3947 -268.8732
ENERGY: 300000 1.5839 4.0796 4.3344 0.0000 -10699.4311 1376.5503 0.0000 0.0000 1761.3794 -7551.5034 295.1112 -9312.8828 -7580.2688 300.0168 -638.0237 -560.7655 31139.4066 -478.7430 -424.4786
ENERGY: 600000 3.0957 3.0243 4.8157 0.0000 -10766.4692 1438.7138 0.0000 0.0000 1801.9323 -7514.8873 301.9056 -9316.8196 -7576.7130 299.8858 -58.5073 23.2852 31230.4559 -348.2230 -293.7585
ENERGY: 900000 3.5655 3.6844 1.6040 0.0000 -10933.5608 1453.2057 0.0000 0.0000 1759.6771 -7711.8241 294.8260 -9471.5012 -7594.5190 299.0898 -294.3108 -259.5135 30856.9621 -250.8698 -200.4228
ENERGY: 1200000 5.4455 1.9722 4.0885 0.0000 -10728.3716 1429.5022 0.0000 0.0000 1815.4075 -7471.9556 304.1633 -9287.3632 -7597.8778 298.3627 -271.8522 -185.0150 31130.6736 -238.0035 -184.0195
ENERGY: 1500000 2.0885 2.7262 1.8789 0.0000 -10851.4924 1485.9455 0.0000 0.0000 1796.0845 -7562.7689 300.9259 -9358.8534 -7601.1841 299.2547 39.9148 -0.7691 31174.7512 -201.6344 -152.9062
TCL: Running FEP window  17: Lambda1 0.8000000000000002 Lambda2 0.8500000000000002 [dLambda 0.050000000000000044]
TCL: Setting parameter firsttimestep to 0
TCL: Setting parameter alchLambda to 0.8000000000000002
Info: NONBONDED TABLE R-SQUARED SPACING: 0.0625
Info: NONBONDED TABLE SIZE: 705 POINTS
TCL: Setting parameter alchLambda2 to 0.8500000000000002
Info: NONBONDED TABLE R-SQUARED SPACING: 0.0625
Info: NONBONDED TABLE SIZE: 705 POINTS
TCL: Running for 1500000 steps
ETITLE: TS BOND ANGLE DIHED IMPRP ELECT VDW BOUNDARY MISC KINETIC TOTAL TEMP POTENTIAL TOTALAVG TEMPAVG PRESSURE GPRESSURE VOLUME PRESSAVG GPRESSAVG
ENERGY: 0 2.0885 2.7262 1.8789 0.0000 -10852.3007 1486.4908 0.0000 0.0000 1795.2096 -7563.9068 300.7793 -9359.1164 -7563.9068 300.7793 -75.8349 11.0486 31174.7512 -75.8349 11.0486
ENERGY: 300000 3.5817 5.4838 2.3661 0.0000 -10795.2458 1462.0303 0.0000 0.0000 1751.8008 -7569.9831 293.5063 -9321.7839 -7556.1885 298.8238 -55.5433 -2.8622 31209.6263 -115.4250 -60.9955
ENERGY: 600000 4.0248 5.3524 4.9208 0.0000 -10719.6585 1389.2214 0.0000 0.0000 1817.9842 -7498.1549 304.5951 -9316.1391 -7547.7211 300.6103 -681.7108 -627.7031 31249.2681 -181.5024 -142.5107
ENERGY: 900000 5.9064 3.4170 2.1344 0.0000 -10747.2452 1442.9412 0.0000 0.0000 1774.0200 -7518.8263 297.2291 -9292.8462 -7565.5318 300.1539 -120.2506 -45.2442 31109.4098 -162.2072 -115.4333
ENERGY: 1200000 8.1781 3.8198 2.9756 0.0000 -10835.1554 1466.9269 0.0000 0.0000 1799.3542 -7553.9009 301.4737 -9353.2550 -7577.3201 299.6573 -430.7578 -344.0474 31306.9040 -123.4288 -70.7875
ENERGY: 1500000 3.8433 4.7446 4.5255 0.0000 -10744.5107 1406.2611 0.0000 0.0000 1828.1200 -7497.0162 306.2933 -9325.1362 -7572.5099 300.1863 -317.5469 -221.5447 31117.3688 -148.4974 -95.5798
TCL: Running FEP window  18: Lambda1 0.8500000000000002 Lambda2 0.9000000000000002 [dLambda 0.050000000000000044]
TCL: Setting parameter firsttimestep to 0
TCL: Setting parameter alchLambda to 0.8500000000000002
Info: NONBONDED TABLE R-SQUARED SPACING: 0.0625
Info: NONBONDED TABLE SIZE: 705 POINTS
TCL: Setting parameter alchLambda2 to 0.9000000000000002
Info: NONBONDED TABLE R-SQUARED SPACING: 0.0625
Info: NONBONDED TABLE SIZE: 705 POINTS
TCL: Running for 1500000 steps
ETITLE: TS BOND ANGLE DIHED IMPRP ELECT VDW BOUNDARY MISC KINETIC TOTAL TEMP POTENTIAL TOTALAVG TEMPAVG PRESSURE GPRESSURE VOLUME PRESSAVG GPRESSAVG
ENERGY: 0 3.8433 4.7446 4.5255 0.0000 -10745.5998 1406.8080 0.0000 0.0000 1827.2182 -7498.4603 306.1422 -9325.6784 -7498.4603 306.1422 -306.7399 -206.7191 31117.3688 -306.7399 -206.7191
ENERGY: 300000 1.3976 3.1042 1.7783 0.0000 -10798.9536 1368.4524 0.0000 0.0000 1810.9206 -7613.3004 303.4116 -9424.2210 -7602.9038 300.4602 -899.8239 -865.0513 31126.4881 -519.7192 -442.4604
ENERGY: 600000 2.1910 5.4240 3.3183 0.0000 -10865.6046 1477.3196 0.0000 0.0000 1770.4402 -7606.9115 296.6293 -9377.3517 -7601.7842 300.3319 357.8642 387.4147 30622.2344 -254.4484 -185.9673
ENERGY: 900000 2.5371 2.1566 4.9911 0.0000 -10915.6392 1509.0519 0.0000 0.0000 1840.1710 -7556.7316 308.3124 -9396.9026 -7582.9744 300.7849 556.9889 642.6140 30703.5333 -50.3469 15.5054
ENERGY: 1200000 1.7785 2.1676 3.2676 0.0000 -10956.9098 1542.2880 0.0000 0.0000 1765.2270 -7642.1811 295.7558 -9407.4081 -7597.1695 300.8603 600.4755 701.0188 30625.2070 11.0712 84.4092
ENERGY: 1500000 7.1515 4.1575 4.5597 0.0000 -10730.3748 1344.9304 0.0000 0.0000 1788.5426 -7581.0332 299.6623 -9369.5758 -7590.0935 301.0840 -1141.4180 -1135.2398 31225.2571 -81.2503 -11.1969
TCL: Running FEP window  19: Lambda1 0.9000000000000002 Lambda2 0.9500000000000003 [dLambda 0.050000000000000044]
TCL: Setting parameter firsttimestep to 0
TCL: Setting parameter alchLambda to 0.9000000000000002
Info: NONBONDED TABLE R-SQUARED SPACING: 0.0625
Info: NONBONDED TABLE SIZE: 705 POINTS
TCL: Setting parameter alchLambda2 to 0.9500000000000003
Info: NONBONDED TABLE R-SQUARED SPACING: 0.0625
Info: NONBONDED TABLE SIZE: 705 POINTS
TCL: Running for 1500000 steps
ETITLE: TS BOND ANGLE DIHED IMPRP ELECT VDW BOUNDARY MISC KINETIC TOTAL TEMP POTENTIAL TOTALAVG TEMPAVG PRESSURE GPRESSURE VOLUME PRESSAVG GPRESSAVG
ENERGY: 0 7.1515 4.1575 4.5597 0.0000 -10730.8503 1344.7251 0.0000 0.0000 1787.6588 -7582.5978 299.5142 -9370.2566 -7582.5978 299.5142 -1194.7243 -1126.9324 31225.2571 -1194.7243 -1126.9324
ENERGY: 300000 3.5289 1.4409 4.5291 0.0000 -10952.9588 1532.6229 0.0000 0.0000 1832.4611 -7578.3759 307.0206 -9410.8370 -7604.9631 300.8078 718.1376 796.5275 30501.5292 -260.3827 -202.7492
ENERGY: 600000 2.3785 2.3932 2.0187 0.0000 -10762.2874 1390.6275 0.0000 0.0000 1766.6585 -7598.2111 295.9957 -9364.8696 -7605.1641 300.2310 -551.1856 -436.8441 31095.2407 -233.7493 -171.0557
ENERGY: 900000 1.5394 2.4844 3.1610 0.0000 -10921.4025 1499.4862 0.0000 0.0000 1812.6371 -7602.0943 303.6992 -9414.7315 -7613.8514 298.9885 428.0276 460.3938 30837.4385 -97.1356 -37.2179
ENERGY: 1200000 1.7735 1.9237 2.7287 0.0000 -10796.3175 1390.7150 0.0000 0.0000 1806.1470 -7593.0296 302.6118 -9399.1766 -7599.6692 299.8336 -780.1307 -707.6879 31188.0162 -90.0316 -28.8238
ENERGY: 1500000 4.9525 5.3786 2.4944 0.0000 -10794.2472 1432.2958 0.0000 0.0000 1773.4535 -7575.6723 297.1341 -9349.1259 -7601.0373 299.5796 -321.3075 -206.5741 31312.1997 -129.3534 -60.9425
TCL: Running FEP window  20: Lambda1 0.9500000000000003 Lambda2 1.0    [dLambda 0.04999999999999971]
TCL: Setting parameter firsttimestep to 0
TCL: Setting parameter alchLambda to 0.9500000000000003
Info: NONBONDED TABLE R-SQUARED SPACING: 0.0625
Info: NONBONDED TABLE SIZE: 705 POINTS
TCL: Setting parameter alchLambda2 to 1.0
Info: NONBONDED TABLE R-SQUARED SPACING: 0.0625
Info: NONBONDED TABLE SIZE: 705 POINTS
TCL: Running for 1500000 steps
ETITLE: TS BOND ANGLE DIHED IMPRP ELECT VDW BOUNDARY MISC KINETIC TOTAL TEMP POTENTIAL TOTALAVG TEMPAVG PRESSURE GPRESSURE VOLUME PRESSAVG GPRESSAVG
ENERGY: 0 4.9525 5.3786 2.4944 0.0000 -10794.8627 1432.7522 0.0000 0.0000 1772.5382 -7576.7467 296.9808 -9349.2850 -7576.7467 296.9808 -279.1406 -185.8997 31312.1997 -279.1406 -185.8997
ENERGY: 300000 4.1785 2.1889 4.0209 0.0000 -10928.0759 1517.6020 0.0000 0.0000 1854.5105 -7545.5751 310.7149 -9400.0856 -7586.0848 299.6602 404.6182 432.7057 30851.2699 -330.9388 -272.1252
ENERGY: 600000 5.5450 3.9056 2.3344 0.0000 -10843.0845 1483.3853 0.0000 0.0000 1768.0510 -7579.8632 296.2290 -9347.9142 -7611.1225 299.7774 236.0455 314.1035 31220.7602 -196.9779 -145.8447
ENERGY: 900000 3.6420 10.3332 3.7893 0.0000 -10830.3919 1485.0251 0.0000 0.0000 1818.9633 -7508.6389 304.7591 -9327.6022 -7609.4230 299.2302 267.9547 356.3374 30921.4067 -10.0029 45.8025
ENERGY: 1200000 2.1225 2.3837 3.9591 0.0000 -11120.7924 1596.6400 0.0000 0.0000 1834.3050 -7681.3821 307.3295 -9515.6871 -7613.0958 299.6340 1038.5527 1052.3000 30402.9336 26.0283 76.8609
ENERGY: 1500000 2.7890 3.5471 3.5740 0.0000 -10952.1143 1507.5190 0.0000 0.0000 1788.5558 -7646.1295 299.6645 -9434.6852 -7616.0611 300.0471 211.2452 303.2049 30591.9316 43.3744 94.1076
TCL: Exiting due to exit command.
