Info: SIMULATION PARAMETERS:
Info: TIMESTEP               2
Info: NUMBER OF STEPS        0
Info: STEPS PER CYCLE        10
Info: PERIODIC CELL BASIS 1  31.7169 0 0
Info: PERIODIC CELL BASIS 2  0 29.5473 0
Info: PERIODIC CELL BASIS 3  0 0 31.8878
Info: PERIODIC CELL CENTER   0 0 0
Info: WRAPPING WATERS AROUND PERIODIC BOUNDARIES ON OUTPUT.
Info: WRAPPING ALL CLUSTERS AROUND PERIODIC BOUNDARIES ON OUTPUT.
Info: FIRST LDB TIMESTEP     50
Info: LAST LDB TIMESTEP     -1
Info: HOM BACKGROUND SCALING 1
Info: PME BACKGROUND SCALING 1
Info: MIN ATOMS PER PATCH    40
Info: EMPTY PATCH LOAD       40 ATOMS
Info: VELOCITY FILE          mobley_2850833_equil.vel
Info: CENTER OF MASS MOVING INITIALLY? NO
Info: DIELECTRIC             1
Info: EXCLUDE                SCALED ONE-FOUR
Info: 1-4 ELECTROSTATICS SCALED BY 0.833333
Info: MODIFIED 1-4 VDW PARAMETERS WILL BE USED
Info: DCD FILENAME           mobley_2850833_prod.dcd
Info: DCD FREQUENCY          100000
Info: DCD FIRST STEP         100000
Info: DCD FILE WILL CONTAIN UNIT CELL DATA
Info: XST FILENAME           mobley_2850833_prod.xst
Info: XST FREQUENCY          100000
Info: NO VELOCITY DCD OUTPUT
Info: NO FORCE DCD OUTPUT
Info: OUTPUT FILENAME        mobley_2850833_prod
Info: BINARY OUTPUT FILES WILL BE USED
Info: RESTART FILENAME       mobley_2850833_prod.restart
Info: RESTART FREQUENCY      100000
Info: BINARY RESTART FILES WILL BE USED
Info: CUTOFF                 9
Info: PAIRLIST DISTANCE      11
Info: PAIRLIST SHRINK RATE   0.01
Info: PAIRLIST GROW RATE     0.01
Info: PAIRLIST TRIGGER       0.3
Info: PAIRLISTS PER CYCLE    2
Info: PAIRLISTS ENABLED
Info: MARGIN                 2
Info: HYDROGEN GROUP CUTOFF  2.5
Info: PATCH DIMENSION        15.5
Info: ENERGY OUTPUT STEPS    100000
Info: ENERGY EVALUATION STEPS    100000
Info: OUTPUT ENERGY PRECISION 4
Info: CROSSTERM ENERGY INCLUDED IN DIHEDRAL
Info: TIMING OUTPUT STEPS    1000000
Info: PRESSURE OUTPUT STEPS  100000
Info: ALCHEMICAL FEP ON
Info: FEP CURRENT LAMBDA VALUE     1
Info: FEP COMPARISON LAMBDA VALUE  0.95
Info: FEP INTRA-ALCHEMICAL NON-BONDED INTERACTIONS WILL BE RETAINED
Info: FEP INTRA-ALCHEMICAL BONDED INTERACTIONS WILL BE RETAINED
Info: FEP VDW SHIFTING COEFFICIENT 5
Info: FEP ELEC. ACTIVE FOR ANNIHILATED PARTICLES BETWEEN LAMBDA = 0 AND LAMBDA = 0.5
Info: FEP ELEC. ACTIVE FOR EXNIHILATED PARTICLES BETWEEN LAMBDA = 0.5 AND LAMBDA = 1
Info: FEP VDW ACTIVE FOR ANNIHILATED PARTICLES BETWEEN LAMBDA = 0 AND LAMBDA = 1
Info: FEP VDW ACTIVE FOR EXNIHILATED PARTICLES BETWEEN LAMBDA = 0 AND LAMBDA = 1
Info: FEP BOND ACTIVE FOR ANNIHILATED PARTICLES BETWEEN LAMBDA = 1 AND LAMBDA = 1
Info: FEP BOND ACTIVE FOR EXNIHILATED PARTICLES BETWEEN LAMBDA = 0 AND LAMBDA = 0
Info: LANGEVIN DYNAMICS ACTIVE
Info: LANGEVIN TEMPERATURE   300
Info: LANGEVIN USING BBK INTEGRATOR
Info: LANGEVIN DAMPING COEFFICIENT IS 1 INVERSE PS
Info: LANGEVIN DYNAMICS APPLIED TO HYDROGENS
Info: LANGEVIN PISTON PRESSURE CONTROL ACTIVE
Info:        TARGET PRESSURE IS 1.01325 BAR
Info:     OSCILLATION PERIOD IS 50 FS
Info:             DECAY TIME IS 25 FS
Info:     PISTON TEMPERATURE IS 300 K
Info:       PRESSURE CONTROL IS GROUP-BASED
Info:    INITIAL STRAIN RATE IS -0.000323469 -0.000323469 -0.000323469
Info:       CELL FLUCTUATION IS ISOTROPIC
Info: PARTICLE MESH EWALD (PME) ACTIVE
Info: PME TOLERANCE               1e-06
Info: PME EWALD COEFFICIENT       0.348832
Info: PME INTERPOLATION ORDER     4
Info: PME GRID DIMENSIONS         32 32 32
Info: PME MAXIMUM GRID SPACING    1
Info: PME CALCULATION WILL BE PERFORMED ON GPU
Info: FULL ELECTROSTATIC EVALUATION FREQUENCY      2
Info: USING VERLET I (r-RESPA) MTS SCHEME.
Info: C1 SPLITTING OF LONG RANGE ELECTROSTATICS
Info: PLACING ATOMS IN PATCHES BY HYDROGEN GROUPS
Info: RIGID BONDS TO HYDROGEN : ALL
Info:         ERROR TOLERANCE : 1e-08
Info:          MAX ITERATIONS : 100
Info: RIGID WATER USING SETTLE ALGORITHM
Info: RANDOM NUMBER SEED     1743744166
Info: USE HYDROGEN BONDS?    NO
Info: Using AMBER format force field!
Info: AMBER PARM FILE        mobley_2850833.prmtop
Info: COORDINATE PDB         mobley_2850833.pdb
Info: Exclusions will be read from PARM file!
Info: SCNB (VDW SCALING)     2
Info: USING ARITHMETIC MEAN TO COMBINE L-J SIGMA PARAMETERS
Info: BINARY COORDINATES     mobley_2850833_equil.coor
Info: SUMMARY OF PARAMETERS:
Info: 9 BONDS
Info: 8 ANGLES
Info:   8 HARMONIC
Info:   0 COSINE-BASED
Info: 5 DIHEDRAL
Info: 0 IMPROPER
Info: 0 CROSSTERM
Info: 0 VDW
Info: 28 VDW_PAIRS
Info: 0 NBTHOLE_PAIRS
Info: To read alchdata from file: mobley_2850833.pdb
Info: To read alchflag data from column: 5
Info: STRUCTURE SUMMARY:
Info: 2931 ATOMS
Info: 2931 BONDS
Info: 22 ANGLES
Info: 37 DIHEDRALS
Info: 0 IMPROPERS
Info: 0 CROSSTERMS
Info: 2980 EXCLUSIONS
Info: 2922 RIGID BONDS
Info: ALCH: 0 ATOMS TO DISAPPEAR IN FINAL STATE
Info: ALCH: 15 ATOMS TO APPEAR IN FINAL STATE
Info: 5871 DEGREES OF FREEDOM
Info: 981 HYDROGEN GROUPS
Info: 3 ATOMS IN LARGEST HYDROGEN GROUP
Info: 981 MIGRATION GROUPS
Info: 3 ATOMS IN LARGEST MIGRATION GROUP
Info: TOTAL MASS = 17633.7 amu
Info: TOTAL CHARGE = -0.000199957 e
Info: MASS DENSITY = 0.979869 g/cm^3
Info: ATOM DENSITY = 0.0980803 atoms/A^3
Info: ADDED 0 IMPLICIT EXCLUSIONS
Info: NONBONDED TABLE R-SQUARED SPACING: 0.0625
Info: NONBONDED TABLE SIZE: 705 POINTS
Info: REMOVING COM VELOCITY -0.0424184 -0.135391 0.00717946
Info: Use 3D box decompostion in PME FFT.
Info: Updated CUDA force table with 4096 elements.
Info: Updated CUDA LJ table with 7 x 7 elements.
Info: Found 17 unique exclusion lists needing 36 bytes
TCL: Running for 1500000 steps
ETITLE: TS BOND ANGLE DIHED IMPRP ELECT VDW BOUNDARY MISC KINETIC TOTAL TEMP POTENTIAL TOTALAVG TEMPAVG PRESSURE GPRESSURE VOLUME PRESSAVG GPRESSAVG
ENERGY: 0 5.1591 2.1596 1.2143 0.0000 -10616.0265 1428.9494 0.0000 0.0000 1735.1448 -7443.3992 297.4500 -9178.5440 -7443.3992 297.4500 82.9763 174.5527 29883.6672 82.9763 174.5527
ENERGY: 300000 3.5470 3.5615 5.7151 0.0000 -10654.1103 1432.9281 0.0000 0.0000 1760.5301 -7447.8286 301.8017 -9208.3586 -7428.8984 301.2365 16.5577 12.4066 30591.9476 -218.2353 -159.2691
ENERGY: 600000 4.6061 2.4763 5.4437 0.0000 -10685.8349 1457.3115 0.0000 0.0000 1785.0553 -7430.9419 306.0060 -9215.9973 -7443.4039 300.8873 183.7175 291.0630 30070.8964 -183.0582 -127.5359
ENERGY: 900000 2.3565 2.9608 5.2563 0.0000 -10783.7837 1473.4895 0.0000 0.0000 1730.9883 -7568.7322 296.7375 -9299.7205 -7462.3436 299.9123 -5.3238 93.5170 30069.6362 -106.8663 -47.0447
ENERGY: 1200000 6.3004 2.2912 3.9438 0.0000 -10711.2900 1483.4100 0.0000 0.0000 1775.5019 -7439.8427 304.3683 -9215.3446 -7459.4506 301.0120 605.9806 622.5993 29984.0997 -139.6191 -82.6183
ENERGY: 1500000 1.7091 4.4285 4.4169 0.0000 -10626.8649 1430.3542 0.0000 0.0000 1727.0265 -7458.9297 296.0583 -9185.9562 -7469.5696 299.6966 247.3716 307.3214 29768.1392 -129.1838 -75.7608
TCL: Running FEP window   2: Lambda1 0.95   Lambda2 0.8999999999999999 [dLambda -0.050000000000000044]
TCL: Setting parameter firsttimestep to 0
TCL: Setting parameter alchLambda to 0.95
Info: NONBONDED TABLE R-SQUARED SPACING: 0.0625
Info: NONBONDED TABLE SIZE: 705 POINTS
TCL: Setting parameter alchLambda2 to 0.8999999999999999
Info: NONBONDED TABLE R-SQUARED SPACING: 0.0625
Info: NONBONDED TABLE SIZE: 705 POINTS
TCL: Running for 1500000 steps
ETITLE: TS BOND ANGLE DIHED IMPRP ELECT VDW BOUNDARY MISC KINETIC TOTAL TEMP POTENTIAL TOTALAVG TEMPAVG PRESSURE GPRESSURE VOLUME PRESSAVG GPRESSAVG
ENERGY: 0 1.7091 4.4285 4.4169 0.0000 -10624.2004 1429.7453 0.0000 0.0000 1726.1496 -7457.7509 295.9080 -9183.9005 -7457.7509 295.9080 218.5566 291.2306 29768.1392 218.5566 291.2306
ENERGY: 300000 2.9859 2.4792 4.9426 0.0000 -10596.8212 1421.6815 0.0000 0.0000 1791.5720 -7373.1600 307.1232 -9164.7321 -7405.3175 300.6534 10.4405 88.7980 30472.7021 8.6339 85.2262
ENERGY: 600000 4.4581 2.9764 5.3974 0.0000 -10723.2687 1485.5471 0.0000 0.0000 1761.0567 -7463.8330 301.8920 -9224.8897 -7453.2948 298.2007 381.2773 461.8865 29798.1334 -8.7277 52.8318
ENERGY: 900000 2.9576 7.0325 4.7641 0.0000 -10663.1579 1401.0746 0.0000 0.0000 1685.5964 -7561.7327 288.9561 -9247.3291 -7460.1652 297.2458 -388.6002 -372.7952 30315.0916 -144.9649 -88.6511
ENERGY: 1200000 2.4291 4.4262 1.6844 0.0000 -10746.7056 1517.0419 0.0000 0.0000 1694.7477 -7526.3763 290.5249 -9221.1240 -7454.8039 297.2527 487.2200 534.4643 30383.2689 -66.9279 -15.4808
ENERGY: 1500000 1.7233 2.7143 2.9636 0.0000 -10666.8444 1468.1632 0.0000 0.0000 1807.7744 -7383.5056 309.9007 -9191.2800 -7444.6193 299.1503 366.3609 472.0323 30137.0076 17.3366 76.6993
TCL: Running FEP window   3: Lambda1 0.8999999999999999 Lambda2 0.8499999999999999 [dLambda -0.050000000000000044]
TCL: Setting parameter firsttimestep to 0
TCL: Setting parameter alchLambda to 0.8999999999999999
Info: NONBONDED TABLE R-SQUARED SPACING: 0.0625
Info: NONBONDED TABLE SIZE: 705 POINTS
TCL: Setting parameter alchLambda2 to 0.8499999999999999
Info: NONBONDED TABLE R-SQUARED SPACING: 0.0625
Info: NONBONDED TABLE SIZE: 705 POINTS
TCL: Running for 1500000 steps
ETITLE: TS BOND ANGLE DIHED IMPRP ELECT VDW BOUNDARY MISC KINETIC TOTAL TEMP POTENTIAL TOTALAVG TEMPAVG PRESSURE GPRESSURE VOLUME PRESSAVG GPRESSAVG
ENERGY: 0 1.7233 2.7143 2.9636 0.0000 -10664.1741 1466.9375 0.0000 0.0000 1806.8858 -7382.9495 309.7484 -9189.8353 -7382.9495 309.7484 366.0875 451.0318 30137.0076 366.0875 451.0318
ENERGY: 300000 2.0384 2.7774 4.7859 0.0000 -10710.5050 1455.4830 0.0000 0.0000 1750.6040 -7494.8164 300.1002 -9245.4204 -7426.8469 303.8826 35.9318 124.4795 30188.4759 77.4326 163.4498
ENERGY: 600000 1.4066 1.7877 4.4304 0.0000 -10615.8353 1387.4627 0.0000 0.0000 1760.1350 -7460.6129 301.7340 -9220.7479 -7430.3170 303.6939 -146.1296 -138.3878 29853.0172 129.8259 196.5969
ENERGY: 900000 4.4706 3.4527 5.6943 0.0000 -10589.3153 1392.1731 0.0000 0.0000 1726.2892 -7457.2355 295.9319 -9183.5246 -7450.6322 302.0150 -496.8775 -462.1669 30395.0962 -15.6843 32.8649
ENERGY: 1200000 3.6466 6.6850 5.0124 0.0000 -10611.4919 1400.9456 0.0000 0.0000 1812.5078 -7382.6946 310.7121 -9195.2024 -7449.5149 302.7603 -397.0789 -348.9774 30630.9583 -15.9445 36.2135
ENERGY: 1500000 3.0763 2.9485 2.9893 0.0000 -10573.8338 1410.8133 0.0000 0.0000 1792.9657 -7361.0408 307.3621 -9154.0065 -7434.6024 303.2323 150.6427 216.5150 30146.9227 0.8630 53.5346
TCL: Running FEP window   4: Lambda1 0.8499999999999999 Lambda2 0.7999999999999998 [dLambda -0.050000000000000044]
TCL: Setting parameter firsttimestep to 0
TCL: Setting parameter alchLambda to 0.8499999999999999
Info: NONBONDED TABLE R-SQUARED SPACING: 0.0625
Info: NONBONDED TABLE SIZE: 705 POINTS
TCL: Setting parameter alchLambda2 to 0.7999999999999998
Info: NONBONDED TABLE R-SQUARED SPACING: 0.0625
Info: NONBONDED TABLE SIZE: 705 POINTS
TCL: Running for 1500000 steps
ETITLE: TS BOND ANGLE DIHED IMPRP ELECT VDW BOUNDARY MISC KINETIC TOTAL TEMP POTENTIAL TOTALAVG TEMPAVG PRESSURE GPRESSURE VOLUME PRESSAVG GPRESSAVG
ENERGY: 0 3.0763 2.9485 2.9893 0.0000 -10571.2977 1410.5378 0.0000 0.0000 1792.0835 -7359.6624 307.2108 -9151.7459 -7359.6624 307.2108 129.8535 209.1109 30146.9227 129.8535 209.1109
ENERGY: 300000 3.8931 5.2945 3.4355 0.0000 -10593.1793 1369.4003 0.0000 0.0000 1738.8568 -7472.2991 298.0864 -9211.1559 -7460.5676 299.6074 -227.2940 -175.5778 29912.5003 198.8542 293.5594
ENERGY: 600000 0.7982 2.8016 2.1404 0.0000 -10689.9348 1447.8810 0.0000 0.0000 1743.6511 -7492.6624 298.9082 -9236.3135 -7461.2276 299.1045 -45.6297 -13.2290 30311.7209 38.0392 102.5769
ENERGY: 900000 2.6705 3.4587 5.0709 0.0000 -10752.7025 1506.4311 0.0000 0.0000 1781.9690 -7453.1024 305.4769 -9235.0713 -7466.0127 300.3420 769.3011 811.0916 29906.9346 155.8301 212.7201
ENERGY: 1200000 3.6349 3.6788 5.3282 0.0000 -10688.0995 1387.3703 0.0000 0.0000 1761.5308 -7526.5566 301.9733 -9288.0873 -7475.5706 299.7813 -614.7560 -524.5432 30105.4408 -7.7757 45.9266
ENERGY: 1500000 0.8036 2.2214 2.6535 0.0000 -10697.5190 1408.8588 0.0000 0.0000 1724.3857 -7558.5959 295.6056 -9282.9816 -7474.9170 299.6280 -319.8257 -265.7364 30104.5988 -75.1464 -15.9926
TCL: Running FEP window   5: Lambda1 0.7999999999999998 Lambda2 0.7499999999999998 [dLambda -0.050000000000000044]
TCL: Setting parameter firsttimestep to 0
TCL: Setting parameter alchLambda to 0.7999999999999998
Info: NONBONDED TABLE R-SQUARED SPACING: 0.0625
Info: NONBONDED TABLE SIZE: 705 POINTS
TCL: Setting parameter alchLambda2 to 0.7499999999999998
Info: NONBONDED TABLE R-SQUARED SPACING: 0.0625
Info: NONBONDED TABLE SIZE: 705 POINTS
TCL: Running for 1500000 steps
ETITLE: TS BOND ANGLE DIHED IMPRP ELECT VDW BOUNDARY MISC KINETIC TOTAL TEMP POTENTIAL TOTALAVG TEMPAVG PRESSURE GPRESSURE VOLUME PRESSAVG GPRESSAVG
ENERGY: 0 0.8036 2.2214 2.6535 0.0000 -10696.1657 1408.6707 0.0000 0.0000 1723.4846 -7558.3318 295.4512 -9281.8164 -7558.3318 295.4512 -357.2967 -276.3122 30104.5988 -357.2967 -276.3122
ENERGY: 300000 2.9527 2.2427 3.3516 0.0000 -10485.5996 1290.1738 0.0000 0.0000 1758.1609 -7428.7180 301.3956 -9186.8789 -7504.3808 298.3743 -1063.0642 -1036.0787 30077.1166 -148.6753 -80.7501
ENERGY: 600000 1.1312 2.7518 7.7472 0.0000 -10640.4234 1450.9609 0.0000 0.0000 1733.7359 -7444.0964 297.2085 -9177.8323 -7482.1893 298.5782 462.8077 503.4528 29746.5553 145.7608 208.4048
ENERGY: 900000 2.3282 4.2945 5.2066 0.0000 -10644.0835 1478.1545 0.0000 0.0000 1760.3481 -7393.7516 301.7706 -9154.0997 -7474.4083 298.8841 646.4892 683.7446 30211.2347 38.7548 85.8811
ENERGY: 1200000 1.7590 3.4642 7.7259 0.0000 -10687.4063 1488.1203 0.0000 0.0000 1737.1263 -7449.2107 297.7897 -9186.3370 -7468.2430 299.1696 550.6799 598.2160 29911.9122 75.7219 117.0006
ENERGY: 1500000 3.1301 3.2346 4.8882 0.0000 -10568.8873 1364.2941 0.0000 0.0000 1693.6307 -7499.7096 290.3334 -9193.3403 -7473.5522 298.2251 -953.2113 -831.4179 30884.7901 -14.7169 39.4638
TCL: Running FEP window   6: Lambda1 0.7499999999999998 Lambda2 0.6999999999999997 [dLambda -0.050000000000000044]
TCL: Setting parameter firsttimestep to 0
TCL: Setting parameter alchLambda to 0.7499999999999998
Info: NONBONDED TABLE R-SQUARED SPACING: 0.0625
Info: NONBONDED TABLE SIZE: 705 POINTS
TCL: Setting parameter alchLambda2 to 0.6999999999999997
Info: NONBONDED TABLE R-SQUARED SPACING: 0.0625
Info: NONBONDED TABLE SIZE: 705 POINTS
TCL: Running for 1500000 steps
ETITLE: TS BOND ANGLE DIHED IMPRP ELECT VDW BOUNDARY MISC KINETIC TOTAL TEMP POTENTIAL TOTALAVG TEMPAVG PRESSURE GPRESSURE VOLUME PRESSAVG GPRESSAVG
ENERGY: 0 3.1301 3.2346 4.8882 0.0000 -10566.6894 1363.4199 0.0000 0.0000 1692.7499 -7499.2665 290.1824 -9192.0165 -7499.2665 290.1824 -930.8452 -842.8204 30884.7901 -930.8452 -842.8204
ENERGY: 300000 2.4350 3.0671 5.5755 0.0000 -10639.4686 1421.2976 0.0000 0.0000 1797.6753 -7409.4180 308.1694 -9207.0933 -7437.7045 302.4452 62.2881 139.1710 30061.1807 -118.8064 -40.9827
ENERGY: 600000 1.1334 2.3115 1.9213 0.0000 -10697.6439 1416.6982 0.0000 0.0000 1706.0704 -7569.5092 292.4659 -9275.5796 -7436.0138 301.2528 -304.6722 -280.0316 29986.5042 -43.6653 34.4120
ENERGY: 900000 5.8345 1.7927 6.8963 0.0000 -10634.9623 1405.5287 0.0000 0.0000 1731.1468 -7483.7635 296.7647 -9214.9102 -7445.2559 300.7337 -560.1817 -406.0806 30530.2330 -102.9413 -18.8623
ENERGY: 1200000 2.1516 4.5243 6.3373 0.0000 -10722.5783 1448.4456 0.0000 0.0000 1750.7960 -7510.3235 300.1331 -9261.1195 -7451.1710 300.3199 -72.1213 -39.9866 30186.6247 -139.1236 -65.4769
ENERGY: 1500000 2.4266 2.3449 4.6062 0.0000 -10570.0883 1364.9779 0.0000 0.0000 1775.6809 -7420.0518 304.3990 -9195.7327 -7451.6674 299.6432 -676.3905 -548.7492 30148.4544 -221.3908 -149.7393
TCL: Running FEP window   7: Lambda1 0.6999999999999997 Lambda2 0.6499999999999997 [dLambda -0.050000000000000044]
TCL: Setting parameter firsttimestep to 0
TCL: Setting parameter alchLambda to 0.6999999999999997
Info: NONBONDED TABLE R-SQUARED SPACING: 0.0625
Info: NONBONDED TABLE SIZE: 705 POINTS
TCL: Setting parameter alchLambda2 to 0.6499999999999997
Info: NONBONDED TABLE R-SQUARED SPACING: 0.0625
Info: NONBONDED TABLE SIZE: 705 POINTS
TCL: Running for 1500000 steps
ETITLE: TS BOND ANGLE DIHED IMPRP ELECT VDW BOUNDARY MISC KINETIC TOTAL TEMP POTENTIAL TOTALAVG TEMPAVG PRESSURE GPRESSURE VOLUME PRESSAVG GPRESSAVG
ENERGY: 0 2.4266 2.3449 4.6062 0.0000 -10568.6026 1364.4858 0.0000 0.0000 1774.8080 -7419.9311 304.2494 -9194.7391 -7419.9311 304.2494 -642.5240 -557.9304 30148.4544 -642.5240 -557.9304
ENERGY: 300000 2.9385 6.2628 3.7934 0.0000 -10653.5221 1466.3549 0.0000 0.0000 1722.7626 -7451.4099 295.3274 -9174.1725 -7449.8915 299.4220 530.7614 608.3170 29906.5248 62.1872 145.4733
ENERGY: 600000 2.6246 5.6743 3.0229 0.0000 -10618.3934 1413.1152 0.0000 0.0000 1736.7521 -7457.2043 297.7256 -9193.9564 -7465.3531 299.5137 -200.8800 -118.0653 30175.1209 47.9019 123.1858
ENERGY: 900000 3.3382 2.9075 2.9782 0.0000 -10692.9330 1451.5975 0.0000 0.0000 1743.5865 -7488.5250 298.8972 -9232.1116 -7455.5880 299.7997 134.0229 182.4225 30204.0456 -95.2267 -33.1136
ENERGY: 1200000 1.8802 3.7477 3.1758 0.0000 -10558.6904 1384.4842 0.0000 0.0000 1771.3354 -7394.0671 303.6541 -9165.4026 -7441.7194 300.9695 -351.1298 -291.9997 30228.3601 -33.0749 31.0504
ENERGY: 1500000 3.9941 5.7056 4.1744 0.0000 -10520.8087 1380.2591 0.0000 0.0000 1745.1935 -7381.4821 299.1726 -9126.6756 -7444.0813 300.8705 -632.8308 -543.1989 31062.0100 -110.4476 -36.0924
TCL: Running FEP window   8: Lambda1 0.6499999999999997 Lambda2 0.5999999999999996 [dLambda -0.050000000000000044]
TCL: Setting parameter firsttimestep to 0
TCL: Setting parameter alchLambda to 0.6499999999999997
Info: NONBONDED TABLE R-SQUARED SPACING: 0.0625
Info: NONBONDED TABLE SIZE: 705 POINTS
TCL: Setting parameter alchLambda2 to 0.5999999999999996
Info: NONBONDED TABLE R-SQUARED SPACING: 0.0625
Info: NONBONDED TABLE SIZE: 705 POINTS
TCL: Running for 1500000 steps
ETITLE: TS BOND ANGLE DIHED IMPRP ELECT VDW BOUNDARY MISC KINETIC TOTAL TEMP POTENTIAL TOTALAVG TEMPAVG PRESSURE GPRESSURE VOLUME PRESSAVG GPRESSAVG
ENERGY: 0 3.9942 5.7056 4.1744 0.0000 -10518.8200 1379.6826 0.0000 0.0000 1744.3416 -7380.9217 299.0266 -9125.2633 -7380.9217 299.0266 -626.5331 -548.5882 31062.0100 -626.5331 -548.5882
ENERGY: 300000 3.3024 3.6542 4.4128 0.0000 -10857.7819 1578.2524 0.0000 0.0000 1750.5456 -7517.6145 300.0901 -9268.1600 -7438.3007 299.9633 856.8472 895.6865 30157.1770 -13.4798 39.3644
ENERGY: 600000 6.0040 2.5832 3.7807 0.0000 -10547.7961 1433.0889 0.0000 0.0000 1786.5655 -7315.7737 306.2649 -9102.3392 -7443.7241 299.9344 368.8374 414.8293 29842.0198 -18.8354 40.3250
ENERGY: 900000 2.9036 2.3793 3.4639 0.0000 -10623.8609 1406.7129 0.0000 0.0000 1728.3295 -7480.0718 296.2817 -9208.4013 -7444.3563 298.7601 -430.2182 -328.6179 30204.4759 -75.6242 -22.9435
ENERGY: 1200000 2.1028 1.6670 1.0421 0.0000 -10744.0105 1511.4901 0.0000 0.0000 1745.0275 -7482.6810 299.1442 -9227.7085 -7450.1233 299.5343 533.8188 537.7510 30062.9669 -46.4255 -0.1171
ENERGY: 1500000 2.2330 4.0680 1.5247 0.0000 -10514.3636 1332.9780 0.0000 0.0000 1746.6882 -7426.8717 299.4289 -9173.5599 -7446.4323 299.8895 -525.2353 -438.1362 30358.2540 -48.6118 6.2442
TCL: Running FEP window   9: Lambda1 0.5999999999999996 Lambda2 0.5499999999999996 [dLambda -0.050000000000000044]
TCL: Setting parameter firsttimestep to 0
TCL: Setting parameter alchLambda to 0.5999999999999996
Info: NONBONDED TABLE R-SQUARED SPACING: 0.0625
Info: NONBONDED TABLE SIZE: 705 POINTS
TCL: Setting parameter alchLambda2 to 0.5499999999999996
Info: NONBONDED TABLE R-SQUARED SPACING: 0.0625
Info: NONBONDED TABLE SIZE: 705 POINTS
TCL: Running for 1500000 steps
ETITLE: TS BOND ANGLE DIHED IMPRP ELECT VDW BOUNDARY MISC KINETIC TOTAL TEMP POTENTIAL TOTALAVG TEMPAVG PRESSURE GPRESSURE VOLUME PRESSAVG GPRESSAVG
ENERGY: 0 2.2330 4.0680 1.5247 0.0000 -10512.6616 1333.2899 0.0000 0.0000 1745.8030 -7425.7430 299.2771 -9171.5460 -7425.7430 299.2771 -521.6996 -439.8739 30358.2540 -521.6996 -439.8739
ENERGY: 300000 2.6650 6.6214 4.2653 0.0000 -10618.9923 1377.7952 0.0000 0.0000 1733.4136 -7494.2317 297.1533 -9227.6453 -7442.5586 300.7112 -767.7677 -699.2212 30473.1334 -90.7441 -17.7178
ENERGY: 600000 1.8005 4.1456 3.9555 0.0000 -10555.7263 1369.6396 0.0000 0.0000 1730.4369 -7445.7481 296.6430 -9176.1850 -7442.4569 301.6243 -405.4156 -381.6636 30241.4717 -24.9609 30.8247
ENERGY: 900000 1.4919 5.5255 2.4395 0.0000 -10763.0610 1483.1818 0.0000 0.0000 1755.9326 -7514.4896 301.0136 -9270.4222 -7442.7081 302.0840 163.2599 214.1996 30304.9598 -96.0154 -30.1141
ENERGY: 1200000 2.9641 3.4413 3.0667 0.0000 -10606.9887 1438.9460 0.0000 0.0000 1799.1929 -7359.3778 308.4296 -9158.5707 -7440.7505 302.0115 173.7088 228.5923 30493.8042 -29.9926 39.7896
ENERGY: 1500000 2.8511 5.4888 2.4147 0.0000 -10732.4120 1505.9176 0.0000 0.0000 1789.6758 -7426.0641 306.7981 -9215.7399 -7433.3590 301.7793 484.9036 543.5729 30160.6932 6.8353 69.3706
TCL: Running FEP window  10: Lambda1 0.5499999999999996 Lambda2 0.4999999999999996 [dLambda -0.04999999999999999]
TCL: Setting parameter firsttimestep to 0
TCL: Setting parameter alchLambda to 0.5499999999999996
Info: NONBONDED TABLE R-SQUARED SPACING: 0.0625
Info: NONBONDED TABLE SIZE: 705 POINTS
TCL: Setting parameter alchLambda2 to 0.4999999999999996
Info: NONBONDED TABLE R-SQUARED SPACING: 0.0625
Info: NONBONDED TABLE SIZE: 705 POINTS
TCL: Running for 1500000 steps
ETITLE: TS BOND ANGLE DIHED IMPRP ELECT VDW BOUNDARY MISC KINETIC TOTAL TEMP POTENTIAL TOTALAVG TEMPAVG PRESSURE GPRESSURE VOLUME PRESSAVG GPRESSAVG
ENERGY: 0 2.8511 5.4888 2.4147 0.0000 -10731.0305 1505.6919 0.0000 0.0000 1788.7767 -7425.8073 306.6440 -9214.5840 -7425.8073 306.6440 459.4131 539.9301 30160.6932 459.4131 539.9301
ENERGY: 300000 2.3746 2.5828 4.0532 0.0000 -10550.4651 1398.5832 0.0000 0.0000 1780.1198 -7362.7514 305.1599 -9142.8712 -7385.0040 303.9788 -203.1084 -177.5562 30236.9382 -72.1925 -37.9594
ENERGY: 600000 4.6016 2.8337 4.2138 0.0000 -10654.1202 1467.4824 0.0000 0.0000 1788.2373 -7386.7513 306.5515 -9174.9887 -7401.3248 304.2008 381.5639 471.8872 29995.4012 29.0354 78.7601
ENERGY: 900000 5.6626 6.2637 2.2603 0.0000 -10638.4428 1467.1915 0.0000 0.0000 1738.4890 -7418.5757 298.0233 -9157.0647 -7418.7283 303.3342 227.3646 300.4168 30371.4090 23.1250 79.7130
ENERGY: 1200000 4.0686 2.5256 3.6329 0.0000 -10681.0186 1384.1738 0.0000 0.0000 1743.0576 -7543.5603 298.8065 -9286.6178 -7431.4531 302.2916 -695.6167 -593.0475 30530.8367 -48.8183 16.0060
ENERGY: 1500000 3.3278 3.9094 4.3711 0.0000 -10666.6886 1423.8094 0.0000 0.0000 1762.9080 -7468.3630 302.2094 -9231.2710 -7430.9335 302.2107 5.1018 37.3440 30079.9925 7.0106 66.6291
TCL: Running FEP window  11: Lambda1 0.4999999999999996 Lambda2 0.4499999999999996 [dLambda -0.04999999999999999]
TCL: Setting parameter firsttimestep to 0
TCL: Setting parameter alchLambda to 0.4999999999999996
Info: NONBONDED TABLE R-SQUARED SPACING: 0.0625
Info: NONBONDED TABLE SIZE: 705 POINTS
TCL: Setting parameter alchLambda2 to 0.4499999999999996
Info: NONBONDED TABLE R-SQUARED SPACING: 0.0625
Info: NONBONDED TABLE SIZE: 705 POINTS
TCL: Running for 1500000 steps
ETITLE: TS BOND ANGLE DIHED IMPRP ELECT VDW BOUNDARY MISC KINETIC TOTAL TEMP POTENTIAL TOTALAVG TEMPAVG PRESSURE GPRESSURE VOLUME PRESSAVG GPRESSAVG
ENERGY: 0 3.3278 3.9094 4.3711 0.0000 -10666.0058 1424.2599 0.0000 0.0000 1762.0527 -7468.0849 302.0628 -9230.1376 -7468.0849 302.0628 -32.0844 36.7459 30079.9925 -32.0844 36.7459
ENERGY: 300000 6.1327 4.2373 5.2479 0.0000 -10614.4600 1420.1988 0.0000 0.0000 1838.0970 -7340.5463 315.0988 -9178.6433 -7431.5333 304.4488 -4.0037 14.9393 30422.9622 161.7155 213.6634
ENERGY: 600000 3.1634 1.5898 5.0240 0.0000 -10752.3434 1489.3144 0.0000 0.0000 1757.7803 -7495.4715 301.3304 -9253.2518 -7427.7780 304.3882 491.6872 492.9698 29612.9593 264.4219 316.3234
ENERGY: 900000 3.5367 2.1974 5.6501 0.0000 -10575.3425 1385.4513 0.0000 0.0000 1780.2310 -7398.2759 305.1790 -9178.5069 -7410.2371 305.5227 -394.4594 -348.8289 30569.7867 102.9095 163.2076
ENERGY: 1200000 2.2794 4.3754 4.8383 0.0000 -10653.6401 1425.0312 0.0000 0.0000 1721.5846 -7495.5314 295.1255 -9217.1160 -7427.8436 303.5249 -193.9191 -135.9050 30540.2014 -78.1420 -19.6841
ENERGY: 1500000 3.0515 2.1619 5.6825 0.0000 -10657.8816 1384.4705 0.0000 0.0000 1763.5424 -7498.9729 302.3181 -9262.5153 -7433.7297 303.5684 -627.0378 -507.1473 29889.7954 -128.8336 -74.8268
TCL: Running FEP window  12: Lambda1 0.4499999999999996 Lambda2 0.39999999999999963 [dLambda -0.04999999999999999]
TCL: Setting parameter firsttimestep to 0
TCL: Setting parameter alchLambda to 0.4499999999999996
Info: NONBONDED TABLE R-SQUARED SPACING: 0.0625
Info: NONBONDED TABLE SIZE: 705 POINTS
TCL: Setting parameter alchLambda2 to 0.39999999999999963
Info: NONBONDED TABLE R-SQUARED SPACING: 0.0625
Info: NONBONDED TABLE SIZE: 705 POINTS
TCL: Running for 1500000 steps
ETITLE: TS BOND ANGLE DIHED IMPRP ELECT VDW BOUNDARY MISC KINETIC TOTAL TEMP POTENTIAL TOTALAVG TEMPAVG PRESSURE GPRESSURE VOLUME PRESSAVG GPRESSAVG
ENERGY: 0 3.0515 2.1619 5.6825 0.0000 -10657.8809 1384.0763 0.0000 0.0000 1762.6715 -7500.2373 302.1688 -9262.9087 -7500.2373 302.1688 -612.5963 -515.0079 29889.7954 -612.5963 -515.0079
ENERGY: 300000 2.4730 6.4977 3.2696 0.0000 -10699.0556 1487.4849 0.0000 0.0000 1728.1153 -7471.2151 296.2450 -9199.3304 -7491.7023 297.7943 806.5553 851.8654 29515.3726 -31.3452 34.0836
ENERGY: 600000 5.3961 2.1178 2.8799 0.0000 -10664.1157 1423.5319 0.0000 0.0000 1785.9780 -7444.2121 306.1642 -9230.1901 -7457.7369 300.4328 -253.4221 -205.5807 29981.5243 -110.8293 -33.5868
ENERGY: 900000 2.6656 3.1436 2.1975 0.0000 -10553.8564 1357.9594 0.0000 0.0000 1679.3916 -7508.4987 287.8924 -9187.8903 -7469.5555 298.7848 -517.0081 -425.6380 29954.3764 -167.8110 -93.4571
ENERGY: 1200000 0.7705 4.6570 4.0970 0.0000 -10627.1924 1446.7862 0.0000 0.0000 1763.4859 -7407.3959 302.3085 -9170.8817 -7471.2179 298.3235 391.9695 481.0483 29761.1966 -142.3915 -63.8741
ENERGY: 1500000 1.8730 3.7819 3.7479 0.0000 -10671.3336 1391.3072 0.0000 0.0000 1740.5596 -7530.0640 298.3783 -9270.6236 -7471.2249 298.3800 -706.4935 -624.4422 30271.2767 -175.8351 -100.2073
TCL: Running FEP window  13: Lambda1 0.39999999999999963 Lambda2 0.34999999999999964 [dLambda -0.04999999999999999]
TCL: Setting parameter firsttimestep to 0
TCL: Setting parameter alchLambda to 0.39999999999999963
Info: NONBONDED TABLE R-SQUARED SPACING: 0.0625
Info: NONBONDED TABLE SIZE: 705 POINTS
TCL: Setting parameter alchLambda2 to 0.34999999999999964
Info: NONBONDED TABLE R-SQUARED SPACING: 0.0625
Info: NONBONDED TABLE SIZE: 705 POINTS
TCL: Running for 1500000 steps
ETITLE: TS BOND ANGLE DIHED IMPRP ELECT VDW BOUNDARY MISC KINETIC TOTAL TEMP POTENTIAL TOTALAVG TEMPAVG PRESSURE GPRESSURE VOLUME PRESSAVG GPRESSAVG
ENERGY: 0 1.8730 3.7819 3.7479 0.0000 -10671.3328 1391.1348 0.0000 0.0000 1739.6564 -7531.1388 298.2234 -9270.7952 -7531.1388 298.2234 -707.0941 -631.4606 30271.2767 -707.0941 -631.4606
ENERGY: 300000 1.8785 4.1699 4.5788 0.0000 -10753.5351 1486.5885 0.0000 0.0000 1806.1466 -7450.1728 309.6216 -9256.3195 -7477.4975 304.4488 451.3931 515.9046 29790.8123 52.4627 134.4390
ENERGY: 600000 2.3171 4.1108 5.8935 0.0000 -10682.8185 1445.9895 0.0000 0.0000 1750.1076 -7474.4000 300.0151 -9224.5076 -7472.9541 301.9551 -231.5282 -95.1334 30662.9547 152.2212 241.5617
ENERGY: 900000 2.4867 4.7509 6.4941 0.0000 -10630.9911 1443.2961 0.0000 0.0000 1787.3027 -7386.6605 306.3913 -9173.9632 -7456.2527 302.0216 -7.2347 16.5537 30757.5425 74.6362 141.6313
ENERGY: 1200000 2.2980 3.1644 3.2930 0.0000 -10560.1515 1399.6388 0.0000 0.0000 1789.2766 -7362.4808 306.7297 -9151.7574 -7453.0935 302.0756 -90.3490 -85.9263 29946.6015 99.7093 156.7798
ENERGY: 1500000 2.0744 4.3828 10.3367 0.0000 -10466.3057 1328.2166 0.0000 0.0000 1729.3933 -7391.9020 296.4641 -9121.2952 -7454.4451 301.2357 -600.6221 -583.0613 30227.8953 -36.0438 26.5675
TCL: Running FEP window  14: Lambda1 0.34999999999999964 Lambda2 0.29999999999999966 [dLambda -0.04999999999999999]
TCL: Setting parameter firsttimestep to 0
TCL: Setting parameter alchLambda to 0.34999999999999964
Info: NONBONDED TABLE R-SQUARED SPACING: 0.0625
Info: NONBONDED TABLE SIZE: 705 POINTS
TCL: Setting parameter alchLambda2 to 0.29999999999999966
Info: NONBONDED TABLE R-SQUARED SPACING: 0.0625
Info: NONBONDED TABLE SIZE: 705 POINTS
TCL: Running for 1500000 steps
ETITLE: TS BOND ANGLE DIHED IMPRP ELECT VDW BOUNDARY MISC KINETIC TOTAL TEMP POTENTIAL TOTALAVG TEMPAVG PRESSURE GPRESSURE VOLUME PRESSAVG GPRESSAVG
ENERGY: 0 2.0744 4.3828 10.3367 0.0000 -10466.3060 1327.8714 0.0000 0.0000 1728.6159 -7393.0249 296.3308 -9121.6407 -7393.0249 296.3308 -669.5634 -588.0329 30227.8953 -669.5634 -588.0329
ENERGY: 300000 2.6406 3.8625 5.3378 0.0000 -10619.4317 1381.8255 0.0000 0.0000 1673.1661 -7552.5992 286.8252 -9225.7653 -7446.8429 297.2616 -712.8198 -680.6946 30296.9505 -519.4906 -456.2727
ENERGY: 600000 2.8442 2.4850 3.3655 0.0000 -10565.6584 1328.1571 0.0000 0.0000 1731.1659 -7497.6407 296.7679 -9228.8066 -7450.6737 297.7267 -949.3688 -922.9168 30138.5453 -326.8635 -279.8930
ENERGY: 900000 3.2454 4.2133 3.7522 0.0000 -10564.2172 1356.5471 0.0000 0.0000 1782.1647 -7414.2944 305.5105 -9196.4591 -7440.7388 298.5255 -406.0351 -420.2097 29922.1346 -204.7860 -166.5527
ENERGY: 1200000 3.5345 7.5384 2.6445 0.0000 -10597.4827 1395.6383 0.0000 0.0000 1763.7740 -7424.3530 302.3578 -9188.1270 -7437.7960 299.6817 68.8036 100.4891 29588.8640 -180.4423 -141.4904
ENERGY: 1500000 1.9884 6.8569 5.7101 0.0000 -10671.4279 1417.7642 0.0000 0.0000 1783.4988 -7455.6095 305.7392 -9239.1083 -7437.8930 300.5605 -271.2997 -215.6467 30103.8658 -255.8324 -211.0220
TCL: Running FEP window  15: Lambda1 0.29999999999999966 Lambda2 0.24999999999999967 [dLambda -0.04999999999999999]
TCL: Setting parameter firsttimestep to 0
TCL: Setting parameter alchLambda to 0.29999999999999966
Info: NONBONDED TABLE R-SQUARED SPACING: 0.0625
Info: NONBONDED TABLE SIZE: 705 POINTS
TCL: Setting parameter alchLambda2 to 0.24999999999999967
Info: NONBONDED TABLE R-SQUARED SPACING: 0.0625
Info: NONBONDED TABLE SIZE: 705 POINTS
TCL: Running for 1500000 steps
ETITLE: TS BOND ANGLE DIHED IMPRP ELECT VDW BOUNDARY MISC KINETIC TOTAL TEMP POTENTIAL TOTALAVG TEMPAVG PRESSURE GPRESSURE VOLUME PRESSAVG GPRESSAVG
ENERGY: 0 1.9884 6.8569 5.7101 0.0000 -10671.4268 1417.9059 0.0000 0.0000 1782.6329 -7456.3326 305.5908 -9238.9655 -7456.3326 305.5908 -295.2755 -218.8982 30103.8658 -295.2755 -218.8982
ENERGY: 300000 1.2130 3.2202 4.9043 0.0000 -10607.4085 1434.6947 0.0000 0.0000 1780.2209 -7383.1555 305.1773 -9163.3764 -7430.0446 299.0287 -133.5391 -32.5570 30754.6801 11.4793 82.1678
ENERGY: 600000 3.5454 4.1132 5.3779 0.0000 -10634.7449 1385.7287 0.0000 0.0000 1737.5893 -7498.3904 297.8691 -9235.9797 -7437.9930 298.4662 -691.4152 -587.7717 30260.0644 -276.3541 -205.5936
ENERGY: 900000 3.1386 2.7686 2.6269 0.0000 -10667.4026 1438.0824 0.0000 0.0000 1816.3512 -7404.4350 311.3710 -9220.7862 -7422.1144 299.7016 -115.8114 -12.0038 29885.3644 -352.6020 -270.9469
ENERGY: 1200000 3.3571 2.0573 2.7576 0.0000 -10649.3484 1457.6378 0.0000 0.0000 1688.2244 -7495.3142 289.4066 -9183.5385 -7428.6860 299.9040 15.2171 101.9350 30076.7845 -255.9967 -173.7421
ENERGY: 1500000 3.5197 4.0603 2.3193 0.0000 -10444.0420 1374.8343 0.0000 0.0000 1722.2426 -7337.0656 295.2383 -9059.3083 -7418.3506 300.1184 -343.1539 -292.8710 30256.9319 -212.3875 -133.9771
TCL: Running FEP window  16: Lambda1 0.24999999999999967 Lambda2 0.19999999999999968 [dLambda -0.04999999999999999]
TCL: Setting parameter firsttimestep to 0
TCL: Setting parameter alchLambda to 0.24999999999999967
Info: NONBONDED TABLE R-SQUARED SPACING: 0.0625
Info: NONBONDED TABLE SIZE: 705 POINTS
TCL: Setting parameter alchLambda2 to 0.19999999999999968
Info: NONBONDED TABLE R-SQUARED SPACING: 0.0625
Info: NONBONDED TABLE SIZE: 705 POINTS
TCL: Running for 1500000 steps
ETITLE: TS BOND ANGLE DIHED IMPRP ELECT VDW BOUNDARY MISC KINETIC TOTAL TEMP POTENTIAL TOTALAVG TEMPAVG PRESSURE GPRESSURE VOLUME PRESSAVG GPRESSAVG
ENERGY: 0 3.5197 4.0603 2.3193 0.0000 -10444.0415 1374.8303 0.0000 0.0000 1721.3934 -7337.9185 295.0927 -9059.3119 -7337.9185 295.0927 -388.1996 -298.0213 30256.9319 -388.1996 -298.0213
ENERGY: 300000 1.5537 2.9478 3.0324 0.0000 -10513.4271 1361.1988 0.0000 0.0000 1733.2102 -7411.4843 297.1184 -9144.6945 -7399.4204 296.6467 -549.0957 -526.4277 30323.9409 -520.0837 -459.4011
ENERGY: 600000 3.5771 5.3880 2.3852 0.0000 -10641.6229 1449.0504 0.0000 0.0000 1722.7660 -7458.4562 295.3280 -9181.2221 -7399.4663 298.1782 121.7851 221.0892 29978.0651 -346.2039 -275.2815
ENERGY: 900000 3.1595 2.8219 3.1149 0.0000 -10573.0982 1359.1302 0.0000 0.0000 1760.9492 -7443.9225 301.8736 -9204.8717 -7399.4902 299.3060 -643.7813 -569.7948 29876.7505 -378.9888 -304.4184
ENERGY: 1200000 3.2328 5.1647 3.5901 0.0000 -10676.5965 1413.7180 0.0000 0.0000 1715.7011 -7535.1899 294.1169 -9250.8909 -7419.9689 299.5592 -160.6519 -150.5215 29742.1444 -308.6855 -240.2623
ENERGY: 1500000 2.0181 4.1294 2.4501 0.0000 -10732.5687 1549.6802 0.0000 0.0000 1776.1332 -7398.1578 304.4765 -9174.2910 -7418.3329 300.1249 800.2921 911.1828 29951.4221 -145.0803 -74.8085
TCL: Running FEP window  17: Lambda1 0.19999999999999968 Lambda2 0.1499999999999997 [dLambda -0.04999999999999999]
TCL: Setting parameter firsttimestep to 0
TCL: Setting parameter alchLambda to 0.19999999999999968
Info: NONBONDED TABLE R-SQUARED SPACING: 0.0625
Info: NONBONDED TABLE SIZE: 705 POINTS
TCL: Setting parameter alchLambda2 to 0.1499999999999997
Info: NONBONDED TABLE R-SQUARED SPACING: 0.0625
Info: NONBONDED TABLE SIZE: 705 POINTS
TCL: Running for 1500000 steps
ETITLE: TS BOND ANGLE DIHED IMPRP ELECT VDW BOUNDARY MISC KINETIC TOTAL TEMP POTENTIAL TOTALAVG TEMPAVG PRESSURE GPRESSURE VOLUME PRESSAVG GPRESSAVG
ENERGY: 0 2.0181 4.1294 2.4501 0.0000 -10732.5688 1549.7978 0.0000 0.0000 1775.2393 -7398.9341 304.3233 -9174.1734 -7398.9341 304.3233 812.0333 905.6351 29951.4221 812.0333 905.6351
ENERGY: 300000 0.9865 4.3594 3.0414 0.0000 -10675.2195 1465.0000 0.0000 0.0000 1751.8563 -7449.9759 300.3148 -9201.8322 -7451.7885 302.3685 144.3088 293.2592 30000.1520 141.7187 252.9670
ENERGY: 600000 2.3546 3.7617 1.2897 0.0000 -10516.2188 1412.7897 0.0000 0.0000 1760.5007 -7335.5224 301.7967 -9096.0231 -7433.5508 302.3079 163.8876 251.5355 30092.9975 175.9801 267.6462
ENERGY: 900000 2.2594 5.8337 3.6071 0.0000 -10517.2940 1395.4054 0.0000 0.0000 1751.0055 -7359.1830 300.1690 -9110.1884 -7441.8740 300.3473 59.9717 123.8310 30006.6742 20.3832 112.6428
ENERGY: 1200000 3.5180 3.3332 3.8187 0.0000 -10764.0812 1530.8439 0.0000 0.0000 1782.2620 -7440.3053 305.5272 -9222.5673 -7437.6980 300.4896 590.2847 648.0689 30026.5138 71.1523 151.5152
ENERGY: 1500000 1.5738 4.3895 1.7633 0.0000 -10707.6582 1503.7818 0.0000 0.0000 1732.5427 -7463.6072 297.0040 -9196.1499 -7436.2551 300.7099 804.2193 831.2688 29739.4972 54.2231 129.6163
TCL: Running FEP window  18: Lambda1 0.1499999999999997 Lambda2 0.09999999999999969 [dLambda -0.05 ]
TCL: Setting parameter firsttimestep to 0
TCL: Setting parameter alchLambda to 0.1499999999999997
Info: NONBONDED TABLE R-SQUARED SPACING: 0.0625
Info: NONBONDED TABLE SIZE: 705 POINTS
TCL: Setting parameter alchLambda2 to 0.09999999999999969
Info: NONBONDED TABLE R-SQUARED SPACING: 0.0625
Info: NONBONDED TABLE SIZE: 705 POINTS
TCL: Running for 1500000 steps
ETITLE: TS BOND ANGLE DIHED IMPRP ELECT VDW BOUNDARY MISC KINETIC TOTAL TEMP POTENTIAL TOTALAVG TEMPAVG PRESSURE GPRESSURE VOLUME PRESSAVG GPRESSAVG
ENERGY: 0 1.5738 4.3895 1.7633 0.0000 -10707.6568 1504.1811 0.0000 0.0000 1731.6977 -7464.0515 296.8591 -9195.7492 -7464.0515 296.8591 751.7173 834.8880 29739.4972 751.7173 834.8880
ENERGY: 300000 4.3338 3.4708 6.0492 0.0000 -10546.7028 1420.1126 0.0000 0.0000 1752.0442 -7360.6923 300.3470 -9112.7364 -7391.6811 301.6435 188.7983 252.8538 29884.8335 241.1184 310.7879
ENERGY: 600000 2.3266 2.0960 7.6783 0.0000 -10693.9089 1445.4472 0.0000 0.0000 1743.4324 -7492.9283 298.8707 -9236.3607 -7422.6288 299.8195 119.9247 202.6122 29840.9270 122.5850 187.8971
ENERGY: 900000 4.7107 2.2072 3.8174 0.0000 -10624.6964 1495.4559 0.0000 0.0000 1761.3452 -7357.1600 301.9415 -9118.5052 -7426.1902 299.5961 620.2313 693.2440 30159.1500 220.2143 286.9034
ENERGY: 1200000 4.5466 3.0165 4.5226 0.0000 -10632.6960 1457.6090 0.0000 0.0000 1760.9373 -7402.0640 301.8716 -9163.0013 -7439.5557 299.4398 228.4501 287.6090 30476.6262 118.3087 184.0903
ENERGY: 1500000 2.0436 4.5095 4.2475 0.0000 -10633.5032 1428.3824 0.0000 0.0000 1748.0771 -7446.2430 299.6670 -9194.3202 -7440.7613 299.2041 -113.3793 -104.9554 30285.1777 113.4706 178.5202
TCL: Running FEP window  19: Lambda1 0.09999999999999969 Lambda2 0.049999999999999684 [dLambda -0.05 ]
TCL: Setting parameter firsttimestep to 0
TCL: Setting parameter alchLambda to 0.09999999999999969
Info: NONBONDED TABLE R-SQUARED SPACING: 0.0625
Info: NONBONDED TABLE SIZE: 705 POINTS
TCL: Setting parameter alchLambda2 to 0.049999999999999684
Info: NONBONDED TABLE R-SQUARED SPACING: 0.0625
Info: NONBONDED TABLE SIZE: 705 POINTS
TCL: Running for 1500000 steps
ETITLE: TS BOND ANGLE DIHED IMPRP ELECT VDW BOUNDARY MISC KINETIC TOTAL TEMP POTENTIAL TOTALAVG TEMPAVG PRESSURE GPRESSURE VOLUME PRESSAVG GPRESSAVG
ENERGY: 0 2.0436 4.5095 4.2475 0.0000 -10633.5041 1428.9010 0.0000 0.0000 1747.2303 -7446.5723 299.5218 -9193.8025 -7446.5723 299.5218 -171.2007 -101.0047 30285.1777 -171.2007 -101.0047
ENERGY: 300000 3.1466 7.4599 4.7301 0.0000 -10549.6809 1411.2273 0.0000 0.0000 1774.8480 -7348.2690 304.2562 -9123.1170 -7387.7685 302.9199 -129.1222 -50.2928 30144.0443 -225.5754 -152.8523
ENERGY: 600000 3.3550 3.1169 1.3259 0.0000 -10727.1235 1506.2923 0.0000 0.0000 1752.7436 -7460.2898 300.4669 -9213.0333 -7411.8446 302.5066 512.4894 537.5613 30101.3304 -133.4667 -72.2419
ENERGY: 900000 0.9594 4.6675 3.8681 0.0000 -10732.9546 1473.5130 0.0000 0.0000 1724.9772 -7524.9694 295.7070 -9249.9465 -7430.0149 301.2092 371.3715 463.2248 29581.4071 57.4453 124.0881
ENERGY: 1200000 3.6400 6.4453 3.3080 0.0000 -10764.8007 1489.1158 0.0000 0.0000 1718.8548 -7543.4369 294.6575 -9262.2917 -7432.9696 301.5853 390.3048 437.3440 29821.5723 -33.8876 30.2564
ENERGY: 1500000 3.3513 3.0992 4.2171 0.0000 -10585.4566 1366.5847 0.0000 0.0000 1759.9677 -7448.2368 301.7053 -9208.2044 -7429.7506 301.2668 -829.0276 -771.8969 30305.8737 -66.1723 -2.4498
TCL: Running FEP window  20: Lambda1 0.049999999999999684 Lambda2 0.0    [dLambda -0.049999999999999684]
TCL: Setting parameter firsttimestep to 0
TCL: Setting parameter alchLambda to 0.049999999999999684
Info: NONBONDED TABLE R-SQUARED SPACING: 0.0625
Info: NONBONDED TABLE SIZE: 705 POINTS
TCL: Setting parameter alchLambda2 to 0.0
Info: NONBONDED TABLE R-SQUARED SPACING: 0.0625
Info: NONBONDED TABLE SIZE: 705 POINTS
TCL: Running for 1500000 steps
ETITLE: TS BOND ANGLE DIHED IMPRP ELECT VDW BOUNDARY MISC KINETIC TOTAL TEMP POTENTIAL TOTALAVG TEMPAVG PRESSURE GPRESSURE VOLUME PRESSAVG GPRESSAVG
ENERGY: 0 3.3513 3.0992 4.2171 0.0000 -10585.4564 1366.5573 0.0000 0.0000 1759.0958 -7449.1358 301.5559 -9208.2316 -7449.1358 301.5559 -859.4049 -774.9473 30305.8737 -859.4049 -774.9473
ENERGY: 300000 2.1560 1.5474 3.2568 0.0000 -10776.3565 1550.9865 0.0000 0.0000 1812.7582 -7405.6517 310.7550 -9218.4099 -7441.0225 300.1399 1273.2972 1320.3990 29641.3850 412.8791 473.4613
ENERGY: 600000 1.7969 3.7318 3.2157 0.0000 -10708.8448 1470.0143 0.0000 0.0000 1687.0705 -7543.0157 289.2088 -9230.0861 -7436.9744 300.5138 262.5405 318.0284 29839.7406 362.8633 421.2701
ENERGY: 900000 1.2878 1.8269 6.3178 0.0000 -10608.0915 1444.6291 0.0000 0.0000 1828.5536 -7325.4763 313.4628 -9154.0299 -7432.8110 301.3242 243.0648 256.5784 30269.2987 143.2421 200.9660
ENERGY: 1200000 1.8684 1.5352 1.7766 0.0000 -10773.7193 1526.6537 0.0000 0.0000 1704.0742 -7537.8113 292.1237 -9241.8855 -7443.5672 299.8065 198.0381 275.2850 30274.8532 19.0522 81.9842
ENERGY: 1500000 2.2569 5.6148 2.0735 0.0000 -10594.4466 1421.9608 0.0000 0.0000 1722.5006 -7440.0400 295.2825 -9162.5407 -7442.1728 299.4735 -60.4651 11.1418 30057.4844 -45.3868 20.6712
TCL: Exiting due to exit command.
