Info: SIMULATION PARAMETERS:
Info: TIMESTEP               2
Info: NUMBER OF STEPS        0
Info: STEPS PER CYCLE        10
Info: PERIODIC CELL BASIS 1  30.386 0 0
Info: PERIODIC CELL BASIS 2  0 29.7953 0
Info: PERIODIC CELL BASIS 3  0 0 34.092
Info: PERIODIC CELL CENTER   0 0 0
Info: WRAPPING WATERS AROUND PERIODIC BOUNDARIES ON OUTPUT.
Info: WRAPPING ALL CLUSTERS AROUND PERIODIC BOUNDARIES ON OUTPUT.
Info: FIRST LDB TIMESTEP     50
Info: LAST LDB TIMESTEP     -1
Info: HOM BACKGROUND SCALING 1
Info: PME BACKGROUND SCALING 1
Info: MIN ATOMS PER PATCH    40
Info: EMPTY PATCH LOAD       40 ATOMS
Info: VELOCITY FILE          mobley_2923700_equil.vel
Info: CENTER OF MASS MOVING INITIALLY? NO
Info: DIELECTRIC             1
Info: EXCLUDE                SCALED ONE-FOUR
Info: 1-4 ELECTROSTATICS SCALED BY 0.833333
Info: MODIFIED 1-4 VDW PARAMETERS WILL BE USED
Info: DCD FILENAME           mobley_2923700_prod.dcd
Info: DCD FREQUENCY          100000
Info: DCD FIRST STEP         100000
Info: DCD FILE WILL CONTAIN UNIT CELL DATA
Info: XST FILENAME           mobley_2923700_prod.xst
Info: XST FREQUENCY          100000
Info: NO VELOCITY DCD OUTPUT
Info: NO FORCE DCD OUTPUT
Info: OUTPUT FILENAME        mobley_2923700_prod
Info: BINARY OUTPUT FILES WILL BE USED
Info: RESTART FILENAME       mobley_2923700_prod.restart
Info: RESTART FREQUENCY      100000
Info: BINARY RESTART FILES WILL BE USED
Info: CUTOFF                 9
Info: PAIRLIST DISTANCE      11
Info: PAIRLIST SHRINK RATE   0.01
Info: PAIRLIST GROW RATE     0.01
Info: PAIRLIST TRIGGER       0.3
Info: PAIRLISTS PER CYCLE    2
Info: PAIRLISTS ENABLED
Info: MARGIN                 2
Info: HYDROGEN GROUP CUTOFF  2.5
Info: PATCH DIMENSION        15.5
Info: ENERGY OUTPUT STEPS    100000
Info: ENERGY EVALUATION STEPS    100000
Info: OUTPUT ENERGY PRECISION 4
Info: CROSSTERM ENERGY INCLUDED IN DIHEDRAL
Info: TIMING OUTPUT STEPS    1000000
Info: PRESSURE OUTPUT STEPS  100000
Info: ALCHEMICAL FEP ON
Info: FEP CURRENT LAMBDA VALUE     0
Info: FEP COMPARISON LAMBDA VALUE  0.05
Info: FEP INTRA-ALCHEMICAL NON-BONDED INTERACTIONS WILL BE RETAINED
Info: FEP INTRA-ALCHEMICAL BONDED INTERACTIONS WILL BE RETAINED
Info: FEP VDW SHIFTING COEFFICIENT 5
Info: FEP ELEC. ACTIVE FOR ANNIHILATED PARTICLES BETWEEN LAMBDA = 0 AND LAMBDA = 0.5
Info: FEP ELEC. ACTIVE FOR EXNIHILATED PARTICLES BETWEEN LAMBDA = 0.5 AND LAMBDA = 1
Info: FEP VDW ACTIVE FOR ANNIHILATED PARTICLES BETWEEN LAMBDA = 0 AND LAMBDA = 1
Info: FEP VDW ACTIVE FOR EXNIHILATED PARTICLES BETWEEN LAMBDA = 0 AND LAMBDA = 1
Info: FEP BOND ACTIVE FOR ANNIHILATED PARTICLES BETWEEN LAMBDA = 1 AND LAMBDA = 1
Info: FEP BOND ACTIVE FOR EXNIHILATED PARTICLES BETWEEN LAMBDA = 0 AND LAMBDA = 0
Info: LANGEVIN DYNAMICS ACTIVE
Info: LANGEVIN TEMPERATURE   300
Info: LANGEVIN USING BBK INTEGRATOR
Info: LANGEVIN DAMPING COEFFICIENT IS 1 INVERSE PS
Info: LANGEVIN DYNAMICS APPLIED TO HYDROGENS
Info: LANGEVIN PISTON PRESSURE CONTROL ACTIVE
Info:        TARGET PRESSURE IS 1.01325 BAR
Info:     OSCILLATION PERIOD IS 50 FS
Info:             DECAY TIME IS 25 FS
Info:     PISTON TEMPERATURE IS 300 K
Info:       PRESSURE CONTROL IS GROUP-BASED
Info:    INITIAL STRAIN RATE IS 0.00048215 0.00048215 0.00048215
Info:       CELL FLUCTUATION IS ISOTROPIC
Info: PARTICLE MESH EWALD (PME) ACTIVE
Info: PME TOLERANCE               1e-06
Info: PME EWALD COEFFICIENT       0.348832
Info: PME INTERPOLATION ORDER     4
Info: PME GRID DIMENSIONS         32 32 36
Info: PME MAXIMUM GRID SPACING    1
Info: PME CALCULATION WILL BE PERFORMED ON GPU
Info: FULL ELECTROSTATIC EVALUATION FREQUENCY      2
Info: USING VERLET I (r-RESPA) MTS SCHEME.
Info: C1 SPLITTING OF LONG RANGE ELECTROSTATICS
Info: PLACING ATOMS IN PATCHES BY HYDROGEN GROUPS
Info: RIGID BONDS TO HYDROGEN : ALL
Info:         ERROR TOLERANCE : 1e-08
Info:          MAX ITERATIONS : 100
Info: RIGID WATER USING SETTLE ALGORITHM
Info: RANDOM NUMBER SEED     1743782388
Info: USE HYDROGEN BONDS?    NO
Info: Using AMBER format force field!
Info: AMBER PARM FILE        mobley_2923700.prmtop
Info: COORDINATE PDB         mobley_2923700.pdb
Info: Exclusions will be read from PARM file!
Info: SCNB (VDW SCALING)     2
Info: USING ARITHMETIC MEAN TO COMBINE L-J SIGMA PARAMETERS
Info: BINARY COORDINATES     mobley_2923700_equil.coor
Info: SUMMARY OF PARAMETERS:
Info: 9 BONDS
Info: 9 ANGLES
Info:   9 HARMONIC
Info:   0 COSINE-BASED
Info: 6 DIHEDRAL
Info: 0 IMPROPER
Info: 0 CROSSTERM
Info: 0 VDW
Info: 28 VDW_PAIRS
Info: 0 NBTHOLE_PAIRS
Info: To read alchdata from file: mobley_2923700.pdb
Info: To read alchflag data from column: 5
Info: STRUCTURE SUMMARY:
Info: 2989 ATOMS
Info: 2989 BONDS
Info: 31 ANGLES
Info: 47 DIHEDRALS
Info: 0 IMPROPERS
Info: 0 CROSSTERMS
Info: 3058 EXCLUSIONS
Info: 2980 RIGID BONDS
Info: ALCH: 0 ATOMS TO DISAPPEAR IN FINAL STATE
Info: ALCH: 19 ATOMS TO APPEAR IN FINAL STATE
Info: 5987 DEGREES OF FREEDOM
Info: 999 HYDROGEN GROUPS
Info: 4 ATOMS IN LARGEST HYDROGEN GROUP
Info: 999 MIGRATION GROUPS
Info: 4 ATOMS IN LARGEST MIGRATION GROUP
Info: TOTAL MASS = 17958 amu
Info: TOTAL CHARGE = -9.99607e-05 e
Info: MASS DENSITY = 0.966149 g/cm^3
Info: ATOM DENSITY = 0.0968396 atoms/A^3
Info: ADDED 0 IMPLICIT EXCLUSIONS
Info: NONBONDED TABLE R-SQUARED SPACING: 0.0625
Info: NONBONDED TABLE SIZE: 705 POINTS
Info: REMOVING COM VELOCITY -0.0641832 -0.222266 -0.111859
Info: Use 3D box decompostion in PME FFT.
Info: Updated CUDA force table with 4096 elements.
Info: Updated CUDA LJ table with 7 x 7 elements.
Info: Found 21 unique exclusion lists needing 60 bytes
TCL: Running for 1500000 steps
ETITLE: TS BOND ANGLE DIHED IMPRP ELECT VDW BOUNDARY MISC KINETIC TOTAL TEMP POTENTIAL TOTALAVG TEMPAVG PRESSURE GPRESSURE VOLUME PRESSAVG GPRESSAVG
ENERGY: 0 4.2466 4.7670 2.4603 0.0000 -10858.7521 1487.3837 0.0000 0.0000 1760.4509 -7599.4435 295.9409 -9359.8945 -7599.4435 295.9409 -14.2045 74.0906 30865.4790 -14.2045 74.0906
ENERGY: 300000 1.7489 6.2062 0.9582 0.0000 -10903.7232 1565.7312 0.0000 0.0000 1799.7952 -7529.2835 302.5549 -9329.0787 -7587.8145 298.7331 1062.5323 1122.8378 30194.2923 99.6485 167.3831
ENERGY: 600000 0.3265 5.5410 3.5088 0.0000 -10701.1273 1410.8554 0.0000 0.0000 1731.6926 -7549.2030 291.1065 -9280.8957 -7562.5157 298.5291 -271.6396 -195.3546 30684.1278 49.2622 116.8208
ENERGY: 900000 3.4322 4.4350 2.0120 0.0000 -10823.7838 1504.2310 0.0000 0.0000 1744.8673 -7564.8062 293.3212 -9309.6735 -7579.6170 297.4363 370.9068 510.9609 30671.3890 67.9628 139.9838
ENERGY: 1200000 3.7180 2.6599 6.8765 0.0000 -10951.6665 1534.4105 0.0000 0.0000 1785.2887 -7618.7129 300.1163 -9404.0016 -7584.4214 298.6978 121.7388 180.1938 31059.3128 110.0797 181.4767
ENERGY: 1500000 1.1323 4.7617 5.7599 0.0000 -10946.8628 1493.7068 0.0000 0.0000 1754.4155 -7687.0866 294.9264 -9441.5021 -7596.6991 298.0962 -144.0147 -0.5905 30708.1380 98.0002 168.9566
TCL: Running FEP window   2: Lambda1 0.05   Lambda2 0.1    [dLambda 0.05  ]
TCL: Setting parameter firsttimestep to 0
TCL: Setting parameter alchLambda to 0.05
Info: NONBONDED TABLE R-SQUARED SPACING: 0.0625
Info: NONBONDED TABLE SIZE: 705 POINTS
TCL: Setting parameter alchLambda2 to 0.1
Info: NONBONDED TABLE R-SQUARED SPACING: 0.0625
Info: NONBONDED TABLE SIZE: 705 POINTS
TCL: Running for 1500000 steps
ETITLE: TS BOND ANGLE DIHED IMPRP ELECT VDW BOUNDARY MISC KINETIC TOTAL TEMP POTENTIAL TOTALAVG TEMPAVG PRESSURE GPRESSURE VOLUME PRESSAVG GPRESSAVG
ENERGY: 0 1.1323 4.7617 5.7599 0.0000 -10946.8614 1496.8452 0.0000 0.0000 1753.5077 -7684.8547 294.7737 -9438.3623 -7684.8547 294.7737 -95.9775 9.0621 30708.1380 -95.9775 9.0621
ENERGY: 300000 1.3255 5.6100 1.8877 0.0000 -10810.4626 1441.1216 0.0000 0.0000 1793.2630 -7567.2548 301.4568 -9360.5178 -7629.2505 300.6070 -301.3327 -220.4268 30906.8116 -69.7368 1.6595
ENERGY: 600000 0.9792 4.2763 4.6530 0.0000 -10907.3657 1523.4393 0.0000 0.0000 1851.4441 -7522.5738 311.2374 -9374.0179 -7595.4755 301.4795 461.5569 626.6052 30767.3607 77.2489 166.8918
ENERGY: 900000 3.7797 7.4836 1.8092 0.0000 -10711.4389 1359.1453 0.0000 0.0000 1723.7472 -7615.4738 289.7709 -9339.2211 -7583.9212 300.5043 -1076.6222 -967.2378 31058.3240 -55.4599 22.4429
ENERGY: 1200000 1.5599 4.4469 4.4005 0.0000 -10910.8544 1506.1962 0.0000 0.0000 1875.2446 -7519.0063 315.2384 -9394.2509 -7572.6170 301.9175 276.6171 360.1672 30532.5251 -7.3139 64.1132
ENERGY: 1500000 1.6961 9.7853 2.1417 0.0000 -10867.3922 1504.9325 0.0000 0.0000 1820.4830 -7528.3536 306.0326 -9348.8366 -7581.0030 301.2732 610.0730 623.0297 30259.0727 46.8226 115.5172
TCL: Running FEP window   3: Lambda1 0.1    Lambda2 0.15000000000000002 [dLambda 0.05000000000000002]
TCL: Setting parameter firsttimestep to 0
TCL: Setting parameter alchLambda to 0.1
Info: NONBONDED TABLE R-SQUARED SPACING: 0.0625
Info: NONBONDED TABLE SIZE: 705 POINTS
TCL: Setting parameter alchLambda2 to 0.15000000000000002
Info: NONBONDED TABLE R-SQUARED SPACING: 0.0625
Info: NONBONDED TABLE SIZE: 705 POINTS
TCL: Running for 1500000 steps
ETITLE: TS BOND ANGLE DIHED IMPRP ELECT VDW BOUNDARY MISC KINETIC TOTAL TEMP POTENTIAL TOTALAVG TEMPAVG PRESSURE GPRESSURE VOLUME PRESSAVG GPRESSAVG
ENERGY: 0 1.6961 9.7853 2.1417 0.0000 -10867.3936 1507.6240 0.0000 0.0000 1819.5810 -7526.5656 305.8810 -9346.1466 -7526.5656 305.8810 551.6751 636.9276 30259.0727 551.6751 636.9276
ENERGY: 300000 1.5847 8.0439 1.9590 0.0000 -10827.6903 1405.5141 0.0000 0.0000 1784.4548 -7626.1338 299.9761 -9410.5887 -7574.1261 302.5246 -567.1097 -503.7885 30735.3447 -52.2432 6.4676
ENERGY: 600000 2.7995 7.5159 2.4426 0.0000 -10872.9000 1506.6294 0.0000 0.0000 1798.6181 -7554.8944 302.3570 -9353.5125 -7565.3620 301.3034 162.8726 352.2895 30694.0364 33.3719 121.3444
ENERGY: 900000 2.8860 7.4775 3.6603 0.0000 -10848.3905 1484.1083 0.0000 0.0000 1824.4517 -7525.8066 306.6998 -9350.2583 -7572.0659 300.8202 281.8301 395.3780 30498.2831 42.3104 118.0939
ENERGY: 1200000 1.7154 7.7261 1.3361 0.0000 -10738.6880 1465.0676 0.0000 0.0000 1830.4104 -7432.4323 307.7015 -9262.8428 -7559.1654 301.2663 219.8478 235.7573 30650.0038 80.3954 145.1801
ENERGY: 1500000 3.1705 2.5416 2.8044 0.0000 -10711.3558 1436.1869 0.0000 0.0000 1827.5749 -7439.0776 307.2248 -9266.6525 -7549.9435 301.5835 153.2909 201.6764 30616.6220 -32.3220 35.7198
TCL: Running FEP window   4: Lambda1 0.15000000000000002 Lambda2 0.2    [dLambda 0.04999999999999999]
TCL: Setting parameter firsttimestep to 0
TCL: Setting parameter alchLambda to 0.15000000000000002
Info: NONBONDED TABLE R-SQUARED SPACING: 0.0625
Info: NONBONDED TABLE SIZE: 705 POINTS
TCL: Setting parameter alchLambda2 to 0.2
Info: NONBONDED TABLE R-SQUARED SPACING: 0.0625
Info: NONBONDED TABLE SIZE: 705 POINTS
TCL: Running for 1500000 steps
ETITLE: TS BOND ANGLE DIHED IMPRP ELECT VDW BOUNDARY MISC KINETIC TOTAL TEMP POTENTIAL TOTALAVG TEMPAVG PRESSURE GPRESSURE VOLUME PRESSAVG GPRESSAVG
ENERGY: 0 3.1705 2.5416 2.8044 0.0000 -10711.3565 1437.2290 0.0000 0.0000 1826.6303 -7438.9806 307.0660 -9265.6110 -7438.9806 307.0660 146.2482 209.7807 30616.6220 146.2482 209.7807
ENERGY: 300000 2.5542 13.1230 3.6115 0.0000 -10802.6176 1478.9891 0.0000 0.0000 1850.4214 -7453.9185 311.0654 -9304.3398 -7524.6956 304.2740 249.8868 328.8138 30934.7984 -123.5853 -63.4658
ENERGY: 600000 3.4832 4.4212 4.3122 0.0000 -10791.9516 1407.9908 0.0000 0.0000 1790.2287 -7581.5155 300.9467 -9371.7442 -7546.4075 303.5002 -488.1075 -477.7187 30720.3385 -285.9679 -214.5452
ENERGY: 900000 2.4400 5.3901 3.9837 0.0000 -10845.0912 1460.5388 0.0000 0.0000 1782.3506 -7590.3879 299.6224 -9372.7386 -7551.7135 302.9093 -179.6420 -127.5539 30609.2457 -252.0267 -186.3537
ENERGY: 1200000 4.2547 6.2403 3.8255 0.0000 -10750.3218 1408.5121 0.0000 0.0000 1817.2306 -7510.2586 305.4859 -9327.4893 -7546.2678 302.7109 -474.8554 -459.1005 30969.0911 -261.1371 -206.9628
ENERGY: 1500000 4.8303 6.5121 4.4348 0.0000 -10905.7233 1516.9411 0.0000 0.0000 1770.1245 -7602.8805 297.5671 -9373.0050 -7557.2271 302.1722 358.1465 352.6887 30516.6770 -110.3107 -55.9638
TCL: Running FEP window   5: Lambda1 0.2    Lambda2 0.25   [dLambda 0.04999999999999999]
TCL: Setting parameter firsttimestep to 0
TCL: Setting parameter alchLambda to 0.2
Info: NONBONDED TABLE R-SQUARED SPACING: 0.0625
Info: NONBONDED TABLE SIZE: 705 POINTS
TCL: Setting parameter alchLambda2 to 0.25
Info: NONBONDED TABLE R-SQUARED SPACING: 0.0625
Info: NONBONDED TABLE SIZE: 705 POINTS
TCL: Running for 1500000 steps
ETITLE: TS BOND ANGLE DIHED IMPRP ELECT VDW BOUNDARY MISC KINETIC TOTAL TEMP POTENTIAL TOTALAVG TEMPAVG PRESSURE GPRESSURE VOLUME PRESSAVG GPRESSAVG
ENERGY: 0 4.8303 6.5121 4.4348 0.0000 -10905.7209 1518.0440 0.0000 0.0000 1769.2216 -7602.6781 297.4153 -9371.8997 -7602.6781 297.4153 284.6431 360.3012 30516.6770 284.6431 360.3012
ENERGY: 300000 4.3915 7.5930 3.0425 0.0000 -10756.6627 1451.3036 0.0000 0.0000 1806.6621 -7483.6699 303.7093 -9290.3321 -7577.7669 300.0955 312.6810 328.3206 30445.6059 265.3788 310.5378
ENERGY: 600000 2.8590 6.5869 2.8040 0.0000 -10788.1589 1507.4934 0.0000 0.0000 1848.4084 -7420.0073 310.7271 -9268.4157 -7544.7445 302.6141 546.2465 668.8399 30760.9963 486.4090 552.8175
ENERGY: 900000 2.4385 7.4422 2.6359 0.0000 -10885.0406 1481.9444 0.0000 0.0000 1790.0863 -7600.4932 300.9228 -9390.5796 -7561.2141 301.5467 -134.5280 -104.4586 31129.5922 248.8550 302.0652
ENERGY: 1200000 1.3340 9.2456 3.4292 0.0000 -10852.9599 1504.2983 0.0000 0.0000 1793.4492 -7541.2036 301.4881 -9334.6528 -7568.3027 300.5360 222.8615 280.4590 30704.4661 168.1080 222.7397
ENERGY: 1500000 4.0839 4.8723 2.8710 0.0000 -10871.3961 1447.6835 0.0000 0.0000 1777.4545 -7634.4309 298.7993 -9411.8854 -7566.6703 301.2142 -186.5152 -153.7443 30340.0493 136.3243 192.6118
TCL: Running FEP window   6: Lambda1 0.25   Lambda2 0.3    [dLambda 0.04999999999999999]
TCL: Setting parameter firsttimestep to 0
TCL: Setting parameter alchLambda to 0.25
Info: NONBONDED TABLE R-SQUARED SPACING: 0.0625
Info: NONBONDED TABLE SIZE: 705 POINTS
TCL: Setting parameter alchLambda2 to 0.3
Info: NONBONDED TABLE R-SQUARED SPACING: 0.0625
Info: NONBONDED TABLE SIZE: 705 POINTS
TCL: Running for 1500000 steps
ETITLE: TS BOND ANGLE DIHED IMPRP ELECT VDW BOUNDARY MISC KINETIC TOTAL TEMP POTENTIAL TOTALAVG TEMPAVG PRESSURE GPRESSURE VOLUME PRESSAVG GPRESSAVG
ENERGY: 0 4.0839 4.8723 2.8710 0.0000 -10871.3951 1447.5380 0.0000 0.0000 1776.5701 -7635.4597 298.6507 -9412.0299 -7635.4597 298.6507 -242.1345 -150.9053 30340.0493 -242.1345 -150.9053
ENERGY: 300000 3.6734 5.1444 3.3607 0.0000 -10818.2639 1442.4190 0.0000 0.0000 1854.2092 -7509.4573 311.7022 -9363.6665 -7574.0093 303.3124 47.9100 100.8818 30370.0009 282.4977 370.4324
ENERGY: 600000 6.6818 4.1835 4.4273 0.0000 -10621.1677 1294.3040 0.0000 0.0000 1824.6748 -7486.8964 306.7373 -9311.5712 -7542.8310 302.2413 -1591.9188 -1507.5296 31278.5799 -18.9172 68.8162
ENERGY: 900000 0.5214 5.0125 2.4834 0.0000 -10779.4470 1459.4424 0.0000 0.0000 1843.4642 -7468.5232 309.8959 -9311.9874 -7532.8436 303.3319 194.1314 167.8014 30749.3319 8.3835 80.5099
ENERGY: 1200000 1.3301 6.6339 2.1248 0.0000 -10684.7127 1413.2603 0.0000 0.0000 1791.7610 -7469.6026 301.2043 -9261.3636 -7543.7553 301.9002 69.3646 126.5814 30735.5278 -58.9331 10.5171
ENERGY: 1500000 3.7204 7.5179 4.0730 0.0000 -10900.6253 1598.5531 0.0000 0.0000 1808.5415 -7478.2195 304.0252 -9286.7610 -7540.4788 302.0467 1241.0630 1246.7328 30731.9123 46.4231 108.0631
TCL: Running FEP window   7: Lambda1 0.3    Lambda2 0.35   [dLambda 0.04999999999999999]
TCL: Setting parameter firsttimestep to 0
TCL: Setting parameter alchLambda to 0.3
Info: NONBONDED TABLE R-SQUARED SPACING: 0.0625
Info: NONBONDED TABLE SIZE: 705 POINTS
TCL: Setting parameter alchLambda2 to 0.35
Info: NONBONDED TABLE R-SQUARED SPACING: 0.0625
Info: NONBONDED TABLE SIZE: 705 POINTS
TCL: Running for 1500000 steps
ETITLE: TS BOND ANGLE DIHED IMPRP ELECT VDW BOUNDARY MISC KINETIC TOTAL TEMP POTENTIAL TOTALAVG TEMPAVG PRESSURE GPRESSURE VOLUME PRESSAVG GPRESSAVG
ENERGY: 0 3.7204 7.5179 4.0730 0.0000 -10900.6247 1598.5693 0.0000 0.0000 1807.6024 -7479.1417 303.8673 -9286.7441 -7479.1417 303.8673 1172.9223 1252.0052 30731.9123 1172.9223 1252.0052
ENERGY: 300000 4.3129 5.9326 4.9027 0.0000 -10785.7105 1383.0057 0.0000 0.0000 1770.2002 -7617.3564 297.5798 -9387.5566 -7580.6456 295.8289 -775.1188 -706.6365 30445.1142 44.7160 129.3187
ENERGY: 600000 2.2705 8.5604 1.3512 0.0000 -10943.8192 1568.0412 0.0000 0.0000 1861.6703 -7501.9256 312.9564 -9363.5959 -7548.2185 301.1997 961.2823 1035.6268 30504.7350 174.6548 251.2816
ENERGY: 900000 1.0191 7.5457 4.0387 0.0000 -10666.8467 1351.3539 0.0000 0.0000 1777.6591 -7525.2302 298.8337 -9302.8893 -7561.5945 300.6162 -824.6270 -763.6674 31182.0837 -61.6891 9.0907
ENERGY: 1200000 5.1133 6.0243 4.1935 0.0000 -10830.1042 1452.8596 0.0000 0.0000 1790.0301 -7571.8834 300.9133 -9361.9135 -7564.6343 300.6124 -376.1690 -286.2245 30942.6529 -155.6121 -77.3180
ENERGY: 1500000 4.2003 5.5391 3.1521 0.0000 -10868.0346 1494.4573 0.0000 0.0000 1862.3551 -7498.3306 313.0716 -9360.6857 -7561.9001 301.1796 459.4553 514.8029 30402.4397 -124.4972 -46.5028
TCL: Running FEP window   8: Lambda1 0.35   Lambda2 0.39999999999999997 [dLambda 0.04999999999999999]
TCL: Setting parameter firsttimestep to 0
TCL: Setting parameter alchLambda to 0.35
Info: NONBONDED TABLE R-SQUARED SPACING: 0.0625
Info: NONBONDED TABLE SIZE: 705 POINTS
TCL: Setting parameter alchLambda2 to 0.39999999999999997
Info: NONBONDED TABLE R-SQUARED SPACING: 0.0625
Info: NONBONDED TABLE SIZE: 705 POINTS
TCL: Running for 1500000 steps
ETITLE: TS BOND ANGLE DIHED IMPRP ELECT VDW BOUNDARY MISC KINETIC TOTAL TEMP POTENTIAL TOTALAVG TEMPAVG PRESSURE GPRESSURE VOLUME PRESSAVG GPRESSAVG
ENERGY: 0 4.2004 5.5391 3.1521 0.0000 -10868.0336 1494.4402 0.0000 0.0000 1861.4671 -7499.2348 312.9223 -9360.7018 -7499.2348 312.9223 434.1551 519.4023 30402.4397 434.1551 519.4023
ENERGY: 300000 4.3424 10.3094 3.1363 0.0000 -10878.1696 1483.3309 0.0000 0.0000 1788.7885 -7588.2622 300.7046 -9377.0507 -7519.5667 305.9999 -136.1326 -65.5105 31035.2847 -11.6105 69.6635
ENERGY: 600000 2.5794 4.5772 5.9921 0.0000 -10880.7282 1460.3751 0.0000 0.0000 1773.1257 -7634.0786 298.0716 -9407.2044 -7551.9834 301.6777 27.6933 94.0478 30609.0011 1.3615 63.6661
ENERGY: 900000 2.5988 5.1668 1.5556 0.0000 -10951.1495 1502.3160 0.0000 0.0000 1793.6135 -7645.8988 301.5157 -9439.5123 -7566.1165 300.9238 -30.0265 79.9734 30786.1446 -66.5802 8.1470
ENERGY: 1200000 1.6038 12.1289 9.4237 0.0000 -10859.5113 1501.3634 0.0000 0.0000 1855.1760 -7479.8154 311.8647 -9334.9914 -7572.7750 300.7341 158.4440 218.8971 31051.2220 10.3889 82.1627
ENERGY: 1500000 4.6539 4.1988 5.2237 0.0000 -10835.4724 1422.5813 0.0000 0.0000 1786.9337 -7611.8810 300.3928 -9398.8147 -7566.6084 301.6750 -662.0136 -529.3152 30799.4966 -48.7176 25.7812
TCL: Running FEP window   9: Lambda1 0.39999999999999997 Lambda2 0.44999999999999996 [dLambda 0.04999999999999999]
TCL: Setting parameter firsttimestep to 0
TCL: Setting parameter alchLambda to 0.39999999999999997
Info: NONBONDED TABLE R-SQUARED SPACING: 0.0625
Info: NONBONDED TABLE SIZE: 705 POINTS
TCL: Setting parameter alchLambda2 to 0.44999999999999996
Info: NONBONDED TABLE R-SQUARED SPACING: 0.0625
Info: NONBONDED TABLE SIZE: 705 POINTS
TCL: Running for 1500000 steps
ETITLE: TS BOND ANGLE DIHED IMPRP ELECT VDW BOUNDARY MISC KINETIC TOTAL TEMP POTENTIAL TOTALAVG TEMPAVG PRESSURE GPRESSURE VOLUME PRESSAVG GPRESSAVG
ENERGY: 0 4.6539 4.1988 5.2237 0.0000 -10835.4710 1422.2642 0.0000 0.0000 1786.0438 -7613.0866 300.2432 -9399.1304 -7613.0866 300.2432 -603.0420 -526.9818 30799.4966 -603.0420 -526.9818
ENERGY: 300000 3.7415 4.7713 2.7803 0.0000 -10796.9813 1382.7497 0.0000 0.0000 1778.2721 -7624.6666 298.9368 -9402.9387 -7605.2245 302.3724 -756.4363 -671.5220 30867.5127 -485.3346 -433.8187
ENERGY: 600000 3.3108 9.6421 5.3621 0.0000 -10760.6291 1376.9131 0.0000 0.0000 1801.3509 -7564.0502 302.8164 -9365.4011 -7614.4224 300.6093 -855.5253 -746.9499 30921.7614 -398.5717 -341.0806
ENERGY: 900000 2.0728 6.4370 1.7515 0.0000 -10971.0799 1566.6178 0.0000 0.0000 1744.2344 -7649.9662 293.2149 -9394.2007 -7607.7386 299.6347 815.6746 816.1259 30450.1067 -407.1717 -352.7735
ENERGY: 1200000 4.8034 6.2454 3.2738 0.0000 -10832.7969 1466.5915 0.0000 0.0000 1778.6167 -7573.2661 298.9947 -9351.8828 -7599.4717 299.1734 65.5396 161.6339 30701.6126 -437.6783 -381.5225
ENERGY: 1500000 3.4823 6.0644 3.4581 0.0000 -10821.1940 1471.9317 0.0000 0.0000 1728.2257 -7608.0319 290.5237 -9336.2576 -7597.8842 298.7196 -113.4496 -40.4327 30816.3982 -393.3307 -333.4937
TCL: Running FEP window  10: Lambda1 0.44999999999999996 Lambda2 0.49999999999999994 [dLambda 0.04999999999999999]
TCL: Setting parameter firsttimestep to 0
TCL: Setting parameter alchLambda to 0.44999999999999996
Info: NONBONDED TABLE R-SQUARED SPACING: 0.0625
Info: NONBONDED TABLE SIZE: 705 POINTS
TCL: Setting parameter alchLambda2 to 0.49999999999999994
Info: NONBONDED TABLE R-SQUARED SPACING: 0.0625
Info: NONBONDED TABLE SIZE: 705 POINTS
TCL: Running for 1500000 steps
ETITLE: TS BOND ANGLE DIHED IMPRP ELECT VDW BOUNDARY MISC KINETIC TOTAL TEMP POTENTIAL TOTALAVG TEMPAVG PRESSURE GPRESSURE VOLUME PRESSAVG GPRESSAVG
ENERGY: 0 3.4823 6.0643 3.4581 0.0000 -10821.1939 1472.5802 0.0000 0.0000 1727.3281 -7608.2809 290.3728 -9335.6091 -7608.2809 290.3728 -108.9778 -28.0940 30816.3982 -108.9778 -28.0940
ENERGY: 300000 1.6739 5.6456 4.9852 0.0000 -10601.4291 1344.1739 0.0000 0.0000 1770.9933 -7473.9573 297.7132 -9244.9506 -7566.5533 297.2084 -594.2761 -528.0784 30937.1415 -34.6312 59.4934
ENERGY: 600000 4.8729 3.6602 5.7445 0.0000 -10907.5910 1474.9136 0.0000 0.0000 1791.7277 -7626.6720 301.1987 -9418.3997 -7579.5828 297.4093 -227.7896 -192.4678 30535.5875 -60.2302 27.4180
ENERGY: 900000 4.9773 6.5529 3.0173 0.0000 -10633.8150 1280.0854 0.0000 0.0000 1763.9878 -7575.1943 296.5355 -9339.1821 -7564.1951 298.4959 -1273.6549 -1224.9678 30675.8638 -185.8090 -110.4058
ENERGY: 1200000 3.2857 4.6021 2.9801 0.0000 -10783.3925 1457.8227 0.0000 0.0000 1813.0811 -7501.6208 304.7884 -9314.7019 -7552.1235 299.2110 164.1650 218.9922 30506.4720 -165.5820 -93.6932
ENERGY: 1500000 3.4286 4.6074 4.6795 0.0000 -10899.3291 1489.0253 0.0000 0.0000 1759.4199 -7638.1686 295.7676 -9397.5884 -7563.7534 298.5486 365.6850 462.1537 30145.3153 -151.2706 -75.9760
TCL: Running FEP window  11: Lambda1 0.49999999999999994 Lambda2 0.5499999999999999 [dLambda 0.04999999999999999]
TCL: Setting parameter firsttimestep to 0
TCL: Setting parameter alchLambda to 0.49999999999999994
Info: NONBONDED TABLE R-SQUARED SPACING: 0.0625
Info: NONBONDED TABLE SIZE: 705 POINTS
TCL: Setting parameter alchLambda2 to 0.5499999999999999
Info: NONBONDED TABLE R-SQUARED SPACING: 0.0625
Info: NONBONDED TABLE SIZE: 705 POINTS
TCL: Running for 1500000 steps
ETITLE: TS BOND ANGLE DIHED IMPRP ELECT VDW BOUNDARY MISC KINETIC TOTAL TEMP POTENTIAL TOTALAVG TEMPAVG PRESSURE GPRESSURE VOLUME PRESSAVG GPRESSAVG
ENERGY: 0 3.4286 4.6074 4.6795 0.0000 -10899.3280 1488.7271 0.0000 0.0000 1758.5453 -7639.3403 295.6206 -9397.8855 -7639.3403 295.6206 379.4092 467.0018 30145.3153 379.4092 467.0018
ENERGY: 300000 5.3182 7.2410 3.8919 0.0000 -10849.5019 1436.8317 0.0000 0.0000 1771.1245 -7625.0947 297.7352 -9396.2192 -7581.3298 300.4926 -364.8663 -309.0437 30707.1534 10.3914 76.4339
ENERGY: 600000 4.7112 4.9633 1.3878 0.0000 -10765.8890 1467.3471 0.0000 0.0000 1810.7844 -7476.6952 304.4023 -9287.4796 -7597.6925 299.3685 127.9619 201.9395 30678.0061 -35.3649 34.9996
ENERGY: 900000 5.6811 5.6209 3.8495 0.0000 -10869.2921 1461.1105 0.0000 0.0000 1837.3445 -7555.6856 308.8672 -9393.0301 -7596.7442 300.2525 -235.8943 -141.6860 30554.4899 -46.6663 24.8511
ENERGY: 1200000 1.9042 7.5001 3.1694 0.0000 -10769.2503 1465.1263 0.0000 0.0000 1764.3998 -7527.1506 296.6048 -9291.5504 -7567.2654 301.2200 122.8547 174.6759 31015.8330 -26.4432 40.1752
ENERGY: 1500000 1.5901 5.1630 2.1831 0.0000 -10864.6591 1463.3123 0.0000 0.0000 1797.7063 -7594.7042 302.2038 -9392.4105 -7564.7724 301.2093 123.4545 181.2760 30153.1490 -104.6077 -36.1928
TCL: Running FEP window  12: Lambda1 0.5499999999999999 Lambda2 0.6    [dLambda 0.050000000000000044]
TCL: Setting parameter firsttimestep to 0
TCL: Setting parameter alchLambda to 0.5499999999999999
Info: NONBONDED TABLE R-SQUARED SPACING: 0.0625
Info: NONBONDED TABLE SIZE: 705 POINTS
TCL: Setting parameter alchLambda2 to 0.6
Info: NONBONDED TABLE R-SQUARED SPACING: 0.0625
Info: NONBONDED TABLE SIZE: 705 POINTS
TCL: Running for 1500000 steps
ETITLE: TS BOND ANGLE DIHED IMPRP ELECT VDW BOUNDARY MISC KINETIC TOTAL TEMP POTENTIAL TOTALAVG TEMPAVG PRESSURE GPRESSURE VOLUME PRESSAVG GPRESSAVG
ENERGY: 0 1.5901 5.1630 2.1831 0.0000 -10864.9452 1463.8622 0.0000 0.0000 1796.8113 -7595.3355 302.0533 -9392.1468 -7595.3355 302.0533 116.0217 192.4531 30153.1490 116.0217 192.4531
ENERGY: 300000 4.5637 6.9497 2.6065 0.0000 -10859.8716 1528.7351 0.0000 0.0000 1809.4646 -7507.5519 304.1804 -9317.0166 -7527.3190 299.3728 710.2695 737.9500 30726.0455 129.5708 193.5262
ENERGY: 600000 3.1778 5.8394 2.1002 0.0000 -10904.7125 1395.3906 0.0000 0.0000 1736.3681 -7761.8364 291.8925 -9498.2045 -7569.3550 299.0308 -861.0002 -866.8048 30811.9110 -177.8251 -115.9048
ENERGY: 900000 1.6242 8.6104 2.8448 0.0000 -10891.6957 1466.7531 0.0000 0.0000 1746.1385 -7665.7247 293.5349 -9411.8632 -7571.1795 298.6956 -153.8855 -138.1029 30825.0168 -144.0220 -77.9946
ENERGY: 1200000 1.3866 7.0765 2.7010 0.0000 -10886.8998 1493.3326 0.0000 0.0000 1761.1416 -7621.2614 296.0571 -9382.4031 -7567.2386 299.3383 49.4844 230.2217 30899.5016 -185.9202 -108.7996
ENERGY: 1500000 2.2386 4.5388 3.2220 0.0000 -10883.4133 1455.3895 0.0000 0.0000 1811.1574 -7606.8670 304.4650 -9418.0243 -7574.6424 298.9647 243.3377 339.0284 29683.3667 -105.8738 -32.8443
TCL: Running FEP window  13: Lambda1 0.6    Lambda2 0.65   [dLambda 0.050000000000000044]
TCL: Setting parameter firsttimestep to 0
TCL: Setting parameter alchLambda to 0.6
Info: NONBONDED TABLE R-SQUARED SPACING: 0.0625
Info: NONBONDED TABLE SIZE: 705 POINTS
TCL: Setting parameter alchLambda2 to 0.65
Info: NONBONDED TABLE R-SQUARED SPACING: 0.0625
Info: NONBONDED TABLE SIZE: 705 POINTS
TCL: Running for 1500000 steps
ETITLE: TS BOND ANGLE DIHED IMPRP ELECT VDW BOUNDARY MISC KINETIC TOTAL TEMP POTENTIAL TOTALAVG TEMPAVG PRESSURE GPRESSURE VOLUME PRESSAVG GPRESSAVG
ENERGY: 0 2.2386 4.5388 3.2220 0.0000 -10883.8150 1456.4883 0.0000 0.0000 1810.2785 -7607.0488 304.3172 -9417.3273 -7607.0488 304.3172 278.3155 359.4891 29683.3667 278.3155 359.4891
ENERGY: 300000 1.9687 12.2458 2.3638 0.0000 -10938.5795 1463.9772 0.0000 0.0000 1801.3807 -7656.6434 302.8215 -9458.0241 -7585.8256 303.6876 -201.3636 -140.6706 30664.3418 222.7991 316.5720
ENERGY: 600000 3.6064 7.9781 3.7562 0.0000 -10826.1195 1484.2989 0.0000 0.0000 1824.2788 -7502.2011 306.6707 -9326.4799 -7543.7339 304.6839 117.9841 133.7054 31034.8246 44.4660 110.7822
ENERGY: 900000 5.8112 7.5813 4.7934 0.0000 -10775.5232 1492.0996 0.0000 0.0000 1826.6894 -7438.5484 307.0760 -9265.2378 -7535.4241 304.7108 435.5000 506.1312 30873.7856 126.6636 189.7943
ENERGY: 1200000 1.8595 8.0666 2.3621 0.0000 -10771.6581 1472.2048 0.0000 0.0000 1788.8397 -7498.3254 300.7132 -9287.1651 -7530.2531 304.6558 379.5906 456.0188 30651.7350 140.6564 203.6428
ENERGY: 1500000 4.6145 4.1506 1.7874 0.0000 -10793.6990 1416.4583 0.0000 0.0000 1750.4078 -7616.2805 294.2526 -9366.6883 -7541.7524 303.0947 -729.3792 -640.2298 31085.6466 60.4758 125.2242
TCL: Running FEP window  14: Lambda1 0.65   Lambda2 0.7000000000000001 [dLambda 0.050000000000000044]
TCL: Setting parameter firsttimestep to 0
TCL: Setting parameter alchLambda to 0.65
Info: NONBONDED TABLE R-SQUARED SPACING: 0.0625
Info: NONBONDED TABLE SIZE: 705 POINTS
TCL: Setting parameter alchLambda2 to 0.7000000000000001
Info: NONBONDED TABLE R-SQUARED SPACING: 0.0625
Info: NONBONDED TABLE SIZE: 705 POINTS
TCL: Running for 1500000 steps
ETITLE: TS BOND ANGLE DIHED IMPRP ELECT VDW BOUNDARY MISC KINETIC TOTAL TEMP POTENTIAL TOTALAVG TEMPAVG PRESSURE GPRESSURE VOLUME PRESSAVG GPRESSAVG
ENERGY: 0 4.6145 4.1506 1.7874 0.0000 -10793.5845 1416.5727 0.0000 0.0000 1749.5450 -7616.9143 294.1076 -9366.4593 -7616.9143 294.1076 -710.9367 -633.3783 31085.6466 -710.9367 -633.3783
ENERGY: 300000 3.1863 4.6708 6.3965 0.0000 -10889.9342 1427.8409 0.0000 0.0000 1779.9319 -7667.9079 299.2158 -9447.8397 -7586.8194 299.1643 -455.9004 -420.2146 30742.4310 -197.3274 -124.5414
ENERGY: 600000 3.9426 10.2183 4.5092 0.0000 -10870.3893 1471.0306 0.0000 0.0000 1820.9264 -7559.7622 306.1072 -9380.6887 -7608.5361 300.3312 30.5183 169.3428 30488.2139 -90.4638 -12.2808
ENERGY: 900000 2.8613 3.6268 2.5572 0.0000 -10682.8412 1399.3687 0.0000 0.0000 1781.4931 -7492.9341 299.4782 -9274.4272 -7595.8553 300.1376 80.5288 109.4839 30668.1050 81.8456 145.1794
ENERGY: 1200000 4.3978 6.6837 1.9273 0.0000 -10840.8407 1433.5762 0.0000 0.0000 1842.7317 -7551.5241 309.7728 -9394.2557 -7593.3266 300.8006 -412.8623 -312.6973 30675.3322 32.0123 104.3317
ENERGY: 1500000 4.5463 6.2240 3.7741 0.0000 -10718.7879 1364.3156 0.0000 0.0000 1768.1997 -7571.7282 297.2435 -9339.9279 -7592.9204 299.4069 -735.1751 -585.5912 30686.3162 -14.1081 62.3251
TCL: Running FEP window  15: Lambda1 0.7000000000000001 Lambda2 0.7500000000000001 [dLambda 0.050000000000000044]
TCL: Setting parameter firsttimestep to 0
TCL: Setting parameter alchLambda to 0.7000000000000001
Info: NONBONDED TABLE R-SQUARED SPACING: 0.0625
Info: NONBONDED TABLE SIZE: 705 POINTS
TCL: Setting parameter alchLambda2 to 0.7500000000000001
Info: NONBONDED TABLE R-SQUARED SPACING: 0.0625
Info: NONBONDED TABLE SIZE: 705 POINTS
TCL: Running for 1500000 steps
ETITLE: TS BOND ANGLE DIHED IMPRP ELECT VDW BOUNDARY MISC KINETIC TOTAL TEMP POTENTIAL TOTALAVG TEMPAVG PRESSURE GPRESSURE VOLUME PRESSAVG GPRESSAVG
ENERGY: 0 4.5463 6.2240 3.7741 0.0000 -10719.6438 1364.3738 0.0000 0.0000 1767.2914 -7573.4342 297.0909 -9340.7256 -7573.4342 297.0909 -654.6838 -576.7138 30686.3162 -654.6838 -576.7138
ENERGY: 300000 1.5384 6.7411 2.7729 0.0000 -10914.5773 1527.4886 0.0000 0.0000 1786.4616 -7589.5747 300.3135 -9376.0364 -7559.1419 299.4386 265.8120 307.2488 31004.9899 -5.0283 51.2409
ENERGY: 600000 2.2716 6.5200 2.5838 0.0000 -10669.9854 1285.5031 0.0000 0.0000 1817.1844 -7555.9225 305.4781 -9373.1069 -7578.4590 300.9207 -1157.1755 -1055.4768 30691.2051 -70.1357 -4.2791
ENERGY: 900000 5.6302 4.3585 2.6427 0.0000 -10736.2554 1390.3619 0.0000 0.0000 1773.7851 -7559.4770 298.1825 -9333.2621 -7576.3403 300.4018 -684.6345 -584.6560 31294.8742 -234.0620 -160.3622
ENERGY: 1200000 1.6903 5.7011 4.6508 0.0000 -10637.6886 1366.7414 0.0000 0.0000 1800.0315 -7458.8735 302.5946 -9258.9049 -7565.6383 299.9417 -394.4007 -264.8379 31144.9489 -260.4911 -176.5498
ENERGY: 1500000 3.4366 8.6207 4.2315 0.0000 -10868.2308 1473.7225 0.0000 0.0000 1778.5085 -7599.7110 298.9765 -9378.2194 -7561.6773 300.1654 243.9307 280.1569 30497.7336 -202.5515 -122.5447
TCL: Running FEP window  16: Lambda1 0.7500000000000001 Lambda2 0.8000000000000002 [dLambda 0.050000000000000044]
TCL: Setting parameter firsttimestep to 0
TCL: Setting parameter alchLambda to 0.7500000000000001
Info: NONBONDED TABLE R-SQUARED SPACING: 0.0625
Info: NONBONDED TABLE SIZE: 705 POINTS
TCL: Setting parameter alchLambda2 to 0.8000000000000002
Info: NONBONDED TABLE R-SQUARED SPACING: 0.0625
Info: NONBONDED TABLE SIZE: 705 POINTS
TCL: Running for 1500000 steps
ETITLE: TS BOND ANGLE DIHED IMPRP ELECT VDW BOUNDARY MISC KINETIC TOTAL TEMP POTENTIAL TOTALAVG TEMPAVG PRESSURE GPRESSURE VOLUME PRESSAVG GPRESSAVG
ENERGY: 0 3.4366 8.6207 4.2315 0.0000 -10869.6927 1475.7243 0.0000 0.0000 1777.6294 -7600.0502 298.8287 -9377.6796 -7600.0502 298.8287 213.3307 303.2575 30497.7336 213.3307 303.2575
ENERGY: 300000 2.4776 9.5348 2.9568 0.0000 -10710.4298 1394.1649 0.0000 0.0000 1826.7760 -7474.5196 307.0905 -9301.2956 -7562.8870 301.0904 -377.5408 -288.6464 30695.2708 19.4033 106.8904
ENERGY: 600000 0.9713 4.1415 3.8833 0.0000 -10917.9616 1549.6007 0.0000 0.0000 1791.6793 -7567.6855 301.1906 -9359.3648 -7580.5686 300.9315 612.3642 750.5691 30885.3822 -39.4511 52.8017
ENERGY: 900000 2.4722 5.6105 3.8449 0.0000 -10911.1086 1553.5289 0.0000 0.0000 1759.8502 -7585.8019 295.8400 -9345.6521 -7580.7777 300.9905 930.2506 943.8703 30570.9632 -51.0562 32.9238
ENERGY: 1200000 3.5365 6.2349 2.7630 0.0000 -10941.1934 1530.1948 0.0000 0.0000 1820.2065 -7578.2577 305.9862 -9398.4642 -7578.6909 301.6393 400.7516 542.3319 30844.9590 -26.0590 60.2619
ENERGY: 1500000 1.1199 4.1812 5.5561 0.0000 -10833.3011 1462.1756 0.0000 0.0000 1719.5168 -7640.7515 289.0597 -9360.2683 -7584.1394 300.9137 -16.3623 52.1716 30690.5046 -19.7246 63.7145
TCL: Running FEP window  17: Lambda1 0.8000000000000002 Lambda2 0.8500000000000002 [dLambda 0.050000000000000044]
TCL: Setting parameter firsttimestep to 0
TCL: Setting parameter alchLambda to 0.8000000000000002
Info: NONBONDED TABLE R-SQUARED SPACING: 0.0625
Info: NONBONDED TABLE SIZE: 705 POINTS
TCL: Setting parameter alchLambda2 to 0.8500000000000002
Info: NONBONDED TABLE R-SQUARED SPACING: 0.0625
Info: NONBONDED TABLE SIZE: 705 POINTS
TCL: Running for 1500000 steps
ETITLE: TS BOND ANGLE DIHED IMPRP ELECT VDW BOUNDARY MISC KINETIC TOTAL TEMP POTENTIAL TOTALAVG TEMPAVG PRESSURE GPRESSURE VOLUME PRESSAVG GPRESSAVG
ENERGY: 0 1.1199 4.1812 5.5561 0.0000 -10835.5310 1463.2178 0.0000 0.0000 1718.6060 -7642.8500 288.9066 -9361.4560 -7642.8500 288.9066 -20.6819 66.3789 30690.5046 -20.6819 66.3789
ENERGY: 300000 2.2745 9.2881 4.3765 0.0000 -10861.7393 1519.4209 0.0000 0.0000 1834.2380 -7492.1413 308.3449 -9326.3793 -7521.7229 304.1893 980.3404 1000.4556 30337.3044 508.8955 554.5586
ENERGY: 600000 3.4297 8.2211 5.2596 0.0000 -10800.8450 1439.0722 0.0000 0.0000 1742.9155 -7601.9470 292.9931 -9344.8624 -7559.7046 300.9250 -126.7909 -26.3849 30782.8518 183.3200 242.8189
ENERGY: 900000 1.8906 7.9345 4.0742 0.0000 -10784.8768 1407.0000 0.0000 0.0000 1736.5648 -7627.4126 291.9256 -9363.9775 -7567.8724 300.4803 -444.2190 -392.5129 30919.8163 -27.7861 30.3554
ENERGY: 1200000 2.2277 7.7036 3.3834 0.0000 -10912.5009 1466.5251 0.0000 0.0000 1804.0962 -7628.5650 303.2779 -9432.6611 -7571.7367 300.1808 33.4896 89.6590 30369.3353 -28.1115 27.6605
ENERGY: 1500000 5.4122 9.4311 0.7572 0.0000 -10860.1709 1513.5282 0.0000 0.0000 1791.9672 -7539.0751 301.2390 -9331.0423 -7568.5394 300.9502 402.7676 511.0691 31182.5645 -32.5124 30.6326
TCL: Running FEP window  18: Lambda1 0.8500000000000002 Lambda2 0.9000000000000002 [dLambda 0.050000000000000044]
TCL: Setting parameter firsttimestep to 0
TCL: Setting parameter alchLambda to 0.8500000000000002
Info: NONBONDED TABLE R-SQUARED SPACING: 0.0625
Info: NONBONDED TABLE SIZE: 705 POINTS
TCL: Setting parameter alchLambda2 to 0.9000000000000002
Info: NONBONDED TABLE R-SQUARED SPACING: 0.0625
Info: NONBONDED TABLE SIZE: 705 POINTS
TCL: Running for 1500000 steps
ETITLE: TS BOND ANGLE DIHED IMPRP ELECT VDW BOUNDARY MISC KINETIC TOTAL TEMP POTENTIAL TOTALAVG TEMPAVG PRESSURE GPRESSURE VOLUME PRESSAVG GPRESSAVG
ENERGY: 0 5.4121 9.4311 0.7572 0.0000 -10861.5934 1514.1661 0.0000 0.0000 1791.0488 -7540.7780 301.0846 -9331.8268 -7540.7780 301.0846 433.6109 520.4210 31182.5645 433.6109 520.4210
ENERGY: 300000 2.9623 6.9579 2.6781 0.0000 -10889.5496 1517.5241 0.0000 0.0000 1833.9472 -7525.4800 308.2960 -9359.4272 -7539.1651 302.9960 596.0652 620.0059 31195.3713 201.8779 239.4173
ENERGY: 600000 5.1165 4.8216 3.5236 0.0000 -10725.6439 1408.3697 0.0000 0.0000 1787.2907 -7516.5218 300.4528 -9303.8125 -7542.9540 301.0763 -273.7008 -225.5411 31421.7639 89.2412 116.9970
ENERGY: 900000 1.8817 7.9237 1.8829 0.0000 -10691.6609 1328.4529 0.0000 0.0000 1828.7010 -7522.8185 307.4141 -9351.5195 -7556.6264 302.0141 -1065.7361 -968.0521 31113.6208 -75.1993 -29.4819
ENERGY: 1200000 3.4506 10.7630 5.1700 0.0000 -10733.3529 1358.2848 0.0000 0.0000 1769.7939 -7585.8905 297.5115 -9355.6844 -7565.6463 302.0855 -723.4301 -631.0158 30885.7183 -144.3719 -92.7312
ENERGY: 1500000 1.3416 5.4529 3.2954 0.0000 -10577.7050 1289.8028 0.0000 0.0000 1720.5298 -7557.2823 289.2300 -9277.8122 -7575.1003 300.8487 -1371.3755 -1315.4665 31258.9910 -242.1535 -186.2014
TCL: Running FEP window  19: Lambda1 0.9000000000000002 Lambda2 0.9500000000000003 [dLambda 0.050000000000000044]
TCL: Setting parameter firsttimestep to 0
TCL: Setting parameter alchLambda to 0.9000000000000002
Info: NONBONDED TABLE R-SQUARED SPACING: 0.0625
Info: NONBONDED TABLE SIZE: 705 POINTS
TCL: Setting parameter alchLambda2 to 0.9500000000000003
Info: NONBONDED TABLE R-SQUARED SPACING: 0.0625
Info: NONBONDED TABLE SIZE: 705 POINTS
TCL: Running for 1500000 steps
ETITLE: TS BOND ANGLE DIHED IMPRP ELECT VDW BOUNDARY MISC KINETIC TOTAL TEMP POTENTIAL TOTALAVG TEMPAVG PRESSURE GPRESSURE VOLUME PRESSAVG GPRESSAVG
ENERGY: 0 1.3416 5.4529 3.2954 0.0000 -10579.8495 1290.3903 0.0000 0.0000 1719.6482 -7559.7210 289.0818 -9279.3692 -7559.7210 289.0818 -1387.1877 -1302.4977 31258.9910 -1387.1877 -1302.4977
ENERGY: 300000 2.9530 5.4515 3.3730 0.0000 -10931.1389 1500.9740 0.0000 0.0000 1734.2446 -7684.1429 291.5355 -9418.3875 -7584.6410 296.8466 39.7458 152.1289 30812.6494 -472.5618 -378.7650
ENERGY: 600000 2.3286 7.1520 4.6141 0.0000 -10888.7828 1448.0747 0.0000 0.0000 1773.1143 -7653.4992 298.0697 -9426.6134 -7587.3490 298.2129 -105.8298 -26.4007 30264.1507 -411.5212 -331.5227
ENERGY: 900000 3.0582 6.0211 5.4159 0.0000 -10955.5459 1502.4041 0.0000 0.0000 1743.9044 -7694.7422 293.1594 -9438.6466 -7600.2425 296.6893 224.4680 350.3843 30761.1030 -444.1099 -355.5718
ENERGY: 1200000 1.0079 6.5822 5.5657 0.0000 -10890.0950 1430.2340 0.0000 0.0000 1800.0369 -7646.6684 302.5955 -9446.7053 -7597.5255 297.3512 -522.5847 -405.0641 30847.4034 -361.9431 -277.4149
ENERGY: 1500000 2.8435 10.5784 4.8581 0.0000 -10881.9251 1517.2594 0.0000 0.0000 1808.8784 -7537.5073 304.0819 -9346.3857 -7589.3704 297.8649 639.1643 742.5780 30359.9155 -290.2090 -208.7899
TCL: Running FEP window  20: Lambda1 0.9500000000000003 Lambda2 1.0    [dLambda 0.04999999999999971]
TCL: Setting parameter firsttimestep to 0
TCL: Setting parameter alchLambda to 0.9500000000000003
Info: NONBONDED TABLE R-SQUARED SPACING: 0.0625
Info: NONBONDED TABLE SIZE: 705 POINTS
TCL: Setting parameter alchLambda2 to 1.0
Info: NONBONDED TABLE R-SQUARED SPACING: 0.0625
Info: NONBONDED TABLE SIZE: 705 POINTS
TCL: Running for 1500000 steps
ETITLE: TS BOND ANGLE DIHED IMPRP ELECT VDW BOUNDARY MISC KINETIC TOTAL TEMP POTENTIAL TOTALAVG TEMPAVG PRESSURE GPRESSURE VOLUME PRESSAVG GPRESSAVG
ENERGY: 0 2.8435 10.5784 4.8581 0.0000 -10883.7909 1519.0830 0.0000 0.0000 1807.9728 -7538.4550 303.9296 -9346.4278 -7538.4550 303.9296 700.5496 775.7667 30359.9155 700.5496 775.7667
ENERGY: 300000 4.3813 6.4240 3.7247 0.0000 -10830.9055 1434.3697 0.0000 0.0000 1761.1336 -7620.8723 296.0557 -9382.0058 -7565.2717 300.1847 -167.0472 -116.5152 30555.8063 105.7140 164.2647
ENERGY: 600000 1.7758 6.5160 3.0403 0.0000 -10919.6961 1524.8066 0.0000 0.0000 1789.4258 -7594.1315 300.8118 -9383.5573 -7556.5886 302.1224 599.7211 653.2801 30630.1547 152.2628 212.6317
ENERGY: 900000 2.6116 3.6477 6.4430 0.0000 -10821.8074 1467.4210 0.0000 0.0000 1815.4530 -7526.2311 305.1871 -9341.6841 -7561.1027 302.6409 303.2658 309.6400 30710.7644 152.8191 205.1212
ENERGY: 1200000 5.6124 15.4075 2.2173 0.0000 -10776.1977 1403.9424 0.0000 0.0000 1815.8537 -7533.1644 305.2544 -9349.0181 -7549.7697 303.2932 -345.5706 -304.0580 30841.5645 73.8397 124.7394
ENERGY: 1500000 2.0991 7.0677 2.2902 0.0000 -10801.0630 1421.6384 0.0000 0.0000 1746.3244 -7621.6432 293.5662 -9367.9676 -7565.6592 302.2783 -381.3849 -302.4553 30896.0341 45.1296 101.9031
TCL: Exiting due to exit command.
