Info: SIMULATION PARAMETERS:
Info: TIMESTEP               2
Info: NUMBER OF STEPS        0
Info: STEPS PER CYCLE        10
Info: PERIODIC CELL BASIS 1  31.57 0 0
Info: PERIODIC CELL BASIS 2  0 30.0399 0
Info: PERIODIC CELL BASIS 3  0 0 31.3227
Info: PERIODIC CELL CENTER   0 0 0
Info: WRAPPING WATERS AROUND PERIODIC BOUNDARIES ON OUTPUT.
Info: WRAPPING ALL CLUSTERS AROUND PERIODIC BOUNDARIES ON OUTPUT.
Info: FIRST LDB TIMESTEP     50
Info: LAST LDB TIMESTEP     -1
Info: HOM BACKGROUND SCALING 1
Info: PME BACKGROUND SCALING 1
Info: MIN ATOMS PER PATCH    40
Info: EMPTY PATCH LOAD       40 ATOMS
Info: VELOCITY FILE          mobley_8798016_equil.vel
Info: CENTER OF MASS MOVING INITIALLY? NO
Info: DIELECTRIC             1
Info: EXCLUDE                SCALED ONE-FOUR
Info: 1-4 ELECTROSTATICS SCALED BY 0.833333
Info: MODIFIED 1-4 VDW PARAMETERS WILL BE USED
Info: DCD FILENAME           mobley_8798016_prod.dcd
Info: DCD FREQUENCY          100000
Info: DCD FIRST STEP         100000
Info: DCD FILE WILL CONTAIN UNIT CELL DATA
Info: XST FILENAME           mobley_8798016_prod.xst
Info: XST FREQUENCY          100000
Info: NO VELOCITY DCD OUTPUT
Info: NO FORCE DCD OUTPUT
Info: OUTPUT FILENAME        mobley_8798016_prod
Info: BINARY OUTPUT FILES WILL BE USED
Info: RESTART FILENAME       mobley_8798016_prod.restart
Info: RESTART FREQUENCY      100000
Info: BINARY RESTART FILES WILL BE USED
Info: CUTOFF                 9
Info: PAIRLIST DISTANCE      11
Info: PAIRLIST SHRINK RATE   0.01
Info: PAIRLIST GROW RATE     0.01
Info: PAIRLIST TRIGGER       0.3
Info: PAIRLISTS PER CYCLE    2
Info: PAIRLISTS ENABLED
Info: MARGIN                 2
Info: HYDROGEN GROUP CUTOFF  2.5
Info: PATCH DIMENSION        15.5
Info: ENERGY OUTPUT STEPS    100000
Info: ENERGY EVALUATION STEPS    100000
Info: OUTPUT ENERGY PRECISION 4
Info: CROSSTERM ENERGY INCLUDED IN DIHEDRAL
Info: TIMING OUTPUT STEPS    1000000
Info: PRESSURE OUTPUT STEPS  100000
Info: ALCHEMICAL FEP ON
Info: FEP CURRENT LAMBDA VALUE     1
Info: FEP COMPARISON LAMBDA VALUE  0.95
Info: FEP INTRA-ALCHEMICAL NON-BONDED INTERACTIONS WILL BE RETAINED
Info: FEP INTRA-ALCHEMICAL BONDED INTERACTIONS WILL BE RETAINED
Info: FEP VDW SHIFTING COEFFICIENT 5
Info: FEP ELEC. ACTIVE FOR ANNIHILATED PARTICLES BETWEEN LAMBDA = 0 AND LAMBDA = 0.5
Info: FEP ELEC. ACTIVE FOR EXNIHILATED PARTICLES BETWEEN LAMBDA = 0.5 AND LAMBDA = 1
Info: FEP VDW ACTIVE FOR ANNIHILATED PARTICLES BETWEEN LAMBDA = 0 AND LAMBDA = 1
Info: FEP VDW ACTIVE FOR EXNIHILATED PARTICLES BETWEEN LAMBDA = 0 AND LAMBDA = 1
Info: FEP BOND ACTIVE FOR ANNIHILATED PARTICLES BETWEEN LAMBDA = 1 AND LAMBDA = 1
Info: FEP BOND ACTIVE FOR EXNIHILATED PARTICLES BETWEEN LAMBDA = 0 AND LAMBDA = 0
Info: LANGEVIN DYNAMICS ACTIVE
Info: LANGEVIN TEMPERATURE   300
Info: LANGEVIN USING BBK INTEGRATOR
Info: LANGEVIN DAMPING COEFFICIENT IS 1 INVERSE PS
Info: LANGEVIN DYNAMICS APPLIED TO HYDROGENS
Info: LANGEVIN PISTON PRESSURE CONTROL ACTIVE
Info:        TARGET PRESSURE IS 1.01325 BAR
Info:     OSCILLATION PERIOD IS 50 FS
Info:             DECAY TIME IS 25 FS
Info:     PISTON TEMPERATURE IS 300 K
Info:       PRESSURE CONTROL IS GROUP-BASED
Info:    INITIAL STRAIN RATE IS -0.000562505 -0.000562505 -0.000562505
Info:       CELL FLUCTUATION IS ISOTROPIC
Info: PARTICLE MESH EWALD (PME) ACTIVE
Info: PME TOLERANCE               1e-06
Info: PME EWALD COEFFICIENT       0.348832
Info: PME INTERPOLATION ORDER     4
Info: PME GRID DIMENSIONS         32 32 32
Info: PME MAXIMUM GRID SPACING    1
Info: PME CALCULATION WILL BE PERFORMED ON GPU
Info: FULL ELECTROSTATIC EVALUATION FREQUENCY      2
Info: USING VERLET I (r-RESPA) MTS SCHEME.
Info: C1 SPLITTING OF LONG RANGE ELECTROSTATICS
Info: PLACING ATOMS IN PATCHES BY HYDROGEN GROUPS
Info: RIGID BONDS TO HYDROGEN : ALL
Info:         ERROR TOLERANCE : 1e-08
Info:          MAX ITERATIONS : 100
Info: RIGID WATER USING SETTLE ALGORITHM
Info: RANDOM NUMBER SEED     1743732877
Info: USE HYDROGEN BONDS?    NO
Info: Using AMBER format force field!
Info: AMBER PARM FILE        mobley_8798016.prmtop
Info: COORDINATE PDB         mobley_8798016.pdb
Info: Exclusions will be read from PARM file!
Info: SCNB (VDW SCALING)     2
Info: USING ARITHMETIC MEAN TO COMBINE L-J SIGMA PARAMETERS
Info: BINARY COORDINATES     mobley_8798016_equil.coor
Info: SUMMARY OF PARAMETERS:
Info: 9 BONDS
Info: 10 ANGLES
Info:   10 HARMONIC
Info:   0 COSINE-BASED
Info: 5 DIHEDRAL
Info: 0 IMPROPER
Info: 0 CROSSTERM
Info: 0 VDW
Info: 28 VDW_PAIRS
Info: 0 NBTHOLE_PAIRS
Info: To read alchdata from file: mobley_8798016.pdb
Info: To read alchflag data from column: 5
Info: STRUCTURE SUMMARY:
Info: 2947 ATOMS
Info: 2947 BONDS
Info: 19 ANGLES
Info: 30 DIHEDRALS
Info: 0 IMPROPERS
Info: 0 CROSSTERMS
Info: 2987 EXCLUSIONS
Info: 2939 RIGID BONDS
Info: ALCH: 0 ATOMS TO DISAPPEAR IN FINAL STATE
Info: ALCH: 13 ATOMS TO APPEAR IN FINAL STATE
Info: 5902 DEGREES OF FREEDOM
Info: 986 HYDROGEN GROUPS
Info: 3 ATOMS IN LARGEST HYDROGEN GROUP
Info: 986 MIGRATION GROUPS
Info: 3 ATOMS IN LARGEST MIGRATION GROUP
Info: TOTAL MASS = 17726.8 amu
Info: TOTAL CHARGE = -0.000299999 e
Info: MASS DENSITY = 0.990961 g/cm^3
Info: ATOM DENSITY = 0.0992083 atoms/A^3
Info: ADDED 0 IMPLICIT EXCLUSIONS
Info: NONBONDED TABLE R-SQUARED SPACING: 0.0625
Info: NONBONDED TABLE SIZE: 705 POINTS
Info: REMOVING COM VELOCITY -0.0532559 -0.0138929 0.0310539
Info: Use 3D box decompostion in PME FFT.
Info: Updated CUDA force table with 4096 elements.
Info: Updated CUDA LJ table with 7 x 7 elements.
Info: Found 14 unique exclusion lists needing 24 bytes
TCL: Running for 1500000 steps
ETITLE: TS BOND ANGLE DIHED IMPRP ELECT VDW BOUNDARY MISC KINETIC TOTAL TEMP POTENTIAL TOTALAVG TEMPAVG PRESSURE GPRESSURE VOLUME PRESSAVG GPRESSAVG
ENERGY: 0 0.8218 5.2372 2.1500 0.0000 -10808.8427 1472.3815 0.0000 0.0000 1730.4371 -7597.8151 295.0849 -9328.2523 -7597.8151 295.0849 434.1380 522.0229 29705.1810 434.1380 522.0229
ENERGY: 300000 2.8649 3.1538 2.8805 0.0000 -10743.1977 1454.7968 0.0000 0.0000 1785.4717 -7494.0300 304.4698 -9279.5017 -7529.1925 301.6033 212.5898 191.9651 30258.8789 399.7554 429.3478
ENERGY: 600000 1.9055 1.5178 1.2932 0.0000 -10589.8889 1337.5418 0.0000 0.0000 1775.0128 -7472.6178 302.6862 -9247.6306 -7523.4265 299.7230 -893.7987 -793.7856 30473.2037 51.2489 94.5742
ENERGY: 900000 3.0592 2.8530 2.7446 0.0000 -10743.9530 1434.3574 0.0000 0.0000 1758.8732 -7542.0656 299.9340 -9300.9389 -7508.0134 300.9072 3.3974 106.2175 29959.1595 -3.9327 50.1179
ENERGY: 1200000 2.2139 3.0435 3.1213 0.0000 -10785.3918 1484.7220 0.0000 0.0000 1797.8521 -7494.4389 306.5809 -9292.2910 -7507.2198 300.7639 168.1887 189.6682 30591.7206 29.8956 90.9214
ENERGY: 1500000 3.0510 2.3073 1.9703 0.0000 -10734.5659 1438.3954 0.0000 0.0000 1771.4640 -7517.3779 302.0811 -9288.8420 -7511.1877 300.2751 86.9936 174.7641 30105.2411 -38.1745 29.8714
TCL: Running FEP window   2: Lambda1 0.95   Lambda2 0.8999999999999999 [dLambda -0.050000000000000044]
TCL: Setting parameter firsttimestep to 0
TCL: Setting parameter alchLambda to 0.95
Info: NONBONDED TABLE R-SQUARED SPACING: 0.0625
Info: NONBONDED TABLE SIZE: 705 POINTS
TCL: Setting parameter alchLambda2 to 0.8999999999999999
Info: NONBONDED TABLE R-SQUARED SPACING: 0.0625
Info: NONBONDED TABLE SIZE: 705 POINTS
TCL: Running for 1500000 steps
ETITLE: TS BOND ANGLE DIHED IMPRP ELECT VDW BOUNDARY MISC KINETIC TOTAL TEMP POTENTIAL TOTALAVG TEMPAVG PRESSURE GPRESSURE VOLUME PRESSAVG GPRESSAVG
ENERGY: 0 3.0510 2.3073 1.9703 0.0000 -10732.9217 1437.8189 0.0000 0.0000 1770.5811 -7517.1932 301.9305 -9287.7743 -7517.1932 301.9305 79.4585 161.0133 30105.2411 79.4585 161.0133
ENERGY: 300000 1.6422 2.7166 3.7507 0.0000 -10740.0459 1474.3689 0.0000 0.0000 1761.3993 -7496.1681 300.3648 -9257.5675 -7474.5924 300.2197 313.4900 385.2186 30079.6731 33.3848 104.1939
ENERGY: 600000 2.3919 3.3294 2.6964 0.0000 -10744.4836 1481.5815 0.0000 0.0000 1791.1274 -7463.3570 305.4342 -9254.4844 -7461.0258 301.6773 488.5697 511.2624 30119.6798 5.9020 64.5320
ENERGY: 900000 2.5373 3.5600 4.9845 0.0000 -10607.2363 1392.1797 0.0000 0.0000 1729.9250 -7474.0499 294.9976 -9203.9749 -7467.4077 300.0993 -395.2371 -291.1690 30312.6411 7.0782 76.0860
ENERGY: 1200000 2.0881 1.7997 1.7754 0.0000 -10849.5722 1563.0706 0.0000 0.0000 1770.3231 -7510.5153 301.8865 -9280.8384 -7472.1410 300.2552 942.5101 989.0171 29972.4379 121.1883 184.4766
ENERGY: 1500000 2.5710 3.6191 2.1870 0.0000 -10762.8715 1526.9951 0.0000 0.0000 1686.7728 -7540.7265 287.6390 -9227.4994 -7474.6153 299.2025 987.1111 1093.6575 29898.2258 203.1078 266.5943
TCL: Running FEP window   3: Lambda1 0.8999999999999999 Lambda2 0.8499999999999999 [dLambda -0.050000000000000044]
TCL: Setting parameter firsttimestep to 0
TCL: Setting parameter alchLambda to 0.8999999999999999
Info: NONBONDED TABLE R-SQUARED SPACING: 0.0625
Info: NONBONDED TABLE SIZE: 705 POINTS
TCL: Setting parameter alchLambda2 to 0.8499999999999999
Info: NONBONDED TABLE R-SQUARED SPACING: 0.0625
Info: NONBONDED TABLE SIZE: 705 POINTS
TCL: Running for 1500000 steps
ETITLE: TS BOND ANGLE DIHED IMPRP ELECT VDW BOUNDARY MISC KINETIC TOTAL TEMP POTENTIAL TOTALAVG TEMPAVG PRESSURE GPRESSURE VOLUME PRESSAVG GPRESSAVG
ENERGY: 0 2.5710 3.6191 2.1870 0.0000 -10761.0245 1526.8678 0.0000 0.0000 1685.8890 -7539.8907 287.4883 -9225.7797 -7539.8907 287.4883 995.2232 1085.3716 29898.2258 995.2232 1085.3716
ENERGY: 300000 1.5761 1.5352 5.2693 0.0000 -10669.6950 1455.7109 0.0000 0.0000 1793.4672 -7412.1364 305.8332 -9205.6036 -7529.9233 295.7911 524.0363 593.4217 29872.1595 428.5260 505.4552
ENERGY: 600000 4.2713 4.1770 1.7956 0.0000 -10691.3510 1456.5455 0.0000 0.0000 1743.1761 -7481.3855 297.2572 -9224.5616 -7507.2699 298.7744 214.2378 323.8783 30110.7652 384.5653 468.6473
ENERGY: 900000 4.0614 1.8697 3.5473 0.0000 -10697.5248 1436.1002 0.0000 0.0000 1743.8479 -7508.0982 297.3718 -9251.9461 -7500.1985 298.8109 -217.6219 -182.1036 30562.9413 228.4198 314.4011
ENERGY: 1200000 0.9210 2.8308 1.0178 0.0000 -10540.6767 1360.3077 0.0000 0.0000 1710.9461 -7464.6532 291.7612 -9175.5994 -7492.8364 298.9411 -692.4621 -633.1576 30866.6201 172.3389 251.7300
ENERGY: 1500000 4.4348 4.3480 3.1645 0.0000 -10624.9706 1423.7267 0.0000 0.0000 1763.0665 -7426.2301 300.6491 -9189.2966 -7493.0504 298.9753 23.9818 40.3468 30840.5800 113.2859 191.1405
TCL: Running FEP window   4: Lambda1 0.8499999999999999 Lambda2 0.7999999999999998 [dLambda -0.050000000000000044]
TCL: Setting parameter firsttimestep to 0
TCL: Setting parameter alchLambda to 0.8499999999999999
Info: NONBONDED TABLE R-SQUARED SPACING: 0.0625
Info: NONBONDED TABLE SIZE: 705 POINTS
TCL: Setting parameter alchLambda2 to 0.7999999999999998
Info: NONBONDED TABLE R-SQUARED SPACING: 0.0625
Info: NONBONDED TABLE SIZE: 705 POINTS
TCL: Running for 1500000 steps
ETITLE: TS BOND ANGLE DIHED IMPRP ELECT VDW BOUNDARY MISC KINETIC TOTAL TEMP POTENTIAL TOTALAVG TEMPAVG PRESSURE GPRESSURE VOLUME PRESSAVG GPRESSAVG
ENERGY: 0 4.4348 4.3480 3.1645 0.0000 -10622.7562 1423.4435 0.0000 0.0000 1762.2090 -7425.1563 300.5028 -9187.3653 -7425.1563 300.5028 -37.7235 31.5187 30840.5800 -37.7235 31.5187
ENERGY: 300000 1.7009 3.5477 3.9121 0.0000 -10537.3249 1332.4951 0.0000 0.0000 1760.3883 -7435.2808 300.1924 -9195.6691 -7460.3595 299.4035 -382.6936 -362.4447 29936.8197 -25.1450 42.5693
ENERGY: 600000 1.5092 3.1315 3.8537 0.0000 -10607.4260 1343.7616 0.0000 0.0000 1736.7729 -7518.3971 296.1653 -9255.1700 -7467.6133 299.6333 -686.4667 -636.6625 30153.5701 -279.7508 -212.6760
ENERGY: 900000 2.6831 2.2011 2.6736 0.0000 -10748.8417 1433.5925 0.0000 0.0000 1784.9771 -7522.7142 304.3854 -9307.6913 -7471.2424 300.6530 -187.0819 -163.7245 30437.6172 -106.7790 -39.5186
ENERGY: 1200000 3.7827 7.9983 2.7160 0.0000 -10726.8323 1375.6880 0.0000 0.0000 1781.6474 -7554.9998 303.8176 -9336.6473 -7481.3975 301.0210 -619.0985 -590.9263 30031.2783 -71.3327 -0.5763
ENERGY: 1500000 1.0242 0.8947 3.4897 0.0000 -10656.9459 1423.5557 0.0000 0.0000 1741.4164 -7486.5652 296.9572 -9227.9817 -7482.3399 300.4645 18.1215 58.6084 30260.4369 -95.9966 -27.5285
TCL: Running FEP window   5: Lambda1 0.7999999999999998 Lambda2 0.7499999999999998 [dLambda -0.050000000000000044]
TCL: Setting parameter firsttimestep to 0
TCL: Setting parameter alchLambda to 0.7999999999999998
Info: NONBONDED TABLE R-SQUARED SPACING: 0.0625
Info: NONBONDED TABLE SIZE: 705 POINTS
TCL: Setting parameter alchLambda2 to 0.7499999999999998
Info: NONBONDED TABLE R-SQUARED SPACING: 0.0625
Info: NONBONDED TABLE SIZE: 705 POINTS
TCL: Running for 1500000 steps
ETITLE: TS BOND ANGLE DIHED IMPRP ELECT VDW BOUNDARY MISC KINETIC TOTAL TEMP POTENTIAL TOTALAVG TEMPAVG PRESSURE GPRESSURE VOLUME PRESSAVG GPRESSAVG
ENERGY: 0 1.0242 0.8947 3.4897 0.0000 -10655.4955 1423.9157 0.0000 0.0000 1740.5745 -7485.5967 296.8136 -9226.1713 -7485.5967 296.8136 -28.7615 56.8430 30260.4369 -28.7615 56.8430
ENERGY: 300000 2.1847 3.5711 1.8398 0.0000 -10721.5922 1526.8564 0.0000 0.0000 1746.2865 -7440.8538 297.7876 -9187.1403 -7445.2496 297.9053 950.3820 1084.5241 30247.6107 174.1039 247.7408
ENERGY: 600000 2.3564 4.5985 3.7491 0.0000 -10592.8188 1380.3530 0.0000 0.0000 1787.9422 -7413.8196 304.8910 -9201.7618 -7426.8146 300.2515 -440.7626 -397.7395 30405.9334 120.5735 198.5865
ENERGY: 900000 0.8403 4.0203 1.7519 0.0000 -10583.0316 1339.4469 0.0000 0.0000 1789.7854 -7447.1867 305.2054 -9236.9722 -7435.2665 300.4892 -858.7392 -758.9413 30496.3950 5.4187 71.6951
ENERGY: 1200000 2.6303 0.6287 2.1526 0.0000 -10627.0165 1388.3071 0.0000 0.0000 1735.7840 -7497.5139 295.9967 -9233.2979 -7444.4307 299.8896 -402.7780 -405.4183 30770.2982 -53.7658 7.5892
ENERGY: 1500000 4.7852 2.0087 2.7054 0.0000 -10784.4290 1496.1216 0.0000 0.0000 1737.7128 -7541.0952 296.3256 -9278.8081 -7452.6862 299.0737 722.4706 687.5551 29660.0596 30.8310 85.0597
TCL: Running FEP window   6: Lambda1 0.7499999999999998 Lambda2 0.6999999999999997 [dLambda -0.050000000000000044]
TCL: Setting parameter firsttimestep to 0
TCL: Setting parameter alchLambda to 0.7499999999999998
Info: NONBONDED TABLE R-SQUARED SPACING: 0.0625
Info: NONBONDED TABLE SIZE: 705 POINTS
TCL: Setting parameter alchLambda2 to 0.6999999999999997
Info: NONBONDED TABLE R-SQUARED SPACING: 0.0625
Info: NONBONDED TABLE SIZE: 705 POINTS
TCL: Running for 1500000 steps
ETITLE: TS BOND ANGLE DIHED IMPRP ELECT VDW BOUNDARY MISC KINETIC TOTAL TEMP POTENTIAL TOTALAVG TEMPAVG PRESSURE GPRESSURE VOLUME PRESSAVG GPRESSAVG
ENERGY: 0 4.7852 2.0087 2.7054 0.0000 -10782.8061 1496.2217 0.0000 0.0000 1736.8125 -7540.2725 296.1721 -9277.0850 -7540.2725 296.1721 600.4009 681.2311 29660.0596 600.4009 681.2311
ENERGY: 300000 0.8814 3.3492 2.1541 0.0000 -10737.8016 1418.5954 0.0000 0.0000 1710.2069 -7602.6147 291.6351 -9312.8216 -7503.8259 298.2319 -351.7315 -255.9461 30122.3570 35.5534 130.4507
ENERGY: 600000 0.7769 4.2742 5.7793 0.0000 -10733.5959 1462.2639 0.0000 0.0000 1828.2793 -7432.2224 311.7696 -9260.5017 -7468.8015 301.5037 31.4874 127.6415 30494.1686 -15.1494 65.1786
ENERGY: 900000 1.7228 1.8962 3.9596 0.0000 -10605.4662 1444.6285 0.0000 0.0000 1793.3246 -7359.9344 305.8089 -9153.2590 -7465.0298 300.2216 403.3314 476.7213 30159.0101 101.3006 172.2505
ENERGY: 1200000 2.3367 3.7065 1.7334 0.0000 -10683.4919 1498.1061 0.0000 0.0000 1744.8387 -7432.7706 297.5408 -9177.6093 -7466.8214 299.7485 595.7998 691.9887 30199.1929 136.0115 210.4193
ENERGY: 1500000 3.6137 4.6960 2.8646 0.0000 -10618.1968 1439.9469 0.0000 0.0000 1769.0725 -7398.0030 301.6733 -9167.0756 -7468.2772 299.8452 166.3786 213.4005 30466.0289 109.7681 182.2086
TCL: Running FEP window   7: Lambda1 0.6999999999999997 Lambda2 0.6499999999999997 [dLambda -0.050000000000000044]
TCL: Setting parameter firsttimestep to 0
TCL: Setting parameter alchLambda to 0.6999999999999997
Info: NONBONDED TABLE R-SQUARED SPACING: 0.0625
Info: NONBONDED TABLE SIZE: 705 POINTS
TCL: Setting parameter alchLambda2 to 0.6499999999999997
Info: NONBONDED TABLE R-SQUARED SPACING: 0.0625
Info: NONBONDED TABLE SIZE: 705 POINTS
TCL: Running for 1500000 steps
ETITLE: TS BOND ANGLE DIHED IMPRP ELECT VDW BOUNDARY MISC KINETIC TOTAL TEMP POTENTIAL TOTALAVG TEMPAVG PRESSURE GPRESSURE VOLUME PRESSAVG GPRESSAVG
ENERGY: 0 3.6138 4.6960 2.8646 0.0000 -10616.7918 1440.2575 0.0000 0.0000 1768.2058 -7397.1542 301.5255 -9165.3601 -7397.1542 301.5255 125.3191 210.7167 30466.0289 125.3191 210.7167
ENERGY: 300000 2.9040 4.3225 3.2368 0.0000 -10617.9040 1404.4054 0.0000 0.0000 1754.8056 -7448.2297 299.2404 -9203.0353 -7440.8543 302.0820 76.5510 98.9875 30008.5783 154.0862 226.5350
ENERGY: 600000 3.4775 1.5055 2.2856 0.0000 -10680.4575 1462.7588 0.0000 0.0000 1757.8707 -7452.5593 299.7631 -9210.4301 -7456.3946 301.0980 207.0734 230.1290 30528.1076 198.3091 263.9885
ENERGY: 900000 3.3677 2.7839 1.1720 0.0000 -10732.6401 1495.1597 0.0000 0.0000 1764.7259 -7465.4308 300.9321 -9230.1568 -7460.1046 301.2721 633.2549 644.8144 30306.3252 202.2309 261.6549
ENERGY: 1200000 4.8191 3.8211 0.6660 0.0000 -10761.5410 1503.1597 0.0000 0.0000 1782.4475 -7466.6275 303.9540 -9249.0750 -7460.8738 301.3594 322.8624 453.4144 30127.7410 118.5860 182.5896
ENERGY: 1500000 1.9788 2.9483 4.6339 0.0000 -10691.3820 1487.2384 0.0000 0.0000 1775.4118 -7419.1708 302.7543 -9194.5826 -7458.1570 300.7676 368.4196 420.3382 30579.1207 83.3549 143.4335
TCL: Running FEP window   8: Lambda1 0.6499999999999997 Lambda2 0.5999999999999996 [dLambda -0.050000000000000044]
TCL: Setting parameter firsttimestep to 0
TCL: Setting parameter alchLambda to 0.6499999999999997
Info: NONBONDED TABLE R-SQUARED SPACING: 0.0625
Info: NONBONDED TABLE SIZE: 705 POINTS
TCL: Setting parameter alchLambda2 to 0.5999999999999996
Info: NONBONDED TABLE R-SQUARED SPACING: 0.0625
Info: NONBONDED TABLE SIZE: 705 POINTS
TCL: Running for 1500000 steps
ETITLE: TS BOND ANGLE DIHED IMPRP ELECT VDW BOUNDARY MISC KINETIC TOTAL TEMP POTENTIAL TOTALAVG TEMPAVG PRESSURE GPRESSURE VOLUME PRESSAVG GPRESSAVG
ENERGY: 0 1.9788 2.9483 4.6339 0.0000 -10689.6247 1487.1304 0.0000 0.0000 1774.5541 -7418.3793 302.6080 -9192.9334 -7418.3793 302.6080 326.1533 415.0590 30579.1207 326.1533 415.0590
ENERGY: 300000 3.4752 2.4604 4.6732 0.0000 -10673.5191 1426.3880 0.0000 0.0000 1778.4200 -7458.1023 303.2672 -9236.5223 -7492.3536 300.8717 -352.5674 -259.3269 30412.3556 -318.2767 -251.4565
ENERGY: 600000 2.1780 4.8043 4.5085 0.0000 -10558.3052 1381.9540 0.0000 0.0000 1705.7028 -7459.1577 290.8671 -9164.8605 -7494.7231 297.4328 -351.6856 -320.1569 30550.5491 -413.0826 -351.2966
ENERGY: 900000 1.4120 3.7621 6.3664 0.0000 -10840.7593 1495.7305 0.0000 0.0000 1783.1022 -7550.3861 304.0657 -9333.4883 -7500.5140 298.1011 151.6098 250.4305 30108.9119 -251.1477 -181.3868
ENERGY: 1200000 5.7998 3.8438 4.3103 0.0000 -10575.6859 1339.5555 0.0000 0.0000 1768.1243 -7454.0521 301.5116 -9222.1765 -7489.2548 298.6861 -772.0851 -684.8460 30467.2280 -140.5290 -66.4495
ENERGY: 1500000 2.3977 3.4095 2.0554 0.0000 -10641.2485 1462.3388 0.0000 0.0000 1775.7531 -7395.2940 302.8125 -9171.0470 -7472.0579 300.1371 432.9464 535.1377 29983.7657 -14.9513 54.5825
TCL: Running FEP window   9: Lambda1 0.5999999999999996 Lambda2 0.5499999999999996 [dLambda -0.050000000000000044]
TCL: Setting parameter firsttimestep to 0
TCL: Setting parameter alchLambda to 0.5999999999999996
Info: NONBONDED TABLE R-SQUARED SPACING: 0.0625
Info: NONBONDED TABLE SIZE: 705 POINTS
TCL: Setting parameter alchLambda2 to 0.5499999999999996
Info: NONBONDED TABLE R-SQUARED SPACING: 0.0625
Info: NONBONDED TABLE SIZE: 705 POINTS
TCL: Running for 1500000 steps
ETITLE: TS BOND ANGLE DIHED IMPRP ELECT VDW BOUNDARY MISC KINETIC TOTAL TEMP POTENTIAL TOTALAVG TEMPAVG PRESSURE GPRESSURE VOLUME PRESSAVG GPRESSAVG
ENERGY: 0 2.3977 3.4096 2.0554 0.0000 -10640.9347 1461.9344 0.0000 0.0000 1774.8617 -7396.2760 302.6605 -9171.1377 -7396.2760 302.6605 442.4185 522.9756 29983.7657 442.4185 522.9756
ENERGY: 300000 2.7547 3.1726 3.8336 0.0000 -10633.3246 1380.6453 0.0000 0.0000 1798.0346 -7444.8838 306.6120 -9242.9184 -7436.8101 299.8275 -739.7637 -620.1219 30360.1701 -250.2833 -150.2413
ENERGY: 600000 7.9731 5.7727 4.3724 0.0000 -10736.8798 1510.1270 0.0000 0.0000 1824.4154 -7384.2191 311.1107 -9208.6346 -7444.9891 301.7126 599.3214 563.3971 30249.9211 -25.5757 39.7426
ENERGY: 900000 4.2608 4.6134 1.8911 0.0000 -10587.9450 1426.5184 0.0000 0.0000 1777.8630 -7372.7984 303.1723 -9150.6613 -7427.2257 303.2551 -38.7174 -25.2512 30732.6179 4.1813 61.2212
ENERGY: 1200000 4.3179 1.7730 4.2901 0.0000 -10578.1129 1408.5962 0.0000 0.0000 1814.7175 -7344.4182 309.4569 -9159.1358 -7422.4178 304.3440 -35.1087 -41.0930 30556.6467 -8.5406 39.0447
ENERGY: 1500000 2.8048 3.1433 1.1488 0.0000 -10754.1685 1509.2201 0.0000 0.0000 1726.7744 -7511.0770 294.4603 -9237.8515 -7453.8345 302.9046 521.7412 581.3423 30266.9775 15.4345 65.0300
TCL: Running FEP window  10: Lambda1 0.5499999999999996 Lambda2 0.4999999999999996 [dLambda -0.04999999999999999]
TCL: Setting parameter firsttimestep to 0
TCL: Setting parameter alchLambda to 0.5499999999999996
Info: NONBONDED TABLE R-SQUARED SPACING: 0.0625
Info: NONBONDED TABLE SIZE: 705 POINTS
TCL: Setting parameter alchLambda2 to 0.4999999999999996
Info: NONBONDED TABLE R-SQUARED SPACING: 0.0625
Info: NONBONDED TABLE SIZE: 705 POINTS
TCL: Running for 1500000 steps
ETITLE: TS BOND ANGLE DIHED IMPRP ELECT VDW BOUNDARY MISC KINETIC TOTAL TEMP POTENTIAL TOTALAVG TEMPAVG PRESSURE GPRESSURE VOLUME PRESSAVG GPRESSAVG
ENERGY: 0 2.8048 3.1433 1.1488 0.0000 -10753.6458 1508.7251 0.0000 0.0000 1725.8456 -7511.9782 294.3019 -9237.8238 -7511.9782 294.3019 484.2662 567.8073 30266.9775 484.2662 567.8073
ENERGY: 300000 1.1178 1.7653 2.4124 0.0000 -10623.0305 1387.7575 0.0000 0.0000 1703.4128 -7526.5645 290.4766 -9229.9773 -7502.9561 295.4074 -499.9366 -457.6914 30479.2352 -131.6852 -48.1752
ENERGY: 600000 3.8024 5.3647 4.8487 0.0000 -10648.7280 1410.2609 0.0000 0.0000 1747.0233 -7477.4280 297.9133 -9224.4513 -7492.6662 298.3550 -315.0217 -223.1121 29999.8446 -10.6939 65.2703
ENERGY: 900000 2.5667 6.2073 2.1584 0.0000 -10681.9132 1457.5365 0.0000 0.0000 1700.6481 -7512.7961 290.0051 -9213.4443 -7500.0649 296.6395 178.4441 220.9837 30229.2034 93.5810 163.0814
ENERGY: 1200000 2.0168 3.6686 3.2400 0.0000 -10575.4590 1335.6871 0.0000 0.0000 1704.6126 -7526.2339 290.6812 -9230.8465 -7490.9187 296.7016 -1026.3787 -1016.7327 30863.5901 -95.2564 -35.3098
ENERGY: 1500000 3.2729 3.5235 2.7341 0.0000 -10646.0413 1442.1775 0.0000 0.0000 1736.6032 -7457.7301 296.1364 -9194.3334 -7481.9365 297.1794 283.1848 301.3409 30064.9124 -157.3834 -97.9638
TCL: Running FEP window  11: Lambda1 0.4999999999999996 Lambda2 0.4499999999999996 [dLambda -0.04999999999999999]
TCL: Setting parameter firsttimestep to 0
TCL: Setting parameter alchLambda to 0.4999999999999996
Info: NONBONDED TABLE R-SQUARED SPACING: 0.0625
Info: NONBONDED TABLE SIZE: 705 POINTS
TCL: Setting parameter alchLambda2 to 0.4499999999999996
Info: NONBONDED TABLE R-SQUARED SPACING: 0.0625
Info: NONBONDED TABLE SIZE: 705 POINTS
TCL: Running for 1500000 steps
ETITLE: TS BOND ANGLE DIHED IMPRP ELECT VDW BOUNDARY MISC KINETIC TOTAL TEMP POTENTIAL TOTALAVG TEMPAVG PRESSURE GPRESSURE VOLUME PRESSAVG GPRESSAVG
ENERGY: 0 3.2729 3.5235 2.7341 0.0000 -10646.1313 1442.7157 0.0000 0.0000 1735.7707 -7458.1144 295.9944 -9193.8851 -7458.1144 295.9944 217.0253 297.1560 30064.9124 217.0253 297.1560
ENERGY: 300000 1.0856 3.9938 2.1025 0.0000 -10698.0065 1425.8278 0.0000 0.0000 1707.9949 -7557.0018 291.2579 -9264.9967 -7478.0386 297.9732 175.2102 234.4970 29678.4173 -86.6826 -20.0672
ENERGY: 600000 0.9431 0.6660 5.3237 0.0000 -10707.2728 1477.0184 0.0000 0.0000 1757.4111 -7465.9105 299.6847 -9223.3216 -7470.5613 298.8475 507.4846 570.6181 30225.1088 48.0589 107.2669
ENERGY: 900000 2.4581 8.6571 2.1125 0.0000 -10713.8678 1445.6171 0.0000 0.0000 1749.3628 -7505.6601 298.3122 -9255.0229 -7480.7026 299.5764 -71.9823 -24.9335 30359.5940 -128.1220 -74.6358
ENERGY: 1200000 4.8778 3.7643 3.0537 0.0000 -10702.4888 1423.4175 0.0000 0.0000 1732.1182 -7535.2573 295.3716 -9267.3755 -7486.7056 299.7963 -148.1210 -117.7973 30111.9777 -144.3954 -92.3950
ENERGY: 1500000 2.1249 3.8528 2.9061 0.0000 -10708.5148 1454.0340 0.0000 0.0000 1758.9844 -7486.6126 299.9530 -9245.5970 -7484.9359 300.1983 97.6471 153.3149 30403.6475 -42.8887 8.5329
TCL: Running FEP window  12: Lambda1 0.4499999999999996 Lambda2 0.39999999999999963 [dLambda -0.04999999999999999]
TCL: Setting parameter firsttimestep to 0
TCL: Setting parameter alchLambda to 0.4499999999999996
Info: NONBONDED TABLE R-SQUARED SPACING: 0.0625
Info: NONBONDED TABLE SIZE: 705 POINTS
TCL: Setting parameter alchLambda2 to 0.39999999999999963
Info: NONBONDED TABLE R-SQUARED SPACING: 0.0625
Info: NONBONDED TABLE SIZE: 705 POINTS
TCL: Running for 1500000 steps
ETITLE: TS BOND ANGLE DIHED IMPRP ELECT VDW BOUNDARY MISC KINETIC TOTAL TEMP POTENTIAL TOTALAVG TEMPAVG PRESSURE GPRESSURE VOLUME PRESSAVG GPRESSAVG
ENERGY: 0 2.1249 3.8528 2.9061 0.0000 -10708.5149 1454.4167 0.0000 0.0000 1758.0834 -7487.1309 299.7993 -9245.2143 -7487.1309 299.7993 67.3681 149.3153 30403.6475 67.3681 149.3153
ENERGY: 300000 6.9551 3.6243 5.8501 0.0000 -10523.0423 1408.5202 0.0000 0.0000 1809.4232 -7288.6696 308.5541 -9098.0928 -7412.6177 303.6225 -249.0485 -169.7787 30711.4295 -255.0836 -181.5138
ENERGY: 600000 1.9220 1.8558 1.4528 0.0000 -10638.0303 1447.7249 0.0000 0.0000 1829.6396 -7355.4353 312.0015 -9185.0749 -7426.1986 303.8989 46.6280 99.7798 30582.8861 -231.0709 -173.0937
ENERGY: 900000 3.3994 2.5761 4.7598 0.0000 -10621.0671 1448.1930 0.0000 0.0000 1786.7944 -7375.3444 304.6953 -9162.1388 -7416.5728 303.5347 372.1344 424.8383 30350.3697 -115.9899 -59.0215
ENERGY: 1200000 2.7629 2.2539 4.6847 0.0000 -10785.4583 1546.7764 0.0000 0.0000 1751.6298 -7477.3505 298.6988 -9228.9803 -7417.2837 303.4185 911.9537 1003.8028 30166.7581 -12.6352 39.7757
ENERGY: 1500000 1.5358 3.1542 2.8029 0.0000 -10569.8045 1415.7077 0.0000 0.0000 1773.8650 -7372.7390 302.4905 -9146.6040 -7417.5694 302.5124 47.5990 109.7400 30263.7128 -93.7930 -36.8019
TCL: Running FEP window  13: Lambda1 0.39999999999999963 Lambda2 0.34999999999999964 [dLambda -0.04999999999999999]
TCL: Setting parameter firsttimestep to 0
TCL: Setting parameter alchLambda to 0.39999999999999963
Info: NONBONDED TABLE R-SQUARED SPACING: 0.0625
Info: NONBONDED TABLE SIZE: 705 POINTS
TCL: Setting parameter alchLambda2 to 0.34999999999999964
Info: NONBONDED TABLE R-SQUARED SPACING: 0.0625
Info: NONBONDED TABLE SIZE: 705 POINTS
TCL: Running for 1500000 steps
ETITLE: TS BOND ANGLE DIHED IMPRP ELECT VDW BOUNDARY MISC KINETIC TOTAL TEMP POTENTIAL TOTALAVG TEMPAVG PRESSURE GPRESSURE VOLUME PRESSAVG GPRESSAVG
ENERGY: 0 1.5358 3.1542 2.8029 0.0000 -10569.8038 1415.7427 0.0000 0.0000 1772.9898 -7373.5785 302.3413 -9146.5682 -7373.5785 302.3413 22.6464 106.8061 30263.7128 22.6464 106.8061
ENERGY: 300000 2.2852 1.5236 3.2925 0.0000 -10572.5390 1376.5843 0.0000 0.0000 1769.0921 -7419.7613 301.6766 -9188.8534 -7454.9122 301.8215 -450.0842 -357.1469 30422.4888 -136.1986 -45.2877
ENERGY: 600000 2.1174 2.8745 4.3854 0.0000 -10788.8652 1566.4635 0.0000 0.0000 1783.2140 -7429.8105 304.0847 -9213.0245 -7491.9125 300.6723 1218.8098 1229.6877 30187.2683 45.5847 111.8848
ENERGY: 900000 2.3462 3.9336 4.6274 0.0000 -10648.3192 1416.2327 0.0000 0.0000 1776.9005 -7444.2788 303.0081 -9221.1793 -7478.5106 301.5756 -137.5230 -71.7516 30181.3144 -16.2374 49.9923
ENERGY: 1200000 4.2731 4.3192 2.2651 0.0000 -10849.7997 1520.8102 0.0000 0.0000 1765.0815 -7553.0507 300.9927 -9318.1322 -7476.6810 301.5540 470.6968 463.3135 29914.0541 10.8621 68.2626
ENERGY: 1500000 2.2648 2.4744 2.4043 0.0000 -10776.4867 1434.0357 0.0000 0.0000 1789.8237 -7545.4838 305.2119 -9335.3075 -7477.8370 301.8125 -326.2544 -327.4548 30288.5301 -49.2419 2.9266
TCL: Running FEP window  14: Lambda1 0.34999999999999964 Lambda2 0.29999999999999966 [dLambda -0.04999999999999999]
TCL: Setting parameter firsttimestep to 0
TCL: Setting parameter alchLambda to 0.34999999999999964
Info: NONBONDED TABLE R-SQUARED SPACING: 0.0625
Info: NONBONDED TABLE SIZE: 705 POINTS
TCL: Setting parameter alchLambda2 to 0.29999999999999966
Info: NONBONDED TABLE R-SQUARED SPACING: 0.0625
Info: NONBONDED TABLE SIZE: 705 POINTS
TCL: Running for 1500000 steps
ETITLE: TS BOND ANGLE DIHED IMPRP ELECT VDW BOUNDARY MISC KINETIC TOTAL TEMP POTENTIAL TOTALAVG TEMPAVG PRESSURE GPRESSURE VOLUME PRESSAVG GPRESSAVG
ENERGY: 0 2.2648 2.4744 2.4043 0.0000 -10776.4878 1434.3152 0.0000 0.0000 1788.9426 -7546.0866 305.0616 -9335.0292 -7546.0866 305.0616 -421.3331 -327.6716 30288.5301 -421.3331 -327.6716
ENERGY: 300000 1.9747 1.7195 7.4496 0.0000 -10765.5722 1475.3248 0.0000 0.0000 1778.0187 -7501.0850 303.1988 -9279.1036 -7511.2059 299.1696 152.5393 249.0016 30041.7083 -105.8440 -1.8948
ENERGY: 600000 1.8649 2.2840 3.8985 0.0000 -10777.8725 1524.5148 0.0000 0.0000 1725.0013 -7520.3090 294.1580 -9245.3103 -7481.6337 298.3245 569.4653 684.6433 30127.3058 40.1494 131.1277
ENERGY: 900000 2.9586 4.5324 1.8519 0.0000 -10676.7539 1490.9814 0.0000 0.0000 1815.5081 -7360.9216 309.5917 -9176.4297 -7474.3067 299.6388 711.1431 797.1037 30361.7057 97.4746 177.1520
ENERGY: 1200000 2.7066 2.3042 2.5792 0.0000 -10819.4873 1528.2575 0.0000 0.0000 1780.0933 -7503.5465 303.5526 -9283.6398 -7473.3448 300.5941 862.7391 826.9957 30056.8579 188.7917 259.3357
ENERGY: 1500000 0.8817 5.9541 2.2094 0.0000 -10614.2002 1393.0837 0.0000 0.0000 1771.1635 -7440.9078 302.0298 -9212.0713 -7474.4990 300.3589 -516.0355 -515.0927 30947.7482 144.4859 214.0636
TCL: Running FEP window  15: Lambda1 0.29999999999999966 Lambda2 0.24999999999999967 [dLambda -0.04999999999999999]
TCL: Setting parameter firsttimestep to 0
TCL: Setting parameter alchLambda to 0.29999999999999966
Info: NONBONDED TABLE R-SQUARED SPACING: 0.0625
Info: NONBONDED TABLE SIZE: 705 POINTS
TCL: Setting parameter alchLambda2 to 0.24999999999999967
Info: NONBONDED TABLE R-SQUARED SPACING: 0.0625
Info: NONBONDED TABLE SIZE: 705 POINTS
TCL: Running for 1500000 steps
ETITLE: TS BOND ANGLE DIHED IMPRP ELECT VDW BOUNDARY MISC KINETIC TOTAL TEMP POTENTIAL TOTALAVG TEMPAVG PRESSURE GPRESSURE VOLUME PRESSAVG GPRESSAVG
ENERGY: 0 0.8817 5.9541 2.2094 0.0000 -10614.2004 1393.2444 0.0000 0.0000 1770.2863 -7441.6245 301.8802 -9211.9108 -7441.6245 301.8802 -587.3813 -516.0988 30947.7482 -587.3813 -516.0988
ENERGY: 300000 2.7882 5.1825 2.3954 0.0000 -10556.2580 1446.7646 0.0000 0.0000 1762.4628 -7336.6646 300.5461 -9099.1273 -7428.2363 302.4223 491.3375 553.1623 30263.6444 -118.0361 -47.5971
ENERGY: 600000 1.7886 4.9386 3.0131 0.0000 -10683.9991 1470.4007 0.0000 0.0000 1783.5935 -7420.2646 304.1495 -9203.8581 -7431.9638 301.4434 203.0094 291.3097 30478.0225 -108.1180 -37.9287
ENERGY: 900000 4.3419 2.1742 3.2139 0.0000 -10742.0868 1454.5679 0.0000 0.0000 1780.3581 -7497.4308 303.5978 -9277.7889 -7434.4807 301.5910 -145.8843 -128.4643 30180.4411 -109.9109 -35.2288
ENERGY: 1200000 0.5807 3.8068 3.1221 0.0000 -10582.3412 1376.0096 0.0000 0.0000 1804.2841 -7394.5378 307.6778 -9198.8220 -7441.7582 301.5099 -314.0517 -252.6528 30328.7268 -217.8390 -143.8613
ENERGY: 1500000 2.6178 5.7196 2.0428 0.0000 -10645.8785 1429.0181 0.0000 0.0000 1816.7181 -7389.7621 309.7981 -9206.4802 -7441.2126 302.1173 -53.2019 88.6610 30361.8964 -146.9622 -72.1091
TCL: Running FEP window  16: Lambda1 0.24999999999999967 Lambda2 0.19999999999999968 [dLambda -0.04999999999999999]
TCL: Setting parameter firsttimestep to 0
TCL: Setting parameter alchLambda to 0.24999999999999967
Info: NONBONDED TABLE R-SQUARED SPACING: 0.0625
Info: NONBONDED TABLE SIZE: 705 POINTS
TCL: Setting parameter alchLambda2 to 0.19999999999999968
Info: NONBONDED TABLE R-SQUARED SPACING: 0.0625
Info: NONBONDED TABLE SIZE: 705 POINTS
TCL: Running for 1500000 steps
ETITLE: TS BOND ANGLE DIHED IMPRP ELECT VDW BOUNDARY MISC KINETIC TOTAL TEMP POTENTIAL TOTALAVG TEMPAVG PRESSURE GPRESSURE VOLUME PRESSAVG GPRESSAVG
ENERGY: 0 2.6178 5.7196 2.0428 0.0000 -10645.8789 1428.8270 0.0000 0.0000 1815.8618 -7390.8098 309.6521 -9206.6717 -7390.8098 309.6521 -11.8072 87.6441 30361.8964 -11.8072 87.6441
ENERGY: 300000 1.9686 4.9328 3.6296 0.0000 -10608.2200 1434.4158 0.0000 0.0000 1822.0718 -7341.2015 310.7110 -9163.2733 -7410.1908 306.3908 596.9225 672.5240 30020.6367 -107.5700 -25.3218
ENERGY: 600000 2.5390 2.4010 2.5170 0.0000 -10703.7337 1454.9990 0.0000 0.0000 1764.6280 -7476.6497 300.9154 -9241.2776 -7448.8750 302.5562 -21.8586 70.9267 30269.7644 -51.6910 20.2304
ENERGY: 900000 2.8252 5.1322 4.1835 0.0000 -10709.7471 1439.9651 0.0000 0.0000 1830.8880 -7426.7531 312.2144 -9257.6411 -7447.6199 303.4496 -458.8098 -396.4433 30712.7890 -305.2155 -225.3503
ENERGY: 1200000 2.2122 7.3594 2.4285 0.0000 -10851.4921 1530.0755 0.0000 0.0000 1716.8212 -7592.5953 292.7630 -9309.4165 -7463.3309 301.3975 614.6773 693.0535 29790.3579 -253.2337 -172.0450
ENERGY: 1500000 1.7224 2.8568 3.0946 0.0000 -10837.6183 1521.1429 0.0000 0.0000 1733.2792 -7575.5224 295.5696 -9308.8016 -7468.9671 300.6535 511.2413 649.4103 29883.5589 -112.8666 -32.6416
TCL: Running FEP window  17: Lambda1 0.19999999999999968 Lambda2 0.1499999999999997 [dLambda -0.04999999999999999]
TCL: Setting parameter firsttimestep to 0
TCL: Setting parameter alchLambda to 0.19999999999999968
Info: NONBONDED TABLE R-SQUARED SPACING: 0.0625
Info: NONBONDED TABLE SIZE: 705 POINTS
TCL: Setting parameter alchLambda2 to 0.1499999999999997
Info: NONBONDED TABLE R-SQUARED SPACING: 0.0625
Info: NONBONDED TABLE SIZE: 705 POINTS
TCL: Running for 1500000 steps
ETITLE: TS BOND ANGLE DIHED IMPRP ELECT VDW BOUNDARY MISC KINETIC TOTAL TEMP POTENTIAL TOTALAVG TEMPAVG PRESSURE GPRESSURE VOLUME PRESSAVG GPRESSAVG
ENERGY: 0 1.7224 2.8568 3.0946 0.0000 -10837.6183 1521.1283 0.0000 0.0000 1732.3936 -7576.4226 295.4185 -9308.8162 -7576.4226 295.4185 563.1876 647.1236 29883.5589 563.1876 647.1236
ENERGY: 300000 4.3020 3.5306 3.6308 0.0000 -10763.0597 1536.5212 0.0000 0.0000 1805.7800 -7409.2951 307.9328 -9215.0751 -7470.9285 302.4202 795.4656 804.6987 30119.3976 510.6915 570.4462
ENERGY: 600000 2.1327 3.9830 3.6762 0.0000 -10632.5334 1416.8260 0.0000 0.0000 1730.7159 -7475.1995 295.1325 -9205.9155 -7466.4435 301.6823 -210.7514 -156.8877 30284.2421 59.3245 117.4246
ENERGY: 900000 1.6060 3.7096 1.2813 0.0000 -10692.5931 1429.8363 0.0000 0.0000 1822.3275 -7433.8325 310.7546 -9256.1600 -7467.0831 302.1615 -182.8341 -84.1808 30196.6329 41.8721 109.4774
ENERGY: 1200000 3.4652 3.4230 3.6695 0.0000 -10546.2540 1339.3037 0.0000 0.0000 1719.8451 -7476.5475 293.2787 -9196.3927 -7468.1329 300.8836 -697.1989 -615.9828 30286.3437 -117.9290 -47.3440
ENERGY: 1500000 2.8379 2.3649 3.4949 0.0000 -10570.3804 1396.1627 0.0000 0.0000 1731.0278 -7434.4921 295.1856 -9165.5199 -7468.8284 300.5698 -68.4293 -85.6115 30346.0282 -124.9321 -63.8217
TCL: Running FEP window  18: Lambda1 0.1499999999999997 Lambda2 0.09999999999999969 [dLambda -0.05 ]
TCL: Setting parameter firsttimestep to 0
TCL: Setting parameter alchLambda to 0.1499999999999997
Info: NONBONDED TABLE R-SQUARED SPACING: 0.0625
Info: NONBONDED TABLE SIZE: 705 POINTS
TCL: Setting parameter alchLambda2 to 0.09999999999999969
Info: NONBONDED TABLE R-SQUARED SPACING: 0.0625
Info: NONBONDED TABLE SIZE: 705 POINTS
TCL: Running for 1500000 steps
ETITLE: TS BOND ANGLE DIHED IMPRP ELECT VDW BOUNDARY MISC KINETIC TOTAL TEMP POTENTIAL TOTALAVG TEMPAVG PRESSURE GPRESSURE VOLUME PRESSAVG GPRESSAVG
ENERGY: 0 2.8379 2.3649 3.4949 0.0000 -10570.3813 1396.5619 0.0000 0.0000 1730.1484 -7434.9734 295.0357 -9165.1217 -7434.9734 295.0357 -174.2429 -83.2663 30346.0282 -174.2429 -83.2663
ENERGY: 300000 1.8528 2.8430 3.1725 0.0000 -10555.0511 1438.6694 0.0000 0.0000 1825.3539 -7283.1595 311.2707 -9108.5134 -7411.1075 299.9923 232.6662 238.1787 30610.2678 48.8764 99.3979
ENERGY: 600000 1.1500 1.7924 3.9975 0.0000 -10704.7945 1477.3747 0.0000 0.0000 1753.7335 -7466.7463 299.0576 -9220.4799 -7432.8327 299.0583 375.5283 467.3259 29958.2328 13.0677 67.8606
ENERGY: 900000 2.4695 3.1045 3.5238 0.0000 -10648.4189 1436.8765 0.0000 0.0000 1773.3712 -7429.0732 302.4063 -9202.4445 -7438.4340 300.2744 -170.2664 -72.1397 30282.3345 -85.8330 -24.1000
ENERGY: 1200000 3.3557 3.4834 3.7703 0.0000 -10597.1878 1435.7416 0.0000 0.0000 1724.2273 -7426.6095 294.0260 -9150.8368 -7439.7339 299.9947 167.2855 202.5303 30360.0420 -16.0926 46.8386
ENERGY: 1500000 1.1885 3.8927 2.8340 0.0000 -10542.7853 1337.1293 0.0000 0.0000 1737.4426 -7460.2981 296.2795 -9197.7408 -7441.1067 299.7449 -1056.2972 -971.6490 30737.9452 -82.9503 -18.3199
TCL: Running FEP window  19: Lambda1 0.09999999999999969 Lambda2 0.049999999999999684 [dLambda -0.05 ]
TCL: Setting parameter firsttimestep to 0
TCL: Setting parameter alchLambda to 0.09999999999999969
Info: NONBONDED TABLE R-SQUARED SPACING: 0.0625
Info: NONBONDED TABLE SIZE: 705 POINTS
TCL: Setting parameter alchLambda2 to 0.049999999999999684
Info: NONBONDED TABLE R-SQUARED SPACING: 0.0625
Info: NONBONDED TABLE SIZE: 705 POINTS
TCL: Running for 1500000 steps
ETITLE: TS BOND ANGLE DIHED IMPRP ELECT VDW BOUNDARY MISC KINETIC TOTAL TEMP POTENTIAL TOTALAVG TEMPAVG PRESSURE GPRESSURE VOLUME PRESSAVG GPRESSAVG
ENERGY: 0 1.1885 3.8927 2.8340 0.0000 -10542.7855 1337.2910 0.0000 0.0000 1736.5603 -7461.0190 296.1291 -9197.5793 -7461.0190 296.1291 -1045.6060 -973.8214 30737.9452 -1045.6060 -973.8214
ENERGY: 300000 2.7804 2.6124 1.3749 0.0000 -10670.2547 1425.3095 0.0000 0.0000 1770.6996 -7467.4779 301.9507 -9238.1775 -7457.1886 298.2584 -283.2534 -128.2771 30391.4530 -546.3773 -455.1303
ENERGY: 600000 2.3171 3.0131 2.3532 0.0000 -10859.1890 1534.5024 0.0000 0.0000 1767.2033 -7549.7999 301.3545 -9317.0033 -7454.6856 300.7810 685.1100 749.7152 29588.5435 -323.1161 -243.7911
ENERGY: 900000 1.1476 2.5448 3.0701 0.0000 -10674.0091 1461.4651 0.0000 0.0000 1781.9365 -7423.8450 303.8669 -9205.7814 -7459.9708 300.9185 264.8761 274.3086 30347.4032 -178.4933 -107.3227
ENERGY: 1200000 2.7630 2.3065 4.2864 0.0000 -10634.3680 1444.3725 0.0000 0.0000 1778.2208 -7402.4188 303.2333 -9180.6396 -7456.3324 300.7119 -144.0222 -44.3081 30601.8783 -134.1215 -59.8345
ENERGY: 1500000 2.4568 2.0302 0.3215 0.0000 -10707.2720 1423.6889 0.0000 0.0000 1720.8429 -7557.9318 293.4488 -9278.7747 -7463.3662 300.2061 -387.6036 -323.2744 30182.4562 -131.0857 -56.2460
TCL: Running FEP window  20: Lambda1 0.049999999999999684 Lambda2 0.0    [dLambda -0.049999999999999684]
TCL: Setting parameter firsttimestep to 0
TCL: Setting parameter alchLambda to 0.049999999999999684
Info: NONBONDED TABLE R-SQUARED SPACING: 0.0625
Info: NONBONDED TABLE SIZE: 705 POINTS
TCL: Setting parameter alchLambda2 to 0.0
Info: NONBONDED TABLE R-SQUARED SPACING: 0.0625
Info: NONBONDED TABLE SIZE: 705 POINTS
TCL: Running for 1500000 steps
ETITLE: TS BOND ANGLE DIHED IMPRP ELECT VDW BOUNDARY MISC KINETIC TOTAL TEMP POTENTIAL TOTALAVG TEMPAVG PRESSURE GPRESSURE VOLUME PRESSAVG GPRESSAVG
ENERGY: 0 2.4568 2.0302 0.3215 0.0000 -10707.2716 1423.8546 0.0000 0.0000 1719.9526 -7558.6560 293.2970 -9278.6087 -7558.6560 293.2970 -395.3561 -326.0484 30182.4562 -395.3561 -326.0484
ENERGY: 300000 1.8813 2.3440 1.8265 0.0000 -10919.2251 1587.9521 0.0000 0.0000 1712.1014 -7613.1198 291.9582 -9325.2212 -7531.5334 298.5911 1147.9985 1228.2545 29513.7215 286.0482 351.2634
ENERGY: 600000 0.7764 5.2969 2.7030 0.0000 -10700.0692 1383.9343 0.0000 0.0000 1762.8416 -7544.5169 300.6107 -9307.3585 -7501.6621 300.2648 -536.0840 -454.1871 30096.3303 -92.6235 -16.9291
ENERGY: 900000 2.7022 3.0605 2.2553 0.0000 -10619.9648 1388.4366 0.0000 0.0000 1758.2479 -7465.2623 299.8274 -9223.5102 -7494.0689 299.6667 -288.1635 -206.7781 29900.4347 -120.0797 -43.8651
ENERGY: 1200000 2.1239 2.0493 1.3771 0.0000 -10628.9417 1418.4464 0.0000 0.0000 1732.8887 -7472.0563 295.5030 -9204.9450 -7488.8797 299.6145 -243.5225 -183.5401 30451.2691 -19.1024 50.9459
ENERGY: 1500000 2.4792 5.2197 2.0936 0.0000 -10620.0082 1415.4627 0.0000 0.0000 1751.7173 -7443.0357 298.7137 -9194.7530 -7484.7852 299.5238 -322.9413 -216.7903 30294.5293 24.7810 88.4182
TCL: Exiting due to exit command.
