Info: SIMULATION PARAMETERS:
Info: TIMESTEP               2
Info: NUMBER OF STEPS        0
Info: STEPS PER CYCLE        10
Info: PERIODIC CELL BASIS 1  29.933 0 0
Info: PERIODIC CELL BASIS 2  0 33.0736 0
Info: PERIODIC CELL BASIS 3  0 0 30.5867
Info: PERIODIC CELL CENTER   0 0 0
Info: WRAPPING WATERS AROUND PERIODIC BOUNDARIES ON OUTPUT.
Info: WRAPPING ALL CLUSTERS AROUND PERIODIC BOUNDARIES ON OUTPUT.
Info: FIRST LDB TIMESTEP     50
Info: LAST LDB TIMESTEP     -1
Info: HOM BACKGROUND SCALING 1
Info: PME BACKGROUND SCALING 1
Info: MIN ATOMS PER PATCH    40
Info: EMPTY PATCH LOAD       40 ATOMS
Info: VELOCITY FILE          mobley_8337722_equil.vel
Info: CENTER OF MASS MOVING INITIALLY? NO
Info: DIELECTRIC             1
Info: EXCLUDE                SCALED ONE-FOUR
Info: 1-4 ELECTROSTATICS SCALED BY 0.833333
Info: MODIFIED 1-4 VDW PARAMETERS WILL BE USED
Info: DCD FILENAME           mobley_8337722_prod.dcd
Info: DCD FREQUENCY          100000
Info: DCD FIRST STEP         100000
Info: DCD FILE WILL CONTAIN UNIT CELL DATA
Info: XST FILENAME           mobley_8337722_prod.xst
Info: XST FREQUENCY          100000
Info: NO VELOCITY DCD OUTPUT
Info: NO FORCE DCD OUTPUT
Info: OUTPUT FILENAME        mobley_8337722_prod
Info: BINARY OUTPUT FILES WILL BE USED
Info: RESTART FILENAME       mobley_8337722_prod.restart
Info: RESTART FREQUENCY      100000
Info: BINARY RESTART FILES WILL BE USED
Info: CUTOFF                 9
Info: PAIRLIST DISTANCE      11
Info: PAIRLIST SHRINK RATE   0.01
Info: PAIRLIST GROW RATE     0.01
Info: PAIRLIST TRIGGER       0.3
Info: PAIRLISTS PER CYCLE    2
Info: PAIRLISTS ENABLED
Info: MARGIN                 2
Info: HYDROGEN GROUP CUTOFF  2.5
Info: PATCH DIMENSION        15.5
Info: ENERGY OUTPUT STEPS    100000
Info: ENERGY EVALUATION STEPS    100000
Info: OUTPUT ENERGY PRECISION 4
Info: CROSSTERM ENERGY INCLUDED IN DIHEDRAL
Info: TIMING OUTPUT STEPS    1000000
Info: PRESSURE OUTPUT STEPS  100000
Info: ALCHEMICAL FEP ON
Info: FEP CURRENT LAMBDA VALUE     1
Info: FEP COMPARISON LAMBDA VALUE  0.95
Info: FEP INTRA-ALCHEMICAL NON-BONDED INTERACTIONS WILL BE RETAINED
Info: FEP INTRA-ALCHEMICAL BONDED INTERACTIONS WILL BE RETAINED
Info: FEP VDW SHIFTING COEFFICIENT 5
Info: FEP ELEC. ACTIVE FOR ANNIHILATED PARTICLES BETWEEN LAMBDA = 0 AND LAMBDA = 0.5
Info: FEP ELEC. ACTIVE FOR EXNIHILATED PARTICLES BETWEEN LAMBDA = 0.5 AND LAMBDA = 1
Info: FEP VDW ACTIVE FOR ANNIHILATED PARTICLES BETWEEN LAMBDA = 0 AND LAMBDA = 1
Info: FEP VDW ACTIVE FOR EXNIHILATED PARTICLES BETWEEN LAMBDA = 0 AND LAMBDA = 1
Info: FEP BOND ACTIVE FOR ANNIHILATED PARTICLES BETWEEN LAMBDA = 1 AND LAMBDA = 1
Info: FEP BOND ACTIVE FOR EXNIHILATED PARTICLES BETWEEN LAMBDA = 0 AND LAMBDA = 0
Info: LANGEVIN DYNAMICS ACTIVE
Info: LANGEVIN TEMPERATURE   300
Info: LANGEVIN USING BBK INTEGRATOR
Info: LANGEVIN DAMPING COEFFICIENT IS 1 INVERSE PS
Info: LANGEVIN DYNAMICS APPLIED TO HYDROGENS
Info: LANGEVIN PISTON PRESSURE CONTROL ACTIVE
Info:        TARGET PRESSURE IS 1.01325 BAR
Info:     OSCILLATION PERIOD IS 50 FS
Info:             DECAY TIME IS 25 FS
Info:     PISTON TEMPERATURE IS 300 K
Info:       PRESSURE CONTROL IS GROUP-BASED
Info:    INITIAL STRAIN RATE IS 3.82184e-05 3.82184e-05 3.82184e-05
Info:       CELL FLUCTUATION IS ISOTROPIC
Info: PARTICLE MESH EWALD (PME) ACTIVE
Info: PME TOLERANCE               1e-06
Info: PME EWALD COEFFICIENT       0.348832
Info: PME INTERPOLATION ORDER     4
Info: PME GRID DIMENSIONS         32 36 32
Info: PME MAXIMUM GRID SPACING    1
Info: PME CALCULATION WILL BE PERFORMED ON GPU
Info: FULL ELECTROSTATIC EVALUATION FREQUENCY      2
Info: USING VERLET I (r-RESPA) MTS SCHEME.
Info: C1 SPLITTING OF LONG RANGE ELECTROSTATICS
Info: PLACING ATOMS IN PATCHES BY HYDROGEN GROUPS
Info: RIGID BONDS TO HYDROGEN : ALL
Info:         ERROR TOLERANCE : 1e-08
Info:          MAX ITERATIONS : 100
Info: RIGID WATER USING SETTLE ALGORITHM
Info: RANDOM NUMBER SEED     1743817574
Info: USE HYDROGEN BONDS?    NO
Info: Using AMBER format force field!
Info: AMBER PARM FILE        mobley_8337722.prmtop
Info: COORDINATE PDB         mobley_8337722.pdb
Info: Exclusions will be read from PARM file!
Info: SCNB (VDW SCALING)     2
Info: USING ARITHMETIC MEAN TO COMBINE L-J SIGMA PARAMETERS
Info: BINARY COORDINATES     mobley_8337722_equil.coor
Info: SUMMARY OF PARAMETERS:
Info: 7 BONDS
Info: 7 ANGLES
Info:   7 HARMONIC
Info:   0 COSINE-BASED
Info: 9 DIHEDRAL
Info: 0 IMPROPER
Info: 0 CROSSTERM
Info: 0 VDW
Info: 21 VDW_PAIRS
Info: 0 NBTHOLE_PAIRS
Info: To read alchdata from file: mobley_8337722.pdb
Info: To read alchflag data from column: 5
Info: STRUCTURE SUMMARY:
Info: 2935 ATOMS
Info: 2935 BONDS
Info: 61 ANGLES
Info: 126 DIHEDRALS
Info: 0 IMPROPERS
Info: 0 CROSSTERMS
Info: 3086 EXCLUSIONS
Info: 2924 RIGID BONDS
Info: ALCH: 0 ATOMS TO DISAPPEAR IN FINAL STATE
Info: ALCH: 31 ATOMS TO APPEAR IN FINAL STATE
Info: 5881 DEGREES OF FREEDOM
Info: 979 HYDROGEN GROUPS
Info: 4 ATOMS IN LARGEST HYDROGEN GROUP
Info: 979 MIGRATION GROUPS
Info: 4 ATOMS IN LARGEST MIGRATION GROUP
Info: TOTAL MASS = 17595.7 amu
Info: TOTAL CHARGE = -1.86265e-08 e
Info: MASS DENSITY = 0.964944 g/cm^3
Info: ATOM DENSITY = 0.0969266 atoms/A^3
Info: ADDED 0 IMPLICIT EXCLUSIONS
Info: NONBONDED TABLE R-SQUARED SPACING: 0.0625
Info: NONBONDED TABLE SIZE: 705 POINTS
Info: REMOVING COM VELOCITY -0.10772 0.0239378 -0.074424
Info: Use 3D box decompostion in PME FFT.
Info: Updated CUDA force table with 4096 elements.
Info: Updated CUDA LJ table with 6 x 6 elements.
Info: Found 31 unique exclusion lists needing 116 bytes
TCL: Running for 1500000 steps
ETITLE: TS BOND ANGLE DIHED IMPRP ELECT VDW BOUNDARY MISC KINETIC TOTAL TEMP POTENTIAL TOTALAVG TEMPAVG PRESSURE GPRESSURE VOLUME PRESSAVG GPRESSAVG
ENERGY: 0 3.7398 12.7850 9.1523 0.0000 -10567.6103 1359.1722 0.0000 0.0000 1777.7151 -7405.0459 304.2295 -9182.7610 -7405.0459 304.2295 -650.5420 -578.8198 30280.6418 -650.5420 -578.8198
ENERGY: 300000 4.7272 18.5391 9.3022 0.0000 -10568.2052 1430.4574 0.0000 0.0000 1747.5977 -7357.5816 299.0754 -9105.1793 -7394.6956 300.2228 -14.1161 -0.1766 30544.5455 -400.9853 -345.4929
ENERGY: 600000 6.5682 21.4914 9.0554 0.0000 -10477.4155 1406.8220 0.0000 0.0000 1772.5331 -7260.9453 303.3427 -9033.4784 -7355.1059 302.2870 162.7658 223.1262 30140.5194 -145.9083 -94.4540
ENERGY: 900000 3.4397 14.3841 9.7851 0.0000 -10616.3629 1484.9246 0.0000 0.0000 1773.0162 -7330.8132 303.4254 -9103.8294 -7351.9119 302.8180 522.8786 485.3272 30673.7622 48.1227 94.0577
ENERGY: 1200000 1.5851 18.0643 10.3099 0.0000 -10507.6981 1370.3017 0.0000 0.0000 1774.9992 -7332.4379 303.7647 -9107.4371 -7361.0047 301.8803 -470.5100 -405.2670 30491.2554 78.6361 120.9151
ENERGY: 1500000 2.1821 15.1943 10.0394 0.0000 -10681.0338 1515.5160 0.0000 0.0000 1756.7783 -7381.3237 300.6465 -9138.1020 -7368.4742 301.1301 674.3626 724.2199 30260.5008 44.1335 96.6170
TCL: Running FEP window   2: Lambda1 0.95   Lambda2 0.8999999999999999 [dLambda -0.050000000000000044]
TCL: Setting parameter firsttimestep to 0
TCL: Setting parameter alchLambda to 0.95
Info: NONBONDED TABLE R-SQUARED SPACING: 0.0625
Info: NONBONDED TABLE SIZE: 705 POINTS
TCL: Setting parameter alchLambda2 to 0.8999999999999999
Info: NONBONDED TABLE R-SQUARED SPACING: 0.0625
Info: NONBONDED TABLE SIZE: 705 POINTS
TCL: Running for 1500000 steps
ETITLE: TS BOND ANGLE DIHED IMPRP ELECT VDW BOUNDARY MISC KINETIC TOTAL TEMP POTENTIAL TOTALAVG TEMPAVG PRESSURE GPRESSURE VOLUME PRESSAVG GPRESSAVG
ENERGY: 0 2.1821 15.1943 10.0394 0.0000 -10679.6191 1515.8109 0.0000 0.0000 1755.9094 -7380.4830 300.4978 -9136.3925 -7380.4830 300.4978 630.4486 715.4388 30260.5008 630.4486 715.4388
ENERGY: 300000 4.7249 19.3425 10.2248 0.0000 -10580.5139 1430.8114 0.0000 0.0000 1738.5392 -7376.8711 297.5251 -9115.4103 -7372.9482 302.2055 143.6510 175.2677 30201.3221 347.7864 385.4236
ENERGY: 600000 2.0804 13.2947 9.6680 0.0000 -10640.8368 1424.3824 0.0000 0.0000 1764.1989 -7427.2123 301.9164 -9191.4112 -7392.6994 301.8591 -300.9947 -283.6277 30511.2035 -1.5314 46.0728
ENERGY: 900000 4.4086 17.3084 9.0569 0.0000 -10599.3865 1452.8745 0.0000 0.0000 1811.3939 -7304.3442 309.9932 -9115.7382 -7370.8218 302.4705 597.1183 652.6897 29610.3644 147.7375 203.3855
ENERGY: 1200000 5.4875 14.9076 10.0663 0.0000 -10508.5953 1429.8058 0.0000 0.0000 1810.4015 -7237.9265 309.8233 -9048.3280 -7370.2149 302.7388 305.9602 416.7975 30116.5080 162.8975 226.2027
ENERGY: 1500000 1.5649 14.7818 8.8710 0.0000 -10559.7286 1372.0409 0.0000 0.0000 1710.6431 -7451.8269 292.7512 -9162.4699 -7368.4435 302.5814 -224.8561 -210.4176 30114.0907 101.4756 163.0730
TCL: Running FEP window   3: Lambda1 0.8999999999999999 Lambda2 0.8499999999999999 [dLambda -0.050000000000000044]
TCL: Setting parameter firsttimestep to 0
TCL: Setting parameter alchLambda to 0.8999999999999999
Info: NONBONDED TABLE R-SQUARED SPACING: 0.0625
Info: NONBONDED TABLE SIZE: 705 POINTS
TCL: Setting parameter alchLambda2 to 0.8499999999999999
Info: NONBONDED TABLE R-SQUARED SPACING: 0.0625
Info: NONBONDED TABLE SIZE: 705 POINTS
TCL: Running for 1500000 steps
ETITLE: TS BOND ANGLE DIHED IMPRP ELECT VDW BOUNDARY MISC KINETIC TOTAL TEMP POTENTIAL TOTALAVG TEMPAVG PRESSURE GPRESSURE VOLUME PRESSAVG GPRESSAVG
ENERGY: 0 1.5649 14.7818 8.8710 0.0000 -10558.7412 1372.3719 0.0000 0.0000 1709.7727 -7451.3789 292.6022 -9161.1516 -7451.3789 292.6022 -303.0827 -221.8974 30114.0907 -303.0827 -221.8974
ENERGY: 300000 5.6989 14.3818 10.2237 0.0000 -10608.1474 1408.5359 0.0000 0.0000 1736.6599 -7432.6472 297.2035 -9169.3070 -7455.2556 292.7689 -647.9321 -566.2949 30711.9339 -255.1282 -189.6407
ENERGY: 600000 6.9551 18.4922 9.6541 0.0000 -10498.5973 1365.8703 0.0000 0.0000 1797.7041 -7299.9214 307.6503 -9097.6255 -7401.1581 297.7542 -267.6715 -174.4065 30031.8789 -139.7166 -80.1231
ENERGY: 900000 3.8508 17.6762 9.3043 0.0000 -10591.4205 1435.3535 0.0000 0.0000 1754.9618 -7370.2739 300.3356 -9125.2357 -7404.8390 297.8888 344.5212 367.0833 29958.6450 -68.1117 -7.6940
ENERGY: 1200000 5.2249 16.6120 10.0168 0.0000 -10626.7516 1398.9464 0.0000 0.0000 1764.0886 -7431.8629 301.8976 -9195.9515 -7404.7843 299.4892 -671.6766 -569.1387 30350.7022 -130.7578 -63.2096
ENERGY: 1500000 2.7236 15.8592 11.2905 0.0000 -10573.5412 1387.2576 0.0000 0.0000 1751.1471 -7405.2632 299.6828 -9156.4103 -7394.7449 299.8058 -318.3094 -252.4303 30175.0163 -212.3227 -147.3289
TCL: Running FEP window   4: Lambda1 0.8499999999999999 Lambda2 0.7999999999999998 [dLambda -0.050000000000000044]
TCL: Setting parameter firsttimestep to 0
TCL: Setting parameter alchLambda to 0.8499999999999999
Info: NONBONDED TABLE R-SQUARED SPACING: 0.0625
Info: NONBONDED TABLE SIZE: 705 POINTS
TCL: Setting parameter alchLambda2 to 0.7999999999999998
Info: NONBONDED TABLE R-SQUARED SPACING: 0.0625
Info: NONBONDED TABLE SIZE: 705 POINTS
TCL: Running for 1500000 steps
ETITLE: TS BOND ANGLE DIHED IMPRP ELECT VDW BOUNDARY MISC KINETIC TOTAL TEMP POTENTIAL TOTALAVG TEMPAVG PRESSURE GPRESSURE VOLUME PRESSAVG GPRESSAVG
ENERGY: 0 2.7236 15.8592 11.2905 0.0000 -10573.0805 1387.6956 0.0000 0.0000 1750.2887 -7405.2229 299.5359 -9155.5116 -7405.2229 299.5359 -362.4123 -261.2973 30175.0163 -362.4123 -261.2973
ENERGY: 300000 4.7450 11.3054 9.5639 0.0000 -10635.3461 1443.6430 0.0000 0.0000 1791.1727 -7374.9160 306.5326 -9166.0887 -7393.2236 300.1838 86.0845 225.9402 29999.8580 135.8082 241.6838
ENERGY: 600000 2.0511 17.5904 9.5892 0.0000 -10683.3743 1511.0971 0.0000 0.0000 1721.6423 -7421.4042 294.6335 -9143.0465 -7405.0871 299.0218 886.5868 956.4123 29815.2801 236.1732 327.5383
ENERGY: 900000 3.7033 17.6605 10.3992 0.0000 -10423.6948 1355.6123 0.0000 0.0000 1763.5615 -7272.7580 301.8073 -9036.3195 -7392.9891 298.6567 -329.5713 -202.7881 30363.9826 280.1841 370.2156
ENERGY: 1200000 2.1211 14.8477 9.6997 0.0000 -10604.7051 1376.9029 0.0000 0.0000 1780.7255 -7420.4083 304.7447 -9201.1338 -7387.1963 299.7069 -360.2484 -326.5143 29961.7380 275.4912 352.6540
ENERGY: 1500000 3.1065 14.8089 10.7999 0.0000 -10554.9782 1410.8842 0.0000 0.0000 1718.0571 -7397.3217 294.0199 -9115.3788 -7391.3365 299.2273 -101.3063 -72.0759 30374.6317 243.2258 316.9872
TCL: Running FEP window   5: Lambda1 0.7999999999999998 Lambda2 0.7499999999999998 [dLambda -0.050000000000000044]
TCL: Setting parameter firsttimestep to 0
TCL: Setting parameter alchLambda to 0.7999999999999998
Info: NONBONDED TABLE R-SQUARED SPACING: 0.0625
Info: NONBONDED TABLE SIZE: 705 POINTS
TCL: Setting parameter alchLambda2 to 0.7499999999999998
Info: NONBONDED TABLE R-SQUARED SPACING: 0.0625
Info: NONBONDED TABLE SIZE: 705 POINTS
TCL: Running for 1500000 steps
ETITLE: TS BOND ANGLE DIHED IMPRP ELECT VDW BOUNDARY MISC KINETIC TOTAL TEMP POTENTIAL TOTALAVG TEMPAVG PRESSURE GPRESSURE VOLUME PRESSAVG GPRESSAVG
ENERGY: 0 3.1065 14.8089 10.7999 0.0000 -10554.4197 1411.0369 0.0000 0.0000 1717.2257 -7397.4418 293.8777 -9114.6676 -7397.4418 293.8777 -161.4543 -87.6958 30374.6317 -161.4543 -87.6958
ENERGY: 300000 4.1074 10.4364 11.4837 0.0000 -10575.7642 1409.9021 0.0000 0.0000 1686.9134 -7452.9212 288.6902 -9139.8346 -7401.5937 296.8020 -135.7961 -83.9024 30197.5932 39.3623 101.4779
ENERGY: 600000 4.2622 13.0518 10.2711 0.0000 -10545.0365 1389.4066 0.0000 0.0000 1737.8646 -7390.1802 297.4097 -9128.0448 -7416.9529 294.1929 -271.7436 -217.7032 30146.5307 80.3440 147.2628
ENERGY: 900000 3.2418 14.2671 8.6478 0.0000 -10552.8800 1461.1486 0.0000 0.0000 1728.1743 -7337.4004 295.7514 -9065.5747 -7398.5513 294.4940 637.6289 665.0724 30048.9560 76.0034 140.1274
ENERGY: 1200000 3.2074 16.1778 11.2792 0.0000 -10575.1890 1371.2511 0.0000 0.0000 1761.3677 -7411.9058 301.4319 -9173.2735 -7391.1335 296.5678 -362.9985 -362.4321 30113.7664 24.5442 86.9718
ENERGY: 1500000 4.7153 15.8575 10.3713 0.0000 -10606.1236 1389.3912 0.0000 0.0000 1792.7270 -7393.0614 306.7986 -9185.7884 -7394.7601 297.0838 -318.3139 -283.0500 30096.6709 -18.3132 43.5187
TCL: Running FEP window   6: Lambda1 0.7499999999999998 Lambda2 0.6999999999999997 [dLambda -0.050000000000000044]
TCL: Setting parameter firsttimestep to 0
TCL: Setting parameter alchLambda to 0.7499999999999998
Info: NONBONDED TABLE R-SQUARED SPACING: 0.0625
Info: NONBONDED TABLE SIZE: 705 POINTS
TCL: Setting parameter alchLambda2 to 0.6999999999999997
Info: NONBONDED TABLE R-SQUARED SPACING: 0.0625
Info: NONBONDED TABLE SIZE: 705 POINTS
TCL: Running for 1500000 steps
ETITLE: TS BOND ANGLE DIHED IMPRP ELECT VDW BOUNDARY MISC KINETIC TOTAL TEMP POTENTIAL TOTALAVG TEMPAVG PRESSURE GPRESSURE VOLUME PRESSAVG GPRESSAVG
ENERGY: 0 4.7153 15.8575 10.3713 0.0000 -10605.5467 1389.8632 0.0000 0.0000 1791.8535 -7392.8860 306.6491 -9184.7395 -7392.8860 306.6491 -374.0608 -290.3515 30096.6709 -374.0608 -290.3515
ENERGY: 300000 1.4971 13.7360 9.6626 0.0000 -10531.2948 1399.4412 0.0000 0.0000 1766.9139 -7340.0440 302.3811 -9106.9579 -7371.3734 304.1314 107.0607 155.2131 29957.6840 55.6836 112.4336
ENERGY: 600000 3.4105 20.8588 10.8652 0.0000 -10582.8956 1438.9435 0.0000 0.0000 1735.2639 -7373.5537 296.9646 -9108.8176 -7381.7113 301.2848 475.3220 422.5774 29902.0887 172.5917 223.9888
ENERGY: 900000 4.1049 17.3117 9.2187 0.0000 -10636.7767 1492.1014 0.0000 0.0000 1707.8766 -7406.1633 292.2777 -9114.0399 -7393.1137 298.4723 573.9123 663.6203 29879.9247 240.3928 305.4260
ENERGY: 1200000 5.1351 13.2787 11.9053 0.0000 -10546.7327 1441.0760 0.0000 0.0000 1762.9744 -7312.3631 301.7069 -9075.3375 -7379.1075 299.6428 409.8662 427.5953 29944.0529 174.9518 248.6652
ENERGY: 1500000 1.6983 15.7624 10.8686 0.0000 -10432.9428 1321.5993 0.0000 0.0000 1712.1813 -7370.8329 293.0144 -9083.0142 -7378.4299 299.3237 -969.8706 -945.5239 30719.5126 36.7854 105.4517
TCL: Running FEP window   7: Lambda1 0.6999999999999997 Lambda2 0.6499999999999997 [dLambda -0.050000000000000044]
TCL: Setting parameter firsttimestep to 0
TCL: Setting parameter alchLambda to 0.6999999999999997
Info: NONBONDED TABLE R-SQUARED SPACING: 0.0625
Info: NONBONDED TABLE SIZE: 705 POINTS
TCL: Setting parameter alchLambda2 to 0.6499999999999997
Info: NONBONDED TABLE R-SQUARED SPACING: 0.0625
Info: NONBONDED TABLE SIZE: 705 POINTS
TCL: Running for 1500000 steps
ETITLE: TS BOND ANGLE DIHED IMPRP ELECT VDW BOUNDARY MISC KINETIC TOTAL TEMP POTENTIAL TOTALAVG TEMPAVG PRESSURE GPRESSURE VOLUME PRESSAVG GPRESSAVG
ENERGY: 0 1.6983 15.7624 10.8686 0.0000 -10432.3487 1321.8078 0.0000 0.0000 1711.2749 -7370.9367 292.8593 -9082.2116 -7370.9367 292.8593 -1020.8472 -951.1738 30719.5126 -1020.8472 -951.1738
ENERGY: 300000 2.2294 13.2283 9.8258 0.0000 -10508.1102 1411.3895 0.0000 0.0000 1786.9680 -7284.4691 305.8130 -9071.4372 -7309.2969 301.7186 -196.5099 -110.1184 30792.7477 -128.7906 -53.9889
ENERGY: 600000 1.7445 15.5359 10.7782 0.0000 -10736.4127 1533.4996 0.0000 0.0000 1743.8700 -7430.9844 298.4375 -9174.8545 -7350.5418 300.5239 712.3436 844.2841 29866.1528 157.9408 236.0986
ENERGY: 900000 3.9521 12.7915 9.5681 0.0000 -10566.4382 1412.9239 0.0000 0.0000 1741.5885 -7385.6141 298.0470 -9127.2026 -7347.8755 300.0613 91.2980 134.3417 29933.0028 -41.9248 35.9097
ENERGY: 1200000 3.7332 17.1019 9.2847 0.0000 -10550.9923 1355.7673 0.0000 0.0000 1767.8107 -7397.2945 302.5345 -9165.1052 -7339.6396 301.2703 -844.2047 -795.2323 30340.2874 -94.2130 -21.3641
ENERGY: 1500000 2.1105 15.3321 9.7805 0.0000 -10546.0798 1466.4049 0.0000 0.0000 1785.4219 -7267.0299 305.5484 -9052.4518 -7338.9152 300.8984 607.6681 642.7502 30204.5094 -66.1214 4.8308
TCL: Running FEP window   8: Lambda1 0.6499999999999997 Lambda2 0.5999999999999996 [dLambda -0.050000000000000044]
TCL: Setting parameter firsttimestep to 0
TCL: Setting parameter alchLambda to 0.6499999999999997
Info: NONBONDED TABLE R-SQUARED SPACING: 0.0625
Info: NONBONDED TABLE SIZE: 705 POINTS
TCL: Setting parameter alchLambda2 to 0.5999999999999996
Info: NONBONDED TABLE R-SQUARED SPACING: 0.0625
Info: NONBONDED TABLE SIZE: 705 POINTS
TCL: Running for 1500000 steps
ETITLE: TS BOND ANGLE DIHED IMPRP ELECT VDW BOUNDARY MISC KINETIC TOTAL TEMP POTENTIAL TOTALAVG TEMPAVG PRESSURE GPRESSURE VOLUME PRESSAVG GPRESSAVG
ENERGY: 0 2.1105 15.3321 9.7805 0.0000 -10545.7842 1466.9458 0.0000 0.0000 1784.5672 -7267.0481 305.4022 -9051.6153 -7267.0481 305.4022 564.5735 634.9702 30204.5094 564.5735 634.9702
ENERGY: 300000 4.6223 12.4751 9.9758 0.0000 -10627.7363 1380.7533 0.0000 0.0000 1761.6127 -7458.2971 301.4739 -9219.9098 -7347.0314 302.6087 -537.6666 -516.0362 30012.6727 60.1623 116.0325
ENERGY: 600000 2.4188 17.5498 9.4921 0.0000 -10579.4231 1434.3754 0.0000 0.0000 1795.8438 -7319.7432 307.3320 -9115.5870 -7353.4843 302.2167 289.4191 336.2414 29886.4609 414.0852 475.7678
ENERGY: 900000 4.8919 11.0183 9.8237 0.0000 -10534.7940 1452.9988 0.0000 0.0000 1763.3706 -7292.6906 301.7747 -9056.0612 -7353.8473 300.6794 180.9217 212.8947 30587.2835 326.3450 387.3261
ENERGY: 1200000 3.7966 12.4043 9.3010 0.0000 -10496.2829 1361.4330 0.0000 0.0000 1729.5502 -7379.7979 295.9868 -9109.3481 -7355.8159 301.7838 -384.5570 -304.8645 30034.8996 122.2142 182.6571
ENERGY: 1500000 5.2754 16.2011 8.9456 0.0000 -10463.8085 1396.2652 0.0000 0.0000 1732.4049 -7304.7163 296.4754 -9037.1213 -7347.1353 301.5101 -27.2057 24.7370 30142.9424 41.9169 96.8328
TCL: Running FEP window   9: Lambda1 0.5999999999999996 Lambda2 0.5499999999999996 [dLambda -0.050000000000000044]
TCL: Setting parameter firsttimestep to 0
TCL: Setting parameter alchLambda to 0.5999999999999996
Info: NONBONDED TABLE R-SQUARED SPACING: 0.0625
Info: NONBONDED TABLE SIZE: 705 POINTS
TCL: Setting parameter alchLambda2 to 0.5499999999999996
Info: NONBONDED TABLE R-SQUARED SPACING: 0.0625
Info: NONBONDED TABLE SIZE: 705 POINTS
TCL: Running for 1500000 steps
ETITLE: TS BOND ANGLE DIHED IMPRP ELECT VDW BOUNDARY MISC KINETIC TOTAL TEMP POTENTIAL TOTALAVG TEMPAVG PRESSURE GPRESSURE VOLUME PRESSAVG GPRESSAVG
ENERGY: 0 5.2753 16.2011 8.9456 0.0000 -10462.5693 1395.4011 0.0000 0.0000 1731.5275 -7305.2187 296.3252 -9036.7462 -7305.2187 296.3252 -73.3297 5.1548 30142.9424 -73.3297 5.1548
ENERGY: 300000 5.7531 13.6524 9.1142 0.0000 -10642.3035 1390.1276 0.0000 0.0000 1786.7873 -7436.8689 305.7821 -9223.6562 -7362.9546 299.6325 -557.7485 -507.5280 30237.2685 -331.6053 -263.0430
ENERGY: 600000 4.5140 15.3579 9.5958 0.0000 -10616.3841 1473.2945 0.0000 0.0000 1736.7354 -7376.8865 297.2165 -9113.6219 -7367.5513 298.7663 456.5293 492.5162 30018.6595 -155.8375 -102.3342
ENERGY: 900000 3.5942 18.2428 8.9868 0.0000 -10525.6200 1442.5699 0.0000 0.0000 1747.4160 -7304.8104 299.0443 -9052.2263 -7365.1032 299.3383 328.7259 383.3303 30259.0833 -130.1123 -95.7463
ENERGY: 1200000 4.5061 16.6671 9.9853 0.0000 -10472.1434 1339.5885 0.0000 0.0000 1768.6450 -7332.7514 302.6773 -9101.3964 -7363.7370 299.8484 -529.7798 -469.4796 30365.7847 -144.4782 -99.7335
ENERGY: 1500000 1.2649 15.6471 10.2055 0.0000 -10604.1543 1435.9158 0.0000 0.0000 1692.2689 -7448.8521 289.6067 -9141.1209 -7361.6974 300.0068 152.6753 177.3750 30085.3395 -112.0254 -70.1095
TCL: Running FEP window  10: Lambda1 0.5499999999999996 Lambda2 0.4999999999999996 [dLambda -0.04999999999999999]
TCL: Setting parameter firsttimestep to 0
TCL: Setting parameter alchLambda to 0.5499999999999996
Info: NONBONDED TABLE R-SQUARED SPACING: 0.0625
Info: NONBONDED TABLE SIZE: 705 POINTS
TCL: Setting parameter alchLambda2 to 0.4999999999999996
Info: NONBONDED TABLE R-SQUARED SPACING: 0.0625
Info: NONBONDED TABLE SIZE: 705 POINTS
TCL: Running for 1500000 steps
ETITLE: TS BOND ANGLE DIHED IMPRP ELECT VDW BOUNDARY MISC KINETIC TOTAL TEMP POTENTIAL TOTALAVG TEMPAVG PRESSURE GPRESSURE VOLUME PRESSAVG GPRESSAVG
ENERGY: 0 1.2649 15.6471 10.2055 0.0000 -10603.5629 1436.5087 0.0000 0.0000 1691.3848 -7448.5519 289.4554 -9139.9366 -7448.5519 289.4554 91.9319 174.6471 30085.3395 91.9319 174.6471
ENERGY: 300000 5.7712 14.7380 9.3914 0.0000 -10568.4440 1448.3251 0.0000 0.0000 1775.5794 -7314.6390 303.8640 -9090.2184 -7373.4459 298.9766 605.9211 621.3607 29869.6852 197.2399 252.7860
ENERGY: 600000 3.7748 16.1017 10.5530 0.0000 -10567.1885 1378.7974 0.0000 0.0000 1800.6870 -7357.2745 308.1608 -9157.9615 -7389.6331 298.0435 -640.7652 -507.4103 30563.1871 -33.7935 40.2861
ENERGY: 900000 3.6045 14.8460 8.6585 0.0000 -10576.9628 1441.3628 0.0000 0.0000 1729.6632 -7378.8279 296.0062 -9108.4911 -7375.7517 298.7757 -134.4661 -56.5667 30396.1036 -5.0081 71.7592
ENERGY: 1200000 3.2346 13.0643 9.9578 0.0000 -10540.8735 1423.2306 0.0000 0.0000 1719.1529 -7372.2333 294.2075 -9091.3862 -7370.2804 298.5583 -34.8554 -20.0802 30319.0991 -64.1418 12.9258
ENERGY: 1500000 2.1627 17.3074 9.4005 0.0000 -10449.9902 1355.6489 0.0000 0.0000 1737.9538 -7327.5168 297.4250 -9065.4706 -7363.6831 298.5231 -570.8481 -408.5147 30108.2126 -105.9938 -22.8921
TCL: Running FEP window  11: Lambda1 0.4999999999999996 Lambda2 0.4499999999999996 [dLambda -0.04999999999999999]
TCL: Setting parameter firsttimestep to 0
TCL: Setting parameter alchLambda to 0.4999999999999996
Info: NONBONDED TABLE R-SQUARED SPACING: 0.0625
Info: NONBONDED TABLE SIZE: 705 POINTS
TCL: Setting parameter alchLambda2 to 0.4499999999999996
Info: NONBONDED TABLE R-SQUARED SPACING: 0.0625
Info: NONBONDED TABLE SIZE: 705 POINTS
TCL: Running for 1500000 steps
ETITLE: TS BOND ANGLE DIHED IMPRP ELECT VDW BOUNDARY MISC KINETIC TOTAL TEMP POTENTIAL TOTALAVG TEMPAVG PRESSURE GPRESSURE VOLUME PRESSAVG GPRESSAVG
ENERGY: 0 2.1627 17.3074 9.4005 0.0000 -10449.9342 1356.2701 0.0000 0.0000 1737.0836 -7327.7098 297.2761 -9064.7935 -7327.7098 297.2761 -501.1092 -410.8727 30108.2126 -501.1092 -410.8727
ENERGY: 300000 3.8429 17.8619 10.4621 0.0000 -10656.7759 1468.7944 0.0000 0.0000 1773.3521 -7382.4625 303.4829 -9155.8146 -7330.1774 300.5979 287.1563 362.6942 30074.6006 25.0636 113.8324
ENERGY: 600000 1.8539 13.1843 11.6878 0.0000 -10644.2930 1503.5134 0.0000 0.0000 1746.9797 -7367.0740 298.9696 -9114.0536 -7348.2499 300.8681 576.0485 638.2176 30126.9860 148.8438 227.5856
ENERGY: 900000 2.0922 19.2148 10.6678 0.0000 -10687.1119 1481.4127 0.0000 0.0000 1717.3871 -7456.3373 293.9053 -9173.7244 -7360.6386 301.1983 559.6672 644.6794 29435.7609 119.2508 195.3095
ENERGY: 1200000 2.6043 16.5678 9.6615 0.0000 -10352.5644 1346.4448 0.0000 0.0000 1720.9082 -7256.3777 294.5079 -8977.2860 -7352.7344 300.0746 -446.4662 -342.8590 30317.0323 -7.2919 69.2280
ENERGY: 1500000 4.7661 10.8844 9.7133 0.0000 -10500.4601 1370.6156 0.0000 0.0000 1784.3164 -7320.1643 305.3592 -9104.4807 -7353.2568 300.6138 -438.7354 -390.3854 30247.6821 -61.4447 9.5290
TCL: Running FEP window  12: Lambda1 0.4499999999999996 Lambda2 0.39999999999999963 [dLambda -0.04999999999999999]
TCL: Setting parameter firsttimestep to 0
TCL: Setting parameter alchLambda to 0.4499999999999996
Info: NONBONDED TABLE R-SQUARED SPACING: 0.0625
Info: NONBONDED TABLE SIZE: 705 POINTS
TCL: Setting parameter alchLambda2 to 0.39999999999999963
Info: NONBONDED TABLE R-SQUARED SPACING: 0.0625
Info: NONBONDED TABLE SIZE: 705 POINTS
TCL: Running for 1500000 steps
ETITLE: TS BOND ANGLE DIHED IMPRP ELECT VDW BOUNDARY MISC KINETIC TOTAL TEMP POTENTIAL TOTALAVG TEMPAVG PRESSURE GPRESSURE VOLUME PRESSAVG GPRESSAVG
ENERGY: 0 4.7661 10.8844 9.7133 0.0000 -10500.4601 1371.2507 0.0000 0.0000 1783.4698 -7320.3759 305.2144 -9103.8457 -7320.3759 305.2144 -473.8155 -392.0085 30247.6821 -473.8155 -392.0085
ENERGY: 300000 5.0377 17.9705 10.6799 0.0000 -10410.9779 1329.2551 0.0000 0.0000 1781.9399 -7266.0948 304.9525 -9048.0347 -7325.8453 304.3245 -617.4172 -570.7932 30608.3019 -427.2229 -351.6251
ENERGY: 600000 4.6647 10.6995 11.6914 0.0000 -10544.9110 1363.4539 0.0000 0.0000 1763.0735 -7391.3280 301.7238 -9154.4014 -7340.9265 302.9156 -424.5560 -400.7897 29838.9558 -431.4593 -354.2498
ENERGY: 900000 3.7646 15.5763 10.0438 0.0000 -10729.6016 1515.9608 0.0000 0.0000 1773.8899 -7410.3661 303.5749 -9184.2560 -7338.2708 303.5323 831.2431 924.4981 29390.6823 -296.8475 -218.6587
ENERGY: 1200000 4.6848 20.3628 9.2344 0.0000 -10707.5391 1487.8850 0.0000 0.0000 1771.0277 -7414.3444 303.0851 -9185.3721 -7359.2310 302.9318 69.7548 171.1066 30146.5433 -209.3016 -139.5746
ENERGY: 1500000 4.2732 15.8700 10.2397 0.0000 -10534.3215 1458.0236 0.0000 0.0000 1721.8007 -7324.1143 294.6606 -9045.9150 -7358.8865 302.0649 384.0184 476.9562 30289.1852 -128.0319 -60.6161
TCL: Running FEP window  13: Lambda1 0.39999999999999963 Lambda2 0.34999999999999964 [dLambda -0.04999999999999999]
TCL: Setting parameter firsttimestep to 0
TCL: Setting parameter alchLambda to 0.39999999999999963
Info: NONBONDED TABLE R-SQUARED SPACING: 0.0625
Info: NONBONDED TABLE SIZE: 705 POINTS
TCL: Setting parameter alchLambda2 to 0.34999999999999964
Info: NONBONDED TABLE R-SQUARED SPACING: 0.0625
Info: NONBONDED TABLE SIZE: 705 POINTS
TCL: Running for 1500000 steps
ETITLE: TS BOND ANGLE DIHED IMPRP ELECT VDW BOUNDARY MISC KINETIC TOTAL TEMP POTENTIAL TOTALAVG TEMPAVG PRESSURE GPRESSURE VOLUME PRESSAVG GPRESSAVG
ENERGY: 0 4.2732 15.8700 10.2397 0.0000 -10534.3215 1458.7727 0.0000 0.0000 1720.9371 -7324.2288 294.5128 -9045.1659 -7324.2288 294.5128 391.0198 471.0032 30289.1852 391.0198 471.0032
ENERGY: 300000 2.1803 14.5415 9.1802 0.0000 -10511.1779 1417.0176 0.0000 0.0000 1757.6814 -7310.5768 300.8011 -9068.2582 -7346.0250 300.9062 373.2477 419.4324 29837.1199 264.2233 326.5009
ENERGY: 600000 4.5275 19.6477 10.1351 0.0000 -10545.8359 1403.2277 0.0000 0.0000 1794.0768 -7314.2212 307.0296 -9108.2980 -7330.3418 302.0853 -201.4240 -166.4073 30321.2291 115.7302 182.3042
ENERGY: 900000 6.3165 16.1574 10.9557 0.0000 -10593.9660 1436.7865 0.0000 0.0000 1739.5823 -7384.1676 297.7037 -9123.7499 -7347.6511 300.6483 243.0555 337.8223 29519.2719 43.0077 108.1675
ENERGY: 1200000 5.5725 19.4224 10.1525 0.0000 -10523.9153 1452.5024 0.0000 0.0000 1719.7773 -7316.4881 294.3143 -9036.2654 -7350.1260 299.9683 134.3629 211.7644 30429.8607 61.9777 123.5136
ENERGY: 1500000 2.7049 15.0615 9.4890 0.0000 -10695.0113 1534.7114 0.0000 0.0000 1724.3824 -7408.6620 295.1024 -9133.0444 -7346.4958 300.1469 813.9974 871.2684 29799.3986 75.1120 134.4647
TCL: Running FEP window  14: Lambda1 0.34999999999999964 Lambda2 0.29999999999999966 [dLambda -0.04999999999999999]
TCL: Setting parameter firsttimestep to 0
TCL: Setting parameter alchLambda to 0.34999999999999964
Info: NONBONDED TABLE R-SQUARED SPACING: 0.0625
Info: NONBONDED TABLE SIZE: 705 POINTS
TCL: Setting parameter alchLambda2 to 0.29999999999999966
Info: NONBONDED TABLE R-SQUARED SPACING: 0.0625
Info: NONBONDED TABLE SIZE: 705 POINTS
TCL: Running for 1500000 steps
ETITLE: TS BOND ANGLE DIHED IMPRP ELECT VDW BOUNDARY MISC KINETIC TOTAL TEMP POTENTIAL TOTALAVG TEMPAVG PRESSURE GPRESSURE VOLUME PRESSAVG GPRESSAVG
ENERGY: 0 2.7049 15.0615 9.4890 0.0000 -10695.0120 1534.9565 0.0000 0.0000 1723.5394 -7409.2607 294.9582 -9132.8001 -7409.2607 294.9582 776.4322 862.7919 29799.3986 776.4322 862.7919
ENERGY: 300000 3.9104 13.8978 9.7628 0.0000 -10539.8455 1410.9406 0.0000 0.0000 1733.0143 -7368.3197 296.5796 -9101.3340 -7398.5376 295.5678 25.8094 65.7381 30048.2737 365.1414 427.8058
ENERGY: 600000 2.4915 10.7171 9.3695 0.0000 -10507.3763 1342.1594 0.0000 0.0000 1816.6145 -7326.0243 310.8866 -9142.6388 -7357.3408 299.1504 -397.7549 -368.5042 29718.2080 292.8289 343.8361
ENERGY: 900000 6.2230 16.4158 9.6849 0.0000 -10558.8351 1414.1029 0.0000 0.0000 1740.5031 -7371.9055 297.8613 -9112.4086 -7354.5703 299.1390 -321.4294 -289.3786 29966.3141 149.9887 196.3533
ENERGY: 1200000 6.1810 21.3508 8.9149 0.0000 -10617.4762 1477.5086 0.0000 0.0000 1734.8050 -7368.7160 296.8861 -9103.5209 -7359.4819 298.4757 269.9665 353.4898 30001.0084 136.6670 185.8881
ENERGY: 1500000 4.3097 17.1022 10.8640 0.0000 -10657.5186 1447.3326 0.0000 0.0000 1707.3329 -7470.5771 292.1847 -9177.9100 -7366.7689 297.1916 -125.2606 -67.9064 29958.3450 104.3873 152.4618
TCL: Running FEP window  15: Lambda1 0.29999999999999966 Lambda2 0.24999999999999967 [dLambda -0.04999999999999999]
TCL: Setting parameter firsttimestep to 0
TCL: Setting parameter alchLambda to 0.29999999999999966
Info: NONBONDED TABLE R-SQUARED SPACING: 0.0625
Info: NONBONDED TABLE SIZE: 705 POINTS
TCL: Setting parameter alchLambda2 to 0.24999999999999967
Info: NONBONDED TABLE R-SQUARED SPACING: 0.0625
Info: NONBONDED TABLE SIZE: 705 POINTS
TCL: Running for 1500000 steps
ETITLE: TS BOND ANGLE DIHED IMPRP ELECT VDW BOUNDARY MISC KINETIC TOTAL TEMP POTENTIAL TOTALAVG TEMPAVG PRESSURE GPRESSURE VOLUME PRESSAVG GPRESSAVG
ENERGY: 0 4.3097 17.1022 10.8640 0.0000 -10657.5188 1447.7138 0.0000 0.0000 1706.4244 -7471.1046 292.0292 -9177.5290 -7471.1046 292.0292 -147.3882 -68.5453 29958.3450 -147.3882 -68.5453
ENERGY: 300000 1.4072 11.3468 10.8346 0.0000 -10689.2371 1509.3922 0.0000 0.0000 1709.9300 -7446.3263 292.6291 -9156.2563 -7416.9440 295.1113 521.5582 599.0379 30007.4132 486.1696 520.7017
ENERGY: 600000 3.0785 16.4852 10.4675 0.0000 -10583.2584 1394.8645 0.0000 0.0000 1725.1956 -7433.1672 295.2416 -9158.3627 -7409.6761 295.4236 -688.2528 -622.4870 30608.5881 48.4322 101.3902
ENERGY: 900000 6.7299 16.3398 9.8173 0.0000 -10524.9799 1393.1015 0.0000 0.0000 1761.8509 -7337.1405 301.5146 -9098.9914 -7388.9634 295.1386 72.5023 167.6379 29673.8844 1.1392 57.6320
ENERGY: 1200000 3.6564 20.2503 9.8523 0.0000 -10403.3590 1352.2753 0.0000 0.0000 1736.8075 -7280.5171 297.2288 -9017.3246 -7368.6529 296.4412 -172.9085 -138.3212 29764.5114 -89.9205 -41.7440
ENERGY: 1500000 2.0682 14.8942 8.3240 0.0000 -10631.0326 1497.9612 0.0000 0.0000 1791.5193 -7316.2656 306.5919 -9107.7849 -7364.3399 297.3690 471.5451 554.2019 30106.7480 6.8473 59.8123
TCL: Running FEP window  16: Lambda1 0.24999999999999967 Lambda2 0.19999999999999968 [dLambda -0.04999999999999999]
TCL: Setting parameter firsttimestep to 0
TCL: Setting parameter alchLambda to 0.24999999999999967
Info: NONBONDED TABLE R-SQUARED SPACING: 0.0625
Info: NONBONDED TABLE SIZE: 705 POINTS
TCL: Setting parameter alchLambda2 to 0.19999999999999968
Info: NONBONDED TABLE R-SQUARED SPACING: 0.0625
Info: NONBONDED TABLE SIZE: 705 POINTS
TCL: Running for 1500000 steps
ETITLE: TS BOND ANGLE DIHED IMPRP ELECT VDW BOUNDARY MISC KINETIC TOTAL TEMP POTENTIAL TOTALAVG TEMPAVG PRESSURE GPRESSURE VOLUME PRESSAVG GPRESSAVG
ENERGY: 0 2.0682 14.8942 8.3240 0.0000 -10631.0322 1498.5961 0.0000 0.0000 1790.6451 -7316.5045 306.4423 -9107.1496 -7316.5045 306.4423 473.3333 549.8440 30106.7480 473.3333 549.8440
ENERGY: 300000 1.6803 18.2736 10.0567 0.0000 -10625.8629 1481.6764 0.0000 0.0000 1784.8156 -7329.3604 305.4447 -9114.1759 -7351.8490 300.1535 506.5854 573.7826 30078.5373 71.8854 129.1509
ENERGY: 600000 4.7946 21.6290 11.8918 0.0000 -10662.1670 1513.9929 0.0000 0.0000 1734.4188 -7375.4399 296.8200 -9109.8587 -7353.4021 300.1898 516.1157 592.6345 30075.0611 243.5380 288.1733
ENERGY: 900000 3.8778 14.4312 9.6400 0.0000 -10559.4006 1387.9308 0.0000 0.0000 1793.3516 -7350.1692 306.9055 -9143.5208 -7366.2027 299.9964 -492.1685 -412.8359 30059.1126 73.0736 123.5161
ENERGY: 1200000 4.8136 14.8381 8.8085 0.0000 -10496.6699 1320.4157 0.0000 0.0000 1737.4561 -7410.3379 297.3398 -9147.7939 -7361.4419 300.3322 -1065.0206 -981.2817 30053.9236 -26.3904 29.2505
ENERGY: 1500000 1.8778 17.0209 9.8902 0.0000 -10510.5882 1353.5572 0.0000 0.0000 1782.9609 -7345.2813 305.1273 -9128.2422 -7366.1914 299.8561 -803.9596 -697.7410 30398.8076 -47.7923 17.4615
TCL: Running FEP window  17: Lambda1 0.19999999999999968 Lambda2 0.1499999999999997 [dLambda -0.04999999999999999]
TCL: Setting parameter firsttimestep to 0
TCL: Setting parameter alchLambda to 0.19999999999999968
Info: NONBONDED TABLE R-SQUARED SPACING: 0.0625
Info: NONBONDED TABLE SIZE: 705 POINTS
TCL: Setting parameter alchLambda2 to 0.1499999999999997
Info: NONBONDED TABLE R-SQUARED SPACING: 0.0625
Info: NONBONDED TABLE SIZE: 705 POINTS
TCL: Running for 1500000 steps
ETITLE: TS BOND ANGLE DIHED IMPRP ELECT VDW BOUNDARY MISC KINETIC TOTAL TEMP POTENTIAL TOTALAVG TEMPAVG PRESSURE GPRESSURE VOLUME PRESSAVG GPRESSAVG
ENERGY: 0 1.8778 17.0209 9.8902 0.0000 -10510.5891 1353.6692 0.0000 0.0000 1782.0994 -7346.0316 304.9798 -9128.1310 -7346.0316 304.9798 -765.5988 -699.5046 30398.8076 -765.5988 -699.5046
ENERGY: 300000 3.6676 16.6069 8.8943 0.0000 -10464.0424 1367.8282 0.0000 0.0000 1788.8818 -7278.1636 306.1406 -9067.0454 -7358.3284 302.1087 -713.4642 -602.4189 30642.5083 -582.7364 -494.4966
ENERGY: 600000 4.2663 14.2923 9.7238 0.0000 -10615.3418 1496.8996 0.0000 0.0000 1784.8808 -7305.2789 305.4558 -9090.1597 -7334.9576 303.6893 397.4734 433.4634 30198.4570 -275.3869 -201.7927
ENERGY: 900000 4.0101 19.7691 9.3262 0.0000 -10533.0435 1385.6455 0.0000 0.0000 1814.1350 -7300.1575 310.4623 -9114.2925 -7322.5267 305.9216 -59.7775 -19.7537 29436.5715 -265.0907 -198.3108
ENERGY: 1200000 1.1247 11.0487 8.9386 0.0000 -10653.9297 1438.4915 0.0000 0.0000 1769.4298 -7424.8964 302.8116 -9194.3262 -7337.0143 304.6573 -110.8784 10.1678 29939.8401 -72.6459 1.2321
ENERGY: 1500000 2.6177 13.4515 8.8747 0.0000 -10472.9281 1393.9971 0.0000 0.0000 1771.2147 -7282.7724 303.1171 -9053.9871 -7334.9336 304.5730 21.7640 145.4731 30011.5552 -46.9008 25.2017
TCL: Running FEP window  18: Lambda1 0.1499999999999997 Lambda2 0.09999999999999969 [dLambda -0.05 ]
TCL: Setting parameter firsttimestep to 0
TCL: Setting parameter alchLambda to 0.1499999999999997
Info: NONBONDED TABLE R-SQUARED SPACING: 0.0625
Info: NONBONDED TABLE SIZE: 705 POINTS
TCL: Setting parameter alchLambda2 to 0.09999999999999969
Info: NONBONDED TABLE R-SQUARED SPACING: 0.0625
Info: NONBONDED TABLE SIZE: 705 POINTS
TCL: Running for 1500000 steps
ETITLE: TS BOND ANGLE DIHED IMPRP ELECT VDW BOUNDARY MISC KINETIC TOTAL TEMP POTENTIAL TOTALAVG TEMPAVG PRESSURE GPRESSURE VOLUME PRESSAVG GPRESSAVG
ENERGY: 0 2.6177 13.4515 8.8747 0.0000 -10472.9281 1393.7538 0.0000 0.0000 1770.3329 -7283.8976 302.9662 -9054.2305 -7283.8976 302.9662 67.6055 142.2672 30011.5552 67.6055 142.2672
ENERGY: 300000 2.4109 15.7288 10.1988 0.0000 -10365.9366 1282.8785 0.0000 0.0000 1749.7172 -7305.0025 299.4381 -9054.7196 -7347.3069 298.7547 -1127.4681 -1064.5399 30225.0229 -159.1690 -103.6570
ENERGY: 600000 4.7294 19.1351 11.0578 0.0000 -10510.2773 1384.6964 0.0000 0.0000 1778.5355 -7312.1232 304.3699 -9090.6587 -7343.8115 299.8645 -341.2776 -259.0510 29856.9984 -92.8910 -31.7399
ENERGY: 900000 6.3713 15.4576 9.9993 0.0000 -10729.5575 1528.8430 0.0000 0.0000 1749.6629 -7419.2233 299.4288 -9168.8863 -7355.3472 300.2918 736.9578 734.5476 30119.7735 -47.5911 10.5631
ENERGY: 1200000 5.1039 18.4413 11.1135 0.0000 -10568.0008 1433.9098 0.0000 0.0000 1801.1695 -7298.2627 308.2434 -9099.4323 -7358.5673 300.6619 -167.6434 -40.6854 30441.3061 -72.2947 -9.9120
ENERGY: 1500000 1.8978 15.7124 9.8356 0.0000 -10598.2511 1419.4081 0.0000 0.0000 1738.0295 -7413.3677 297.4379 -9151.3972 -7367.5129 299.7548 -401.6342 -327.2169 30476.2106 -136.9624 -74.3134
TCL: Running FEP window  19: Lambda1 0.09999999999999969 Lambda2 0.049999999999999684 [dLambda -0.05 ]
TCL: Setting parameter firsttimestep to 0
TCL: Setting parameter alchLambda to 0.09999999999999969
Info: NONBONDED TABLE R-SQUARED SPACING: 0.0625
Info: NONBONDED TABLE SIZE: 705 POINTS
TCL: Setting parameter alchLambda2 to 0.049999999999999684
Info: NONBONDED TABLE R-SQUARED SPACING: 0.0625
Info: NONBONDED TABLE SIZE: 705 POINTS
TCL: Running for 1500000 steps
ETITLE: TS BOND ANGLE DIHED IMPRP ELECT VDW BOUNDARY MISC KINETIC TOTAL TEMP POTENTIAL TOTALAVG TEMPAVG PRESSURE GPRESSURE VOLUME PRESSAVG GPRESSAVG
ENERGY: 0 1.8978 15.7124 9.8356 0.0000 -10598.2501 1419.0277 0.0000 0.0000 1737.1251 -7414.6515 297.2832 -9151.7766 -7414.6515 297.2832 -420.5147 -332.3411 30476.2106 -420.5147 -332.3411
ENERGY: 300000 4.7438 11.7087 8.6036 0.0000 -10642.1945 1460.0857 0.0000 0.0000 1742.1914 -7414.8612 298.1502 -9157.0526 -7387.7038 301.2608 154.1783 222.3238 29860.8020 -95.9888 -48.5841
ENERGY: 600000 2.4592 11.7145 11.2576 0.0000 -10556.2139 1385.2973 0.0000 0.0000 1807.0006 -7338.4847 309.2413 -9145.4854 -7387.3152 300.3428 -369.4665 -375.9406 30289.5520 -83.6322 -35.2484
ENERGY: 900000 5.2741 14.2013 10.6525 0.0000 -10684.4564 1499.5109 0.0000 0.0000 1784.2114 -7370.6062 305.3413 -9154.8176 -7362.2799 301.8505 203.1234 311.7285 29808.1724 -75.6917 -12.2984
ENERGY: 1200000 2.8004 19.1339 10.9940 0.0000 -10384.4492 1285.9508 0.0000 0.0000 1799.0768 -7266.4933 307.8853 -9065.5701 -7351.7524 302.3301 -1074.6891 -959.7331 30046.2589 -132.8256 -63.2084
ENERGY: 1500000 3.1559 13.6512 9.5203 0.0000 -10710.8513 1502.4227 0.0000 0.0000 1802.1848 -7379.9164 308.4171 -9182.1012 -7365.1480 302.2922 544.7757 642.3632 29711.4239 -33.0306 32.2984
TCL: Running FEP window  20: Lambda1 0.049999999999999684 Lambda2 0.0    [dLambda -0.049999999999999684]
TCL: Setting parameter firsttimestep to 0
TCL: Setting parameter alchLambda to 0.049999999999999684
Info: NONBONDED TABLE R-SQUARED SPACING: 0.0625
Info: NONBONDED TABLE SIZE: 705 POINTS
TCL: Setting parameter alchLambda2 to 0.0
Info: NONBONDED TABLE R-SQUARED SPACING: 0.0625
Info: NONBONDED TABLE SIZE: 705 POINTS
TCL: Running for 1500000 steps
ETITLE: TS BOND ANGLE DIHED IMPRP ELECT VDW BOUNDARY MISC KINETIC TOTAL TEMP POTENTIAL TOTALAVG TEMPAVG PRESSURE GPRESSURE VOLUME PRESSAVG GPRESSAVG
ENERGY: 0 3.1559 13.6512 9.5203 0.0000 -10710.8509 1501.2594 0.0000 0.0000 1801.3003 -7381.9637 308.2658 -9183.2640 -7381.9637 308.2658 555.4991 636.1872 29711.4239 555.4991 636.1872
ENERGY: 300000 2.4440 16.4050 9.4552 0.0000 -10673.9062 1473.1614 0.0000 0.0000 1763.4308 -7409.0098 301.7850 -9172.4406 -7396.5179 303.3291 365.7226 419.5496 29444.2768 399.9645 459.1137
ENERGY: 600000 4.1931 14.6879 9.1396 0.0000 -10617.6422 1459.7833 0.0000 0.0000 1720.4468 -7409.3915 294.4289 -9129.8383 -7407.1871 299.3467 -252.7333 -196.6836 30466.3978 248.1889 315.9149
ENERGY: 900000 5.4853 15.3240 8.8132 0.0000 -10393.8425 1260.5263 0.0000 0.0000 1705.7784 -7397.9154 291.9186 -9103.6938 -7397.2102 298.5409 -1672.7283 -1580.8644 30686.2349 -3.6172 58.9678
ENERGY: 1200000 3.2460 12.3444 9.5259 0.0000 -10734.9913 1479.0574 0.0000 0.0000 1738.3984 -7492.4191 297.5011 -9230.8175 -7411.6782 298.4455 161.0434 167.2360 29984.4802 -11.1345 44.5799
ENERGY: 1500000 2.9937 15.1321 9.5549 0.0000 -10465.3643 1378.3359 0.0000 0.0000 1780.9645 -7278.3832 304.7856 -9059.3477 -7396.6045 300.0844 -372.1548 -330.8314 30243.2314 -39.2602 16.0803
TCL: Exiting due to exit command.
