Info: SIMULATION PARAMETERS:
Info: TIMESTEP               2
Info: NUMBER OF STEPS        0
Info: STEPS PER CYCLE        10
Info: PERIODIC CELL BASIS 1  31.6319 0 0
Info: PERIODIC CELL BASIS 2  0 29.7304 0
Info: PERIODIC CELL BASIS 3  0 0 31.2614
Info: PERIODIC CELL CENTER   0 0 0
Info: WRAPPING WATERS AROUND PERIODIC BOUNDARIES ON OUTPUT.
Info: WRAPPING ALL CLUSTERS AROUND PERIODIC BOUNDARIES ON OUTPUT.
Info: FIRST LDB TIMESTEP     50
Info: LAST LDB TIMESTEP     -1
Info: HOM BACKGROUND SCALING 1
Info: PME BACKGROUND SCALING 1
Info: MIN ATOMS PER PATCH    40
Info: EMPTY PATCH LOAD       40 ATOMS
Info: VELOCITY FILE          mobley_6082662_equil.vel
Info: CENTER OF MASS MOVING INITIALLY? NO
Info: DIELECTRIC             1
Info: EXCLUDE                SCALED ONE-FOUR
Info: 1-4 ELECTROSTATICS SCALED BY 0.833333
Info: MODIFIED 1-4 VDW PARAMETERS WILL BE USED
Info: DCD FILENAME           mobley_6082662_prod.dcd
Info: DCD FREQUENCY          100000
Info: DCD FIRST STEP         100000
Info: DCD FILE WILL CONTAIN UNIT CELL DATA
Info: XST FILENAME           mobley_6082662_prod.xst
Info: XST FREQUENCY          100000
Info: NO VELOCITY DCD OUTPUT
Info: NO FORCE DCD OUTPUT
Info: OUTPUT FILENAME        mobley_6082662_prod
Info: BINARY OUTPUT FILES WILL BE USED
Info: RESTART FILENAME       mobley_6082662_prod.restart
Info: RESTART FREQUENCY      100000
Info: BINARY RESTART FILES WILL BE USED
Info: CUTOFF                 9
Info: PAIRLIST DISTANCE      11
Info: PAIRLIST SHRINK RATE   0.01
Info: PAIRLIST GROW RATE     0.01
Info: PAIRLIST TRIGGER       0.3
Info: PAIRLISTS PER CYCLE    2
Info: PAIRLISTS ENABLED
Info: MARGIN                 2
Info: HYDROGEN GROUP CUTOFF  2.5
Info: PATCH DIMENSION        15.5
Info: ENERGY OUTPUT STEPS    100000
Info: ENERGY EVALUATION STEPS    100000
Info: OUTPUT ENERGY PRECISION 4
Info: CROSSTERM ENERGY INCLUDED IN DIHEDRAL
Info: TIMING OUTPUT STEPS    1000000
Info: PRESSURE OUTPUT STEPS  100000
Info: ALCHEMICAL FEP ON
Info: FEP CURRENT LAMBDA VALUE     0
Info: FEP COMPARISON LAMBDA VALUE  0.05
Info: FEP INTRA-ALCHEMICAL NON-BONDED INTERACTIONS WILL BE RETAINED
Info: FEP INTRA-ALCHEMICAL BONDED INTERACTIONS WILL BE RETAINED
Info: FEP VDW SHIFTING COEFFICIENT 5
Info: FEP ELEC. ACTIVE FOR ANNIHILATED PARTICLES BETWEEN LAMBDA = 0 AND LAMBDA = 0.5
Info: FEP ELEC. ACTIVE FOR EXNIHILATED PARTICLES BETWEEN LAMBDA = 0.5 AND LAMBDA = 1
Info: FEP VDW ACTIVE FOR ANNIHILATED PARTICLES BETWEEN LAMBDA = 0 AND LAMBDA = 1
Info: FEP VDW ACTIVE FOR EXNIHILATED PARTICLES BETWEEN LAMBDA = 0 AND LAMBDA = 1
Info: FEP BOND ACTIVE FOR ANNIHILATED PARTICLES BETWEEN LAMBDA = 1 AND LAMBDA = 1
Info: FEP BOND ACTIVE FOR EXNIHILATED PARTICLES BETWEEN LAMBDA = 0 AND LAMBDA = 0
Info: LANGEVIN DYNAMICS ACTIVE
Info: LANGEVIN TEMPERATURE   300
Info: LANGEVIN USING BBK INTEGRATOR
Info: LANGEVIN DAMPING COEFFICIENT IS 1 INVERSE PS
Info: LANGEVIN DYNAMICS APPLIED TO HYDROGENS
Info: LANGEVIN PISTON PRESSURE CONTROL ACTIVE
Info:        TARGET PRESSURE IS 1.01325 BAR
Info:     OSCILLATION PERIOD IS 50 FS
Info:             DECAY TIME IS 25 FS
Info:     PISTON TEMPERATURE IS 300 K
Info:       PRESSURE CONTROL IS GROUP-BASED
Info:    INITIAL STRAIN RATE IS -0.000283378 -0.000283378 -0.000283378
Info:       CELL FLUCTUATION IS ISOTROPIC
Info: PARTICLE MESH EWALD (PME) ACTIVE
Info: PME TOLERANCE               1e-06
Info: PME EWALD COEFFICIENT       0.348832
Info: PME INTERPOLATION ORDER     4
Info: PME GRID DIMENSIONS         32 32 32
Info: PME MAXIMUM GRID SPACING    1
Info: PME CALCULATION WILL BE PERFORMED ON GPU
Info: FULL ELECTROSTATIC EVALUATION FREQUENCY      2
Info: USING VERLET I (r-RESPA) MTS SCHEME.
Info: C1 SPLITTING OF LONG RANGE ELECTROSTATICS
Info: PLACING ATOMS IN PATCHES BY HYDROGEN GROUPS
Info: RIGID BONDS TO HYDROGEN : ALL
Info:         ERROR TOLERANCE : 1e-08
Info:          MAX ITERATIONS : 100
Info: RIGID WATER USING SETTLE ALGORITHM
Info: RANDOM NUMBER SEED     1743758543
Info: USE HYDROGEN BONDS?    NO
Info: Using AMBER format force field!
Info: AMBER PARM FILE        mobley_6082662.prmtop
Info: COORDINATE PDB         mobley_6082662.pdb
Info: Exclusions will be read from PARM file!
Info: SCNB (VDW SCALING)     2
Info: USING ARITHMETIC MEAN TO COMBINE L-J SIGMA PARAMETERS
Info: BINARY COORDINATES     mobley_6082662_equil.coor
Info: SUMMARY OF PARAMETERS:
Info: 8 BONDS
Info: 8 ANGLES
Info:   8 HARMONIC
Info:   0 COSINE-BASED
Info: 4 DIHEDRAL
Info: 0 IMPROPER
Info: 0 CROSSTERM
Info: 0 VDW
Info: 28 VDW_PAIRS
Info: 0 NBTHOLE_PAIRS
Info: To read alchdata from file: mobley_6082662.pdb
Info: To read alchflag data from column: 5
Info: STRUCTURE SUMMARY:
Info: 2917 ATOMS
Info: 2917 BONDS
Info: 24 ANGLES
Info: 39 DIHEDRALS
Info: 0 IMPROPERS
Info: 0 CROSSTERMS
Info: 2970 EXCLUSIONS
Info: 2907 RIGID BONDS
Info: ALCH: 0 ATOMS TO DISAPPEAR IN FINAL STATE
Info: ALCH: 16 ATOMS TO APPEAR IN FINAL STATE
Info: 5844 DEGREES OF FREEDOM
Info: 977 HYDROGEN GROUPS
Info: 3 ATOMS IN LARGEST HYDROGEN GROUP
Info: 977 MIGRATION GROUPS
Info: 3 ATOMS IN LARGEST MIGRATION GROUP
Info: TOTAL MASS = 17559.6 amu
Info: TOTAL CHARGE = -0.00010008 e
Info: MASS DENSITY = 0.991835 g/cm^3
Info: ATOM DENSITY = 0.0992207 atoms/A^3
Info: ADDED 0 IMPLICIT EXCLUSIONS
Info: NONBONDED TABLE R-SQUARED SPACING: 0.0625
Info: NONBONDED TABLE SIZE: 705 POINTS
Info: REMOVING COM VELOCITY -0.120135 0.0546354 -0.195797
Info: Use 3D box decompostion in PME FFT.
Info: Updated CUDA force table with 4096 elements.
Info: Updated CUDA LJ table with 7 x 7 elements.
Info: Found 18 unique exclusion lists needing 40 bytes
TCL: Running for 1500000 steps
ETITLE: TS BOND ANGLE DIHED IMPRP ELECT VDW BOUNDARY MISC KINETIC TOTAL TEMP POTENTIAL TOTALAVG TEMPAVG PRESSURE GPRESSURE VOLUME PRESSAVG GPRESSAVG
ENERGY: 0 2.8657 7.0362 4.6646 0.0000 -10672.8625 1453.4733 0.0000 0.0000 1729.0343 -7475.7885 297.7719 -9204.8227 -7475.7885 297.7719 231.9568 314.6324 29399.1209 231.9568 314.6324
ENERGY: 300000 2.3680 6.0694 3.7412 0.0000 -10681.7452 1465.1559 0.0000 0.0000 1736.7774 -7467.6333 299.1055 -9204.4107 -7469.5310 299.1187 360.1852 461.1316 29255.4012 168.0491 251.3645
ENERGY: 600000 3.6562 6.0733 7.6578 0.0000 -10610.9537 1465.5338 0.0000 0.0000 1799.5422 -7328.4905 309.9147 -9128.0327 -7400.2910 305.4987 446.4448 422.6284 30280.0671 140.4773 202.9326
ENERGY: 900000 3.3770 5.0600 4.9175 0.0000 -10562.8964 1436.0713 0.0000 0.0000 1711.6633 -7401.8074 294.7803 -9113.4707 -7402.7719 302.7296 95.8832 128.4978 29785.4669 85.4707 150.7475
ENERGY: 1200000 3.3612 3.2248 2.9621 0.0000 -10620.4012 1406.1475 0.0000 0.0000 1729.3640 -7475.3417 297.8287 -9204.7056 -7409.2523 301.9934 22.2259 39.7629 29382.3014 169.9094 226.1333
ENERGY: 1500000 3.9022 5.6824 2.6414 0.0000 -10482.1771 1335.5599 0.0000 0.0000 1762.8854 -7371.5057 303.6017 -9134.3912 -7411.7595 301.6909 -779.3591 -726.7424 29979.0723 97.7220 156.0608
TCL: Running FEP window   2: Lambda1 0.05   Lambda2 0.1    [dLambda 0.05  ]
TCL: Setting parameter firsttimestep to 0
TCL: Setting parameter alchLambda to 0.05
Info: NONBONDED TABLE R-SQUARED SPACING: 0.0625
Info: NONBONDED TABLE SIZE: 705 POINTS
TCL: Setting parameter alchLambda2 to 0.1
Info: NONBONDED TABLE R-SQUARED SPACING: 0.0625
Info: NONBONDED TABLE SIZE: 705 POINTS
TCL: Running for 1500000 steps
ETITLE: TS BOND ANGLE DIHED IMPRP ELECT VDW BOUNDARY MISC KINETIC TOTAL TEMP POTENTIAL TOTALAVG TEMPAVG PRESSURE GPRESSURE VOLUME PRESSAVG GPRESSAVG
ENERGY: 0 3.9022 5.6823 2.6414 0.0000 -10482.1764 1338.9381 0.0000 0.0000 1762.0383 -7368.9740 303.4559 -9131.0123 -7368.9740 303.4559 -804.4132 -716.0680 29979.0723 -804.4132 -716.0680
ENERGY: 300000 3.0013 2.6083 4.8393 0.0000 -10483.3544 1392.7196 0.0000 0.0000 1702.5437 -7377.6422 293.2098 -9080.1859 -7405.2166 299.3483 -184.6422 -146.1237 30175.7032 -368.3496 -312.5594
ENERGY: 600000 4.7135 1.2356 5.1295 0.0000 -10696.2519 1468.5150 0.0000 0.0000 1704.1163 -7512.5420 293.4806 -9216.6583 -7437.7546 298.4238 -43.7200 -25.1241 29671.4500 -295.0579 -241.1036
ENERGY: 900000 3.0304 4.8596 2.3152 0.0000 -10751.4878 1482.6948 0.0000 0.0000 1690.4156 -7568.1723 291.1211 -9258.5879 -7443.0324 298.6009 159.1083 142.7927 29890.2193 -174.1704 -122.0642
ENERGY: 1200000 1.9653 3.6367 2.3385 0.0000 -10678.7823 1533.0258 0.0000 0.0000 1696.6615 -7441.1545 292.1967 -9137.8160 -7443.2615 298.2282 839.1316 882.9481 29589.0054 -5.8450 41.3877
ENERGY: 1500000 1.3091 5.0639 5.1844 0.0000 -10519.4334 1392.0831 0.0000 0.0000 1784.3165 -7331.4764 307.2926 -9115.7929 -7435.9605 298.4971 -48.1745 33.0714 29748.0392 -47.7532 6.2165
TCL: Running FEP window   3: Lambda1 0.1    Lambda2 0.15000000000000002 [dLambda 0.05000000000000002]
TCL: Setting parameter firsttimestep to 0
TCL: Setting parameter alchLambda to 0.1
Info: NONBONDED TABLE R-SQUARED SPACING: 0.0625
Info: NONBONDED TABLE SIZE: 705 POINTS
TCL: Setting parameter alchLambda2 to 0.15000000000000002
Info: NONBONDED TABLE R-SQUARED SPACING: 0.0625
Info: NONBONDED TABLE SIZE: 705 POINTS
TCL: Running for 1500000 steps
ETITLE: TS BOND ANGLE DIHED IMPRP ELECT VDW BOUNDARY MISC KINETIC TOTAL TEMP POTENTIAL TOTALAVG TEMPAVG PRESSURE GPRESSURE VOLUME PRESSAVG GPRESSAVG
ENERGY: 0 1.3091 5.0639 5.1844 0.0000 -10519.4329 1392.7941 0.0000 0.0000 1783.4763 -7331.6052 307.1479 -9115.0814 -7331.6052 307.1479 -53.7119 39.2335 29748.0392 -53.7119 39.2335
ENERGY: 300000 3.2670 9.3642 3.6205 0.0000 -10639.5788 1469.8704 0.0000 0.0000 1684.9572 -7468.4994 290.1810 -9153.4566 -7422.1993 299.9889 344.0118 431.9492 29927.6185 -99.9115 -18.7712
ENERGY: 600000 2.3772 2.0831 6.3975 0.0000 -10561.3757 1381.1263 0.0000 0.0000 1733.1277 -7436.2640 298.4769 -9169.3916 -7399.3593 300.8603 -251.4093 -158.7332 29637.6331 -61.7686 36.5589
ENERGY: 900000 1.1602 4.4355 3.9309 0.0000 -10659.8231 1410.6644 0.0000 0.0000 1675.7079 -7563.9243 288.5881 -9239.6321 -7418.1784 301.3329 -111.2846 -5.3646 29377.6280 -77.8391 17.9279
ENERGY: 1200000 8.3532 2.1458 4.3625 0.0000 -10548.0519 1412.2180 0.0000 0.0000 1742.1247 -7378.8477 300.0264 -9120.9724 -7419.7390 300.1439 -219.3975 -143.4661 29827.8474 -113.6087 -20.0423
ENERGY: 1500000 2.7667 4.3390 4.5214 0.0000 -10592.3721 1382.0075 0.0000 0.0000 1721.5699 -7477.1676 296.4864 -9198.7375 -7422.0592 300.0879 -330.5090 -228.8922 29586.5739 -65.1754 23.4241
TCL: Running FEP window   4: Lambda1 0.15000000000000002 Lambda2 0.2    [dLambda 0.04999999999999999]
TCL: Setting parameter firsttimestep to 0
TCL: Setting parameter alchLambda to 0.15000000000000002
Info: NONBONDED TABLE R-SQUARED SPACING: 0.0625
Info: NONBONDED TABLE SIZE: 705 POINTS
TCL: Setting parameter alchLambda2 to 0.2
Info: NONBONDED TABLE R-SQUARED SPACING: 0.0625
Info: NONBONDED TABLE SIZE: 705 POINTS
TCL: Running for 1500000 steps
ETITLE: TS BOND ANGLE DIHED IMPRP ELECT VDW BOUNDARY MISC KINETIC TOTAL TEMP POTENTIAL TOTALAVG TEMPAVG PRESSURE GPRESSURE VOLUME PRESSAVG GPRESSAVG
ENERGY: 0 2.7667 4.3390 4.5214 0.0000 -10592.3712 1381.5615 0.0000 0.0000 1720.7165 -7478.4661 296.3395 -9199.1826 -7478.4661 296.3395 -310.8587 -226.4299 29586.5739 -310.8587 -226.4299
ENERGY: 300000 3.3209 4.0162 2.4845 0.0000 -10588.3702 1386.4633 0.0000 0.0000 1764.7264 -7427.3588 303.9188 -9192.0852 -7443.3086 302.5276 -520.4502 -482.2684 30146.0075 -180.9924 -104.2383
ENERGY: 600000 3.4533 3.8532 2.6848 0.0000 -10577.2624 1358.4791 0.0000 0.0000 1739.4993 -7469.2928 299.5742 -9208.7921 -7444.2254 300.6546 -773.1370 -634.5874 29958.6850 -316.0347 -230.8430
ENERGY: 900000 5.1912 3.1151 4.2816 0.0000 -10561.3787 1402.0717 0.0000 0.0000 1713.3108 -7433.4082 295.0641 -9146.7190 -7443.3381 301.0807 -342.0339 -249.7548 29968.6024 -216.9970 -144.1517
ENERGY: 1200000 3.3672 3.5769 4.4978 0.0000 -10626.2406 1489.3646 0.0000 0.0000 1708.7861 -7416.6480 294.2848 -9125.4342 -7447.3548 300.2066 221.6592 280.6210 30286.3446 -148.2177 -77.1098
ENERGY: 1500000 3.1499 5.7474 3.3285 0.0000 -10552.2722 1372.2438 0.0000 0.0000 1754.6030 -7413.1996 302.1754 -9167.8026 -7436.2058 300.8211 -580.1608 -499.3415 29975.0357 -156.1838 -82.0006
TCL: Running FEP window   5: Lambda1 0.2    Lambda2 0.25   [dLambda 0.04999999999999999]
TCL: Setting parameter firsttimestep to 0
TCL: Setting parameter alchLambda to 0.2
Info: NONBONDED TABLE R-SQUARED SPACING: 0.0625
Info: NONBONDED TABLE SIZE: 705 POINTS
TCL: Setting parameter alchLambda2 to 0.25
Info: NONBONDED TABLE R-SQUARED SPACING: 0.0625
Info: NONBONDED TABLE SIZE: 705 POINTS
TCL: Running for 1500000 steps
ETITLE: TS BOND ANGLE DIHED IMPRP ELECT VDW BOUNDARY MISC KINETIC TOTAL TEMP POTENTIAL TOTALAVG TEMPAVG PRESSURE GPRESSURE VOLUME PRESSAVG GPRESSAVG
ENERGY: 0 3.1499 5.7474 3.3285 0.0000 -10552.2725 1373.7502 0.0000 0.0000 1753.7633 -7412.5332 302.0307 -9166.2965 -7412.5332 302.0307 -557.9369 -486.1248 29975.0357 -557.9369 -486.1248
ENERGY: 300000 3.5279 2.1815 2.8817 0.0000 -10670.0651 1446.7001 0.0000 0.0000 1725.7875 -7488.9863 297.2128 -9214.7738 -7463.7253 298.7262 -172.6718 -127.7487 30070.8979 -146.1167 -62.2792
ENERGY: 600000 2.7900 4.4408 5.9411 0.0000 -10690.6727 1413.3054 0.0000 0.0000 1742.9939 -7521.2015 300.1761 -9264.1954 -7468.6869 297.7305 -305.4363 -226.8992 29552.9531 -272.8463 -196.3826
ENERGY: 900000 3.1664 5.6874 2.2313 0.0000 -10602.7479 1430.9686 0.0000 0.0000 1734.8305 -7425.8638 298.7702 -9160.6943 -7466.9506 299.0264 -74.9835 -35.5408 29973.6937 -230.6893 -147.3048
ENERGY: 1200000 2.8246 4.0392 3.4621 0.0000 -10399.6012 1296.9643 0.0000 0.0000 1739.8774 -7352.4336 299.6393 -9092.3110 -7445.4839 297.9536 -1158.8008 -1112.2808 30462.9900 -255.4905 -177.1535
ENERGY: 1500000 1.2665 2.9194 7.6790 0.0000 -10667.3299 1378.6337 0.0000 0.0000 1760.4141 -7516.4173 303.1761 -9276.8314 -7444.9244 298.5880 -715.4384 -655.7742 29747.0342 -219.2905 -143.9010
TCL: Running FEP window   6: Lambda1 0.25   Lambda2 0.3    [dLambda 0.04999999999999999]
TCL: Setting parameter firsttimestep to 0
TCL: Setting parameter alchLambda to 0.25
Info: NONBONDED TABLE R-SQUARED SPACING: 0.0625
Info: NONBONDED TABLE SIZE: 705 POINTS
TCL: Setting parameter alchLambda2 to 0.3
Info: NONBONDED TABLE R-SQUARED SPACING: 0.0625
Info: NONBONDED TABLE SIZE: 705 POINTS
TCL: Running for 1500000 steps
ETITLE: TS BOND ANGLE DIHED IMPRP ELECT VDW BOUNDARY MISC KINETIC TOTAL TEMP POTENTIAL TOTALAVG TEMPAVG PRESSURE GPRESSURE VOLUME PRESSAVG GPRESSAVG
ENERGY: 0 1.2665 2.9194 7.6790 0.0000 -10667.3296 1378.5284 0.0000 0.0000 1759.5469 -7517.3894 303.0268 -9276.9363 -7517.3894 303.0268 -735.4578 -650.7217 29747.0342 -735.4578 -650.7217
ENERGY: 300000 4.1871 8.7406 4.1280 0.0000 -10695.1206 1381.0695 0.0000 0.0000 1722.2869 -7574.7084 296.6099 -9296.9953 -7480.9132 302.5211 -976.2535 -883.3795 29981.4787 -453.7458 -380.0462
ENERGY: 600000 5.1585 6.8347 1.5326 0.0000 -10498.8583 1328.7209 0.0000 0.0000 1772.8118 -7383.8000 305.3113 -9156.6118 -7456.9035 302.4960 -800.3655 -783.7866 29923.9138 -405.8560 -357.2176
ENERGY: 900000 1.9712 3.6159 3.6886 0.0000 -10501.3240 1364.3982 0.0000 0.0000 1767.9198 -7359.7303 304.4688 -9127.6502 -7438.9126 303.3238 -276.2250 -177.8643 29996.7841 -430.6054 -370.1445
ENERGY: 1200000 5.0161 5.4563 3.2726 0.0000 -10608.0314 1399.6026 0.0000 0.0000 1755.6450 -7439.0389 302.3548 -9194.6839 -7431.9376 302.6630 -334.1803 -264.5605 29987.6477 -333.1397 -266.2129
ENERGY: 1500000 3.2859 2.6881 4.5418 0.0000 -10654.7064 1472.3929 0.0000 0.0000 1737.9703 -7433.8273 299.3109 -9171.7976 -7433.5383 301.6115 398.4360 473.4477 29524.4100 -217.6757 -147.9977
TCL: Running FEP window   7: Lambda1 0.3    Lambda2 0.35   [dLambda 0.04999999999999999]
TCL: Setting parameter firsttimestep to 0
TCL: Setting parameter alchLambda to 0.3
Info: NONBONDED TABLE R-SQUARED SPACING: 0.0625
Info: NONBONDED TABLE SIZE: 705 POINTS
TCL: Setting parameter alchLambda2 to 0.35
Info: NONBONDED TABLE R-SQUARED SPACING: 0.0625
Info: NONBONDED TABLE SIZE: 705 POINTS
TCL: Running for 1500000 steps
ETITLE: TS BOND ANGLE DIHED IMPRP ELECT VDW BOUNDARY MISC KINETIC TOTAL TEMP POTENTIAL TOTALAVG TEMPAVG PRESSURE GPRESSURE VOLUME PRESSAVG GPRESSAVG
ENERGY: 0 3.2859 2.6881 4.5418 0.0000 -10654.7059 1472.8754 0.0000 0.0000 1737.0927 -7434.2219 299.1598 -9171.3146 -7434.2219 299.1598 404.8935 481.7988 29524.4100 404.8935 481.7988
ENERGY: 300000 3.9644 4.1101 5.9385 0.0000 -10486.7210 1356.7058 0.0000 0.0000 1819.1030 -7296.8992 313.2835 -9116.0021 -7366.4478 304.3069 -335.9653 -232.9128 29899.3904 -287.0969 -219.1784
ENERGY: 600000 1.3915 3.3087 4.0103 0.0000 -10595.5379 1410.8803 0.0000 0.0000 1779.8591 -7396.0880 306.5249 -9175.9471 -7391.0075 304.0209 -68.9726 2.5073 29962.9333 -280.2089 -213.9490
ENERGY: 900000 2.4911 4.9995 5.4348 0.0000 -10548.1474 1389.2763 0.0000 0.0000 1706.8720 -7439.0736 293.9552 -9145.9456 -7396.8062 303.6060 -227.2995 -189.5174 29706.5311 -270.7768 -211.9675
ENERGY: 1200000 2.7730 7.0391 5.2003 0.0000 -10555.9563 1405.4394 0.0000 0.0000 1705.4160 -7430.0884 293.7044 -9135.5044 -7392.9443 302.1173 -146.1882 -20.7335 29974.0234 -227.7162 -163.8610
ENERGY: 1500000 1.6260 2.7903 9.9611 0.0000 -10783.9306 1524.2899 0.0000 0.0000 1746.2124 -7499.0509 300.7303 -9245.2633 -7403.7177 302.2122 631.2338 654.4967 29369.9044 -127.4621 -64.6216
TCL: Running FEP window   8: Lambda1 0.35   Lambda2 0.39999999999999997 [dLambda 0.04999999999999999]
TCL: Setting parameter firsttimestep to 0
TCL: Setting parameter alchLambda to 0.35
Info: NONBONDED TABLE R-SQUARED SPACING: 0.0625
Info: NONBONDED TABLE SIZE: 705 POINTS
TCL: Setting parameter alchLambda2 to 0.39999999999999997
Info: NONBONDED TABLE R-SQUARED SPACING: 0.0625
Info: NONBONDED TABLE SIZE: 705 POINTS
TCL: Running for 1500000 steps
ETITLE: TS BOND ANGLE DIHED IMPRP ELECT VDW BOUNDARY MISC KINETIC TOTAL TEMP POTENTIAL TOTALAVG TEMPAVG PRESSURE GPRESSURE VOLUME PRESSAVG GPRESSAVG
ENERGY: 0 1.6260 2.7903 9.9611 0.0000 -10783.9304 1524.5789 0.0000 0.0000 1745.3470 -7499.6271 300.5813 -9244.9742 -7499.6271 300.5813 579.5161 661.2084 29369.9044 579.5161 661.2084
ENERGY: 300000 2.4358 4.6547 4.9319 0.0000 -10561.9722 1434.1854 0.0000 0.0000 1718.4909 -7397.2735 295.9562 -9115.7644 -7410.8150 301.7123 146.6226 192.0867 29930.0370 112.1089 160.5660
ENERGY: 600000 3.4363 6.1615 2.9739 0.0000 -10624.6474 1412.9320 0.0000 0.0000 1770.5772 -7428.5665 304.9264 -9199.1437 -7410.8909 302.7712 -348.2951 -342.9120 30083.5994 105.4516 147.3440
ENERGY: 900000 2.7985 4.1849 2.1451 0.0000 -10548.2279 1404.6943 0.0000 0.0000 1725.2734 -7409.1317 297.1243 -9134.4051 -7418.0684 300.6076 7.9336 75.5060 29668.9365 85.6176 130.2124
ENERGY: 1200000 2.3324 7.2316 2.9962 0.0000 -10624.2775 1465.2528 0.0000 0.0000 1712.1415 -7434.3231 294.8627 -9146.4646 -7428.4129 299.7420 354.2095 431.4225 29836.0518 196.4999 246.3832
ENERGY: 1500000 2.9609 4.5483 6.9027 0.0000 -10713.7040 1500.6107 0.0000 0.0000 1784.5112 -7414.1703 307.3261 -9198.6814 -7424.4546 300.6401 624.4162 598.8250 30008.7535 285.9446 329.5434
TCL: Running FEP window   9: Lambda1 0.39999999999999997 Lambda2 0.44999999999999996 [dLambda 0.04999999999999999]
TCL: Setting parameter firsttimestep to 0
TCL: Setting parameter alchLambda to 0.39999999999999997
Info: NONBONDED TABLE R-SQUARED SPACING: 0.0625
Info: NONBONDED TABLE SIZE: 705 POINTS
TCL: Setting parameter alchLambda2 to 0.44999999999999996
Info: NONBONDED TABLE R-SQUARED SPACING: 0.0625
Info: NONBONDED TABLE SIZE: 705 POINTS
TCL: Running for 1500000 steps
ETITLE: TS BOND ANGLE DIHED IMPRP ELECT VDW BOUNDARY MISC KINETIC TOTAL TEMP POTENTIAL TOTALAVG TEMPAVG PRESSURE GPRESSURE VOLUME PRESSAVG GPRESSAVG
ENERGY: 0 2.9609 4.5483 6.9027 0.0000 -10713.7037 1500.7714 0.0000 0.0000 1783.6395 -7414.8810 307.1760 -9198.5205 -7414.8810 307.1760 527.0286 605.6667 30008.7535 527.0286 605.6667
ENERGY: 300000 2.4690 2.8844 2.7252 0.0000 -10609.0052 1429.5064 0.0000 0.0000 1749.8185 -7421.6015 301.3514 -9171.4200 -7430.9091 303.2229 173.5386 302.6658 29874.4969 88.8667 170.4862
ENERGY: 600000 2.7187 3.4921 2.7275 0.0000 -10529.6555 1320.1554 0.0000 0.0000 1778.4538 -7422.1080 306.2829 -9200.5619 -7416.1991 303.2771 -512.0776 -426.9273 29646.5802 -28.3027 51.4329
ENERGY: 900000 1.7618 3.2455 3.1808 0.0000 -10638.8201 1487.6014 0.0000 0.0000 1735.0165 -7408.0142 298.8022 -9143.0306 -7434.8727 302.0050 588.3429 637.3299 30004.9357 79.4201 159.9734
ENERGY: 1200000 2.2628 3.0559 3.4912 0.0000 -10638.0840 1398.3224 0.0000 0.0000 1756.6939 -7474.2579 302.5355 -9230.9518 -7444.3771 302.5429 -230.5404 -213.7534 29603.2995 45.5798 118.7818
ENERGY: 1500000 5.6235 4.2478 3.4973 0.0000 -10533.1271 1467.3714 0.0000 0.0000 1704.8032 -7347.5838 293.5989 -9052.3870 -7442.7453 301.2578 874.4865 911.7208 29506.4248 55.7079 128.5148
TCL: Running FEP window  10: Lambda1 0.44999999999999996 Lambda2 0.49999999999999994 [dLambda 0.04999999999999999]
TCL: Setting parameter firsttimestep to 0
TCL: Setting parameter alchLambda to 0.44999999999999996
Info: NONBONDED TABLE R-SQUARED SPACING: 0.0625
Info: NONBONDED TABLE SIZE: 705 POINTS
TCL: Setting parameter alchLambda2 to 0.49999999999999994
Info: NONBONDED TABLE R-SQUARED SPACING: 0.0625
Info: NONBONDED TABLE SIZE: 705 POINTS
TCL: Running for 1500000 steps
ETITLE: TS BOND ANGLE DIHED IMPRP ELECT VDW BOUNDARY MISC KINETIC TOTAL TEMP POTENTIAL TOTALAVG TEMPAVG PRESSURE GPRESSURE VOLUME PRESSAVG GPRESSAVG
ENERGY: 0 5.6235 4.2478 3.4973 0.0000 -10533.1275 1467.5310 0.0000 0.0000 1703.9239 -7348.3039 293.4475 -9052.2278 -7348.3039 293.4475 828.4997 919.0552 29506.4248 828.4997 919.0552
ENERGY: 300000 2.7046 6.4169 2.9647 0.0000 -10541.8611 1442.9523 0.0000 0.0000 1706.9790 -7379.8437 293.9736 -9086.8227 -7381.4579 295.2958 162.4251 183.4422 30663.4838 382.1081 428.5463
ENERGY: 600000 3.2016 5.9632 5.5739 0.0000 -10706.8480 1470.6474 0.0000 0.0000 1734.1230 -7487.3390 298.6483 -9221.4619 -7401.7940 299.4292 387.1068 453.7486 29840.6403 110.3026 178.2181
ENERGY: 900000 3.1800 3.2982 4.5001 0.0000 -10608.7254 1381.9592 0.0000 0.0000 1774.2569 -7441.5310 305.5601 -9215.7878 -7396.2630 300.8631 -597.8348 -583.8016 30303.2551 56.2129 123.0620
ENERGY: 1200000 0.9957 4.1219 3.9029 0.0000 -10626.0114 1458.1280 0.0000 0.0000 1763.1032 -7395.7597 303.6392 -9158.8629 -7409.2481 300.0036 238.1906 301.1915 29918.3841 70.0622 139.9215
ENERGY: 1500000 4.6902 5.9421 4.9789 0.0000 -10616.4207 1372.2258 0.0000 0.0000 1672.1169 -7556.4669 287.9697 -9228.5838 -7420.6860 298.4633 -465.3400 -473.7287 29679.8964 48.6955 114.1334
TCL: Running FEP window  11: Lambda1 0.49999999999999994 Lambda2 0.5499999999999999 [dLambda 0.04999999999999999]
TCL: Setting parameter firsttimestep to 0
TCL: Setting parameter alchLambda to 0.49999999999999994
Info: NONBONDED TABLE R-SQUARED SPACING: 0.0625
Info: NONBONDED TABLE SIZE: 705 POINTS
TCL: Setting parameter alchLambda2 to 0.5499999999999999
Info: NONBONDED TABLE R-SQUARED SPACING: 0.0625
Info: NONBONDED TABLE SIZE: 705 POINTS
TCL: Running for 1500000 steps
ETITLE: TS BOND ANGLE DIHED IMPRP ELECT VDW BOUNDARY MISC KINETIC TOTAL TEMP POTENTIAL TOTALAVG TEMPAVG PRESSURE GPRESSURE VOLUME PRESSAVG GPRESSAVG
ENERGY: 0 4.6902 5.9421 4.9789 0.0000 -10616.4212 1372.0375 0.0000 0.0000 1671.2550 -7557.5175 287.8213 -9228.7725 -7557.5175 287.8213 -547.0801 -465.8760 29679.8964 -547.0801 -465.8760
ENERGY: 300000 6.3405 4.2590 5.1372 0.0000 -10626.5675 1431.2405 0.0000 0.0000 1773.7182 -7405.8722 305.4673 -9179.5903 -7427.3105 300.2379 -59.6145 -2.7031 30267.3011 -137.1323 -54.0034
ENERGY: 600000 4.4055 2.3768 3.1603 0.0000 -10608.4951 1394.7550 0.0000 0.0000 1745.0407 -7458.7568 300.5286 -9203.7975 -7411.4490 299.0099 -36.5125 69.3104 29900.3106 7.1486 95.0578
ENERGY: 900000 8.3461 3.0703 6.6004 0.0000 -10606.4463 1388.3208 0.0000 0.0000 1745.1492 -7454.9594 300.5472 -9200.1086 -7425.3264 298.1622 -526.1779 -483.7587 29799.5740 -16.4696 60.4872
ENERGY: 1200000 1.1083 5.1414 3.8959 0.0000 -10447.5569 1355.9691 0.0000 0.0000 1753.0578 -7328.3844 301.9092 -9081.4422 -7418.7633 297.9615 -635.2460 -471.3509 30553.7865 -87.2099 -3.4125
ENERGY: 1500000 3.5745 4.0847 8.0981 0.0000 -10567.1871 1374.7763 0.0000 0.0000 1738.0014 -7438.6521 299.3162 -9176.6535 -7425.5068 297.9481 -571.4780 -462.5269 29956.2966 -151.8466 -74.4213
TCL: Running FEP window  12: Lambda1 0.5499999999999999 Lambda2 0.6    [dLambda 0.050000000000000044]
TCL: Setting parameter firsttimestep to 0
TCL: Setting parameter alchLambda to 0.5499999999999999
Info: NONBONDED TABLE R-SQUARED SPACING: 0.0625
Info: NONBONDED TABLE SIZE: 705 POINTS
TCL: Setting parameter alchLambda2 to 0.6
Info: NONBONDED TABLE R-SQUARED SPACING: 0.0625
Info: NONBONDED TABLE SIZE: 705 POINTS
TCL: Running for 1500000 steps
ETITLE: TS BOND ANGLE DIHED IMPRP ELECT VDW BOUNDARY MISC KINETIC TOTAL TEMP POTENTIAL TOTALAVG TEMPAVG PRESSURE GPRESSURE VOLUME PRESSAVG GPRESSAVG
ENERGY: 0 3.5745 4.0847 8.0981 0.0000 -10566.0713 1374.5168 0.0000 0.0000 1737.1163 -7438.6809 299.1638 -9175.7972 -7438.6809 299.1638 -526.4302 -453.1089 29956.2966 -526.4302 -453.1089
ENERGY: 300000 2.6264 5.7800 3.4422 0.0000 -10444.0799 1278.8944 0.0000 0.0000 1760.6980 -7392.6390 303.2250 -9153.3370 -7437.6505 299.2697 -1002.4229 -937.3847 29983.6322 -565.9652 -510.1063
ENERGY: 600000 3.1971 1.5414 6.5106 0.0000 -10663.9635 1546.4936 0.0000 0.0000 1790.3908 -7315.8300 308.3387 -9106.2208 -7402.6903 302.4947 1341.5862 1406.1249 29871.4553 -258.5902 -189.1759
ENERGY: 900000 2.6415 4.5627 2.5062 0.0000 -10555.3312 1365.0257 0.0000 0.0000 1727.6791 -7452.9160 297.5386 -9180.5951 -7409.2533 302.1876 -223.8509 -185.7743 29586.3225 -213.9466 -158.5016
ENERGY: 1200000 2.2019 4.4520 5.3753 0.0000 -10537.2403 1361.1450 0.0000 0.0000 1702.4799 -7461.5861 293.1988 -9164.0661 -7415.5229 300.2431 -520.1756 -453.0218 30279.0677 -225.4441 -169.4311
ENERGY: 1500000 2.6655 7.4627 1.8255 0.0000 -10646.1866 1422.4308 0.0000 0.0000 1738.1953 -7473.6069 299.3496 -9211.8022 -7420.3648 300.0926 -68.1272 -83.2548 29670.6201 -213.1867 -158.8787
TCL: Running FEP window  13: Lambda1 0.6    Lambda2 0.65   [dLambda 0.050000000000000044]
TCL: Setting parameter firsttimestep to 0
TCL: Setting parameter alchLambda to 0.6
Info: NONBONDED TABLE R-SQUARED SPACING: 0.0625
Info: NONBONDED TABLE SIZE: 705 POINTS
TCL: Setting parameter alchLambda2 to 0.65
Info: NONBONDED TABLE R-SQUARED SPACING: 0.0625
Info: NONBONDED TABLE SIZE: 705 POINTS
TCL: Running for 1500000 steps
ETITLE: TS BOND ANGLE DIHED IMPRP ELECT VDW BOUNDARY MISC KINETIC TOTAL TEMP POTENTIAL TOTALAVG TEMPAVG PRESSURE GPRESSURE VOLUME PRESSAVG GPRESSAVG
ENERGY: 0 2.6655 7.4627 1.8255 0.0000 -10646.0857 1422.7554 0.0000 0.0000 1737.3131 -7474.0636 299.1977 -9211.3767 -7474.0636 299.1977 -147.9568 -74.5784 29670.6201 -147.9568 -74.5784
ENERGY: 300000 7.2523 4.3473 5.6115 0.0000 -10665.7250 1444.3588 0.0000 0.0000 1778.6778 -7425.4773 306.3215 -9204.1551 -7443.1857 300.4468 254.9908 296.9691 29374.2291 -326.0780 -237.7817
ENERGY: 600000 1.4707 4.3730 6.6736 0.0000 -10662.8930 1480.4231 0.0000 0.0000 1792.0018 -7377.9508 308.6161 -9169.9525 -7438.9015 300.2578 617.5311 641.5440 29968.9386 -179.5526 -101.1807
ENERGY: 900000 5.4186 3.8469 4.8817 0.0000 -10752.9483 1488.5399 0.0000 0.0000 1762.2026 -7488.0587 303.4841 -9250.2612 -7439.7712 300.3578 195.3837 274.6570 29665.2381 -144.2270 -69.5313
ENERGY: 1200000 4.0701 6.8321 7.8939 0.0000 -10563.9503 1375.2726 0.0000 0.0000 1784.2739 -7385.6076 307.2852 -9169.8815 -7438.5368 300.3917 -651.8305 -510.1418 30444.0994 -188.9070 -111.3296
ENERGY: 1500000 1.8745 7.1141 3.2740 0.0000 -10554.3411 1364.4517 0.0000 0.0000 1745.5380 -7432.0889 300.6142 -9177.6268 -7434.1696 300.1070 -646.8677 -550.9537 30238.6473 -195.9219 -112.7799
TCL: Running FEP window  14: Lambda1 0.65   Lambda2 0.7000000000000001 [dLambda 0.050000000000000044]
TCL: Setting parameter firsttimestep to 0
TCL: Setting parameter alchLambda to 0.65
Info: NONBONDED TABLE R-SQUARED SPACING: 0.0625
Info: NONBONDED TABLE SIZE: 705 POINTS
TCL: Setting parameter alchLambda2 to 0.7000000000000001
Info: NONBONDED TABLE R-SQUARED SPACING: 0.0625
Info: NONBONDED TABLE SIZE: 705 POINTS
TCL: Running for 1500000 steps
ETITLE: TS BOND ANGLE DIHED IMPRP ELECT VDW BOUNDARY MISC KINETIC TOTAL TEMP POTENTIAL TOTALAVG TEMPAVG PRESSURE GPRESSURE VOLUME PRESSAVG GPRESSAVG
ENERGY: 0 1.8745 7.1141 3.2740 0.0000 -10555.4002 1364.1145 0.0000 0.0000 1744.6924 -7434.3307 300.4686 -9179.0230 -7434.3307 300.4686 -631.4203 -547.0122 30238.6473 -631.4203 -547.0122
ENERGY: 300000 1.9217 4.0731 6.9757 0.0000 -10419.5148 1315.6107 0.0000 0.0000 1779.3436 -7311.5900 306.4362 -9090.9336 -7413.4529 299.7986 -808.5612 -744.9865 30497.6613 -525.8920 -466.1190
ENERGY: 600000 2.9046 4.9730 4.3572 0.0000 -10674.2919 1451.0643 0.0000 0.0000 1751.7499 -7459.2429 301.6840 -9210.9928 -7438.8837 301.6822 42.8912 46.5678 30153.3624 -353.0898 -298.3704
ENERGY: 900000 3.2115 5.0252 7.3406 0.0000 -10656.1674 1400.4477 0.0000 0.0000 1684.1803 -7555.9622 290.0473 -9240.1425 -7434.3584 302.2972 -369.2828 -277.8529 29742.3212 -276.7068 -218.3165
ENERGY: 1200000 2.0040 4.7053 2.6690 0.0000 -10491.7833 1371.6898 0.0000 0.0000 1754.5717 -7356.1435 302.1700 -9110.7152 -7431.4758 302.3366 -331.7102 -229.4408 30406.9519 -242.0256 -175.7371
ENERGY: 1500000 2.1709 3.3727 5.7730 0.0000 -10456.4996 1305.1612 0.0000 0.0000 1685.6376 -7454.3842 290.2982 -9140.0218 -7423.0949 301.8676 -532.3557 -435.9581 29790.1262 -233.8911 -164.2164
TCL: Running FEP window  15: Lambda1 0.7000000000000001 Lambda2 0.7500000000000001 [dLambda 0.050000000000000044]
TCL: Setting parameter firsttimestep to 0
TCL: Setting parameter alchLambda to 0.7000000000000001
Info: NONBONDED TABLE R-SQUARED SPACING: 0.0625
Info: NONBONDED TABLE SIZE: 705 POINTS
TCL: Setting parameter alchLambda2 to 0.7500000000000001
Info: NONBONDED TABLE R-SQUARED SPACING: 0.0625
Info: NONBONDED TABLE SIZE: 705 POINTS
TCL: Running for 1500000 steps
ETITLE: TS BOND ANGLE DIHED IMPRP ELECT VDW BOUNDARY MISC KINETIC TOTAL TEMP POTENTIAL TOTALAVG TEMPAVG PRESSURE GPRESSURE VOLUME PRESSAVG GPRESSAVG
ENERGY: 0 2.1709 3.3727 5.7730 0.0000 -10458.2949 1305.9522 0.0000 0.0000 1684.7836 -7456.2424 290.1511 -9141.0260 -7456.2424 290.1511 -504.4536 -420.7027 29790.1262 -504.4536 -420.7027
ENERGY: 300000 3.3914 3.7447 3.3898 0.0000 -10835.9126 1596.4680 0.0000 0.0000 1836.2710 -7392.6476 316.2401 -9228.9186 -7421.0764 303.3087 1494.9901 1566.8731 29598.6155 383.0991 451.2743
ENERGY: 600000 5.1909 3.8210 8.2786 0.0000 -10642.1276 1407.1980 0.0000 0.0000 1718.2617 -7499.3775 295.9167 -9217.6392 -7451.9427 300.4731 -486.2507 -412.5875 30250.8349 89.3025 159.8365
ENERGY: 900000 3.5163 4.9110 6.8121 0.0000 -10606.9282 1394.7439 0.0000 0.0000 1778.5426 -7418.4022 306.2982 -9196.9449 -7447.6667 300.3747 -118.4478 -35.9786 29914.5403 94.7975 159.5516
ENERGY: 1200000 4.0877 3.9281 2.7472 0.0000 -10606.0742 1383.3246 0.0000 0.0000 1795.9125 -7416.0741 309.2896 -9211.9866 -7440.3794 300.5750 -564.3885 -495.7491 30230.4822 -35.2898 25.2787
ENERGY: 1500000 0.8962 7.8296 7.2602 0.0000 -10720.1131 1446.0825 0.0000 0.0000 1758.3928 -7499.6517 302.8280 -9258.0445 -7436.6375 300.5492 -26.5606 33.2802 30141.6769 -114.3486 -55.8381
TCL: Running FEP window  16: Lambda1 0.7500000000000001 Lambda2 0.8000000000000002 [dLambda 0.050000000000000044]
TCL: Setting parameter firsttimestep to 0
TCL: Setting parameter alchLambda to 0.7500000000000001
Info: NONBONDED TABLE R-SQUARED SPACING: 0.0625
Info: NONBONDED TABLE SIZE: 705 POINTS
TCL: Setting parameter alchLambda2 to 0.8000000000000002
Info: NONBONDED TABLE R-SQUARED SPACING: 0.0625
Info: NONBONDED TABLE SIZE: 705 POINTS
TCL: Running for 1500000 steps
ETITLE: TS BOND ANGLE DIHED IMPRP ELECT VDW BOUNDARY MISC KINETIC TOTAL TEMP POTENTIAL TOTALAVG TEMPAVG PRESSURE GPRESSURE VOLUME PRESSAVG GPRESSAVG
ENERGY: 0 0.8962 7.8296 7.2602 0.0000 -10721.2393 1446.0607 0.0000 0.0000 1757.5086 -7501.6839 302.6757 -9259.1925 -7501.6839 302.6757 -29.8266 38.0769 30141.6769 -29.8266 38.0769
ENERGY: 300000 4.4728 4.0305 7.8064 0.0000 -10491.2830 1318.1845 0.0000 0.0000 1742.3948 -7414.3939 300.0729 -9156.7887 -7402.6352 301.5298 -785.1457 -783.6765 30133.7749 -288.3775 -245.1901
ENERGY: 600000 1.1652 5.4612 5.8641 0.0000 -10643.9743 1429.6288 0.0000 0.0000 1738.7320 -7463.1229 299.4421 -9201.8550 -7401.4416 300.5452 -338.2616 -271.9582 30441.9479 -237.0145 -193.3659
ENERGY: 900000 2.0742 5.8238 4.9865 0.0000 -10465.9297 1363.1576 0.0000 0.0000 1766.8958 -7322.9918 304.2924 -9089.8877 -7396.7030 301.1881 -581.8844 -444.5887 30441.4520 -264.9205 -201.3313
ENERGY: 1200000 5.1570 2.6946 4.4159 0.0000 -10698.4232 1455.2361 0.0000 0.0000 1735.1231 -7495.7964 298.8206 -9230.9195 -7398.3686 302.3504 307.7026 323.7686 29449.1998 -162.7128 -103.6756
ENERGY: 1500000 4.1228 6.1300 6.6095 0.0000 -10494.6913 1336.9278 0.0000 0.0000 1830.8718 -7310.0293 315.3103 -9140.9011 -7399.6353 302.7302 -703.6214 -627.2050 30343.7355 -128.6582 -72.0722
TCL: Running FEP window  17: Lambda1 0.8000000000000002 Lambda2 0.8500000000000002 [dLambda 0.050000000000000044]
TCL: Setting parameter firsttimestep to 0
TCL: Setting parameter alchLambda to 0.8000000000000002
Info: NONBONDED TABLE R-SQUARED SPACING: 0.0625
Info: NONBONDED TABLE SIZE: 705 POINTS
TCL: Setting parameter alchLambda2 to 0.8500000000000002
Info: NONBONDED TABLE R-SQUARED SPACING: 0.0625
Info: NONBONDED TABLE SIZE: 705 POINTS
TCL: Running for 1500000 steps
ETITLE: TS BOND ANGLE DIHED IMPRP ELECT VDW BOUNDARY MISC KINETIC TOTAL TEMP POTENTIAL TOTALAVG TEMPAVG PRESSURE GPRESSURE VOLUME PRESSAVG GPRESSAVG
ENERGY: 0 4.1228 6.1300 6.6095 0.0000 -10495.7226 1337.3331 0.0000 0.0000 1830.0257 -7311.5014 315.1646 -9141.5271 -7311.5014 315.1646 -686.5067 -612.9363 30343.7355 -686.5067 -612.9363
ENERGY: 300000 3.5782 3.3342 3.6584 0.0000 -10469.0145 1369.9174 0.0000 0.0000 1713.7121 -7374.8143 295.1332 -9088.5264 -7407.5756 302.4810 -501.6576 -508.2207 30610.0922 -620.2146 -564.0389
ENERGY: 600000 4.6134 3.1196 5.9725 0.0000 -10521.4231 1326.0929 0.0000 0.0000 1764.7037 -7416.9209 303.9149 -9181.6247 -7405.5444 301.7766 -822.7960 -727.9426 30239.5711 -564.5840 -501.4152
ENERGY: 900000 3.9218 4.2552 5.2816 0.0000 -10485.8564 1317.5943 0.0000 0.0000 1734.0289 -7420.7746 298.6321 -9154.8035 -7412.9040 301.3257 -943.7042 -959.6791 30516.3560 -458.6448 -394.9538
ENERGY: 1200000 1.7425 3.6963 2.5392 0.0000 -10632.8280 1430.2161 0.0000 0.0000 1751.9414 -7442.6924 301.7170 -9194.6339 -7419.6042 301.6157 85.1015 152.1609 29777.6749 -416.3983 -347.7052
ENERGY: 1500000 4.1167 5.6597 4.8016 0.0000 -10523.7095 1361.7848 0.0000 0.0000 1718.2951 -7429.0515 295.9225 -9147.3466 -7419.5458 301.2864 -849.9416 -711.2303 30518.3720 -377.0022 -303.2443
TCL: Running FEP window  18: Lambda1 0.8500000000000002 Lambda2 0.9000000000000002 [dLambda 0.050000000000000044]
TCL: Setting parameter firsttimestep to 0
TCL: Setting parameter alchLambda to 0.8500000000000002
Info: NONBONDED TABLE R-SQUARED SPACING: 0.0625
Info: NONBONDED TABLE SIZE: 705 POINTS
TCL: Setting parameter alchLambda2 to 0.9000000000000002
Info: NONBONDED TABLE R-SQUARED SPACING: 0.0625
Info: NONBONDED TABLE SIZE: 705 POINTS
TCL: Running for 1500000 steps
ETITLE: TS BOND ANGLE DIHED IMPRP ELECT VDW BOUNDARY MISC KINETIC TOTAL TEMP POTENTIAL TOTALAVG TEMPAVG PRESSURE GPRESSURE VOLUME PRESSAVG GPRESSAVG
ENERGY: 0 4.1167 5.6597 4.8016 0.0000 -10525.1138 1361.8461 0.0000 0.0000 1717.4249 -7431.2647 295.7726 -9148.6896 -7431.2647 295.7726 -784.9868 -701.3768 30518.3720 -784.9868 -701.3768
ENERGY: 300000 2.8531 6.3475 6.7087 0.0000 -10719.8572 1405.7667 0.0000 0.0000 1776.5354 -7521.6458 305.9525 -9298.1812 -7421.0275 303.5147 -325.3288 -209.4728 29599.0971 -314.2741 -225.0083
ENERGY: 600000 2.0525 2.8732 4.0087 0.0000 -10674.4575 1488.9460 0.0000 0.0000 1794.4299 -7382.1472 309.0343 -9176.5771 -7404.2794 304.9360 668.8362 699.6174 29798.6693 -140.1363 -72.5889
ENERGY: 900000 0.8532 3.6788 6.1586 0.0000 -10723.7814 1500.2019 0.0000 0.0000 1770.2092 -7442.6797 304.8630 -9212.8889 -7404.9267 304.6198 705.2239 789.0221 29539.7635 35.8721 94.0413
ENERGY: 1200000 2.1470 4.9402 4.9936 0.0000 -10752.2256 1514.0341 0.0000 0.0000 1756.9718 -7469.1390 302.5833 -9226.1108 -7418.5230 303.5695 737.4313 845.9932 29773.7518 22.8449 87.5795
ENERGY: 1500000 4.2398 5.5858 6.3348 0.0000 -10513.7421 1368.1269 0.0000 0.0000 1752.9716 -7376.4833 301.8944 -9129.4549 -7409.2021 303.3297 -297.6442 -217.3722 30014.7082 -17.0362 54.8919
TCL: Running FEP window  19: Lambda1 0.9000000000000002 Lambda2 0.9500000000000003 [dLambda 0.050000000000000044]
TCL: Setting parameter firsttimestep to 0
TCL: Setting parameter alchLambda to 0.9000000000000002
Info: NONBONDED TABLE R-SQUARED SPACING: 0.0625
Info: NONBONDED TABLE SIZE: 705 POINTS
TCL: Setting parameter alchLambda2 to 0.9500000000000003
Info: NONBONDED TABLE R-SQUARED SPACING: 0.0625
Info: NONBONDED TABLE SIZE: 705 POINTS
TCL: Running for 1500000 steps
ETITLE: TS BOND ANGLE DIHED IMPRP ELECT VDW BOUNDARY MISC KINETIC TOTAL TEMP POTENTIAL TOTALAVG TEMPAVG PRESSURE GPRESSURE VOLUME PRESSAVG GPRESSAVG
ENERGY: 0 4.2398 5.5858 6.3348 0.0000 -10515.5522 1368.5155 0.0000 0.0000 1752.1213 -7378.7549 301.7480 -9130.8762 -7378.7549 301.7480 -279.1136 -198.6316 30014.7082 -279.1136 -198.6316
ENERGY: 300000 2.6691 2.5561 5.9812 0.0000 -10590.1901 1393.7659 0.0000 0.0000 1733.2554 -7451.9626 298.4989 -9185.2179 -7431.5224 299.8867 -80.2390 -40.1746 29916.0063 -2.9014 70.4420
ENERGY: 600000 3.2095 2.7991 7.9728 0.0000 -10627.1803 1382.1640 0.0000 0.0000 1751.9829 -7479.0521 301.7241 -9231.0350 -7460.4827 298.7637 -269.0268 -211.1468 29726.7093 -130.4465 -60.1145
ENERGY: 900000 5.0881 3.4975 6.9813 0.0000 -10655.8904 1396.5279 0.0000 0.0000 1757.0413 -7486.7543 302.5953 -9243.7956 -7447.0532 299.4623 -441.9800 -410.1733 29915.1646 -39.2013 25.8575
ENERGY: 1200000 2.3222 3.7922 3.9470 0.0000 -10588.1402 1397.2887 0.0000 0.0000 1727.1131 -7453.6770 297.4411 -9180.7901 -7445.5409 299.1842 -285.0263 -172.6010 30019.5196 26.0714 96.8886
ENERGY: 1500000 2.9743 6.5353 2.8072 0.0000 -10657.7582 1438.0338 0.0000 0.0000 1703.9106 -7503.4971 293.4452 -9207.4077 -7447.9919 298.8728 42.0682 135.1108 29821.6467 45.7963 114.2128
TCL: Running FEP window  20: Lambda1 0.9500000000000003 Lambda2 1.0    [dLambda 0.04999999999999971]
TCL: Setting parameter firsttimestep to 0
TCL: Setting parameter alchLambda to 0.9500000000000003
Info: NONBONDED TABLE R-SQUARED SPACING: 0.0625
Info: NONBONDED TABLE SIZE: 705 POINTS
TCL: Setting parameter alchLambda2 to 1.0
Info: NONBONDED TABLE R-SQUARED SPACING: 0.0625
Info: NONBONDED TABLE SIZE: 705 POINTS
TCL: Running for 1500000 steps
ETITLE: TS BOND ANGLE DIHED IMPRP ELECT VDW BOUNDARY MISC KINETIC TOTAL TEMP POTENTIAL TOTALAVG TEMPAVG PRESSURE GPRESSURE VOLUME PRESSAVG GPRESSAVG
ENERGY: 0 2.9743 6.5353 2.8072 0.0000 -10660.2305 1439.0253 0.0000 0.0000 1703.0507 -7505.8378 293.2971 -9208.8885 -7505.8378 293.2971 63.2129 151.5207 29821.6467 63.2129 151.5207
ENERGY: 300000 2.1562 4.9435 6.5846 0.0000 -10631.0883 1437.7974 0.0000 0.0000 1729.8523 -7449.7542 297.9128 -9179.6064 -7459.2343 298.7139 70.0110 142.0690 30318.7659 105.6106 175.3712
ENERGY: 600000 3.6365 3.0033 5.0167 0.0000 -10599.1013 1483.4590 0.0000 0.0000 1754.0953 -7349.8903 302.0879 -9103.9857 -7430.1567 300.0387 682.4421 702.7822 30021.5044 112.0985 173.9872
ENERGY: 900000 2.9987 3.7076 2.9356 0.0000 -10575.2276 1424.3615 0.0000 0.0000 1778.7337 -7362.4906 306.3311 -9141.2243 -7421.4178 299.9446 175.7526 194.3871 30038.3942 57.9354 119.9690
ENERGY: 1200000 1.7596 4.9118 3.6493 0.0000 -10632.4141 1444.7076 0.0000 0.0000 1752.2025 -7425.1833 301.7619 -9177.3858 -7423.6152 300.6629 244.8899 324.0349 30203.8954 89.9691 159.0443
ENERGY: 1500000 4.7159 5.0907 5.4280 0.0000 -10632.8316 1394.9236 0.0000 0.0000 1738.0939 -7484.5794 299.3322 -9222.6733 -7421.0635 301.2170 -452.0571 -435.9589 30111.9244 40.0200 102.6342
TCL: Exiting due to exit command.
