Info: SIMULATION PARAMETERS:
Info: TIMESTEP               2
Info: NUMBER OF STEPS        0
Info: STEPS PER CYCLE        10
Info: PERIODIC CELL BASIS 1  32.097 0 0
Info: PERIODIC CELL BASIS 2  0 29.7783 0
Info: PERIODIC CELL BASIS 3  0 0 32.6123
Info: PERIODIC CELL CENTER   0 0 0
Info: WRAPPING WATERS AROUND PERIODIC BOUNDARIES ON OUTPUT.
Info: WRAPPING ALL CLUSTERS AROUND PERIODIC BOUNDARIES ON OUTPUT.
Info: FIRST LDB TIMESTEP     50
Info: LAST LDB TIMESTEP     -1
Info: HOM BACKGROUND SCALING 1
Info: PME BACKGROUND SCALING 1
Info: MIN ATOMS PER PATCH    40
Info: EMPTY PATCH LOAD       40 ATOMS
Info: VELOCITY FILE          mobley_9626434_equil.vel
Info: CENTER OF MASS MOVING INITIALLY? NO
Info: DIELECTRIC             1
Info: EXCLUDE                SCALED ONE-FOUR
Info: 1-4 ELECTROSTATICS SCALED BY 0.833333
Info: MODIFIED 1-4 VDW PARAMETERS WILL BE USED
Info: DCD FILENAME           mobley_9626434_prod.dcd
Info: DCD FREQUENCY          100000
Info: DCD FIRST STEP         100000
Info: DCD FILE WILL CONTAIN UNIT CELL DATA
Info: XST FILENAME           mobley_9626434_prod.xst
Info: XST FREQUENCY          100000
Info: NO VELOCITY DCD OUTPUT
Info: NO FORCE DCD OUTPUT
Info: OUTPUT FILENAME        mobley_9626434_prod
Info: BINARY OUTPUT FILES WILL BE USED
Info: RESTART FILENAME       mobley_9626434_prod.restart
Info: RESTART FREQUENCY      100000
Info: BINARY RESTART FILES WILL BE USED
Info: CUTOFF                 9
Info: PAIRLIST DISTANCE      11
Info: PAIRLIST SHRINK RATE   0.01
Info: PAIRLIST GROW RATE     0.01
Info: PAIRLIST TRIGGER       0.3
Info: PAIRLISTS PER CYCLE    2
Info: PAIRLISTS ENABLED
Info: MARGIN                 2
Info: HYDROGEN GROUP CUTOFF  2.5
Info: PATCH DIMENSION        15.5
Info: ENERGY OUTPUT STEPS    100000
Info: ENERGY EVALUATION STEPS    100000
Info: OUTPUT ENERGY PRECISION 4
Info: CROSSTERM ENERGY INCLUDED IN DIHEDRAL
Info: TIMING OUTPUT STEPS    1000000
Info: PRESSURE OUTPUT STEPS  100000
Info: ALCHEMICAL FEP ON
Info: FEP CURRENT LAMBDA VALUE     1
Info: FEP COMPARISON LAMBDA VALUE  0.95
Info: FEP INTRA-ALCHEMICAL NON-BONDED INTERACTIONS WILL BE RETAINED
Info: FEP INTRA-ALCHEMICAL BONDED INTERACTIONS WILL BE RETAINED
Info: FEP VDW SHIFTING COEFFICIENT 5
Info: FEP ELEC. ACTIVE FOR ANNIHILATED PARTICLES BETWEEN LAMBDA = 0 AND LAMBDA = 0.5
Info: FEP ELEC. ACTIVE FOR EXNIHILATED PARTICLES BETWEEN LAMBDA = 0.5 AND LAMBDA = 1
Info: FEP VDW ACTIVE FOR ANNIHILATED PARTICLES BETWEEN LAMBDA = 0 AND LAMBDA = 1
Info: FEP VDW ACTIVE FOR EXNIHILATED PARTICLES BETWEEN LAMBDA = 0 AND LAMBDA = 1
Info: FEP BOND ACTIVE FOR ANNIHILATED PARTICLES BETWEEN LAMBDA = 1 AND LAMBDA = 1
Info: FEP BOND ACTIVE FOR EXNIHILATED PARTICLES BETWEEN LAMBDA = 0 AND LAMBDA = 0
Info: LANGEVIN DYNAMICS ACTIVE
Info: LANGEVIN TEMPERATURE   300
Info: LANGEVIN USING BBK INTEGRATOR
Info: LANGEVIN DAMPING COEFFICIENT IS 1 INVERSE PS
Info: LANGEVIN DYNAMICS APPLIED TO HYDROGENS
Info: LANGEVIN PISTON PRESSURE CONTROL ACTIVE
Info:        TARGET PRESSURE IS 1.01325 BAR
Info:     OSCILLATION PERIOD IS 50 FS
Info:             DECAY TIME IS 25 FS
Info:     PISTON TEMPERATURE IS 300 K
Info:       PRESSURE CONTROL IS GROUP-BASED
Info:    INITIAL STRAIN RATE IS -0.00014504 -0.00014504 -0.00014504
Info:       CELL FLUCTUATION IS ISOTROPIC
Info: PARTICLE MESH EWALD (PME) ACTIVE
Info: PME TOLERANCE               1e-06
Info: PME EWALD COEFFICIENT       0.348832
Info: PME INTERPOLATION ORDER     4
Info: PME GRID DIMENSIONS         36 32 36
Info: PME MAXIMUM GRID SPACING    1
Info: PME CALCULATION WILL BE PERFORMED ON GPU
Info: FULL ELECTROSTATIC EVALUATION FREQUENCY      2
Info: USING VERLET I (r-RESPA) MTS SCHEME.
Info: C1 SPLITTING OF LONG RANGE ELECTROSTATICS
Info: PLACING ATOMS IN PATCHES BY HYDROGEN GROUPS
Info: RIGID BONDS TO HYDROGEN : ALL
Info:         ERROR TOLERANCE : 1e-08
Info:          MAX ITERATIONS : 100
Info: RIGID WATER USING SETTLE ALGORITHM
Info: RANDOM NUMBER SEED     1743904723
Info: USE HYDROGEN BONDS?    NO
Info: Using AMBER format force field!
Info: AMBER PARM FILE        mobley_9626434.prmtop
Info: COORDINATE PDB         mobley_9626434.pdb
Info: Exclusions will be read from PARM file!
Info: SCNB (VDW SCALING)     2
Info: USING ARITHMETIC MEAN TO COMBINE L-J SIGMA PARAMETERS
Info: BINARY COORDINATES     mobley_9626434_equil.coor
Info: SUMMARY OF PARAMETERS:
Info: 8 BONDS
Info: 10 ANGLES
Info:   10 HARMONIC
Info:   0 COSINE-BASED
Info: 10 DIHEDRAL
Info: 0 IMPROPER
Info: 0 CROSSTERM
Info: 0 VDW
Info: 28 VDW_PAIRS
Info: 0 NBTHOLE_PAIRS
Info: To read alchdata from file: mobley_9626434.pdb
Info: To read alchflag data from column: 5
Info: STRUCTURE SUMMARY:
Info: 2965 ATOMS
Info: 2964 BONDS
Info: 26 ANGLES
Info: 38 DIHEDRALS
Info: 0 IMPROPERS
Info: 0 CROSSTERMS
Info: 3017 EXCLUSIONS
Info: 2959 RIGID BONDS
Info: ALCH: 0 ATOMS TO DISAPPEAR IN FINAL STATE
Info: ALCH: 16 ATOMS TO APPEAR IN FINAL STATE
Info: 5936 DEGREES OF FREEDOM
Info: 989 HYDROGEN GROUPS
Info: 4 ATOMS IN LARGEST HYDROGEN GROUP
Info: 989 MIGRATION GROUPS
Info: 4 ATOMS IN LARGEST MIGRATION GROUP
Info: TOTAL MASS = 17799.8 amu
Info: TOTAL CHARGE = -9.99831e-05 e
Info: MASS DENSITY = 0.948263 g/cm^3
Info: ATOM DENSITY = 0.0951213 atoms/A^3
Info: ADDED 0 IMPLICIT EXCLUSIONS
Info: NONBONDED TABLE R-SQUARED SPACING: 0.0625
Info: NONBONDED TABLE SIZE: 705 POINTS
Info: REMOVING COM VELOCITY -0.0930479 0.101885 -0.0120163
Info: Use 3D box decompostion in PME FFT.
Info: Updated CUDA force table with 4096 elements.
Info: Updated CUDA LJ table with 7 x 7 elements.
Info: Found 17 unique exclusion lists needing 40 bytes
TCL: Running for 1500000 steps
ETITLE: TS BOND ANGLE DIHED IMPRP ELECT VDW BOUNDARY MISC KINETIC TOTAL TEMP POTENTIAL TOTALAVG TEMPAVG PRESSURE GPRESSURE VOLUME PRESSAVG GPRESSAVG
ENERGY: 0 0.2174 8.5590 3.9289 0.0000 -10613.7468 1401.9503 0.0000 0.0000 1760.6487 -7438.4426 298.5171 -9199.0913 -7438.4426 298.5171 -360.6447 -286.1788 31170.7099 -360.6447 -286.1788
ENERGY: 300000 1.8908 5.5486 3.8208 0.0000 -10644.7165 1375.6058 0.0000 0.0000 1784.9355 -7472.9150 302.6349 -9257.8505 -7447.0376 300.5246 -569.7033 -545.7977 30813.5049 -316.6256 -241.7927
ENERGY: 600000 2.8194 10.0947 3.4607 0.0000 -10748.8797 1442.0062 0.0000 0.0000 1845.3367 -7445.1620 312.8759 -9290.4987 -7464.6149 301.7327 95.5349 116.9776 30358.3748 -117.8038 -54.4323
ENERGY: 900000 3.6480 5.0264 3.2860 0.0000 -10716.9542 1422.4645 0.0000 0.0000 1787.2072 -7495.3220 303.0201 -9282.5293 -7462.8843 302.8078 -379.3176 -322.2111 30835.2601 -39.7639 27.3292
ENERGY: 1200000 2.1077 9.8400 3.4208 0.0000 -10700.0302 1386.7267 0.0000 0.0000 1749.5703 -7548.3647 296.6388 -9297.9350 -7473.6351 302.7207 -479.7287 -462.3268 30685.0320 19.3357 78.0114
ENERGY: 1500000 1.2496 7.7556 3.3055 0.0000 -10712.3946 1437.0245 0.0000 0.0000 1763.2972 -7499.7623 298.9661 -9263.0594 -7481.1105 302.3362 -115.9505 -80.6617 30564.7906 2.2121 61.7789
TCL: Running FEP window   2: Lambda1 0.95   Lambda2 0.8999999999999999 [dLambda -0.050000000000000044]
TCL: Setting parameter firsttimestep to 0
TCL: Setting parameter alchLambda to 0.95
Info: NONBONDED TABLE R-SQUARED SPACING: 0.0625
Info: NONBONDED TABLE SIZE: 705 POINTS
TCL: Setting parameter alchLambda2 to 0.8999999999999999
Info: NONBONDED TABLE R-SQUARED SPACING: 0.0625
Info: NONBONDED TABLE SIZE: 705 POINTS
TCL: Running for 1500000 steps
ETITLE: TS BOND ANGLE DIHED IMPRP ELECT VDW BOUNDARY MISC KINETIC TOTAL TEMP POTENTIAL TOTALAVG TEMPAVG PRESSURE GPRESSURE VOLUME PRESSAVG GPRESSAVG
ENERGY: 0 1.2496 7.7556 3.3055 0.0000 -10710.7028 1436.2208 0.0000 0.0000 1762.4059 -7499.7654 298.8150 -9262.1713 -7499.7654 298.8150 -179.3237 -96.8249 30564.7906 -179.3237 -96.8249
ENERGY: 300000 3.4875 9.0397 2.6406 0.0000 -10670.6192 1376.2306 0.0000 0.0000 1816.6742 -7462.5466 308.0162 -9279.2208 -7498.0437 300.3565 -651.8822 -584.8279 30678.3438 -448.6901 -377.6631
ENERGY: 600000 0.2726 7.0852 4.2622 0.0000 -10725.5390 1427.0266 0.0000 0.0000 1756.6232 -7530.2691 297.8346 -9286.8924 -7513.9417 298.1034 -92.1900 -47.8133 30432.4400 -284.9853 -222.0510
ENERGY: 900000 1.9889 7.9486 4.2195 0.0000 -10805.7031 1475.9625 0.0000 0.0000 1831.2747 -7484.3089 310.4917 -9315.5836 -7519.1624 298.7394 268.1857 272.3755 30365.9713 -201.7480 -146.7394
ENERGY: 1200000 2.0739 8.5666 4.2318 0.0000 -10709.0470 1405.6896 0.0000 0.0000 1729.5195 -7558.9656 293.2392 -9288.4851 -7526.9318 298.0286 -507.5195 -483.0227 31002.0910 -103.7426 -46.8762
ENERGY: 1500000 3.8690 7.2285 2.5699 0.0000 -10775.9072 1460.3993 0.0000 0.0000 1758.7255 -7543.1149 298.1910 -9301.8404 -7517.5260 298.2096 -49.3729 -3.6034 30553.0480 -61.0942 -6.8961
TCL: Running FEP window   3: Lambda1 0.8999999999999999 Lambda2 0.8499999999999999 [dLambda -0.050000000000000044]
TCL: Setting parameter firsttimestep to 0
TCL: Setting parameter alchLambda to 0.8999999999999999
Info: NONBONDED TABLE R-SQUARED SPACING: 0.0625
Info: NONBONDED TABLE SIZE: 705 POINTS
TCL: Setting parameter alchLambda2 to 0.8499999999999999
Info: NONBONDED TABLE R-SQUARED SPACING: 0.0625
Info: NONBONDED TABLE SIZE: 705 POINTS
TCL: Running for 1500000 steps
ETITLE: TS BOND ANGLE DIHED IMPRP ELECT VDW BOUNDARY MISC KINETIC TOTAL TEMP POTENTIAL TOTALAVG TEMPAVG PRESSURE GPRESSURE VOLUME PRESSAVG GPRESSAVG
ENERGY: 0 3.8690 7.2285 2.5699 0.0000 -10775.0094 1460.2919 0.0000 0.0000 1757.8695 -7543.1806 298.0459 -9301.0501 -7543.1806 298.0459 -102.0004 -18.3018 30553.0480 -102.0004 -18.3018
ENERGY: 300000 0.4742 8.4755 4.1951 0.0000 -10835.5104 1500.6464 0.0000 0.0000 1809.0729 -7512.6463 306.7274 -9321.7192 -7495.7264 303.9844 594.8805 631.3234 30027.1483 409.2887 470.9552
ENERGY: 600000 0.6644 5.6491 4.4813 0.0000 -10822.5620 1427.1111 0.0000 0.0000 1778.6647 -7605.9914 301.5717 -9384.6561 -7498.2916 302.4157 -393.5917 -341.1572 30280.1587 218.0287 294.9811
ENERGY: 900000 4.8503 5.6923 3.3171 0.0000 -10634.5981 1369.4314 0.0000 0.0000 1741.1362 -7510.1708 295.2088 -9251.3070 -7473.0882 303.6231 -794.1015 -756.8150 30641.2722 -10.5738 59.4320
ENERGY: 1200000 3.4844 9.1585 2.9926 0.0000 -10690.6017 1365.9158 0.0000 0.0000 1761.4991 -7547.5512 298.6613 -9309.0504 -7490.4651 302.9118 -716.6477 -680.2054 30799.7706 -142.1948 -81.8868
ENERGY: 1500000 0.9284 7.8669 2.8543 0.0000 -10724.6743 1479.4300 0.0000 0.0000 1750.4929 -7483.1017 296.7952 -9233.5946 -7502.0766 301.2787 412.3213 423.3676 30707.5425 -128.7528 -73.1654
TCL: Running FEP window   4: Lambda1 0.8499999999999999 Lambda2 0.7999999999999998 [dLambda -0.050000000000000044]
TCL: Setting parameter firsttimestep to 0
TCL: Setting parameter alchLambda to 0.8499999999999999
Info: NONBONDED TABLE R-SQUARED SPACING: 0.0625
Info: NONBONDED TABLE SIZE: 705 POINTS
TCL: Setting parameter alchLambda2 to 0.7999999999999998
Info: NONBONDED TABLE R-SQUARED SPACING: 0.0625
Info: NONBONDED TABLE SIZE: 705 POINTS
TCL: Running for 1500000 steps
ETITLE: TS BOND ANGLE DIHED IMPRP ELECT VDW BOUNDARY MISC KINETIC TOTAL TEMP POTENTIAL TOTALAVG TEMPAVG PRESSURE GPRESSURE VOLUME PRESSAVG GPRESSAVG
ENERGY: 0 0.9284 7.8669 2.8543 0.0000 -10722.0081 1478.1950 0.0000 0.0000 1749.6238 -7482.5396 296.6478 -9232.1634 -7482.5396 296.6478 338.3832 405.1631 30707.5425 338.3832 405.1631
ENERGY: 300000 2.0721 9.1808 3.6458 0.0000 -10676.8078 1435.7031 0.0000 0.0000 1756.8071 -7469.3990 297.8658 -9226.2061 -7489.9967 302.6763 -50.4141 -13.2732 30748.5079 217.8719 280.3803
ENERGY: 600000 1.9190 7.9423 3.1760 0.0000 -10666.8394 1434.2557 0.0000 0.0000 1763.8094 -7455.7371 299.0530 -9219.5464 -7497.8854 302.4976 113.6426 170.2058 30809.8647 -3.5605 60.7707
ENERGY: 900000 2.2345 5.1810 5.3795 0.0000 -10650.6313 1395.0751 0.0000 0.0000 1776.2789 -7466.4822 301.1672 -9242.7612 -7483.0488 302.7394 -6.1681 5.7739 30140.6916 17.2391 69.1029
ENERGY: 1200000 1.4619 7.9313 4.4738 0.0000 -10657.6654 1361.0634 0.0000 0.0000 1790.7623 -7491.9727 303.6228 -9282.7350 -7481.1664 303.1767 -596.9141 -501.5639 30463.2159 -52.2572 3.0466
ENERGY: 1500000 1.5257 9.3963 3.8205 0.0000 -10664.4462 1400.6318 0.0000 0.0000 1774.0475 -7475.0245 300.7889 -9249.0720 -7473.7150 303.4270 -219.3973 -139.0315 30518.1035 -109.4195 -52.1862
TCL: Running FEP window   5: Lambda1 0.7999999999999998 Lambda2 0.7499999999999998 [dLambda -0.050000000000000044]
TCL: Setting parameter firsttimestep to 0
TCL: Setting parameter alchLambda to 0.7999999999999998
Info: NONBONDED TABLE R-SQUARED SPACING: 0.0625
Info: NONBONDED TABLE SIZE: 705 POINTS
TCL: Setting parameter alchLambda2 to 0.7499999999999998
Info: NONBONDED TABLE R-SQUARED SPACING: 0.0625
Info: NONBONDED TABLE SIZE: 705 POINTS
TCL: Running for 1500000 steps
ETITLE: TS BOND ANGLE DIHED IMPRP ELECT VDW BOUNDARY MISC KINETIC TOTAL TEMP POTENTIAL TOTALAVG TEMPAVG PRESSURE GPRESSURE VOLUME PRESSAVG GPRESSAVG
ENERGY: 0 1.5257 9.3963 3.8205 0.0000 -10663.1187 1400.7188 0.0000 0.0000 1773.1717 -7474.4857 300.6404 -9247.6574 -7474.4857 300.6404 -243.2960 -144.3797 30518.1035 -243.2960 -144.3797
ENERGY: 300000 3.5497 5.2398 3.5316 0.0000 -10707.7961 1431.0020 0.0000 0.0000 1770.0232 -7494.4499 300.1065 -9264.4730 -7515.5562 299.2770 -266.0044 -244.2566 31148.0755 -380.0014 -329.5869
ENERGY: 600000 2.7488 6.6357 3.6039 0.0000 -10848.2583 1472.9137 0.0000 0.0000 1763.0380 -7599.3181 298.9222 -9362.3561 -7519.1560 300.8930 153.3560 218.3794 30114.4568 -144.3771 -91.8642
ENERGY: 900000 0.8105 5.5676 3.1643 0.0000 -10717.6105 1429.7466 0.0000 0.0000 1805.2164 -7473.1052 306.0735 -9278.3216 -7511.3166 300.9166 -381.2855 -284.9239 31037.9102 -151.3025 -90.6883
ENERGY: 1200000 1.3327 8.0666 3.7411 0.0000 -10732.4199 1415.5775 0.0000 0.0000 1773.1259 -7530.5761 300.6326 -9303.7020 -7507.3601 300.1929 -433.0072 -404.9708 30570.2658 -120.6807 -62.2566
ENERGY: 1500000 1.4647 5.0690 4.5729 0.0000 -10700.4262 1455.6669 0.0000 0.0000 1817.9636 -7415.6891 308.2348 -9233.6526 -7496.6243 300.9426 313.2104 352.5547 30719.2205 -15.3281 42.3675
TCL: Running FEP window   6: Lambda1 0.7499999999999998 Lambda2 0.6999999999999997 [dLambda -0.050000000000000044]
TCL: Setting parameter firsttimestep to 0
TCL: Setting parameter alchLambda to 0.7499999999999998
Info: NONBONDED TABLE R-SQUARED SPACING: 0.0625
Info: NONBONDED TABLE SIZE: 705 POINTS
TCL: Setting parameter alchLambda2 to 0.6999999999999997
Info: NONBONDED TABLE R-SQUARED SPACING: 0.0625
Info: NONBONDED TABLE SIZE: 705 POINTS
TCL: Running for 1500000 steps
ETITLE: TS BOND ANGLE DIHED IMPRP ELECT VDW BOUNDARY MISC KINETIC TOTAL TEMP POTENTIAL TOTALAVG TEMPAVG PRESSURE GPRESSURE VOLUME PRESSAVG GPRESSAVG
ENERGY: 0 1.4647 5.0690 4.5729 0.0000 -10699.1865 1455.6704 0.0000 0.0000 1817.0876 -7415.3219 308.0863 -9232.4096 -7415.3219 308.0863 274.9045 347.5751 30719.2205 274.9045 347.5751
ENERGY: 300000 1.3287 4.7257 4.7234 0.0000 -10686.4489 1401.7482 0.0000 0.0000 1771.2837 -7502.6391 300.3203 -9273.9228 -7468.9645 302.0229 -518.0290 -501.5632 31051.3819 -306.4978 -240.6416
ENERGY: 600000 2.4544 8.2807 2.7614 0.0000 -10657.6874 1310.8890 0.0000 0.0000 1724.4623 -7608.8396 292.3817 -9333.3020 -7498.6986 298.7035 -1172.6012 -1058.1041 30235.0604 -214.7124 -144.5675
ENERGY: 900000 4.5050 5.1499 4.5632 0.0000 -10697.3074 1392.3696 0.0000 0.0000 1797.6281 -7493.0916 304.7869 -9290.7197 -7494.9383 300.1948 -261.4821 -193.0597 29992.4472 -97.9669 -19.8153
ENERGY: 1200000 0.9666 7.3567 4.6964 0.0000 -10855.0779 1424.1710 0.0000 0.0000 1771.6012 -7646.2859 300.3741 -9417.8871 -7492.6622 300.3703 -374.1350 -342.7805 30174.6233 -225.0116 -155.4641
ENERGY: 1500000 2.7184 3.9307 4.4640 0.0000 -10746.3009 1476.0877 0.0000 0.0000 1763.5179 -7495.5822 299.0036 -9259.1001 -7482.4528 300.6781 37.1780 143.1967 30758.8732 -166.3613 -93.3464
TCL: Running FEP window   7: Lambda1 0.6999999999999997 Lambda2 0.6499999999999997 [dLambda -0.050000000000000044]
TCL: Setting parameter firsttimestep to 0
TCL: Setting parameter alchLambda to 0.6999999999999997
Info: NONBONDED TABLE R-SQUARED SPACING: 0.0625
Info: NONBONDED TABLE SIZE: 705 POINTS
TCL: Setting parameter alchLambda2 to 0.6499999999999997
Info: NONBONDED TABLE R-SQUARED SPACING: 0.0625
Info: NONBONDED TABLE SIZE: 705 POINTS
TCL: Running for 1500000 steps
ETITLE: TS BOND ANGLE DIHED IMPRP ELECT VDW BOUNDARY MISC KINETIC TOTAL TEMP POTENTIAL TOTALAVG TEMPAVG PRESSURE GPRESSURE VOLUME PRESSAVG GPRESSAVG
ENERGY: 0 2.7184 3.9307 4.4640 0.0000 -10745.2340 1475.8871 0.0000 0.0000 1762.6137 -7495.6200 298.8503 -9258.2338 -7495.6200 298.8503 44.2495 132.2958 30758.8732 44.2495 132.2958
ENERGY: 300000 1.4736 5.8127 5.7170 0.0000 -10680.5317 1355.7286 0.0000 0.0000 1678.1785 -7633.6212 284.5343 -9311.7997 -7508.7495 298.0689 -848.5749 -768.0304 30321.3130 -206.9872 -120.2272
ENERGY: 600000 0.6778 5.9371 2.7174 0.0000 -10482.1422 1302.0099 0.0000 0.0000 1740.9071 -7429.8929 295.1699 -9170.8000 -7504.0400 295.9812 -1204.6481 -1125.5897 31189.2875 -390.8909 -311.6003
ENERGY: 900000 3.7492 6.0829 4.5307 0.0000 -10833.0709 1453.2706 0.0000 0.0000 1821.7074 -7543.7301 308.8696 -9365.4375 -7504.8295 299.1339 88.3917 147.4273 30117.8787 -288.0574 -218.6934
ENERGY: 1200000 1.5758 8.6031 3.7011 0.0000 -10651.5574 1424.9604 0.0000 0.0000 1717.9379 -7494.7791 291.2755 -9212.7170 -7500.9368 299.0142 -228.1560 -133.7583 30889.1555 -285.2176 -211.7934
ENERGY: 1500000 3.8717 7.7852 4.4254 0.0000 -10723.8404 1393.2290 0.0000 0.0000 1808.4019 -7506.1273 306.6136 -9314.5291 -7507.9956 299.4939 -247.3950 -169.9446 30171.0940 -208.6830 -136.8923
TCL: Running FEP window   8: Lambda1 0.6499999999999997 Lambda2 0.5999999999999996 [dLambda -0.050000000000000044]
TCL: Setting parameter firsttimestep to 0
TCL: Setting parameter alchLambda to 0.6499999999999997
Info: NONBONDED TABLE R-SQUARED SPACING: 0.0625
Info: NONBONDED TABLE SIZE: 705 POINTS
TCL: Setting parameter alchLambda2 to 0.5999999999999996
Info: NONBONDED TABLE R-SQUARED SPACING: 0.0625
Info: NONBONDED TABLE SIZE: 705 POINTS
TCL: Running for 1500000 steps
ETITLE: TS BOND ANGLE DIHED IMPRP ELECT VDW BOUNDARY MISC KINETIC TOTAL TEMP POTENTIAL TOTALAVG TEMPAVG PRESSURE GPRESSURE VOLUME PRESSAVG GPRESSAVG
ENERGY: 0 3.8717 7.7852 4.4254 0.0000 -10722.7466 1392.9443 0.0000 0.0000 1807.5758 -7506.1442 306.4736 -9313.7200 -7506.1442 306.4736 -272.7762 -177.7838 30171.0940 -272.7762 -177.7838
ENERGY: 300000 1.4307 7.2180 4.1438 0.0000 -10772.0232 1466.1375 0.0000 0.0000 1815.0329 -7478.0604 307.7379 -9293.0933 -7489.9104 303.1726 271.5099 344.6593 30131.0694 -100.4842 -30.5519
ENERGY: 600000 2.0061 12.1285 3.9571 0.0000 -10644.8386 1347.3260 0.0000 0.0000 1790.8721 -7488.5488 303.6414 -9279.4209 -7472.3513 303.2667 -908.7833 -870.7087 30949.7987 -264.0428 -193.3823
ENERGY: 900000 1.2891 7.2873 4.5115 0.0000 -10789.4952 1505.9630 0.0000 0.0000 1821.1018 -7449.3426 308.7669 -9270.4443 -7466.6151 303.3335 417.6336 508.3814 30626.0430 -87.0505 -16.0058
ENERGY: 1200000 2.3565 4.5622 3.8749 0.0000 -10937.2114 1569.7121 0.0000 0.0000 1775.7468 -7580.9589 301.0770 -9356.7057 -7479.2148 302.9562 1020.9336 1092.8294 30163.7169 31.6913 99.2583
ENERGY: 1500000 1.0064 8.6132 3.7973 0.0000 -10923.3013 1600.6739 0.0000 0.0000 1775.2775 -7533.9330 300.9974 -9309.2105 -7474.9466 301.5815 1173.3562 1251.0069 30232.0605 49.0948 120.0395
TCL: Running FEP window   9: Lambda1 0.5999999999999996 Lambda2 0.5499999999999996 [dLambda -0.050000000000000044]
TCL: Setting parameter firsttimestep to 0
TCL: Setting parameter alchLambda to 0.5999999999999996
Info: NONBONDED TABLE R-SQUARED SPACING: 0.0625
Info: NONBONDED TABLE SIZE: 705 POINTS
TCL: Setting parameter alchLambda2 to 0.5499999999999996
Info: NONBONDED TABLE R-SQUARED SPACING: 0.0625
Info: NONBONDED TABLE SIZE: 705 POINTS
TCL: Running for 1500000 steps
ETITLE: TS BOND ANGLE DIHED IMPRP ELECT VDW BOUNDARY MISC KINETIC TOTAL TEMP POTENTIAL TOTALAVG TEMPAVG PRESSURE GPRESSURE VOLUME PRESSAVG GPRESSAVG
ENERGY: 0 1.0064 8.6132 3.7973 0.0000 -10922.9319 1600.8099 0.0000 0.0000 1774.4407 -7534.2643 300.8555 -9308.7050 -7534.2643 300.8555 1161.5433 1248.7495 30232.0605 1161.5433 1248.7495
ENERGY: 300000 0.9545 3.4454 3.6578 0.0000 -10759.4227 1393.8796 0.0000 0.0000 1737.3816 -7620.1038 294.5722 -9357.4853 -7547.7171 298.8286 -571.2284 -530.6255 30183.8092 213.3760 269.4799
ENERGY: 600000 0.9374 4.4758 4.9680 0.0000 -10700.1917 1469.3175 0.0000 0.0000 1759.9282 -7460.5649 298.3949 -9220.4931 -7527.6043 298.5378 355.7804 438.6395 30656.0570 220.5104 289.4510
ENERGY: 900000 2.1700 8.8272 4.1458 0.0000 -10664.6044 1397.1747 0.0000 0.0000 1786.0128 -7466.2740 302.8176 -9252.2868 -7506.5398 300.7167 -235.8758 -159.1551 30449.0484 63.5856 129.2683
ENERGY: 1200000 2.5827 4.4742 3.6807 0.0000 -10647.2751 1425.4542 0.0000 0.0000 1746.9719 -7464.1115 296.1982 -9211.0834 -7506.3792 300.0294 -100.8491 -59.0308 31072.3403 61.4287 120.8098
ENERGY: 1500000 1.6723 4.8108 3.5704 0.0000 -10656.6895 1449.8465 0.0000 0.0000 1791.7547 -7405.0347 303.7911 -9196.7894 -7507.0163 299.9084 248.7185 320.5306 30771.1852 20.4137 80.6143
TCL: Running FEP window  10: Lambda1 0.5499999999999996 Lambda2 0.4999999999999996 [dLambda -0.04999999999999999]
TCL: Setting parameter firsttimestep to 0
TCL: Setting parameter alchLambda to 0.5499999999999996
Info: NONBONDED TABLE R-SQUARED SPACING: 0.0625
Info: NONBONDED TABLE SIZE: 705 POINTS
TCL: Setting parameter alchLambda2 to 0.4999999999999996
Info: NONBONDED TABLE R-SQUARED SPACING: 0.0625
Info: NONBONDED TABLE SIZE: 705 POINTS
TCL: Running for 1500000 steps
ETITLE: TS BOND ANGLE DIHED IMPRP ELECT VDW BOUNDARY MISC KINETIC TOTAL TEMP POTENTIAL TOTALAVG TEMPAVG PRESSURE GPRESSURE VOLUME PRESSAVG GPRESSAVG
ENERGY: 0 1.6723 4.8108 3.5704 0.0000 -10656.4561 1449.7585 0.0000 0.0000 1790.9154 -7405.7287 303.6488 -9196.6441 -7405.7287 303.6488 229.0210 313.3395 30771.1852 229.0210 313.3395
ENERGY: 300000 3.2316 6.7167 3.2728 0.0000 -10669.5272 1355.7916 0.0000 0.0000 1768.3252 -7532.1894 299.8186 -9300.5147 -7493.0845 299.4798 -961.4234 -879.1587 30813.1953 -391.6121 -322.8934
ENERGY: 600000 1.5737 8.8835 3.7231 0.0000 -10873.7733 1492.9951 0.0000 0.0000 1780.4759 -7586.1219 301.8788 -9366.5978 -7519.5273 299.4532 480.8218 577.3028 29520.9786 -103.0252 -31.0698
ENERGY: 900000 2.6469 9.6600 4.6004 0.0000 -10625.5147 1380.0197 0.0000 0.0000 1712.7643 -7515.8233 290.3983 -9228.5876 -7512.9879 298.0186 -481.6227 -422.2917 30578.6364 -199.1848 -137.6394
ENERGY: 1200000 0.2979 9.1252 4.1361 0.0000 -10635.6010 1376.1633 0.0000 0.0000 1732.5598 -7513.3187 293.7546 -9245.8785 -7516.3818 298.2468 -557.1867 -531.4255 30652.4257 -258.3209 -194.3340
ENERGY: 1500000 2.3903 4.3293 4.0942 0.0000 -10628.3207 1329.2534 0.0000 0.0000 1763.9181 -7524.3353 299.0714 -9288.2535 -7514.6325 298.7703 -695.8808 -681.8918 30304.3535 -195.6694 -140.1235
TCL: Running FEP window  11: Lambda1 0.4999999999999996 Lambda2 0.4499999999999996 [dLambda -0.04999999999999999]
TCL: Setting parameter firsttimestep to 0
TCL: Setting parameter alchLambda to 0.4999999999999996
Info: NONBONDED TABLE R-SQUARED SPACING: 0.0625
Info: NONBONDED TABLE SIZE: 705 POINTS
TCL: Setting parameter alchLambda2 to 0.4499999999999996
Info: NONBONDED TABLE R-SQUARED SPACING: 0.0625
Info: NONBONDED TABLE SIZE: 705 POINTS
TCL: Running for 1500000 steps
ETITLE: TS BOND ANGLE DIHED IMPRP ELECT VDW BOUNDARY MISC KINETIC TOTAL TEMP POTENTIAL TOTALAVG TEMPAVG PRESSURE GPRESSURE VOLUME PRESSAVG GPRESSAVG
ENERGY: 0 2.3903 4.3293 4.0942 0.0000 -10627.9145 1329.7975 0.0000 0.0000 1762.9775 -7524.3257 298.9119 -9287.3032 -7524.3257 298.9119 -754.4592 -680.3429 30304.3535 -754.4592 -680.3429
ENERGY: 300000 0.4901 4.7142 2.9590 0.0000 -10636.8302 1354.4575 0.0000 0.0000 1742.5773 -7531.6321 295.4531 -9274.2094 -7528.1700 296.5840 -655.7802 -687.0788 30590.4844 -434.1386 -374.6462
ENERGY: 600000 2.7031 7.4997 3.1325 0.0000 -10660.2373 1381.5460 0.0000 0.0000 1754.5799 -7510.7760 297.4881 -9265.3559 -7512.3728 300.6229 -664.1089 -617.5926 30633.3852 -304.2463 -248.2022
ENERGY: 900000 0.6448 15.0222 5.1051 0.0000 -10851.3673 1556.9373 0.0000 0.0000 1829.2781 -7444.3798 310.1532 -9273.6579 -7515.1862 301.1906 984.4772 987.1782 30340.2692 -28.0324 17.0856
ENERGY: 1200000 0.3319 7.0327 3.3819 0.0000 -10829.5548 1476.7598 0.0000 0.0000 1767.6497 -7574.3988 299.7041 -9342.0486 -7517.4741 301.1337 101.9806 199.9175 30117.0932 13.6603 69.8491
ENERGY: 1500000 0.2367 9.6822 5.3212 0.0000 -10815.5131 1454.7911 0.0000 0.0000 1803.2013 -7542.2805 305.7319 -9345.4819 -7524.3816 300.9127 -62.4297 -12.4904 30267.7883 41.1011 98.2756
TCL: Running FEP window  12: Lambda1 0.4499999999999996 Lambda2 0.39999999999999963 [dLambda -0.04999999999999999]
TCL: Setting parameter firsttimestep to 0
TCL: Setting parameter alchLambda to 0.4499999999999996
Info: NONBONDED TABLE R-SQUARED SPACING: 0.0625
Info: NONBONDED TABLE SIZE: 705 POINTS
TCL: Setting parameter alchLambda2 to 0.39999999999999963
Info: NONBONDED TABLE R-SQUARED SPACING: 0.0625
Info: NONBONDED TABLE SIZE: 705 POINTS
TCL: Running for 1500000 steps
ETITLE: TS BOND ANGLE DIHED IMPRP ELECT VDW BOUNDARY MISC KINETIC TOTAL TEMP POTENTIAL TOTALAVG TEMPAVG PRESSURE GPRESSURE VOLUME PRESSAVG GPRESSAVG
ENERGY: 0 0.2367 9.6822 5.3212 0.0000 -10815.5132 1455.0722 0.0000 0.0000 1802.3423 -7542.8587 305.5862 -9345.2009 -7542.8587 305.5862 -90.3890 -15.8848 30267.7883 -90.3890 -15.8848
ENERGY: 300000 1.2810 7.4812 4.3018 0.0000 -10792.3598 1486.0336 0.0000 0.0000 1799.7761 -7493.4861 305.1511 -9293.2622 -7466.9266 305.6152 303.1674 347.4716 30180.2366 5.0736 51.0741
ENERGY: 600000 3.2467 6.7245 4.5245 0.0000 -10695.5558 1405.2568 0.0000 0.0000 1742.8509 -7532.9524 295.4995 -9275.8033 -7488.8583 301.8489 -269.4774 -245.6879 30321.5336 -139.9396 -97.2366
ENERGY: 900000 1.9417 6.6573 5.7163 0.0000 -10690.2491 1455.7402 0.0000 0.0000 1802.2433 -7417.9503 305.5694 -9220.1936 -7468.4829 302.5180 63.9501 61.7261 30718.4998 -101.9385 -68.4658
ENERGY: 1200000 0.9020 7.6439 3.0897 0.0000 -10658.6186 1414.9286 0.0000 0.0000 1831.6096 -7400.4449 310.5485 -9232.0544 -7469.2734 303.2765 -24.5054 20.8753 30620.7942 -115.0053 -78.7653
ENERGY: 1500000 0.3540 7.2889 3.2641 0.0000 -10829.0106 1544.0763 0.0000 0.0000 1782.2455 -7491.7818 302.1788 -9274.0273 -7472.5706 302.7834 881.7396 977.3964 30235.0768 -61.9936 -12.5061
TCL: Running FEP window  13: Lambda1 0.39999999999999963 Lambda2 0.34999999999999964 [dLambda -0.04999999999999999]
TCL: Setting parameter firsttimestep to 0
TCL: Setting parameter alchLambda to 0.39999999999999963
Info: NONBONDED TABLE R-SQUARED SPACING: 0.0625
Info: NONBONDED TABLE SIZE: 705 POINTS
TCL: Setting parameter alchLambda2 to 0.34999999999999964
Info: NONBONDED TABLE R-SQUARED SPACING: 0.0625
Info: NONBONDED TABLE SIZE: 705 POINTS
TCL: Running for 1500000 steps
ETITLE: TS BOND ANGLE DIHED IMPRP ELECT VDW BOUNDARY MISC KINETIC TOTAL TEMP POTENTIAL TOTALAVG TEMPAVG PRESSURE GPRESSURE VOLUME PRESSAVG GPRESSAVG
ENERGY: 0 0.3540 7.2889 3.2641 0.0000 -10829.0106 1544.5044 0.0000 0.0000 1781.3661 -7492.2332 302.0297 -9273.5993 -7492.2332 302.0297 901.0040 973.6009 30235.0768 901.0040 973.6009
ENERGY: 300000 2.3917 3.2209 3.4223 0.0000 -10682.6498 1376.3229 0.0000 0.0000 1757.0129 -7540.2792 297.9006 -9297.2921 -7525.9314 299.6291 -583.1641 -527.0834 30564.7212 -19.8029 24.7410
ENERGY: 600000 1.4765 5.1677 3.9628 0.0000 -10603.4537 1423.0000 0.0000 0.0000 1783.6657 -7386.1811 302.4196 -9169.8467 -7513.1857 300.6746 232.8975 268.1957 30283.6242 -55.7335 -16.5162
ENERGY: 900000 1.2114 8.9587 4.4265 0.0000 -10790.8239 1496.5683 0.0000 0.0000 1794.1382 -7485.5208 304.1952 -9279.6590 -7515.6480 299.9617 442.0968 485.8389 30386.6755 -54.9696 -13.3413
ENERGY: 1200000 3.7557 4.6867 5.7312 0.0000 -10639.9911 1434.9535 0.0000 0.0000 1754.3320 -7436.5320 297.4461 -9190.8640 -7499.2631 300.1796 320.9209 429.3623 30261.4584 0.8895 55.1907
ENERGY: 1500000 0.6061 7.7020 2.4961 0.0000 -10687.3682 1426.9649 0.0000 0.0000 1771.6455 -7477.9536 300.3816 -9249.5992 -7496.7065 301.1769 -84.1555 -15.3702 30527.5543 -3.8777 46.3514
TCL: Running FEP window  14: Lambda1 0.34999999999999964 Lambda2 0.29999999999999966 [dLambda -0.04999999999999999]
TCL: Setting parameter firsttimestep to 0
TCL: Setting parameter alchLambda to 0.34999999999999964
Info: NONBONDED TABLE R-SQUARED SPACING: 0.0625
Info: NONBONDED TABLE SIZE: 705 POINTS
TCL: Setting parameter alchLambda2 to 0.29999999999999966
Info: NONBONDED TABLE R-SQUARED SPACING: 0.0625
Info: NONBONDED TABLE SIZE: 705 POINTS
TCL: Running for 1500000 steps
ETITLE: TS BOND ANGLE DIHED IMPRP ELECT VDW BOUNDARY MISC KINETIC TOTAL TEMP POTENTIAL TOTALAVG TEMPAVG PRESSURE GPRESSURE VOLUME PRESSAVG GPRESSAVG
ENERGY: 0 0.6061 7.7020 2.4961 0.0000 -10687.3686 1427.0254 0.0000 0.0000 1770.7740 -7478.7650 300.2338 -9249.5390 -7478.7650 300.2338 -101.7948 -21.2265 30527.5543 -101.7948 -21.2265
ENERGY: 300000 0.5370 5.3781 3.9174 0.0000 -10757.3983 1451.0246 0.0000 0.0000 1754.4415 -7542.0997 297.4647 -9296.5412 -7533.3674 300.1021 150.9555 144.1311 30322.3933 83.0863 133.8395
ENERGY: 600000 0.8721 7.3248 4.4649 0.0000 -10723.5018 1448.0231 0.0000 0.0000 1764.9728 -7497.8441 299.2502 -9262.8169 -7529.2911 299.4918 51.3830 78.0199 30421.1976 82.5170 124.0369
ENERGY: 900000 1.2879 12.3959 3.5404 0.0000 -10621.5315 1323.3308 0.0000 0.0000 1785.0317 -7495.9448 302.6512 -9280.9765 -7504.2575 302.1112 -890.8533 -884.2511 30596.4127 -120.4945 -80.8153
ENERGY: 1200000 2.1930 10.9015 3.8215 0.0000 -10784.2660 1450.2719 0.0000 0.0000 1796.7385 -7520.3397 304.6361 -9317.0782 -7503.6742 301.8680 -225.5171 -144.3796 30473.7933 -84.7100 -36.6987
ENERGY: 1500000 4.0320 2.0241 6.4596 0.0000 -10725.7338 1429.3907 0.0000 0.0000 1746.6595 -7537.1679 296.1452 -9283.8274 -7506.8435 301.4745 -469.4386 -360.9723 30549.9995 -127.3703 -66.4105
TCL: Running FEP window  15: Lambda1 0.29999999999999966 Lambda2 0.24999999999999967 [dLambda -0.04999999999999999]
TCL: Setting parameter firsttimestep to 0
TCL: Setting parameter alchLambda to 0.29999999999999966
Info: NONBONDED TABLE R-SQUARED SPACING: 0.0625
Info: NONBONDED TABLE SIZE: 705 POINTS
TCL: Setting parameter alchLambda2 to 0.24999999999999967
Info: NONBONDED TABLE R-SQUARED SPACING: 0.0625
Info: NONBONDED TABLE SIZE: 705 POINTS
TCL: Running for 1500000 steps
ETITLE: TS BOND ANGLE DIHED IMPRP ELECT VDW BOUNDARY MISC KINETIC TOTAL TEMP POTENTIAL TOTALAVG TEMPAVG PRESSURE GPRESSURE VOLUME PRESSAVG GPRESSAVG
ENERGY: 0 4.0320 2.0241 6.4596 0.0000 -10725.7337 1429.8835 0.0000 0.0000 1745.7891 -7537.5452 295.9977 -9283.3344 -7537.5452 295.9977 -453.9516 -360.9068 30549.9995 -453.9516 -360.9068
ENERGY: 300000 1.1006 7.7439 4.3792 0.0000 -10711.9007 1393.2858 0.0000 0.0000 1773.0316 -7532.3596 300.6166 -9305.3912 -7559.4971 295.4023 -236.8135 -252.2067 30490.3216 -627.3951 -545.1184
ENERGY: 600000 5.7845 7.5024 3.1513 0.0000 -10725.2592 1461.8420 0.0000 0.0000 1773.0942 -7473.8848 300.6272 -9246.9790 -7527.6635 296.9334 46.9535 85.4162 30653.1669 -311.8103 -249.1331
ENERGY: 900000 0.3362 7.3161 5.0332 0.0000 -10685.9974 1453.6708 0.0000 0.0000 1744.2429 -7475.3982 295.7355 -9219.6411 -7507.2794 297.6457 121.4978 235.3662 30543.4170 -354.3463 -292.3381
ENERGY: 1200000 0.5722 8.1709 4.5789 0.0000 -10640.6385 1375.2187 0.0000 0.0000 1731.7380 -7520.3598 293.6153 -9252.0978 -7504.4182 298.5872 -394.9930 -294.5313 30415.3341 -308.9909 -243.8486
ENERGY: 1500000 1.1223 6.5620 4.9777 0.0000 -10732.3297 1370.3118 0.0000 0.0000 1756.2284 -7593.1274 297.7676 -9349.3559 -7514.4611 299.2795 -445.1335 -324.7937 29559.2079 -298.2152 -235.4203
TCL: Running FEP window  16: Lambda1 0.24999999999999967 Lambda2 0.19999999999999968 [dLambda -0.04999999999999999]
TCL: Setting parameter firsttimestep to 0
TCL: Setting parameter alchLambda to 0.24999999999999967
Info: NONBONDED TABLE R-SQUARED SPACING: 0.0625
Info: NONBONDED TABLE SIZE: 705 POINTS
TCL: Setting parameter alchLambda2 to 0.19999999999999968
Info: NONBONDED TABLE R-SQUARED SPACING: 0.0625
Info: NONBONDED TABLE SIZE: 705 POINTS
TCL: Running for 1500000 steps
ETITLE: TS BOND ANGLE DIHED IMPRP ELECT VDW BOUNDARY MISC KINETIC TOTAL TEMP POTENTIAL TOTALAVG TEMPAVG PRESSURE GPRESSURE VOLUME PRESSAVG GPRESSAVG
ENERGY: 0 1.1223 6.5620 4.9777 0.0000 -10732.3295 1370.7322 0.0000 0.0000 1755.3303 -7593.6050 297.6154 -9348.9353 -7593.6050 297.6154 -412.7862 -331.0116 29559.2079 -412.7862 -331.0116
ENERGY: 300000 1.3232 10.4256 3.6947 0.0000 -10788.4280 1525.2742 0.0000 0.0000 1729.5088 -7518.2014 293.2373 -9247.7103 -7539.0880 297.0339 642.7786 675.3216 30411.7786 349.3798 383.9021
ENERGY: 600000 5.6874 11.3472 3.6598 0.0000 -10777.8396 1492.1766 0.0000 0.0000 1711.4975 -7553.4711 290.1835 -9264.9686 -7512.3792 298.3733 423.7970 499.2792 30301.7993 431.4536 475.5944
ENERGY: 900000 1.3933 4.8299 3.9570 0.0000 -10735.7713 1440.4522 0.0000 0.0000 1772.9592 -7512.1797 300.6043 -9285.1389 -7509.4352 299.1543 -177.6590 -150.8136 30911.2662 108.0478 160.3962
ENERGY: 1200000 0.1438 5.8440 3.3367 0.0000 -10797.9262 1528.2060 0.0000 0.0000 1755.0466 -7505.3491 297.5673 -9260.3957 -7512.8771 299.0796 972.0431 968.6253 30129.4435 256.0397 301.9407
ENERGY: 1500000 2.2259 8.8776 4.0911 0.0000 -10677.9748 1459.7488 0.0000 0.0000 1769.5470 -7433.4844 300.0258 -9203.0315 -7500.0771 300.3996 -54.3727 -18.5386 31058.1026 148.1681 192.2730
TCL: Running FEP window  17: Lambda1 0.19999999999999968 Lambda2 0.1499999999999997 [dLambda -0.04999999999999999]
TCL: Setting parameter firsttimestep to 0
TCL: Setting parameter alchLambda to 0.19999999999999968
Info: NONBONDED TABLE R-SQUARED SPACING: 0.0625
Info: NONBONDED TABLE SIZE: 705 POINTS
TCL: Setting parameter alchLambda2 to 0.1499999999999997
Info: NONBONDED TABLE R-SQUARED SPACING: 0.0625
Info: NONBONDED TABLE SIZE: 705 POINTS
TCL: Running for 1500000 steps
ETITLE: TS BOND ANGLE DIHED IMPRP ELECT VDW BOUNDARY MISC KINETIC TOTAL TEMP POTENTIAL TOTALAVG TEMPAVG PRESSURE GPRESSURE VOLUME PRESSAVG GPRESSAVG
ENERGY: 0 2.2259 8.8776 4.0911 0.0000 -10677.9749 1460.0423 0.0000 0.0000 1768.6447 -7434.0934 299.8728 -9202.7380 -7434.0934 299.8728 -94.6225 -18.2636 31058.1026 -94.6225 -18.2636
ENERGY: 300000 1.4441 5.7032 3.4756 0.0000 -10720.2652 1440.5550 0.0000 0.0000 1779.9139 -7489.1735 301.7835 -9269.0874 -7469.9642 299.9193 -47.5728 63.8635 30220.6954 -47.2440 24.1710
ENERGY: 600000 1.1277 5.4365 2.9497 0.0000 -10841.0209 1482.1192 0.0000 0.0000 1791.0904 -7558.2975 303.6785 -9349.3879 -7486.5758 299.5740 -54.2637 -67.7041 30485.0148 45.4023 99.5239
ENERGY: 900000 1.1340 6.4470 3.4068 0.0000 -10799.4390 1420.9235 0.0000 0.0000 1780.1865 -7587.3412 301.8297 -9367.5277 -7509.7622 299.3844 -299.1738 -219.7720 30082.0688 -137.9019 -85.7157
ENERGY: 1200000 1.9089 4.0603 3.3983 0.0000 -10694.4351 1478.6014 0.0000 0.0000 1776.3766 -7430.0895 301.1837 -9206.4661 -7497.2206 300.8049 557.1068 650.8948 30205.4358 -86.2450 -32.0679
ENERGY: 1500000 2.8308 3.2157 3.4213 0.0000 -10714.7732 1462.6351 0.0000 0.0000 1746.1703 -7496.5000 296.0623 -9242.6703 -7490.0702 301.3664 2.9611 75.6166 30638.2269 -63.6660 -3.4793
TCL: Running FEP window  18: Lambda1 0.1499999999999997 Lambda2 0.09999999999999969 [dLambda -0.05 ]
TCL: Setting parameter firsttimestep to 0
TCL: Setting parameter alchLambda to 0.1499999999999997
Info: NONBONDED TABLE R-SQUARED SPACING: 0.0625
Info: NONBONDED TABLE SIZE: 705 POINTS
TCL: Setting parameter alchLambda2 to 0.09999999999999969
Info: NONBONDED TABLE R-SQUARED SPACING: 0.0625
Info: NONBONDED TABLE SIZE: 705 POINTS
TCL: Running for 1500000 steps
ETITLE: TS BOND ANGLE DIHED IMPRP ELECT VDW BOUNDARY MISC KINETIC TOTAL TEMP POTENTIAL TOTALAVG TEMPAVG PRESSURE GPRESSURE VOLUME PRESSAVG GPRESSAVG
ENERGY: 0 2.8308 3.2157 3.4213 0.0000 -10714.7734 1463.0002 0.0000 0.0000 1745.3023 -7497.0031 295.9151 -9242.3054 -7497.0031 295.9151 -11.9749 74.0639 30638.2269 -11.9749 74.0639
ENERGY: 300000 5.1345 7.3072 3.8453 0.0000 -10708.6760 1448.8067 0.0000 0.0000 1774.1272 -7469.4551 300.8024 -9243.5823 -7488.4018 299.2006 -97.9802 6.2528 30563.2633 -297.8276 -203.6558
ENERGY: 600000 1.2963 8.6660 5.1839 0.0000 -10755.8732 1432.6753 0.0000 0.0000 1747.2136 -7560.8382 296.2392 -9308.0517 -7513.5369 296.9347 -11.5845 47.0444 30098.6207 -113.8294 -25.7046
ENERGY: 900000 1.0607 4.4387 3.9669 0.0000 -10829.4640 1528.8157 0.0000 0.0000 1787.4414 -7503.7406 303.0598 -9291.1820 -7505.6333 298.7345 647.8152 686.1447 30208.7186 -87.6209 -12.3563
ENERGY: 1200000 0.6437 10.2746 4.7944 0.0000 -10696.8665 1439.2208 0.0000 0.0000 1751.6787 -7490.2543 296.9962 -9241.9329 -7497.3853 299.6586 70.1548 151.3873 30373.4730 -43.7396 30.8473
ENERGY: 1500000 1.9412 5.4709 3.5108 0.0000 -10675.7693 1456.0414 0.0000 0.0000 1713.4425 -7495.3625 290.5133 -9208.8050 -7496.9335 299.0685 -211.8695 -85.7406 31068.3540 -24.9005 50.9783
TCL: Running FEP window  19: Lambda1 0.09999999999999969 Lambda2 0.049999999999999684 [dLambda -0.05 ]
TCL: Setting parameter firsttimestep to 0
TCL: Setting parameter alchLambda to 0.09999999999999969
Info: NONBONDED TABLE R-SQUARED SPACING: 0.0625
Info: NONBONDED TABLE SIZE: 705 POINTS
TCL: Setting parameter alchLambda2 to 0.049999999999999684
Info: NONBONDED TABLE R-SQUARED SPACING: 0.0625
Info: NONBONDED TABLE SIZE: 705 POINTS
TCL: Running for 1500000 steps
ETITLE: TS BOND ANGLE DIHED IMPRP ELECT VDW BOUNDARY MISC KINETIC TOTAL TEMP POTENTIAL TOTALAVG TEMPAVG PRESSURE GPRESSURE VOLUME PRESSAVG GPRESSAVG
ENERGY: 0 1.9412 5.4709 3.5108 0.0000 -10675.7707 1455.6740 0.0000 0.0000 1712.5804 -7496.5935 290.3671 -9209.1739 -7496.5935 290.3671 -175.5724 -91.4393 31068.3540 -175.5724 -91.4393
ENERGY: 300000 1.2169 6.2811 6.4616 0.0000 -10776.3417 1487.3799 0.0000 0.0000 1763.0759 -7511.9263 298.9286 -9275.0022 -7520.1199 294.6134 455.5111 557.5493 30022.6842 -211.0439 -168.0054
ENERGY: 600000 2.0425 6.7749 3.5973 0.0000 -10796.5763 1521.7444 0.0000 0.0000 1798.5562 -7463.8609 304.9443 -9262.4171 -7494.2570 299.2928 662.9050 756.6379 30077.5405 3.2625 63.3851
ENERGY: 900000 1.6447 9.2914 3.5381 0.0000 -10753.4429 1481.6898 0.0000 0.0000 1804.1321 -7453.1468 305.8897 -9257.2789 -7504.0819 299.1585 382.0738 433.6706 30234.3658 -14.1924 50.6908
ENERGY: 1200000 0.9629 5.2975 3.2768 0.0000 -10603.5562 1385.4763 0.0000 0.0000 1763.4446 -7445.0981 298.9911 -9208.5427 -7494.1765 299.1022 -403.4658 -307.2303 30657.3879 -53.5246 7.9258
ENERGY: 1500000 0.6482 6.7971 3.9508 0.0000 -10635.0223 1382.7316 0.0000 0.0000 1788.4918 -7452.4028 303.2379 -9240.8946 -7485.9421 299.8458 -607.0974 -461.9458 30623.9460 -46.7643 22.0308
TCL: Running FEP window  20: Lambda1 0.049999999999999684 Lambda2 0.0    [dLambda -0.049999999999999684]
TCL: Setting parameter firsttimestep to 0
TCL: Setting parameter alchLambda to 0.049999999999999684
Info: NONBONDED TABLE R-SQUARED SPACING: 0.0625
Info: NONBONDED TABLE SIZE: 705 POINTS
TCL: Setting parameter alchLambda2 to 0.0
Info: NONBONDED TABLE R-SQUARED SPACING: 0.0625
Info: NONBONDED TABLE SIZE: 705 POINTS
TCL: Running for 1500000 steps
ETITLE: TS BOND ANGLE DIHED IMPRP ELECT VDW BOUNDARY MISC KINETIC TOTAL TEMP POTENTIAL TOTALAVG TEMPAVG PRESSURE GPRESSURE VOLUME PRESSAVG GPRESSAVG
ENERGY: 0 0.6482 6.7971 3.9508 0.0000 -10635.0213 1382.3468 0.0000 0.0000 1787.6215 -7453.6569 303.0903 -9241.2784 -7453.6569 303.0903 -565.9926 -465.3830 30623.9460 -565.9926 -465.3830
ENERGY: 300000 2.3740 5.2818 4.0215 0.0000 -10610.0907 1376.1190 0.0000 0.0000 1786.1483 -7436.1460 302.8405 -9222.2944 -7500.2101 300.2559 -579.9432 -510.7611 30472.0778 -299.5024 -204.9575
ENERGY: 600000 3.9919 8.7497 4.9752 0.0000 -10682.3565 1403.2924 0.0000 0.0000 1824.1863 -7437.1610 309.2899 -9261.3473 -7500.9165 300.1490 -362.6610 -370.3930 30461.9260 -151.9139 -94.4957
ENERGY: 900000 1.1548 6.5807 3.7954 0.0000 -10713.9971 1387.2251 0.0000 0.0000 1763.9822 -7551.2590 299.0823 -9315.2411 -7509.1283 300.4112 -489.9392 -422.5870 30296.8337 -239.6972 -173.4839
ENERGY: 1200000 1.5915 6.2400 3.1186 0.0000 -10790.6979 1465.8139 0.0000 0.0000 1800.9853 -7512.9486 305.3561 -9313.9339 -7509.9847 300.2603 131.4455 185.2784 30098.3116 -102.6509 -44.4721
ENERGY: 1500000 0.5539 4.6501 4.8961 0.0000 -10777.7166 1484.2155 0.0000 0.0000 1715.1253 -7568.2756 290.7986 -9283.4009 -7511.6367 299.6455 200.0255 265.4580 30312.4476 -97.1132 -39.9511
TCL: Exiting due to exit command.
