Info: SIMULATION PARAMETERS:
Info: TIMESTEP               2
Info: NUMBER OF STEPS        0
Info: STEPS PER CYCLE        10
Info: PERIODIC CELL BASIS 1  32.3267 0 0
Info: PERIODIC CELL BASIS 2  0 28.08 0
Info: PERIODIC CELL BASIS 3  0 0 32.8594
Info: PERIODIC CELL CENTER   0 0 0
Info: WRAPPING WATERS AROUND PERIODIC BOUNDARIES ON OUTPUT.
Info: WRAPPING ALL CLUSTERS AROUND PERIODIC BOUNDARIES ON OUTPUT.
Info: FIRST LDB TIMESTEP     50
Info: LAST LDB TIMESTEP     -1
Info: HOM BACKGROUND SCALING 1
Info: PME BACKGROUND SCALING 1
Info: MIN ATOMS PER PATCH    40
Info: EMPTY PATCH LOAD       40 ATOMS
Info: VELOCITY FILE          mobley_6201330_equil.vel
Info: CENTER OF MASS MOVING INITIALLY? NO
Info: DIELECTRIC             1
Info: EXCLUDE                SCALED ONE-FOUR
Info: 1-4 ELECTROSTATICS SCALED BY 0.833333
Info: MODIFIED 1-4 VDW PARAMETERS WILL BE USED
Info: DCD FILENAME           mobley_6201330_prod.dcd
Info: DCD FREQUENCY          100000
Info: DCD FIRST STEP         100000
Info: DCD FILE WILL CONTAIN UNIT CELL DATA
Info: XST FILENAME           mobley_6201330_prod.xst
Info: XST FREQUENCY          100000
Info: NO VELOCITY DCD OUTPUT
Info: NO FORCE DCD OUTPUT
Info: OUTPUT FILENAME        mobley_6201330_prod
Info: BINARY OUTPUT FILES WILL BE USED
Info: RESTART FILENAME       mobley_6201330_prod.restart
Info: RESTART FREQUENCY      100000
Info: BINARY RESTART FILES WILL BE USED
Info: CUTOFF                 9
Info: PAIRLIST DISTANCE      11
Info: PAIRLIST SHRINK RATE   0.01
Info: PAIRLIST GROW RATE     0.01
Info: PAIRLIST TRIGGER       0.3
Info: PAIRLISTS PER CYCLE    2
Info: PAIRLISTS ENABLED
Info: MARGIN                 2
Info: HYDROGEN GROUP CUTOFF  2.5
Info: PATCH DIMENSION        15.5
Info: ENERGY OUTPUT STEPS    100000
Info: ENERGY EVALUATION STEPS    100000
Info: OUTPUT ENERGY PRECISION 4
Info: CROSSTERM ENERGY INCLUDED IN DIHEDRAL
Info: TIMING OUTPUT STEPS    1000000
Info: PRESSURE OUTPUT STEPS  100000
Info: ALCHEMICAL FEP ON
Info: FEP CURRENT LAMBDA VALUE     1
Info: FEP COMPARISON LAMBDA VALUE  0.95
Info: FEP INTRA-ALCHEMICAL NON-BONDED INTERACTIONS WILL BE RETAINED
Info: FEP INTRA-ALCHEMICAL BONDED INTERACTIONS WILL BE RETAINED
Info: FEP VDW SHIFTING COEFFICIENT 5
Info: FEP ELEC. ACTIVE FOR ANNIHILATED PARTICLES BETWEEN LAMBDA = 0 AND LAMBDA = 0.5
Info: FEP ELEC. ACTIVE FOR EXNIHILATED PARTICLES BETWEEN LAMBDA = 0.5 AND LAMBDA = 1
Info: FEP VDW ACTIVE FOR ANNIHILATED PARTICLES BETWEEN LAMBDA = 0 AND LAMBDA = 1
Info: FEP VDW ACTIVE FOR EXNIHILATED PARTICLES BETWEEN LAMBDA = 0 AND LAMBDA = 1
Info: FEP BOND ACTIVE FOR ANNIHILATED PARTICLES BETWEEN LAMBDA = 1 AND LAMBDA = 1
Info: FEP BOND ACTIVE FOR EXNIHILATED PARTICLES BETWEEN LAMBDA = 0 AND LAMBDA = 0
Info: LANGEVIN DYNAMICS ACTIVE
Info: LANGEVIN TEMPERATURE   300
Info: LANGEVIN USING BBK INTEGRATOR
Info: LANGEVIN DAMPING COEFFICIENT IS 1 INVERSE PS
Info: LANGEVIN DYNAMICS APPLIED TO HYDROGENS
Info: LANGEVIN PISTON PRESSURE CONTROL ACTIVE
Info:        TARGET PRESSURE IS 1.01325 BAR
Info:     OSCILLATION PERIOD IS 50 FS
Info:             DECAY TIME IS 25 FS
Info:     PISTON TEMPERATURE IS 300 K
Info:       PRESSURE CONTROL IS GROUP-BASED
Info:    INITIAL STRAIN RATE IS 0.00048184 0.00048184 0.00048184
Info:       CELL FLUCTUATION IS ISOTROPIC
Info: PARTICLE MESH EWALD (PME) ACTIVE
Info: PME TOLERANCE               1e-06
Info: PME EWALD COEFFICIENT       0.348832
Info: PME INTERPOLATION ORDER     4
Info: PME GRID DIMENSIONS         36 32 36
Info: PME MAXIMUM GRID SPACING    1
Info: PME CALCULATION WILL BE PERFORMED ON GPU
Info: FULL ELECTROSTATIC EVALUATION FREQUENCY      2
Info: USING VERLET I (r-RESPA) MTS SCHEME.
Info: C1 SPLITTING OF LONG RANGE ELECTROSTATICS
Info: PLACING ATOMS IN PATCHES BY HYDROGEN GROUPS
Info: RIGID BONDS TO HYDROGEN : ALL
Info:         ERROR TOLERANCE : 1e-08
Info:          MAX ITERATIONS : 100
Info: RIGID WATER USING SETTLE ALGORITHM
Info: RANDOM NUMBER SEED     1743943847
Info: USE HYDROGEN BONDS?    NO
Info: Using AMBER format force field!
Info: AMBER PARM FILE        mobley_6201330.prmtop
Info: COORDINATE PDB         mobley_6201330.pdb
Info: Exclusions will be read from PARM file!
Info: SCNB (VDW SCALING)     2
Info: USING ARITHMETIC MEAN TO COMBINE L-J SIGMA PARAMETERS
Info: BINARY COORDINATES     mobley_6201330_equil.coor
Info: SUMMARY OF PARAMETERS:
Info: 13 BONDS
Info: 16 ANGLES
Info:   16 HARMONIC
Info:   0 COSINE-BASED
Info: 14 DIHEDRAL
Info: 0 IMPROPER
Info: 0 CROSSTERM
Info: 0 VDW
Info: 55 VDW_PAIRS
Info: 0 NBTHOLE_PAIRS
Info: To read alchdata from file: mobley_6201330.pdb
Info: To read alchflag data from column: 5
Info: STRUCTURE SUMMARY:
Info: 2923 ATOMS
Info: 2923 BONDS
Info: 41 ANGLES
Info: 64 DIHEDRALS
Info: 0 IMPROPERS
Info: 0 CROSSTERMS
Info: 3014 EXCLUSIONS
Info: 2910 RIGID BONDS
Info: ALCH: 0 ATOMS TO DISAPPEAR IN FINAL STATE
Info: ALCH: 25 ATOMS TO APPEAR IN FINAL STATE
Info: 5859 DEGREES OF FREEDOM
Info: 979 HYDROGEN GROUPS
Info: 4 ATOMS IN LARGEST HYDROGEN GROUP
Info: 979 MIGRATION GROUPS
Info: 4 ATOMS IN LARGEST MIGRATION GROUP
Info: TOTAL MASS = 17583.7 amu
Info: TOTAL CHARGE = 3.72529e-08 e
Info: MASS DENSITY = 0.978924 g/cm^3
Info: ATOM DENSITY = 0.0979962 atoms/A^3
Info: ADDED 0 IMPLICIT EXCLUSIONS
Info: NONBONDED TABLE R-SQUARED SPACING: 0.0625
Info: NONBONDED TABLE SIZE: 705 POINTS
Info: REMOVING COM VELOCITY 0.187587 0.108363 0.087877
Info: Use 3D box decompostion in PME FFT.
Info: Updated CUDA force table with 4096 elements.
Info: Updated CUDA LJ table with 10 x 10 elements.
Info: Found 27 unique exclusion lists needing 92 bytes
TCL: Running for 1500000 steps
ETITLE: TS BOND ANGLE DIHED IMPRP ELECT VDW BOUNDARY MISC KINETIC TOTAL TEMP POTENTIAL TOTALAVG TEMPAVG PRESSURE GPRESSURE VOLUME PRESSAVG GPRESSAVG
ENERGY: 0 3.9688 9.6054 3.7196 0.0000 -10632.9764 1424.6559 0.0000 0.0000 1753.7293 -7437.2973 301.2517 -9191.0267 -7437.2973 301.2517 -95.1750 -13.4620 29827.6749 -95.1750 -13.4620
ENERGY: 300000 3.3027 10.1859 3.6859 0.0000 -10668.5310 1464.0461 0.0000 0.0000 1724.2288 -7463.0816 296.1841 -9187.3104 -7407.9307 301.0307 401.2182 506.2786 29979.5847 380.9828 447.4170
ENERGY: 600000 4.4172 8.1217 8.3563 0.0000 -10478.8446 1322.6597 0.0000 0.0000 1732.5964 -7402.6932 297.6215 -9135.2896 -7401.2142 299.9561 -954.9701 -975.6483 30395.6766 193.9642 230.4962
ENERGY: 900000 7.9451 6.3253 5.4316 0.0000 -10637.1049 1431.3752 0.0000 0.0000 1763.7406 -7422.2872 302.9714 -9186.0278 -7403.4564 299.7358 202.5655 251.3532 29685.3297 79.7586 129.3001
ENERGY: 1200000 2.1608 14.1108 5.4053 0.0000 -10544.6796 1303.8298 0.0000 0.0000 1679.7229 -7539.4500 288.5390 -9219.1729 -7422.6497 299.0017 -1220.6868 -1222.4661 30488.0770 3.0488 42.5197
ENERGY: 1500000 4.7212 7.4308 5.1676 0.0000 -10476.8183 1318.3028 0.0000 0.0000 1762.1889 -7379.0070 302.7048 -9141.1959 -7409.7509 300.0883 -916.9489 -847.3752 30615.8377 -32.6277 9.0074
TCL: Running FEP window   2: Lambda1 0.95   Lambda2 0.8999999999999999 [dLambda -0.050000000000000044]
TCL: Setting parameter firsttimestep to 0
TCL: Setting parameter alchLambda to 0.95
Info: NONBONDED TABLE R-SQUARED SPACING: 0.0625
Info: NONBONDED TABLE SIZE: 705 POINTS
TCL: Setting parameter alchLambda2 to 0.8999999999999999
Info: NONBONDED TABLE R-SQUARED SPACING: 0.0625
Info: NONBONDED TABLE SIZE: 705 POINTS
TCL: Running for 1500000 steps
ETITLE: TS BOND ANGLE DIHED IMPRP ELECT VDW BOUNDARY MISC KINETIC TOTAL TEMP POTENTIAL TOTALAVG TEMPAVG PRESSURE GPRESSURE VOLUME PRESSAVG GPRESSAVG
ENERGY: 0 4.7212 7.4308 5.1676 0.0000 -10474.6178 1317.9806 0.0000 0.0000 1761.3020 -7378.0156 302.5525 -9139.3176 -7378.0156 302.5525 -952.4005 -867.2473 30615.8377 -952.4005 -867.2473
ENERGY: 300000 3.4064 11.2521 10.4435 0.0000 -10524.1780 1435.6012 0.0000 0.0000 1730.9955 -7332.4793 297.3465 -9063.4748 -7414.7507 296.3801 160.4124 266.2740 30304.2196 -364.6428 -279.1180
ENERGY: 600000 4.7420 7.3764 9.6124 0.0000 -10588.5895 1375.2084 0.0000 0.0000 1714.3180 -7477.3323 294.4817 -9191.6503 -7409.2695 297.5236 -479.6666 -408.4041 29702.9682 -209.4841 -138.7214
ENERGY: 900000 4.6475 5.9849 6.4354 0.0000 -10481.1661 1348.0874 0.0000 0.0000 1721.8365 -7394.1744 295.7732 -9116.0109 -7417.9987 297.3279 -747.5833 -671.8696 30259.6775 -232.3703 -160.9421
ENERGY: 1200000 6.4552 9.7347 8.1359 0.0000 -10579.4873 1492.1805 0.0000 0.0000 1718.1421 -7344.8389 295.1386 -9062.9810 -7409.6288 298.9052 541.2611 591.1491 30654.6733 -162.9263 -96.7257
ENERGY: 1500000 6.2691 7.3238 5.4060 0.0000 -10505.1793 1435.2012 0.0000 0.0000 1755.1787 -7295.8006 301.5006 -9050.9792 -7396.9481 300.2322 448.6242 492.0333 29928.2808 -111.2652 -44.3739
TCL: Running FEP window   3: Lambda1 0.8999999999999999 Lambda2 0.8499999999999999 [dLambda -0.050000000000000044]
TCL: Setting parameter firsttimestep to 0
TCL: Setting parameter alchLambda to 0.8999999999999999
Info: NONBONDED TABLE R-SQUARED SPACING: 0.0625
Info: NONBONDED TABLE SIZE: 705 POINTS
TCL: Setting parameter alchLambda2 to 0.8499999999999999
Info: NONBONDED TABLE R-SQUARED SPACING: 0.0625
Info: NONBONDED TABLE SIZE: 705 POINTS
TCL: Running for 1500000 steps
ETITLE: TS BOND ANGLE DIHED IMPRP ELECT VDW BOUNDARY MISC KINETIC TOTAL TEMP POTENTIAL TOTALAVG TEMPAVG PRESSURE GPRESSURE VOLUME PRESSAVG GPRESSAVG
ENERGY: 0 6.2691 7.3238 5.4060 0.0000 -10502.3545 1434.4465 0.0000 0.0000 1754.3392 -7294.5699 301.3564 -9048.9091 -7294.5699 301.3564 394.1900 475.0172 29928.2808 394.1900 475.0172
ENERGY: 300000 2.7816 10.6979 5.9709 0.0000 -10512.5497 1325.9743 0.0000 0.0000 1771.0444 -7396.0805 304.2260 -9167.1250 -7391.4223 299.9208 -635.1838 -611.1207 29984.8869 67.9034 133.7167
ENERGY: 600000 3.8950 11.0235 11.6323 0.0000 -10716.3628 1487.3608 0.0000 0.0000 1705.4875 -7496.9638 292.9648 -9202.4513 -7411.4199 298.1383 304.4030 350.1512 30039.4455 34.6614 101.0226
ENERGY: 900000 3.7159 11.3672 6.4285 0.0000 -10482.4768 1331.9913 0.0000 0.0000 1759.7883 -7369.1856 302.2925 -9128.9739 -7418.0722 298.1681 -690.0840 -645.0896 30466.2672 31.0766 93.8444
ENERGY: 1200000 6.1870 9.4435 8.5103 0.0000 -10491.7882 1353.5003 0.0000 0.0000 1749.9782 -7364.1689 300.6073 -9114.1471 -7418.0305 297.7562 -756.1680 -683.5986 30083.5490 -62.3103 -0.9851
ENERGY: 1500000 6.4884 10.2621 9.9588 0.0000 -10602.8595 1446.7486 0.0000 0.0000 1765.2523 -7364.1493 303.2310 -9129.4016 -7409.7863 298.4186 496.5945 572.5098 29573.8460 -43.5100 25.3421
TCL: Running FEP window   4: Lambda1 0.8499999999999999 Lambda2 0.7999999999999998 [dLambda -0.050000000000000044]
TCL: Setting parameter firsttimestep to 0
TCL: Setting parameter alchLambda to 0.8499999999999999
Info: NONBONDED TABLE R-SQUARED SPACING: 0.0625
Info: NONBONDED TABLE SIZE: 705 POINTS
TCL: Setting parameter alchLambda2 to 0.7999999999999998
Info: NONBONDED TABLE R-SQUARED SPACING: 0.0625
Info: NONBONDED TABLE SIZE: 705 POINTS
TCL: Running for 1500000 steps
ETITLE: TS BOND ANGLE DIHED IMPRP ELECT VDW BOUNDARY MISC KINETIC TOTAL TEMP POTENTIAL TOTALAVG TEMPAVG PRESSURE GPRESSURE VOLUME PRESSAVG GPRESSAVG
ENERGY: 0 6.4884 10.2621 9.9588 0.0000 -10599.4348 1445.8802 0.0000 0.0000 1764.3441 -7362.5012 303.0750 -9126.8453 -7362.5012 303.0750 468.7306 549.4295 29573.8460 468.7306 549.4295
ENERGY: 300000 5.8368 9.0276 9.7573 0.0000 -10612.7451 1447.2962 0.0000 0.0000 1725.9645 -7414.8627 296.4823 -9140.8272 -7408.6547 297.8918 412.6621 422.7660 30199.7623 368.0444 428.2915
ENERGY: 600000 4.6654 9.5716 6.0550 0.0000 -10502.6961 1381.9409 0.0000 0.0000 1775.2097 -7325.2534 304.9415 -9100.4631 -7374.2792 301.1623 -168.1996 -106.0154 29703.5510 285.2116 348.3088
ENERGY: 900000 6.0212 8.4119 13.0145 0.0000 -10646.5674 1454.0959 0.0000 0.0000 1758.0480 -7406.9760 301.9935 -9165.0240 -7396.8143 301.9033 -20.4075 50.8980 30111.5772 155.7597 225.5334
ENERGY: 1200000 5.8044 8.0869 6.3132 0.0000 -10521.3935 1382.5607 0.0000 0.0000 1780.1768 -7338.4515 305.7947 -9118.6283 -7382.0043 302.0891 -189.1978 -171.0712 30313.8084 0.6765 60.2585
ENERGY: 1500000 5.0204 8.4236 5.2147 0.0000 -10364.8094 1308.0590 0.0000 0.0000 1758.3426 -7279.7491 302.0441 -9038.0917 -7370.8025 302.3370 -862.9716 -805.9388 31051.0486 -2.6894 57.9896
TCL: Running FEP window   5: Lambda1 0.7999999999999998 Lambda2 0.7499999999999998 [dLambda -0.050000000000000044]
TCL: Setting parameter firsttimestep to 0
TCL: Setting parameter alchLambda to 0.7999999999999998
Info: NONBONDED TABLE R-SQUARED SPACING: 0.0625
Info: NONBONDED TABLE SIZE: 705 POINTS
TCL: Setting parameter alchLambda2 to 0.7499999999999998
Info: NONBONDED TABLE R-SQUARED SPACING: 0.0625
Info: NONBONDED TABLE SIZE: 705 POINTS
TCL: Running for 1500000 steps
ETITLE: TS BOND ANGLE DIHED IMPRP ELECT VDW BOUNDARY MISC KINETIC TOTAL TEMP POTENTIAL TOTALAVG TEMPAVG PRESSURE GPRESSURE VOLUME PRESSAVG GPRESSAVG
ENERGY: 0 5.0203 8.4236 5.2147 0.0000 -10362.7817 1308.1988 0.0000 0.0000 1757.5314 -7278.3928 301.9048 -9035.9243 -7278.3928 301.9048 -921.0645 -814.5187 31051.0486 -921.0645 -814.5187
ENERGY: 300000 5.6083 8.4846 7.7389 0.0000 -10439.7315 1285.3839 0.0000 0.0000 1738.2437 -7394.2721 298.5916 -9132.5158 -7371.2684 297.3534 -1254.3162 -1236.9971 30390.1582 -425.3628 -381.4066
ENERGY: 600000 5.4174 7.7723 7.9901 0.0000 -10488.5539 1339.7198 0.0000 0.0000 1707.8629 -7419.7914 293.3728 -9127.6543 -7407.2156 296.8012 -1018.6642 -933.1232 30366.0162 -385.3839 -314.0881
ENERGY: 900000 2.4355 6.5607 8.1443 0.0000 -10580.8761 1406.1833 0.0000 0.0000 1748.3594 -7409.1929 300.3292 -9157.5523 -7411.1240 297.0842 -264.3441 -180.9625 30273.5702 -309.8011 -244.9727
ENERGY: 1200000 5.5312 7.0645 9.1447 0.0000 -10681.3964 1468.5758 0.0000 0.0000 1744.3810 -7446.6991 299.6458 -9191.0801 -7410.0474 298.4305 206.4380 238.2304 29982.6476 -295.7432 -236.1729
ENERGY: 1500000 4.2834 8.1980 6.7099 0.0000 -10499.7010 1407.8177 0.0000 0.0000 1829.4123 -7243.2797 314.2523 -9072.6920 -7394.2980 300.4383 52.0689 64.4411 30074.1972 -221.2658 -164.0396
TCL: Running FEP window   6: Lambda1 0.7499999999999998 Lambda2 0.6999999999999997 [dLambda -0.050000000000000044]
TCL: Setting parameter firsttimestep to 0
TCL: Setting parameter alchLambda to 0.7499999999999998
Info: NONBONDED TABLE R-SQUARED SPACING: 0.0625
Info: NONBONDED TABLE SIZE: 705 POINTS
TCL: Setting parameter alchLambda2 to 0.6999999999999997
Info: NONBONDED TABLE R-SQUARED SPACING: 0.0625
Info: NONBONDED TABLE SIZE: 705 POINTS
TCL: Running for 1500000 steps
ETITLE: TS BOND ANGLE DIHED IMPRP ELECT VDW BOUNDARY MISC KINETIC TOTAL TEMP POTENTIAL TOTALAVG TEMPAVG PRESSURE GPRESSURE VOLUME PRESSAVG GPRESSAVG
ENERGY: 0 4.2834 8.1980 6.7099 0.0000 -10497.4595 1407.5646 0.0000 0.0000 1828.5172 -7242.1864 314.0986 -9070.7037 -7242.1864 314.0986 -26.9889 52.5477 30074.1972 -26.9889 52.5477
ENERGY: 300000 3.4828 8.9194 7.4638 0.0000 -10575.5744 1419.9426 0.0000 0.0000 1758.3682 -7377.3975 302.0485 -9135.7658 -7395.5028 299.4896 103.4844 132.9547 29898.5607 -88.2309 -45.7959
ENERGY: 600000 4.7526 10.8384 9.0414 0.0000 -10579.6244 1374.2758 0.0000 0.0000 1741.8926 -7438.8236 299.2184 -9180.7163 -7420.6201 297.4379 -391.8876 -345.1126 29978.8834 -57.6351 -14.1650
ENERGY: 900000 4.7509 8.5638 7.8727 0.0000 -10659.6922 1462.7712 0.0000 0.0000 1745.8322 -7429.9013 299.8951 -9175.7336 -7408.9099 298.5828 472.9721 523.0769 29910.9583 -11.2362 25.4633
ENERGY: 1200000 4.8728 10.4985 7.3470 0.0000 -10610.6221 1424.7913 0.0000 0.0000 1726.2225 -7436.8898 296.5266 -9163.1123 -7413.9295 299.1718 126.9083 145.0975 29971.8281 14.6404 55.9115
ENERGY: 1500000 4.5086 10.1810 3.6225 0.0000 -10475.2048 1309.1062 0.0000 0.0000 1726.5785 -7421.2080 296.5878 -9147.7865 -7414.7400 299.5193 -1152.8290 -1060.7889 30353.7283 -126.8151 -71.3160
TCL: Running FEP window   7: Lambda1 0.6999999999999997 Lambda2 0.6499999999999997 [dLambda -0.050000000000000044]
TCL: Setting parameter firsttimestep to 0
TCL: Setting parameter alchLambda to 0.6999999999999997
Info: NONBONDED TABLE R-SQUARED SPACING: 0.0625
Info: NONBONDED TABLE SIZE: 705 POINTS
TCL: Setting parameter alchLambda2 to 0.6499999999999997
Info: NONBONDED TABLE R-SQUARED SPACING: 0.0625
Info: NONBONDED TABLE SIZE: 705 POINTS
TCL: Running for 1500000 steps
ETITLE: TS BOND ANGLE DIHED IMPRP ELECT VDW BOUNDARY MISC KINETIC TOTAL TEMP POTENTIAL TOTALAVG TEMPAVG PRESSURE GPRESSURE VOLUME PRESSAVG GPRESSAVG
ENERGY: 0 4.5086 10.1810 3.6225 0.0000 -10472.8045 1309.2642 0.0000 0.0000 1725.7379 -7419.4903 296.4434 -9145.2283 -7419.4903 296.4434 -1152.8048 -1066.4269 30353.7283 -1152.8048 -1066.4269
ENERGY: 300000 4.5234 7.4903 7.6675 0.0000 -10674.2422 1478.1838 0.0000 0.0000 1745.1909 -7431.1863 299.7850 -9176.3772 -7414.9488 298.7693 418.7387 455.3581 29933.7277 257.4011 321.2259
ENERGY: 600000 3.2287 8.3652 8.7726 0.0000 -10506.0979 1346.1898 0.0000 0.0000 1762.5650 -7376.9765 302.7694 -9139.5415 -7408.7063 299.9621 -627.7735 -594.3133 30059.3074 134.5321 205.5937
ENERGY: 900000 5.2004 7.2572 5.0269 0.0000 -10429.3426 1337.4942 0.0000 0.0000 1771.9265 -7302.4373 304.3775 -9074.3638 -7375.8030 302.0985 -667.5313 -565.3930 30328.4942 67.8923 126.1140
ENERGY: 1200000 4.4194 14.1227 6.8727 0.0000 -10584.2742 1474.3314 0.0000 0.0000 1733.3256 -7351.2024 297.7468 -9084.5280 -7364.9408 302.7433 613.9847 717.5029 29964.4340 119.5622 175.8938
ENERGY: 1500000 4.7028 9.6957 9.9038 0.0000 -10594.0947 1395.4687 0.0000 0.0000 1715.5265 -7458.7974 294.6893 -9174.3238 -7371.8177 301.6758 -132.2332 -18.2236 29746.7767 108.7392 173.0979
TCL: Running FEP window   8: Lambda1 0.6499999999999997 Lambda2 0.5999999999999996 [dLambda -0.050000000000000044]
TCL: Setting parameter firsttimestep to 0
TCL: Setting parameter alchLambda to 0.6499999999999997
Info: NONBONDED TABLE R-SQUARED SPACING: 0.0625
Info: NONBONDED TABLE SIZE: 705 POINTS
TCL: Setting parameter alchLambda2 to 0.5999999999999996
Info: NONBONDED TABLE R-SQUARED SPACING: 0.0625
Info: NONBONDED TABLE SIZE: 705 POINTS
TCL: Running for 1500000 steps
ETITLE: TS BOND ANGLE DIHED IMPRP ELECT VDW BOUNDARY MISC KINETIC TOTAL TEMP POTENTIAL TOTALAVG TEMPAVG PRESSURE GPRESSURE VOLUME PRESSAVG GPRESSAVG
ENERGY: 0 4.7028 9.6957 9.9038 0.0000 -10592.4376 1393.8857 0.0000 0.0000 1714.6736 -7459.5762 294.5428 -9174.2498 -7459.5762 294.5428 -143.0513 -42.4134 29746.7767 -143.0513 -42.4134
ENERGY: 300000 4.0540 11.7768 7.3462 0.0000 -10584.0403 1447.5083 0.0000 0.0000 1734.8935 -7378.4615 298.0161 -9113.3550 -7382.4495 299.5320 83.5546 119.2815 30233.0469 -152.9688 -103.0439
ENERGY: 600000 7.6131 11.8269 7.4671 0.0000 -10693.3264 1486.2038 0.0000 0.0000 1775.6192 -7404.5963 305.0119 -9180.2155 -7360.3382 300.4456 567.2141 625.1364 29769.7707 -70.6813 -13.4584
ENERGY: 900000 3.5290 10.6181 7.3955 0.0000 -10529.3280 1388.7676 0.0000 0.0000 1756.3777 -7362.6401 301.7066 -9119.0178 -7355.0055 301.0808 51.6155 88.0468 29996.9867 -34.2667 20.6539
ENERGY: 1200000 4.9148 9.0352 6.9104 0.0000 -10596.9031 1455.4768 0.0000 0.0000 1779.5274 -7341.0385 305.6832 -9120.5660 -7360.3711 301.4800 28.2158 38.1048 30283.5296 29.8854 74.9011
ENERGY: 1500000 4.1371 8.1606 6.4538 0.0000 -10557.0091 1409.0848 0.0000 0.0000 1738.6023 -7390.5707 298.6532 -9129.1729 -7365.4339 300.8227 -82.9517 -91.9190 30499.1495 120.3730 163.0143
TCL: Running FEP window   9: Lambda1 0.5999999999999996 Lambda2 0.5499999999999996 [dLambda -0.050000000000000044]
TCL: Setting parameter firsttimestep to 0
TCL: Setting parameter alchLambda to 0.5999999999999996
Info: NONBONDED TABLE R-SQUARED SPACING: 0.0625
Info: NONBONDED TABLE SIZE: 705 POINTS
TCL: Setting parameter alchLambda2 to 0.5499999999999996
Info: NONBONDED TABLE R-SQUARED SPACING: 0.0625
Info: NONBONDED TABLE SIZE: 705 POINTS
TCL: Running for 1500000 steps
ETITLE: TS BOND ANGLE DIHED IMPRP ELECT VDW BOUNDARY MISC KINETIC TOTAL TEMP POTENTIAL TOTALAVG TEMPAVG PRESSURE GPRESSURE VOLUME PRESSAVG GPRESSAVG
ENERGY: 0 4.1371 8.1606 6.4538 0.0000 -10555.5501 1409.6223 0.0000 0.0000 1737.7206 -7389.4557 298.5017 -9127.1763 -7389.4557 298.5017 -172.1340 -94.1875 30499.1495 -172.1340 -94.1875
ENERGY: 300000 2.8142 11.0874 6.7159 0.0000 -10555.1124 1428.0092 0.0000 0.0000 1737.7324 -7368.7533 298.5037 -9106.4857 -7366.9956 298.9901 291.8972 331.8093 29612.4327 123.3533 194.1831
ENERGY: 600000 6.0447 9.0238 9.4595 0.0000 -10528.8658 1367.7904 0.0000 0.0000 1704.1506 -7432.3968 292.7351 -9136.5474 -7379.6226 298.1331 -537.3523 -513.0486 30034.0267 -30.4805 26.0139
ENERGY: 900000 5.4814 13.8197 7.5971 0.0000 -10653.4355 1477.9044 0.0000 0.0000 1710.3859 -7438.2471 293.8062 -9148.6330 -7388.1299 296.9708 531.2609 567.5491 29607.4429 28.9564 81.6983
ENERGY: 1200000 6.5019 10.7325 5.2014 0.0000 -10576.8369 1427.7775 0.0000 0.0000 1748.5516 -7378.0720 300.3622 -9126.6237 -7377.6727 298.4038 84.6331 179.2414 29992.8002 49.9237 111.9015
ENERGY: 1500000 2.9815 7.9020 6.1406 0.0000 -10723.9029 1516.5853 0.0000 0.0000 1856.4859 -7333.8076 318.9030 -9190.2935 -7379.0408 299.9466 778.4031 861.9873 29711.9340 31.9048 96.5037
TCL: Running FEP window  10: Lambda1 0.5499999999999996 Lambda2 0.4999999999999996 [dLambda -0.04999999999999999]
TCL: Setting parameter firsttimestep to 0
TCL: Setting parameter alchLambda to 0.5499999999999996
Info: NONBONDED TABLE R-SQUARED SPACING: 0.0625
Info: NONBONDED TABLE SIZE: 705 POINTS
TCL: Setting parameter alchLambda2 to 0.4999999999999996
Info: NONBONDED TABLE R-SQUARED SPACING: 0.0625
Info: NONBONDED TABLE SIZE: 705 POINTS
TCL: Running for 1500000 steps
ETITLE: TS BOND ANGLE DIHED IMPRP ELECT VDW BOUNDARY MISC KINETIC TOTAL TEMP POTENTIAL TOTALAVG TEMPAVG PRESSURE GPRESSURE VOLUME PRESSAVG GPRESSAVG
ENERGY: 0 2.9815 7.9020 6.1406 0.0000 -10723.3742 1517.0170 0.0000 0.0000 1855.5900 -7333.7431 318.7491 -9189.3332 -7333.7431 318.7491 766.8515 853.3106 29711.9340 766.8515 853.3106
ENERGY: 300000 4.1721 6.9292 4.5781 0.0000 -10630.2696 1464.1304 0.0000 0.0000 1799.3874 -7351.0725 309.0947 -9150.4598 -7326.6099 308.9821 499.6933 586.2524 30104.8454 137.3462 219.3535
ENERGY: 600000 6.3257 7.4799 4.7473 0.0000 -10514.9770 1450.5242 0.0000 0.0000 1694.3852 -7351.5147 291.0577 -9045.8999 -7347.1879 305.2408 175.4365 243.6847 30406.8688 5.0928 88.0079
ENERGY: 900000 6.4291 6.5112 5.5848 0.0000 -10736.7551 1585.1753 0.0000 0.0000 1745.4289 -7387.6258 299.8258 -9133.0547 -7364.8718 303.0297 1415.3108 1449.1066 29983.0526 167.8170 234.0515
ENERGY: 1200000 5.7169 10.2200 5.8501 0.0000 -10475.5652 1375.9973 0.0000 0.0000 1725.5861 -7352.1950 296.4173 -9077.7811 -7378.0799 301.4562 -74.0843 -6.8421 30027.6133 129.1707 197.9984
ENERGY: 1500000 3.6608 8.7193 6.5799 0.0000 -10556.9786 1413.4205 0.0000 0.0000 1713.2259 -7411.3721 294.2941 -9124.5980 -7380.8182 301.5941 -30.0715 10.8399 30093.1549 193.2414 259.9114
TCL: Running FEP window  11: Lambda1 0.4999999999999996 Lambda2 0.4499999999999996 [dLambda -0.04999999999999999]
TCL: Setting parameter firsttimestep to 0
TCL: Setting parameter alchLambda to 0.4999999999999996
Info: NONBONDED TABLE R-SQUARED SPACING: 0.0625
Info: NONBONDED TABLE SIZE: 705 POINTS
TCL: Setting parameter alchLambda2 to 0.4499999999999996
Info: NONBONDED TABLE R-SQUARED SPACING: 0.0625
Info: NONBONDED TABLE SIZE: 705 POINTS
TCL: Running for 1500000 steps
ETITLE: TS BOND ANGLE DIHED IMPRP ELECT VDW BOUNDARY MISC KINETIC TOTAL TEMP POTENTIAL TOTALAVG TEMPAVG PRESSURE GPRESSURE VOLUME PRESSAVG GPRESSAVG
ENERGY: 0 3.6608 8.7193 6.5799 0.0000 -10556.3014 1413.1360 0.0000 0.0000 1712.3851 -7411.8202 294.1496 -9124.2053 -7411.8202 294.1496 -80.6142 -3.1899 30093.1549 -80.6142 -3.1899
ENERGY: 300000 2.8584 9.9779 6.0021 0.0000 -10729.5880 1502.4178 0.0000 0.0000 1776.5271 -7431.8049 305.1678 -9208.3319 -7407.1794 300.5209 580.6196 637.5021 29545.4344 -55.4633 22.8084
ENERGY: 600000 4.8190 7.2716 7.0440 0.0000 -10561.0700 1351.8234 0.0000 0.0000 1698.1234 -7491.9886 291.6998 -9190.1120 -7421.6319 297.9703 -795.9525 -703.4893 29935.4918 -140.7785 -61.4167
ENERGY: 900000 3.6354 8.7058 7.7830 0.0000 -10762.1670 1575.2666 0.0000 0.0000 1756.0429 -7410.7333 301.6491 -9166.7762 -7411.7095 297.8625 857.4704 1014.2832 30153.4662 -42.4945 46.4249
ENERGY: 1200000 3.1284 7.2660 11.9518 0.0000 -10529.3459 1358.4908 0.0000 0.0000 1723.8711 -7424.6379 296.1227 -9148.5090 -7415.3308 297.1522 -182.7595 -134.8967 29382.9806 -126.8543 -43.6412
ENERGY: 1500000 4.1540 8.1008 8.0012 0.0000 -10581.1570 1425.8310 0.0000 0.0000 1770.4080 -7364.6619 304.1167 -9135.0699 -7404.0232 298.3521 -252.8271 -173.9958 30781.5894 -111.9320 -31.3860
TCL: Running FEP window  12: Lambda1 0.4499999999999996 Lambda2 0.39999999999999963 [dLambda -0.04999999999999999]
TCL: Setting parameter firsttimestep to 0
TCL: Setting parameter alchLambda to 0.4499999999999996
Info: NONBONDED TABLE R-SQUARED SPACING: 0.0625
Info: NONBONDED TABLE SIZE: 705 POINTS
TCL: Setting parameter alchLambda2 to 0.39999999999999963
Info: NONBONDED TABLE R-SQUARED SPACING: 0.0625
Info: NONBONDED TABLE SIZE: 705 POINTS
TCL: Running for 1500000 steps
ETITLE: TS BOND ANGLE DIHED IMPRP ELECT VDW BOUNDARY MISC KINETIC TOTAL TEMP POTENTIAL TOTALAVG TEMPAVG PRESSURE GPRESSURE VOLUME PRESSAVG GPRESSAVG
ENERGY: 0 4.1540 8.1008 8.0012 0.0000 -10581.1588 1426.0733 0.0000 0.0000 1769.5764 -7365.2531 303.9738 -9134.8295 -7365.2531 303.9738 -249.5262 -183.1441 30781.5894 -249.5262 -183.1441
ENERGY: 300000 5.7521 9.9636 2.8749 0.0000 -10622.0802 1455.5115 0.0000 0.0000 1747.2494 -7400.7288 300.1386 -9147.9782 -7362.6928 301.9618 65.1305 157.7042 29931.7759 -468.1825 -417.5293
ENERGY: 600000 3.0932 9.5175 9.5029 0.0000 -10639.1921 1468.4521 0.0000 0.0000 1772.8380 -7375.7884 304.5341 -9148.6264 -7360.3185 302.5100 177.1915 324.8426 30069.8854 -342.1906 -271.1324
ENERGY: 900000 6.7284 7.1641 7.6205 0.0000 -10568.9662 1373.4891 0.0000 0.0000 1737.5850 -7436.3791 298.4784 -9173.9642 -7375.0517 301.4423 -395.6920 -381.3497 30046.5591 -348.8409 -283.2889
ENERGY: 1200000 4.4290 7.6686 6.2565 0.0000 -10431.3845 1316.7664 0.0000 0.0000 1806.2820 -7289.9820 310.2790 -9096.2640 -7367.0431 300.9392 -779.1346 -638.1002 29918.2482 -351.8711 -283.6507
ENERGY: 1500000 6.5881 10.0962 6.8496 0.0000 -10581.0969 1460.5932 0.0000 0.0000 1748.0932 -7348.8766 300.2835 -9096.9698 -7368.5554 301.5419 293.1607 343.0747 30126.9547 -318.2083 -248.3560
TCL: Running FEP window  13: Lambda1 0.39999999999999963 Lambda2 0.34999999999999964 [dLambda -0.04999999999999999]
TCL: Setting parameter firsttimestep to 0
TCL: Setting parameter alchLambda to 0.39999999999999963
Info: NONBONDED TABLE R-SQUARED SPACING: 0.0625
Info: NONBONDED TABLE SIZE: 705 POINTS
TCL: Setting parameter alchLambda2 to 0.34999999999999964
Info: NONBONDED TABLE R-SQUARED SPACING: 0.0625
Info: NONBONDED TABLE SIZE: 705 POINTS
TCL: Running for 1500000 steps
ETITLE: TS BOND ANGLE DIHED IMPRP ELECT VDW BOUNDARY MISC KINETIC TOTAL TEMP POTENTIAL TOTALAVG TEMPAVG PRESSURE GPRESSURE VOLUME PRESSAVG GPRESSAVG
ENERGY: 0 6.5881 10.0962 6.8496 0.0000 -10581.0972 1461.2537 0.0000 0.0000 1747.2350 -7349.0746 300.1361 -9096.3096 -7349.0746 300.1361 232.9099 338.5028 30126.9547 232.9099 338.5028
ENERGY: 300000 6.1580 6.1524 7.5280 0.0000 -10426.8126 1344.0364 0.0000 0.0000 1739.4602 -7323.4777 298.8005 -9062.9378 -7344.5799 299.0090 -509.5521 -517.9909 30009.5431 -154.4806 -109.5554
ENERGY: 600000 1.8066 9.6225 8.4597 0.0000 -10515.9478 1425.0369 0.0000 0.0000 1751.1326 -7319.8895 300.8056 -9071.0221 -7352.6709 299.3786 238.7890 247.8542 30146.4116 -58.6800 -14.1670
ENERGY: 900000 4.0931 9.6969 5.2958 0.0000 -10465.5474 1396.4034 0.0000 0.0000 1763.2225 -7286.8357 302.8824 -9050.0582 -7351.9358 300.5128 -2.6768 45.7053 30141.2705 -90.1516 -47.3401
ENERGY: 1200000 3.8792 7.1408 9.0472 0.0000 -10608.0938 1421.9034 0.0000 0.0000 1740.4308 -7425.6923 298.9673 -9166.1232 -7355.7846 300.2951 -68.9109 53.0308 29881.8519 -123.9463 -79.0866
ENERGY: 1500000 7.7096 10.6011 7.2552 0.0000 -10747.7780 1574.0052 0.0000 0.0000 1732.3652 -7415.8416 297.5818 -9148.2068 -7362.7521 299.8534 1063.0715 1108.4687 30138.3727 -96.3222 -39.7908
TCL: Running FEP window  14: Lambda1 0.34999999999999964 Lambda2 0.29999999999999966 [dLambda -0.04999999999999999]
TCL: Setting parameter firsttimestep to 0
TCL: Setting parameter alchLambda to 0.34999999999999964
Info: NONBONDED TABLE R-SQUARED SPACING: 0.0625
Info: NONBONDED TABLE SIZE: 705 POINTS
TCL: Setting parameter alchLambda2 to 0.29999999999999966
Info: NONBONDED TABLE R-SQUARED SPACING: 0.0625
Info: NONBONDED TABLE SIZE: 705 POINTS
TCL: Running for 1500000 steps
ETITLE: TS BOND ANGLE DIHED IMPRP ELECT VDW BOUNDARY MISC KINETIC TOTAL TEMP POTENTIAL TOTALAVG TEMPAVG PRESSURE GPRESSURE VOLUME PRESSAVG GPRESSAVG
ENERGY: 0 7.7096 10.6011 7.2552 0.0000 -10747.7775 1573.9963 0.0000 0.0000 1731.5110 -7416.7042 297.4350 -9148.2152 -7416.7042 297.4350 1019.9885 1097.9447 30138.3727 1019.9885 1097.9447
ENERGY: 300000 2.6850 10.3149 6.2210 0.0000 -10691.9834 1488.5752 0.0000 0.0000 1785.2859 -7398.9014 306.6724 -9184.1873 -7402.1740 298.8452 684.4687 745.7897 29668.3095 387.2802 453.9950
ENERGY: 600000 2.9999 7.6485 10.9282 0.0000 -10501.9615 1348.2608 0.0000 0.0000 1815.7170 -7316.4071 311.8998 -9132.1241 -7385.5817 301.1408 -844.5033 -750.3437 30507.8140 203.2058 268.9703
ENERGY: 900000 3.9112 9.2120 4.3577 0.0000 -10544.3284 1385.3087 0.0000 0.0000 1764.3875 -7377.1512 303.0825 -9141.5387 -7375.6141 302.2595 -181.7367 -117.4420 29620.1328 171.3702 223.0096
ENERGY: 1200000 4.7594 9.7861 6.7905 0.0000 -10518.3284 1397.6057 0.0000 0.0000 1719.3802 -7380.0065 295.3512 -9099.3867 -7372.6711 300.9804 30.8008 55.1181 29702.8021 219.9232 271.8733
ENERGY: 1500000 2.0486 12.2828 5.6362 0.0000 -10571.0290 1399.7779 0.0000 0.0000 1690.3994 -7460.8841 290.3730 -9151.2835 -7378.1222 299.7275 -214.3385 -140.5029 29836.0362 179.4599 235.8288
TCL: Running FEP window  15: Lambda1 0.29999999999999966 Lambda2 0.24999999999999967 [dLambda -0.04999999999999999]
TCL: Setting parameter firsttimestep to 0
TCL: Setting parameter alchLambda to 0.29999999999999966
Info: NONBONDED TABLE R-SQUARED SPACING: 0.0625
Info: NONBONDED TABLE SIZE: 705 POINTS
TCL: Setting parameter alchLambda2 to 0.24999999999999967
Info: NONBONDED TABLE R-SQUARED SPACING: 0.0625
Info: NONBONDED TABLE SIZE: 705 POINTS
TCL: Running for 1500000 steps
ETITLE: TS BOND ANGLE DIHED IMPRP ELECT VDW BOUNDARY MISC KINETIC TOTAL TEMP POTENTIAL TOTALAVG TEMPAVG PRESSURE GPRESSURE VOLUME PRESSAVG GPRESSAVG
ENERGY: 0 2.0486 12.2828 5.6362 0.0000 -10571.0282 1400.0288 0.0000 0.0000 1689.5070 -7461.5248 290.2197 -9151.0318 -7461.5248 290.2197 -245.8412 -145.8470 29836.0362 -245.8412 -145.8470
ENERGY: 300000 6.5952 6.6683 7.7855 0.0000 -10497.7708 1358.7884 0.0000 0.0000 1755.6067 -7362.3266 301.5741 -9117.9333 -7361.8784 300.9734 -268.9536 -258.7169 29422.1052 -242.9261 -190.7170
ENERGY: 600000 3.3062 8.6369 7.4678 0.0000 -10572.2040 1420.0001 0.0000 0.0000 1664.1559 -7468.6371 285.8649 -9132.7929 -7373.2972 297.6020 -116.1635 -24.0602 30235.8796 -149.7975 -95.3810
ENERGY: 900000 1.5643 9.9886 5.4689 0.0000 -10613.9604 1434.4131 0.0000 0.0000 1720.2230 -7442.3026 295.4960 -9162.5256 -7385.2639 297.5308 323.8579 426.0372 29602.5672 -92.6272 -37.6162
ENERGY: 1200000 3.6812 7.7238 6.3564 0.0000 -10605.7579 1413.0450 0.0000 0.0000 1712.9296 -7462.0219 294.2432 -9174.9515 -7381.7259 298.5571 -332.3073 -237.1952 29839.1910 -115.7213 -58.0955
ENERGY: 1500000 7.8255 6.5666 9.7302 0.0000 -10421.8231 1346.3336 0.0000 0.0000 1716.5700 -7334.7971 294.8685 -9051.3671 -7375.5413 298.5813 -390.7514 -301.0580 29787.2293 -139.1929 -83.7697
TCL: Running FEP window  16: Lambda1 0.24999999999999967 Lambda2 0.19999999999999968 [dLambda -0.04999999999999999]
TCL: Setting parameter firsttimestep to 0
TCL: Setting parameter alchLambda to 0.24999999999999967
Info: NONBONDED TABLE R-SQUARED SPACING: 0.0625
Info: NONBONDED TABLE SIZE: 705 POINTS
TCL: Setting parameter alchLambda2 to 0.19999999999999968
Info: NONBONDED TABLE R-SQUARED SPACING: 0.0625
Info: NONBONDED TABLE SIZE: 705 POINTS
TCL: Running for 1500000 steps
ETITLE: TS BOND ANGLE DIHED IMPRP ELECT VDW BOUNDARY MISC KINETIC TOTAL TEMP POTENTIAL TOTALAVG TEMPAVG PRESSURE GPRESSURE VOLUME PRESSAVG GPRESSAVG
ENERGY: 0 7.8255 6.5666 9.7302 0.0000 -10421.8232 1346.2628 0.0000 0.0000 1715.7156 -7335.7226 294.7217 -9051.4381 -7335.7226 294.7217 -384.0564 -306.1927 29787.2293 -384.0564 -306.1927
ENERGY: 300000 5.6972 7.0933 7.9158 0.0000 -10421.6475 1348.4762 0.0000 0.0000 1765.6853 -7286.7798 303.3054 -9052.4651 -7335.0029 299.0745 -647.7528 -606.9933 30666.5798 -316.0910 -262.2009
ENERGY: 600000 3.0503 4.9701 5.5628 0.0000 -10520.2513 1376.3826 0.0000 0.0000 1736.8626 -7393.4230 298.3543 -9130.2856 -7352.0180 298.7631 -190.6846 -87.4320 29644.2327 -120.4805 -67.4765
ENERGY: 900000 2.9416 8.3125 5.8154 0.0000 -10582.0418 1421.9709 0.0000 0.0000 1718.6971 -7424.3044 295.2339 -9143.0014 -7377.5713 297.9224 332.8757 350.3688 29621.2593 -13.0489 41.5995
ENERGY: 1200000 3.2790 9.7792 7.1077 0.0000 -10598.5632 1416.6937 0.0000 0.0000 1709.1205 -7452.5832 293.5888 -9161.7036 -7381.7684 297.4987 -194.4752 -98.7763 30185.2735 -40.3646 4.7874
ENERGY: 1500000 6.1697 6.4234 4.8114 0.0000 -10680.2618 1514.0376 0.0000 0.0000 1736.3267 -7412.4930 298.2623 -9148.8197 -7383.6352 298.6285 726.7526 763.6574 29548.0244 64.2697 105.9712
TCL: Running FEP window  17: Lambda1 0.19999999999999968 Lambda2 0.1499999999999997 [dLambda -0.04999999999999999]
TCL: Setting parameter firsttimestep to 0
TCL: Setting parameter alchLambda to 0.19999999999999968
Info: NONBONDED TABLE R-SQUARED SPACING: 0.0625
Info: NONBONDED TABLE SIZE: 705 POINTS
TCL: Setting parameter alchLambda2 to 0.1499999999999997
Info: NONBONDED TABLE R-SQUARED SPACING: 0.0625
Info: NONBONDED TABLE SIZE: 705 POINTS
TCL: Running for 1500000 steps
ETITLE: TS BOND ANGLE DIHED IMPRP ELECT VDW BOUNDARY MISC KINETIC TOTAL TEMP POTENTIAL TOTALAVG TEMPAVG PRESSURE GPRESSURE VOLUME PRESSAVG GPRESSAVG
ENERGY: 0 6.1697 6.4234 4.8114 0.0000 -10680.2616 1514.1783 0.0000 0.0000 1735.4350 -7413.2438 298.1091 -9148.6788 -7413.2438 298.1091 678.9265 760.7320 29548.0244 678.9265 760.7320
ENERGY: 300000 3.9216 11.6773 7.4232 0.0000 -10576.5428 1452.8677 0.0000 0.0000 1707.1430 -7393.5099 293.2492 -9100.6529 -7391.1169 295.4658 200.5647 351.2275 29917.0274 5.2332 116.7339
ENERGY: 600000 4.4721 6.3161 5.0941 0.0000 -10543.2999 1391.2542 0.0000 0.0000 1686.3864 -7449.7770 289.6837 -9136.1635 -7397.8489 296.2101 -462.1536 -431.6429 30017.8110 -63.8238 19.9813
ENERGY: 900000 3.7008 12.6676 7.0101 0.0000 -10508.6087 1359.5400 0.0000 0.0000 1768.4371 -7357.2530 303.7781 -9125.6901 -7392.3971 298.7406 -412.7472 -405.3377 30127.6142 -47.6423 17.9269
ENERGY: 1200000 4.0505 8.4388 8.7825 0.0000 -10755.3587 1493.5044 0.0000 0.0000 1724.2150 -7516.3675 296.1818 -9240.5825 -7406.7011 298.1741 366.7875 397.9755 29667.3141 23.3690 84.5319
ENERGY: 1500000 4.9123 9.6600 3.8254 0.0000 -10591.1475 1492.9041 0.0000 0.0000 1661.7621 -7418.0837 285.4537 -9079.8458 -7403.6287 296.9639 496.2017 520.4388 29562.1289 20.6496 78.0024
TCL: Running FEP window  18: Lambda1 0.1499999999999997 Lambda2 0.09999999999999969 [dLambda -0.05 ]
TCL: Setting parameter firsttimestep to 0
TCL: Setting parameter alchLambda to 0.1499999999999997
Info: NONBONDED TABLE R-SQUARED SPACING: 0.0625
Info: NONBONDED TABLE SIZE: 705 POINTS
TCL: Setting parameter alchLambda2 to 0.09999999999999969
Info: NONBONDED TABLE R-SQUARED SPACING: 0.0625
Info: NONBONDED TABLE SIZE: 705 POINTS
TCL: Running for 1500000 steps
ETITLE: TS BOND ANGLE DIHED IMPRP ELECT VDW BOUNDARY MISC KINETIC TOTAL TEMP POTENTIAL TOTALAVG TEMPAVG PRESSURE GPRESSURE VOLUME PRESSAVG GPRESSAVG
ENERGY: 0 4.9123 9.6600 3.8254 0.0000 -10591.1494 1493.4309 0.0000 0.0000 1660.9156 -7418.4053 285.3083 -9079.3209 -7418.4053 285.3083 437.8853 517.5668 29562.1289 437.8853 517.5668
ENERGY: 300000 5.5716 7.0132 4.6062 0.0000 -10614.0599 1461.7709 0.0000 0.0000 1681.9183 -7453.1796 288.9161 -9135.0979 -7417.2036 290.2887 287.9524 377.5004 29793.6877 511.9436 579.8138
ENERGY: 600000 4.2651 9.2007 8.1968 0.0000 -10623.4266 1488.3168 0.0000 0.0000 1788.9642 -7324.4829 307.3042 -9113.4472 -7392.7639 295.8336 732.6358 822.1046 29626.5833 339.2453 410.4640
ENERGY: 900000 5.1438 8.9036 8.2706 0.0000 -10489.8019 1394.9853 0.0000 0.0000 1775.5507 -7296.9479 305.0001 -9072.4986 -7388.6378 297.7829 -375.1823 -365.9746 30196.5439 192.9588 263.9123
ENERGY: 1200000 5.3328 10.0050 6.5987 0.0000 -10500.2559 1383.3160 0.0000 0.0000 1753.4835 -7341.5200 301.2094 -9095.0035 -7384.0281 298.9201 -398.7821 -335.1987 30093.0196 89.2924 156.0583
ENERGY: 1500000 2.8582 8.7723 6.1740 0.0000 -10500.2112 1371.7616 0.0000 0.0000 1758.1307 -7352.5144 302.0077 -9110.6451 -7381.6928 299.2847 -580.1563 -605.7040 30441.5628 21.4433 85.6749
TCL: Running FEP window  19: Lambda1 0.09999999999999969 Lambda2 0.049999999999999684 [dLambda -0.05 ]
TCL: Setting parameter firsttimestep to 0
TCL: Setting parameter alchLambda to 0.09999999999999969
Info: NONBONDED TABLE R-SQUARED SPACING: 0.0625
Info: NONBONDED TABLE SIZE: 705 POINTS
TCL: Setting parameter alchLambda2 to 0.049999999999999684
Info: NONBONDED TABLE R-SQUARED SPACING: 0.0625
Info: NONBONDED TABLE SIZE: 705 POINTS
TCL: Running for 1500000 steps
ETITLE: TS BOND ANGLE DIHED IMPRP ELECT VDW BOUNDARY MISC KINETIC TOTAL TEMP POTENTIAL TOTALAVG TEMPAVG PRESSURE GPRESSURE VOLUME PRESSAVG GPRESSAVG
ENERGY: 0 2.8582 8.7723 6.1740 0.0000 -10500.2111 1371.0293 0.0000 0.0000 1757.2495 -7354.1277 301.8564 -9111.3772 -7354.1277 301.8564 -691.2578 -611.8244 30441.5628 -691.2578 -611.8244
ENERGY: 300000 5.5733 8.3003 9.9278 0.0000 -10487.2182 1447.5592 0.0000 0.0000 1733.7345 -7282.1230 297.8170 -9015.8575 -7340.3263 301.2082 276.8964 292.5009 30437.5733 -87.5286 -29.6951
ENERGY: 600000 3.4945 7.7301 5.5482 0.0000 -10652.9664 1484.6861 0.0000 0.0000 1768.8811 -7382.6265 303.8544 -9151.5076 -7353.1498 302.0591 292.5449 342.9035 29844.2757 -167.3534 -97.2297
ENERGY: 900000 5.3544 14.9024 6.0448 0.0000 -10634.3883 1488.1497 0.0000 0.0000 1742.4866 -7377.4504 299.3204 -9119.9370 -7353.6899 301.2810 712.6143 766.6519 29532.9768 -27.0346 31.2638
ENERGY: 1200000 4.3840 8.0696 13.5617 0.0000 -10774.5294 1549.4514 0.0000 0.0000 1694.5738 -7504.4890 291.0901 -9199.0627 -7368.1270 301.1954 777.4920 880.3150 29392.4520 53.4358 119.6972
ENERGY: 1500000 4.5935 11.5781 5.5698 0.0000 -10424.1115 1375.1487 0.0000 0.0000 1758.2033 -7269.0180 302.0202 -9027.2214 -7367.6193 300.6512 -58.2114 -19.5076 29927.2862 81.3731 141.2031
TCL: Running FEP window  20: Lambda1 0.049999999999999684 Lambda2 0.0    [dLambda -0.049999999999999684]
TCL: Setting parameter firsttimestep to 0
TCL: Setting parameter alchLambda to 0.049999999999999684
Info: NONBONDED TABLE R-SQUARED SPACING: 0.0625
Info: NONBONDED TABLE SIZE: 705 POINTS
TCL: Setting parameter alchLambda2 to 0.0
Info: NONBONDED TABLE R-SQUARED SPACING: 0.0625
Info: NONBONDED TABLE SIZE: 705 POINTS
TCL: Running for 1500000 steps
ETITLE: TS BOND ANGLE DIHED IMPRP ELECT VDW BOUNDARY MISC KINETIC TOTAL TEMP POTENTIAL TOTALAVG TEMPAVG PRESSURE GPRESSURE VOLUME PRESSAVG GPRESSAVG
ENERGY: 0 4.5935 11.5781 5.5698 0.0000 -10424.1105 1374.4406 0.0000 0.0000 1757.2851 -7270.6432 301.8625 -9027.9283 -7270.6432 301.8625 -97.6101 -26.7129 29927.2862 -97.6101 -26.7129
ENERGY: 300000 3.1120 9.6504 5.8720 0.0000 -10561.2857 1411.8674 0.0000 0.0000 1778.9270 -7351.8568 305.5801 -9130.7838 -7330.6829 304.5038 -233.0010 -117.4710 29756.2831 174.3546 268.7366
ENERGY: 600000 7.1355 6.3032 5.4834 0.0000 -10503.7287 1407.7600 0.0000 0.0000 1735.3818 -7341.6649 298.1000 -9077.0466 -7370.8681 301.0703 192.1168 232.8719 29922.6094 204.2754 272.4972
ENERGY: 900000 2.0822 6.2893 8.0335 0.0000 -10698.0768 1479.6186 0.0000 0.0000 1805.0009 -7397.0521 310.0590 -9202.0530 -7378.3081 302.5537 502.2123 512.8060 29703.2029 150.0751 208.4098
ENERGY: 1200000 3.7022 9.0305 8.6924 0.0000 -10497.6412 1407.3077 0.0000 0.0000 1770.4009 -7298.5075 304.1155 -9068.9084 -7365.5636 302.4800 -111.1492 -51.3329 30237.6957 -49.1293 19.5752
ENERGY: 1500000 5.5170 9.6462 5.2364 0.0000 -10636.1538 1465.4512 0.0000 0.0000 1741.7903 -7408.5126 299.2008 -9150.3029 -7362.7069 302.0470 255.7465 340.6771 29689.3556 5.6497 68.8407
TCL: Exiting due to exit command.
