Info: SIMULATION PARAMETERS:
Info: TIMESTEP               2
Info: NUMBER OF STEPS        0
Info: STEPS PER CYCLE        10
Info: PERIODIC CELL BASIS 1  30.5488 0 0
Info: PERIODIC CELL BASIS 2  0 29.955 0
Info: PERIODIC CELL BASIS 3  0 0 33.4459
Info: PERIODIC CELL CENTER   0 0 0
Info: WRAPPING WATERS AROUND PERIODIC BOUNDARIES ON OUTPUT.
Info: WRAPPING ALL CLUSTERS AROUND PERIODIC BOUNDARIES ON OUTPUT.
Info: FIRST LDB TIMESTEP     50
Info: LAST LDB TIMESTEP     -1
Info: HOM BACKGROUND SCALING 1
Info: PME BACKGROUND SCALING 1
Info: MIN ATOMS PER PATCH    40
Info: EMPTY PATCH LOAD       40 ATOMS
Info: VELOCITY FILE          mobley_1144156_equil.vel
Info: CENTER OF MASS MOVING INITIALLY? NO
Info: DIELECTRIC             1
Info: EXCLUDE                SCALED ONE-FOUR
Info: 1-4 ELECTROSTATICS SCALED BY 0.833333
Info: MODIFIED 1-4 VDW PARAMETERS WILL BE USED
Info: DCD FILENAME           mobley_1144156_prod.dcd
Info: DCD FREQUENCY          100000
Info: DCD FIRST STEP         100000
Info: DCD FILE WILL CONTAIN UNIT CELL DATA
Info: XST FILENAME           mobley_1144156_prod.xst
Info: XST FREQUENCY          100000
Info: NO VELOCITY DCD OUTPUT
Info: NO FORCE DCD OUTPUT
Info: OUTPUT FILENAME        mobley_1144156_prod
Info: BINARY OUTPUT FILES WILL BE USED
Info: RESTART FILENAME       mobley_1144156_prod.restart
Info: RESTART FREQUENCY      100000
Info: BINARY RESTART FILES WILL BE USED
Info: CUTOFF                 9
Info: PAIRLIST DISTANCE      11
Info: PAIRLIST SHRINK RATE   0.01
Info: PAIRLIST GROW RATE     0.01
Info: PAIRLIST TRIGGER       0.3
Info: PAIRLISTS PER CYCLE    2
Info: PAIRLISTS ENABLED
Info: MARGIN                 2
Info: HYDROGEN GROUP CUTOFF  2.5
Info: PATCH DIMENSION        15.5
Info: ENERGY OUTPUT STEPS    100000
Info: ENERGY EVALUATION STEPS    100000
Info: OUTPUT ENERGY PRECISION 4
Info: CROSSTERM ENERGY INCLUDED IN DIHEDRAL
Info: TIMING OUTPUT STEPS    1000000
Info: PRESSURE OUTPUT STEPS  100000
Info: ALCHEMICAL FEP ON
Info: FEP CURRENT LAMBDA VALUE     0
Info: FEP COMPARISON LAMBDA VALUE  0.05
Info: FEP INTRA-ALCHEMICAL NON-BONDED INTERACTIONS WILL BE RETAINED
Info: FEP INTRA-ALCHEMICAL BONDED INTERACTIONS WILL BE RETAINED
Info: FEP VDW SHIFTING COEFFICIENT 5
Info: FEP ELEC. ACTIVE FOR ANNIHILATED PARTICLES BETWEEN LAMBDA = 0 AND LAMBDA = 0.5
Info: FEP ELEC. ACTIVE FOR EXNIHILATED PARTICLES BETWEEN LAMBDA = 0.5 AND LAMBDA = 1
Info: FEP VDW ACTIVE FOR ANNIHILATED PARTICLES BETWEEN LAMBDA = 0 AND LAMBDA = 1
Info: FEP VDW ACTIVE FOR EXNIHILATED PARTICLES BETWEEN LAMBDA = 0 AND LAMBDA = 1
Info: FEP BOND ACTIVE FOR ANNIHILATED PARTICLES BETWEEN LAMBDA = 1 AND LAMBDA = 1
Info: FEP BOND ACTIVE FOR EXNIHILATED PARTICLES BETWEEN LAMBDA = 0 AND LAMBDA = 0
Info: LANGEVIN DYNAMICS ACTIVE
Info: LANGEVIN TEMPERATURE   300
Info: LANGEVIN USING BBK INTEGRATOR
Info: LANGEVIN DAMPING COEFFICIENT IS 1 INVERSE PS
Info: LANGEVIN DYNAMICS APPLIED TO HYDROGENS
Info: LANGEVIN PISTON PRESSURE CONTROL ACTIVE
Info:        TARGET PRESSURE IS 1.01325 BAR
Info:     OSCILLATION PERIOD IS 50 FS
Info:             DECAY TIME IS 25 FS
Info:     PISTON TEMPERATURE IS 300 K
Info:       PRESSURE CONTROL IS GROUP-BASED
Info:    INITIAL STRAIN RATE IS -0.000444713 -0.000444713 -0.000444713
Info:       CELL FLUCTUATION IS ISOTROPIC
Info: PARTICLE MESH EWALD (PME) ACTIVE
Info: PME TOLERANCE               1e-06
Info: PME EWALD COEFFICIENT       0.348832
Info: PME INTERPOLATION ORDER     4
Info: PME GRID DIMENSIONS         32 32 36
Info: PME MAXIMUM GRID SPACING    1
Info: PME CALCULATION WILL BE PERFORMED ON GPU
Info: FULL ELECTROSTATIC EVALUATION FREQUENCY      2
Info: USING VERLET I (r-RESPA) MTS SCHEME.
Info: C1 SPLITTING OF LONG RANGE ELECTROSTATICS
Info: PLACING ATOMS IN PATCHES BY HYDROGEN GROUPS
Info: RIGID BONDS TO HYDROGEN : ALL
Info:         ERROR TOLERANCE : 1e-08
Info:          MAX ITERATIONS : 100
Info: RIGID WATER USING SETTLE ALGORITHM
Info: RANDOM NUMBER SEED     1743840763
Info: USE HYDROGEN BONDS?    NO
Info: Using AMBER format force field!
Info: AMBER PARM FILE        mobley_1144156.prmtop
Info: COORDINATE PDB         mobley_1144156.pdb
Info: Exclusions will be read from PARM file!
Info: SCNB (VDW SCALING)     2
Info: USING ARITHMETIC MEAN TO COMBINE L-J SIGMA PARAMETERS
Info: BINARY COORDINATES     mobley_1144156_equil.coor
Info: SUMMARY OF PARAMETERS:
Info: 6 BONDS
Info: 7 ANGLES
Info:   7 HARMONIC
Info:   0 COSINE-BASED
Info: 6 DIHEDRAL
Info: 0 IMPROPER
Info: 0 CROSSTERM
Info: 0 VDW
Info: 21 VDW_PAIRS
Info: 0 NBTHOLE_PAIRS
Info: To read alchdata from file: mobley_1144156.pdb
Info: To read alchflag data from column: 5
Info: STRUCTURE SUMMARY:
Info: 2964 ATOMS
Info: 2963 BONDS
Info: 25 ANGLES
Info: 32 DIHEDRALS
Info: 0 IMPROPERS
Info: 0 CROSSTERMS
Info: 3012 EXCLUSIONS
Info: 2959 RIGID BONDS
Info: ALCH: 0 ATOMS TO DISAPPEAR IN FINAL STATE
Info: ALCH: 15 ATOMS TO APPEAR IN FINAL STATE
Info: 5933 DEGREES OF FREEDOM
Info: 988 HYDROGEN GROUPS
Info: 4 ATOMS IN LARGEST HYDROGEN GROUP
Info: 988 MIGRATION GROUPS
Info: 4 ATOMS IN LARGEST MIGRATION GROUP
Info: TOTAL MASS = 17783.8 amu
Info: TOTAL CHARGE = 0.000100024 e
Info: MASS DENSITY = 0.964891 g/cm^3
Info: ATOM DENSITY = 0.0968437 atoms/A^3
Info: ADDED 0 IMPLICIT EXCLUSIONS
Info: NONBONDED TABLE R-SQUARED SPACING: 0.0625
Info: NONBONDED TABLE SIZE: 705 POINTS
Info: REMOVING COM VELOCITY -0.201242 0.198912 0.00321415
Info: Use 3D box decompostion in PME FFT.
Info: Updated CUDA force table with 4096 elements.
Info: Updated CUDA LJ table with 6 x 6 elements.
Info: Found 16 unique exclusion lists needing 32 bytes
TCL: Running for 1500000 steps
ETITLE: TS BOND ANGLE DIHED IMPRP ELECT VDW BOUNDARY MISC KINETIC TOTAL TEMP POTENTIAL TOTALAVG TEMPAVG PRESSURE GPRESSURE VOLUME PRESSAVG GPRESSAVG
ENERGY: 0 0.2013 3.1349 2.8191 0.0000 -10881.7505 1484.0956 0.0000 0.0000 1746.1772 -7645.3225 296.2132 -9391.4997 -7645.3225 296.2132 -143.3518 -51.1004 30606.0209 -143.3518 -51.1004
ENERGY: 300000 0.2569 6.6478 2.3536 0.0000 -10714.2466 1408.5500 0.0000 0.0000 1727.5344 -7568.9038 293.0507 -9296.4382 -7549.9137 299.5207 -274.5442 -183.4246 30074.9871 -359.9497 -279.5855
ENERGY: 600000 0.6712 2.8380 2.3326 0.0000 -10786.2951 1457.0757 0.0000 0.0000 1778.5571 -7544.8205 301.7059 -9323.3776 -7539.1074 300.7499 -242.6559 -135.3826 30572.7858 -114.4525 -26.7422
ENERGY: 900000 0.5145 4.9925 3.1391 0.0000 -10843.5977 1474.3792 0.0000 0.0000 1759.3128 -7601.2596 298.4414 -9360.5724 -7558.2825 299.8768 185.8434 219.2015 30005.0231 19.2169 102.4388
ENERGY: 1200000 0.0725 8.2074 2.2494 0.0000 -10676.7037 1370.8598 0.0000 0.0000 1791.6568 -7503.6578 303.9281 -9295.3146 -7553.7271 299.7791 -670.3025 -655.8640 30608.3810 65.9867 143.6690
ENERGY: 1500000 0.4503 3.1805 1.7562 0.0000 -10852.8776 1460.3852 0.0000 0.0000 1758.5941 -7628.5112 298.3195 -9387.1053 -7554.5550 300.1922 -158.5485 -140.1446 30396.4391 27.0895 93.4602
TCL: Running FEP window   2: Lambda1 0.05   Lambda2 0.1    [dLambda 0.05  ]
TCL: Setting parameter firsttimestep to 0
TCL: Setting parameter alchLambda to 0.05
Info: NONBONDED TABLE R-SQUARED SPACING: 0.0625
Info: NONBONDED TABLE SIZE: 705 POINTS
TCL: Setting parameter alchLambda2 to 0.1
Info: NONBONDED TABLE R-SQUARED SPACING: 0.0625
Info: NONBONDED TABLE SIZE: 705 POINTS
TCL: Running for 1500000 steps
ETITLE: TS BOND ANGLE DIHED IMPRP ELECT VDW BOUNDARY MISC KINETIC TOTAL TEMP POTENTIAL TOTALAVG TEMPAVG PRESSURE GPRESSURE VOLUME PRESSAVG GPRESSAVG
ENERGY: 0 0.4503 3.1805 1.7562 0.0000 -10852.8761 1461.2956 0.0000 0.0000 1757.7009 -7628.4925 298.1680 -9386.1934 -7628.4925 298.1680 -216.6278 -136.5495 30396.4391 -216.6278 -136.5495
ENERGY: 300000 1.8496 4.6901 6.2313 0.0000 -10735.6676 1428.6642 0.0000 0.0000 1761.2515 -7532.9810 298.7703 -9294.2325 -7535.7145 299.6460 -278.5492 -224.6205 30442.8374 -351.2739 -294.2467
ENERGY: 600000 1.2570 4.1911 2.3543 0.0000 -10629.6121 1355.4219 0.0000 0.0000 1863.7759 -7402.6118 316.1620 -9266.3877 -7516.5905 302.5766 -521.5196 -443.4249 30399.7181 -229.9114 -169.9701
ENERGY: 900000 0.6948 6.5787 1.8865 0.0000 -10809.7408 1455.3303 0.0000 0.0000 1747.8743 -7597.3762 296.5011 -9345.2506 -7511.1320 303.4471 164.9856 183.9355 29988.3293 -86.0612 -18.9915
ENERGY: 1200000 1.0015 6.8644 4.7158 0.0000 -10720.9717 1434.2628 0.0000 0.0000 1750.3744 -7523.7528 296.9252 -9274.1272 -7510.5600 302.5049 -209.8466 -131.5760 30516.2449 -203.3972 -143.0587
ENERGY: 1500000 1.1113 6.8738 3.2103 0.0000 -10721.8928 1425.7356 0.0000 0.0000 1778.0483 -7506.9135 301.6196 -9284.9619 -7520.6407 301.0871 -196.7634 -131.5983 30122.9261 -155.8377 -95.3932
TCL: Running FEP window   3: Lambda1 0.1    Lambda2 0.15000000000000002 [dLambda 0.05000000000000002]
TCL: Setting parameter firsttimestep to 0
TCL: Setting parameter alchLambda to 0.1
Info: NONBONDED TABLE R-SQUARED SPACING: 0.0625
Info: NONBONDED TABLE SIZE: 705 POINTS
TCL: Setting parameter alchLambda2 to 0.15000000000000002
Info: NONBONDED TABLE R-SQUARED SPACING: 0.0625
Info: NONBONDED TABLE SIZE: 705 POINTS
TCL: Running for 1500000 steps
ETITLE: TS BOND ANGLE DIHED IMPRP ELECT VDW BOUNDARY MISC KINETIC TOTAL TEMP POTENTIAL TOTALAVG TEMPAVG PRESSURE GPRESSURE VOLUME PRESSAVG GPRESSAVG
ENERGY: 0 1.1113 6.8738 3.2103 0.0000 -10721.8930 1426.8337 0.0000 0.0000 1777.1475 -7506.7164 301.4668 -9283.8638 -7506.7164 301.4668 -202.1871 -129.5452 30122.9261 -202.1871 -129.5452
ENERGY: 300000 1.0026 7.6868 3.5862 0.0000 -10587.0668 1351.1847 0.0000 0.0000 1759.4619 -7464.1445 298.4667 -9223.6065 -7502.7604 299.8134 -488.9741 -380.5975 30168.6566 -552.8475 -475.5907
ENERGY: 600000 0.3719 9.2363 2.8388 0.0000 -10813.2520 1521.6678 0.0000 0.0000 1754.4773 -7524.6599 297.6211 -9279.1372 -7536.9823 299.1032 583.2582 641.5710 30419.9484 -277.7035 -205.2280
ENERGY: 900000 0.5223 6.3414 2.8743 0.0000 -10646.1075 1330.8693 0.0000 0.0000 1773.1993 -7532.3008 300.7971 -9305.5001 -7539.4220 298.1520 -940.3284 -873.4225 30481.9504 -274.0715 -199.3050
ENERGY: 1200000 0.8845 6.0877 1.9790 0.0000 -10761.1707 1403.2441 0.0000 0.0000 1806.2384 -7542.7370 306.4017 -9348.9755 -7535.8807 298.8676 -573.9625 -536.4758 30571.1923 -250.6820 -181.1391
ENERGY: 1500000 0.4865 6.2866 2.1493 0.0000 -10601.1673 1353.7209 0.0000 0.0000 1766.1351 -7472.3889 299.5987 -9238.5241 -7526.7297 298.5383 -660.0281 -630.2618 30946.6223 -237.5258 -167.2189
TCL: Running FEP window   4: Lambda1 0.15000000000000002 Lambda2 0.2    [dLambda 0.04999999999999999]
TCL: Setting parameter firsttimestep to 0
TCL: Setting parameter alchLambda to 0.15000000000000002
Info: NONBONDED TABLE R-SQUARED SPACING: 0.0625
Info: NONBONDED TABLE SIZE: 705 POINTS
TCL: Setting parameter alchLambda2 to 0.2
Info: NONBONDED TABLE R-SQUARED SPACING: 0.0625
Info: NONBONDED TABLE SIZE: 705 POINTS
TCL: Running for 1500000 steps
ETITLE: TS BOND ANGLE DIHED IMPRP ELECT VDW BOUNDARY MISC KINETIC TOTAL TEMP POTENTIAL TOTALAVG TEMPAVG PRESSURE GPRESSURE VOLUME PRESSAVG GPRESSAVG
ENERGY: 0 0.4865 6.2866 2.1493 0.0000 -10601.1668 1353.9200 0.0000 0.0000 1765.3005 -7473.0239 299.4572 -9238.3245 -7473.0239 299.4572 -700.4542 -629.0654 30946.6223 -700.4542 -629.0654
ENERGY: 300000 1.1953 9.5797 4.2756 0.0000 -10780.0352 1493.4296 0.0000 0.0000 1804.5971 -7466.9580 306.1232 -9271.5550 -7518.9319 302.3618 501.3450 584.2262 30075.2351 -106.3942 -33.2360
ENERGY: 600000 1.6079 5.7377 2.5667 0.0000 -10740.3871 1410.1973 0.0000 0.0000 1760.6403 -7559.6373 298.6666 -9320.2776 -7519.6373 300.5631 -126.3885 -42.4161 29957.1726 -225.1349 -157.2634
ENERGY: 900000 0.7123 4.3349 3.0836 0.0000 -10830.3255 1470.6151 0.0000 0.0000 1783.2584 -7568.3212 302.5034 -9351.5796 -7518.4615 301.2067 -166.0915 -70.5964 30761.5305 -316.6571 -240.3701
ENERGY: 1200000 2.5524 3.1672 2.0018 0.0000 -10772.7030 1470.1346 0.0000 0.0000 1777.6481 -7517.1990 301.5517 -9294.8470 -7504.5988 302.5320 275.8742 320.7160 30309.3879 -228.6280 -151.9853
ENERGY: 1500000 1.0659 4.7872 2.9345 0.0000 -10768.1793 1469.1542 0.0000 0.0000 1821.7513 -7468.4860 309.0332 -9290.2374 -7507.9518 302.8374 78.3069 136.4930 30598.6532 -125.6778 -51.1541
TCL: Running FEP window   5: Lambda1 0.2    Lambda2 0.25   [dLambda 0.04999999999999999]
TCL: Setting parameter firsttimestep to 0
TCL: Setting parameter alchLambda to 0.2
Info: NONBONDED TABLE R-SQUARED SPACING: 0.0625
Info: NONBONDED TABLE SIZE: 705 POINTS
TCL: Setting parameter alchLambda2 to 0.25
Info: NONBONDED TABLE R-SQUARED SPACING: 0.0625
Info: NONBONDED TABLE SIZE: 705 POINTS
TCL: Running for 1500000 steps
ETITLE: TS BOND ANGLE DIHED IMPRP ELECT VDW BOUNDARY MISC KINETIC TOTAL TEMP POTENTIAL TOTALAVG TEMPAVG PRESSURE GPRESSURE VOLUME PRESSAVG GPRESSAVG
ENERGY: 0 1.0659 4.7872 2.9345 0.0000 -10768.1786 1469.7627 0.0000 0.0000 1820.9255 -7468.7028 308.8931 -9289.6283 -7468.7028 308.8931 63.4947 145.7232 30598.6532 63.4947 145.7232
ENERGY: 300000 1.5162 4.6244 2.1282 0.0000 -10635.6635 1393.0555 0.0000 0.0000 1727.1427 -7507.1966 292.9842 -9234.3393 -7516.4944 300.7324 -448.5856 -377.9191 30620.3595 -255.3320 -191.1250
ENERGY: 600000 0.2594 10.1352 3.3930 0.0000 -10888.6163 1523.0011 0.0000 0.0000 1790.3219 -7561.5058 303.7016 -9351.8277 -7525.3876 301.1099 569.7204 585.8555 30334.1212 -49.9230 7.2611
ENERGY: 900000 1.3511 4.3668 3.0690 0.0000 -10490.8103 1311.0703 0.0000 0.0000 1775.8231 -7395.1300 301.2421 -9170.9531 -7495.1375 301.8358 -665.1420 -610.1843 30648.4379 -175.1110 -115.3042
ENERGY: 1200000 1.1537 6.9067 2.9510 0.0000 -10776.1267 1450.9290 0.0000 0.0000 1810.9069 -7503.2793 307.1936 -9314.1862 -7478.9426 303.7580 -42.2471 8.6349 30386.2343 -125.6429 -69.1339
ENERGY: 1500000 1.7410 3.7307 1.5909 0.0000 -10777.5538 1434.3209 0.0000 0.0000 1814.1918 -7521.9785 307.7508 -9336.1703 -7483.0324 303.5159 -301.7747 -195.2286 30503.3370 -208.5601 -148.9165
TCL: Running FEP window   6: Lambda1 0.25   Lambda2 0.3    [dLambda 0.04999999999999999]
TCL: Setting parameter firsttimestep to 0
TCL: Setting parameter alchLambda to 0.25
Info: NONBONDED TABLE R-SQUARED SPACING: 0.0625
Info: NONBONDED TABLE SIZE: 705 POINTS
TCL: Setting parameter alchLambda2 to 0.3
Info: NONBONDED TABLE R-SQUARED SPACING: 0.0625
Info: NONBONDED TABLE SIZE: 705 POINTS
TCL: Running for 1500000 steps
ETITLE: TS BOND ANGLE DIHED IMPRP ELECT VDW BOUNDARY MISC KINETIC TOTAL TEMP POTENTIAL TOTALAVG TEMPAVG PRESSURE GPRESSURE VOLUME PRESSAVG GPRESSAVG
ENERGY: 0 1.7410 3.7307 1.5909 0.0000 -10777.5535 1435.2755 0.0000 0.0000 1813.2702 -7521.9451 307.5945 -9335.2153 -7521.9451 307.5945 -262.9564 -191.0510 30503.3370 -262.9564 -191.0510
ENERGY: 300000 3.4116 6.6792 2.6515 0.0000 -10841.8955 1515.1507 0.0000 0.0000 1806.6715 -7507.3311 306.4751 -9314.0026 -7526.2094 300.3302 512.3209 540.8707 30194.9037 48.1965 118.0301
ENERGY: 600000 0.5608 4.7450 2.3459 0.0000 -10706.5224 1408.1137 0.0000 0.0000 1825.6805 -7465.0764 309.6997 -9290.7569 -7491.8502 301.7628 -235.9215 -190.6962 30463.2925 92.6809 153.6001
ENERGY: 900000 1.1875 6.6948 4.3049 0.0000 -10877.1610 1492.1273 0.0000 0.0000 1756.3881 -7616.4584 297.9453 -9372.8466 -7504.2176 301.4084 464.7683 541.9236 29712.4376 182.8631 246.7880
ENERGY: 1200000 0.8978 6.9066 2.1331 0.0000 -10634.3637 1418.1488 0.0000 0.0000 1779.5656 -7426.7118 301.8770 -9206.2774 -7503.2033 302.8550 19.0043 62.9910 30757.0759 204.8811 263.7499
ENERGY: 1500000 2.2116 5.7022 1.7396 0.0000 -10796.6404 1465.3540 0.0000 0.0000 1746.0854 -7575.5477 296.1976 -9321.6330 -7508.2248 302.2130 20.9833 54.7320 30390.4238 90.9001 144.7395
TCL: Running FEP window   7: Lambda1 0.3    Lambda2 0.35   [dLambda 0.04999999999999999]
TCL: Setting parameter firsttimestep to 0
TCL: Setting parameter alchLambda to 0.3
Info: NONBONDED TABLE R-SQUARED SPACING: 0.0625
Info: NONBONDED TABLE SIZE: 705 POINTS
TCL: Setting parameter alchLambda2 to 0.35
Info: NONBONDED TABLE R-SQUARED SPACING: 0.0625
Info: NONBONDED TABLE SIZE: 705 POINTS
TCL: Running for 1500000 steps
ETITLE: TS BOND ANGLE DIHED IMPRP ELECT VDW BOUNDARY MISC KINETIC TOTAL TEMP POTENTIAL TOTALAVG TEMPAVG PRESSURE GPRESSURE VOLUME PRESSAVG GPRESSAVG
ENERGY: 0 2.2116 5.7022 1.7396 0.0000 -10796.6399 1465.7893 0.0000 0.0000 1745.2435 -7575.9538 296.0548 -9321.1973 -7575.9538 296.0548 -13.5858 63.4095 30390.4238 -13.5858 63.4095
ENERGY: 300000 0.6565 10.7353 3.4901 0.0000 -10638.8893 1319.1112 0.0000 0.0000 1787.0635 -7517.8328 303.1489 -9304.8963 -7538.5687 299.8250 -1070.9194 -1050.0703 30780.5157 -444.4350 -378.4468
ENERGY: 600000 2.2829 6.8172 3.3870 0.0000 -10708.3444 1448.3059 0.0000 0.0000 1754.3318 -7493.2195 297.5965 -9247.5514 -7507.0124 300.0217 -33.6952 95.8005 30455.8197 -572.1701 -491.6886
ENERGY: 900000 1.7340 6.4719 2.0168 0.0000 -10752.5984 1389.2626 0.0000 0.0000 1777.5757 -7575.5375 301.5395 -9353.1133 -7504.2850 300.6462 -408.6745 -305.9728 29708.1363 -535.2017 -460.3098
ENERGY: 1200000 1.2177 8.8484 2.9639 0.0000 -10768.5351 1441.6408 0.0000 0.0000 1754.7709 -7559.0934 297.6710 -9313.8643 -7518.2490 300.1294 63.2588 107.5668 29999.0007 -390.9612 -319.6657
ENERGY: 1500000 2.8242 6.4327 2.8629 0.0000 -10811.2017 1452.8044 0.0000 0.0000 1771.9025 -7574.3749 300.5771 -9346.2774 -7523.0624 300.0294 -179.0778 -27.6932 30191.6550 -302.1603 -231.3949
TCL: Running FEP window   8: Lambda1 0.35   Lambda2 0.39999999999999997 [dLambda 0.04999999999999999]
TCL: Setting parameter firsttimestep to 0
TCL: Setting parameter alchLambda to 0.35
Info: NONBONDED TABLE R-SQUARED SPACING: 0.0625
Info: NONBONDED TABLE SIZE: 705 POINTS
TCL: Setting parameter alchLambda2 to 0.39999999999999997
Info: NONBONDED TABLE R-SQUARED SPACING: 0.0625
Info: NONBONDED TABLE SIZE: 705 POINTS
TCL: Running for 1500000 steps
ETITLE: TS BOND ANGLE DIHED IMPRP ELECT VDW BOUNDARY MISC KINETIC TOTAL TEMP POTENTIAL TOTALAVG TEMPAVG PRESSURE GPRESSURE VOLUME PRESSAVG GPRESSAVG
ENERGY: 0 2.8242 6.4327 2.8629 0.0000 -10811.2008 1453.1475 0.0000 0.0000 1771.0132 -7574.9203 300.4262 -9345.9335 -7574.9203 300.4262 -99.5322 -19.2324 30191.6550 -99.5322 -19.2324
ENERGY: 300000 0.6533 6.9356 3.9632 0.0000 -10584.5944 1366.0840 0.0000 0.0000 1795.3788 -7411.5794 304.5595 -9206.9582 -7485.4008 304.8975 -509.4525 -389.5212 30611.9984 -61.8291 0.7818
ENERGY: 600000 0.7730 6.0079 4.1414 0.0000 -10606.0823 1382.2821 0.0000 0.0000 1753.9589 -7458.9189 297.5332 -9212.8778 -7491.1996 303.7078 -244.0940 -188.7256 30379.2887 6.8236 85.3077
ENERGY: 900000 0.4833 10.1085 3.1621 0.0000 -10778.7885 1490.5954 0.0000 0.0000 1695.5915 -7578.8476 287.6320 -9274.4391 -7499.8982 301.7069 208.0134 248.8913 30887.3063 -51.0284 38.5170
ENERGY: 1200000 3.4068 4.0464 2.7108 0.0000 -10729.3014 1376.3599 0.0000 0.0000 1780.5856 -7562.1918 302.0500 -9342.7774 -7504.5379 301.4790 -739.6720 -674.0106 30410.4055 -156.8236 -74.2488
ENERGY: 1500000 0.7186 8.8978 2.5783 0.0000 -10844.9796 1511.6178 0.0000 0.0000 1794.9100 -7526.2572 304.4800 -9321.1672 -7511.2812 301.4183 502.8127 509.2320 30360.9858 -156.1375 -75.3508
TCL: Running FEP window   9: Lambda1 0.39999999999999997 Lambda2 0.44999999999999996 [dLambda 0.04999999999999999]
TCL: Setting parameter firsttimestep to 0
TCL: Setting parameter alchLambda to 0.39999999999999997
Info: NONBONDED TABLE R-SQUARED SPACING: 0.0625
Info: NONBONDED TABLE SIZE: 705 POINTS
TCL: Setting parameter alchLambda2 to 0.44999999999999996
Info: NONBONDED TABLE R-SQUARED SPACING: 0.0625
Info: NONBONDED TABLE SIZE: 705 POINTS
TCL: Running for 1500000 steps
ETITLE: TS BOND ANGLE DIHED IMPRP ELECT VDW BOUNDARY MISC KINETIC TOTAL TEMP POTENTIAL TOTALAVG TEMPAVG PRESSURE GPRESSURE VOLUME PRESSAVG GPRESSAVG
ENERGY: 0 0.7186 8.8978 2.5783 0.0000 -10844.9803 1511.8731 0.0000 0.0000 1794.0631 -7526.8495 304.3363 -9320.9125 -7526.8495 304.3363 434.7032 515.0521 30360.9858 434.7032 515.0521
ENERGY: 300000 1.5944 6.2190 4.1741 0.0000 -10787.4643 1492.5297 0.0000 0.0000 1757.0396 -7525.9075 298.0558 -9282.9471 -7502.8681 301.1492 279.3085 310.6903 30479.1396 -53.6000 6.0913
ENERGY: 600000 2.2354 3.3732 1.8104 0.0000 -10763.7735 1441.4264 0.0000 0.0000 1817.9993 -7496.9287 308.3967 -9314.9280 -7480.7464 303.0420 -54.0591 -53.6859 30508.8108 -47.9368 13.8779
ENERGY: 900000 0.7098 6.2650 2.4911 0.0000 -10820.5299 1420.9860 0.0000 0.0000 1738.6617 -7651.4162 294.9383 -9390.0780 -7507.1416 302.3911 -601.9589 -556.3292 30627.5623 -34.2893 32.9648
ENERGY: 1200000 0.9902 7.2938 2.1705 0.0000 -10712.4291 1409.2523 0.0000 0.0000 1735.0708 -7557.6513 294.3291 -9292.7222 -7509.0910 301.6224 -119.7217 -44.7950 30179.6694 -11.3942 62.4662
ENERGY: 1500000 0.7113 7.4583 2.7350 0.0000 -10727.4442 1412.7178 0.0000 0.0000 1767.8064 -7536.0154 299.8822 -9303.8218 -7505.8426 301.6872 -92.4969 -68.1224 30132.9282 5.2444 71.8006
TCL: Running FEP window  10: Lambda1 0.44999999999999996 Lambda2 0.49999999999999994 [dLambda 0.04999999999999999]
TCL: Setting parameter firsttimestep to 0
TCL: Setting parameter alchLambda to 0.44999999999999996
Info: NONBONDED TABLE R-SQUARED SPACING: 0.0625
Info: NONBONDED TABLE SIZE: 705 POINTS
TCL: Setting parameter alchLambda2 to 0.49999999999999994
Info: NONBONDED TABLE R-SQUARED SPACING: 0.0625
Info: NONBONDED TABLE SIZE: 705 POINTS
TCL: Running for 1500000 steps
ETITLE: TS BOND ANGLE DIHED IMPRP ELECT VDW BOUNDARY MISC KINETIC TOTAL TEMP POTENTIAL TOTALAVG TEMPAVG PRESSURE GPRESSURE VOLUME PRESSAVG GPRESSAVG
ENERGY: 0 0.7113 7.4583 2.7350 0.0000 -10727.4429 1413.6395 0.0000 0.0000 1766.9708 -7535.9280 299.7405 -9302.8988 -7535.9280 299.7405 -131.6590 -58.5917 30132.9282 -131.6590 -58.5917
ENERGY: 300000 0.9364 6.7029 2.9480 0.0000 -10907.0601 1562.5495 0.0000 0.0000 1765.9190 -7568.0043 299.5621 -9333.9233 -7542.8984 297.7977 795.6540 861.2710 30134.9147 -104.9106 -34.9529
ENERGY: 600000 1.2355 3.8487 2.3410 0.0000 -10780.0652 1456.5336 0.0000 0.0000 1804.1656 -7511.9408 306.0500 -9316.1064 -7554.8274 297.8926 157.5353 132.8634 30166.1701 -171.6998 -118.7822
ENERGY: 900000 1.7262 7.1571 2.0064 0.0000 -10606.0507 1331.2948 0.0000 0.0000 1800.0829 -7463.7833 305.3575 -9263.8662 -7532.2685 299.3864 -1097.8010 -1030.3927 31007.8245 -185.9569 -123.0724
ENERGY: 1200000 1.0629 11.7597 3.6697 0.0000 -10604.4130 1371.6558 0.0000 0.0000 1771.4693 -7444.7956 300.5036 -9216.2649 -7522.5382 299.5145 -427.8717 -434.4992 30814.7189 -170.0103 -114.6465
ENERGY: 1500000 1.2046 5.6412 3.5790 0.0000 -10697.6108 1385.7686 0.0000 0.0000 1789.1237 -7512.2937 303.4984 -9301.4174 -7524.2887 300.2460 -562.0713 -445.5163 30282.4454 -161.9996 -98.6026
TCL: Running FEP window  11: Lambda1 0.49999999999999994 Lambda2 0.5499999999999999 [dLambda 0.04999999999999999]
TCL: Setting parameter firsttimestep to 0
TCL: Setting parameter alchLambda to 0.49999999999999994
Info: NONBONDED TABLE R-SQUARED SPACING: 0.0625
Info: NONBONDED TABLE SIZE: 705 POINTS
TCL: Setting parameter alchLambda2 to 0.5499999999999999
Info: NONBONDED TABLE R-SQUARED SPACING: 0.0625
Info: NONBONDED TABLE SIZE: 705 POINTS
TCL: Running for 1500000 steps
ETITLE: TS BOND ANGLE DIHED IMPRP ELECT VDW BOUNDARY MISC KINETIC TOTAL TEMP POTENTIAL TOTALAVG TEMPAVG PRESSURE GPRESSURE VOLUME PRESSAVG GPRESSAVG
ENERGY: 0 1.2046 5.6412 3.5790 0.0000 -10697.6103 1386.5658 0.0000 0.0000 1788.2377 -7512.3820 303.3481 -9300.6198 -7512.3820 303.3481 -508.2650 -434.0169 30282.4454 -508.2650 -434.0169
ENERGY: 300000 0.5656 8.8061 1.7243 0.0000 -10764.0129 1431.8497 0.0000 0.0000 1763.5877 -7557.4796 299.1666 -9321.0673 -7532.2371 301.6751 -220.1088 -172.0276 30364.5753 -365.2177 -320.5556
ENERGY: 600000 1.8588 5.1014 4.4531 0.0000 -10720.3647 1499.4695 0.0000 0.0000 1758.9363 -7450.5456 298.3776 -9209.4819 -7515.1914 302.2513 510.5284 568.3144 30639.0666 -143.6411 -95.0694
ENERGY: 900000 1.4278 7.1734 2.3936 0.0000 -10824.5170 1468.1106 0.0000 0.0000 1824.6258 -7520.7857 309.5208 -9345.4115 -7529.8741 302.0562 318.5334 347.3056 29975.4730 -110.2318 -63.4429
ENERGY: 1200000 0.9729 7.3656 1.9152 0.0000 -10626.8761 1391.8182 0.0000 0.0000 1739.0844 -7485.7198 295.0100 -9224.8042 -7525.9735 300.7051 -177.6429 -164.3344 30577.8688 -79.4927 -39.3582
ENERGY: 1500000 2.9031 8.6847 1.9822 0.0000 -10728.8859 1449.4260 0.0000 0.0000 1782.8392 -7483.0505 302.4323 -9265.8898 -7521.7353 300.8875 22.7676 118.3964 30571.0565 -125.0984 -79.0235
TCL: Running FEP window  12: Lambda1 0.5499999999999999 Lambda2 0.6    [dLambda 0.050000000000000044]
TCL: Setting parameter firsttimestep to 0
TCL: Setting parameter alchLambda to 0.5499999999999999
Info: NONBONDED TABLE R-SQUARED SPACING: 0.0625
Info: NONBONDED TABLE SIZE: 705 POINTS
TCL: Setting parameter alchLambda2 to 0.6
Info: NONBONDED TABLE R-SQUARED SPACING: 0.0625
Info: NONBONDED TABLE SIZE: 705 POINTS
TCL: Running for 1500000 steps
ETITLE: TS BOND ANGLE DIHED IMPRP ELECT VDW BOUNDARY MISC KINETIC TOTAL TEMP POTENTIAL TOTALAVG TEMPAVG PRESSURE GPRESSURE VOLUME PRESSAVG GPRESSAVG
ENERGY: 0 2.9031 8.6847 1.9822 0.0000 -10728.7816 1448.8983 0.0000 0.0000 1781.9589 -7484.3544 302.2830 -9266.3133 -7484.3544 302.2830 40.8768 122.5139 30571.0565 40.8768 122.5139
ENERGY: 300000 1.1402 4.9821 3.0750 0.0000 -10802.0057 1513.8224 0.0000 0.0000 1739.8705 -7539.1155 295.1433 -9278.9860 -7509.3000 301.3884 559.9834 597.0218 30690.1249 -15.8462 61.3412
ENERGY: 600000 2.1570 5.4119 2.8372 0.0000 -10830.4593 1534.1591 0.0000 0.0000 1810.1994 -7475.6947 307.0736 -9285.8941 -7501.8340 301.3597 843.3424 911.9697 30311.4080 6.3660 88.2464
ENERGY: 900000 0.4879 7.4127 2.1545 0.0000 -10771.8977 1474.3815 0.0000 0.0000 1746.6390 -7540.8221 296.2915 -9287.4612 -7514.1710 300.7324 -21.8671 75.9900 30905.4073 79.1130 152.9915
ENERGY: 1200000 0.7124 7.2757 3.5785 0.0000 -10782.7487 1484.6404 0.0000 0.0000 1719.5921 -7566.9497 291.7034 -9286.5417 -7521.8072 299.3750 271.2439 351.4061 30577.1016 144.3820 214.4081
ENERGY: 1500000 0.6907 6.8961 3.3753 0.0000 -10649.1104 1391.3280 0.0000 0.0000 1782.5645 -7464.2558 302.3857 -9246.8203 -7522.6468 299.5502 -325.0713 -293.3279 30397.1572 104.3763 176.6278
TCL: Running FEP window  13: Lambda1 0.6    Lambda2 0.65   [dLambda 0.050000000000000044]
TCL: Setting parameter firsttimestep to 0
TCL: Setting parameter alchLambda to 0.6
Info: NONBONDED TABLE R-SQUARED SPACING: 0.0625
Info: NONBONDED TABLE SIZE: 705 POINTS
TCL: Setting parameter alchLambda2 to 0.65
Info: NONBONDED TABLE R-SQUARED SPACING: 0.0625
Info: NONBONDED TABLE SIZE: 705 POINTS
TCL: Running for 1500000 steps
ETITLE: TS BOND ANGLE DIHED IMPRP ELECT VDW BOUNDARY MISC KINETIC TOTAL TEMP POTENTIAL TOTALAVG TEMPAVG PRESSURE GPRESSURE VOLUME PRESSAVG GPRESSAVG
ENERGY: 0 0.6907 6.8961 3.3753 0.0000 -10649.0958 1391.2894 0.0000 0.0000 1781.6786 -7465.1655 302.2355 -9246.8442 -7465.1655 302.2355 -354.4439 -286.8301 30397.1572 -354.4439 -286.8301
ENERGY: 300000 1.3539 12.0451 3.7361 0.0000 -10769.9684 1513.2103 0.0000 0.0000 1751.9579 -7487.6651 297.1938 -9239.6229 -7509.0502 302.2604 537.8347 599.0328 30475.6832 200.3003 272.7382
ENERGY: 600000 1.6140 8.7154 4.2787 0.0000 -10681.7158 1398.7733 0.0000 0.0000 1756.6179 -7511.7165 297.9843 -9268.3343 -7525.1098 301.4858 -448.7480 -350.3762 30522.6462 19.2347 95.4677
ENERGY: 900000 1.8597 8.3258 2.2773 0.0000 -10806.1090 1492.7813 0.0000 0.0000 1756.7014 -7544.1634 297.9984 -9300.8649 -7522.2931 300.7580 499.9905 552.4796 30092.1408 50.9045 124.0062
ENERGY: 1200000 1.9644 9.4838 3.1768 0.0000 -10667.3146 1359.5753 0.0000 0.0000 1727.5070 -7565.6073 293.0460 -9293.1144 -7526.6861 300.1812 -658.3807 -601.0945 30714.6432 -86.8610 -14.7064
ENERGY: 1500000 0.2332 2.4371 2.2676 0.0000 -10792.5456 1459.7787 0.0000 0.0000 1727.4323 -7600.3968 293.0334 -9327.8290 -7528.1692 300.3841 -45.2928 -0.8662 30346.4438 -76.6710 -6.8291
TCL: Running FEP window  14: Lambda1 0.65   Lambda2 0.7000000000000001 [dLambda 0.050000000000000044]
TCL: Setting parameter firsttimestep to 0
TCL: Setting parameter alchLambda to 0.65
Info: NONBONDED TABLE R-SQUARED SPACING: 0.0625
Info: NONBONDED TABLE SIZE: 705 POINTS
TCL: Setting parameter alchLambda2 to 0.7000000000000001
Info: NONBONDED TABLE R-SQUARED SPACING: 0.0625
Info: NONBONDED TABLE SIZE: 705 POINTS
TCL: Running for 1500000 steps
ETITLE: TS BOND ANGLE DIHED IMPRP ELECT VDW BOUNDARY MISC KINETIC TOTAL TEMP POTENTIAL TOTALAVG TEMPAVG PRESSURE GPRESSURE VOLUME PRESSAVG GPRESSAVG
ENERGY: 0 0.2332 2.4371 2.2676 0.0000 -10792.9757 1459.6140 0.0000 0.0000 1726.5668 -7601.8570 292.8866 -9328.4239 -7601.8570 292.8866 -63.0742 5.2017 30346.4438 -63.0742 5.2017
ENERGY: 300000 0.3435 6.8009 3.3026 0.0000 -10780.5753 1439.5321 0.0000 0.0000 1795.4745 -7535.1218 304.5757 -9330.5963 -7515.7422 299.3741 -69.3758 61.8468 30224.0911 -167.5914 -67.2231
ENERGY: 600000 1.2672 3.6665 2.2515 0.0000 -10640.4586 1452.5511 0.0000 0.0000 1797.0057 -7383.7165 304.8355 -9180.7222 -7512.6196 299.3814 272.7556 278.9486 31037.1619 -51.5845 28.2902
ENERGY: 900000 1.4777 4.3354 2.1501 0.0000 -10689.0895 1401.3833 0.0000 0.0000 1764.7964 -7514.9467 299.3716 -9279.7431 -7507.5967 299.2643 -316.5267 -241.9388 30787.7828 -85.4179 -20.1643
ENERGY: 1200000 2.4425 5.4483 1.6990 0.0000 -10922.2005 1597.4413 0.0000 0.0000 1760.2479 -7554.9217 298.6000 -9315.1695 -7520.1617 299.2948 1360.0999 1381.8882 30020.7513 17.1234 82.3220
ENERGY: 1500000 0.8581 3.3957 2.5176 0.0000 -10663.8799 1386.5129 0.0000 0.0000 1754.9548 -7515.6408 297.7022 -9270.5956 -7518.0553 299.6480 -468.4848 -424.6422 30719.5679 -0.9523 67.4459
TCL: Running FEP window  15: Lambda1 0.7000000000000001 Lambda2 0.7500000000000001 [dLambda 0.050000000000000044]
TCL: Setting parameter firsttimestep to 0
TCL: Setting parameter alchLambda to 0.7000000000000001
Info: NONBONDED TABLE R-SQUARED SPACING: 0.0625
Info: NONBONDED TABLE SIZE: 705 POINTS
TCL: Setting parameter alchLambda2 to 0.7500000000000001
Info: NONBONDED TABLE R-SQUARED SPACING: 0.0625
Info: NONBONDED TABLE SIZE: 705 POINTS
TCL: Running for 1500000 steps
ETITLE: TS BOND ANGLE DIHED IMPRP ELECT VDW BOUNDARY MISC KINETIC TOTAL TEMP POTENTIAL TOTALAVG TEMPAVG PRESSURE GPRESSURE VOLUME PRESSAVG GPRESSAVG
ENERGY: 0 0.8581 3.3957 2.5176 0.0000 -10664.5859 1386.9644 0.0000 0.0000 1754.0951 -7516.7549 297.5563 -9270.8501 -7516.7549 297.5563 -493.1936 -415.1892 30719.5679 -493.1936 -415.1892
ENERGY: 300000 0.7395 7.6076 2.8588 0.0000 -10881.3992 1492.7149 0.0000 0.0000 1817.9081 -7559.5703 308.3813 -9377.4785 -7541.1338 301.9372 -6.1609 59.3908 30659.9757 39.8894 85.1814
ENERGY: 600000 2.0646 4.0731 4.8938 0.0000 -10655.4739 1375.9982 0.0000 0.0000 1760.7259 -7507.7183 298.6811 -9268.4442 -7547.5086 300.9660 -621.5833 -492.9393 30542.0200 -56.2895 -0.4574
ENERGY: 900000 0.4834 7.1974 3.0740 0.0000 -10644.2969 1387.0793 0.0000 0.0000 1805.8605 -7440.6022 306.3376 -9246.4627 -7541.1192 301.0986 -356.7878 -274.6919 30567.0367 -226.3280 -170.5735
ENERGY: 1200000 2.6890 3.6979 5.4404 0.0000 -10826.8746 1541.1360 0.0000 0.0000 1742.8979 -7531.0134 295.6569 -9273.9113 -7529.0455 301.3093 627.4160 676.4920 30498.7981 -83.4879 -30.7285
ENERGY: 1500000 2.6079 5.9426 4.0793 0.0000 -10823.9768 1470.7642 0.0000 0.0000 1762.4046 -7578.1781 298.9659 -9340.5827 -7529.9913 300.4075 169.3325 252.9520 30157.0194 -122.0105 -72.6521
TCL: Running FEP window  16: Lambda1 0.7500000000000001 Lambda2 0.8000000000000002 [dLambda 0.050000000000000044]
TCL: Setting parameter firsttimestep to 0
TCL: Setting parameter alchLambda to 0.7500000000000001
Info: NONBONDED TABLE R-SQUARED SPACING: 0.0625
Info: NONBONDED TABLE SIZE: 705 POINTS
TCL: Setting parameter alchLambda2 to 0.8000000000000002
Info: NONBONDED TABLE R-SQUARED SPACING: 0.0625
Info: NONBONDED TABLE SIZE: 705 POINTS
TCL: Running for 1500000 steps
ETITLE: TS BOND ANGLE DIHED IMPRP ELECT VDW BOUNDARY MISC KINETIC TOTAL TEMP POTENTIAL TOTALAVG TEMPAVG PRESSURE GPRESSURE VOLUME PRESSAVG GPRESSAVG
ENERGY: 0 2.6079 5.9426 4.0793 0.0000 -10825.0455 1472.4143 0.0000 0.0000 1761.5239 -7578.4774 298.8165 -9340.0014 -7578.4774 298.8165 188.5069 276.4254 30157.0194 188.5069 276.4254
ENERGY: 300000 1.3317 9.8697 2.0105 0.0000 -10714.7647 1388.4355 0.0000 0.0000 1765.9333 -7547.1841 299.5645 -9313.1174 -7563.6515 297.6919 -480.0931 -427.5199 30519.8903 59.8751 121.9377
ENERGY: 600000 0.9825 7.9553 1.8415 0.0000 -10724.2356 1433.8686 0.0000 0.0000 1767.6466 -7511.9411 299.8551 -9279.5877 -7548.5691 297.9718 4.4071 79.9670 30305.6935 -62.5672 24.8616
ENERGY: 900000 2.2303 10.1700 2.8971 0.0000 -10791.0813 1447.8672 0.0000 0.0000 1702.4230 -7625.4938 288.7909 -9327.9168 -7535.5560 298.5828 -216.9887 -180.4215 30419.6054 -101.7388 -16.1563
ENERGY: 1200000 0.5468 7.8943 1.8079 0.0000 -10625.0000 1340.8085 0.0000 0.0000 1739.3659 -7534.5767 295.0577 -9273.9426 -7533.8100 298.9942 -721.5962 -672.0049 30351.0844 -28.1471 50.7474
ENERGY: 1500000 3.3867 3.2899 3.9994 0.0000 -10591.6871 1399.6352 0.0000 0.0000 1757.2246 -7424.1513 298.0872 -9181.3760 -7524.4452 299.7938 -71.1283 38.3100 30576.0963 -12.9454 65.7192
TCL: Running FEP window  17: Lambda1 0.8000000000000002 Lambda2 0.8500000000000002 [dLambda 0.050000000000000044]
TCL: Setting parameter firsttimestep to 0
TCL: Setting parameter alchLambda to 0.8000000000000002
Info: NONBONDED TABLE R-SQUARED SPACING: 0.0625
Info: NONBONDED TABLE SIZE: 705 POINTS
TCL: Setting parameter alchLambda2 to 0.8500000000000002
Info: NONBONDED TABLE R-SQUARED SPACING: 0.0625
Info: NONBONDED TABLE SIZE: 705 POINTS
TCL: Running for 1500000 steps
ETITLE: TS BOND ANGLE DIHED IMPRP ELECT VDW BOUNDARY MISC KINETIC TOTAL TEMP POTENTIAL TOTALAVG TEMPAVG PRESSURE GPRESSURE VOLUME PRESSAVG GPRESSAVG
ENERGY: 0 3.3867 3.2899 3.9994 0.0000 -10591.6456 1399.4294 0.0000 0.0000 1756.4430 -7425.0972 297.9546 -9181.5402 -7425.0972 297.9546 -40.7327 42.6614 30576.0963 -40.7327 42.6614
ENERGY: 300000 1.4562 5.1051 3.4048 0.0000 -10786.3901 1452.0460 0.0000 0.0000 1778.3820 -7545.9960 301.6762 -9324.3780 -7529.1269 298.3072 -303.0898 -204.0603 30661.6403 -99.1458 -55.7387
ENERGY: 600000 0.5803 5.4417 3.2046 0.0000 -10826.8223 1494.4871 0.0000 0.0000 1788.5244 -7534.5841 303.3967 -9323.1085 -7539.3382 298.7972 402.2206 459.6169 30357.4249 107.4287 160.4723
ENERGY: 900000 2.2321 8.3993 3.1855 0.0000 -10665.1309 1409.3714 0.0000 0.0000 1707.7658 -7534.1769 289.6972 -9241.9426 -7540.7165 297.2915 -159.2331 -76.0176 30619.2813 57.9431 128.7655
ENERGY: 1200000 1.1763 4.2994 2.6266 0.0000 -10659.4279 1400.3195 0.0000 0.0000 1784.0847 -7466.9213 302.6436 -9251.0061 -7532.4914 297.5050 -158.2556 -130.9117 30451.1518 9.5898 71.1877
ENERGY: 1500000 1.7081 5.9071 2.7100 0.0000 -10728.4638 1466.8722 0.0000 0.0000 1755.6134 -7495.6530 297.8139 -9251.2664 -7515.0677 298.7676 73.9657 147.0915 30534.8109 0.6043 57.7491
TCL: Running FEP window  18: Lambda1 0.8500000000000002 Lambda2 0.9000000000000002 [dLambda 0.050000000000000044]
TCL: Setting parameter firsttimestep to 0
TCL: Setting parameter alchLambda to 0.8500000000000002
Info: NONBONDED TABLE R-SQUARED SPACING: 0.0625
Info: NONBONDED TABLE SIZE: 705 POINTS
TCL: Setting parameter alchLambda2 to 0.9000000000000002
Info: NONBONDED TABLE R-SQUARED SPACING: 0.0625
Info: NONBONDED TABLE SIZE: 705 POINTS
TCL: Running for 1500000 steps
ETITLE: TS BOND ANGLE DIHED IMPRP ELECT VDW BOUNDARY MISC KINETIC TOTAL TEMP POTENTIAL TOTALAVG TEMPAVG PRESSURE GPRESSURE VOLUME PRESSAVG GPRESSAVG
ENERGY: 0 1.7082 5.9071 2.7100 0.0000 -10729.2883 1466.7568 0.0000 0.0000 1754.7245 -7497.4817 297.6631 -9252.2062 -7497.4817 297.6631 55.2807 153.1488 30534.8109 55.2807 153.1488
ENERGY: 300000 0.2688 12.5558 3.0583 0.0000 -10680.0398 1387.0730 0.0000 0.0000 1805.7272 -7471.3567 306.3149 -9277.0839 -7523.9221 304.0736 -301.6795 -237.8823 30371.3924 239.0592 301.7097
ENERGY: 600000 0.6637 5.3845 2.9362 0.0000 -10717.2984 1382.8583 0.0000 0.0000 1809.2577 -7516.1980 306.9138 -9325.4557 -7510.4110 304.4084 -732.2316 -659.9212 30947.8955 -66.8994 1.1150
ENERGY: 900000 1.7193 6.9783 2.7040 0.0000 -10662.3373 1414.2497 0.0000 0.0000 1759.1313 -7477.5547 298.4106 -9236.6860 -7516.0859 301.6712 -233.7924 -135.3915 30688.2335 -105.9275 -47.0538
ENERGY: 1200000 0.4089 5.2179 3.5552 0.0000 -10648.0595 1411.4019 0.0000 0.0000 1792.7638 -7434.7118 304.1159 -9227.4755 -7508.0111 302.0721 -82.1430 -1.9193 30791.8703 -52.8026 8.6997
ENERGY: 1500000 0.2345 8.4718 2.6356 0.0000 -10728.4641 1434.1907 0.0000 0.0000 1791.0195 -7491.9120 303.8200 -9282.9315 -7510.9051 302.0179 95.9541 123.7222 30439.6842 13.0907 73.2515
TCL: Running FEP window  19: Lambda1 0.9000000000000002 Lambda2 0.9500000000000003 [dLambda 0.050000000000000044]
TCL: Setting parameter firsttimestep to 0
TCL: Setting parameter alchLambda to 0.9000000000000002
Info: NONBONDED TABLE R-SQUARED SPACING: 0.0625
Info: NONBONDED TABLE SIZE: 705 POINTS
TCL: Setting parameter alchLambda2 to 0.9500000000000003
Info: NONBONDED TABLE R-SQUARED SPACING: 0.0625
Info: NONBONDED TABLE SIZE: 705 POINTS
TCL: Running for 1500000 steps
ETITLE: TS BOND ANGLE DIHED IMPRP ELECT VDW BOUNDARY MISC KINETIC TOTAL TEMP POTENTIAL TOTALAVG TEMPAVG PRESSURE GPRESSURE VOLUME PRESSAVG GPRESSAVG
ENERGY: 0 0.2345 8.4718 2.6356 0.0000 -10729.1412 1435.1531 0.0000 0.0000 1790.1113 -7492.5350 303.6659 -9282.6463 -7492.5350 303.6659 85.2272 146.6038 30439.6842 85.2272 146.6038
ENERGY: 300000 2.0951 5.4336 2.6977 0.0000 -10794.2232 1475.7510 0.0000 0.0000 1733.0483 -7575.1974 293.9860 -9308.2457 -7522.6701 300.4542 -121.4156 -31.5980 31080.4689 -29.8883 59.7249
ENERGY: 600000 3.5973 8.9091 3.4539 0.0000 -10745.6715 1408.2558 0.0000 0.0000 1802.2332 -7519.2222 305.7222 -9321.4555 -7536.9481 299.4676 -271.6275 -178.1635 30441.7823 -77.7907 7.0299
ENERGY: 900000 0.3743 9.6082 5.3993 0.0000 -10836.8939 1464.7202 0.0000 0.0000 1762.5740 -7594.2178 298.9946 -9356.7918 -7542.2418 299.0314 5.6711 56.0646 30446.7585 -163.7607 -92.3252
ENERGY: 1200000 0.5573 4.1376 3.6218 0.0000 -10830.6961 1487.4388 0.0000 0.0000 1784.0721 -7550.8684 302.6415 -9334.9405 -7534.0999 298.8671 453.4001 503.0603 29816.0651 -100.8541 -30.4306
ENERGY: 1500000 0.9077 7.0575 2.8796 0.0000 -10873.1642 1505.8278 0.0000 0.0000 1735.1573 -7621.3343 294.3438 -9356.4916 -7537.2873 298.3457 238.9397 344.4618 30501.5751 -50.2396 19.7009
TCL: Running FEP window  20: Lambda1 0.9500000000000003 Lambda2 1.0    [dLambda 0.04999999999999971]
TCL: Setting parameter firsttimestep to 0
TCL: Setting parameter alchLambda to 0.9500000000000003
Info: NONBONDED TABLE R-SQUARED SPACING: 0.0625
Info: NONBONDED TABLE SIZE: 705 POINTS
TCL: Setting parameter alchLambda2 to 1.0
Info: NONBONDED TABLE R-SQUARED SPACING: 0.0625
Info: NONBONDED TABLE SIZE: 705 POINTS
TCL: Running for 1500000 steps
ETITLE: TS BOND ANGLE DIHED IMPRP ELECT VDW BOUNDARY MISC KINETIC TOTAL TEMP POTENTIAL TOTALAVG TEMPAVG PRESSURE GPRESSURE VOLUME PRESSAVG GPRESSAVG
ENERGY: 0 0.9077 7.0575 2.8796 0.0000 -10874.3126 1506.5962 0.0000 0.0000 1734.2853 -7622.5862 294.1959 -9356.8716 -7622.5862 294.1959 294.9266 362.5251 30501.5751 294.9266 362.5251
ENERGY: 300000 0.1668 5.8646 2.1664 0.0000 -10739.0776 1417.1103 0.0000 0.0000 1767.2256 -7546.5439 299.7837 -9313.7695 -7559.2295 299.4077 -479.0163 -426.4064 30751.0317 95.8039 147.1016
ENERGY: 600000 0.8260 9.0494 2.9510 0.0000 -10827.0069 1474.9974 0.0000 0.0000 1779.3044 -7559.8788 301.8327 -9339.1831 -7563.9210 299.3571 188.7840 272.0490 30490.9769 10.7929 57.9125
ENERGY: 900000 1.7617 8.2896 2.1724 0.0000 -10843.0093 1514.2109 0.0000 0.0000 1790.8921 -7525.6826 303.7984 -9316.5746 -7550.9610 299.9863 687.0791 793.4876 30185.8049 59.1479 113.6660
ENERGY: 1200000 0.2312 6.9539 2.0661 0.0000 -10660.9276 1295.5079 0.0000 0.0000 1745.4229 -7610.7455 296.0852 -9356.1685 -7556.6577 300.2492 -1204.3364 -1125.5436 30384.4328 -35.1917 15.9135
ENERGY: 1500000 1.2289 6.8244 2.2030 0.0000 -10752.1086 1460.8486 0.0000 0.0000 1697.0754 -7583.9283 287.8838 -9281.0036 -7557.3813 298.9142 177.1537 205.2766 30647.3425 -7.4648 42.2618
TCL: Exiting due to exit command.
