Info: SIMULATION PARAMETERS:
Info: TIMESTEP               2
Info: NUMBER OF STEPS        0
Info: STEPS PER CYCLE        10
Info: PERIODIC CELL BASIS 1  31.0424 0 0
Info: PERIODIC CELL BASIS 2  0 30.3774 0
Info: PERIODIC CELL BASIS 3  0 0 31.6746
Info: PERIODIC CELL CENTER   0 0 0
Info: WRAPPING WATERS AROUND PERIODIC BOUNDARIES ON OUTPUT.
Info: WRAPPING ALL CLUSTERS AROUND PERIODIC BOUNDARIES ON OUTPUT.
Info: FIRST LDB TIMESTEP     50
Info: LAST LDB TIMESTEP     -1
Info: HOM BACKGROUND SCALING 1
Info: PME BACKGROUND SCALING 1
Info: MIN ATOMS PER PATCH    40
Info: EMPTY PATCH LOAD       40 ATOMS
Info: VELOCITY FILE          mobley_4699732_equil.vel
Info: CENTER OF MASS MOVING INITIALLY? NO
Info: DIELECTRIC             1
Info: EXCLUDE                SCALED ONE-FOUR
Info: 1-4 ELECTROSTATICS SCALED BY 0.833333
Info: MODIFIED 1-4 VDW PARAMETERS WILL BE USED
Info: DCD FILENAME           mobley_4699732_prod.dcd
Info: DCD FREQUENCY          100000
Info: DCD FIRST STEP         100000
Info: DCD FILE WILL CONTAIN UNIT CELL DATA
Info: XST FILENAME           mobley_4699732_prod.xst
Info: XST FREQUENCY          100000
Info: NO VELOCITY DCD OUTPUT
Info: NO FORCE DCD OUTPUT
Info: OUTPUT FILENAME        mobley_4699732_prod
Info: BINARY OUTPUT FILES WILL BE USED
Info: RESTART FILENAME       mobley_4699732_prod.restart
Info: RESTART FREQUENCY      100000
Info: BINARY RESTART FILES WILL BE USED
Info: CUTOFF                 9
Info: PAIRLIST DISTANCE      11
Info: PAIRLIST SHRINK RATE   0.01
Info: PAIRLIST GROW RATE     0.01
Info: PAIRLIST TRIGGER       0.3
Info: PAIRLISTS PER CYCLE    2
Info: PAIRLISTS ENABLED
Info: MARGIN                 2
Info: HYDROGEN GROUP CUTOFF  2.5
Info: PATCH DIMENSION        15.5
Info: ENERGY OUTPUT STEPS    100000
Info: ENERGY EVALUATION STEPS    100000
Info: OUTPUT ENERGY PRECISION 4
Info: CROSSTERM ENERGY INCLUDED IN DIHEDRAL
Info: TIMING OUTPUT STEPS    1000000
Info: PRESSURE OUTPUT STEPS  100000
Info: ALCHEMICAL FEP ON
Info: FEP CURRENT LAMBDA VALUE     0
Info: FEP COMPARISON LAMBDA VALUE  0.05
Info: FEP INTRA-ALCHEMICAL NON-BONDED INTERACTIONS WILL BE RETAINED
Info: FEP INTRA-ALCHEMICAL BONDED INTERACTIONS WILL BE RETAINED
Info: FEP VDW SHIFTING COEFFICIENT 5
Info: FEP ELEC. ACTIVE FOR ANNIHILATED PARTICLES BETWEEN LAMBDA = 0 AND LAMBDA = 0.5
Info: FEP ELEC. ACTIVE FOR EXNIHILATED PARTICLES BETWEEN LAMBDA = 0.5 AND LAMBDA = 1
Info: FEP VDW ACTIVE FOR ANNIHILATED PARTICLES BETWEEN LAMBDA = 0 AND LAMBDA = 1
Info: FEP VDW ACTIVE FOR EXNIHILATED PARTICLES BETWEEN LAMBDA = 0 AND LAMBDA = 1
Info: FEP BOND ACTIVE FOR ANNIHILATED PARTICLES BETWEEN LAMBDA = 1 AND LAMBDA = 1
Info: FEP BOND ACTIVE FOR EXNIHILATED PARTICLES BETWEEN LAMBDA = 0 AND LAMBDA = 0
Info: LANGEVIN DYNAMICS ACTIVE
Info: LANGEVIN TEMPERATURE   300
Info: LANGEVIN USING BBK INTEGRATOR
Info: LANGEVIN DAMPING COEFFICIENT IS 1 INVERSE PS
Info: LANGEVIN DYNAMICS APPLIED TO HYDROGENS
Info: LANGEVIN PISTON PRESSURE CONTROL ACTIVE
Info:        TARGET PRESSURE IS 1.01325 BAR
Info:     OSCILLATION PERIOD IS 50 FS
Info:             DECAY TIME IS 25 FS
Info:     PISTON TEMPERATURE IS 300 K
Info:       PRESSURE CONTROL IS GROUP-BASED
Info:    INITIAL STRAIN RATE IS -0.00049837 -0.00049837 -0.00049837
Info:       CELL FLUCTUATION IS ISOTROPIC
Info: PARTICLE MESH EWALD (PME) ACTIVE
Info: PME TOLERANCE               1e-06
Info: PME EWALD COEFFICIENT       0.348832
Info: PME INTERPOLATION ORDER     4
Info: PME GRID DIMENSIONS         32 32 32
Info: PME MAXIMUM GRID SPACING    1
Info: PME CALCULATION WILL BE PERFORMED ON GPU
Info: FULL ELECTROSTATIC EVALUATION FREQUENCY      2
Info: USING VERLET I (r-RESPA) MTS SCHEME.
Info: C1 SPLITTING OF LONG RANGE ELECTROSTATICS
Info: PLACING ATOMS IN PATCHES BY HYDROGEN GROUPS
Info: RIGID BONDS TO HYDROGEN : ALL
Info:         ERROR TOLERANCE : 1e-08
Info:          MAX ITERATIONS : 100
Info: RIGID WATER USING SETTLE ALGORITHM
Info: RANDOM NUMBER SEED     1743681650
Info: USE HYDROGEN BONDS?    NO
Info: Using AMBER format force field!
Info: AMBER PARM FILE        mobley_4699732.prmtop
Info: COORDINATE PDB         mobley_4699732.pdb
Info: Exclusions will be read from PARM file!
Info: SCNB (VDW SCALING)     2
Info: USING ARITHMETIC MEAN TO COMBINE L-J SIGMA PARAMETERS
Info: BINARY COORDINATES     mobley_4699732_equil.coor
Info: SUMMARY OF PARAMETERS:
Info: 6 BONDS
Info: 7 ANGLES
Info:   7 HARMONIC
Info:   0 COSINE-BASED
Info: 5 DIHEDRAL
Info: 0 IMPROPER
Info: 0 CROSSTERM
Info: 0 VDW
Info: 21 VDW_PAIRS
Info: 0 NBTHOLE_PAIRS
Info: To read alchdata from file: mobley_4699732.pdb
Info: To read alchflag data from column: 5
Info: STRUCTURE SUMMARY:
Info: 2909 ATOMS
Info: 2908 BONDS
Info: 18 ANGLES
Info: 25 DIHEDRALS
Info: 0 IMPROPERS
Info: 0 CROSSTERMS
Info: 2944 EXCLUSIONS
Info: 2904 RIGID BONDS
Info: ALCH: 0 ATOMS TO DISAPPEAR IN FINAL STATE
Info: ALCH: 11 ATOMS TO APPEAR IN FINAL STATE
Info: 5823 DEGREES OF FREEDOM
Info: 971 HYDROGEN GROUPS
Info: 4 ATOMS IN LARGEST HYDROGEN GROUP
Info: 971 MIGRATION GROUPS
Info: 4 ATOMS IN LARGEST MIGRATION GROUP
Info: TOTAL MASS = 17516.4 amu
Info: TOTAL CHARGE = -9.99905e-05 e
Info: MASS DENSITY = 0.973837 g/cm^3
Info: ATOM DENSITY = 0.0973924 atoms/A^3
Info: ADDED 0 IMPLICIT EXCLUSIONS
Info: NONBONDED TABLE R-SQUARED SPACING: 0.0625
Info: NONBONDED TABLE SIZE: 705 POINTS
Info: REMOVING COM VELOCITY -0.0548291 -0.0598019 0.257521
Info: Use 3D box decompostion in PME FFT.
Info: Updated CUDA force table with 4096 elements.
Info: Updated CUDA LJ table with 6 x 6 elements.
Info: Found 14 unique exclusion lists needing 24 bytes
TCL: Running for 1500000 steps
ETITLE: TS BOND ANGLE DIHED IMPRP ELECT VDW BOUNDARY MISC KINETIC TOTAL TEMP POTENTIAL TOTALAVG TEMPAVG PRESSURE GPRESSURE VOLUME PRESSAVG GPRESSAVG
ENERGY: 0 0.9523 3.3423 1.9490 0.0000 -10524.7516 1475.7432 0.0000 0.0000 1742.3312 -7300.4336 301.1441 -9042.7647 -7300.4336 301.1441 628.0288 714.0278 29868.8692 628.0288 714.0278
ENERGY: 300000 0.1902 2.7373 1.9770 0.0000 -10564.2186 1463.6028 0.0000 0.0000 1686.9683 -7408.7429 291.5752 -9095.7112 -7341.5778 300.7584 369.0532 458.6076 29833.6569 319.9771 385.9775
ENERGY: 600000 0.9934 4.7269 3.0654 0.0000 -10493.3750 1356.7932 0.0000 0.0000 1717.3051 -7410.4911 296.8186 -9127.7962 -7362.7996 299.4963 -329.4161 -307.3440 29587.6805 68.3256 125.7392
ENERGY: 900000 1.0872 4.8532 3.1272 0.0000 -10575.6299 1426.0642 0.0000 0.0000 1704.7104 -7435.7876 294.6417 -9140.4980 -7371.6925 300.6280 -83.5837 -11.4184 29891.0997 -23.3605 35.8995
ENERGY: 1200000 0.2455 5.4114 3.7209 0.0000 -10459.7110 1394.2898 0.0000 0.0000 1784.3369 -7271.7064 308.4043 -9056.0433 -7374.0223 300.9744 7.9732 49.5586 29993.3069 6.9903 64.3022
ENERGY: 1500000 1.2634 6.0046 2.0284 0.0000 -10592.4304 1453.9023 0.0000 0.0000 1687.0754 -7442.1564 291.5937 -9129.2318 -7391.7562 299.4529 -32.9837 69.2338 29974.0534 -14.2501 44.5146
TCL: Running FEP window   2: Lambda1 0.05   Lambda2 0.1    [dLambda 0.05  ]
TCL: Setting parameter firsttimestep to 0
TCL: Setting parameter alchLambda to 0.05
Info: NONBONDED TABLE R-SQUARED SPACING: 0.0625
Info: NONBONDED TABLE SIZE: 705 POINTS
TCL: Setting parameter alchLambda2 to 0.1
Info: NONBONDED TABLE R-SQUARED SPACING: 0.0625
Info: NONBONDED TABLE SIZE: 705 POINTS
TCL: Running for 1500000 steps
ETITLE: TS BOND ANGLE DIHED IMPRP ELECT VDW BOUNDARY MISC KINETIC TOTAL TEMP POTENTIAL TOTALAVG TEMPAVG PRESSURE GPRESSURE VOLUME PRESSAVG GPRESSAVG
ENERGY: 0 1.2634 6.0046 2.0284 0.0000 -10592.4301 1456.6970 0.0000 0.0000 1686.2013 -7440.2355 291.4426 -9126.4368 -7440.2355 291.4426 0.0311 76.3393 29974.0534 0.0311 76.3393
ENERGY: 300000 1.6280 5.3597 1.4758 0.0000 -10687.7536 1549.9518 0.0000 0.0000 1711.7895 -7417.5488 295.8652 -9129.3383 -7403.3444 297.8649 911.0509 972.0399 29895.6253 343.5286 413.0290
ENERGY: 600000 0.1532 3.6452 4.0698 0.0000 -10533.8158 1444.2588 0.0000 0.0000 1719.3535 -7362.3353 297.1726 -9081.6888 -7389.5614 299.1339 476.0693 553.8748 29507.9237 366.8866 432.3778
ENERGY: 900000 2.3395 3.5256 2.8327 0.0000 -10584.6963 1470.7734 0.0000 0.0000 1758.4357 -7346.7895 303.9276 -9105.2252 -7388.0608 300.1423 454.1298 507.5724 29861.4090 264.0831 330.8654
ENERGY: 1200000 0.3829 2.8104 1.7353 0.0000 -10699.7670 1551.0619 0.0000 0.0000 1755.6916 -7388.0850 303.4533 -9143.7766 -7386.1188 299.7183 744.2965 878.4697 30020.0565 217.5912 282.0994
ENERGY: 1500000 1.8887 2.5639 2.6437 0.0000 -10495.0912 1385.1269 0.0000 0.0000 1755.2547 -7347.6134 303.3778 -9102.8681 -7385.6955 299.5972 -302.7470 -235.6707 29893.9032 233.7557 297.4152
TCL: Running FEP window   3: Lambda1 0.1    Lambda2 0.15000000000000002 [dLambda 0.05000000000000002]
TCL: Setting parameter firsttimestep to 0
TCL: Setting parameter alchLambda to 0.1
Info: NONBONDED TABLE R-SQUARED SPACING: 0.0625
Info: NONBONDED TABLE SIZE: 705 POINTS
TCL: Setting parameter alchLambda2 to 0.15000000000000002
Info: NONBONDED TABLE R-SQUARED SPACING: 0.0625
Info: NONBONDED TABLE SIZE: 705 POINTS
TCL: Running for 1500000 steps
ETITLE: TS BOND ANGLE DIHED IMPRP ELECT VDW BOUNDARY MISC KINETIC TOTAL TEMP POTENTIAL TOTALAVG TEMPAVG PRESSURE GPRESSURE VOLUME PRESSAVG GPRESSAVG
ENERGY: 0 1.8887 2.5639 2.6437 0.0000 -10495.0924 1388.3200 0.0000 0.0000 1754.3691 -7345.3070 303.2247 -9099.6762 -7345.3070 303.2247 -305.9143 -226.2477 29893.9032 -305.9143 -226.2477
ENERGY: 300000 2.4062 3.2815 3.3022 0.0000 -10568.4405 1405.2186 0.0000 0.0000 1678.0930 -7476.1390 290.0411 -9154.2319 -7410.0965 298.1001 -82.0332 -121.0778 29621.4274 -282.7119 -246.9546
ENERGY: 600000 2.1493 5.5743 2.9908 0.0000 -10588.7954 1440.6594 0.0000 0.0000 1723.0069 -7414.4146 297.8041 -9137.4215 -7409.5780 297.6537 0.8956 111.6734 29711.0011 52.7081 104.6693
ENERGY: 900000 0.3732 1.3913 1.5044 0.0000 -10529.2760 1355.5922 0.0000 0.0000 1707.1255 -7463.2893 295.0591 -9170.4148 -7402.7175 298.2014 -903.1342 -843.3163 30073.4272 -125.9595 -74.5123
ENERGY: 1200000 0.4845 3.1223 4.0798 0.0000 -10552.0635 1390.6447 0.0000 0.0000 1670.4227 -7483.3096 288.7154 -9153.7322 -7410.3763 297.5955 -242.6474 -233.6689 29619.7154 -95.6262 -39.8789
ENERGY: 1500000 0.2620 7.6364 1.9975 0.0000 -10618.7018 1454.9780 0.0000 0.0000 1664.0747 -7489.7533 287.6182 -9153.8279 -7416.0877 298.1346 70.8892 109.5655 29807.2870 -23.8937 32.2467
TCL: Running FEP window   4: Lambda1 0.15000000000000002 Lambda2 0.2    [dLambda 0.04999999999999999]
TCL: Setting parameter firsttimestep to 0
TCL: Setting parameter alchLambda to 0.15000000000000002
Info: NONBONDED TABLE R-SQUARED SPACING: 0.0625
Info: NONBONDED TABLE SIZE: 705 POINTS
TCL: Setting parameter alchLambda2 to 0.2
Info: NONBONDED TABLE R-SQUARED SPACING: 0.0625
Info: NONBONDED TABLE SIZE: 705 POINTS
TCL: Running for 1500000 steps
ETITLE: TS BOND ANGLE DIHED IMPRP ELECT VDW BOUNDARY MISC KINETIC TOTAL TEMP POTENTIAL TOTALAVG TEMPAVG PRESSURE GPRESSURE VOLUME PRESSAVG GPRESSAVG
ENERGY: 0 0.2620 7.6364 1.9975 0.0000 -10618.7003 1456.0517 0.0000 0.0000 1663.1922 -7489.5606 287.4657 -9152.7528 -7489.5606 287.4657 25.5712 116.2121 29807.2870 25.5712 116.2121
ENERGY: 300000 0.5137 2.2673 3.3348 0.0000 -10525.8050 1428.2807 0.0000 0.0000 1738.9533 -7352.4552 300.5602 -9091.4085 -7396.4483 298.4888 168.1554 321.8420 29609.9294 -39.3067 55.8758
ENERGY: 600000 1.5032 2.7722 2.9628 0.0000 -10478.6568 1369.9315 0.0000 0.0000 1740.1888 -7361.2983 300.7738 -9101.4871 -7394.0066 298.6356 -693.2545 -648.9362 30357.5940 -307.3784 -223.3723
ENERGY: 900000 2.6054 5.5039 2.2590 0.0000 -10578.9354 1440.0419 0.0000 0.0000 1714.0358 -7414.4894 296.2535 -9128.5253 -7402.7030 297.6438 237.4983 299.7095 29769.1173 -203.8637 -127.7103
ENERGY: 1200000 0.4233 4.0997 3.0839 0.0000 -10645.7890 1466.1798 0.0000 0.0000 1753.4615 -7418.5408 303.0678 -9172.0023 -7396.7225 298.6058 373.2380 457.0168 29437.8514 -158.6396 -79.7245
ENERGY: 1500000 1.6677 3.0088 1.3439 0.0000 -10566.2355 1434.5337 0.0000 0.0000 1771.2135 -7354.4679 306.1361 -9125.6814 -7391.0841 298.8188 185.0731 230.2076 29676.1975 -100.1823 -26.0539
TCL: Running FEP window   5: Lambda1 0.2    Lambda2 0.25   [dLambda 0.04999999999999999]
TCL: Setting parameter firsttimestep to 0
TCL: Setting parameter alchLambda to 0.2
Info: NONBONDED TABLE R-SQUARED SPACING: 0.0625
Info: NONBONDED TABLE SIZE: 705 POINTS
TCL: Setting parameter alchLambda2 to 0.25
Info: NONBONDED TABLE R-SQUARED SPACING: 0.0625
Info: NONBONDED TABLE SIZE: 705 POINTS
TCL: Running for 1500000 steps
ETITLE: TS BOND ANGLE DIHED IMPRP ELECT VDW BOUNDARY MISC KINETIC TOTAL TEMP POTENTIAL TOTALAVG TEMPAVG PRESSURE GPRESSURE VOLUME PRESSAVG GPRESSAVG
ENERGY: 0 1.6677 3.0088 1.3439 0.0000 -10566.2343 1435.0413 0.0000 0.0000 1770.3446 -7354.8280 305.9859 -9125.1725 -7354.8280 305.9859 155.8732 237.9544 29676.1975 155.8732 237.9544
ENERGY: 300000 1.6670 3.3489 2.9561 0.0000 -10307.2308 1237.2351 0.0000 0.0000 1754.1323 -7307.8915 303.1838 -9062.0238 -7329.6491 305.0021 -1520.7940 -1509.9503 30622.1794 -363.0847 -304.2245
ENERGY: 600000 0.5196 5.4814 2.9324 0.0000 -10484.6913 1335.9318 0.0000 0.0000 1740.1167 -7399.7094 300.7613 -9139.8262 -7350.0971 303.0035 -875.7917 -719.3094 29863.3506 -379.0560 -294.0002
ENERGY: 900000 1.3354 4.8622 2.3010 0.0000 -10469.5760 1413.3388 0.0000 0.0000 1788.8070 -7258.9317 309.1769 -9047.7387 -7352.1253 302.5568 -171.5276 -30.1990 30240.1078 -225.5473 -153.3176
ENERGY: 1200000 0.6186 3.9936 1.8352 0.0000 -10602.5348 1424.3970 0.0000 0.0000 1748.5577 -7423.1327 302.2203 -9171.6904 -7367.2838 301.9400 -38.8304 -11.4789 29855.6235 -228.1092 -160.9593
ENERGY: 1500000 0.7536 3.1841 2.7800 0.0000 -10521.8747 1377.8695 0.0000 0.0000 1795.0222 -7342.2653 310.2512 -9137.2875 -7377.5613 301.3177 -329.4132 -290.4805 30023.5597 -204.3751 -141.2727
TCL: Running FEP window   6: Lambda1 0.25   Lambda2 0.3    [dLambda 0.04999999999999999]
TCL: Setting parameter firsttimestep to 0
TCL: Setting parameter alchLambda to 0.25
Info: NONBONDED TABLE R-SQUARED SPACING: 0.0625
Info: NONBONDED TABLE SIZE: 705 POINTS
TCL: Setting parameter alchLambda2 to 0.3
Info: NONBONDED TABLE R-SQUARED SPACING: 0.0625
Info: NONBONDED TABLE SIZE: 705 POINTS
TCL: Running for 1500000 steps
ETITLE: TS BOND ANGLE DIHED IMPRP ELECT VDW BOUNDARY MISC KINETIC TOTAL TEMP POTENTIAL TOTALAVG TEMPAVG PRESSURE GPRESSURE VOLUME PRESSAVG GPRESSAVG
ENERGY: 0 0.7536 3.1841 2.7800 0.0000 -10521.8734 1377.8465 0.0000 0.0000 1794.1400 -7343.1692 310.0987 -9137.3091 -7343.1692 310.0987 -380.2506 -286.9423 30023.5597 -380.2506 -286.9423
ENERGY: 300000 2.2770 2.8952 3.3209 0.0000 -10693.2783 1513.9116 0.0000 0.0000 1748.6856 -7422.1879 302.2424 -9170.8735 -7382.5543 302.4263 756.8994 831.2150 29422.6083 -138.9049 -87.1291
ENERGY: 600000 0.8231 5.9139 2.2553 0.0000 -10567.3697 1455.7736 0.0000 0.0000 1682.6311 -7419.9726 290.8255 -9102.6038 -7391.5240 300.2571 113.6956 201.2803 30038.4219 -197.3307 -149.3550
ENERGY: 900000 0.1446 3.0335 2.8723 0.0000 -10586.8334 1440.3624 0.0000 0.0000 1701.1523 -7439.2683 294.0267 -9140.4206 -7395.7258 299.8615 79.4082 142.6241 29964.0529 -103.3764 -54.0926
ENERGY: 1200000 3.8869 8.7636 1.8843 0.0000 -10554.5095 1430.4909 0.0000 0.0000 1723.5415 -7385.9423 297.8964 -9109.4838 -7391.7801 299.5588 -189.5419 -111.6932 30112.5230 -74.6835 -21.4575
ENERGY: 1500000 1.6905 1.4290 2.8580 0.0000 -10620.5522 1450.6744 0.0000 0.0000 1772.8226 -7391.0778 306.4142 -9163.9004 -7383.7961 300.9755 232.9057 325.7381 29833.3153 2.2110 58.2262
TCL: Running FEP window   7: Lambda1 0.3    Lambda2 0.35   [dLambda 0.04999999999999999]
TCL: Setting parameter firsttimestep to 0
TCL: Setting parameter alchLambda to 0.3
Info: NONBONDED TABLE R-SQUARED SPACING: 0.0625
Info: NONBONDED TABLE SIZE: 705 POINTS
TCL: Setting parameter alchLambda2 to 0.35
Info: NONBONDED TABLE R-SQUARED SPACING: 0.0625
Info: NONBONDED TABLE SIZE: 705 POINTS
TCL: Running for 1500000 steps
ETITLE: TS BOND ANGLE DIHED IMPRP ELECT VDW BOUNDARY MISC KINETIC TOTAL TEMP POTENTIAL TOTALAVG TEMPAVG PRESSURE GPRESSURE VOLUME PRESSAVG GPRESSAVG
ENERGY: 0 1.6905 1.4290 2.8580 0.0000 -10620.5520 1450.3381 0.0000 0.0000 1771.9312 -7392.3052 306.2601 -9164.2364 -7392.3052 306.2601 247.0824 327.1152 29833.3153 247.0824 327.1152
ENERGY: 300000 1.2331 5.1525 2.2767 0.0000 -10434.4696 1359.6368 0.0000 0.0000 1706.3000 -7359.8704 294.9164 -9066.1704 -7384.9689 297.1639 -501.1037 -406.1855 29840.6084 26.9070 88.3359
ENERGY: 600000 0.9926 5.5225 3.7292 0.0000 -10702.8846 1554.5181 0.0000 0.0000 1747.9802 -7390.1421 302.1204 -9138.1223 -7387.8427 298.0158 1102.6069 1125.4717 29656.1627 46.2430 106.8682
ENERGY: 900000 2.0809 4.2702 2.9245 0.0000 -10466.9279 1421.6350 0.0000 0.0000 1765.0965 -7270.9209 305.0788 -9036.0173 -7371.1689 299.8758 -24.6383 117.3274 30386.4780 -10.1704 58.3740
ENERGY: 1200000 1.7909 5.2778 2.0728 0.0000 -10619.6235 1470.0227 0.0000 0.0000 1732.3502 -7408.1092 299.4190 -9140.4594 -7390.9542 298.9991 521.5717 549.4892 29790.7226 34.8256 105.0351
ENERGY: 1500000 1.0893 4.7135 3.0307 0.0000 -10559.2560 1382.3876 0.0000 0.0000 1760.4730 -7407.5618 304.2797 -9168.0348 -7386.2137 299.7766 -167.1858 -54.2804 29573.6906 63.9649 127.7795
TCL: Running FEP window   8: Lambda1 0.35   Lambda2 0.39999999999999997 [dLambda 0.04999999999999999]
TCL: Setting parameter firsttimestep to 0
TCL: Setting parameter alchLambda to 0.35
Info: NONBONDED TABLE R-SQUARED SPACING: 0.0625
Info: NONBONDED TABLE SIZE: 705 POINTS
TCL: Setting parameter alchLambda2 to 0.39999999999999997
Info: NONBONDED TABLE R-SQUARED SPACING: 0.0625
Info: NONBONDED TABLE SIZE: 705 POINTS
TCL: Running for 1500000 steps
ETITLE: TS BOND ANGLE DIHED IMPRP ELECT VDW BOUNDARY MISC KINETIC TOTAL TEMP POTENTIAL TOTALAVG TEMPAVG PRESSURE GPRESSURE VOLUME PRESSAVG GPRESSAVG
ENERGY: 0 1.0894 4.7135 3.0307 0.0000 -10559.2562 1382.9469 0.0000 0.0000 1759.5958 -7407.8799 304.1281 -9167.4757 -7407.8799 304.1281 -147.1644 -47.3062 29573.6906 -147.1644 -47.3062
ENERGY: 300000 1.1345 4.5545 1.4366 0.0000 -10605.3657 1488.0158 0.0000 0.0000 1767.5202 -7342.7042 305.4977 -9110.2243 -7390.7815 302.4492 316.0544 420.5508 30220.6405 -57.2089 12.6976
ENERGY: 600000 1.0681 6.3904 3.6749 0.0000 -10698.1629 1505.4548 0.0000 0.0000 1689.8489 -7491.7257 292.0730 -9181.5747 -7411.6105 300.1735 399.6073 471.0413 29974.4875 99.2515 179.6134
ENERGY: 900000 3.6087 4.6253 2.0848 0.0000 -10504.1519 1422.4013 0.0000 0.0000 1748.4221 -7323.0097 302.1968 -9071.4318 -7390.0535 300.3086 382.7510 446.5259 29660.9522 104.2210 181.4516
ENERGY: 1200000 0.3783 9.9725 2.1197 0.0000 -10532.0956 1434.9083 0.0000 0.0000 1685.3900 -7399.3269 291.3024 -9084.7170 -7389.8500 300.1209 351.5395 406.9403 29702.4533 36.0250 109.5124
ENERGY: 1500000 2.9334 6.2998 4.1157 0.0000 -10613.5148 1423.5748 0.0000 0.0000 1743.7306 -7432.8605 301.3859 -9176.5911 -7382.0275 300.7096 -68.2103 18.3087 29668.4370 -22.2972 53.1594
TCL: Running FEP window   9: Lambda1 0.39999999999999997 Lambda2 0.44999999999999996 [dLambda 0.04999999999999999]
TCL: Setting parameter firsttimestep to 0
TCL: Setting parameter alchLambda to 0.39999999999999997
Info: NONBONDED TABLE R-SQUARED SPACING: 0.0625
Info: NONBONDED TABLE SIZE: 705 POINTS
TCL: Setting parameter alchLambda2 to 0.44999999999999996
Info: NONBONDED TABLE R-SQUARED SPACING: 0.0625
Info: NONBONDED TABLE SIZE: 705 POINTS
TCL: Running for 1500000 steps
ETITLE: TS BOND ANGLE DIHED IMPRP ELECT VDW BOUNDARY MISC KINETIC TOTAL TEMP POTENTIAL TOTALAVG TEMPAVG PRESSURE GPRESSURE VOLUME PRESSAVG GPRESSAVG
ENERGY: 0 2.9334 6.2998 4.1157 0.0000 -10613.5147 1424.4815 0.0000 0.0000 1742.8861 -7432.7982 301.2400 -9175.6843 -7432.7982 301.2400 -39.1144 29.9841 29668.4370 -39.1144 29.9841
ENERGY: 300000 0.2227 4.0037 2.3696 0.0000 -10572.6150 1459.9901 0.0000 0.0000 1687.0676 -7418.9614 291.5923 -9106.0290 -7433.9944 298.5748 203.6010 333.1734 30097.1303 13.7400 57.1646
ENERGY: 600000 1.4069 4.4587 3.3907 0.0000 -10497.8627 1429.2984 0.0000 0.0000 1715.8894 -7343.4187 296.5739 -9059.3081 -7398.6438 299.9800 427.4338 385.8222 29709.7008 -98.6243 -67.2833
ENERGY: 900000 2.9314 7.2241 1.9675 0.0000 -10463.5679 1389.5112 0.0000 0.0000 1727.1896 -7334.7441 298.5270 -9061.9336 -7386.3896 300.0897 -6.4826 58.6669 29754.8813 24.7536 51.1690
ENERGY: 1200000 2.8156 4.5715 1.7249 0.0000 -10577.5863 1411.4323 0.0000 0.0000 1717.0138 -7440.0282 296.7682 -9157.0420 -7383.7265 301.1027 -181.4192 -80.6464 30155.2010 52.5795 90.1084
ENERGY: 1500000 0.5106 3.9318 2.7955 0.0000 -10473.4195 1325.7645 0.0000 0.0000 1753.1135 -7387.3037 303.0077 -9140.4171 -7385.3555 300.7042 -878.5369 -783.8873 30133.4726 -52.2483 -7.7816
TCL: Running FEP window  10: Lambda1 0.44999999999999996 Lambda2 0.49999999999999994 [dLambda 0.04999999999999999]
TCL: Setting parameter firsttimestep to 0
TCL: Setting parameter alchLambda to 0.44999999999999996
Info: NONBONDED TABLE R-SQUARED SPACING: 0.0625
Info: NONBONDED TABLE SIZE: 705 POINTS
TCL: Setting parameter alchLambda2 to 0.49999999999999994
Info: NONBONDED TABLE R-SQUARED SPACING: 0.0625
Info: NONBONDED TABLE SIZE: 705 POINTS
TCL: Running for 1500000 steps
ETITLE: TS BOND ANGLE DIHED IMPRP ELECT VDW BOUNDARY MISC KINETIC TOTAL TEMP POTENTIAL TOTALAVG TEMPAVG PRESSURE GPRESSURE VOLUME PRESSAVG GPRESSAVG
ENERGY: 0 0.5106 3.9318 2.7955 0.0000 -10473.4185 1326.7329 0.0000 0.0000 1752.2558 -7387.1919 302.8594 -9139.4477 -7387.1919 302.8594 -851.5774 -769.5358 30133.4726 -851.5774 -769.5358
ENERGY: 300000 1.1873 3.7345 1.7683 0.0000 -10616.8480 1453.7911 0.0000 0.0000 1780.9589 -7375.4080 307.8205 -9156.3669 -7354.5489 303.8716 311.2208 381.6069 29724.9821 -287.1647 -230.9709
ENERGY: 600000 0.5870 5.4801 1.5196 0.0000 -10451.9420 1374.3227 0.0000 0.0000 1738.0947 -7331.9380 300.4118 -9070.0326 -7367.3137 301.4201 -522.2509 -382.7678 30523.1988 -157.8089 -88.9701
ENERGY: 900000 0.8179 5.1344 3.2579 0.0000 -10631.5015 1487.4035 0.0000 0.0000 1749.4073 -7385.4806 302.3671 -9134.8879 -7372.4731 301.3406 666.3754 696.3400 29510.1235 -41.2486 13.1341
ENERGY: 1200000 0.2530 2.3402 2.2480 0.0000 -10600.5282 1407.1853 0.0000 0.0000 1737.4520 -7451.0497 300.3008 -9188.5017 -7381.2098 300.9211 -134.5639 -66.2142 29417.9935 -6.7498 48.6090
ENERGY: 1500000 0.6390 4.4268 1.8142 0.0000 -10465.7787 1296.4801 0.0000 0.0000 1772.4667 -7389.9519 306.3527 -9162.4186 -7389.0583 300.8226 -1202.5203 -1140.6608 30382.9713 -95.6019 -37.7297
TCL: Running FEP window  11: Lambda1 0.49999999999999994 Lambda2 0.5499999999999999 [dLambda 0.04999999999999999]
TCL: Setting parameter firsttimestep to 0
TCL: Setting parameter alchLambda to 0.49999999999999994
Info: NONBONDED TABLE R-SQUARED SPACING: 0.0625
Info: NONBONDED TABLE SIZE: 705 POINTS
TCL: Setting parameter alchLambda2 to 0.5499999999999999
Info: NONBONDED TABLE R-SQUARED SPACING: 0.0625
Info: NONBONDED TABLE SIZE: 705 POINTS
TCL: Running for 1500000 steps
ETITLE: TS BOND ANGLE DIHED IMPRP ELECT VDW BOUNDARY MISC KINETIC TOTAL TEMP POTENTIAL TOTALAVG TEMPAVG PRESSURE GPRESSURE VOLUME PRESSAVG GPRESSAVG
ENERGY: 0 0.6390 4.4268 1.8142 0.0000 -10465.7790 1297.2825 0.0000 0.0000 1771.6367 -7389.9798 306.2092 -9161.6165 -7389.9798 306.2092 -1218.2269 -1126.2818 30382.9713 -1218.2269 -1126.2818
ENERGY: 300000 0.8147 5.2661 2.8215 0.0000 -10592.6502 1485.4010 0.0000 0.0000 1754.8758 -7343.4712 303.3123 -9098.3470 -7400.2589 299.3371 450.8494 505.5460 29890.6051 -277.9250 -211.0386
ENERGY: 600000 0.6800 7.5088 1.4805 0.0000 -10575.6759 1417.7604 0.0000 0.0000 1736.5384 -7411.7077 300.1428 -9148.2461 -7412.9055 298.1801 -96.3014 -65.5398 30065.5051 -440.8002 -366.3851
ENERGY: 900000 1.5077 3.7474 2.8777 0.0000 -10533.6159 1453.1326 0.0000 0.0000 1725.3936 -7346.9568 298.2166 -9072.3504 -7398.1817 298.5402 626.9998 643.8471 29788.9521 -284.0706 -225.2482
ENERGY: 1200000 2.4872 5.0436 1.7125 0.0000 -10721.3390 1494.8572 0.0000 0.0000 1815.9396 -7401.2988 313.8665 -9217.2384 -7404.9817 299.6448 417.7517 440.9936 29616.8405 -154.2812 -103.4047
ENERGY: 1500000 0.5210 5.1037 1.7204 0.0000 -10546.3068 1404.0740 0.0000 0.0000 1745.6125 -7389.2752 301.7112 -9134.8877 -7399.9017 300.2753 -255.0193 -210.3636 30214.6411 -146.7202 -93.7235
TCL: Running FEP window  12: Lambda1 0.5499999999999999 Lambda2 0.6    [dLambda 0.050000000000000044]
TCL: Setting parameter firsttimestep to 0
TCL: Setting parameter alchLambda to 0.5499999999999999
Info: NONBONDED TABLE R-SQUARED SPACING: 0.0625
Info: NONBONDED TABLE SIZE: 705 POINTS
TCL: Setting parameter alchLambda2 to 0.6
Info: NONBONDED TABLE R-SQUARED SPACING: 0.0625
Info: NONBONDED TABLE SIZE: 705 POINTS
TCL: Running for 1500000 steps
ETITLE: TS BOND ANGLE DIHED IMPRP ELECT VDW BOUNDARY MISC KINETIC TOTAL TEMP POTENTIAL TOTALAVG TEMPAVG PRESSURE GPRESSURE VOLUME PRESSAVG GPRESSAVG
ENERGY: 0 0.5210 5.1037 1.7204 0.0000 -10546.6588 1403.7203 0.0000 0.0000 1744.7382 -7390.8553 301.5601 -9135.5935 -7390.8553 301.5601 -290.7390 -210.5093 30214.6411 -290.7390 -210.5093
ENERGY: 300000 2.9502 4.2068 4.4258 0.0000 -10472.8224 1403.8025 0.0000 0.0000 1756.0420 -7301.3950 303.5138 -9057.4370 -7361.3617 301.7135 -86.8855 7.1496 30163.4267 -272.2281 -202.3232
ENERGY: 600000 1.8125 4.8774 3.0054 0.0000 -10458.6754 1333.3037 0.0000 0.0000 1687.2099 -7428.4664 291.6169 -9115.6763 -7374.2764 301.2114 -725.8077 -694.4072 29900.8159 -395.3339 -334.1310
ENERGY: 900000 1.2070 1.5705 1.5848 0.0000 -10676.5532 1463.9082 0.0000 0.0000 1742.1089 -7466.1737 301.1056 -9208.2827 -7375.9532 300.3718 336.8595 409.7131 29333.3359 -257.8173 -208.7832
ENERGY: 1200000 3.5842 6.2833 3.7714 0.0000 -10565.1485 1459.4844 0.0000 0.0000 1724.8437 -7367.1815 298.1215 -9092.0252 -7371.6451 300.8025 337.4167 390.0553 29988.6339 -222.1407 -169.8853
ENERGY: 1500000 1.4561 5.0472 2.1089 0.0000 -10356.8408 1312.1538 0.0000 0.0000 1705.6174 -7330.4575 294.7985 -9036.0749 -7372.1609 300.0028 -536.1744 -545.7877 29970.5479 -266.2530 -216.7520
TCL: Running FEP window  13: Lambda1 0.6    Lambda2 0.65   [dLambda 0.050000000000000044]
TCL: Setting parameter firsttimestep to 0
TCL: Setting parameter alchLambda to 0.6
Info: NONBONDED TABLE R-SQUARED SPACING: 0.0625
Info: NONBONDED TABLE SIZE: 705 POINTS
TCL: Setting parameter alchLambda2 to 0.65
Info: NONBONDED TABLE R-SQUARED SPACING: 0.0625
Info: NONBONDED TABLE SIZE: 705 POINTS
TCL: Running for 1500000 steps
ETITLE: TS BOND ANGLE DIHED IMPRP ELECT VDW BOUNDARY MISC KINETIC TOTAL TEMP POTENTIAL TOTALAVG TEMPAVG PRESSURE GPRESSURE VOLUME PRESSAVG GPRESSAVG
ENERGY: 0 1.4561 5.0472 2.1089 0.0000 -10357.1781 1312.0606 0.0000 0.0000 1704.7837 -7331.7216 294.6544 -9036.5054 -7331.7216 294.6544 -618.2312 -542.3628 29970.5479 -618.2312 -542.3628
ENERGY: 300000 0.6173 8.3837 2.2664 0.0000 -10514.2680 1403.1657 0.0000 0.0000 1749.5612 -7350.2737 302.3937 -9099.8349 -7348.7311 300.2118 -13.2390 -0.4897 30012.9824 -328.1136 -275.6250
ENERGY: 600000 1.9920 4.6612 3.6497 0.0000 -10520.8636 1425.1407 0.0000 0.0000 1765.5026 -7319.9174 305.1490 -9085.4200 -7353.3615 300.5580 -92.2202 -39.9234 30157.2549 -171.3254 -123.5272
ENERGY: 900000 0.7315 5.6382 2.0368 0.0000 -10461.0246 1380.6540 0.0000 0.0000 1724.9425 -7347.0216 298.1386 -9071.9641 -7355.8885 300.6663 -323.3149 -204.4378 30143.9719 -202.0314 -133.3075
ENERGY: 1200000 1.6038 3.8277 2.0654 0.0000 -10642.2462 1533.0770 0.0000 0.0000 1748.1256 -7353.5466 302.1456 -9101.6722 -7354.2405 301.6373 679.5607 720.1994 30233.4601 -166.2253 -99.0941
ENERGY: 1500000 0.9438 6.5086 1.3619 0.0000 -10487.9205 1317.4377 0.0000 0.0000 1754.2890 -7407.3795 303.2109 -9161.6685 -7368.7958 301.1075 -1131.0825 -1039.5921 30245.3474 -241.5371 -170.8417
TCL: Running FEP window  14: Lambda1 0.65   Lambda2 0.7000000000000001 [dLambda 0.050000000000000044]
TCL: Setting parameter firsttimestep to 0
TCL: Setting parameter alchLambda to 0.65
Info: NONBONDED TABLE R-SQUARED SPACING: 0.0625
Info: NONBONDED TABLE SIZE: 705 POINTS
TCL: Setting parameter alchLambda2 to 0.7000000000000001
Info: NONBONDED TABLE R-SQUARED SPACING: 0.0625
Info: NONBONDED TABLE SIZE: 705 POINTS
TCL: Running for 1500000 steps
ETITLE: TS BOND ANGLE DIHED IMPRP ELECT VDW BOUNDARY MISC KINETIC TOTAL TEMP POTENTIAL TOTALAVG TEMPAVG PRESSURE GPRESSURE VOLUME PRESSAVG GPRESSAVG
ENERGY: 0 0.9438 6.5086 1.3619 0.0000 -10488.2584 1317.0266 0.0000 0.0000 1753.4136 -7409.0038 303.0595 -9162.4174 -7409.0038 303.0595 -1129.6268 -1037.9926 30245.3474 -1129.6268 -1037.9926
ENERGY: 300000 2.3476 3.7587 1.8896 0.0000 -10420.8629 1313.7880 0.0000 0.0000 1695.7638 -7403.3153 293.0954 -9099.0791 -7396.9879 301.9420 -1066.2098 -920.4077 30150.6104 -337.1605 -261.5285
ENERGY: 600000 2.4393 4.5263 2.0474 0.0000 -10444.9847 1334.0707 0.0000 0.0000 1723.5396 -7378.3615 297.8961 -9101.9011 -7386.6789 301.5155 -920.7512 -828.4983 30368.0832 -205.6203 -137.9386
ENERGY: 900000 0.6436 3.4745 2.4076 0.0000 -10385.6490 1355.9794 0.0000 0.0000 1724.7821 -7298.3619 298.1109 -9023.1440 -7381.8072 300.2638 -128.0523 -79.6757 29792.5043 -133.5532 -71.6944
ENERGY: 1200000 0.8499 2.8416 3.6307 0.0000 -10437.5802 1419.4838 0.0000 0.0000 1743.5703 -7267.2039 301.3582 -9010.7742 -7379.7870 300.0551 -50.2574 8.1422 30478.0907 -162.7106 -106.5757
ENERGY: 1500000 3.8206 7.5120 1.6197 0.0000 -10551.8287 1407.5023 0.0000 0.0000 1666.4028 -7464.9713 288.0206 -9131.3741 -7384.1870 299.1683 -179.6295 -113.4421 30281.5776 -169.7450 -115.7127
TCL: Running FEP window  15: Lambda1 0.7000000000000001 Lambda2 0.7500000000000001 [dLambda 0.050000000000000044]
TCL: Setting parameter firsttimestep to 0
TCL: Setting parameter alchLambda to 0.7000000000000001
Info: NONBONDED TABLE R-SQUARED SPACING: 0.0625
Info: NONBONDED TABLE SIZE: 705 POINTS
TCL: Setting parameter alchLambda2 to 0.7500000000000001
Info: NONBONDED TABLE R-SQUARED SPACING: 0.0625
Info: NONBONDED TABLE SIZE: 705 POINTS
TCL: Running for 1500000 steps
ETITLE: TS BOND ANGLE DIHED IMPRP ELECT VDW BOUNDARY MISC KINETIC TOTAL TEMP POTENTIAL TOTALAVG TEMPAVG PRESSURE GPRESSURE VOLUME PRESSAVG GPRESSAVG
ENERGY: 0 3.8206 7.5120 1.6197 0.0000 -10552.0487 1407.2541 0.0000 0.0000 1665.5282 -7466.3140 287.8695 -9131.8422 -7466.3140 287.8695 -206.2416 -112.7148 30281.5776 -206.2416 -112.7148
ENERGY: 300000 1.0331 7.6477 3.8359 0.0000 -10728.4587 1454.6055 0.0000 0.0000 1736.8134 -7524.5231 300.1904 -9261.3365 -7430.2339 297.1931 -126.9397 -31.5648 29846.4398 -221.7349 -156.9831
ENERGY: 600000 0.5764 4.2082 3.0853 0.0000 -10549.0497 1489.1794 0.0000 0.0000 1706.9653 -7345.0351 295.0314 -9052.0004 -7405.3422 299.3929 741.4301 782.5433 30056.0837 -39.4686 29.1349
ENERGY: 900000 1.1453 5.9475 3.3471 0.0000 -10567.2314 1449.6403 0.0000 0.0000 1712.3951 -7394.7560 295.9699 -9107.1511 -7397.9201 299.7204 36.0118 24.2111 30197.5796 -154.7646 -87.5077
ENERGY: 1200000 0.6976 6.6037 2.2036 0.0000 -10527.4757 1391.3969 0.0000 0.0000 1715.9100 -7410.6639 296.5774 -9126.5739 -7393.2586 299.8978 -344.5461 -277.4541 30247.5206 -32.2823 19.0817
ENERGY: 1500000 2.2951 6.0838 1.8117 0.0000 -10611.4424 1477.9186 0.0000 0.0000 1761.1911 -7362.1421 304.4038 -9123.3332 -7390.1995 300.7044 502.5241 598.8764 30063.9846 82.3431 136.3517
TCL: Running FEP window  16: Lambda1 0.7500000000000001 Lambda2 0.8000000000000002 [dLambda 0.050000000000000044]
TCL: Setting parameter firsttimestep to 0
TCL: Setting parameter alchLambda to 0.7500000000000001
Info: NONBONDED TABLE R-SQUARED SPACING: 0.0625
Info: NONBONDED TABLE SIZE: 705 POINTS
TCL: Setting parameter alchLambda2 to 0.8000000000000002
Info: NONBONDED TABLE R-SQUARED SPACING: 0.0625
Info: NONBONDED TABLE SIZE: 705 POINTS
TCL: Running for 1500000 steps
ETITLE: TS BOND ANGLE DIHED IMPRP ELECT VDW BOUNDARY MISC KINETIC TOTAL TEMP POTENTIAL TOTALAVG TEMPAVG PRESSURE GPRESSURE VOLUME PRESSAVG GPRESSAVG
ENERGY: 0 2.2951 6.0838 1.8117 0.0000 -10611.5353 1477.7545 0.0000 0.0000 1760.3085 -7363.2818 304.2513 -9123.5902 -7363.2818 304.2513 512.8395 605.4436 30063.9846 512.8395 605.4436
ENERGY: 300000 0.1839 9.1597 3.2053 0.0000 -10540.9277 1372.0405 0.0000 0.0000 1732.6037 -7423.7347 299.4628 -9156.3384 -7401.5858 298.4433 -361.9361 -273.8151 29898.1172 64.3205 134.5084
ENERGY: 600000 1.7801 2.4900 1.6442 0.0000 -10670.5747 1526.6283 0.0000 0.0000 1700.8058 -7437.2262 293.9668 -9138.0321 -7403.6362 298.5909 722.1097 756.1043 30156.4163 295.1163 334.2145
ENERGY: 900000 1.8926 4.7861 1.7579 0.0000 -10516.6595 1374.4532 0.0000 0.0000 1765.8682 -7367.9015 305.2122 -9133.7697 -7393.0440 300.2096 -135.7503 -105.1972 29863.4427 263.0322 309.5806
ENERGY: 1200000 0.2164 2.4043 3.2815 0.0000 -10601.8413 1481.5594 0.0000 0.0000 1732.7598 -7381.6198 299.4897 -9114.3796 -7403.6558 299.7599 419.3023 505.8180 29989.5171 252.1413 304.7736
ENERGY: 1500000 0.9027 6.2263 1.4160 0.0000 -10655.3497 1480.3439 0.0000 0.0000 1780.4512 -7386.0096 307.7327 -9166.4608 -7399.5611 299.4220 219.2017 325.7729 29947.3729 229.1977 291.9736
TCL: Running FEP window  17: Lambda1 0.8000000000000002 Lambda2 0.8500000000000002 [dLambda 0.050000000000000044]
TCL: Setting parameter firsttimestep to 0
TCL: Setting parameter alchLambda to 0.8000000000000002
Info: NONBONDED TABLE R-SQUARED SPACING: 0.0625
Info: NONBONDED TABLE SIZE: 705 POINTS
TCL: Setting parameter alchLambda2 to 0.8500000000000002
Info: NONBONDED TABLE R-SQUARED SPACING: 0.0625
Info: NONBONDED TABLE SIZE: 705 POINTS
TCL: Running for 1500000 steps
ETITLE: TS BOND ANGLE DIHED IMPRP ELECT VDW BOUNDARY MISC KINETIC TOTAL TEMP POTENTIAL TOTALAVG TEMPAVG PRESSURE GPRESSURE VOLUME PRESSAVG GPRESSAVG
ENERGY: 0 0.9027 6.2263 1.4160 0.0000 -10655.5243 1479.8156 0.0000 0.0000 1779.5943 -7387.5695 307.5846 -9167.1638 -7387.5695 307.5846 239.1895 325.9801 29947.3729 239.1895 325.9801
ENERGY: 300000 1.1133 7.8633 4.0663 0.0000 -10524.4366 1369.0958 0.0000 0.0000 1758.8263 -7383.4715 303.9951 -9142.2979 -7427.9108 299.2538 -489.6255 -378.0868 30227.7223 -164.4025 -90.5491
ENERGY: 600000 1.2712 7.5894 2.2031 0.0000 -10612.6790 1443.1024 0.0000 0.0000 1691.8799 -7466.6329 292.4241 -9158.5128 -7427.5711 297.4253 19.5949 87.4774 29668.2108 -227.8577 -151.5839
ENERGY: 900000 2.4450 8.2436 3.0855 0.0000 -10395.5717 1406.6806 0.0000 0.0000 1738.8457 -7236.2712 300.5416 -8975.1170 -7396.0703 298.8510 39.0393 129.6173 30504.6871 -183.1487 -105.6023
ENERGY: 1200000 0.8926 4.6599 3.3187 0.0000 -10614.3693 1486.3641 0.0000 0.0000 1736.3112 -7382.8227 300.1036 -9119.1339 -7393.6643 299.3772 442.3956 538.0418 29926.6969 -176.7098 -101.3995
ENERGY: 1500000 2.3990 5.6133 3.5267 0.0000 -10588.0734 1352.8660 0.0000 0.0000 1736.2417 -7487.4267 300.0916 -9223.6683 -7402.3608 299.0565 -635.4166 -548.7050 29683.3460 -300.8559 -224.9232
TCL: Running FEP window  18: Lambda1 0.8500000000000002 Lambda2 0.9000000000000002 [dLambda 0.050000000000000044]
TCL: Setting parameter firsttimestep to 0
TCL: Setting parameter alchLambda to 0.8500000000000002
Info: NONBONDED TABLE R-SQUARED SPACING: 0.0625
Info: NONBONDED TABLE SIZE: 705 POINTS
TCL: Setting parameter alchLambda2 to 0.9000000000000002
Info: NONBONDED TABLE R-SQUARED SPACING: 0.0625
Info: NONBONDED TABLE SIZE: 705 POINTS
TCL: Running for 1500000 steps
ETITLE: TS BOND ANGLE DIHED IMPRP ELECT VDW BOUNDARY MISC KINETIC TOTAL TEMP POTENTIAL TOTALAVG TEMPAVG PRESSURE GPRESSURE VOLUME PRESSAVG GPRESSAVG
ENERGY: 0 2.3990 5.6133 3.5267 0.0000 -10588.2052 1353.1686 0.0000 0.0000 1735.3629 -7488.1347 299.9397 -9223.4976 -7488.1347 299.9397 -623.3511 -535.8183 29683.3460 -623.3511 -535.8183
ENERGY: 300000 3.7340 4.3504 3.0543 0.0000 -10455.8115 1324.0597 0.0000 0.0000 1737.9533 -7382.6597 300.3874 -9120.6130 -7425.5874 295.9292 -859.5552 -824.4484 30285.4617 -329.4614 -253.2881
ENERGY: 600000 0.0793 5.6182 3.0345 0.0000 -10588.0860 1396.2972 0.0000 0.0000 1759.2598 -7423.7970 304.0700 -9183.0568 -7419.1316 299.5370 -266.6124 -239.9789 30191.0891 -270.1581 -208.4933
ENERGY: 900000 0.3522 5.3890 1.5324 0.0000 -10646.8211 1488.1263 0.0000 0.0000 1711.9006 -7439.5205 295.8845 -9151.4211 -7417.3802 298.5833 547.3200 576.8224 29894.2938 -185.8588 -139.2438
ENERGY: 1200000 0.9333 5.1082 2.6043 0.0000 -10608.4333 1430.7817 0.0000 0.0000 1735.0148 -7433.9908 299.8795 -9169.0057 -7413.6177 298.9448 84.7864 158.5506 29670.2543 -173.3162 -123.9006
ENERGY: 1500000 1.5588 5.3336 1.4936 0.0000 -10548.2802 1424.5307 0.0000 0.0000 1774.3601 -7341.0034 306.6799 -9115.3635 -7407.7724 299.3356 315.4268 341.8676 29608.0672 -180.9473 -131.2433
TCL: Running FEP window  19: Lambda1 0.9000000000000002 Lambda2 0.9500000000000003 [dLambda 0.050000000000000044]
TCL: Setting parameter firsttimestep to 0
TCL: Setting parameter alchLambda to 0.9000000000000002
Info: NONBONDED TABLE R-SQUARED SPACING: 0.0625
Info: NONBONDED TABLE SIZE: 705 POINTS
TCL: Setting parameter alchLambda2 to 0.9500000000000003
Info: NONBONDED TABLE R-SQUARED SPACING: 0.0625
Info: NONBONDED TABLE SIZE: 705 POINTS
TCL: Running for 1500000 steps
ETITLE: TS BOND ANGLE DIHED IMPRP ELECT VDW BOUNDARY MISC KINETIC TOTAL TEMP POTENTIAL TOTALAVG TEMPAVG PRESSURE GPRESSURE VOLUME PRESSAVG GPRESSAVG
ENERGY: 0 1.5588 5.3336 1.4936 0.0000 -10549.0233 1424.2077 0.0000 0.0000 1773.4967 -7342.9329 306.5307 -9116.4296 -7342.9329 306.5307 282.7404 347.7308 29608.0672 282.7404 347.7308
ENERGY: 300000 1.6581 6.4154 2.7140 0.0000 -10408.7432 1322.0195 0.0000 0.0000 1750.1394 -7325.7969 302.4936 -9075.9363 -7350.4712 304.5277 -792.1882 -711.8358 30749.4317 -213.4739 -147.8151
ENERGY: 600000 0.9116 11.3661 1.7161 0.0000 -10634.2228 1453.9471 0.0000 0.0000 1818.3479 -7347.9340 314.2828 -9166.2819 -7372.1892 304.1034 437.0499 498.9746 29491.0444 -138.5745 -68.9737
ENERGY: 900000 1.6049 4.9507 3.1407 0.0000 -10592.5347 1434.7967 0.0000 0.0000 1737.5652 -7410.4766 300.3203 -9148.0417 -7378.8113 303.3498 139.5330 185.2113 29810.7600 -66.1264 -3.7400
ENERGY: 1200000 1.1756 6.3955 2.5832 0.0000 -10439.6657 1311.7332 0.0000 0.0000 1727.6401 -7390.1381 298.6049 -9117.7782 -7387.5545 301.8876 -877.0957 -842.0167 30244.2331 -27.9302 32.0473
ENERGY: 1500000 0.8517 3.1379 1.9327 0.0000 -10632.4518 1425.6699 0.0000 0.0000 1734.5975 -7466.2622 299.8074 -9200.8597 -7388.2143 301.9005 -112.9782 -76.4374 29958.5069 -27.1625 28.4730
TCL: Running FEP window  20: Lambda1 0.9500000000000003 Lambda2 1.0    [dLambda 0.04999999999999971]
TCL: Setting parameter firsttimestep to 0
TCL: Setting parameter alchLambda to 0.9500000000000003
Info: NONBONDED TABLE R-SQUARED SPACING: 0.0625
Info: NONBONDED TABLE SIZE: 705 POINTS
TCL: Setting parameter alchLambda2 to 1.0
Info: NONBONDED TABLE R-SQUARED SPACING: 0.0625
Info: NONBONDED TABLE SIZE: 705 POINTS
TCL: Running for 1500000 steps
ETITLE: TS BOND ANGLE DIHED IMPRP ELECT VDW BOUNDARY MISC KINETIC TOTAL TEMP POTENTIAL TOTALAVG TEMPAVG PRESSURE GPRESSURE VOLUME PRESSAVG GPRESSAVG
ENERGY: 0 0.8517 3.1379 1.9327 0.0000 -10632.7105 1425.2895 0.0000 0.0000 1733.7308 -7467.7680 299.6576 -9201.4988 -7467.7680 299.6576 -153.8309 -72.3309 29958.5069 -153.8309 -72.3309
ENERGY: 300000 0.6539 2.7204 1.7273 0.0000 -10633.3358 1441.4603 0.0000 0.0000 1792.2129 -7394.5609 309.7656 -9186.7738 -7378.0961 306.1361 152.6342 251.6688 29637.1837 -72.1020 -2.6837
ENERGY: 600000 1.9906 6.9913 3.5456 0.0000 -10559.8296 1385.4769 0.0000 0.0000 1773.2270 -7388.5981 306.4841 -9161.8251 -7370.6785 304.1648 -376.7628 -318.9537 29950.8957 63.9074 118.9504
ENERGY: 900000 0.8913 3.9176 1.8015 0.0000 -10495.4329 1382.2526 0.0000 0.0000 1703.8074 -7402.7626 294.4856 -9106.5700 -7381.7727 301.3865 -257.8290 -235.1247 29979.3779 -52.4736 -9.3156
ENERGY: 1200000 2.6879 2.0095 1.6518 0.0000 -10486.4723 1312.7704 0.0000 0.0000 1733.8723 -7433.4806 299.6820 -9167.3529 -7393.0878 300.8379 -896.3516 -801.1619 29973.5630 -134.3358 -88.6700
ENERGY: 1500000 0.9413 2.8396 2.3769 0.0000 -10594.7320 1400.8608 0.0000 0.0000 1751.1577 -7436.5558 302.6696 -9187.7134 -7395.7078 300.1664 -15.5441 -9.8607 29652.0952 -144.0134 -98.5489
TCL: Exiting due to exit command.
