Info: SIMULATION PARAMETERS:
Info: TIMESTEP               2
Info: NUMBER OF STEPS        0
Info: STEPS PER CYCLE        10
Info: PERIODIC CELL BASIS 1  31.516 0 0
Info: PERIODIC CELL BASIS 2  0 29.3286 0
Info: PERIODIC CELL BASIS 3  0 0 32.0411
Info: PERIODIC CELL CENTER   0 0 0
Info: WRAPPING WATERS AROUND PERIODIC BOUNDARIES ON OUTPUT.
Info: WRAPPING ALL CLUSTERS AROUND PERIODIC BOUNDARIES ON OUTPUT.
Info: FIRST LDB TIMESTEP     50
Info: LAST LDB TIMESTEP     -1
Info: HOM BACKGROUND SCALING 1
Info: PME BACKGROUND SCALING 1
Info: MIN ATOMS PER PATCH    40
Info: EMPTY PATCH LOAD       40 ATOMS
Info: VELOCITY FILE          mobley_7298388_equil.vel
Info: CENTER OF MASS MOVING INITIALLY? NO
Info: DIELECTRIC             1
Info: EXCLUDE                SCALED ONE-FOUR
Info: 1-4 ELECTROSTATICS SCALED BY 0.833333
Info: MODIFIED 1-4 VDW PARAMETERS WILL BE USED
Info: DCD FILENAME           mobley_7298388_prod.dcd
Info: DCD FREQUENCY          100000
Info: DCD FIRST STEP         100000
Info: DCD FILE WILL CONTAIN UNIT CELL DATA
Info: XST FILENAME           mobley_7298388_prod.xst
Info: XST FREQUENCY          100000
Info: NO VELOCITY DCD OUTPUT
Info: NO FORCE DCD OUTPUT
Info: OUTPUT FILENAME        mobley_7298388_prod
Info: BINARY OUTPUT FILES WILL BE USED
Info: RESTART FILENAME       mobley_7298388_prod.restart
Info: RESTART FREQUENCY      100000
Info: BINARY RESTART FILES WILL BE USED
Info: CUTOFF                 9
Info: PAIRLIST DISTANCE      11
Info: PAIRLIST SHRINK RATE   0.01
Info: PAIRLIST GROW RATE     0.01
Info: PAIRLIST TRIGGER       0.3
Info: PAIRLISTS PER CYCLE    2
Info: PAIRLISTS ENABLED
Info: MARGIN                 2
Info: HYDROGEN GROUP CUTOFF  2.5
Info: PATCH DIMENSION        15.5
Info: ENERGY OUTPUT STEPS    100000
Info: ENERGY EVALUATION STEPS    100000
Info: OUTPUT ENERGY PRECISION 4
Info: CROSSTERM ENERGY INCLUDED IN DIHEDRAL
Info: TIMING OUTPUT STEPS    1000000
Info: PRESSURE OUTPUT STEPS  100000
Info: ALCHEMICAL FEP ON
Info: FEP CURRENT LAMBDA VALUE     1
Info: FEP COMPARISON LAMBDA VALUE  0.95
Info: FEP INTRA-ALCHEMICAL NON-BONDED INTERACTIONS WILL BE RETAINED
Info: FEP INTRA-ALCHEMICAL BONDED INTERACTIONS WILL BE RETAINED
Info: FEP VDW SHIFTING COEFFICIENT 5
Info: FEP ELEC. ACTIVE FOR ANNIHILATED PARTICLES BETWEEN LAMBDA = 0 AND LAMBDA = 0.5
Info: FEP ELEC. ACTIVE FOR EXNIHILATED PARTICLES BETWEEN LAMBDA = 0.5 AND LAMBDA = 1
Info: FEP VDW ACTIVE FOR ANNIHILATED PARTICLES BETWEEN LAMBDA = 0 AND LAMBDA = 1
Info: FEP VDW ACTIVE FOR EXNIHILATED PARTICLES BETWEEN LAMBDA = 0 AND LAMBDA = 1
Info: FEP BOND ACTIVE FOR ANNIHILATED PARTICLES BETWEEN LAMBDA = 1 AND LAMBDA = 1
Info: FEP BOND ACTIVE FOR EXNIHILATED PARTICLES BETWEEN LAMBDA = 0 AND LAMBDA = 0
Info: LANGEVIN DYNAMICS ACTIVE
Info: LANGEVIN TEMPERATURE   300
Info: LANGEVIN USING BBK INTEGRATOR
Info: LANGEVIN DAMPING COEFFICIENT IS 1 INVERSE PS
Info: LANGEVIN DYNAMICS APPLIED TO HYDROGENS
Info: LANGEVIN PISTON PRESSURE CONTROL ACTIVE
Info:        TARGET PRESSURE IS 1.01325 BAR
Info:     OSCILLATION PERIOD IS 50 FS
Info:             DECAY TIME IS 25 FS
Info:     PISTON TEMPERATURE IS 300 K
Info:       PRESSURE CONTROL IS GROUP-BASED
Info:    INITIAL STRAIN RATE IS -0.000561817 -0.000561817 -0.000561817
Info:       CELL FLUCTUATION IS ISOTROPIC
Info: PARTICLE MESH EWALD (PME) ACTIVE
Info: PME TOLERANCE               1e-06
Info: PME EWALD COEFFICIENT       0.348832
Info: PME INTERPOLATION ORDER     4
Info: PME GRID DIMENSIONS         32 32 36
Info: PME MAXIMUM GRID SPACING    1
Info: PME CALCULATION WILL BE PERFORMED ON GPU
Info: FULL ELECTROSTATIC EVALUATION FREQUENCY      2
Info: USING VERLET I (r-RESPA) MTS SCHEME.
Info: C1 SPLITTING OF LONG RANGE ELECTROSTATICS
Info: PLACING ATOMS IN PATCHES BY HYDROGEN GROUPS
Info: RIGID BONDS TO HYDROGEN : ALL
Info:         ERROR TOLERANCE : 1e-08
Info:          MAX ITERATIONS : 100
Info: RIGID WATER USING SETTLE ALGORITHM
Info: RANDOM NUMBER SEED     1743775413
Info: USE HYDROGEN BONDS?    NO
Info: Using AMBER format force field!
Info: AMBER PARM FILE        mobley_7298388.prmtop
Info: COORDINATE PDB         mobley_7298388.pdb
Info: Exclusions will be read from PARM file!
Info: SCNB (VDW SCALING)     2
Info: USING ARITHMETIC MEAN TO COMBINE L-J SIGMA PARAMETERS
Info: BINARY COORDINATES     mobley_7298388_equil.coor
Info: SUMMARY OF PARAMETERS:
Info: 8 BONDS
Info: 8 ANGLES
Info:   8 HARMONIC
Info:   0 COSINE-BASED
Info: 4 DIHEDRAL
Info: 0 IMPROPER
Info: 0 CROSSTERM
Info: 0 VDW
Info: 36 VDW_PAIRS
Info: 0 NBTHOLE_PAIRS
Info: To read alchdata from file: mobley_7298388.pdb
Info: To read alchflag data from column: 5
Info: STRUCTURE SUMMARY:
Info: 2927 ATOMS
Info: 2927 BONDS
Info: 27 ANGLES
Info: 40 DIHEDRALS
Info: 0 IMPROPERS
Info: 0 CROSSTERMS
Info: 2985 EXCLUSIONS
Info: 2917 RIGID BONDS
Info: ALCH: 0 ATOMS TO DISAPPEAR IN FINAL STATE
Info: ALCH: 17 ATOMS TO APPEAR IN FINAL STATE
Info: 5864 DEGREES OF FREEDOM
Info: 980 HYDROGEN GROUPS
Info: 4 ATOMS IN LARGEST HYDROGEN GROUP
Info: 980 MIGRATION GROUPS
Info: 4 ATOMS IN LARGEST MIGRATION GROUP
Info: TOTAL MASS = 17612.7 amu
Info: TOTAL CHARGE = 7.45058e-09 e
Info: MASS DENSITY = 0.98754 g/cm^3
Info: ATOM DENSITY = 0.0988311 atoms/A^3
Info: ADDED 0 IMPLICIT EXCLUSIONS
Info: NONBONDED TABLE R-SQUARED SPACING: 0.0625
Info: NONBONDED TABLE SIZE: 705 POINTS
Info: REMOVING COM VELOCITY 0.12626 -0.273382 -0.0444888
Info: Use 3D box decompostion in PME FFT.
Info: Updated CUDA force table with 4096 elements.
Info: Updated CUDA LJ table with 8 x 8 elements.
Info: Found 18 unique exclusion lists needing 44 bytes
TCL: Running for 1500000 steps
ETITLE: TS BOND ANGLE DIHED IMPRP ELECT VDW BOUNDARY MISC KINETIC TOTAL TEMP POTENTIAL TOTALAVG TEMPAVG PRESSURE GPRESSURE VOLUME PRESSAVG GPRESSAVG
ENERGY: 0 3.1058 5.8918 2.3338 0.0000 -10623.2282 1428.5250 0.0000 0.0000 1738.0057 -7445.3661 298.2961 -9183.3718 -7445.3661 298.2961 292.9059 358.1576 29616.1983 292.9059 358.1576
ENERGY: 300000 2.2355 2.3885 2.7761 0.0000 -10549.0234 1363.4014 0.0000 0.0000 1678.7228 -7499.4991 288.1213 -9178.2219 -7441.0909 296.2900 -524.0310 -490.9531 30177.6450 102.1860 161.3543
ENERGY: 600000 1.2552 3.7486 5.1686 0.0000 -10796.5368 1593.9623 0.0000 0.0000 1748.9445 -7443.4576 300.1736 -9192.4020 -7446.5765 297.8094 1201.1202 1278.0725 29952.7405 62.7099 116.7853
ENERGY: 900000 2.4821 4.5847 4.6579 0.0000 -10593.6444 1454.5195 0.0000 0.0000 1736.7071 -7390.6931 298.0733 -9127.4002 -7441.8740 298.0145 417.8770 436.6680 30275.8331 97.2335 148.5401
ENERGY: 1200000 2.3384 4.1630 3.9185 0.0000 -10615.4236 1470.7819 0.0000 0.0000 1718.9959 -7415.2258 295.0335 -9134.2218 -7437.5749 297.4847 671.7591 809.5300 29978.0624 60.3950 110.8564
ENERGY: 1500000 3.0086 8.1454 5.4760 0.0000 -10597.3310 1444.6585 0.0000 0.0000 1769.7690 -7366.2735 303.7477 -9136.0425 -7423.9988 298.4645 434.8043 481.1575 29864.8685 127.8482 172.6488
TCL: Running FEP window   2: Lambda1 0.95   Lambda2 0.8999999999999999 [dLambda -0.050000000000000044]
TCL: Setting parameter firsttimestep to 0
TCL: Setting parameter alchLambda to 0.95
Info: NONBONDED TABLE R-SQUARED SPACING: 0.0625
Info: NONBONDED TABLE SIZE: 705 POINTS
TCL: Setting parameter alchLambda2 to 0.8999999999999999
Info: NONBONDED TABLE R-SQUARED SPACING: 0.0625
Info: NONBONDED TABLE SIZE: 705 POINTS
TCL: Running for 1500000 steps
ETITLE: TS BOND ANGLE DIHED IMPRP ELECT VDW BOUNDARY MISC KINETIC TOTAL TEMP POTENTIAL TOTALAVG TEMPAVG PRESSURE GPRESSURE VOLUME PRESSAVG GPRESSAVG
ENERGY: 0 3.0086 8.1454 5.4760 0.0000 -10596.8320 1444.4163 0.0000 0.0000 1768.9219 -7366.8637 303.6023 -9135.7856 -7366.8637 303.6023 377.8351 462.6559 29864.8685 377.8351 462.6559
ENERGY: 300000 2.9069 5.6420 3.0537 0.0000 -10539.5778 1372.9301 0.0000 0.0000 1753.3048 -7401.7403 300.9219 -9155.0451 -7411.5010 301.8844 -379.1902 -371.6349 30276.2887 -134.7456 -56.1326
ENERGY: 600000 3.7939 3.6983 5.0127 0.0000 -10571.2165 1383.4832 0.0000 0.0000 1713.2940 -7461.9344 294.0548 -9175.2284 -7408.4689 300.2399 -544.4517 -473.3236 30331.9104 -264.0006 -209.7510
ENERGY: 900000 2.0676 10.2314 3.4846 0.0000 -10623.6186 1414.1207 0.0000 0.0000 1741.7631 -7451.9512 298.9410 -9193.7143 -7407.3399 301.1597 -341.7004 -233.4572 29970.4919 -271.3044 -214.9101
ENERGY: 1200000 6.1109 2.8013 2.0195 0.0000 -10741.0370 1504.8026 0.0000 0.0000 1732.6790 -7492.6236 297.3819 -9225.3026 -7409.0344 300.3606 884.9958 948.5551 29400.9992 -150.3024 -96.9488
ENERGY: 1500000 3.7391 3.6485 2.8607 0.0000 -10566.9380 1432.3940 0.0000 0.0000 1702.5750 -7421.7207 292.2151 -9124.2957 -7410.0189 300.0798 51.4190 117.7807 30213.3204 -146.8134 -92.2696
TCL: Running FEP window   3: Lambda1 0.8999999999999999 Lambda2 0.8499999999999999 [dLambda -0.050000000000000044]
TCL: Setting parameter firsttimestep to 0
TCL: Setting parameter alchLambda to 0.8999999999999999
Info: NONBONDED TABLE R-SQUARED SPACING: 0.0625
Info: NONBONDED TABLE SIZE: 705 POINTS
TCL: Setting parameter alchLambda2 to 0.8499999999999999
Info: NONBONDED TABLE R-SQUARED SPACING: 0.0625
Info: NONBONDED TABLE SIZE: 705 POINTS
TCL: Running for 1500000 steps
ETITLE: TS BOND ANGLE DIHED IMPRP ELECT VDW BOUNDARY MISC KINETIC TOTAL TEMP POTENTIAL TOTALAVG TEMPAVG PRESSURE GPRESSURE VOLUME PRESSAVG GPRESSAVG
ENERGY: 0 3.7391 3.6485 2.8607 0.0000 -10566.4735 1432.0944 0.0000 0.0000 1701.7077 -7422.4231 292.0663 -9124.1308 -7422.4231 292.0663 18.6578 99.8240 30213.3204 18.6578 99.8240
ENERGY: 300000 1.7623 3.8176 4.7292 0.0000 -10547.5100 1409.0504 0.0000 0.0000 1758.9756 -7369.1750 301.8952 -9128.1506 -7414.1402 297.4607 78.3219 123.5498 29856.3394 352.8288 419.8281
ENERGY: 600000 3.2542 3.0343 4.1887 0.0000 -10473.6956 1362.0689 0.0000 0.0000 1775.6188 -7325.5307 304.7517 -9101.1495 -7393.7361 298.9160 -619.0341 -547.0349 30524.5615 246.8555 305.2334
ENERGY: 900000 1.5848 7.7300 2.9453 0.0000 -10498.2578 1397.7578 0.0000 0.0000 1697.7664 -7390.4735 291.3898 -9088.2399 -7380.8890 299.7754 96.6926 215.6146 29914.4380 200.8282 262.2289
ENERGY: 1200000 4.9902 8.5140 4.5829 0.0000 -10536.5974 1343.8033 0.0000 0.0000 1738.8276 -7435.8795 298.4372 -9174.7070 -7384.6883 300.1552 -1070.5623 -1012.4328 30327.1528 -0.8747 58.9107
ENERGY: 1500000 1.4714 4.7889 5.4314 0.0000 -10577.2393 1440.9217 0.0000 0.0000 1761.7501 -7362.8758 302.3714 -9124.6259 -7392.8556 299.6329 409.7983 397.7624 30028.6678 -11.5668 44.8103
TCL: Running FEP window   4: Lambda1 0.8499999999999999 Lambda2 0.7999999999999998 [dLambda -0.050000000000000044]
TCL: Setting parameter firsttimestep to 0
TCL: Setting parameter alchLambda to 0.8499999999999999
Info: NONBONDED TABLE R-SQUARED SPACING: 0.0625
Info: NONBONDED TABLE SIZE: 705 POINTS
TCL: Setting parameter alchLambda2 to 0.7999999999999998
Info: NONBONDED TABLE R-SQUARED SPACING: 0.0625
Info: NONBONDED TABLE SIZE: 705 POINTS
TCL: Running for 1500000 steps
ETITLE: TS BOND ANGLE DIHED IMPRP ELECT VDW BOUNDARY MISC KINETIC TOTAL TEMP POTENTIAL TOTALAVG TEMPAVG PRESSURE GPRESSURE VOLUME PRESSAVG GPRESSAVG
ENERGY: 0 1.4714 4.7889 5.4314 0.0000 -10576.2743 1441.2222 0.0000 0.0000 1760.8942 -7362.4661 302.2245 -9123.3603 -7362.4661 302.2245 304.0621 392.1069 30028.6678 304.0621 392.1069
ENERGY: 300000 5.0166 4.2572 8.4781 0.0000 -10432.3420 1299.7803 0.0000 0.0000 1763.5028 -7351.3070 302.6722 -9114.8098 -7383.3064 299.3642 -1147.6526 -1037.8138 30636.2863 -304.8926 -213.3189
ENERGY: 600000 0.3610 8.9574 8.2030 0.0000 -10469.2311 1363.6757 0.0000 0.0000 1766.4267 -7321.6074 303.1741 -9088.0340 -7398.6723 300.7524 -505.8001 -396.2013 30570.0459 -247.1961 -160.4330
ENERGY: 900000 2.8868 3.3978 2.7323 0.0000 -10669.9517 1472.4828 0.0000 0.0000 1781.8397 -7406.6124 305.8194 -9188.4520 -7409.9731 300.1990 525.3193 572.0911 29939.2016 -93.5324 -15.0714
ENERGY: 1200000 3.7279 4.1879 4.2661 0.0000 -10448.6096 1346.4703 0.0000 0.0000 1782.1410 -7307.8163 305.8711 -9089.9574 -7406.7425 300.2067 -276.7642 -197.9456 30156.6471 -119.8767 -45.9239
ENERGY: 1500000 5.4007 5.0686 4.6676 0.0000 -10622.2441 1465.2301 0.0000 0.0000 1739.9275 -7401.9497 298.6260 -9141.8773 -7411.6712 300.1604 284.2856 316.2334 30433.9860 -29.0521 41.0996
TCL: Running FEP window   5: Lambda1 0.7999999999999998 Lambda2 0.7499999999999998 [dLambda -0.050000000000000044]
TCL: Setting parameter firsttimestep to 0
TCL: Setting parameter alchLambda to 0.7999999999999998
Info: NONBONDED TABLE R-SQUARED SPACING: 0.0625
Info: NONBONDED TABLE SIZE: 705 POINTS
TCL: Setting parameter alchLambda2 to 0.7499999999999998
Info: NONBONDED TABLE R-SQUARED SPACING: 0.0625
Info: NONBONDED TABLE SIZE: 705 POINTS
TCL: Running for 1500000 steps
ETITLE: TS BOND ANGLE DIHED IMPRP ELECT VDW BOUNDARY MISC KINETIC TOTAL TEMP POTENTIAL TOTALAVG TEMPAVG PRESSURE GPRESSURE VOLUME PRESSAVG GPRESSAVG
ENERGY: 0 5.4007 5.0686 4.6675 0.0000 -10621.5005 1465.9517 0.0000 0.0000 1739.0408 -7401.3712 298.4738 -9140.4120 -7401.3712 298.4738 238.4829 315.5790 30433.9860 238.4829 315.5790
ENERGY: 300000 1.7741 5.7058 4.5507 0.0000 -10593.9300 1488.4526 0.0000 0.0000 1782.7175 -7310.7293 305.9701 -9093.4468 -7398.6976 301.8084 793.0195 855.4434 30136.4499 469.2941 513.2582
ENERGY: 600000 1.9746 5.9570 4.3633 0.0000 -10488.7786 1344.8882 0.0000 0.0000 1803.1846 -7328.4109 309.4829 -9131.5956 -7386.4731 301.0813 -281.0907 -275.1448 30104.6804 234.9670 287.6806
ENERGY: 900000 4.6316 2.6332 4.8288 0.0000 -10575.9630 1415.4451 0.0000 0.0000 1785.2133 -7363.2110 306.3984 -9148.4243 -7378.3573 302.8370 -76.7462 4.9464 30271.4069 135.0350 187.9782
ENERGY: 1200000 3.9984 3.4530 1.3838 0.0000 -10584.2486 1375.2102 0.0000 0.0000 1720.3061 -7479.8970 295.2583 -9200.2031 -7389.2278 302.0925 -569.2590 -536.7809 30292.5986 85.8388 142.8879
ENERGY: 1500000 3.2299 6.9024 4.2474 0.0000 -10533.9060 1363.6465 0.0000 0.0000 1798.7207 -7357.1590 308.7167 -9155.8797 -7386.8966 302.3535 -642.5294 -584.8824 30450.6098 27.7454 77.2062
TCL: Running FEP window   6: Lambda1 0.7499999999999998 Lambda2 0.6999999999999997 [dLambda -0.050000000000000044]
TCL: Setting parameter firsttimestep to 0
TCL: Setting parameter alchLambda to 0.7499999999999998
Info: NONBONDED TABLE R-SQUARED SPACING: 0.0625
Info: NONBONDED TABLE SIZE: 705 POINTS
TCL: Setting parameter alchLambda2 to 0.6999999999999997
Info: NONBONDED TABLE R-SQUARED SPACING: 0.0625
Info: NONBONDED TABLE SIZE: 705 POINTS
TCL: Running for 1500000 steps
ETITLE: TS BOND ANGLE DIHED IMPRP ELECT VDW BOUNDARY MISC KINETIC TOTAL TEMP POTENTIAL TOTALAVG TEMPAVG PRESSURE GPRESSURE VOLUME PRESSAVG GPRESSAVG
ENERGY: 0 3.2299 6.9025 4.2474 0.0000 -10533.0339 1363.8783 0.0000 0.0000 1797.8357 -7356.9402 308.5648 -9154.7759 -7356.9402 308.5648 -688.0240 -593.0911 30450.6098 -688.0240 -593.0911
ENERGY: 300000 4.1330 4.5118 2.0226 0.0000 -10551.8649 1413.5638 0.0000 0.0000 1786.6608 -7340.9730 306.6469 -9127.6338 -7333.6938 307.1701 -48.3149 72.5625 30087.8761 -420.5796 -328.4158
ENERGY: 600000 2.6402 5.5770 1.7936 0.0000 -10548.0617 1401.1782 0.0000 0.0000 1751.3324 -7385.5403 300.5834 -9136.8727 -7356.0126 304.9281 -114.1232 -38.8206 30275.3699 -251.6132 -166.3775
ENERGY: 900000 3.8153 4.9226 7.4898 0.0000 -10506.6427 1416.9140 0.0000 0.0000 1823.1726 -7250.3284 312.9134 -9073.5010 -7362.5958 303.0461 385.1459 355.1254 29888.4146 -203.2128 -136.1346
ENERGY: 1200000 4.5603 6.4025 5.1627 0.0000 -10580.2200 1383.4070 0.0000 0.0000 1723.0566 -7457.6309 295.7304 -9180.6875 -7379.7459 302.6558 -759.7642 -774.8790 30195.5469 -188.0248 -132.6772
ENERGY: 1500000 3.3342 4.3166 4.1418 0.0000 -10543.9991 1383.7473 0.0000 0.0000 1720.3553 -7428.1040 295.2668 -9148.4593 -7389.6322 301.8690 -263.3066 -222.8854 30145.2275 -117.7600 -63.1816
TCL: Running FEP window   7: Lambda1 0.6999999999999997 Lambda2 0.6499999999999997 [dLambda -0.050000000000000044]
TCL: Setting parameter firsttimestep to 0
TCL: Setting parameter alchLambda to 0.6999999999999997
Info: NONBONDED TABLE R-SQUARED SPACING: 0.0625
Info: NONBONDED TABLE SIZE: 705 POINTS
TCL: Setting parameter alchLambda2 to 0.6499999999999997
Info: NONBONDED TABLE R-SQUARED SPACING: 0.0625
Info: NONBONDED TABLE SIZE: 705 POINTS
TCL: Running for 1500000 steps
ETITLE: TS BOND ANGLE DIHED IMPRP ELECT VDW BOUNDARY MISC KINETIC TOTAL TEMP POTENTIAL TOTALAVG TEMPAVG PRESSURE GPRESSURE VOLUME PRESSAVG GPRESSAVG
ENERGY: 0 3.3342 4.3166 4.1418 0.0000 -10543.2299 1384.1189 0.0000 0.0000 1719.4972 -7427.8212 295.1195 -9147.3184 -7427.8212 295.1195 -306.0187 -230.6964 30145.2275 -306.0187 -230.6964
ENERGY: 300000 3.0018 3.4308 2.8435 0.0000 -10465.8793 1360.4634 0.0000 0.0000 1768.1307 -7328.0091 303.4665 -9096.1398 -7377.5827 298.7984 -370.2828 -262.3283 30246.9068 -403.3163 -338.4325
ENERGY: 600000 5.4869 6.8717 3.0779 0.0000 -10682.8332 1488.0026 0.0000 0.0000 1742.4227 -7436.9714 299.0542 -9179.3941 -7366.5041 299.6697 148.7255 235.7296 30272.9903 -442.9863 -383.3341
ENERGY: 900000 4.7404 8.0816 6.7569 0.0000 -10734.1552 1473.1000 0.0000 0.0000 1786.9293 -7454.5470 306.6930 -9241.4763 -7397.3803 300.0955 -65.0889 21.7842 30164.7655 -368.1992 -306.6918
ENERGY: 1200000 3.0000 8.0088 1.3462 0.0000 -10514.5853 1253.7193 0.0000 0.0000 1729.0052 -7519.5058 296.7514 -9248.5110 -7399.5090 300.2141 -1595.3988 -1547.4492 29947.1326 -416.8698 -359.7642
ENERGY: 1500000 2.3776 7.7242 2.2111 0.0000 -10486.7992 1362.5852 0.0000 0.0000 1751.2253 -7360.6758 300.5650 -9111.9011 -7396.7758 300.5185 -319.0998 -244.9785 30107.9637 -346.4626 -288.4894
TCL: Running FEP window   8: Lambda1 0.6499999999999997 Lambda2 0.5999999999999996 [dLambda -0.050000000000000044]
TCL: Setting parameter firsttimestep to 0
TCL: Setting parameter alchLambda to 0.6499999999999997
Info: NONBONDED TABLE R-SQUARED SPACING: 0.0625
Info: NONBONDED TABLE SIZE: 705 POINTS
TCL: Setting parameter alchLambda2 to 0.5999999999999996
Info: NONBONDED TABLE R-SQUARED SPACING: 0.0625
Info: NONBONDED TABLE SIZE: 705 POINTS
TCL: Running for 1500000 steps
ETITLE: TS BOND ANGLE DIHED IMPRP ELECT VDW BOUNDARY MISC KINETIC TOTAL TEMP POTENTIAL TOTALAVG TEMPAVG PRESSURE GPRESSURE VOLUME PRESSAVG GPRESSAVG
ENERGY: 0 2.3776 7.7242 2.2111 0.0000 -10486.2462 1363.2317 0.0000 0.0000 1750.3635 -7360.3381 300.4171 -9110.7016 -7360.3381 300.4171 -340.6517 -242.8462 30107.9637 -340.6517 -242.8462
ENERGY: 300000 4.0754 4.1088 5.9212 0.0000 -10663.3516 1457.6833 0.0000 0.0000 1768.3580 -7423.2050 303.5055 -9191.5630 -7394.8412 302.2388 257.4719 349.7590 30191.1268 27.2061 87.4442
ENERGY: 600000 3.1495 3.1990 2.4771 0.0000 -10533.1530 1397.8763 0.0000 0.0000 1725.8166 -7400.6345 296.2041 -9126.4511 -7427.4461 299.9549 -190.1515 -68.3517 29989.6751 43.1217 120.0124
ENERGY: 900000 4.3162 3.0806 4.9826 0.0000 -10468.8253 1289.8482 0.0000 0.0000 1716.7217 -7449.8761 294.6431 -9166.5978 -7425.0662 300.7191 -1334.4679 -1335.8610 30625.0623 -161.2855 -83.3743
ENERGY: 1200000 3.7679 6.2599 7.1232 0.0000 -10524.7697 1411.7016 0.0000 0.0000 1762.3444 -7333.5728 302.4734 -9095.9171 -7420.6794 300.5531 95.0980 169.9798 30083.9278 -158.1033 -79.3755
ENERGY: 1500000 6.6532 7.2533 1.9767 0.0000 -10455.6718 1327.7784 0.0000 0.0000 1797.5331 -7314.4772 308.5129 -9112.0103 -7413.9274 300.3323 -721.4856 -634.9182 30095.0392 -150.7290 -69.9695
TCL: Running FEP window   9: Lambda1 0.5999999999999996 Lambda2 0.5499999999999996 [dLambda -0.050000000000000044]
TCL: Setting parameter firsttimestep to 0
TCL: Setting parameter alchLambda to 0.5999999999999996
Info: NONBONDED TABLE R-SQUARED SPACING: 0.0625
Info: NONBONDED TABLE SIZE: 705 POINTS
TCL: Setting parameter alchLambda2 to 0.5499999999999996
Info: NONBONDED TABLE R-SQUARED SPACING: 0.0625
Info: NONBONDED TABLE SIZE: 705 POINTS
TCL: Running for 1500000 steps
ETITLE: TS BOND ANGLE DIHED IMPRP ELECT VDW BOUNDARY MISC KINETIC TOTAL TEMP POTENTIAL TOTALAVG TEMPAVG PRESSURE GPRESSURE VOLUME PRESSAVG GPRESSAVG
ENERGY: 0 6.6532 7.2533 1.9767 0.0000 -10455.1204 1328.0461 0.0000 0.0000 1796.6820 -7314.5091 308.3668 -9111.1911 -7314.5091 308.3668 -740.9652 -638.6094 30095.0392 -740.9652 -638.6094
ENERGY: 300000 1.9974 2.9385 3.7613 0.0000 -10575.0714 1355.6330 0.0000 0.0000 1807.9332 -7402.8081 310.2979 -9210.7413 -7353.1802 309.4261 -591.9965 -524.8039 29929.2905 -155.6848 -89.5021
ENERGY: 600000 3.9101 5.8729 4.4934 0.0000 -10463.7451 1344.9347 0.0000 0.0000 1768.2019 -7336.3322 303.4787 -9104.5341 -7358.9240 305.9891 -789.2432 -718.0254 30562.7318 -228.7366 -151.7028
ENERGY: 900000 3.5715 3.9008 1.0330 0.0000 -10654.6445 1512.8561 0.0000 0.0000 1738.0643 -7395.2188 298.3062 -9133.2831 -7369.8330 305.7226 575.1867 749.1522 29981.2102 -149.0812 -69.0909
ENERGY: 1200000 2.9204 3.6427 4.1191 0.0000 -10619.0426 1465.2440 0.0000 0.0000 1726.8957 -7416.2207 296.3893 -9143.1164 -7376.8066 304.5299 452.4980 559.4055 29800.1039 7.9110 83.5161
ENERGY: 1500000 6.3731 3.8413 3.4516 0.0000 -10483.0473 1364.1563 0.0000 0.0000 1781.9387 -7323.2863 305.8364 -9105.2250 -7373.8921 304.8235 -507.8188 -470.8716 30339.9605 42.0981 111.7579
TCL: Running FEP window  10: Lambda1 0.5499999999999996 Lambda2 0.4999999999999996 [dLambda -0.04999999999999999]
TCL: Setting parameter firsttimestep to 0
TCL: Setting parameter alchLambda to 0.5499999999999996
Info: NONBONDED TABLE R-SQUARED SPACING: 0.0625
Info: NONBONDED TABLE SIZE: 705 POINTS
TCL: Setting parameter alchLambda2 to 0.4999999999999996
Info: NONBONDED TABLE R-SQUARED SPACING: 0.0625
Info: NONBONDED TABLE SIZE: 705 POINTS
TCL: Running for 1500000 steps
ETITLE: TS BOND ANGLE DIHED IMPRP ELECT VDW BOUNDARY MISC KINETIC TOTAL TEMP POTENTIAL TOTALAVG TEMPAVG PRESSURE GPRESSURE VOLUME PRESSAVG GPRESSAVG
ENERGY: 0 6.3732 3.8413 3.4516 0.0000 -10483.0582 1364.5681 0.0000 0.0000 1781.0460 -7323.7780 305.6832 -9104.8240 -7323.7780 305.6832 -559.5074 -474.0386 30339.9605 -559.5074 -474.0386
ENERGY: 300000 3.7766 8.7029 3.3944 0.0000 -10510.3151 1351.4276 0.0000 0.0000 1719.0690 -7423.9447 295.0460 -9143.0137 -7422.8546 299.3555 -375.8766 -335.3041 29984.0075 -368.1132 -304.4320
ENERGY: 600000 5.0941 6.1570 5.6235 0.0000 -10534.4414 1379.1465 0.0000 0.0000 1773.4957 -7364.9246 304.3873 -9138.4203 -7390.6825 302.2622 -348.7236 -225.0455 30193.5438 -70.0166 -11.8653
ENERGY: 900000 4.2087 6.1046 1.7914 0.0000 -10574.2623 1410.7970 0.0000 0.0000 1771.8750 -7379.4857 304.1092 -9151.3607 -7399.7763 301.4766 -286.6063 -227.0566 30496.8250 -48.6259 -0.8217
ENERGY: 1200000 3.8442 5.6158 6.1398 0.0000 -10571.0566 1392.9933 0.0000 0.0000 1732.0841 -7430.3794 297.2798 -9162.4635 -7414.6292 300.3832 -540.7855 -499.1363 30378.1334 17.3571 62.2852
ENERGY: 1500000 4.1168 3.3100 3.3737 0.0000 -10548.7185 1411.5503 0.0000 0.0000 1705.2585 -7421.1093 292.6757 -9126.3678 -7414.6999 299.1569 -314.5945 -242.7701 30291.0716 -61.9286 -14.0702
TCL: Running FEP window  11: Lambda1 0.4999999999999996 Lambda2 0.4499999999999996 [dLambda -0.04999999999999999]
TCL: Setting parameter firsttimestep to 0
TCL: Setting parameter alchLambda to 0.4999999999999996
Info: NONBONDED TABLE R-SQUARED SPACING: 0.0625
Info: NONBONDED TABLE SIZE: 705 POINTS
TCL: Setting parameter alchLambda2 to 0.4499999999999996
Info: NONBONDED TABLE R-SQUARED SPACING: 0.0625
Info: NONBONDED TABLE SIZE: 705 POINTS
TCL: Running for 1500000 steps
ETITLE: TS BOND ANGLE DIHED IMPRP ELECT VDW BOUNDARY MISC KINETIC TOTAL TEMP POTENTIAL TOTALAVG TEMPAVG PRESSURE GPRESSURE VOLUME PRESSAVG GPRESSAVG
ENERGY: 0 4.1168 3.3100 3.3737 0.0000 -10548.0652 1411.8256 0.0000 0.0000 1704.3502 -7421.0889 292.5198 -9125.4391 -7421.0889 292.5198 -316.9943 -247.0746 30291.0716 -316.9943 -247.0746
ENERGY: 300000 3.4086 4.5145 3.0874 0.0000 -10607.1188 1416.7116 0.0000 0.0000 1753.9596 -7425.4373 301.0343 -9179.3968 -7400.0313 298.2273 -334.3298 -258.3028 30069.6757 -131.8744 -50.0900
ENERGY: 600000 3.0326 2.5185 3.9836 0.0000 -10638.6900 1442.0627 0.0000 0.0000 1752.8091 -7434.2835 300.8369 -9187.0926 -7409.5147 298.5683 235.9544 283.5297 29611.5453 1.1612 63.5269
ENERGY: 900000 3.1801 2.9277 2.8258 0.0000 -10653.3254 1470.6426 0.0000 0.0000 1693.7718 -7479.9774 290.7042 -9173.7492 -7422.2693 298.1392 288.4294 339.6279 29747.8362 198.5245 255.1855
ENERGY: 1200000 3.9277 5.9409 4.7947 0.0000 -10390.9298 1255.4702 0.0000 0.0000 1758.2342 -7362.5622 301.7680 -9120.7964 -7422.9186 298.6396 -1392.6650 -1241.7363 30136.7402 48.7107 109.9664
ENERGY: 1500000 6.2048 6.5903 3.0595 0.0000 -10598.7882 1454.5303 0.0000 0.0000 1764.9113 -7363.4921 302.9140 -9128.4034 -7418.8494 299.4688 405.3205 498.0115 29935.8407 12.7590 75.3946
TCL: Running FEP window  12: Lambda1 0.4499999999999996 Lambda2 0.39999999999999963 [dLambda -0.04999999999999999]
TCL: Setting parameter firsttimestep to 0
TCL: Setting parameter alchLambda to 0.4499999999999996
Info: NONBONDED TABLE R-SQUARED SPACING: 0.0625
Info: NONBONDED TABLE SIZE: 705 POINTS
TCL: Setting parameter alchLambda2 to 0.39999999999999963
Info: NONBONDED TABLE R-SQUARED SPACING: 0.0625
Info: NONBONDED TABLE SIZE: 705 POINTS
TCL: Running for 1500000 steps
ETITLE: TS BOND ANGLE DIHED IMPRP ELECT VDW BOUNDARY MISC KINETIC TOTAL TEMP POTENTIAL TOTALAVG TEMPAVG PRESSURE GPRESSURE VOLUME PRESSAVG GPRESSAVG
ENERGY: 0 6.2048 6.5903 3.0595 0.0000 -10598.7890 1454.8384 0.0000 0.0000 1764.0529 -7364.0431 302.7666 -9128.0960 -7364.0431 302.7666 412.6876 491.3994 29935.8407 412.6876 491.3994
ENERGY: 300000 2.1755 7.0605 3.5226 0.0000 -10689.6216 1429.5194 0.0000 0.0000 1774.0207 -7473.3229 304.4774 -9247.3436 -7418.6383 298.8134 -278.8032 -270.1995 29953.1803 -4.5431 41.8476
ENERGY: 600000 4.1404 4.8661 2.4073 0.0000 -10536.4493 1375.2432 0.0000 0.0000 1774.2506 -7375.5416 304.5169 -9149.7922 -7397.2339 302.6078 -417.8722 -346.0501 30652.0344 -1.1801 57.3918
ENERGY: 900000 1.6937 4.3342 4.6352 0.0000 -10447.2258 1380.7192 0.0000 0.0000 1712.0370 -7343.8065 293.8391 -9055.8435 -7387.9806 300.3426 -272.2077 -196.2349 30824.3455 -74.1636 -6.0137
ENERGY: 1200000 3.8461 4.7316 4.6842 0.0000 -10734.2306 1470.7221 0.0000 0.0000 1798.0039 -7452.2425 308.5937 -9250.2464 -7402.0819 300.2049 74.0622 100.1449 30071.7200 -122.6722 -56.7395
ENERGY: 1500000 6.3815 6.1996 2.4933 0.0000 -10529.4770 1420.6695 0.0000 0.0000 1779.0012 -7314.7320 305.3322 -9093.7332 -7406.5033 299.6045 21.7115 119.0383 30292.1996 -11.9750 54.1204
TCL: Running FEP window  13: Lambda1 0.39999999999999963 Lambda2 0.34999999999999964 [dLambda -0.04999999999999999]
TCL: Setting parameter firsttimestep to 0
TCL: Setting parameter alchLambda to 0.39999999999999963
Info: NONBONDED TABLE R-SQUARED SPACING: 0.0625
Info: NONBONDED TABLE SIZE: 705 POINTS
TCL: Setting parameter alchLambda2 to 0.34999999999999964
Info: NONBONDED TABLE R-SQUARED SPACING: 0.0625
Info: NONBONDED TABLE SIZE: 705 POINTS
TCL: Running for 1500000 steps
ETITLE: TS BOND ANGLE DIHED IMPRP ELECT VDW BOUNDARY MISC KINETIC TOTAL TEMP POTENTIAL TOTALAVG TEMPAVG PRESSURE GPRESSURE VOLUME PRESSAVG GPRESSAVG
ENERGY: 0 6.3815 6.1996 2.4933 0.0000 -10529.4767 1420.4851 0.0000 0.0000 1778.1650 -7315.7523 305.1887 -9093.9172 -7315.7523 305.1887 31.6921 111.2098 30292.1996 31.6921 111.2098
ENERGY: 300000 0.7211 9.7224 2.2055 0.0000 -10535.8551 1462.1279 0.0000 0.0000 1755.4417 -7305.6363 301.2887 -9061.0780 -7359.4462 302.2988 656.2303 741.6326 29856.1901 104.4470 179.2374
ENERGY: 600000 2.1659 4.0005 4.1634 0.0000 -10531.5210 1416.7345 0.0000 0.0000 1805.5416 -7298.9151 309.8874 -9104.4567 -7346.4334 303.9303 152.6741 187.6102 29934.5848 34.0667 106.7927
ENERGY: 900000 5.0956 2.5497 4.3411 0.0000 -10591.9210 1439.9827 0.0000 0.0000 1760.3289 -7379.6230 302.1275 -9139.9519 -7358.4728 302.3868 61.4485 93.1117 30120.6068 52.1322 112.2734
ENERGY: 1200000 2.6268 9.6561 3.1499 0.0000 -10597.1449 1414.1456 0.0000 0.0000 1796.8280 -7370.7385 308.3919 -9167.5665 -7369.2064 302.5742 -369.0229 -296.8129 30302.9165 34.6095 97.6669
ENERGY: 1500000 3.4278 4.1443 3.7607 0.0000 -10507.5028 1390.7313 0.0000 0.0000 1773.4410 -7331.9976 304.3779 -9105.4386 -7365.3463 302.9938 -197.2668 -109.4122 29907.6606 23.9111 89.7765
TCL: Running FEP window  14: Lambda1 0.34999999999999964 Lambda2 0.29999999999999966 [dLambda -0.04999999999999999]
TCL: Setting parameter firsttimestep to 0
TCL: Setting parameter alchLambda to 0.34999999999999964
Info: NONBONDED TABLE R-SQUARED SPACING: 0.0625
Info: NONBONDED TABLE SIZE: 705 POINTS
TCL: Setting parameter alchLambda2 to 0.29999999999999966
Info: NONBONDED TABLE R-SQUARED SPACING: 0.0625
Info: NONBONDED TABLE SIZE: 705 POINTS
TCL: Running for 1500000 steps
ETITLE: TS BOND ANGLE DIHED IMPRP ELECT VDW BOUNDARY MISC KINETIC TOTAL TEMP POTENTIAL TOTALAVG TEMPAVG PRESSURE GPRESSURE VOLUME PRESSAVG GPRESSAVG
ENERGY: 0 3.4278 4.1443 3.7607 0.0000 -10507.5037 1391.1515 0.0000 0.0000 1772.5864 -7332.4330 304.2313 -9105.0194 -7332.4330 304.2313 -178.6036 -113.6364 29907.6606 -178.6036 -113.6364
ENERGY: 300000 4.3444 6.5357 4.5654 0.0000 -10611.2646 1397.5348 0.0000 0.0000 1798.3529 -7399.9313 308.6536 -9198.2842 -7347.2332 303.5175 -285.5330 -245.7078 29780.1354 -83.2428 -23.8011
ENERGY: 600000 2.4733 2.7766 1.8187 0.0000 -10709.1931 1472.3291 0.0000 0.0000 1770.5804 -7459.2150 303.8870 -9229.7953 -7404.1126 302.0570 193.2362 274.2258 29687.8225 58.5754 106.3107
ENERGY: 900000 2.8419 4.7084 1.5941 0.0000 -10370.6943 1349.0726 0.0000 0.0000 1759.0137 -7253.4637 301.9018 -9012.4773 -7390.4344 301.9381 -190.3291 -147.7017 30084.9400 31.5395 83.1768
ENERGY: 1200000 2.4975 4.9974 3.5359 0.0000 -10664.3133 1492.4557 0.0000 0.0000 1773.6694 -7387.1573 304.4171 -9160.8267 -7392.4280 301.8116 527.9820 639.0268 29969.7224 32.0970 86.1262
ENERGY: 1500000 3.6336 6.1974 2.9366 0.0000 -10690.7682 1470.5784 0.0000 0.0000 1723.6337 -7483.7884 295.8295 -9207.4222 -7401.5622 301.3142 -15.3303 33.1645 30448.8243 37.8045 89.9771
TCL: Running FEP window  15: Lambda1 0.29999999999999966 Lambda2 0.24999999999999967 [dLambda -0.04999999999999999]
TCL: Setting parameter firsttimestep to 0
TCL: Setting parameter alchLambda to 0.29999999999999966
Info: NONBONDED TABLE R-SQUARED SPACING: 0.0625
Info: NONBONDED TABLE SIZE: 705 POINTS
TCL: Setting parameter alchLambda2 to 0.24999999999999967
Info: NONBONDED TABLE R-SQUARED SPACING: 0.0625
Info: NONBONDED TABLE SIZE: 705 POINTS
TCL: Running for 1500000 steps
ETITLE: TS BOND ANGLE DIHED IMPRP ELECT VDW BOUNDARY MISC KINETIC TOTAL TEMP POTENTIAL TOTALAVG TEMPAVG PRESSURE GPRESSURE VOLUME PRESSAVG GPRESSAVG
ENERGY: 0 3.6336 6.1974 2.9366 0.0000 -10690.7680 1470.9703 0.0000 0.0000 1722.7812 -7484.2489 295.6831 -9207.0301 -7484.2489 295.6831 -55.8091 29.8370 30448.8243 -55.8091 29.8370
ENERGY: 300000 4.3095 3.9000 3.7323 0.0000 -10665.8097 1481.9803 0.0000 0.0000 1737.1294 -7434.7582 298.1457 -9171.8876 -7412.7886 298.9534 253.7631 325.5194 30122.0225 467.0965 546.6305
ENERGY: 600000 2.3493 3.5163 4.0020 0.0000 -10524.5856 1424.0649 0.0000 0.0000 1775.0282 -7315.6249 304.6503 -9090.6531 -7406.4769 299.8470 80.9624 136.7444 30259.0133 326.2620 392.4228
ENERGY: 900000 2.0053 7.9099 2.6483 0.0000 -10393.4080 1345.4346 0.0000 0.0000 1766.1472 -7269.2626 303.1261 -9035.4099 -7397.6618 299.6993 -326.9700 -314.1465 30166.2745 202.7318 271.6643
ENERGY: 1200000 4.8758 6.1152 1.4081 0.0000 -10621.7141 1452.1901 0.0000 0.0000 1729.6599 -7427.4650 296.8637 -9157.1249 -7401.3603 299.4368 -131.2255 -114.0211 30589.1482 177.9164 237.6649
ENERGY: 1500000 1.6694 3.4281 2.1487 0.0000 -10606.8087 1487.5614 0.0000 0.0000 1720.5229 -7391.4783 295.2955 -9112.0012 -7403.2712 299.5283 793.7770 816.9617 29845.4218 176.4611 236.1749
TCL: Running FEP window  16: Lambda1 0.24999999999999967 Lambda2 0.19999999999999968 [dLambda -0.04999999999999999]
TCL: Setting parameter firsttimestep to 0
TCL: Setting parameter alchLambda to 0.24999999999999967
Info: NONBONDED TABLE R-SQUARED SPACING: 0.0625
Info: NONBONDED TABLE SIZE: 705 POINTS
TCL: Setting parameter alchLambda2 to 0.19999999999999968
Info: NONBONDED TABLE R-SQUARED SPACING: 0.0625
Info: NONBONDED TABLE SIZE: 705 POINTS
TCL: Running for 1500000 steps
ETITLE: TS BOND ANGLE DIHED IMPRP ELECT VDW BOUNDARY MISC KINETIC TOTAL TEMP POTENTIAL TOTALAVG TEMPAVG PRESSURE GPRESSURE VOLUME PRESSAVG GPRESSAVG
ENERGY: 0 1.6694 3.4281 2.1487 0.0000 -10606.8077 1487.8561 0.0000 0.0000 1719.6137 -7392.0917 295.1395 -9111.7055 -7392.0917 295.1395 723.3294 813.9407 29845.4218 723.3294 813.9407
ENERGY: 300000 1.2372 3.9065 3.5899 0.0000 -10611.2632 1404.1053 0.0000 0.0000 1714.2052 -7484.2190 294.2112 -9198.4242 -7428.5271 294.6292 -201.2172 -117.2967 29713.1580 72.1744 136.3070
ENERGY: 600000 3.8926 4.0340 3.3051 0.0000 -10560.1469 1432.0711 0.0000 0.0000 1733.8502 -7382.9940 297.5829 -9116.8442 -7409.4484 298.4935 -249.7263 -181.1984 30476.2176 66.4015 127.2415
ENERGY: 900000 3.6507 10.2797 3.6156 0.0000 -10416.5600 1334.5868 0.0000 0.0000 1697.9812 -7366.4461 291.4267 -9064.4273 -7391.1936 298.3777 -609.5352 -584.5098 30116.7782 -84.2660 -26.1727
ENERGY: 1200000 2.8888 3.2210 2.5939 0.0000 -10574.1869 1393.0412 0.0000 0.0000 1740.5950 -7431.8470 298.7405 -9172.4420 -7396.6063 298.7810 -624.5235 -597.7214 30459.9281 -170.9490 -121.6623
ENERGY: 1500000 2.5777 3.5153 4.1551 0.0000 -10562.4111 1410.3163 0.0000 0.0000 1691.7663 -7450.0805 290.3600 -9141.8468 -7391.4287 299.1634 -376.8116 -331.7654 30559.8574 -156.1883 -106.0000
TCL: Running FEP window  17: Lambda1 0.19999999999999968 Lambda2 0.1499999999999997 [dLambda -0.04999999999999999]
TCL: Setting parameter firsttimestep to 0
TCL: Setting parameter alchLambda to 0.19999999999999968
Info: NONBONDED TABLE R-SQUARED SPACING: 0.0625
Info: NONBONDED TABLE SIZE: 705 POINTS
TCL: Setting parameter alchLambda2 to 0.1499999999999997
Info: NONBONDED TABLE R-SQUARED SPACING: 0.0625
Info: NONBONDED TABLE SIZE: 705 POINTS
TCL: Running for 1500000 steps
ETITLE: TS BOND ANGLE DIHED IMPRP ELECT VDW BOUNDARY MISC KINETIC TOTAL TEMP POTENTIAL TOTALAVG TEMPAVG PRESSURE GPRESSURE VOLUME PRESSAVG GPRESSAVG
ENERGY: 0 2.5777 3.5153 4.1551 0.0000 -10562.4117 1410.6801 0.0000 0.0000 1690.8441 -7450.6395 290.2017 -9141.4836 -7450.6395 290.2017 -414.3042 -336.3461 30559.8574 -414.3042 -336.3461
ENERGY: 300000 5.0477 6.0709 2.8031 0.0000 -10568.8679 1359.3106 0.0000 0.0000 1734.4603 -7461.1752 297.6876 -9195.6356 -7435.3751 298.7901 -998.3516 -867.5347 30459.7325 -540.1714 -470.7753
ENERGY: 600000 7.3539 3.7331 5.3836 0.0000 -10638.3292 1441.6083 0.0000 0.0000 1729.3363 -7450.9139 296.8082 -9180.2503 -7453.3949 297.1695 -302.3653 -241.2809 29980.0879 -260.7985 -211.5966
ENERGY: 900000 1.9530 5.6469 5.9990 0.0000 -10596.6991 1437.1154 0.0000 0.0000 1728.0382 -7417.9466 296.5854 -9145.9848 -7425.1420 298.3042 179.2682 259.2741 29828.1681 -138.1650 -91.4078
ENERGY: 1200000 3.2281 3.6756 3.3845 0.0000 -10399.3306 1328.7684 0.0000 0.0000 1682.5498 -7377.7241 288.7782 -9060.2740 -7407.1009 298.2440 -596.1378 -544.3223 30174.4301 -207.3595 -161.7551
ENERGY: 1500000 6.7895 5.5206 2.3385 0.0000 -10588.8580 1396.6897 0.0000 0.0000 1719.7336 -7457.7861 295.1601 -9177.5196 -7410.2854 298.4223 -93.2107 35.7476 29814.9380 -211.9837 -152.7904
TCL: Running FEP window  18: Lambda1 0.1499999999999997 Lambda2 0.09999999999999969 [dLambda -0.05 ]
TCL: Setting parameter firsttimestep to 0
TCL: Setting parameter alchLambda to 0.1499999999999997
Info: NONBONDED TABLE R-SQUARED SPACING: 0.0625
Info: NONBONDED TABLE SIZE: 705 POINTS
TCL: Setting parameter alchLambda2 to 0.09999999999999969
Info: NONBONDED TABLE R-SQUARED SPACING: 0.0625
Info: NONBONDED TABLE SIZE: 705 POINTS
TCL: Running for 1500000 steps
ETITLE: TS BOND ANGLE DIHED IMPRP ELECT VDW BOUNDARY MISC KINETIC TOTAL TEMP POTENTIAL TOTALAVG TEMPAVG PRESSURE GPRESSURE VOLUME PRESSAVG GPRESSAVG
ENERGY: 0 6.7895 5.5206 2.3385 0.0000 -10588.8602 1397.2652 0.0000 0.0000 1718.8744 -7458.0719 295.0126 -9176.9463 -7458.0719 295.0126 -53.1040 37.1576 29814.9380 -53.1040 37.1576
ENERGY: 300000 6.6139 7.0704 5.3213 0.0000 -10747.3255 1509.7384 0.0000 0.0000 1730.7952 -7487.7862 297.0586 -9218.5814 -7409.0077 300.8866 357.0589 463.7267 29706.2586 8.1186 102.8962
ENERGY: 600000 4.3680 2.6367 2.6345 0.0000 -10575.4380 1392.1912 0.0000 0.0000 1745.6801 -7427.9274 299.6133 -9173.6075 -7409.5178 300.0691 -196.4029 -149.2541 29693.1575 0.3822 87.1038
ENERGY: 900000 3.7436 4.5010 3.6936 0.0000 -10721.1161 1507.8588 0.0000 0.0000 1751.2145 -7450.1046 300.5632 -9201.3191 -7421.7962 299.6260 70.3425 136.8426 30411.3327 -146.5033 -58.7575
ENERGY: 1200000 3.8987 3.5160 3.4136 0.0000 -10617.3937 1450.0373 0.0000 0.0000 1781.4692 -7375.0589 305.7558 -9156.5281 -7414.8722 300.9842 4.4882 47.5160 30112.8532 -126.0600 -55.8771
ENERGY: 1500000 7.5006 3.8627 4.2696 0.0000 -10461.7618 1353.4389 0.0000 0.0000 1741.6911 -7350.9990 298.9287 -9092.6901 -7401.0123 301.0666 -559.1020 -480.7195 30112.5917 -39.1624 34.9173
TCL: Running FEP window  19: Lambda1 0.09999999999999969 Lambda2 0.049999999999999684 [dLambda -0.05 ]
TCL: Setting parameter firsttimestep to 0
TCL: Setting parameter alchLambda to 0.09999999999999969
Info: NONBONDED TABLE R-SQUARED SPACING: 0.0625
Info: NONBONDED TABLE SIZE: 705 POINTS
TCL: Setting parameter alchLambda2 to 0.049999999999999684
Info: NONBONDED TABLE R-SQUARED SPACING: 0.0625
Info: NONBONDED TABLE SIZE: 705 POINTS
TCL: Running for 1500000 steps
ETITLE: TS BOND ANGLE DIHED IMPRP ELECT VDW BOUNDARY MISC KINETIC TOTAL TEMP POTENTIAL TOTALAVG TEMPAVG PRESSURE GPRESSURE VOLUME PRESSAVG GPRESSAVG
ENERGY: 0 7.5006 3.8627 4.2696 0.0000 -10461.7630 1353.9863 0.0000 0.0000 1740.8213 -7351.3226 298.7794 -9092.1439 -7351.3226 298.7794 -560.1658 -480.6414 30112.5917 -560.1658 -480.6414
ENERGY: 300000 1.6701 8.4640 4.8857 0.0000 -10478.7591 1439.3539 0.0000 0.0000 1778.9745 -7245.4110 305.3276 -9024.3854 -7333.7704 302.2758 212.6549 282.7472 30679.1468 -445.2495 -384.7228
ENERGY: 600000 1.3686 3.1327 1.9746 0.0000 -10531.5661 1393.8663 0.0000 0.0000 1773.1547 -7358.0693 304.3288 -9131.2239 -7359.9345 301.0074 -283.8222 -246.5879 30088.0202 -354.2553 -304.9531
ENERGY: 900000 2.0499 2.9254 2.7918 0.0000 -10502.7989 1419.1274 0.0000 0.0000 1735.2541 -7340.6503 297.8239 -9075.9044 -7378.8206 299.4831 -53.4129 61.8463 30204.6061 -269.1206 -209.3262
ENERGY: 1200000 2.2417 5.4865 2.2578 0.0000 -10555.9741 1384.1616 0.0000 0.0000 1723.1145 -7438.7121 295.7403 -9161.8266 -7379.5027 300.0564 -54.2208 -0.1846 29636.6960 -303.7581 -239.8896
ENERGY: 1500000 2.1711 4.9854 5.5382 0.0000 -10513.1827 1406.9968 0.0000 0.0000 1745.1679 -7348.3233 299.5254 -9093.4912 -7383.9933 299.9618 -265.7011 -237.6166 30529.2449 -228.3371 -168.8907
TCL: Running FEP window  20: Lambda1 0.049999999999999684 Lambda2 0.0    [dLambda -0.049999999999999684]
TCL: Setting parameter firsttimestep to 0
TCL: Setting parameter alchLambda to 0.049999999999999684
Info: NONBONDED TABLE R-SQUARED SPACING: 0.0625
Info: NONBONDED TABLE SIZE: 705 POINTS
TCL: Setting parameter alchLambda2 to 0.0
Info: NONBONDED TABLE R-SQUARED SPACING: 0.0625
Info: NONBONDED TABLE SIZE: 705 POINTS
TCL: Running for 1500000 steps
ETITLE: TS BOND ANGLE DIHED IMPRP ELECT VDW BOUNDARY MISC KINETIC TOTAL TEMP POTENTIAL TOTALAVG TEMPAVG PRESSURE GPRESSURE VOLUME PRESSAVG GPRESSAVG
ENERGY: 0 2.1711 4.9854 5.5382 0.0000 -10513.1829 1406.2983 0.0000 0.0000 1744.3187 -7349.8712 299.3796 -9094.1899 -7349.8712 299.3796 -328.6054 -242.9583 30529.2449 -328.6054 -242.9583
ENERGY: 300000 3.3998 5.3043 4.5289 0.0000 -10616.4080 1432.1148 0.0000 0.0000 1729.5097 -7441.5504 296.8380 -9171.0602 -7430.0417 295.0994 -112.8191 -43.4862 29805.4115 -173.4753 -139.2507
ENERGY: 600000 3.6102 5.5987 2.3154 0.0000 -10721.6160 1508.6020 0.0000 0.0000 1709.9244 -7491.5652 293.4765 -9201.4896 -7430.2695 295.3955 444.8411 485.2408 29876.1326 -76.0313 -40.5696
ENERGY: 900000 2.5459 5.8176 2.1239 0.0000 -10404.7907 1262.8544 0.0000 0.0000 1734.9604 -7396.4885 297.7735 -9131.4489 -7415.9414 297.7049 -1437.0735 -1384.6808 30258.6579 -251.8125 -211.2953
ENERGY: 1200000 5.1582 4.4504 2.6233 0.0000 -10385.6172 1327.5667 0.0000 0.0000 1796.5335 -7249.2852 308.3413 -9045.8186 -7406.1464 298.5429 -769.6395 -736.4188 30796.0189 -259.1308 -212.5699
ENERGY: 1500000 2.9596 4.2833 1.6122 0.0000 -10603.0150 1503.5013 0.0000 0.0000 1772.9202 -7317.7384 304.2885 -9090.6586 -7403.0808 298.6724 1001.3208 1075.5933 29606.3197 -76.3306 -26.1930
TCL: Exiting due to exit command.
