Info: SIMULATION PARAMETERS:
Info: TIMESTEP               2
Info: NUMBER OF STEPS        0
Info: STEPS PER CYCLE        10
Info: PERIODIC CELL BASIS 1  29.7157 0 0
Info: PERIODIC CELL BASIS 2  0 31.6651 0
Info: PERIODIC CELL BASIS 3  0 0 30.8963
Info: PERIODIC CELL CENTER   0 0 0
Info: WRAPPING WATERS AROUND PERIODIC BOUNDARIES ON OUTPUT.
Info: WRAPPING ALL CLUSTERS AROUND PERIODIC BOUNDARIES ON OUTPUT.
Info: FIRST LDB TIMESTEP     50
Info: LAST LDB TIMESTEP     -1
Info: HOM BACKGROUND SCALING 1
Info: PME BACKGROUND SCALING 1
Info: MIN ATOMS PER PATCH    40
Info: EMPTY PATCH LOAD       40 ATOMS
Info: VELOCITY FILE          mobley_9534740_equil.vel
Info: CENTER OF MASS MOVING INITIALLY? NO
Info: DIELECTRIC             1
Info: EXCLUDE                SCALED ONE-FOUR
Info: 1-4 ELECTROSTATICS SCALED BY 0.833333
Info: MODIFIED 1-4 VDW PARAMETERS WILL BE USED
Info: DCD FILENAME           mobley_9534740_prod.dcd
Info: DCD FREQUENCY          100000
Info: DCD FIRST STEP         100000
Info: DCD FILE WILL CONTAIN UNIT CELL DATA
Info: XST FILENAME           mobley_9534740_prod.xst
Info: XST FREQUENCY          100000
Info: NO VELOCITY DCD OUTPUT
Info: NO FORCE DCD OUTPUT
Info: OUTPUT FILENAME        mobley_9534740_prod
Info: BINARY OUTPUT FILES WILL BE USED
Info: RESTART FILENAME       mobley_9534740_prod.restart
Info: RESTART FREQUENCY      100000
Info: BINARY RESTART FILES WILL BE USED
Info: CUTOFF                 9
Info: PAIRLIST DISTANCE      11
Info: PAIRLIST SHRINK RATE   0.01
Info: PAIRLIST GROW RATE     0.01
Info: PAIRLIST TRIGGER       0.3
Info: PAIRLISTS PER CYCLE    2
Info: PAIRLISTS ENABLED
Info: MARGIN                 2
Info: HYDROGEN GROUP CUTOFF  2.5
Info: PATCH DIMENSION        15.5
Info: ENERGY OUTPUT STEPS    100000
Info: ENERGY EVALUATION STEPS    100000
Info: OUTPUT ENERGY PRECISION 4
Info: CROSSTERM ENERGY INCLUDED IN DIHEDRAL
Info: TIMING OUTPUT STEPS    1000000
Info: PRESSURE OUTPUT STEPS  100000
Info: ALCHEMICAL FEP ON
Info: FEP CURRENT LAMBDA VALUE     0
Info: FEP COMPARISON LAMBDA VALUE  0.05
Info: FEP INTRA-ALCHEMICAL NON-BONDED INTERACTIONS WILL BE RETAINED
Info: FEP INTRA-ALCHEMICAL BONDED INTERACTIONS WILL BE RETAINED
Info: FEP VDW SHIFTING COEFFICIENT 5
Info: FEP ELEC. ACTIVE FOR ANNIHILATED PARTICLES BETWEEN LAMBDA = 0 AND LAMBDA = 0.5
Info: FEP ELEC. ACTIVE FOR EXNIHILATED PARTICLES BETWEEN LAMBDA = 0.5 AND LAMBDA = 1
Info: FEP VDW ACTIVE FOR ANNIHILATED PARTICLES BETWEEN LAMBDA = 0 AND LAMBDA = 1
Info: FEP VDW ACTIVE FOR EXNIHILATED PARTICLES BETWEEN LAMBDA = 0 AND LAMBDA = 1
Info: FEP BOND ACTIVE FOR ANNIHILATED PARTICLES BETWEEN LAMBDA = 1 AND LAMBDA = 1
Info: FEP BOND ACTIVE FOR EXNIHILATED PARTICLES BETWEEN LAMBDA = 0 AND LAMBDA = 0
Info: LANGEVIN DYNAMICS ACTIVE
Info: LANGEVIN TEMPERATURE   300
Info: LANGEVIN USING BBK INTEGRATOR
Info: LANGEVIN DAMPING COEFFICIENT IS 1 INVERSE PS
Info: LANGEVIN DYNAMICS APPLIED TO HYDROGENS
Info: LANGEVIN PISTON PRESSURE CONTROL ACTIVE
Info:        TARGET PRESSURE IS 1.01325 BAR
Info:     OSCILLATION PERIOD IS 50 FS
Info:             DECAY TIME IS 25 FS
Info:     PISTON TEMPERATURE IS 300 K
Info:       PRESSURE CONTROL IS GROUP-BASED
Info:    INITIAL STRAIN RATE IS 0.000551994 0.000551994 0.000551994
Info:       CELL FLUCTUATION IS ISOTROPIC
Info: PARTICLE MESH EWALD (PME) ACTIVE
Info: PME TOLERANCE               1e-06
Info: PME EWALD COEFFICIENT       0.348832
Info: PME INTERPOLATION ORDER     4
Info: PME GRID DIMENSIONS         32 32 32
Info: PME MAXIMUM GRID SPACING    1
Info: PME CALCULATION WILL BE PERFORMED ON GPU
Info: FULL ELECTROSTATIC EVALUATION FREQUENCY      2
Info: USING VERLET I (r-RESPA) MTS SCHEME.
Info: C1 SPLITTING OF LONG RANGE ELECTROSTATICS
Info: PLACING ATOMS IN PATCHES BY HYDROGEN GROUPS
Info: RIGID BONDS TO HYDROGEN : ALL
Info:         ERROR TOLERANCE : 1e-08
Info:          MAX ITERATIONS : 100
Info: RIGID WATER USING SETTLE ALGORITHM
Info: RANDOM NUMBER SEED     1743813220
Info: USE HYDROGEN BONDS?    NO
Info: Using AMBER format force field!
Info: AMBER PARM FILE        mobley_9534740.prmtop
Info: COORDINATE PDB         mobley_9534740.pdb
Info: Exclusions will be read from PARM file!
Info: SCNB (VDW SCALING)     2
Info: USING ARITHMETIC MEAN TO COMBINE L-J SIGMA PARAMETERS
Info: BINARY COORDINATES     mobley_9534740_equil.coor
Info: SUMMARY OF PARAMETERS:
Info: 8 BONDS
Info: 13 ANGLES
Info:   13 HARMONIC
Info:   0 COSINE-BASED
Info: 13 DIHEDRAL
Info: 0 IMPROPER
Info: 0 CROSSTERM
Info: 0 VDW
Info: 28 VDW_PAIRS
Info: 0 NBTHOLE_PAIRS
Info: To read alchdata from file: mobley_9534740.pdb
Info: To read alchflag data from column: 5
Info: STRUCTURE SUMMARY:
Info: 2901 ATOMS
Info: 2901 BONDS
Info: 42 ANGLES
Info: 100 DIHEDRALS
Info: 0 IMPROPERS
Info: 0 CROSSTERMS
Info: 3006 EXCLUSIONS
Info: 2889 RIGID BONDS
Info: ALCH: 0 ATOMS TO DISAPPEAR IN FINAL STATE
Info: ALCH: 24 ATOMS TO APPEAR IN FINAL STATE
Info: 5814 DEGREES OF FREEDOM
Info: 971 HYDROGEN GROUPS
Info: 3 ATOMS IN LARGEST HYDROGEN GROUP
Info: 971 MIGRATION GROUPS
Info: 3 ATOMS IN LARGEST MIGRATION GROUP
Info: TOTAL MASS = 17457.5 amu
Info: TOTAL CHARGE = 4.84288e-08 e
Info: MASS DENSITY = 0.99717 g/cm^3
Info: ATOM DENSITY = 0.0997874 atoms/A^3
Info: ADDED 0 IMPLICIT EXCLUSIONS
Info: NONBONDED TABLE R-SQUARED SPACING: 0.0625
Info: NONBONDED TABLE SIZE: 705 POINTS
Info: REMOVING COM VELOCITY 0.028769 0.132854 0.0200971
Info: Use 3D box decompostion in PME FFT.
Info: Updated CUDA force table with 4096 elements.
Info: Updated CUDA LJ table with 7 x 7 elements.
Info: Found 27 unique exclusion lists needing 84 bytes
TCL: Running for 1500000 steps
ETITLE: TS BOND ANGLE DIHED IMPRP ELECT VDW BOUNDARY MISC KINETIC TOTAL TEMP POTENTIAL TOTALAVG TEMPAVG PRESSURE GPRESSURE VOLUME PRESSAVG GPRESSAVG
ENERGY: 0 3.9253 8.2100 15.6317 0.0000 -10502.1501 1442.1619 0.0000 0.0000 1691.2901 -7340.9310 292.7746 -9032.2212 -7340.9310 292.7746 392.2872 466.6692 29071.8100 392.2872 466.6692
ENERGY: 300000 4.4837 11.3486 14.7024 0.0000 -10500.1688 1480.9432 0.0000 0.0000 1747.4959 -7241.1950 302.5043 -8988.6909 -7307.7146 296.7399 508.1482 569.8091 29833.8542 462.4047 545.5276
ENERGY: 600000 8.1935 8.2385 14.9434 0.0000 -10541.0718 1420.4024 0.0000 0.0000 1691.9301 -7397.3639 292.8854 -9089.2940 -7313.1080 297.3135 -339.9993 -261.6021 29567.3046 41.2846 103.7030
ENERGY: 900000 3.7388 8.9763 17.9719 0.0000 -10520.7074 1461.0578 0.0000 0.0000 1734.9239 -7294.0387 300.3280 -9028.9626 -7316.8387 297.9295 479.9058 498.6984 29331.1265 233.8246 286.6770
ENERGY: 1200000 5.0126 10.5186 15.3885 0.0000 -10293.8370 1340.3702 0.0000 0.0000 1755.5907 -7166.9565 303.9055 -8922.5471 -7300.7441 298.7401 -276.6017 -137.7349 29480.0888 220.0269 277.5242
ENERGY: 1500000 3.3400 12.3149 16.3941 0.0000 -10520.8581 1462.7471 0.0000 0.0000 1707.5939 -7318.4681 295.5970 -9026.0621 -7303.0534 298.7691 188.6051 158.7359 30097.0898 238.7802 288.1290
TCL: Running FEP window   2: Lambda1 0.05   Lambda2 0.1    [dLambda 0.05  ]
TCL: Setting parameter firsttimestep to 0
TCL: Setting parameter alchLambda to 0.05
Info: NONBONDED TABLE R-SQUARED SPACING: 0.0625
Info: NONBONDED TABLE SIZE: 705 POINTS
TCL: Setting parameter alchLambda2 to 0.1
Info: NONBONDED TABLE R-SQUARED SPACING: 0.0625
Info: NONBONDED TABLE SIZE: 705 POINTS
TCL: Running for 1500000 steps
ETITLE: TS BOND ANGLE DIHED IMPRP ELECT VDW BOUNDARY MISC KINETIC TOTAL TEMP POTENTIAL TOTALAVG TEMPAVG PRESSURE GPRESSURE VOLUME PRESSAVG GPRESSAVG
ENERGY: 0 3.3400 12.3149 16.3941 0.0000 -10520.8598 1464.2781 0.0000 0.0000 1706.7243 -7317.8085 295.4464 -9024.5327 -7317.8085 295.4464 78.5770 165.1838 30097.0898 78.5770 165.1838
ENERGY: 300000 5.7683 12.5495 15.5343 0.0000 -10593.9015 1572.8105 0.0000 0.0000 1794.1763 -7193.0626 310.5850 -8987.2390 -7258.0211 303.5531 1057.6410 1129.5496 29785.4294 84.5491 165.2598
ENERGY: 600000 1.7212 7.1762 16.3447 0.0000 -10558.1771 1534.5604 0.0000 0.0000 1744.2672 -7254.1074 301.9454 -8998.3746 -7255.4093 302.8712 1575.8087 1614.1388 29029.2914 298.4385 366.0049
ENERGY: 900000 7.7912 7.0485 14.5363 0.0000 -10477.7524 1426.8414 0.0000 0.0000 1704.3372 -7317.1978 295.0332 -9021.5350 -7261.8142 301.3072 -115.2993 -129.1155 29654.4842 111.8737 178.3783
ENERGY: 1200000 5.8888 9.9398 15.9860 0.0000 -10515.8438 1452.0295 0.0000 0.0000 1752.4547 -7279.5449 303.3627 -9031.9996 -7274.2399 301.1009 255.1706 246.5153 29805.5070 -22.3802 36.2753
ENERGY: 1500000 3.6745 20.1587 15.4652 0.0000 -10344.6011 1390.4512 0.0000 0.0000 1746.7647 -7168.0868 302.3777 -8914.8515 -7275.2613 301.1660 296.5934 283.4895 29686.1409 31.5335 91.2798
TCL: Running FEP window   3: Lambda1 0.1    Lambda2 0.15000000000000002 [dLambda 0.05000000000000002]
TCL: Setting parameter firsttimestep to 0
TCL: Setting parameter alchLambda to 0.1
Info: NONBONDED TABLE R-SQUARED SPACING: 0.0625
Info: NONBONDED TABLE SIZE: 705 POINTS
TCL: Setting parameter alchLambda2 to 0.15000000000000002
Info: NONBONDED TABLE R-SQUARED SPACING: 0.0625
Info: NONBONDED TABLE SIZE: 705 POINTS
TCL: Running for 1500000 steps
ETITLE: TS BOND ANGLE DIHED IMPRP ELECT VDW BOUNDARY MISC KINETIC TOTAL TEMP POTENTIAL TOTALAVG TEMPAVG PRESSURE GPRESSURE VOLUME PRESSAVG GPRESSAVG
ENERGY: 0 3.6745 20.1587 15.4652 0.0000 -10344.6002 1393.8982 0.0000 0.0000 1745.9051 -7165.4984 302.2289 -8911.4036 -7165.4984 302.2289 222.4171 296.4920 29686.1409 222.4171 296.4920
ENERGY: 300000 6.3479 11.4143 17.6857 0.0000 -10291.4782 1313.8872 0.0000 0.0000 1690.0473 -7252.0957 292.5595 -8942.1431 -7275.6878 297.2061 -744.1325 -698.3574 30063.2176 -264.6152 -211.9532
ENERGY: 600000 2.5617 19.2154 18.7522 0.0000 -10410.1809 1351.9260 0.0000 0.0000 1682.2113 -7335.5143 291.2030 -9017.7255 -7268.4894 298.5875 -480.0603 -525.7900 29988.6234 -221.1052 -173.0482
ENERGY: 900000 4.4763 17.0991 15.2718 0.0000 -10356.6390 1329.3256 0.0000 0.0000 1739.9953 -7250.4710 301.2059 -8990.4663 -7272.6440 299.7048 -943.8800 -824.0473 29924.1184 -205.6268 -166.8965
ENERGY: 1200000 2.9537 8.7064 15.9533 0.0000 -10390.4508 1340.0963 0.0000 0.0000 1731.2769 -7291.4641 299.6966 -9022.7410 -7273.9163 300.1877 -561.8106 -485.8094 29673.0260 -220.9719 -170.7035
ENERGY: 1500000 3.7543 13.5910 15.5162 0.0000 -10462.7075 1398.1833 0.0000 0.0000 1721.8573 -7309.8054 298.0660 -9031.6627 -7269.1175 301.4266 44.0411 67.0842 29474.3957 -177.0461 -128.0260
TCL: Running FEP window   4: Lambda1 0.15000000000000002 Lambda2 0.2    [dLambda 0.04999999999999999]
TCL: Setting parameter firsttimestep to 0
TCL: Setting parameter alchLambda to 0.15000000000000002
Info: NONBONDED TABLE R-SQUARED SPACING: 0.0625
Info: NONBONDED TABLE SIZE: 705 POINTS
TCL: Setting parameter alchLambda2 to 0.2
Info: NONBONDED TABLE R-SQUARED SPACING: 0.0625
Info: NONBONDED TABLE SIZE: 705 POINTS
TCL: Running for 1500000 steps
ETITLE: TS BOND ANGLE DIHED IMPRP ELECT VDW BOUNDARY MISC KINETIC TOTAL TEMP POTENTIAL TOTALAVG TEMPAVG PRESSURE GPRESSURE VOLUME PRESSAVG GPRESSAVG
ENERGY: 0 3.7543 13.5910 15.5162 0.0000 -10462.7083 1398.4629 0.0000 0.0000 1721.0320 -7310.3519 297.9232 -9031.3839 -7310.3519 297.9232 -9.7485 74.4614 29474.3957 -9.7485 74.4614
ENERGY: 300000 4.4852 11.8057 14.6062 0.0000 -10562.3093 1453.4591 0.0000 0.0000 1747.1532 -7330.7999 302.4450 -9077.9531 -7301.8538 300.7232 109.6607 227.7355 29602.2049 -178.6335 -80.5106
ENERGY: 600000 3.0875 9.0559 15.2919 0.0000 -10396.0978 1348.7380 0.0000 0.0000 1700.5628 -7319.3616 294.3798 -9019.9244 -7289.1220 299.2701 -405.6864 -342.5340 29464.9110 -26.6947 36.1769
ENERGY: 900000 6.4880 13.3533 19.0923 0.0000 -10494.0015 1443.3255 0.0000 0.0000 1729.4889 -7282.2536 299.3871 -9011.7424 -7283.6303 299.8526 309.9128 389.8218 29386.1876 40.4878 106.2747
ENERGY: 1200000 1.7099 10.5211 16.3514 0.0000 -10495.1564 1415.3771 0.0000 0.0000 1678.2358 -7372.9611 290.5149 -9051.1969 -7289.4600 298.8594 -186.5376 -109.0326 29808.6440 35.7016 104.1678
ENERGY: 1500000 3.6411 13.9005 16.4922 0.0000 -10357.3234 1340.3864 0.0000 0.0000 1688.7662 -7294.1370 292.3377 -8982.9031 -7290.4116 298.3894 -701.7133 -623.7972 29764.4623 -27.5982 42.7385
TCL: Running FEP window   5: Lambda1 0.2    Lambda2 0.25   [dLambda 0.04999999999999999]
TCL: Setting parameter firsttimestep to 0
TCL: Setting parameter alchLambda to 0.2
Info: NONBONDED TABLE R-SQUARED SPACING: 0.0625
Info: NONBONDED TABLE SIZE: 705 POINTS
TCL: Setting parameter alchLambda2 to 0.25
Info: NONBONDED TABLE R-SQUARED SPACING: 0.0625
Info: NONBONDED TABLE SIZE: 705 POINTS
TCL: Running for 1500000 steps
ETITLE: TS BOND ANGLE DIHED IMPRP ELECT VDW BOUNDARY MISC KINETIC TOTAL TEMP POTENTIAL TOTALAVG TEMPAVG PRESSURE GPRESSURE VOLUME PRESSAVG GPRESSAVG
ENERGY: 0 3.6411 13.9005 16.4922 0.0000 -10357.3239 1342.6549 0.0000 0.0000 1687.9091 -7292.7260 292.1894 -8980.6351 -7292.7260 292.1894 -692.3026 -608.1267 29764.4623 -692.3026 -608.1267
ENERGY: 300000 2.0007 12.7692 15.8771 0.0000 -10612.2098 1478.7187 0.0000 0.0000 1776.3450 -7326.4991 307.4983 -9102.8441 -7290.8219 298.2257 221.4804 335.2643 29682.0577 -115.1434 -38.4724
ENERGY: 600000 3.9695 13.7591 16.0225 0.0000 -10581.6870 1494.5116 0.0000 0.0000 1675.2582 -7378.1661 289.9994 -9053.4243 -7294.0953 300.1725 579.7082 639.3072 29370.1411 162.3032 228.1506
ENERGY: 900000 3.1991 15.7505 14.9305 0.0000 -10556.2891 1557.1609 0.0000 0.0000 1746.4218 -7218.8263 302.3184 -8965.2482 -7281.9867 301.0107 1143.0783 1214.0018 29914.5345 163.4734 225.8030
ENERGY: 1200000 3.7105 13.1983 15.3705 0.0000 -10346.1782 1359.4701 0.0000 0.0000 1734.2889 -7220.1400 300.2180 -8954.4289 -7265.7696 301.4117 -319.4291 -204.0497 29539.1019 2.0199 68.4744
ENERGY: 1500000 6.6514 11.2698 15.9850 0.0000 -10410.3628 1406.7188 0.0000 0.0000 1745.0591 -7224.6787 302.0824 -8969.7378 -7271.6168 300.9630 657.2531 715.5352 29032.4571 12.7840 75.4750
TCL: Running FEP window   6: Lambda1 0.25   Lambda2 0.3    [dLambda 0.04999999999999999]
TCL: Setting parameter firsttimestep to 0
TCL: Setting parameter alchLambda to 0.25
Info: NONBONDED TABLE R-SQUARED SPACING: 0.0625
Info: NONBONDED TABLE SIZE: 705 POINTS
TCL: Setting parameter alchLambda2 to 0.3
Info: NONBONDED TABLE R-SQUARED SPACING: 0.0625
Info: NONBONDED TABLE SIZE: 705 POINTS
TCL: Running for 1500000 steps
ETITLE: TS BOND ANGLE DIHED IMPRP ELECT VDW BOUNDARY MISC KINETIC TOTAL TEMP POTENTIAL TOTALAVG TEMPAVG PRESSURE GPRESSURE VOLUME PRESSAVG GPRESSAVG
ENERGY: 0 6.6514 11.2698 15.9850 0.0000 -10410.3623 1407.0515 0.0000 0.0000 1744.1994 -7225.2053 301.9336 -8969.4047 -7225.2053 301.9336 639.9351 721.4261 29032.4571 639.9351 721.4261
ENERGY: 300000 3.5683 13.1768 15.4266 0.0000 -10480.2221 1439.4659 0.0000 0.0000 1741.4566 -7267.1279 301.4588 -9008.5845 -7243.3087 302.2989 289.7225 384.1909 29416.9501 149.1741 222.2755
ENERGY: 600000 6.7858 12.4499 16.9137 0.0000 -10464.4143 1405.6894 0.0000 0.0000 1722.4886 -7300.0868 298.1753 -9022.5755 -7262.6431 301.3656 26.8517 100.4665 29319.4453 -27.7608 48.2355
ENERGY: 900000 4.2825 12.6124 16.2536 0.0000 -10582.4816 1481.6630 0.0000 0.0000 1672.6760 -7394.9941 289.5524 -9067.6701 -7277.0426 299.7020 267.8538 360.1092 29647.2434 -103.1848 -27.4375
ENERGY: 1200000 2.7006 8.5222 15.4510 0.0000 -10434.8320 1438.0382 0.0000 0.0000 1761.6821 -7208.4379 304.9600 -8970.1201 -7274.2508 300.6200 431.1475 487.5670 29382.8029 -144.6705 -75.6561
ENERGY: 1500000 5.3627 12.5995 16.9720 0.0000 -10460.1943 1429.2825 0.0000 0.0000 1741.7956 -7254.1819 301.5175 -8995.9775 -7281.1263 299.3796 -61.6388 11.0571 30225.7495 -126.5187 -60.6446
TCL: Running FEP window   7: Lambda1 0.3    Lambda2 0.35   [dLambda 0.04999999999999999]
TCL: Setting parameter firsttimestep to 0
TCL: Setting parameter alchLambda to 0.3
Info: NONBONDED TABLE R-SQUARED SPACING: 0.0625
Info: NONBONDED TABLE SIZE: 705 POINTS
TCL: Setting parameter alchLambda2 to 0.35
Info: NONBONDED TABLE R-SQUARED SPACING: 0.0625
Info: NONBONDED TABLE SIZE: 705 POINTS
TCL: Running for 1500000 steps
ETITLE: TS BOND ANGLE DIHED IMPRP ELECT VDW BOUNDARY MISC KINETIC TOTAL TEMP POTENTIAL TOTALAVG TEMPAVG PRESSURE GPRESSURE VOLUME PRESSAVG GPRESSAVG
ENERGY: 0 5.3627 12.5995 16.9720 0.0000 -10460.1935 1429.3861 0.0000 0.0000 1740.9118 -7254.9612 301.3645 -8995.8731 -7254.9612 301.3645 -72.3493 16.0339 30225.7495 -72.3493 16.0339
ENERGY: 300000 3.6022 10.3962 15.4587 0.0000 -10451.9896 1362.7508 0.0000 0.0000 1707.2635 -7352.5182 295.5398 -9059.7817 -7309.8517 300.0447 -564.5815 -501.2392 29702.3491 -67.0077 16.5384
ENERGY: 600000 5.2500 12.2293 16.0847 0.0000 -10627.9073 1461.1562 0.0000 0.0000 1704.9773 -7428.2098 295.1440 -9133.1870 -7316.9980 299.1388 150.0332 185.2009 29343.5956 -73.0604 -2.4396
ENERGY: 900000 4.7706 12.0691 14.9944 0.0000 -10385.0269 1393.3850 0.0000 0.0000 1729.7695 -7230.0383 299.4357 -8959.8078 -7299.8350 299.0675 -159.8965 -65.0213 30118.7210 -34.0995 29.2822
ENERGY: 1200000 4.0071 8.2559 15.8848 0.0000 -10349.7573 1397.7141 0.0000 0.0000 1739.8784 -7184.0170 301.1856 -8923.8954 -7291.6324 298.7320 226.5914 334.4447 29720.1697 -32.9522 33.8568
ENERGY: 1500000 7.3178 12.5065 14.1702 0.0000 -10399.9336 1355.8474 0.0000 0.0000 1669.2381 -7340.8537 288.9573 -9010.0918 -7291.6871 298.3711 -619.4588 -592.2468 30041.5282 -32.2379 26.4769
TCL: Running FEP window   8: Lambda1 0.35   Lambda2 0.39999999999999997 [dLambda 0.04999999999999999]
TCL: Setting parameter firsttimestep to 0
TCL: Setting parameter alchLambda to 0.35
Info: NONBONDED TABLE R-SQUARED SPACING: 0.0625
Info: NONBONDED TABLE SIZE: 705 POINTS
TCL: Setting parameter alchLambda2 to 0.39999999999999997
Info: NONBONDED TABLE R-SQUARED SPACING: 0.0625
Info: NONBONDED TABLE SIZE: 705 POINTS
TCL: Running for 1500000 steps
ETITLE: TS BOND ANGLE DIHED IMPRP ELECT VDW BOUNDARY MISC KINETIC TOTAL TEMP POTENTIAL TOTALAVG TEMPAVG PRESSURE GPRESSURE VOLUME PRESSAVG GPRESSAVG
ENERGY: 0 7.3178 12.5065 14.1702 0.0000 -10399.9338 1355.9676 0.0000 0.0000 1668.3991 -7341.5726 288.8120 -9009.9717 -7341.5726 288.8120 -656.2337 -584.6070 30041.5282 -656.2337 -584.6070
ENERGY: 300000 3.2128 14.0561 15.8398 0.0000 -10548.9912 1436.1922 0.0000 0.0000 1741.9874 -7337.7028 301.5507 -9079.6902 -7347.6358 294.1104 -56.8340 -14.2745 29736.6484 -182.4158 -138.2034
ENERGY: 600000 1.3841 11.0918 15.8985 0.0000 -10450.8579 1389.8764 0.0000 0.0000 1751.1005 -7281.5067 303.1283 -9032.6072 -7332.2237 295.6739 -187.7305 -93.5387 29611.8221 93.2722 147.7090
ENERGY: 900000 1.3399 17.6594 14.3448 0.0000 -10398.3093 1322.7645 0.0000 0.0000 1704.9652 -7337.2354 295.1419 -9042.2007 -7304.2871 298.2437 -749.7162 -666.3952 29518.6609 -26.7889 30.3054
ENERGY: 1200000 6.5404 12.3570 16.9994 0.0000 -10445.8857 1403.7079 0.0000 0.0000 1725.1277 -7281.1534 298.6322 -9006.2811 -7298.2272 298.5622 -117.0003 -79.2545 29607.8887 -138.1888 -76.1536
ENERGY: 1500000 6.8981 13.2755 15.5886 0.0000 -10496.8490 1457.1684 0.0000 0.0000 1667.6840 -7336.2344 288.6883 -9003.9185 -7294.8517 298.3715 443.5534 513.4109 29806.6768 -96.3690 -30.2103
TCL: Running FEP window   9: Lambda1 0.39999999999999997 Lambda2 0.44999999999999996 [dLambda 0.04999999999999999]
TCL: Setting parameter firsttimestep to 0
TCL: Setting parameter alchLambda to 0.39999999999999997
Info: NONBONDED TABLE R-SQUARED SPACING: 0.0625
Info: NONBONDED TABLE SIZE: 705 POINTS
TCL: Setting parameter alchLambda2 to 0.44999999999999996
Info: NONBONDED TABLE R-SQUARED SPACING: 0.0625
Info: NONBONDED TABLE SIZE: 705 POINTS
TCL: Running for 1500000 steps
ETITLE: TS BOND ANGLE DIHED IMPRP ELECT VDW BOUNDARY MISC KINETIC TOTAL TEMP POTENTIAL TOTALAVG TEMPAVG PRESSURE GPRESSURE VOLUME PRESSAVG GPRESSAVG
ENERGY: 0 6.8981 13.2755 15.5886 0.0000 -10496.8490 1457.2689 0.0000 0.0000 1666.8292 -7336.9888 288.5403 -9003.8179 -7336.9888 288.5403 442.4945 519.1559 29806.6768 442.4945 519.1559
ENERGY: 300000 6.9773 11.5877 15.4281 0.0000 -10390.1669 1417.3790 0.0000 0.0000 1687.4730 -7251.3217 292.1139 -8938.7948 -7281.7698 296.4420 27.6689 78.2942 29864.0744 45.1522 119.0238
ENERGY: 600000 2.6369 10.0656 18.0526 0.0000 -10669.6038 1588.3768 0.0000 0.0000 1698.5732 -7351.8987 294.0354 -9050.4719 -7270.2618 298.7780 1651.1408 1646.8195 29158.0669 307.8813 364.6486
ENERGY: 900000 9.2157 11.5087 15.9972 0.0000 -10495.9877 1423.6355 0.0000 0.0000 1732.5312 -7303.0994 299.9138 -9035.6307 -7275.1200 298.6554 130.4142 181.0519 29309.2669 327.6189 387.2777
ENERGY: 1200000 4.1194 13.2670 16.1527 0.0000 -10426.6559 1390.2193 0.0000 0.0000 1726.9508 -7275.9466 298.9478 -9002.8974 -7270.7342 298.9607 -116.7792 -68.6730 29567.2256 207.1484 257.2928
ENERGY: 1500000 4.5705 14.6084 14.9337 0.0000 -10389.7389 1365.1613 0.0000 0.0000 1640.5322 -7349.9328 283.9881 -8990.4649 -7272.8180 298.3845 -665.8015 -693.4463 30128.6626 158.7808 205.7604
TCL: Running FEP window  10: Lambda1 0.44999999999999996 Lambda2 0.49999999999999994 [dLambda 0.04999999999999999]
TCL: Setting parameter firsttimestep to 0
TCL: Setting parameter alchLambda to 0.44999999999999996
Info: NONBONDED TABLE R-SQUARED SPACING: 0.0625
Info: NONBONDED TABLE SIZE: 705 POINTS
TCL: Setting parameter alchLambda2 to 0.49999999999999994
Info: NONBONDED TABLE R-SQUARED SPACING: 0.0625
Info: NONBONDED TABLE SIZE: 705 POINTS
TCL: Running for 1500000 steps
ETITLE: TS BOND ANGLE DIHED IMPRP ELECT VDW BOUNDARY MISC KINETIC TOTAL TEMP POTENTIAL TOTALAVG TEMPAVG PRESSURE GPRESSURE VOLUME PRESSAVG GPRESSAVG
ENERGY: 0 4.5705 14.6084 14.9337 0.0000 -10389.7396 1365.7741 0.0000 0.0000 1639.6494 -7350.2034 283.8353 -8989.8528 -7350.2034 283.8353 -749.5494 -677.2747 30128.6626 -749.5494 -677.2747
ENERGY: 300000 1.5514 18.2712 15.6858 0.0000 -10531.7613 1436.3833 0.0000 0.0000 1742.1013 -7317.7684 301.5704 -9059.8696 -7293.2483 295.1394 144.0002 143.5798 29702.8671 52.8242 92.7587
ENERGY: 600000 3.3300 15.4386 17.7838 0.0000 -10394.3849 1375.3628 0.0000 0.0000 1686.8687 -7295.6010 292.0093 -8982.4697 -7275.0949 298.9411 328.4757 358.7817 29178.9377 -140.5750 -99.6006
ENERGY: 900000 3.1129 15.6144 19.0486 0.0000 -10620.1439 1453.5977 0.0000 0.0000 1740.8310 -7387.9394 301.3505 -9128.7704 -7295.6057 298.1936 28.5808 69.0900 29799.2402 -118.7110 -79.2709
ENERGY: 1200000 2.8833 8.6793 16.6239 0.0000 -10404.5145 1408.7680 0.0000 0.0000 1727.1680 -7240.3920 298.9854 -8967.5601 -7278.8741 299.2989 -58.7921 66.0681 29843.1777 -193.2498 -144.8738
ENERGY: 1500000 6.0965 6.0485 15.8008 0.0000 -10453.3530 1394.3136 0.0000 0.0000 1708.9886 -7322.1050 295.8384 -9031.0936 -7283.9168 298.9220 -1.0693 130.8679 29396.3740 -95.6882 -41.4491
TCL: Running FEP window  11: Lambda1 0.49999999999999994 Lambda2 0.5499999999999999 [dLambda 0.04999999999999999]
TCL: Setting parameter firsttimestep to 0
TCL: Setting parameter alchLambda to 0.49999999999999994
Info: NONBONDED TABLE R-SQUARED SPACING: 0.0625
Info: NONBONDED TABLE SIZE: 705 POINTS
TCL: Setting parameter alchLambda2 to 0.5499999999999999
Info: NONBONDED TABLE R-SQUARED SPACING: 0.0625
Info: NONBONDED TABLE SIZE: 705 POINTS
TCL: Running for 1500000 steps
ETITLE: TS BOND ANGLE DIHED IMPRP ELECT VDW BOUNDARY MISC KINETIC TOTAL TEMP POTENTIAL TOTALAVG TEMPAVG PRESSURE GPRESSURE VOLUME PRESSAVG GPRESSAVG
ENERGY: 0 6.0965 6.0485 15.8008 0.0000 -10453.3528 1394.3098 0.0000 0.0000 1708.1576 -7322.9396 295.6945 -9031.0973 -7322.9396 295.6945 58.6149 139.0744 29396.3740 58.6149 139.0744
ENERGY: 300000 1.9726 9.4988 17.2948 0.0000 -10473.5596 1505.4287 0.0000 0.0000 1719.0066 -7220.3582 297.5726 -8939.3648 -7282.3437 298.4575 1109.1260 1149.2200 29492.7195 235.8112 312.5520
ENERGY: 600000 1.2505 11.3301 15.2377 0.0000 -10378.9161 1351.9837 0.0000 0.0000 1721.6326 -7277.4815 298.0272 -8999.1141 -7282.2644 299.8934 -282.1959 -199.8163 29553.6759 -122.6624 -53.8015
ENERGY: 900000 1.8346 8.8894 16.3327 0.0000 -10594.8563 1483.6011 0.0000 0.0000 1737.7375 -7346.4610 300.8150 -9084.1985 -7289.8459 299.5341 725.7815 738.6185 29352.0213 -153.8609 -98.3873
ENERGY: 1200000 4.3177 9.2145 20.5060 0.0000 -10457.5562 1383.4501 0.0000 0.0000 1741.8122 -7298.2556 301.5204 -9040.0679 -7289.7510 298.7060 -358.8592 -379.0665 29913.5706 -65.8128 -21.4033
ENERGY: 1500000 4.5536 16.2910 14.9289 0.0000 -10549.5268 1419.9162 0.0000 0.0000 1742.0261 -7351.8109 301.5574 -9093.8371 -7297.0329 298.2783 131.9763 191.3637 29168.4114 -85.7360 -40.1478
TCL: Running FEP window  12: Lambda1 0.5499999999999999 Lambda2 0.6    [dLambda 0.050000000000000044]
TCL: Setting parameter firsttimestep to 0
TCL: Setting parameter alchLambda to 0.5499999999999999
Info: NONBONDED TABLE R-SQUARED SPACING: 0.0625
Info: NONBONDED TABLE SIZE: 705 POINTS
TCL: Setting parameter alchLambda2 to 0.6
Info: NONBONDED TABLE R-SQUARED SPACING: 0.0625
Info: NONBONDED TABLE SIZE: 705 POINTS
TCL: Running for 1500000 steps
ETITLE: TS BOND ANGLE DIHED IMPRP ELECT VDW BOUNDARY MISC KINETIC TOTAL TEMP POTENTIAL TOTALAVG TEMPAVG PRESSURE GPRESSURE VOLUME PRESSAVG GPRESSAVG
ENERGY: 0 4.5536 16.2910 14.9289 0.0000 -10550.2952 1419.7783 0.0000 0.0000 1741.1648 -7353.5785 301.4083 -9094.7433 -7353.5785 301.4083 108.1940 200.0210 29168.4114 108.1940 200.0210
ENERGY: 300000 3.2516 8.3716 17.8169 0.0000 -10512.8089 1420.7104 0.0000 0.0000 1777.3493 -7285.3091 307.6721 -9062.6584 -7299.2867 303.8303 271.8852 261.3441 29361.7193 -338.7770 -281.6905
ENERGY: 600000 4.4370 11.9379 15.0097 0.0000 -10425.2881 1369.3608 0.0000 0.0000 1704.1109 -7320.4318 294.9940 -9024.5427 -7286.7918 302.5324 -522.5584 -412.9233 29908.1444 -359.8842 -292.7818
ENERGY: 900000 3.8217 10.7237 15.7167 0.0000 -10496.5502 1396.5189 0.0000 0.0000 1754.6600 -7315.1092 303.7444 -9069.7692 -7284.5649 302.6023 -514.3327 -418.1180 29883.4409 -325.8163 -261.5603
ENERGY: 1200000 5.3310 8.4169 14.9315 0.0000 -10325.8919 1262.5496 0.0000 0.0000 1728.1981 -7306.4647 299.1637 -9034.6628 -7281.8319 302.1109 -1180.8515 -1045.5641 29695.9616 -262.7042 -191.0653
ENERGY: 1500000 4.5503 17.4006 15.5126 0.0000 -10328.2504 1312.0561 0.0000 0.0000 1805.9117 -7172.8190 312.6165 -8978.7307 -7274.7764 302.8932 -940.1378 -918.2287 30540.6582 -246.4346 -174.3710
TCL: Running FEP window  13: Lambda1 0.6    Lambda2 0.65   [dLambda 0.050000000000000044]
TCL: Setting parameter firsttimestep to 0
TCL: Setting parameter alchLambda to 0.6
Info: NONBONDED TABLE R-SQUARED SPACING: 0.0625
Info: NONBONDED TABLE SIZE: 705 POINTS
TCL: Setting parameter alchLambda2 to 0.65
Info: NONBONDED TABLE R-SQUARED SPACING: 0.0625
Info: NONBONDED TABLE SIZE: 705 POINTS
TCL: Running for 1500000 steps
ETITLE: TS BOND ANGLE DIHED IMPRP ELECT VDW BOUNDARY MISC KINETIC TOTAL TEMP POTENTIAL TOTALAVG TEMPAVG PRESSURE GPRESSURE VOLUME PRESSAVG GPRESSAVG
ENERGY: 0 4.5503 17.4006 15.5126 0.0000 -10330.8986 1313.4351 0.0000 0.0000 1805.0651 -7174.9348 312.4699 -8979.9999 -7174.9348 312.4699 -980.0337 -902.6445 30540.6582 -980.0337 -902.6445
ENERGY: 300000 4.6866 10.6501 16.5444 0.0000 -10449.1482 1350.9454 0.0000 0.0000 1745.4341 -7320.8876 302.1474 -9066.3217 -7257.6265 306.3992 -613.3748 -572.0624 29908.6112 -315.6042 -253.5888
ENERGY: 600000 4.6163 17.1920 16.6024 0.0000 -10412.6391 1388.9896 0.0000 0.0000 1758.2878 -7226.9509 304.3724 -8985.2386 -7270.4391 303.1385 -80.4587 -27.7768 29866.3011 -223.1990 -163.8485
ENERGY: 900000 2.5632 13.3784 16.0784 0.0000 -10580.1057 1509.4869 0.0000 0.0000 1741.7984 -7296.8004 301.5180 -9038.5988 -7281.1836 302.2882 903.0699 986.6780 29314.8631 -99.6167 -34.4184
ENERGY: 1200000 6.4488 6.6030 16.6004 0.0000 -10624.4204 1507.8713 0.0000 0.0000 1775.7431 -7311.1539 307.3941 -9086.8970 -7283.5537 302.9242 890.0277 1002.3065 29326.2544 -49.0594 22.6698
ENERGY: 1500000 4.6755 10.1622 16.3095 0.0000 -10449.7483 1411.7178 0.0000 0.0000 1776.7968 -7230.0866 307.5765 -9006.8834 -7288.0015 302.6375 300.7149 336.1096 29636.5262 66.6752 130.6632
TCL: Running FEP window  14: Lambda1 0.65   Lambda2 0.7000000000000001 [dLambda 0.050000000000000044]
TCL: Setting parameter firsttimestep to 0
TCL: Setting parameter alchLambda to 0.65
Info: NONBONDED TABLE R-SQUARED SPACING: 0.0625
Info: NONBONDED TABLE SIZE: 705 POINTS
TCL: Setting parameter alchLambda2 to 0.7000000000000001
Info: NONBONDED TABLE R-SQUARED SPACING: 0.0625
Info: NONBONDED TABLE SIZE: 705 POINTS
TCL: Running for 1500000 steps
ETITLE: TS BOND ANGLE DIHED IMPRP ELECT VDW BOUNDARY MISC KINETIC TOTAL TEMP POTENTIAL TOTALAVG TEMPAVG PRESSURE GPRESSURE VOLUME PRESSAVG GPRESSAVG
ENERGY: 0 4.6755 10.1622 16.3095 0.0000 -10451.8546 1412.7434 0.0000 0.0000 1775.9555 -7232.0086 307.4308 -9007.9641 -7232.0086 307.4308 260.8058 349.3596 29636.5262 260.8058 349.3596
ENERGY: 300000 3.2897 12.1422 15.5909 0.0000 -10517.4651 1398.6758 0.0000 0.0000 1776.2399 -7311.5267 307.4801 -9087.7666 -7268.8721 306.0877 -20.1481 36.6338 29239.9004 116.1790 173.3320
ENERGY: 600000 3.2622 13.5747 16.2200 0.0000 -10301.7353 1306.9258 0.0000 0.0000 1701.4208 -7260.3318 294.5283 -8961.7526 -7296.9663 301.3658 -726.5189 -670.0636 29891.7483 -29.7996 10.1953
ENERGY: 900000 3.4760 5.9026 14.3054 0.0000 -10422.6998 1414.0183 0.0000 0.0000 1701.4993 -7283.4982 294.5419 -8984.9975 -7280.4337 300.5528 -95.1376 -104.1674 30085.2102 -76.2389 -29.6569
ENERGY: 1200000 4.1248 13.4681 16.3351 0.0000 -10429.2397 1405.3810 0.0000 0.0000 1731.7023 -7258.2284 299.7703 -8989.9307 -7270.1195 301.0963 198.5886 314.4883 29360.1872 -84.7515 -32.5412
ENERGY: 1500000 4.7564 11.1089 15.3176 0.0000 -10459.5501 1431.7979 0.0000 0.0000 1733.5569 -7263.0124 300.0913 -8996.5693 -7288.0711 300.6247 227.0855 223.4977 29863.5332 -18.4579 29.1774
TCL: Running FEP window  15: Lambda1 0.7000000000000001 Lambda2 0.7500000000000001 [dLambda 0.050000000000000044]
TCL: Setting parameter firsttimestep to 0
TCL: Setting parameter alchLambda to 0.7000000000000001
Info: NONBONDED TABLE R-SQUARED SPACING: 0.0625
Info: NONBONDED TABLE SIZE: 705 POINTS
TCL: Setting parameter alchLambda2 to 0.7500000000000001
Info: NONBONDED TABLE R-SQUARED SPACING: 0.0625
Info: NONBONDED TABLE SIZE: 705 POINTS
TCL: Running for 1500000 steps
ETITLE: TS BOND ANGLE DIHED IMPRP ELECT VDW BOUNDARY MISC KINETIC TOTAL TEMP POTENTIAL TOTALAVG TEMPAVG PRESSURE GPRESSURE VOLUME PRESSAVG GPRESSAVG
ENERGY: 0 4.7564 11.1089 15.3176 0.0000 -10461.3786 1432.6764 0.0000 0.0000 1732.6961 -7264.8232 299.9423 -8997.5193 -7264.8232 299.9423 154.3554 235.5097 29863.5332 154.3554 235.5097
ENERGY: 300000 2.2888 14.2960 16.2199 0.0000 -10324.8416 1371.5272 0.0000 0.0000 1753.3339 -7167.1758 303.5149 -8920.5097 -7276.8290 302.2954 -153.1518 -71.4234 30069.4393 -29.6915 39.3809
ENERGY: 600000 4.8239 10.1906 16.9548 0.0000 -10269.4693 1284.5596 0.0000 0.0000 1712.6984 -7240.2420 296.4806 -8952.9405 -7295.9338 299.3750 -826.8004 -729.5245 29870.5728 -165.5841 -98.4501
ENERGY: 900000 4.6038 14.7293 15.3290 0.0000 -10508.0198 1442.2581 0.0000 0.0000 1670.4559 -7360.6436 289.1681 -9031.0995 -7313.6769 297.4741 210.1268 309.8811 29406.5232 -149.6064 -90.2847
ENERGY: 1200000 3.5493 8.8391 15.0867 0.0000 -10426.6756 1340.2850 0.0000 0.0000 1792.3048 -7266.6107 310.2610 -9058.9155 -7301.5228 297.9955 -453.0488 -407.1904 29508.8128 -136.9011 -77.2318
ENERGY: 1500000 3.1455 14.2193 15.2205 0.0000 -10313.1970 1335.8074 0.0000 0.0000 1717.8846 -7226.9196 297.3783 -8944.8042 -7293.4119 297.3827 -260.7145 -171.3757 29904.8391 -103.6138 -38.7271
TCL: Running FEP window  16: Lambda1 0.7500000000000001 Lambda2 0.8000000000000002 [dLambda 0.050000000000000044]
TCL: Setting parameter firsttimestep to 0
TCL: Setting parameter alchLambda to 0.7500000000000001
Info: NONBONDED TABLE R-SQUARED SPACING: 0.0625
Info: NONBONDED TABLE SIZE: 705 POINTS
TCL: Setting parameter alchLambda2 to 0.8000000000000002
Info: NONBONDED TABLE R-SQUARED SPACING: 0.0625
Info: NONBONDED TABLE SIZE: 705 POINTS
TCL: Running for 1500000 steps
ETITLE: TS BOND ANGLE DIHED IMPRP ELECT VDW BOUNDARY MISC KINETIC TOTAL TEMP POTENTIAL TOTALAVG TEMPAVG PRESSURE GPRESSURE VOLUME PRESSAVG GPRESSAVG
ENERGY: 0 3.1455 14.2193 15.2205 0.0000 -10314.8358 1335.5726 0.0000 0.0000 1717.0221 -7229.6557 297.2290 -8946.6778 -7229.6557 297.2290 -250.0629 -163.4644 29904.8391 -250.0629 -163.4644
ENERGY: 300000 5.8888 9.4316 14.2640 0.0000 -10529.5877 1418.1720 0.0000 0.0000 1757.8922 -7323.9391 304.3040 -9081.8313 -7256.1964 301.8777 27.5483 83.3692 29803.8151 187.7816 258.9234
ENERGY: 600000 3.3735 11.5657 16.0398 0.0000 -10508.2046 1393.8916 0.0000 0.0000 1717.8529 -7365.4811 297.3729 -9083.3340 -7285.2410 301.5219 -262.5537 -267.1764 29801.4728 380.9884 448.3643
ENERGY: 900000 5.6234 15.5468 15.2220 0.0000 -10503.6025 1449.2315 0.0000 0.0000 1706.0297 -7311.9491 295.3262 -9017.9789 -7274.5862 300.6895 611.1181 687.0649 29442.3084 253.8985 324.9852
ENERGY: 1200000 3.7614 10.8979 14.7332 0.0000 -10384.9579 1347.3930 0.0000 0.0000 1719.2878 -7288.8845 297.6212 -9008.1723 -7272.0578 300.7407 -450.9061 -327.8400 29586.9042 162.8049 237.9979
ENERGY: 1500000 4.0212 8.6493 14.8199 0.0000 -10480.8177 1341.5270 0.0000 0.0000 1712.8172 -7398.9832 296.5011 -9111.8004 -7283.5251 300.2851 -694.8797 -686.1490 29527.1930 95.1328 158.8424
TCL: Running FEP window  17: Lambda1 0.8000000000000002 Lambda2 0.8500000000000002 [dLambda 0.050000000000000044]
TCL: Setting parameter firsttimestep to 0
TCL: Setting parameter alchLambda to 0.8000000000000002
Info: NONBONDED TABLE R-SQUARED SPACING: 0.0625
Info: NONBONDED TABLE SIZE: 705 POINTS
TCL: Setting parameter alchLambda2 to 0.8500000000000002
Info: NONBONDED TABLE R-SQUARED SPACING: 0.0625
Info: NONBONDED TABLE SIZE: 705 POINTS
TCL: Running for 1500000 steps
ETITLE: TS BOND ANGLE DIHED IMPRP ELECT VDW BOUNDARY MISC KINETIC TOTAL TEMP POTENTIAL TOTALAVG TEMPAVG PRESSURE GPRESSURE VOLUME PRESSAVG GPRESSAVG
ENERGY: 0 4.0212 8.6493 14.8199 0.0000 -10483.9238 1343.5107 0.0000 0.0000 1711.9446 -7400.9782 296.3501 -9112.9228 -7400.9782 296.3501 -741.2572 -657.0682 29527.1930 -741.2572 -657.0682
ENERGY: 300000 2.7312 7.8678 16.0975 0.0000 -10425.6968 1444.6870 0.0000 0.0000 1705.0866 -7249.2266 295.1629 -8954.3132 -7318.8033 299.3634 416.9737 510.6449 29808.6701 -586.4083 -524.6403
ENERGY: 600000 4.3996 7.7763 16.0349 0.0000 -10577.1047 1446.9580 0.0000 0.0000 1691.3552 -7410.5808 292.7859 -9101.9361 -7332.8197 298.3789 274.9991 337.6728 29537.8758 -227.6457 -172.3848
ENERGY: 900000 4.6924 9.9460 17.0263 0.0000 -10472.5164 1410.5444 0.0000 0.0000 1769.9640 -7260.3434 306.3937 -9030.3074 -7312.1066 299.8652 197.2545 210.9892 29678.3482 -196.2499 -133.4586
ENERGY: 1200000 3.5149 9.5009 14.8876 0.0000 -10529.3422 1456.9940 0.0000 0.0000 1722.9999 -7321.4450 298.2638 -9044.4448 -7308.4450 300.0410 131.4980 202.0921 29910.6340 -209.6825 -145.0014
ENERGY: 1500000 3.6779 14.6907 15.1535 0.0000 -10570.2399 1476.9941 0.0000 0.0000 1741.3825 -7318.3412 301.4460 -9059.7237 -7306.8419 300.4997 707.3418 787.2322 29322.6669 -158.8244 -95.9206
TCL: Running FEP window  18: Lambda1 0.8500000000000002 Lambda2 0.9000000000000002 [dLambda 0.050000000000000044]
TCL: Setting parameter firsttimestep to 0
TCL: Setting parameter alchLambda to 0.8500000000000002
Info: NONBONDED TABLE R-SQUARED SPACING: 0.0625
Info: NONBONDED TABLE SIZE: 705 POINTS
TCL: Setting parameter alchLambda2 to 0.9000000000000002
Info: NONBONDED TABLE R-SQUARED SPACING: 0.0625
Info: NONBONDED TABLE SIZE: 705 POINTS
TCL: Running for 1500000 steps
ETITLE: TS BOND ANGLE DIHED IMPRP ELECT VDW BOUNDARY MISC KINETIC TOTAL TEMP POTENTIAL TOTALAVG TEMPAVG PRESSURE GPRESSURE VOLUME PRESSAVG GPRESSAVG
ENERGY: 0 3.6779 14.6907 15.1535 0.0000 -10575.6325 1483.6702 0.0000 0.0000 1740.5407 -7317.8995 301.3003 -9058.4402 -7317.8995 301.3003 774.8150 861.2340 29322.6669 774.8150 861.2340
ENERGY: 300000 7.0209 9.0314 16.1235 0.0000 -10522.0252 1440.9700 0.0000 0.0000 1710.2064 -7338.6731 296.0492 -9048.8795 -7321.7864 299.1553 55.6268 151.0383 29640.2757 73.0437 117.6885
ENERGY: 600000 3.3444 11.9412 14.9413 0.0000 -10618.9244 1495.4888 0.0000 0.0000 1749.1918 -7344.0169 302.7979 -9093.2087 -7309.2514 299.9190 713.5308 742.0185 29565.9897 176.8059 214.6655
ENERGY: 900000 4.0102 12.6328 15.3170 0.0000 -10585.4502 1467.1927 0.0000 0.0000 1717.4372 -7368.8602 297.3009 -9086.2974 -7314.2846 298.5507 32.6500 126.1554 30108.6320 146.3324 189.3940
ENERGY: 1200000 5.5147 9.6783 15.0333 0.0000 -10428.1093 1396.2590 0.0000 0.0000 1773.2148 -7228.4093 306.9564 -9001.6240 -7298.1674 300.0156 -37.4236 -9.0841 29803.3139 164.0778 215.5821
ENERGY: 1500000 4.0717 19.3074 15.3570 0.0000 -10432.6999 1390.8680 0.0000 0.0000 1713.8891 -7289.2067 296.6867 -9003.0959 -7312.5086 299.0090 -281.4972 -271.8932 30068.4150 127.1294 180.8215
TCL: Running FEP window  19: Lambda1 0.9000000000000002 Lambda2 0.9500000000000003 [dLambda 0.050000000000000044]
TCL: Setting parameter firsttimestep to 0
TCL: Setting parameter alchLambda to 0.9000000000000002
Info: NONBONDED TABLE R-SQUARED SPACING: 0.0625
Info: NONBONDED TABLE SIZE: 705 POINTS
TCL: Setting parameter alchLambda2 to 0.9500000000000003
Info: NONBONDED TABLE R-SQUARED SPACING: 0.0625
Info: NONBONDED TABLE SIZE: 705 POINTS
TCL: Running for 1500000 steps
ETITLE: TS BOND ANGLE DIHED IMPRP ELECT VDW BOUNDARY MISC KINETIC TOTAL TEMP POTENTIAL TOTALAVG TEMPAVG PRESSURE GPRESSURE VOLUME PRESSAVG GPRESSAVG
ENERGY: 0 4.0717 19.3074 15.3570 0.0000 -10436.0681 1393.0289 0.0000 0.0000 1713.0331 -7291.2701 296.5385 -9004.3032 -7291.2701 296.5385 -319.3170 -242.9400 30068.4150 -319.3170 -242.9400
ENERGY: 300000 3.5575 13.6964 14.8493 0.0000 -10332.7579 1307.9279 0.0000 0.0000 1661.3735 -7331.3532 287.5959 -8992.7268 -7279.4719 294.3435 -699.1754 -613.9111 30025.5786 -418.3988 -354.8881
ENERGY: 600000 3.7445 14.7159 13.7998 0.0000 -10487.0401 1347.9969 0.0000 0.0000 1712.0288 -7394.7542 296.3647 -9106.7830 -7283.6314 294.7642 -561.9033 -535.6028 29595.7527 -192.4474 -131.9211
ENERGY: 900000 9.0387 9.7288 14.7867 0.0000 -10503.1708 1442.2326 0.0000 0.0000 1725.7734 -7301.6105 298.7440 -9027.3839 -7281.4453 296.7119 -173.0238 -144.4253 30226.4451 -264.0892 -205.3979
ENERGY: 1200000 3.1654 6.0687 15.7220 0.0000 -10452.3225 1441.6151 0.0000 0.0000 1701.5681 -7284.1833 294.5538 -8985.7513 -7285.6598 297.1038 -166.9559 -54.1466 30766.2795 -256.0804 -193.2724
ENERGY: 1500000 4.7945 13.6519 15.6438 0.0000 -10454.3861 1384.6660 0.0000 0.0000 1741.7707 -7293.8593 301.5132 -9035.6300 -7278.7086 298.9579 142.3990 121.4840 29332.3851 -164.2188 -107.0047
TCL: Running FEP window  20: Lambda1 0.9500000000000003 Lambda2 1.0    [dLambda 0.04999999999999971]
TCL: Setting parameter firsttimestep to 0
TCL: Setting parameter alchLambda to 0.9500000000000003
Info: NONBONDED TABLE R-SQUARED SPACING: 0.0625
Info: NONBONDED TABLE SIZE: 705 POINTS
TCL: Setting parameter alchLambda2 to 1.0
Info: NONBONDED TABLE R-SQUARED SPACING: 0.0625
Info: NONBONDED TABLE SIZE: 705 POINTS
TCL: Running for 1500000 steps
ETITLE: TS BOND ANGLE DIHED IMPRP ELECT VDW BOUNDARY MISC KINETIC TOTAL TEMP POTENTIAL TOTALAVG TEMPAVG PRESSURE GPRESSURE VOLUME PRESSAVG GPRESSAVG
ENERGY: 0 4.7945 13.6519 15.6438 0.0000 -10456.5886 1385.0387 0.0000 0.0000 1740.9316 -7296.5281 301.3680 -9037.4597 -7296.5281 301.3680 61.8087 137.6002 29332.3851 61.8087 137.6002
ENERGY: 300000 4.1721 14.3251 15.5424 0.0000 -10405.9045 1312.9426 0.0000 0.0000 1763.9475 -7294.9749 305.3522 -9058.9224 -7319.7269 300.3382 -1057.2529 -1044.1495 30049.2084 -463.3762 -407.4812
ENERGY: 600000 3.6606 10.1061 14.0296 0.0000 -10526.3503 1393.2318 0.0000 0.0000 1706.4636 -7398.8587 295.4013 -9105.3222 -7308.0687 301.4726 -308.7804 -197.3268 29645.2083 -227.3055 -160.2193
ENERGY: 900000 3.6949 9.6091 13.8379 0.0000 -10554.7049 1417.3361 0.0000 0.0000 1715.7534 -7394.4736 297.0094 -9110.2270 -7306.9207 300.9823 53.3295 132.4091 29248.2464 -155.4833 -95.8095
ENERGY: 1200000 3.9983 9.2401 15.7855 0.0000 -10454.9571 1349.3847 0.0000 0.0000 1709.5548 -7366.9937 295.9364 -9076.5485 -7312.2994 300.6447 -579.0394 -557.2570 30039.1687 -259.7173 -201.8131
ENERGY: 1500000 5.4734 7.9610 14.9538 0.0000 -10409.1271 1405.7061 0.0000 0.0000 1778.9588 -7196.0740 307.9507 -8975.0328 -7309.4924 299.9003 -60.0641 20.5387 30091.2228 -181.6628 -116.4317
TCL: Exiting due to exit command.
