Info: SIMULATION PARAMETERS:
Info: TIMESTEP               2
Info: NUMBER OF STEPS        0
Info: STEPS PER CYCLE        10
Info: PERIODIC CELL BASIS 1  31.894 0 0
Info: PERIODIC CELL BASIS 2  0 31.4527 0
Info: PERIODIC CELL BASIS 3  0 0 30.4866
Info: PERIODIC CELL CENTER   0 0 0
Info: WRAPPING WATERS AROUND PERIODIC BOUNDARIES ON OUTPUT.
Info: WRAPPING ALL CLUSTERS AROUND PERIODIC BOUNDARIES ON OUTPUT.
Info: FIRST LDB TIMESTEP     50
Info: LAST LDB TIMESTEP     -1
Info: HOM BACKGROUND SCALING 1
Info: PME BACKGROUND SCALING 1
Info: MIN ATOMS PER PATCH    40
Info: EMPTY PATCH LOAD       40 ATOMS
Info: VELOCITY FILE          mobley_2183616_equil.vel
Info: CENTER OF MASS MOVING INITIALLY? NO
Info: DIELECTRIC             1
Info: EXCLUDE                SCALED ONE-FOUR
Info: 1-4 ELECTROSTATICS SCALED BY 0.833333
Info: MODIFIED 1-4 VDW PARAMETERS WILL BE USED
Info: DCD FILENAME           mobley_2183616_prod.dcd
Info: DCD FREQUENCY          100000
Info: DCD FIRST STEP         100000
Info: DCD FILE WILL CONTAIN UNIT CELL DATA
Info: XST FILENAME           mobley_2183616_prod.xst
Info: XST FREQUENCY          100000
Info: NO VELOCITY DCD OUTPUT
Info: NO FORCE DCD OUTPUT
Info: OUTPUT FILENAME        mobley_2183616_prod
Info: BINARY OUTPUT FILES WILL BE USED
Info: RESTART FILENAME       mobley_2183616_prod.restart
Info: RESTART FREQUENCY      100000
Info: BINARY RESTART FILES WILL BE USED
Info: CUTOFF                 9
Info: PAIRLIST DISTANCE      11
Info: PAIRLIST SHRINK RATE   0.01
Info: PAIRLIST GROW RATE     0.01
Info: PAIRLIST TRIGGER       0.3
Info: PAIRLISTS PER CYCLE    2
Info: PAIRLISTS ENABLED
Info: MARGIN                 2
Info: HYDROGEN GROUP CUTOFF  2.5
Info: PATCH DIMENSION        15.5
Info: ENERGY OUTPUT STEPS    100000
Info: ENERGY EVALUATION STEPS    100000
Info: OUTPUT ENERGY PRECISION 4
Info: CROSSTERM ENERGY INCLUDED IN DIHEDRAL
Info: TIMING OUTPUT STEPS    1000000
Info: PRESSURE OUTPUT STEPS  100000
Info: ALCHEMICAL FEP ON
Info: FEP CURRENT LAMBDA VALUE     0
Info: FEP COMPARISON LAMBDA VALUE  0.05
Info: FEP INTRA-ALCHEMICAL NON-BONDED INTERACTIONS WILL BE RETAINED
Info: FEP INTRA-ALCHEMICAL BONDED INTERACTIONS WILL BE RETAINED
Info: FEP VDW SHIFTING COEFFICIENT 5
Info: FEP ELEC. ACTIVE FOR ANNIHILATED PARTICLES BETWEEN LAMBDA = 0 AND LAMBDA = 0.5
Info: FEP ELEC. ACTIVE FOR EXNIHILATED PARTICLES BETWEEN LAMBDA = 0.5 AND LAMBDA = 1
Info: FEP VDW ACTIVE FOR ANNIHILATED PARTICLES BETWEEN LAMBDA = 0 AND LAMBDA = 1
Info: FEP VDW ACTIVE FOR EXNIHILATED PARTICLES BETWEEN LAMBDA = 0 AND LAMBDA = 1
Info: FEP BOND ACTIVE FOR ANNIHILATED PARTICLES BETWEEN LAMBDA = 1 AND LAMBDA = 1
Info: FEP BOND ACTIVE FOR EXNIHILATED PARTICLES BETWEEN LAMBDA = 0 AND LAMBDA = 0
Info: LANGEVIN DYNAMICS ACTIVE
Info: LANGEVIN TEMPERATURE   300
Info: LANGEVIN USING BBK INTEGRATOR
Info: LANGEVIN DAMPING COEFFICIENT IS 1 INVERSE PS
Info: LANGEVIN DYNAMICS APPLIED TO HYDROGENS
Info: LANGEVIN PISTON PRESSURE CONTROL ACTIVE
Info:        TARGET PRESSURE IS 1.01325 BAR
Info:     OSCILLATION PERIOD IS 50 FS
Info:             DECAY TIME IS 25 FS
Info:     PISTON TEMPERATURE IS 300 K
Info:       PRESSURE CONTROL IS GROUP-BASED
Info:    INITIAL STRAIN RATE IS 0.00030776 0.00030776 0.00030776
Info:       CELL FLUCTUATION IS ISOTROPIC
Info: PARTICLE MESH EWALD (PME) ACTIVE
Info: PME TOLERANCE               1e-06
Info: PME EWALD COEFFICIENT       0.348832
Info: PME INTERPOLATION ORDER     4
Info: PME GRID DIMENSIONS         32 32 32
Info: PME MAXIMUM GRID SPACING    1
Info: PME CALCULATION WILL BE PERFORMED ON GPU
Info: FULL ELECTROSTATIC EVALUATION FREQUENCY      2
Info: USING VERLET I (r-RESPA) MTS SCHEME.
Info: C1 SPLITTING OF LONG RANGE ELECTROSTATICS
Info: PLACING ATOMS IN PATCHES BY HYDROGEN GROUPS
Info: RIGID BONDS TO HYDROGEN : ALL
Info:         ERROR TOLERANCE : 1e-08
Info:          MAX ITERATIONS : 100
Info: RIGID WATER USING SETTLE ALGORITHM
Info: RANDOM NUMBER SEED     1743886011
Info: USE HYDROGEN BONDS?    NO
Info: Using AMBER format force field!
Info: AMBER PARM FILE        mobley_2183616.prmtop
Info: COORDINATE PDB         mobley_2183616.pdb
Info: Exclusions will be read from PARM file!
Info: SCNB (VDW SCALING)     2
Info: USING ARITHMETIC MEAN TO COMBINE L-J SIGMA PARAMETERS
Info: BINARY COORDINATES     mobley_2183616_equil.coor
Info: SUMMARY OF PARAMETERS:
Info: 7 BONDS
Info: 8 ANGLES
Info:   8 HARMONIC
Info:   0 COSINE-BASED
Info: 9 DIHEDRAL
Info: 0 IMPROPER
Info: 0 CROSSTERM
Info: 0 VDW
Info: 21 VDW_PAIRS
Info: 0 NBTHOLE_PAIRS
Info: To read alchdata from file: mobley_2183616.pdb
Info: To read alchflag data from column: 5
Info: STRUCTURE SUMMARY:
Info: 2931 ATOMS
Info: 2931 BONDS
Info: 42 ANGLES
Info: 65 DIHEDRALS
Info: 0 IMPROPERS
Info: 0 CROSSTERMS
Info: 3027 EXCLUSIONS
Info: 2921 RIGID BONDS
Info: ALCH: 0 ATOMS TO DISAPPEAR IN FINAL STATE
Info: ALCH: 24 ATOMS TO APPEAR IN FINAL STATE
Info: 5872 DEGREES OF FREEDOM
Info: 979 HYDROGEN GROUPS
Info: 4 ATOMS IN LARGEST HYDROGEN GROUP
Info: 979 MIGRATION GROUPS
Info: 4 ATOMS IN LARGEST MIGRATION GROUP
Info: TOTAL MASS = 17591.7 amu
Info: TOTAL CHARGE = -1.67638e-08 e
Info: MASS DENSITY = 0.95519 g/cm^3
Info: ATOM DENSITY = 0.0958381 atoms/A^3
Info: ADDED 0 IMPLICIT EXCLUSIONS
Info: NONBONDED TABLE R-SQUARED SPACING: 0.0625
Info: NONBONDED TABLE SIZE: 705 POINTS
Info: REDUCING NUMBER OF PATCHES TO IMPROVE LOAD BALANCE
Info: REMOVING COM VELOCITY 0.159402 -0.000371751 -0.0902673
Info: Use 3D box decompostion in PME FFT.
Info: Updated CUDA force table with 4096 elements.
Info: Updated CUDA LJ table with 6 x 6 elements.
Info: Found 23 unique exclusion lists needing 76 bytes
TCL: Running for 1500000 steps
ETITLE: TS BOND ANGLE DIHED IMPRP ELECT VDW BOUNDARY MISC KINETIC TOTAL TEMP POTENTIAL TOTALAVG TEMPAVG PRESSURE GPRESSURE VOLUME PRESSAVG GPRESSAVG
ENERGY: 0 0.7771 8.4590 3.0000 0.0000 -10638.2587 1497.3612 0.0000 0.0000 1748.4107 -7380.2508 299.6731 -9128.6615 -7380.2508 299.6731 197.6049 280.9467 30582.8237 197.6049 280.9467
ENERGY: 300000 2.8597 6.2110 3.3610 0.0000 -10517.1967 1387.3231 0.0000 0.0000 1728.9696 -7388.4723 296.3410 -9117.4419 -7366.7534 302.9939 -342.4284 -307.1198 30065.4171 -133.8793 -74.9156
ENERGY: 600000 2.9855 11.3167 3.9977 0.0000 -10555.8695 1402.4648 0.0000 0.0000 1734.1948 -7400.9099 297.2366 -9135.1047 -7379.6478 300.6955 -359.4359 -259.4919 29993.3550 -254.9182 -180.8061
ENERGY: 900000 3.3975 8.4227 4.6010 0.0000 -10582.8676 1398.9367 0.0000 0.0000 1731.5924 -7435.9173 296.7905 -9167.5097 -7386.6989 301.7525 -490.6050 -381.8170 30038.8562 -168.6738 -100.5161
ENERGY: 1200000 4.7334 12.6182 3.5859 0.0000 -10524.8225 1369.9343 0.0000 0.0000 1734.0021 -7399.9485 297.2035 -9133.9507 -7397.5159 300.2262 -677.3997 -596.1798 29920.6039 -101.4642 -30.6839
ENERGY: 1500000 1.9643 10.9686 5.4647 0.0000 -10712.9157 1443.0527 0.0000 0.0000 1730.3205 -7521.1449 296.5725 -9251.4653 -7410.4989 300.4589 45.3434 39.5255 29508.1636 -41.6504 24.8244
TCL: Running FEP window   2: Lambda1 0.05   Lambda2 0.1    [dLambda 0.05  ]
TCL: Setting parameter firsttimestep to 0
TCL: Setting parameter alchLambda to 0.05
Info: NONBONDED TABLE R-SQUARED SPACING: 0.0625
Info: NONBONDED TABLE SIZE: 705 POINTS
TCL: Setting parameter alchLambda2 to 0.1
Info: NONBONDED TABLE R-SQUARED SPACING: 0.0625
Info: NONBONDED TABLE SIZE: 705 POINTS
TCL: Running for 1500000 steps
ETITLE: TS BOND ANGLE DIHED IMPRP ELECT VDW BOUNDARY MISC KINETIC TOTAL TEMP POTENTIAL TOTALAVG TEMPAVG PRESSURE GPRESSURE VOLUME PRESSAVG GPRESSAVG
ENERGY: 0 1.9643 10.9686 5.4647 0.0000 -10712.9142 1444.3004 0.0000 0.0000 1729.4321 -7520.7840 296.4202 -9250.2161 -7520.7840 296.4202 -31.2839 44.7567 29508.1636 -31.2839 44.7567
ENERGY: 300000 1.7726 11.9977 2.7167 0.0000 -10634.4321 1469.2602 0.0000 0.0000 1652.3358 -7496.3492 283.2061 -9148.6850 -7442.9567 293.0102 80.3168 66.4697 30302.3784 77.8001 119.1875
ENERGY: 600000 3.2220 11.3231 4.7958 0.0000 -10723.3720 1572.7761 0.0000 0.0000 1769.6289 -7361.6261 303.3099 -9131.2550 -7446.6293 295.3817 1296.2602 1333.4558 29754.0063 126.7197 174.1376
ENERGY: 900000 2.5954 8.3613 5.1330 0.0000 -10524.0353 1430.8761 0.0000 0.0000 1739.5199 -7337.5497 298.1493 -9077.0696 -7418.9009 297.0689 56.0117 92.6501 30259.6248 41.1176 100.4248
ENERGY: 1200000 6.9081 9.3151 7.7320 0.0000 -10627.5593 1410.0629 0.0000 0.0000 1790.4147 -7403.1265 306.8725 -9193.5412 -7413.6502 297.5694 -488.6429 -435.7023 30298.8737 -82.6725 -25.8403
ENERGY: 1500000 3.0869 7.6438 3.1447 0.0000 -10561.9604 1424.3741 0.0000 0.0000 1730.0081 -7393.7029 296.5190 -9123.7110 -7415.8011 298.2382 0.2432 50.2033 29873.0914 -51.0183 3.6144
TCL: Running FEP window   3: Lambda1 0.1    Lambda2 0.15000000000000002 [dLambda 0.05000000000000002]
TCL: Setting parameter firsttimestep to 0
TCL: Setting parameter alchLambda to 0.1
Info: NONBONDED TABLE R-SQUARED SPACING: 0.0625
Info: NONBONDED TABLE SIZE: 705 POINTS
TCL: Setting parameter alchLambda2 to 0.15000000000000002
Info: NONBONDED TABLE R-SQUARED SPACING: 0.0625
Info: NONBONDED TABLE SIZE: 705 POINTS
TCL: Running for 1500000 steps
ETITLE: TS BOND ANGLE DIHED IMPRP ELECT VDW BOUNDARY MISC KINETIC TOTAL TEMP POTENTIAL TOTALAVG TEMPAVG PRESSURE GPRESSURE VOLUME PRESSAVG GPRESSAVG
ENERGY: 0 3.0869 7.6438 3.1447 0.0000 -10561.9591 1429.2024 0.0000 0.0000 1729.1078 -7389.7736 296.3647 -9118.8814 -7389.7736 296.3647 -27.9479 67.4987 29873.0914 -27.9479 67.4987
ENERGY: 300000 1.9733 8.5493 5.5380 0.0000 -10617.5888 1450.0063 0.0000 0.0000 1742.5417 -7408.9803 298.6672 -9151.5220 -7416.2381 298.2430 -57.9318 3.7612 30187.6794 -173.8624 -117.5317
ENERGY: 600000 4.0379 6.5758 2.2118 0.0000 -10552.8665 1418.8445 0.0000 0.0000 1718.5953 -7402.6010 294.5628 -9121.1964 -7407.7647 297.4018 -124.0851 -83.8658 29877.9710 -217.3286 -160.4280
ENERGY: 900000 3.8996 10.7641 3.8638 0.0000 -10694.5376 1529.3248 0.0000 0.0000 1762.2478 -7384.4374 302.0448 -9146.6852 -7390.9128 299.5175 749.8051 825.8350 29936.9056 28.2788 91.3834
ENERGY: 1200000 1.4675 9.1025 1.8425 0.0000 -10559.8513 1425.9331 0.0000 0.0000 1744.1354 -7377.3701 298.9403 -9121.5055 -7385.1880 299.6207 -221.5977 -187.9491 30491.3306 -45.5156 11.2126
ENERGY: 1500000 3.1118 11.4521 4.3279 0.0000 -10447.7994 1294.4695 0.0000 0.0000 1812.3815 -7322.0566 310.6376 -9134.4381 -7383.4834 300.6418 -1063.6629 -1005.1717 29899.0861 -128.0163 -68.5462
TCL: Running FEP window   4: Lambda1 0.15000000000000002 Lambda2 0.2    [dLambda 0.04999999999999999]
TCL: Setting parameter firsttimestep to 0
TCL: Setting parameter alchLambda to 0.15000000000000002
Info: NONBONDED TABLE R-SQUARED SPACING: 0.0625
Info: NONBONDED TABLE SIZE: 705 POINTS
TCL: Setting parameter alchLambda2 to 0.2
Info: NONBONDED TABLE R-SQUARED SPACING: 0.0625
Info: NONBONDED TABLE SIZE: 705 POINTS
TCL: Running for 1500000 steps
ETITLE: TS BOND ANGLE DIHED IMPRP ELECT VDW BOUNDARY MISC KINETIC TOTAL TEMP POTENTIAL TOTALAVG TEMPAVG PRESSURE GPRESSURE VOLUME PRESSAVG GPRESSAVG
ENERGY: 0 3.1118 11.4521 4.3279 0.0000 -10447.7990 1296.1626 0.0000 0.0000 1811.5058 -7321.2388 310.4875 -9132.7445 -7321.2388 310.4875 -1086.3452 -993.8099 29899.0861 -1086.3452 -993.8099
ENERGY: 300000 4.3126 7.9332 5.1575 0.0000 -10570.5502 1383.1267 0.0000 0.0000 1737.7228 -7432.2974 297.8413 -9170.0202 -7386.0296 304.3235 -537.8296 -517.7582 29998.8684 -251.4523 -203.8548
ENERGY: 600000 2.2174 8.4194 5.5270 0.0000 -10647.5287 1488.1180 0.0000 0.0000 1726.4019 -7416.8450 295.9009 -9143.2469 -7385.5829 303.3353 351.7759 360.8671 30239.7263 -101.9704 -73.0028
ENERGY: 900000 4.5753 10.9142 6.0885 0.0000 -10621.8839 1490.0777 0.0000 0.0000 1737.5701 -7372.6581 297.8151 -9110.2282 -7384.4454 301.5121 632.8705 685.3284 29693.6649 24.9615 61.2493
ENERGY: 1200000 3.1628 5.6510 4.4459 0.0000 -10483.9943 1393.3352 0.0000 0.0000 1763.9731 -7313.4264 302.3405 -9077.3995 -7393.8539 301.1806 -195.6431 -117.9895 29799.8299 -31.4818 14.9612
ENERGY: 1500000 3.3567 8.7970 3.1208 0.0000 -10464.3016 1322.8525 0.0000 0.0000 1722.6180 -7403.5565 295.2523 -9126.1744 -7393.7110 300.9574 -861.6542 -790.5806 29925.1842 -110.5009 -65.1244
TCL: Running FEP window   5: Lambda1 0.2    Lambda2 0.25   [dLambda 0.04999999999999999]
TCL: Setting parameter firsttimestep to 0
TCL: Setting parameter alchLambda to 0.2
Info: NONBONDED TABLE R-SQUARED SPACING: 0.0625
Info: NONBONDED TABLE SIZE: 705 POINTS
TCL: Setting parameter alchLambda2 to 0.25
Info: NONBONDED TABLE R-SQUARED SPACING: 0.0625
Info: NONBONDED TABLE SIZE: 705 POINTS
TCL: Running for 1500000 steps
ETITLE: TS BOND ANGLE DIHED IMPRP ELECT VDW BOUNDARY MISC KINETIC TOTAL TEMP POTENTIAL TOTALAVG TEMPAVG PRESSURE GPRESSURE VOLUME PRESSAVG GPRESSAVG
ENERGY: 0 3.3567 8.7970 3.1208 0.0000 -10464.3009 1323.4365 0.0000 0.0000 1721.7482 -7403.8416 295.1032 -9125.5898 -7403.8416 295.1032 -872.7006 -782.1824 29925.1842 -872.7006 -782.1824
ENERGY: 300000 1.5060 6.6335 1.5378 0.0000 -10508.0771 1383.1306 0.0000 0.0000 1746.0542 -7369.2151 299.2692 -9115.2693 -7391.8144 300.3418 -289.1978 -216.3735 30049.8604 -444.3093 -371.9805
ENERGY: 600000 1.9258 11.3003 4.6776 0.0000 -10710.4261 1467.0235 0.0000 0.0000 1720.1880 -7505.3109 294.8358 -9225.4989 -7405.6989 298.5449 -39.8411 20.0593 30062.0633 -360.8835 -304.4439
ENERGY: 900000 2.1388 10.0895 5.7639 0.0000 -10560.5910 1419.8902 0.0000 0.0000 1748.1892 -7374.5194 299.6352 -9122.7086 -7400.0173 298.9785 -106.9496 -36.7970 29954.9805 -204.8137 -146.3306
ENERGY: 1200000 3.5392 6.6652 4.8737 0.0000 -10513.3531 1347.0811 0.0000 0.0000 1749.0443 -7402.1496 299.7817 -9151.1939 -7401.4287 299.3673 -903.8280 -826.7262 30367.2591 -199.5419 -133.4606
ENERGY: 1500000 6.2977 7.9765 2.5985 0.0000 -10637.1350 1457.4562 0.0000 0.0000 1746.4970 -7416.3090 299.3451 -9162.8061 -7394.4841 300.0513 23.0531 92.6423 30082.5659 -218.6642 -158.9090
TCL: Running FEP window   6: Lambda1 0.25   Lambda2 0.3    [dLambda 0.04999999999999999]
TCL: Setting parameter firsttimestep to 0
TCL: Setting parameter alchLambda to 0.25
Info: NONBONDED TABLE R-SQUARED SPACING: 0.0625
Info: NONBONDED TABLE SIZE: 705 POINTS
TCL: Setting parameter alchLambda2 to 0.3
Info: NONBONDED TABLE R-SQUARED SPACING: 0.0625
Info: NONBONDED TABLE SIZE: 705 POINTS
TCL: Running for 1500000 steps
ETITLE: TS BOND ANGLE DIHED IMPRP ELECT VDW BOUNDARY MISC KINETIC TOTAL TEMP POTENTIAL TOTALAVG TEMPAVG PRESSURE GPRESSURE VOLUME PRESSAVG GPRESSAVG
ENERGY: 0 6.2977 7.9765 2.5985 0.0000 -10637.1364 1457.4684 0.0000 0.0000 1745.6023 -7417.1929 299.1918 -9162.7952 -7417.1929 299.1918 7.5755 94.5003 30082.5659 7.5755 94.5003
ENERGY: 300000 2.5718 10.4890 4.2425 0.0000 -10652.1394 1516.6940 0.0000 0.0000 1769.0966 -7349.0455 303.2186 -9118.1421 -7383.7626 301.3365 714.8210 756.0101 30137.1352 184.3432 234.3856
ENERGY: 600000 5.6991 10.7608 3.3284 0.0000 -10484.8340 1374.7447 0.0000 0.0000 1737.5091 -7352.7919 297.8046 -9090.3010 -7377.5344 300.6580 -78.6877 -5.3487 29883.0724 222.7925 294.1998
ENERGY: 900000 3.6375 9.9039 2.1541 0.0000 -10454.8417 1314.6715 0.0000 0.0000 1691.4570 -7433.0176 289.9114 -9124.4746 -7405.2158 298.9495 -944.1334 -847.3726 29970.5605 61.0939 138.4186
ENERGY: 1200000 1.9329 5.5187 4.0014 0.0000 -10530.5057 1407.3438 0.0000 0.0000 1751.6025 -7360.1063 300.2202 -9111.7088 -7405.2643 299.2484 187.5549 137.2474 29683.6565 74.8602 135.4399
ENERGY: 1500000 6.7418 12.8712 3.6109 0.0000 -10341.9742 1309.3996 0.0000 0.0000 1700.9421 -7308.4086 291.5371 -9009.3508 -7402.7378 298.7843 -944.2259 -899.3575 30940.3432 -59.5493 6.1229
TCL: Running FEP window   7: Lambda1 0.3    Lambda2 0.35   [dLambda 0.04999999999999999]
TCL: Setting parameter firsttimestep to 0
TCL: Setting parameter alchLambda to 0.3
Info: NONBONDED TABLE R-SQUARED SPACING: 0.0625
Info: NONBONDED TABLE SIZE: 705 POINTS
TCL: Setting parameter alchLambda2 to 0.35
Info: NONBONDED TABLE R-SQUARED SPACING: 0.0625
Info: NONBONDED TABLE SIZE: 705 POINTS
TCL: Running for 1500000 steps
ETITLE: TS BOND ANGLE DIHED IMPRP ELECT VDW BOUNDARY MISC KINETIC TOTAL TEMP POTENTIAL TOTALAVG TEMPAVG PRESSURE GPRESSURE VOLUME PRESSAVG GPRESSAVG
ENERGY: 0 6.7419 12.8712 3.6109 0.0000 -10341.9741 1308.9420 0.0000 0.0000 1700.0337 -7309.7744 291.3814 -9009.8082 -7309.7744 291.3814 -981.6255 -896.0861 30940.3432 -981.6255 -896.0861
ENERGY: 300000 2.0453 7.7926 2.0834 0.0000 -10552.2473 1383.8789 0.0000 0.0000 1778.9873 -7377.4598 304.9139 -9156.4471 -7346.6954 301.1830 -360.4243 -295.6169 29972.9045 -224.7982 -157.6115
ENERGY: 600000 1.8731 8.0647 6.6354 0.0000 -10592.4056 1458.4377 0.0000 0.0000 1750.7294 -7366.6652 300.0705 -9117.3946 -7373.4733 299.7448 157.6877 241.6304 30290.6215 -117.1151 -52.2092
ENERGY: 900000 1.8468 9.1676 7.6474 0.0000 -10621.6329 1490.5717 0.0000 0.0000 1789.1625 -7323.2368 306.6579 -9112.3993 -7365.8403 301.3259 451.9018 511.0165 30381.2416 -27.3036 35.3526
ENERGY: 1200000 3.3333 10.3658 4.6517 0.0000 -10622.8857 1451.8474 0.0000 0.0000 1755.6867 -7397.0008 300.9202 -9152.6875 -7371.2805 301.3228 -5.3714 125.7986 30053.9009 -82.4710 -21.6871
ENERGY: 1500000 2.7959 9.3000 4.6483 0.0000 -10568.3569 1421.3385 0.0000 0.0000 1745.1344 -7385.1400 299.1116 -9130.2743 -7375.6466 300.7620 -40.9185 24.3121 30247.7513 -47.3175 13.4126
TCL: Running FEP window   8: Lambda1 0.35   Lambda2 0.39999999999999997 [dLambda 0.04999999999999999]
TCL: Setting parameter firsttimestep to 0
TCL: Setting parameter alchLambda to 0.35
Info: NONBONDED TABLE R-SQUARED SPACING: 0.0625
Info: NONBONDED TABLE SIZE: 705 POINTS
TCL: Setting parameter alchLambda2 to 0.39999999999999997
Info: NONBONDED TABLE R-SQUARED SPACING: 0.0625
Info: NONBONDED TABLE SIZE: 705 POINTS
TCL: Running for 1500000 steps
ETITLE: TS BOND ANGLE DIHED IMPRP ELECT VDW BOUNDARY MISC KINETIC TOTAL TEMP POTENTIAL TOTALAVG TEMPAVG PRESSURE GPRESSURE VOLUME PRESSAVG GPRESSAVG
ENERGY: 0 2.7959 9.3000 4.6483 0.0000 -10568.3581 1421.3247 0.0000 0.0000 1744.2646 -7386.0247 298.9625 -9130.2892 -7386.0247 298.9625 -43.5583 31.8143 30247.7513 -43.5583 31.8143
ENERGY: 300000 2.5504 10.5613 3.2721 0.0000 -10605.7624 1451.0711 0.0000 0.0000 1670.6000 -7467.7076 286.3366 -9138.3076 -7400.1971 297.7124 32.4411 154.4980 30228.4467 -378.1685 -294.7298
ENERGY: 600000 7.3925 6.4438 3.2294 0.0000 -10532.0359 1447.6900 0.0000 0.0000 1803.0892 -7264.1911 309.0449 -9067.2803 -7373.6041 301.0222 532.3240 569.0541 30119.4852 -308.0254 -227.3028
ENERGY: 900000 6.1403 19.1530 4.8573 0.0000 -10501.7265 1343.8955 0.0000 0.0000 1699.7536 -7427.9267 291.3334 -9127.6803 -7376.0359 300.9435 -953.8831 -872.3842 30201.8878 -177.9796 -110.7274
ENERGY: 1200000 3.8437 7.2481 1.6213 0.0000 -10643.6195 1499.6535 0.0000 0.0000 1742.3268 -7388.9261 298.6304 -9131.2528 -7379.4802 301.3921 369.4947 451.4307 30445.5637 -83.8834 -16.3235
ENERGY: 1500000 3.6651 11.8649 2.8706 0.0000 -10521.0507 1409.5653 0.0000 0.0000 1787.1574 -7305.9274 306.3142 -9093.0848 -7381.0641 301.5138 -2.2156 43.8126 30093.2192 -126.1155 -55.7892
TCL: Running FEP window   9: Lambda1 0.39999999999999997 Lambda2 0.44999999999999996 [dLambda 0.04999999999999999]
TCL: Setting parameter firsttimestep to 0
TCL: Setting parameter alchLambda to 0.39999999999999997
Info: NONBONDED TABLE R-SQUARED SPACING: 0.0625
Info: NONBONDED TABLE SIZE: 705 POINTS
TCL: Setting parameter alchLambda2 to 0.44999999999999996
Info: NONBONDED TABLE R-SQUARED SPACING: 0.0625
Info: NONBONDED TABLE SIZE: 705 POINTS
TCL: Running for 1500000 steps
ETITLE: TS BOND ANGLE DIHED IMPRP ELECT VDW BOUNDARY MISC KINETIC TOTAL TEMP POTENTIAL TOTALAVG TEMPAVG PRESSURE GPRESSURE VOLUME PRESSAVG GPRESSAVG
ENERGY: 0 3.6651 11.8649 2.8706 0.0000 -10521.0502 1409.4356 0.0000 0.0000 1786.2904 -7306.9237 306.1656 -9093.2140 -7306.9237 306.1656 -51.6687 46.7256 30093.2192 -51.6687 46.7256
ENERGY: 300000 5.2271 7.4417 4.8931 0.0000 -10510.7520 1379.4118 0.0000 0.0000 1758.6532 -7355.1252 301.4287 -9113.7784 -7379.5939 301.0032 -221.5410 -199.1650 29749.2468 -79.0496 -18.8515
ENERGY: 600000 2.8458 6.4568 1.6132 0.0000 -10580.5011 1406.4505 0.0000 0.0000 1822.6321 -7340.5026 312.3945 -9163.1348 -7377.2805 302.6085 -316.7195 -261.5050 30486.5186 -217.4147 -153.1106
ENERGY: 900000 1.4448 15.1462 3.6254 0.0000 -10565.3899 1476.6524 0.0000 0.0000 1719.9187 -7348.6024 294.7897 -9068.5211 -7376.9589 300.2746 678.3508 711.4828 29915.4384 -77.6058 -17.6067
ENERGY: 1200000 1.8890 6.4427 3.5137 0.0000 -10636.7855 1432.2598 0.0000 0.0000 1770.8354 -7421.8450 303.5167 -9192.6804 -7386.4092 300.8844 -362.7874 -273.5685 30207.0873 -71.9015 -12.0113
ENERGY: 1500000 3.0191 12.1526 5.9464 0.0000 -10655.2398 1481.1173 0.0000 0.0000 1725.9026 -7427.1017 295.8153 -9153.0043 -7397.3664 299.9539 468.1932 497.1901 30271.8631 22.6235 82.1825
TCL: Running FEP window  10: Lambda1 0.44999999999999996 Lambda2 0.49999999999999994 [dLambda 0.04999999999999999]
TCL: Setting parameter firsttimestep to 0
TCL: Setting parameter alchLambda to 0.44999999999999996
Info: NONBONDED TABLE R-SQUARED SPACING: 0.0625
Info: NONBONDED TABLE SIZE: 705 POINTS
TCL: Setting parameter alchLambda2 to 0.49999999999999994
Info: NONBONDED TABLE R-SQUARED SPACING: 0.0625
Info: NONBONDED TABLE SIZE: 705 POINTS
TCL: Running for 1500000 steps
ETITLE: TS BOND ANGLE DIHED IMPRP ELECT VDW BOUNDARY MISC KINETIC TOTAL TEMP POTENTIAL TOTALAVG TEMPAVG PRESSURE GPRESSURE VOLUME PRESSAVG GPRESSAVG
ENERGY: 0 3.0191 12.1526 5.9464 0.0000 -10655.2391 1481.9106 0.0000 0.0000 1725.0785 -7427.1319 295.6740 -9152.2104 -7427.1319 295.6740 436.2177 511.5550 30271.8631 436.2177 511.5550
ENERGY: 300000 1.6723 9.9724 5.5012 0.0000 -10664.4906 1499.6307 0.0000 0.0000 1767.2313 -7380.4827 302.8989 -9147.7140 -7401.5317 300.2483 623.2982 686.4424 29980.9876 540.4389 595.5025
ENERGY: 600000 3.3345 7.9092 5.8988 0.0000 -10604.7609 1449.4451 0.0000 0.0000 1736.9889 -7401.1843 297.7155 -9138.1732 -7385.1123 299.8434 20.6975 95.0144 29924.6437 435.4916 490.7581
ENERGY: 900000 2.0292 8.4008 5.0324 0.0000 -10585.4193 1424.5266 0.0000 0.0000 1762.7674 -7382.6628 302.1338 -9145.4302 -7388.0998 300.2619 -9.5950 64.3729 30108.0558 468.3173 528.4780
ENERGY: 1200000 4.8589 15.3963 2.4227 0.0000 -10624.6591 1393.2545 0.0000 0.0000 1754.6787 -7454.0481 300.7474 -9208.7268 -7393.3620 300.1308 -728.9736 -625.8368 30491.0449 198.1837 258.9076
ENERGY: 1500000 2.4229 6.8496 2.7119 0.0000 -10701.1615 1488.7293 0.0000 0.0000 1749.3907 -7451.0573 299.8411 -9200.4480 -7396.3518 300.2372 358.8631 406.1142 29957.8310 205.1506 265.0057
TCL: Running FEP window  11: Lambda1 0.49999999999999994 Lambda2 0.5499999999999999 [dLambda 0.04999999999999999]
TCL: Setting parameter firsttimestep to 0
TCL: Setting parameter alchLambda to 0.49999999999999994
Info: NONBONDED TABLE R-SQUARED SPACING: 0.0625
Info: NONBONDED TABLE SIZE: 705 POINTS
TCL: Setting parameter alchLambda2 to 0.5499999999999999
Info: NONBONDED TABLE R-SQUARED SPACING: 0.0625
Info: NONBONDED TABLE SIZE: 705 POINTS
TCL: Running for 1500000 steps
ETITLE: TS BOND ANGLE DIHED IMPRP ELECT VDW BOUNDARY MISC KINETIC TOTAL TEMP POTENTIAL TOTALAVG TEMPAVG PRESSURE GPRESSURE VOLUME PRESSAVG GPRESSAVG
ENERGY: 0 2.4229 6.8496 2.7119 0.0000 -10701.1614 1488.6003 0.0000 0.0000 1748.5093 -7452.0676 299.6900 -9200.5769 -7452.0676 299.6900 330.8579 413.9905 29957.8310 330.8579 413.9905
ENERGY: 300000 2.1190 8.9337 2.6216 0.0000 -10575.9804 1452.7287 0.0000 0.0000 1731.3238 -7378.2536 296.7445 -9109.5773 -7407.6726 293.7921 226.9779 314.4254 30347.5284 -128.5309 -60.0630
ENERGY: 600000 2.6469 7.8942 6.2150 0.0000 -10573.1242 1396.5912 0.0000 0.0000 1720.2096 -7439.5673 294.8395 -9159.7769 -7412.6812 294.3874 -419.3896 -373.4164 30265.1765 -202.9304 -147.7303
ENERGY: 900000 3.3723 8.2616 5.5929 0.0000 -10601.2456 1465.1922 0.0000 0.0000 1758.8639 -7359.9627 301.4648 -9118.8265 -7390.0850 297.2918 382.2890 428.9297 30137.6686 -189.5954 -134.2708
ENERGY: 1200000 2.4759 8.2571 4.1412 0.0000 -10632.2136 1457.6886 0.0000 0.0000 1763.9751 -7395.6758 302.3408 -9159.6509 -7391.2866 298.4590 38.1860 80.0182 30369.8117 -167.9524 -111.9343
ENERGY: 1500000 3.4268 4.7856 4.3309 0.0000 -10729.4896 1531.5023 0.0000 0.0000 1740.3756 -7445.0685 298.2959 -9185.4441 -7390.1241 298.1655 692.7576 727.3270 29879.3958 -5.4874 52.1727
TCL: Running FEP window  12: Lambda1 0.5499999999999999 Lambda2 0.6    [dLambda 0.050000000000000044]
TCL: Setting parameter firsttimestep to 0
TCL: Setting parameter alchLambda to 0.5499999999999999
Info: NONBONDED TABLE R-SQUARED SPACING: 0.0625
Info: NONBONDED TABLE SIZE: 705 POINTS
TCL: Setting parameter alchLambda2 to 0.6
Info: NONBONDED TABLE R-SQUARED SPACING: 0.0625
Info: NONBONDED TABLE SIZE: 705 POINTS
TCL: Running for 1500000 steps
ETITLE: TS BOND ANGLE DIHED IMPRP ELECT VDW BOUNDARY MISC KINETIC TOTAL TEMP POTENTIAL TOTALAVG TEMPAVG PRESSURE GPRESSURE VOLUME PRESSAVG GPRESSAVG
ENERGY: 0 3.4268 4.7856 4.3309 0.0000 -10729.7601 1531.1998 0.0000 0.0000 1739.4704 -7446.5466 298.1408 -9186.0170 -7446.5466 298.1408 657.0261 730.4426 29879.3958 657.0261 730.4426
ENERGY: 300000 1.9952 9.6887 5.9668 0.0000 -10637.0280 1424.5962 0.0000 0.0000 1721.0202 -7473.7609 294.9785 -9194.7811 -7402.0498 301.6004 -271.4095 -218.1129 30380.6307 190.9143 248.5597
ENERGY: 600000 2.5410 12.0500 3.6002 0.0000 -10636.7174 1437.5171 0.0000 0.0000 1731.3728 -7449.6363 296.7529 -9181.0091 -7404.2132 301.7657 -130.6538 -77.1928 30485.1268 133.3404 196.6489
ENERGY: 900000 3.6346 14.1897 3.8828 0.0000 -10586.7689 1443.1941 0.0000 0.0000 1778.1842 -7343.6834 304.7762 -9121.8677 -7397.9502 301.7763 -125.3129 -41.4832 30436.7382 91.9904 168.5695
ENERGY: 1200000 4.7125 12.6949 5.7994 0.0000 -10614.5639 1437.7352 0.0000 0.0000 1741.9602 -7411.6617 298.5675 -9153.6219 -7396.3402 301.6374 -212.8298 -95.2799 30159.3806 108.7892 184.1001
ENERGY: 1500000 1.8259 11.7176 3.2914 0.0000 -10532.6922 1396.1790 0.0000 0.0000 1782.6700 -7337.0084 305.5451 -9119.6784 -7395.6735 301.9721 -106.6126 -69.6446 30190.0056 56.9997 134.6434
TCL: Running FEP window  13: Lambda1 0.6    Lambda2 0.65   [dLambda 0.050000000000000044]
TCL: Setting parameter firsttimestep to 0
TCL: Setting parameter alchLambda to 0.6
Info: NONBONDED TABLE R-SQUARED SPACING: 0.0625
Info: NONBONDED TABLE SIZE: 705 POINTS
TCL: Setting parameter alchLambda2 to 0.65
Info: NONBONDED TABLE R-SQUARED SPACING: 0.0625
Info: NONBONDED TABLE SIZE: 705 POINTS
TCL: Running for 1500000 steps
ETITLE: TS BOND ANGLE DIHED IMPRP ELECT VDW BOUNDARY MISC KINETIC TOTAL TEMP POTENTIAL TOTALAVG TEMPAVG PRESSURE GPRESSURE VOLUME PRESSAVG GPRESSAVG
ENERGY: 0 1.8259 11.7176 3.2914 0.0000 -10533.0986 1395.7358 0.0000 0.0000 1781.8170 -7338.7109 305.3989 -9120.5279 -7338.7109 305.3989 -152.5998 -66.4203 30190.0056 -152.5998 -66.4203
ENERGY: 300000 1.1533 10.9907 7.1988 0.0000 -10626.3697 1476.7280 0.0000 0.0000 1735.2261 -7395.0730 297.4133 -9130.2991 -7369.2321 299.8113 198.4728 258.1771 30397.6750 163.3823 229.0837
ENERGY: 600000 2.4782 11.0397 4.0383 0.0000 -10639.5717 1426.7377 0.0000 0.0000 1720.1312 -7475.1467 294.8261 -9195.2778 -7405.7984 298.9930 2.0598 114.6588 29841.7103 79.2744 159.8335
ENERGY: 900000 1.9690 11.0128 2.3342 0.0000 -10729.2650 1526.4043 0.0000 0.0000 1765.1076 -7422.4371 302.5349 -9187.5448 -7401.3430 299.0875 460.1766 515.5420 30289.7255 2.0569 72.5116
ENERGY: 1200000 3.7656 11.7215 3.5800 0.0000 -10496.8364 1373.5794 0.0000 0.0000 1781.3051 -7322.8849 305.3111 -9104.1899 -7393.6135 300.0798 -655.1174 -559.1399 30921.5523 37.9410 110.9259
ENERGY: 1500000 0.8532 7.4056 3.7578 0.0000 -10603.5465 1441.3090 0.0000 0.0000 1737.7449 -7412.4760 297.8450 -9150.2208 -7392.0137 300.5143 140.1305 188.3219 29999.7125 62.8012 134.5911
TCL: Running FEP window  14: Lambda1 0.65   Lambda2 0.7000000000000001 [dLambda 0.050000000000000044]
TCL: Setting parameter firsttimestep to 0
TCL: Setting parameter alchLambda to 0.65
Info: NONBONDED TABLE R-SQUARED SPACING: 0.0625
Info: NONBONDED TABLE SIZE: 705 POINTS
TCL: Setting parameter alchLambda2 to 0.7000000000000001
Info: NONBONDED TABLE R-SQUARED SPACING: 0.0625
Info: NONBONDED TABLE SIZE: 705 POINTS
TCL: Running for 1500000 steps
ETITLE: TS BOND ANGLE DIHED IMPRP ELECT VDW BOUNDARY MISC KINETIC TOTAL TEMP POTENTIAL TOTALAVG TEMPAVG PRESSURE GPRESSURE VOLUME PRESSAVG GPRESSAVG
ENERGY: 0 0.8533 7.4056 3.7578 0.0000 -10603.6918 1440.7443 0.0000 0.0000 1736.8916 -7414.0392 297.6988 -9150.9308 -7414.0392 297.6988 107.0424 194.0429 29999.7125 107.0424 194.0429
ENERGY: 300000 2.6763 9.4953 2.8687 0.0000 -10649.5661 1442.5451 0.0000 0.0000 1747.2335 -7444.7472 299.4713 -9191.9807 -7410.9595 299.3804 -17.6914 69.9922 30109.6922 37.2003 111.5348
ENERGY: 600000 3.4812 9.2676 4.2042 0.0000 -10622.5622 1474.9881 0.0000 0.0000 1756.7496 -7373.8715 301.1024 -9130.6210 -7396.0831 300.5613 584.4353 583.0742 29891.4230 88.7854 164.3718
ENERGY: 900000 2.4085 9.3691 2.4790 0.0000 -10530.2209 1375.9550 0.0000 0.0000 1780.3472 -7359.6620 305.1470 -9140.0092 -7395.2428 300.2508 -261.8563 -179.0559 29879.1709 -81.9952 0.5282
ENERGY: 1200000 1.4584 9.1318 4.1209 0.0000 -10568.9374 1412.4634 0.0000 0.0000 1749.8659 -7391.8970 299.9225 -9141.7630 -7407.4495 298.5294 112.6705 161.5782 30007.8791 -1.4534 75.7590
ENERGY: 1500000 2.7347 8.3029 2.9726 0.0000 -10573.4278 1460.7139 0.0000 0.0000 1750.2976 -7348.4061 299.9965 -9098.7037 -7400.2802 298.6156 553.7113 615.1947 29949.4770 13.7452 92.3326
TCL: Running FEP window  15: Lambda1 0.7000000000000001 Lambda2 0.7500000000000001 [dLambda 0.050000000000000044]
TCL: Setting parameter firsttimestep to 0
TCL: Setting parameter alchLambda to 0.7000000000000001
Info: NONBONDED TABLE R-SQUARED SPACING: 0.0625
Info: NONBONDED TABLE SIZE: 705 POINTS
TCL: Setting parameter alchLambda2 to 0.7500000000000001
Info: NONBONDED TABLE R-SQUARED SPACING: 0.0625
Info: NONBONDED TABLE SIZE: 705 POINTS
TCL: Running for 1500000 steps
ETITLE: TS BOND ANGLE DIHED IMPRP ELECT VDW BOUNDARY MISC KINETIC TOTAL TEMP POTENTIAL TOTALAVG TEMPAVG PRESSURE GPRESSURE VOLUME PRESSAVG GPRESSAVG
ENERGY: 0 2.7347 8.3029 2.9726 0.0000 -10573.7680 1460.4752 0.0000 0.0000 1749.4332 -7349.8494 299.8484 -9099.2826 -7349.8494 299.8484 547.5993 627.1726 29949.4770 547.5993 627.1726
ENERGY: 300000 1.9352 9.1320 4.7166 0.0000 -10581.7280 1405.6084 0.0000 0.0000 1708.0158 -7452.3202 292.7495 -9160.3359 -7348.8650 298.6100 -6.9239 9.8511 30113.2418 100.9403 142.3259
ENERGY: 600000 3.9014 8.8529 3.3745 0.0000 -10539.3073 1415.9615 0.0000 0.0000 1769.6312 -7337.5858 303.3103 -9107.2169 -7346.0459 299.3085 -115.4618 -64.4120 30317.9282 184.8080 233.3539
ENERGY: 900000 4.5693 6.1490 2.8710 0.0000 -10578.7659 1408.6230 0.0000 0.0000 1778.8031 -7377.7504 304.8823 -9156.5536 -7356.7291 300.4752 -231.0223 -150.2109 30142.0038 215.3073 269.1722
ENERGY: 1200000 3.1055 12.4380 2.3953 0.0000 -10607.0950 1466.2701 0.0000 0.0000 1722.1467 -7400.7393 295.1715 -9122.8861 -7363.3116 300.9386 211.6949 356.0437 30081.9456 201.9866 265.1686
ENERGY: 1500000 5.7753 7.2965 5.7760 0.0000 -10672.6129 1476.9395 0.0000 0.0000 1765.2366 -7411.5891 302.5570 -9176.8257 -7373.1073 300.3173 583.4709 545.6670 29817.2205 119.8223 177.1355
TCL: Running FEP window  16: Lambda1 0.7500000000000001 Lambda2 0.8000000000000002 [dLambda 0.050000000000000044]
TCL: Setting parameter firsttimestep to 0
TCL: Setting parameter alchLambda to 0.7500000000000001
Info: NONBONDED TABLE R-SQUARED SPACING: 0.0625
Info: NONBONDED TABLE SIZE: 705 POINTS
TCL: Setting parameter alchLambda2 to 0.8000000000000002
Info: NONBONDED TABLE R-SQUARED SPACING: 0.0625
Info: NONBONDED TABLE SIZE: 705 POINTS
TCL: Running for 1500000 steps
ETITLE: TS BOND ANGLE DIHED IMPRP ELECT VDW BOUNDARY MISC KINETIC TOTAL TEMP POTENTIAL TOTALAVG TEMPAVG PRESSURE GPRESSURE VOLUME PRESSAVG GPRESSAVG
ENERGY: 0 5.7753 7.2965 5.7760 0.0000 -10672.4171 1476.2973 0.0000 0.0000 1764.3867 -7412.8854 302.4114 -9177.2721 -7412.8854 302.4114 483.0968 549.2517 29817.2205 483.0968 549.2517
ENERGY: 300000 5.6588 7.3068 4.7563 0.0000 -10575.0229 1398.6307 0.0000 0.0000 1777.9766 -7380.6937 304.7406 -9158.6703 -7424.8872 299.3703 -525.2157 -445.7850 30441.5058 -374.4810 -307.8284
ENERGY: 600000 4.7903 7.5534 5.4282 0.0000 -10629.8844 1462.2246 0.0000 0.0000 1712.2487 -7437.6392 293.4751 -9149.8879 -7410.1883 298.5986 112.1991 127.7513 30070.6050 42.4972 94.4782
ENERGY: 900000 3.9667 8.5791 3.6139 0.0000 -10560.7294 1466.9230 0.0000 0.0000 1743.7061 -7333.9407 298.8668 -9077.6468 -7411.7485 298.4422 542.3505 529.0819 30293.5506 -8.9193 38.0364
ENERGY: 1200000 1.9193 10.5697 2.0824 0.0000 -10544.3523 1411.1410 0.0000 0.0000 1728.9735 -7389.6665 296.3416 -9118.6400 -7411.6246 298.0426 -55.7338 -2.5783 30353.9807 -24.1017 18.5343
ENERGY: 1500000 5.9830 9.3539 5.2972 0.0000 -10680.6247 1494.2486 0.0000 0.0000 1794.4540 -7371.2879 307.5648 -9165.7419 -7400.9347 299.5373 556.2668 608.8086 29934.9951 -0.9975 47.4959
TCL: Running FEP window  17: Lambda1 0.8000000000000002 Lambda2 0.8500000000000002 [dLambda 0.050000000000000044]
TCL: Setting parameter firsttimestep to 0
TCL: Setting parameter alchLambda to 0.8000000000000002
Info: NONBONDED TABLE R-SQUARED SPACING: 0.0625
Info: NONBONDED TABLE SIZE: 705 POINTS
TCL: Setting parameter alchLambda2 to 0.8500000000000002
Info: NONBONDED TABLE R-SQUARED SPACING: 0.0625
Info: NONBONDED TABLE SIZE: 705 POINTS
TCL: Running for 1500000 steps
ETITLE: TS BOND ANGLE DIHED IMPRP ELECT VDW BOUNDARY MISC KINETIC TOTAL TEMP POTENTIAL TOTALAVG TEMPAVG PRESSURE GPRESSURE VOLUME PRESSAVG GPRESSAVG
ENERGY: 0 5.9830 9.3539 5.2972 0.0000 -10680.8306 1494.8003 0.0000 0.0000 1793.5801 -7371.8160 307.4150 -9165.3961 -7371.8160 307.4150 524.9515 630.5316 29934.9951 524.9515 630.5316
ENERGY: 300000 6.5402 11.7209 6.1827 0.0000 -10459.5058 1340.9428 0.0000 0.0000 1743.4090 -7350.7101 298.8158 -9094.1191 -7373.2460 301.2747 -635.9611 -573.2125 30276.8924 486.4766 547.1545
ENERGY: 600000 4.1641 8.1420 5.9670 0.0000 -10489.9792 1376.9906 0.0000 0.0000 1720.2464 -7374.4691 294.8458 -9094.7155 -7373.2021 300.3819 -194.7427 -135.5763 30074.1864 226.9699 284.4821
ENERGY: 900000 4.5643 9.4536 2.8845 0.0000 -10736.4726 1520.1115 0.0000 0.0000 1742.0967 -7457.3619 298.5909 -9199.4586 -7379.6422 300.0180 315.0702 357.4474 30303.7540 131.3854 182.1004
ENERGY: 1200000 2.0536 10.4007 5.4090 0.0000 -10610.3301 1385.6000 0.0000 0.0000 1787.2870 -7419.5798 306.3364 -9206.8668 -7379.1390 299.9723 -412.1262 -346.9876 30108.6018 53.2225 104.1254
ENERGY: 1500000 4.2248 9.1741 4.8605 0.0000 -10545.9969 1415.1446 0.0000 0.0000 1771.2445 -7341.3483 303.5868 -9112.5928 -7374.2689 301.1138 -129.6622 -59.1076 30400.3038 4.5729 57.8897
TCL: Running FEP window  18: Lambda1 0.8500000000000002 Lambda2 0.9000000000000002 [dLambda 0.050000000000000044]
TCL: Setting parameter firsttimestep to 0
TCL: Setting parameter alchLambda to 0.8500000000000002
Info: NONBONDED TABLE R-SQUARED SPACING: 0.0625
Info: NONBONDED TABLE SIZE: 705 POINTS
TCL: Setting parameter alchLambda2 to 0.9000000000000002
Info: NONBONDED TABLE R-SQUARED SPACING: 0.0625
Info: NONBONDED TABLE SIZE: 705 POINTS
TCL: Running for 1500000 steps
ETITLE: TS BOND ANGLE DIHED IMPRP ELECT VDW BOUNDARY MISC KINETIC TOTAL TEMP POTENTIAL TOTALAVG TEMPAVG PRESSURE GPRESSURE VOLUME PRESSAVG GPRESSAVG
ENERGY: 0 4.2248 9.1741 4.8605 0.0000 -10546.5028 1415.4134 0.0000 0.0000 1770.3709 -7342.4590 303.4371 -9112.8300 -7342.4590 303.4371 -113.4641 -43.5539 30400.3038 -113.4641 -43.5539
ENERGY: 300000 4.3792 6.0406 3.8265 0.0000 -10565.3257 1435.6713 0.0000 0.0000 1775.4564 -7339.9517 304.3087 -9115.4080 -7347.4012 303.4202 294.9216 328.5353 30126.6602 -19.4954 32.0791
ENERGY: 600000 5.9474 6.3593 4.6060 0.0000 -10669.9966 1464.2874 0.0000 0.0000 1712.6696 -7476.1267 293.5472 -9188.7964 -7375.9421 302.9760 204.5233 281.7613 29988.2206 -110.7390 -43.1111
ENERGY: 900000 1.1210 11.6971 5.0075 0.0000 -10442.6766 1329.8346 0.0000 0.0000 1712.6948 -7382.3215 293.5515 -9095.0163 -7374.5846 301.4457 -403.6432 -342.1259 29735.3258 -176.2579 -107.0567
ENERGY: 1200000 2.8751 8.7412 4.0378 0.0000 -10465.0659 1351.0767 0.0000 0.0000 1794.0226 -7304.3125 307.4909 -9098.3351 -7378.9716 301.2961 -733.1789 -680.1785 30657.1621 -225.3229 -160.1395
ENERGY: 1500000 4.1487 12.0280 2.8024 0.0000 -10538.3256 1389.8504 0.0000 0.0000 1750.7462 -7378.7499 300.0734 -9129.4961 -7375.3980 301.4897 1.0159 19.6084 30117.3572 -186.4280 -129.3020
TCL: Running FEP window  19: Lambda1 0.9000000000000002 Lambda2 0.9500000000000003 [dLambda 0.050000000000000044]
TCL: Setting parameter firsttimestep to 0
TCL: Setting parameter alchLambda to 0.9000000000000002
Info: NONBONDED TABLE R-SQUARED SPACING: 0.0625
Info: NONBONDED TABLE SIZE: 705 POINTS
TCL: Setting parameter alchLambda2 to 0.9500000000000003
Info: NONBONDED TABLE R-SQUARED SPACING: 0.0625
Info: NONBONDED TABLE SIZE: 705 POINTS
TCL: Running for 1500000 steps
ETITLE: TS BOND ANGLE DIHED IMPRP ELECT VDW BOUNDARY MISC KINETIC TOTAL TEMP POTENTIAL TOTALAVG TEMPAVG PRESSURE GPRESSURE VOLUME PRESSAVG GPRESSAVG
ENERGY: 0 4.1487 12.0280 2.8024 0.0000 -10538.9612 1389.8099 0.0000 0.0000 1749.8878 -7380.2844 299.9263 -9130.1722 -7380.2844 299.9263 -33.9224 34.9743 30117.3572 -33.9224 34.9743
ENERGY: 300000 4.5846 9.0717 4.9125 0.0000 -10522.3278 1328.5626 0.0000 0.0000 1795.8225 -7379.3738 307.7994 -9175.1963 -7403.0133 298.5042 -833.2800 -814.3220 30264.2754 -239.7219 -195.3412
ENERGY: 600000 3.4671 8.6670 3.4098 0.0000 -10484.4268 1348.7109 0.0000 0.0000 1744.3163 -7375.8557 298.9714 -9120.1720 -7384.1754 298.1434 -695.2273 -627.7744 30277.4374 -114.1888 -57.9803
ENERGY: 900000 3.3318 9.9738 2.5277 0.0000 -10482.7314 1397.1013 0.0000 0.0000 1785.5599 -7284.2368 306.0404 -9069.7967 -7382.4755 299.7638 30.4624 116.2795 30042.7985 -71.8607 -3.1123
ENERGY: 1200000 2.5018 9.7296 4.4353 0.0000 -10697.3621 1526.2557 0.0000 0.0000 1746.9030 -7407.5365 299.4147 -9154.4396 -7387.0947 300.5736 769.7662 834.1133 30226.7259 25.3288 87.7080
ENERGY: 1500000 2.7217 5.0289 2.1676 0.0000 -10672.1055 1501.6669 0.0000 0.0000 1728.6699 -7431.8505 296.2896 -9160.5204 -7390.2102 300.8872 214.5313 260.2793 30587.4756 59.8523 113.8216
TCL: Running FEP window  20: Lambda1 0.9500000000000003 Lambda2 1.0    [dLambda 0.04999999999999971]
TCL: Setting parameter firsttimestep to 0
TCL: Setting parameter alchLambda to 0.9500000000000003
Info: NONBONDED TABLE R-SQUARED SPACING: 0.0625
Info: NONBONDED TABLE SIZE: 705 POINTS
TCL: Setting parameter alchLambda2 to 1.0
Info: NONBONDED TABLE R-SQUARED SPACING: 0.0625
Info: NONBONDED TABLE SIZE: 705 POINTS
TCL: Running for 1500000 steps
ETITLE: TS BOND ANGLE DIHED IMPRP ELECT VDW BOUNDARY MISC KINETIC TOTAL TEMP POTENTIAL TOTALAVG TEMPAVG PRESSURE GPRESSURE VOLUME PRESSAVG GPRESSAVG
ENERGY: 0 2.7217 5.0289 2.1676 0.0000 -10672.5395 1502.0562 0.0000 0.0000 1727.7889 -7432.7762 296.1386 -9160.5651 -7432.7762 296.1386 202.6781 279.4572 30587.4756 202.6781 279.4572
ENERGY: 300000 6.7357 14.3574 4.4903 0.0000 -10696.9774 1509.0256 0.0000 0.0000 1779.5522 -7382.8162 305.0107 -9162.3684 -7387.9056 300.2284 547.5461 590.2519 30149.9245 318.2635 379.5037
ENERGY: 600000 5.9588 12.9764 5.6389 0.0000 -10585.8005 1402.6498 0.0000 0.0000 1805.6357 -7352.9410 309.4813 -9158.5767 -7368.4879 301.3187 -348.7971 -256.5297 30364.7872 117.4700 188.2402
ENERGY: 900000 2.8658 5.5242 4.6173 0.0000 -10601.2969 1446.8634 0.0000 0.0000 1748.8163 -7392.6100 299.7426 -9141.4263 -7383.1624 300.6688 247.4527 355.3082 29937.2249 75.6453 138.9909
ENERGY: 1200000 4.0238 5.1914 3.1437 0.0000 -10417.3856 1326.0503 0.0000 0.0000 1801.2764 -7277.7001 308.7342 -9078.9765 -7381.3513 300.8249 -373.7152 -354.8394 30009.2976 83.4672 135.7408
ENERGY: 1500000 1.0300 6.4544 5.9318 0.0000 -10591.8536 1444.2931 0.0000 0.0000 1718.2805 -7415.8637 294.5089 -9134.1442 -7378.1165 300.5404 -5.3568 11.0006 30632.6949 94.9154 145.9738
TCL: Exiting due to exit command.
