Info: SIMULATION PARAMETERS:
Info: TIMESTEP               2
Info: NUMBER OF STEPS        0
Info: STEPS PER CYCLE        10
Info: PERIODIC CELL BASIS 1  29.9269 0 0
Info: PERIODIC CELL BASIS 2  0 33.0669 0
Info: PERIODIC CELL BASIS 3  0 0 30.5621
Info: PERIODIC CELL CENTER   0 0 0
Info: WRAPPING WATERS AROUND PERIODIC BOUNDARIES ON OUTPUT.
Info: WRAPPING ALL CLUSTERS AROUND PERIODIC BOUNDARIES ON OUTPUT.
Info: FIRST LDB TIMESTEP     50
Info: LAST LDB TIMESTEP     -1
Info: HOM BACKGROUND SCALING 1
Info: PME BACKGROUND SCALING 1
Info: MIN ATOMS PER PATCH    40
Info: EMPTY PATCH LOAD       40 ATOMS
Info: VELOCITY FILE          mobley_3060426_equil.vel
Info: CENTER OF MASS MOVING INITIALLY? NO
Info: DIELECTRIC             1
Info: EXCLUDE                SCALED ONE-FOUR
Info: 1-4 ELECTROSTATICS SCALED BY 0.833333
Info: MODIFIED 1-4 VDW PARAMETERS WILL BE USED
Info: DCD FILENAME           mobley_3060426_prod.dcd
Info: DCD FREQUENCY          100000
Info: DCD FIRST STEP         100000
Info: DCD FILE WILL CONTAIN UNIT CELL DATA
Info: XST FILENAME           mobley_3060426_prod.xst
Info: XST FREQUENCY          100000
Info: NO VELOCITY DCD OUTPUT
Info: NO FORCE DCD OUTPUT
Info: OUTPUT FILENAME        mobley_3060426_prod
Info: BINARY OUTPUT FILES WILL BE USED
Info: RESTART FILENAME       mobley_3060426_prod.restart
Info: RESTART FREQUENCY      100000
Info: BINARY RESTART FILES WILL BE USED
Info: CUTOFF                 9
Info: PAIRLIST DISTANCE      11
Info: PAIRLIST SHRINK RATE   0.01
Info: PAIRLIST GROW RATE     0.01
Info: PAIRLIST TRIGGER       0.3
Info: PAIRLISTS PER CYCLE    2
Info: PAIRLISTS ENABLED
Info: MARGIN                 2
Info: HYDROGEN GROUP CUTOFF  2.5
Info: PATCH DIMENSION        15.5
Info: ENERGY OUTPUT STEPS    100000
Info: ENERGY EVALUATION STEPS    100000
Info: OUTPUT ENERGY PRECISION 4
Info: CROSSTERM ENERGY INCLUDED IN DIHEDRAL
Info: TIMING OUTPUT STEPS    1000000
Info: PRESSURE OUTPUT STEPS  100000
Info: ALCHEMICAL FEP ON
Info: FEP CURRENT LAMBDA VALUE     1
Info: FEP COMPARISON LAMBDA VALUE  0.95
Info: FEP INTRA-ALCHEMICAL NON-BONDED INTERACTIONS WILL BE RETAINED
Info: FEP INTRA-ALCHEMICAL BONDED INTERACTIONS WILL BE RETAINED
Info: FEP VDW SHIFTING COEFFICIENT 5
Info: FEP ELEC. ACTIVE FOR ANNIHILATED PARTICLES BETWEEN LAMBDA = 0 AND LAMBDA = 0.5
Info: FEP ELEC. ACTIVE FOR EXNIHILATED PARTICLES BETWEEN LAMBDA = 0.5 AND LAMBDA = 1
Info: FEP VDW ACTIVE FOR ANNIHILATED PARTICLES BETWEEN LAMBDA = 0 AND LAMBDA = 1
Info: FEP VDW ACTIVE FOR EXNIHILATED PARTICLES BETWEEN LAMBDA = 0 AND LAMBDA = 1
Info: FEP BOND ACTIVE FOR ANNIHILATED PARTICLES BETWEEN LAMBDA = 1 AND LAMBDA = 1
Info: FEP BOND ACTIVE FOR EXNIHILATED PARTICLES BETWEEN LAMBDA = 0 AND LAMBDA = 0
Info: LANGEVIN DYNAMICS ACTIVE
Info: LANGEVIN TEMPERATURE   300
Info: LANGEVIN USING BBK INTEGRATOR
Info: LANGEVIN DAMPING COEFFICIENT IS 1 INVERSE PS
Info: LANGEVIN DYNAMICS APPLIED TO HYDROGENS
Info: LANGEVIN PISTON PRESSURE CONTROL ACTIVE
Info:        TARGET PRESSURE IS 1.01325 BAR
Info:     OSCILLATION PERIOD IS 50 FS
Info:             DECAY TIME IS 25 FS
Info:     PISTON TEMPERATURE IS 300 K
Info:       PRESSURE CONTROL IS GROUP-BASED
Info:    INITIAL STRAIN RATE IS -0.000388387 -0.000388387 -0.000388387
Info:       CELL FLUCTUATION IS ISOTROPIC
Info: PARTICLE MESH EWALD (PME) ACTIVE
Info: PME TOLERANCE               1e-06
Info: PME EWALD COEFFICIENT       0.348832
Info: PME INTERPOLATION ORDER     4
Info: PME GRID DIMENSIONS         32 36 32
Info: PME MAXIMUM GRID SPACING    1
Info: PME CALCULATION WILL BE PERFORMED ON GPU
Info: FULL ELECTROSTATIC EVALUATION FREQUENCY      2
Info: USING VERLET I (r-RESPA) MTS SCHEME.
Info: C1 SPLITTING OF LONG RANGE ELECTROSTATICS
Info: PLACING ATOMS IN PATCHES BY HYDROGEN GROUPS
Info: RIGID BONDS TO HYDROGEN : ALL
Info:         ERROR TOLERANCE : 1e-08
Info:          MAX ITERATIONS : 100
Info: RIGID WATER USING SETTLE ALGORITHM
Info: RANDOM NUMBER SEED     1743911677
Info: USE HYDROGEN BONDS?    NO
Info: Using AMBER format force field!
Info: AMBER PARM FILE        mobley_3060426.prmtop
Info: COORDINATE PDB         mobley_3060426.pdb
Info: Exclusions will be read from PARM file!
Info: SCNB (VDW SCALING)     2
Info: USING ARITHMETIC MEAN TO COMBINE L-J SIGMA PARAMETERS
Info: BINARY COORDINATES     mobley_3060426_equil.coor
Info: SUMMARY OF PARAMETERS:
Info: 4 BONDS
Info: 3 ANGLES
Info:   3 HARMONIC
Info:   0 COSINE-BASED
Info: 5 DIHEDRAL
Info: 0 IMPROPER
Info: 0 CROSSTERM
Info: 0 VDW
Info: 10 VDW_PAIRS
Info: 0 NBTHOLE_PAIRS
Info: To read alchdata from file: mobley_3060426.pdb
Info: To read alchflag data from column: 5
Info: STRUCTURE SUMMARY:
Info: 2957 ATOMS
Info: 2956 BONDS
Info: 54 ANGLES
Info: 84 DIHEDRALS
Info: 0 IMPROPERS
Info: 0 CROSSTERMS
Info: 3082 EXCLUSIONS
Info: 2948 RIGID BONDS
Info: ALCH: 0 ATOMS TO DISAPPEAR IN FINAL STATE
Info: ALCH: 29 ATOMS TO APPEAR IN FINAL STATE
Info: 5923 DEGREES OF FREEDOM
Info: 985 HYDROGEN GROUPS
Info: 4 ATOMS IN LARGEST HYDROGEN GROUP
Info: 985 MIGRATION GROUPS
Info: 4 ATOMS IN LARGEST MIGRATION GROUP
Info: TOTAL MASS = 17711.9 amu
Info: TOTAL CHARGE = 0.00029999 e
Info: MASS DENSITY = 0.972489 g/cm^3
Info: ATOM DENSITY = 0.0977715 atoms/A^3
Info: ADDED 0 IMPLICIT EXCLUSIONS
Info: NONBONDED TABLE R-SQUARED SPACING: 0.0625
Info: NONBONDED TABLE SIZE: 705 POINTS
Info: REMOVING COM VELOCITY 0.0756151 0.139712 0.0178505
Info: Use 3D box decompostion in PME FFT.
Info: Updated CUDA force table with 4096 elements.
Info: Updated CUDA LJ table with 4 x 4 elements.
Info: Found 32 unique exclusion lists needing 124 bytes
TCL: Running for 1500000 steps
ETITLE: TS BOND ANGLE DIHED IMPRP ELECT VDW BOUNDARY MISC KINETIC TOTAL TEMP POTENTIAL TOTALAVG TEMPAVG PRESSURE GPRESSURE VOLUME PRESSAVG GPRESSAVG
ENERGY: 0 1.5404 10.4895 7.4326 0.0000 -10787.4533 1576.6512 0.0000 0.0000 1735.1707 -7456.1689 294.8430 -9191.3396 -7456.1689 294.8430 1203.3749 1298.2448 30243.9773 1203.3749 1298.2448
ENERGY: 300000 2.2817 13.6059 4.0627 0.0000 -10753.3207 1455.6505 0.0000 0.0000 1696.2182 -7581.5017 288.2242 -9277.7199 -7482.0258 295.9002 -22.5707 24.1258 30596.3368 458.5722 533.5983
ENERGY: 600000 2.3504 14.9987 4.2448 0.0000 -10753.8318 1455.2235 0.0000 0.0000 1763.2910 -7513.7235 299.6213 -9277.0145 -7500.8577 294.9985 128.8818 273.5026 30073.1693 342.0068 439.6756
ENERGY: 900000 5.2219 14.0156 4.5785 0.0000 -10560.3149 1375.9116 0.0000 0.0000 1798.6067 -7361.9805 305.6222 -9160.5872 -7471.1811 297.8216 -455.5341 -436.2188 30902.2772 182.9455 270.1536
ENERGY: 1200000 3.4199 13.4692 4.2825 0.0000 -10691.6395 1422.4377 0.0000 0.0000 1772.5210 -7475.5091 301.1896 -9248.0301 -7466.3520 298.5017 -132.6871 -35.5842 30344.0621 132.5502 216.2158
ENERGY: 1500000 2.2906 11.0562 6.1120 0.0000 -10649.5496 1441.6749 0.0000 0.0000 1815.0897 -7373.3263 308.4230 -9188.4160 -7465.8268 299.2248 279.2610 403.4881 30114.8763 189.7893 269.6870
TCL: Running FEP window   2: Lambda1 0.95   Lambda2 0.8999999999999999 [dLambda -0.050000000000000044]
TCL: Setting parameter firsttimestep to 0
TCL: Setting parameter alchLambda to 0.95
Info: NONBONDED TABLE R-SQUARED SPACING: 0.0625
Info: NONBONDED TABLE SIZE: 705 POINTS
TCL: Setting parameter alchLambda2 to 0.8999999999999999
Info: NONBONDED TABLE R-SQUARED SPACING: 0.0625
Info: NONBONDED TABLE SIZE: 705 POINTS
TCL: Running for 1500000 steps
ETITLE: TS BOND ANGLE DIHED IMPRP ELECT VDW BOUNDARY MISC KINETIC TOTAL TEMP POTENTIAL TOTALAVG TEMPAVG PRESSURE GPRESSURE VOLUME PRESSAVG GPRESSAVG
ENERGY: 0 2.2906 11.0562 6.1120 0.0000 -10649.5327 1442.5381 0.0000 0.0000 1814.2444 -7373.2915 308.2794 -9187.5359 -7373.2915 308.2794 311.3452 400.8759 30114.8763 311.3452 400.8759
ENERGY: 300000 2.8796 13.7908 4.8084 0.0000 -10644.8012 1411.6696 0.0000 0.0000 1782.1640 -7429.4888 302.8282 -9211.6528 -7413.4183 303.3742 206.9121 273.6330 30050.5817 13.3923 70.7680
ENERGY: 600000 1.9591 22.8214 5.0725 0.0000 -10597.5051 1378.9478 0.0000 0.0000 1794.1812 -7394.5232 304.8702 -9188.7044 -7417.1604 303.1403 -404.6070 -330.7855 30587.6160 -141.5015 -85.3365
ENERGY: 900000 4.6003 12.9420 4.4050 0.0000 -10769.6769 1520.2943 0.0000 0.0000 1760.0461 -7467.3892 299.0699 -9227.4352 -7416.2973 302.4142 338.7641 390.5281 30628.2977 -53.9869 11.6205
ENERGY: 1200000 1.5679 18.6554 6.6611 0.0000 -10704.0278 1482.6481 0.0000 0.0000 1704.7916 -7489.7037 289.6810 -9194.4954 -7431.1876 301.3333 524.7480 618.9035 29903.5379 53.3849 118.9443
ENERGY: 1500000 5.7548 12.1075 4.0589 0.0000 -10606.4917 1396.9930 0.0000 0.0000 1798.2907 -7389.2867 305.5685 -9187.5774 -7426.3828 301.8969 -587.7062 -551.8332 31196.1713 56.3046 125.8513
TCL: Running FEP window   3: Lambda1 0.8999999999999999 Lambda2 0.8499999999999999 [dLambda -0.050000000000000044]
TCL: Setting parameter firsttimestep to 0
TCL: Setting parameter alchLambda to 0.8999999999999999
Info: NONBONDED TABLE R-SQUARED SPACING: 0.0625
Info: NONBONDED TABLE SIZE: 705 POINTS
TCL: Setting parameter alchLambda2 to 0.8499999999999999
Info: NONBONDED TABLE R-SQUARED SPACING: 0.0625
Info: NONBONDED TABLE SIZE: 705 POINTS
TCL: Running for 1500000 steps
ETITLE: TS BOND ANGLE DIHED IMPRP ELECT VDW BOUNDARY MISC KINETIC TOTAL TEMP POTENTIAL TOTALAVG TEMPAVG PRESSURE GPRESSURE VOLUME PRESSAVG GPRESSAVG
ENERGY: 0 5.7548 12.1075 4.0589 0.0000 -10606.4772 1397.1479 0.0000 0.0000 1797.4079 -7390.0002 305.4185 -9187.4081 -7390.0002 305.4185 -649.3740 -563.1303 31196.1713 -649.3740 -563.1303
ENERGY: 300000 7.9029 17.2729 5.5504 0.0000 -10471.4881 1264.8433 0.0000 0.0000 1802.5903 -7373.3284 306.2991 -9175.9187 -7404.6880 300.8683 -1520.4840 -1446.6771 30750.6973 -531.6647 -469.0736
ENERGY: 600000 4.9330 12.3718 6.6884 0.0000 -10632.6148 1405.6563 0.0000 0.0000 1754.3648 -7448.6006 298.1045 -9202.9654 -7386.0659 301.1697 -400.1150 -366.1971 30747.2146 -259.2695 -213.6987
ENERGY: 900000 2.7430 14.2034 5.2152 0.0000 -10584.8445 1390.8619 0.0000 0.0000 1760.7108 -7411.1103 299.1828 -9171.8211 -7404.4522 301.9759 -424.8296 -354.0726 30631.9278 -173.6216 -116.9272
ENERGY: 1200000 1.6008 11.8718 4.5773 0.0000 -10604.7233 1338.9365 0.0000 0.0000 1733.8624 -7513.8745 294.6207 -9247.7369 -7427.5650 300.2617 -825.4313 -781.8116 30398.1951 -257.0772 -193.4434
ENERGY: 1500000 1.8932 10.6786 4.0644 0.0000 -10725.7736 1519.8397 0.0000 0.0000 1764.7975 -7424.5003 299.8773 -9189.2977 -7428.9116 299.9312 864.3241 909.1973 30243.0651 -164.6016 -101.8091
TCL: Running FEP window   4: Lambda1 0.8499999999999999 Lambda2 0.7999999999999998 [dLambda -0.050000000000000044]
TCL: Setting parameter firsttimestep to 0
TCL: Setting parameter alchLambda to 0.8499999999999999
Info: NONBONDED TABLE R-SQUARED SPACING: 0.0625
Info: NONBONDED TABLE SIZE: 705 POINTS
TCL: Setting parameter alchLambda2 to 0.7999999999999998
Info: NONBONDED TABLE R-SQUARED SPACING: 0.0625
Info: NONBONDED TABLE SIZE: 705 POINTS
TCL: Running for 1500000 steps
ETITLE: TS BOND ANGLE DIHED IMPRP ELECT VDW BOUNDARY MISC KINETIC TOTAL TEMP POTENTIAL TOTALAVG TEMPAVG PRESSURE GPRESSURE VOLUME PRESSAVG GPRESSAVG
ENERGY: 0 1.8932 10.6786 4.0644 0.0000 -10725.7846 1520.5079 0.0000 0.0000 1763.9302 -7424.7103 299.7299 -9188.6405 -7424.7103 299.7299 832.3578 908.1116 30243.0651 832.3578 908.1116
ENERGY: 300000 1.8609 15.9009 4.4112 0.0000 -10670.3444 1397.3162 0.0000 0.0000 1715.0678 -7535.7874 291.4271 -9250.8553 -7455.8615 296.7515 -443.0390 -332.7431 30553.1485 33.3352 85.8971
ENERGY: 600000 4.6859 12.6781 4.5787 0.0000 -10571.7005 1405.7845 0.0000 0.0000 1707.0864 -7436.8867 290.0709 -9143.9732 -7463.2076 296.9829 -13.9412 19.7856 30418.1981 -18.5008 43.1176
ENERGY: 900000 1.9599 14.8249 5.2967 0.0000 -10622.0889 1396.3595 0.0000 0.0000 1793.7793 -7409.8686 304.8019 -9203.6479 -7464.0007 297.4186 -104.7059 29.6833 30228.2064 -66.4312 0.6633
ENERGY: 1200000 2.3174 9.1497 3.5202 0.0000 -10663.8710 1392.8788 0.0000 0.0000 1804.6478 -7451.3571 306.6487 -9256.0049 -7458.9201 298.7354 -353.2029 -218.4591 30210.7523 -113.0012 -40.1342
ENERGY: 1500000 1.3381 9.4706 5.5449 0.0000 -10612.9715 1383.1473 0.0000 0.0000 1762.9576 -7450.5131 299.5646 -9213.4706 -7462.5009 299.1803 -527.9458 -482.7377 30714.1305 -74.4151 -8.8794
TCL: Running FEP window   5: Lambda1 0.7999999999999998 Lambda2 0.7499999999999998 [dLambda -0.050000000000000044]
TCL: Setting parameter firsttimestep to 0
TCL: Setting parameter alchLambda to 0.7999999999999998
Info: NONBONDED TABLE R-SQUARED SPACING: 0.0625
Info: NONBONDED TABLE SIZE: 705 POINTS
TCL: Setting parameter alchLambda2 to 0.7499999999999998
Info: NONBONDED TABLE R-SQUARED SPACING: 0.0625
Info: NONBONDED TABLE SIZE: 705 POINTS
TCL: Running for 1500000 steps
ETITLE: TS BOND ANGLE DIHED IMPRP ELECT VDW BOUNDARY MISC KINETIC TOTAL TEMP POTENTIAL TOTALAVG TEMPAVG PRESSURE GPRESSURE VOLUME PRESSAVG GPRESSAVG
ENERGY: 0 1.3381 9.4706 5.5449 0.0000 -10612.9799 1383.8699 0.0000 0.0000 1762.1299 -7450.6265 299.4240 -9212.7564 -7450.6265 299.4240 -578.9269 -486.8376 30714.1305 -578.9269 -486.8376
ENERGY: 300000 2.2915 17.1190 4.9281 0.0000 -10634.3769 1413.9016 0.0000 0.0000 1773.9297 -7422.2071 301.4290 -9196.1368 -7404.6376 303.2789 -490.3721 -396.8649 30832.6181 -406.9674 -326.2904
ENERGY: 600000 5.6901 13.8681 5.1467 0.0000 -10599.2225 1393.1805 0.0000 0.0000 1739.9819 -7441.3551 295.6606 -9181.3370 -7415.9876 303.1487 -157.6523 -130.1452 29866.3625 -182.9210 -122.1252
ENERGY: 900000 1.6774 13.7806 3.1988 0.0000 -10603.3276 1443.1441 0.0000 0.0000 1850.9163 -7290.6105 314.5107 -9141.5267 -7397.7945 304.4288 424.7262 486.2411 30426.2194 -98.2406 -31.9357
ENERGY: 1200000 2.1342 14.1490 4.3326 0.0000 -10729.2150 1488.9016 0.0000 0.0000 1745.4758 -7474.2219 296.5941 -9219.6977 -7414.7315 302.8007 478.4109 537.8244 30050.3857 21.6251 83.9950
ENERGY: 1500000 2.1541 13.1476 5.6824 0.0000 -10564.9744 1341.1549 0.0000 0.0000 1808.1587 -7394.6767 307.2453 -9202.8354 -7409.6507 303.0809 -474.8693 -404.4068 30395.4921 -40.5811 20.9701
TCL: Running FEP window   6: Lambda1 0.7499999999999998 Lambda2 0.6999999999999997 [dLambda -0.050000000000000044]
TCL: Setting parameter firsttimestep to 0
TCL: Setting parameter alchLambda to 0.7499999999999998
Info: NONBONDED TABLE R-SQUARED SPACING: 0.0625
Info: NONBONDED TABLE SIZE: 705 POINTS
TCL: Setting parameter alchLambda2 to 0.6999999999999997
Info: NONBONDED TABLE R-SQUARED SPACING: 0.0625
Info: NONBONDED TABLE SIZE: 705 POINTS
TCL: Running for 1500000 steps
ETITLE: TS BOND ANGLE DIHED IMPRP ELECT VDW BOUNDARY MISC KINETIC TOTAL TEMP POTENTIAL TOTALAVG TEMPAVG PRESSURE GPRESSURE VOLUME PRESSAVG GPRESSAVG
ENERGY: 0 2.1541 13.1476 5.6824 0.0000 -10564.9672 1341.6425 0.0000 0.0000 1807.2575 -7395.0831 307.0921 -9202.3407 -7395.0831 307.0921 -493.1027 -409.5869 30395.4921 -493.1027 -409.5869
ENERGY: 300000 2.5156 17.0659 5.5003 0.0000 -10689.0705 1391.1302 0.0000 0.0000 1789.7092 -7483.1495 304.1103 -9272.8586 -7417.6081 304.7736 -328.2905 -242.8163 29936.4649 -455.1357 -385.6222
ENERGY: 600000 2.6282 14.7118 5.1224 0.0000 -10595.4764 1346.5331 0.0000 0.0000 1777.6072 -7448.8737 302.0539 -9226.4809 -7441.7186 302.9846 -844.7546 -760.9280 30912.8610 -407.5292 -322.6115
ENERGY: 900000 1.8228 11.0621 5.4763 0.0000 -10712.2028 1447.8238 0.0000 0.0000 1786.3256 -7459.6923 303.5353 -9246.0179 -7454.0875 302.0661 -6.9969 27.2199 30429.8897 -262.2200 -188.7350
ENERGY: 1200000 1.7395 10.5404 3.9643 0.0000 -10551.3666 1428.6411 0.0000 0.0000 1749.9596 -7356.5217 297.3560 -9106.4813 -7438.8869 301.7045 -54.4331 64.0629 30905.9778 -341.4112 -270.2015
ENERGY: 1500000 3.0757 19.8626 4.9242 0.0000 -10575.3388 1390.1905 0.0000 0.0000 1714.2223 -7443.0635 291.2834 -9157.2858 -7446.2212 300.9180 -520.8230 -368.6897 30449.5258 -349.9815 -276.1930
TCL: Running FEP window   7: Lambda1 0.6999999999999997 Lambda2 0.6499999999999997 [dLambda -0.050000000000000044]
TCL: Setting parameter firsttimestep to 0
TCL: Setting parameter alchLambda to 0.6999999999999997
Info: NONBONDED TABLE R-SQUARED SPACING: 0.0625
Info: NONBONDED TABLE SIZE: 705 POINTS
TCL: Setting parameter alchLambda2 to 0.6499999999999997
Info: NONBONDED TABLE R-SQUARED SPACING: 0.0625
Info: NONBONDED TABLE SIZE: 705 POINTS
TCL: Running for 1500000 steps
ETITLE: TS BOND ANGLE DIHED IMPRP ELECT VDW BOUNDARY MISC KINETIC TOTAL TEMP POTENTIAL TOTALAVG TEMPAVG PRESSURE GPRESSURE VOLUME PRESSAVG GPRESSAVG
ENERGY: 0 3.0757 19.8626 4.9242 0.0000 -10575.3254 1390.8174 0.0000 0.0000 1713.3474 -7443.2981 291.1348 -9156.6455 -7443.2981 291.1348 -473.0699 -372.1968 30449.5258 -473.0699 -372.1968
ENERGY: 300000 2.4662 16.3967 5.7485 0.0000 -10696.0375 1464.7830 0.0000 0.0000 1768.2471 -7438.3960 300.4634 -9206.6431 -7420.5629 301.3735 -205.4737 -88.6501 30849.1461 218.8471 317.5650
ENERGY: 600000 5.6989 15.1641 7.5133 0.0000 -10628.1780 1406.3479 0.0000 0.0000 1736.0944 -7457.3594 295.0000 -9193.4538 -7441.1674 299.1531 -423.1427 -358.8571 30556.1410 179.8855 252.8179
ENERGY: 900000 0.7913 15.9184 5.4842 0.0000 -10663.0784 1438.3897 0.0000 0.0000 1779.6688 -7422.8260 302.4042 -9202.4948 -7446.5557 298.2111 262.8733 302.1616 30387.8187 140.1538 210.5059
ENERGY: 1200000 3.3742 11.1875 3.8031 0.0000 -10444.7725 1359.6841 0.0000 0.0000 1741.6548 -7325.0689 295.9448 -9066.7236 -7442.8938 297.9610 -325.7219 -268.5442 30549.8094 112.6942 180.5447
ENERGY: 1500000 0.7044 14.3121 5.5514 0.0000 -10615.4692 1422.8037 0.0000 0.0000 1802.1518 -7369.9459 306.2246 -9172.0977 -7445.0045 298.4327 215.2726 285.2919 30141.8774 105.1523 175.8746
TCL: Running FEP window   8: Lambda1 0.6499999999999997 Lambda2 0.5999999999999996 [dLambda -0.050000000000000044]
TCL: Setting parameter firsttimestep to 0
TCL: Setting parameter alchLambda to 0.6499999999999997
Info: NONBONDED TABLE R-SQUARED SPACING: 0.0625
Info: NONBONDED TABLE SIZE: 705 POINTS
TCL: Setting parameter alchLambda2 to 0.5999999999999996
Info: NONBONDED TABLE R-SQUARED SPACING: 0.0625
Info: NONBONDED TABLE SIZE: 705 POINTS
TCL: Running for 1500000 steps
ETITLE: TS BOND ANGLE DIHED IMPRP ELECT VDW BOUNDARY MISC KINETIC TOTAL TEMP POTENTIAL TOTALAVG TEMPAVG PRESSURE GPRESSURE VOLUME PRESSAVG GPRESSAVG
ENERGY: 0 0.7044 14.3121 5.5514 0.0000 -10615.4535 1423.4551 0.0000 0.0000 1801.2946 -7370.1360 306.0789 -9171.4306 -7370.1360 306.0789 206.8568 281.6263 30141.8774 206.8568 281.6263
ENERGY: 300000 5.0338 15.4451 4.8430 0.0000 -10664.8996 1404.2909 0.0000 0.0000 1723.9447 -7511.3421 292.9355 -9235.2868 -7470.0092 298.3571 -368.0961 -313.3549 30227.6634 -74.1574 -39.8860
ENERGY: 600000 7.0999 17.4053 5.4496 0.0000 -10610.4351 1361.3749 0.0000 0.0000 1736.5046 -7482.6008 295.0697 -9219.1055 -7457.6941 298.8865 -906.9685 -880.8554 30333.1446 -177.8235 -130.7132
ENERGY: 900000 1.9823 16.9681 5.0061 0.0000 -10812.6599 1563.0218 0.0000 0.0000 1771.5774 -7454.1041 301.0293 -9225.6815 -7451.1619 298.6269 741.4143 744.1682 30604.6577 -61.5645 -17.7409
ENERGY: 1200000 2.7759 11.3359 4.7024 0.0000 -10677.7259 1413.4563 0.0000 0.0000 1780.0712 -7465.3841 302.4726 -9245.4553 -7451.5485 298.7849 -52.7099 -28.9627 30137.9294 -62.4146 -10.1108
ENERGY: 1500000 3.3921 16.8317 4.7396 0.0000 -10599.2149 1339.3012 0.0000 0.0000 1816.2391 -7418.7112 308.6183 -9234.9503 -7456.5942 299.0801 -1055.9384 -920.6148 30664.9335 -75.5373 -18.7056
TCL: Running FEP window   9: Lambda1 0.5999999999999996 Lambda2 0.5499999999999996 [dLambda -0.050000000000000044]
TCL: Setting parameter firsttimestep to 0
TCL: Setting parameter alchLambda to 0.5999999999999996
Info: NONBONDED TABLE R-SQUARED SPACING: 0.0625
Info: NONBONDED TABLE SIZE: 705 POINTS
TCL: Setting parameter alchLambda2 to 0.5499999999999996
Info: NONBONDED TABLE R-SQUARED SPACING: 0.0625
Info: NONBONDED TABLE SIZE: 705 POINTS
TCL: Running for 1500000 steps
ETITLE: TS BOND ANGLE DIHED IMPRP ELECT VDW BOUNDARY MISC KINETIC TOTAL TEMP POTENTIAL TOTALAVG TEMPAVG PRESSURE GPRESSURE VOLUME PRESSAVG GPRESSAVG
ENERGY: 0 3.3921 16.8317 4.7396 0.0000 -10599.2102 1339.5956 0.0000 0.0000 1815.3972 -7419.2539 308.4752 -9234.6511 -7419.2539 308.4752 -1011.2777 -929.0866 30664.9335 -1011.2777 -929.0866
ENERGY: 300000 2.0731 17.6999 7.4965 0.0000 -10529.9920 1374.2985 0.0000 0.0000 1767.1602 -7361.2638 300.2787 -9128.4240 -7369.3583 306.7597 -171.7485 -131.6509 30420.2613 -533.2914 -466.4249
ENERGY: 600000 2.6143 8.8343 6.7803 0.0000 -10634.5013 1453.2322 0.0000 0.0000 1800.6375 -7362.4027 305.9672 -9163.0402 -7393.9010 305.2256 168.0553 250.3372 30476.1990 -298.8533 -228.2080
ENERGY: 900000 7.6700 14.7531 4.1987 0.0000 -10666.3755 1443.9090 0.0000 0.0000 1764.0099 -7431.8349 299.7434 -9195.8448 -7405.3037 303.6954 74.0819 161.4036 30343.8486 -289.7066 -214.4345
ENERGY: 1200000 2.5695 15.2035 4.6715 0.0000 -10739.6827 1489.2910 0.0000 0.0000 1721.5737 -7506.3735 292.5326 -9227.9472 -7423.3238 302.7835 253.4370 302.8449 30429.2200 -152.1322 -80.2857
ENERGY: 1500000 1.4560 14.7425 4.4646 0.0000 -10687.8419 1466.7251 0.0000 0.0000 1710.0278 -7490.4260 290.5707 -9200.4538 -7424.9333 301.9271 354.8845 405.5116 30233.4667 -133.5069 -70.0951
TCL: Running FEP window  10: Lambda1 0.5499999999999996 Lambda2 0.4999999999999996 [dLambda -0.04999999999999999]
TCL: Setting parameter firsttimestep to 0
TCL: Setting parameter alchLambda to 0.5499999999999996
Info: NONBONDED TABLE R-SQUARED SPACING: 0.0625
Info: NONBONDED TABLE SIZE: 705 POINTS
TCL: Setting parameter alchLambda2 to 0.4999999999999996
Info: NONBONDED TABLE R-SQUARED SPACING: 0.0625
Info: NONBONDED TABLE SIZE: 705 POINTS
TCL: Running for 1500000 steps
ETITLE: TS BOND ANGLE DIHED IMPRP ELECT VDW BOUNDARY MISC KINETIC TOTAL TEMP POTENTIAL TOTALAVG TEMPAVG PRESSURE GPRESSURE VOLUME PRESSAVG GPRESSAVG
ENERGY: 0 1.4560 14.7425 4.4646 0.0000 -10687.8871 1466.8874 0.0000 0.0000 1709.1482 -7491.1885 290.4212 -9200.3366 -7491.1885 290.4212 308.9195 395.2118 30233.4667 308.9195 395.2118
ENERGY: 300000 4.2353 18.0399 6.8771 0.0000 -10642.7386 1453.2869 0.0000 0.0000 1808.2259 -7352.0735 307.2567 -9160.2994 -7374.7201 302.6452 174.3163 263.3977 30179.5251 -172.6316 -97.0966
ENERGY: 600000 2.6195 10.7022 3.8408 0.0000 -10683.3963 1389.2715 0.0000 0.0000 1774.4875 -7502.4748 301.5238 -9276.9623 -7391.2340 301.9582 -603.8420 -472.7387 30287.1329 -170.2527 -95.0842
ENERGY: 900000 0.9875 16.1851 4.8591 0.0000 -10588.1952 1395.9151 0.0000 0.0000 1814.6962 -7355.5524 308.3561 -9170.2485 -7395.7495 302.1129 -352.6162 -301.9479 30871.5425 -232.3244 -166.8688
ENERGY: 1200000 3.0616 11.6770 3.1068 0.0000 -10676.2634 1476.2984 0.0000 0.0000 1810.5321 -7371.5874 307.6486 -9182.1195 -7401.0088 301.9903 355.4695 342.6989 30547.3715 -155.3365 -98.1855
ENERGY: 1500000 2.3305 15.4689 4.2870 0.0000 -10701.9050 1501.2352 0.0000 0.0000 1774.0671 -7404.5163 301.4524 -9178.5834 -7396.7355 302.2218 554.1403 586.1937 30467.5503 -124.8130 -65.2783
TCL: Running FEP window  11: Lambda1 0.4999999999999996 Lambda2 0.4499999999999996 [dLambda -0.04999999999999999]
TCL: Setting parameter firsttimestep to 0
TCL: Setting parameter alchLambda to 0.4999999999999996
Info: NONBONDED TABLE R-SQUARED SPACING: 0.0625
Info: NONBONDED TABLE SIZE: 705 POINTS
TCL: Setting parameter alchLambda2 to 0.4499999999999996
Info: NONBONDED TABLE R-SQUARED SPACING: 0.0625
Info: NONBONDED TABLE SIZE: 705 POINTS
TCL: Running for 1500000 steps
ETITLE: TS BOND ANGLE DIHED IMPRP ELECT VDW BOUNDARY MISC KINETIC TOTAL TEMP POTENTIAL TOTALAVG TEMPAVG PRESSURE GPRESSURE VOLUME PRESSAVG GPRESSAVG
ENERGY: 0 2.3305 15.4689 4.2870 0.0000 -10701.9084 1501.2781 0.0000 0.0000 1773.1733 -7405.3706 301.3005 -9178.5440 -7405.3706 301.3005 490.1274 576.4353 30467.5503 490.1274 576.4353
ENERGY: 300000 2.1848 18.1571 5.2334 0.0000 -10699.7854 1484.1435 0.0000 0.0000 1771.2527 -7418.8140 300.9741 -9190.0667 -7427.7534 301.4759 424.2442 532.6409 30142.9203 -153.3754 -68.2225
ENERGY: 600000 2.8604 17.4889 5.4610 0.0000 -10565.8751 1390.1955 0.0000 0.0000 1747.8482 -7402.0211 296.9972 -9149.8692 -7450.3443 300.0464 -265.8470 -92.8660 30124.4835 -76.5525 -9.8640
ENERGY: 900000 4.8417 14.9835 8.4903 0.0000 -10616.1993 1434.6721 0.0000 0.0000 1697.1126 -7456.0990 288.3761 -9153.2116 -7441.0899 299.3883 -32.6412 56.0694 30167.9010 -36.9127 38.4032
ENERGY: 1200000 3.2443 11.7720 6.4159 0.0000 -10722.8267 1479.2882 0.0000 0.0000 1758.7123 -7463.3940 298.8433 -9222.1063 -7434.5142 299.7750 581.5619 590.6389 29786.0993 -23.9531 41.9188
ENERGY: 1500000 3.3711 12.1471 6.3386 0.0000 -10576.0000 1384.9352 0.0000 0.0000 1731.4177 -7437.7904 294.2053 -9169.2081 -7427.2084 299.8651 -599.6877 -501.9457 30866.2841 -157.4984 -91.9801
TCL: Running FEP window  12: Lambda1 0.4499999999999996 Lambda2 0.39999999999999963 [dLambda -0.04999999999999999]
TCL: Setting parameter firsttimestep to 0
TCL: Setting parameter alchLambda to 0.4499999999999996
Info: NONBONDED TABLE R-SQUARED SPACING: 0.0625
Info: NONBONDED TABLE SIZE: 705 POINTS
TCL: Setting parameter alchLambda2 to 0.39999999999999963
Info: NONBONDED TABLE R-SQUARED SPACING: 0.0625
Info: NONBONDED TABLE SIZE: 705 POINTS
TCL: Running for 1500000 steps
ETITLE: TS BOND ANGLE DIHED IMPRP ELECT VDW BOUNDARY MISC KINETIC TOTAL TEMP POTENTIAL TOTALAVG TEMPAVG PRESSURE GPRESSURE VOLUME PRESSAVG GPRESSAVG
ENERGY: 0 3.3711 12.1471 6.3386 0.0000 -10575.9993 1385.4681 0.0000 0.0000 1730.5623 -7438.1122 294.0600 -9168.6745 -7438.1122 294.0600 -592.4980 -505.5297 30866.2841 -592.4980 -505.5297
ENERGY: 300000 4.1319 12.8314 4.0073 0.0000 -10688.8292 1420.3565 0.0000 0.0000 1822.8457 -7424.6564 309.7409 -9247.5021 -7428.0445 301.1192 -37.4909 70.8296 30037.9914 -229.2050 -157.8693
ENERGY: 600000 4.1837 10.6589 4.1163 0.0000 -10722.3824 1441.4734 0.0000 0.0000 1777.8763 -7484.0738 302.0996 -9261.9501 -7440.9991 300.4221 -254.2394 -129.3863 30069.2704 -185.0499 -100.6112
ENERGY: 900000 4.6440 13.8162 3.7619 0.0000 -10690.6249 1481.5629 0.0000 0.0000 1815.4516 -7371.3883 308.4845 -9186.8399 -7433.6160 300.8820 498.1679 506.2976 30186.3938 -82.9909 -13.5336
ENERGY: 1200000 4.3112 14.4197 4.3266 0.0000 -10628.8666 1381.7222 0.0000 0.0000 1793.7601 -7430.3268 304.7986 -9224.0868 -7437.0672 301.1883 -628.9836 -623.5966 30512.4873 -83.7362 -25.0909
ENERGY: 1500000 1.9192 16.7320 3.9912 0.0000 -10568.0664 1381.7612 0.0000 0.0000 1797.6769 -7365.9860 305.4642 -9163.6629 -7431.8824 301.4963 -200.7647 -131.0439 30371.7164 -69.2357 -14.4157
TCL: Running FEP window  13: Lambda1 0.39999999999999963 Lambda2 0.34999999999999964 [dLambda -0.04999999999999999]
TCL: Setting parameter firsttimestep to 0
TCL: Setting parameter alchLambda to 0.39999999999999963
Info: NONBONDED TABLE R-SQUARED SPACING: 0.0625
Info: NONBONDED TABLE SIZE: 705 POINTS
TCL: Setting parameter alchLambda2 to 0.34999999999999964
Info: NONBONDED TABLE R-SQUARED SPACING: 0.0625
Info: NONBONDED TABLE SIZE: 705 POINTS
TCL: Running for 1500000 steps
ETITLE: TS BOND ANGLE DIHED IMPRP ELECT VDW BOUNDARY MISC KINETIC TOTAL TEMP POTENTIAL TOTALAVG TEMPAVG PRESSURE GPRESSURE VOLUME PRESSAVG GPRESSAVG
ENERGY: 0 1.9192 16.7320 3.9912 0.0000 -10568.0655 1381.6141 0.0000 0.0000 1796.8001 -7367.0089 305.3152 -9163.8090 -7367.0089 305.3152 -207.4124 -140.4187 30371.7164 -207.4124 -140.4187
ENERGY: 300000 1.0070 17.6447 6.2416 0.0000 -10604.8527 1395.2618 0.0000 0.0000 1751.5605 -7433.1371 297.6280 -9184.6976 -7419.1570 302.1576 -252.2492 -162.4853 30280.4612 -35.9632 40.9364
ENERGY: 600000 3.2289 13.4190 7.0292 0.0000 -10612.5522 1381.3780 0.0000 0.0000 1807.0506 -7400.4465 307.0570 -9207.4971 -7415.8433 302.7071 -537.7829 -514.2040 30432.1239 -115.4057 -58.5906
ENERGY: 900000 2.9324 14.1819 5.1091 0.0000 -10580.5539 1405.8216 0.0000 0.0000 1726.4089 -7426.1001 293.3542 -9152.5090 -7403.2244 301.9119 16.2625 69.0594 30101.9702 -97.1143 -51.2849
ENERGY: 1200000 1.3068 15.1458 5.2987 0.0000 -10725.5568 1485.7268 0.0000 0.0000 1845.9055 -7372.1732 313.6593 -9218.0787 -7403.1984 302.8827 209.0091 209.4149 30788.9137 -102.7944 -63.7518
ENERGY: 1500000 5.7700 14.2503 4.1679 0.0000 -10507.6540 1347.0117 0.0000 0.0000 1718.3981 -7418.0561 291.9930 -9136.4542 -7407.8416 302.4725 -733.2555 -664.7645 30494.0756 -191.0917 -146.8102
TCL: Running FEP window  14: Lambda1 0.34999999999999964 Lambda2 0.29999999999999966 [dLambda -0.04999999999999999]
TCL: Setting parameter firsttimestep to 0
TCL: Setting parameter alchLambda to 0.34999999999999964
Info: NONBONDED TABLE R-SQUARED SPACING: 0.0625
Info: NONBONDED TABLE SIZE: 705 POINTS
TCL: Setting parameter alchLambda2 to 0.29999999999999966
Info: NONBONDED TABLE R-SQUARED SPACING: 0.0625
Info: NONBONDED TABLE SIZE: 705 POINTS
TCL: Running for 1500000 steps
ETITLE: TS BOND ANGLE DIHED IMPRP ELECT VDW BOUNDARY MISC KINETIC TOTAL TEMP POTENTIAL TOTALAVG TEMPAVG PRESSURE GPRESSURE VOLUME PRESSAVG GPRESSAVG
ENERGY: 0 5.7700 14.2503 4.1679 0.0000 -10507.6552 1347.1967 0.0000 0.0000 1717.5077 -7418.7626 291.8417 -9136.2703 -7418.7626 291.8417 -759.9636 -668.0041 30494.0756 -759.9636 -668.0041
ENERGY: 300000 2.7464 14.4732 7.2335 0.0000 -10646.1568 1366.9878 0.0000 0.0000 1750.1465 -7504.5693 297.3877 -9254.7158 -7465.5447 294.3530 -725.7560 -663.2598 30215.3677 -283.0337 -199.9204
ENERGY: 600000 7.0433 16.7208 5.3375 0.0000 -10588.7522 1382.5720 0.0000 0.0000 1783.5858 -7393.4927 303.0698 -9177.0786 -7453.7502 297.9066 -724.9700 -671.3087 30649.4907 -142.0185 -68.8122
ENERGY: 900000 2.2631 10.0225 5.1292 0.0000 -10475.9189 1280.3961 0.0000 0.0000 1774.0068 -7404.1011 301.4421 -9178.1079 -7442.3763 298.5996 -1207.7254 -1183.1884 30492.7610 -171.7629 -101.6515
ENERGY: 1200000 1.3472 15.7964 6.5926 0.0000 -10734.1755 1401.3088 0.0000 0.0000 1835.1818 -7473.9487 311.8371 -9309.1304 -7436.7085 300.4149 -411.4467 -369.1369 30176.2941 -141.7860 -68.0041
ENERGY: 1500000 4.7287 8.4859 4.0710 0.0000 -10808.5846 1482.0966 0.0000 0.0000 1793.7552 -7515.4474 304.7978 -9309.2025 -7447.2753 300.9070 102.1628 199.1852 29882.6676 -147.5821 -72.9950
TCL: Running FEP window  15: Lambda1 0.29999999999999966 Lambda2 0.24999999999999967 [dLambda -0.04999999999999999]
TCL: Setting parameter firsttimestep to 0
TCL: Setting parameter alchLambda to 0.29999999999999966
Info: NONBONDED TABLE R-SQUARED SPACING: 0.0625
Info: NONBONDED TABLE SIZE: 705 POINTS
TCL: Setting parameter alchLambda2 to 0.24999999999999967
Info: NONBONDED TABLE R-SQUARED SPACING: 0.0625
Info: NONBONDED TABLE SIZE: 705 POINTS
TCL: Running for 1500000 steps
ETITLE: TS BOND ANGLE DIHED IMPRP ELECT VDW BOUNDARY MISC KINETIC TOTAL TEMP POTENTIAL TOTALAVG TEMPAVG PRESSURE GPRESSURE VOLUME PRESSAVG GPRESSAVG
ENERGY: 0 4.7287 8.4859 4.0710 0.0000 -10808.5851 1480.9618 0.0000 0.0000 1792.8882 -7517.4496 304.6505 -9310.3378 -7517.4496 304.6505 103.7299 185.9564 29882.6676 103.7299 185.9564
ENERGY: 300000 2.1388 11.9029 4.3597 0.0000 -10578.0177 1393.6051 0.0000 0.0000 1771.4804 -7394.5309 301.0128 -9166.0113 -7452.3695 302.4875 -288.0838 -209.6325 30364.9026 -443.7385 -375.4399
ENERGY: 600000 4.3349 17.2621 5.5669 0.0000 -10562.8197 1394.1423 0.0000 0.0000 1762.8687 -7378.6448 299.5495 -9141.5135 -7419.6652 303.1967 -418.5945 -321.8731 30695.7728 -344.3147 -269.3310
ENERGY: 900000 2.1260 11.7422 4.8966 0.0000 -10689.4856 1451.3538 0.0000 0.0000 1727.2265 -7492.1406 293.4931 -9219.3670 -7441.5314 300.9285 264.4254 307.2780 30028.2295 -146.3643 -84.1644
ENERGY: 1200000 0.8548 14.8914 5.2344 0.0000 -10556.2933 1365.7956 0.0000 0.0000 1730.7843 -7438.7329 294.0977 -9169.5172 -7437.6221 300.5252 -609.5046 -589.6447 30659.9236 -186.2989 -126.1272
ENERGY: 1500000 3.0373 13.2945 4.8736 0.0000 -10709.9322 1423.1717 0.0000 0.0000 1779.9227 -7485.6324 302.4474 -9265.5551 -7453.1619 300.6854 -228.5702 -137.4124 29916.5290 -230.7448 -167.6383
TCL: Running FEP window  16: Lambda1 0.24999999999999967 Lambda2 0.19999999999999968 [dLambda -0.04999999999999999]
TCL: Setting parameter firsttimestep to 0
TCL: Setting parameter alchLambda to 0.24999999999999967
Info: NONBONDED TABLE R-SQUARED SPACING: 0.0625
Info: NONBONDED TABLE SIZE: 705 POINTS
TCL: Setting parameter alchLambda2 to 0.19999999999999968
Info: NONBONDED TABLE R-SQUARED SPACING: 0.0625
Info: NONBONDED TABLE SIZE: 705 POINTS
TCL: Running for 1500000 steps
ETITLE: TS BOND ANGLE DIHED IMPRP ELECT VDW BOUNDARY MISC KINETIC TOTAL TEMP POTENTIAL TOTALAVG TEMPAVG PRESSURE GPRESSURE VOLUME PRESSAVG GPRESSAVG
ENERGY: 0 3.0373 13.2945 4.8736 0.0000 -10709.9323 1423.2535 0.0000 0.0000 1779.0486 -7486.4248 302.2988 -9265.4734 -7486.4248 302.2988 -233.3328 -141.6832 29916.5290 -233.3328 -141.6832
ENERGY: 300000 5.6367 15.6712 4.9558 0.0000 -10720.9351 1510.3817 0.0000 0.0000 1792.3991 -7391.8904 304.5674 -9184.2896 -7426.5897 301.3343 574.9549 655.5098 30229.6032 125.9832 183.8622
ENERGY: 600000 4.3356 12.6609 5.9498 0.0000 -10711.4571 1455.4195 0.0000 0.0000 1751.5237 -7481.5676 297.6218 -9233.0913 -7432.5097 300.8575 -44.1086 38.8076 30074.9317 77.8317 131.0375
ENERGY: 900000 2.0710 10.1431 4.1205 0.0000 -10664.0604 1395.1154 0.0000 0.0000 1799.6058 -7453.0046 305.7919 -9252.6104 -7449.8306 299.8531 -318.1297 -286.8908 30081.7345 -22.4687 45.1690
ENERGY: 1200000 3.0906 14.7829 4.7267 0.0000 -10577.5523 1378.5311 0.0000 0.0000 1838.8153 -7337.6058 312.4545 -9176.4211 -7436.9546 301.4074 -270.4558 -229.0228 30227.1442 1.8962 64.1476
ENERGY: 1500000 4.9091 20.3617 3.7937 0.0000 -10600.5405 1430.0184 0.0000 0.0000 1779.0671 -7362.3905 302.3020 -9141.4575 -7440.3189 300.4352 98.4346 186.8607 30117.3547 -22.7505 44.3618
TCL: Running FEP window  17: Lambda1 0.19999999999999968 Lambda2 0.1499999999999997 [dLambda -0.04999999999999999]
TCL: Setting parameter firsttimestep to 0
TCL: Setting parameter alchLambda to 0.19999999999999968
Info: NONBONDED TABLE R-SQUARED SPACING: 0.0625
Info: NONBONDED TABLE SIZE: 705 POINTS
TCL: Setting parameter alchLambda2 to 0.1499999999999997
Info: NONBONDED TABLE R-SQUARED SPACING: 0.0625
Info: NONBONDED TABLE SIZE: 705 POINTS
TCL: Running for 1500000 steps
ETITLE: TS BOND ANGLE DIHED IMPRP ELECT VDW BOUNDARY MISC KINETIC TOTAL TEMP POTENTIAL TOTALAVG TEMPAVG PRESSURE GPRESSURE VOLUME PRESSAVG GPRESSAVG
ENERGY: 0 4.9091 20.3617 3.7937 0.0000 -10600.5399 1430.5950 0.0000 0.0000 1778.1678 -7362.7126 302.1492 -9140.8804 -7362.7126 302.1492 96.5657 185.1200 30117.3547 96.5657 185.1200
ENERGY: 300000 3.6035 15.7525 5.3862 0.0000 -10719.1883 1413.5953 0.0000 0.0000 1791.0268 -7489.8240 304.3342 -9280.8508 -7438.6702 305.2378 -552.3195 -434.4512 30198.2123 78.7012 152.7618
ENERGY: 600000 2.2990 11.0751 4.2676 0.0000 -10646.4719 1449.7661 0.0000 0.0000 1766.7376 -7412.3265 300.2069 -9179.0641 -7425.4807 302.3007 383.5822 392.5099 29936.4676 30.3445 96.2954
ENERGY: 900000 1.5049 11.4186 3.7464 0.0000 -10687.4920 1446.7402 0.0000 0.0000 1773.9432 -7450.1387 301.4313 -9224.0819 -7433.8006 301.4679 75.4468 86.4818 30177.1688 26.4614 83.1862
ENERGY: 1200000 1.7694 16.9420 4.6305 0.0000 -10654.5685 1374.6329 0.0000 0.0000 1730.2002 -7526.3935 293.9984 -9256.5937 -7454.4830 300.4330 -706.4155 -595.5444 29976.7518 -67.6441 -10.2392
ENERGY: 1500000 2.7765 9.2711 5.3539 0.0000 -10654.6006 1446.9760 0.0000 0.0000 1823.7332 -7366.4899 309.8917 -9190.2231 -7444.2938 300.8224 173.0173 170.3295 30301.5756 -74.4684 -20.3983
TCL: Running FEP window  18: Lambda1 0.1499999999999997 Lambda2 0.09999999999999969 [dLambda -0.05 ]
TCL: Setting parameter firsttimestep to 0
TCL: Setting parameter alchLambda to 0.1499999999999997
Info: NONBONDED TABLE R-SQUARED SPACING: 0.0625
Info: NONBONDED TABLE SIZE: 705 POINTS
TCL: Setting parameter alchLambda2 to 0.09999999999999969
Info: NONBONDED TABLE R-SQUARED SPACING: 0.0625
Info: NONBONDED TABLE SIZE: 705 POINTS
TCL: Running for 1500000 steps
ETITLE: TS BOND ANGLE DIHED IMPRP ELECT VDW BOUNDARY MISC KINETIC TOTAL TEMP POTENTIAL TOTALAVG TEMPAVG PRESSURE GPRESSURE VOLUME PRESSAVG GPRESSAVG
ENERGY: 0 2.7765 9.2711 5.3539 0.0000 -10654.6009 1447.7221 0.0000 0.0000 1822.8617 -7366.6157 309.7436 -9189.4774 -7366.6157 309.7436 72.3853 170.0043 30301.5756 72.3853 170.0043
ENERGY: 300000 2.6543 13.7222 5.6514 0.0000 -10633.2390 1378.5160 0.0000 0.0000 1769.3888 -7463.3064 300.6574 -9232.6952 -7410.6728 304.3414 -572.6045 -447.6381 30185.9607 -81.1084 13.3986
ENERGY: 600000 2.6501 12.9028 5.9219 0.0000 -10679.1352 1502.9458 0.0000 0.0000 1774.6578 -7380.0567 301.5527 -9154.7145 -7420.2044 303.0338 501.5179 521.4751 30535.3168 69.7586 137.3930
ENERGY: 900000 3.9452 11.2577 4.4354 0.0000 -10705.7080 1419.5848 0.0000 0.0000 1766.1261 -7500.3589 300.1030 -9266.4850 -7435.1450 302.2818 -292.5526 -199.7450 30035.6183 -71.8672 3.8346
ENERGY: 1200000 2.2998 19.2776 5.2014 0.0000 -10679.6103 1490.6120 0.0000 0.0000 1787.4568 -7374.7626 303.7276 -9162.2194 -7429.0974 301.7998 455.8985 484.0246 30219.5692 -78.4803 -12.9105
ENERGY: 1500000 2.9849 15.7073 5.3101 0.0000 -10663.4572 1459.2930 0.0000 0.0000 1769.7391 -7410.4228 300.7169 -9180.1619 -7423.9527 301.6456 146.8148 247.2167 30669.7407 -121.8117 -51.4572
TCL: Running FEP window  19: Lambda1 0.09999999999999969 Lambda2 0.049999999999999684 [dLambda -0.05 ]
TCL: Setting parameter firsttimestep to 0
TCL: Setting parameter alchLambda to 0.09999999999999969
Info: NONBONDED TABLE R-SQUARED SPACING: 0.0625
Info: NONBONDED TABLE SIZE: 705 POINTS
TCL: Setting parameter alchLambda2 to 0.049999999999999684
Info: NONBONDED TABLE R-SQUARED SPACING: 0.0625
Info: NONBONDED TABLE SIZE: 705 POINTS
TCL: Running for 1500000 steps
ETITLE: TS BOND ANGLE DIHED IMPRP ELECT VDW BOUNDARY MISC KINETIC TOTAL TEMP POTENTIAL TOTALAVG TEMPAVG PRESSURE GPRESSURE VOLUME PRESSAVG GPRESSAVG
ENERGY: 0 2.9849 15.7073 5.3101 0.0000 -10663.4594 1459.3727 0.0000 0.0000 1768.8344 -7411.2499 300.5632 -9180.0843 -7411.2499 300.5632 163.4850 245.1768 30669.7407 163.4850 245.1768
ENERGY: 300000 1.3679 16.4600 5.8753 0.0000 -10562.5963 1359.4663 0.0000 0.0000 1729.8766 -7449.5502 293.9434 -9179.4268 -7424.1428 299.2060 -603.0856 -502.8186 30203.8626 -96.7477 -18.9950
ENERGY: 600000 5.5415 12.9329 3.6050 0.0000 -10483.3735 1370.6983 0.0000 0.0000 1793.4948 -7297.1011 304.7535 -9090.5958 -7420.4715 300.7054 -239.0725 -189.3485 30347.6558 -116.2147 -46.9197
ENERGY: 900000 5.1569 13.1355 4.4968 0.0000 -10668.2065 1413.6115 0.0000 0.0000 1725.4547 -7506.3511 293.1921 -9231.8057 -7427.9992 300.7010 -90.5523 -43.7240 29395.9001 -176.2507 -110.8708
ENERGY: 1200000 2.5313 14.7203 5.9174 0.0000 -10681.2882 1435.2698 0.0000 0.0000 1767.1615 -7455.6880 300.2789 -9222.8494 -7431.3309 301.1199 20.2329 105.2310 30123.3594 -108.4363 -49.2953
ENERGY: 1500000 2.8654 11.0201 3.9292 0.0000 -10805.8791 1510.0493 0.0000 0.0000 1837.8750 -7440.1401 312.2947 -9278.0151 -7435.8199 301.2650 272.1526 319.3809 30003.7122 -121.0623 -61.2672
TCL: Running FEP window  20: Lambda1 0.049999999999999684 Lambda2 0.0    [dLambda -0.049999999999999684]
TCL: Setting parameter firsttimestep to 0
TCL: Setting parameter alchLambda to 0.049999999999999684
Info: NONBONDED TABLE R-SQUARED SPACING: 0.0625
Info: NONBONDED TABLE SIZE: 705 POINTS
TCL: Setting parameter alchLambda2 to 0.0
Info: NONBONDED TABLE R-SQUARED SPACING: 0.0625
Info: NONBONDED TABLE SIZE: 705 POINTS
TCL: Running for 1500000 steps
ETITLE: TS BOND ANGLE DIHED IMPRP ELECT VDW BOUNDARY MISC KINETIC TOTAL TEMP POTENTIAL TOTALAVG TEMPAVG PRESSURE GPRESSURE VOLUME PRESSAVG GPRESSAVG
ENERGY: 0 2.8654 11.0201 3.9292 0.0000 -10805.8796 1509.2509 0.0000 0.0000 1837.0190 -7441.7949 312.1493 -9278.8139 -7441.7949 312.1493 241.7428 312.3811 30003.7122 241.7428 312.3811
ENERGY: 300000 6.2995 10.7790 4.0227 0.0000 -10624.5396 1386.6479 0.0000 0.0000 1763.3612 -7453.4292 299.6332 -9216.7905 -7418.8869 302.4077 -542.3760 -441.9671 30238.7212 54.3576 150.9664
ENERGY: 600000 1.9740 14.9660 3.7470 0.0000 -10831.3253 1567.8106 0.0000 0.0000 1775.6953 -7467.1324 301.7290 -9242.8277 -7438.7098 302.8237 1042.8917 1103.3749 29657.2377 243.4838 318.6418
ENERGY: 900000 5.7124 13.2571 4.9138 0.0000 -10603.7304 1428.2312 0.0000 0.0000 1739.6675 -7411.9484 295.6071 -9151.6159 -7437.2331 302.0840 -66.4624 17.8835 30234.2069 233.6201 305.7750
ENERGY: 1200000 2.4797 12.6454 4.9230 0.0000 -10675.6387 1487.7095 0.0000 0.0000 1756.1485 -7411.7327 298.4076 -9167.8812 -7432.2591 301.2998 625.9692 652.8958 29850.8081 146.2476 208.8006
ENERGY: 1500000 3.0521 18.3542 6.3937 0.0000 -10730.4331 1447.0695 0.0000 0.0000 1755.5204 -7500.0432 298.3009 -9255.5637 -7442.2831 300.6927 -260.8483 -190.5030 30139.6141 95.4821 159.6026
TCL: Exiting due to exit command.
