Info: SIMULATION PARAMETERS:
Info: TIMESTEP               2
Info: NUMBER OF STEPS        0
Info: STEPS PER CYCLE        10
Info: PERIODIC CELL BASIS 1  31.6684 0 0
Info: PERIODIC CELL BASIS 2  0 30.5171 0
Info: PERIODIC CELL BASIS 3  0 0 30.744
Info: PERIODIC CELL CENTER   0 0 0
Info: WRAPPING WATERS AROUND PERIODIC BOUNDARIES ON OUTPUT.
Info: WRAPPING ALL CLUSTERS AROUND PERIODIC BOUNDARIES ON OUTPUT.
Info: FIRST LDB TIMESTEP     50
Info: LAST LDB TIMESTEP     -1
Info: HOM BACKGROUND SCALING 1
Info: PME BACKGROUND SCALING 1
Info: MIN ATOMS PER PATCH    40
Info: EMPTY PATCH LOAD       40 ATOMS
Info: VELOCITY FILE          mobley_8337977_equil.vel
Info: CENTER OF MASS MOVING INITIALLY? NO
Info: DIELECTRIC             1
Info: EXCLUDE                SCALED ONE-FOUR
Info: 1-4 ELECTROSTATICS SCALED BY 0.833333
Info: MODIFIED 1-4 VDW PARAMETERS WILL BE USED
Info: DCD FILENAME           mobley_8337977_prod.dcd
Info: DCD FREQUENCY          100000
Info: DCD FIRST STEP         100000
Info: DCD FILE WILL CONTAIN UNIT CELL DATA
Info: XST FILENAME           mobley_8337977_prod.xst
Info: XST FREQUENCY          100000
Info: NO VELOCITY DCD OUTPUT
Info: NO FORCE DCD OUTPUT
Info: OUTPUT FILENAME        mobley_8337977_prod
Info: BINARY OUTPUT FILES WILL BE USED
Info: RESTART FILENAME       mobley_8337977_prod.restart
Info: RESTART FREQUENCY      100000
Info: BINARY RESTART FILES WILL BE USED
Info: CUTOFF                 9
Info: PAIRLIST DISTANCE      11
Info: PAIRLIST SHRINK RATE   0.01
Info: PAIRLIST GROW RATE     0.01
Info: PAIRLIST TRIGGER       0.3
Info: PAIRLISTS PER CYCLE    2
Info: PAIRLISTS ENABLED
Info: MARGIN                 2
Info: HYDROGEN GROUP CUTOFF  2.5
Info: PATCH DIMENSION        15.5
Info: ENERGY OUTPUT STEPS    100000
Info: ENERGY EVALUATION STEPS    100000
Info: OUTPUT ENERGY PRECISION 4
Info: CROSSTERM ENERGY INCLUDED IN DIHEDRAL
Info: TIMING OUTPUT STEPS    1000000
Info: PRESSURE OUTPUT STEPS  100000
Info: ALCHEMICAL FEP ON
Info: FEP CURRENT LAMBDA VALUE     1
Info: FEP COMPARISON LAMBDA VALUE  0.95
Info: FEP INTRA-ALCHEMICAL NON-BONDED INTERACTIONS WILL BE RETAINED
Info: FEP INTRA-ALCHEMICAL BONDED INTERACTIONS WILL BE RETAINED
Info: FEP VDW SHIFTING COEFFICIENT 5
Info: FEP ELEC. ACTIVE FOR ANNIHILATED PARTICLES BETWEEN LAMBDA = 0 AND LAMBDA = 0.5
Info: FEP ELEC. ACTIVE FOR EXNIHILATED PARTICLES BETWEEN LAMBDA = 0.5 AND LAMBDA = 1
Info: FEP VDW ACTIVE FOR ANNIHILATED PARTICLES BETWEEN LAMBDA = 0 AND LAMBDA = 1
Info: FEP VDW ACTIVE FOR EXNIHILATED PARTICLES BETWEEN LAMBDA = 0 AND LAMBDA = 1
Info: FEP BOND ACTIVE FOR ANNIHILATED PARTICLES BETWEEN LAMBDA = 1 AND LAMBDA = 1
Info: FEP BOND ACTIVE FOR EXNIHILATED PARTICLES BETWEEN LAMBDA = 0 AND LAMBDA = 0
Info: LANGEVIN DYNAMICS ACTIVE
Info: LANGEVIN TEMPERATURE   300
Info: LANGEVIN USING BBK INTEGRATOR
Info: LANGEVIN DAMPING COEFFICIENT IS 1 INVERSE PS
Info: LANGEVIN DYNAMICS APPLIED TO HYDROGENS
Info: LANGEVIN PISTON PRESSURE CONTROL ACTIVE
Info:        TARGET PRESSURE IS 1.01325 BAR
Info:     OSCILLATION PERIOD IS 50 FS
Info:             DECAY TIME IS 25 FS
Info:     PISTON TEMPERATURE IS 300 K
Info:       PRESSURE CONTROL IS GROUP-BASED
Info:    INITIAL STRAIN RATE IS -0.00045538 -0.00045538 -0.00045538
Info:       CELL FLUCTUATION IS ISOTROPIC
Info: PARTICLE MESH EWALD (PME) ACTIVE
Info: PME TOLERANCE               1e-06
Info: PME EWALD COEFFICIENT       0.348832
Info: PME INTERPOLATION ORDER     4
Info: PME GRID DIMENSIONS         32 32 32
Info: PME MAXIMUM GRID SPACING    1
Info: PME CALCULATION WILL BE PERFORMED ON GPU
Info: FULL ELECTROSTATIC EVALUATION FREQUENCY      2
Info: USING VERLET I (r-RESPA) MTS SCHEME.
Info: C1 SPLITTING OF LONG RANGE ELECTROSTATICS
Info: PLACING ATOMS IN PATCHES BY HYDROGEN GROUPS
Info: RIGID BONDS TO HYDROGEN : ALL
Info:         ERROR TOLERANCE : 1e-08
Info:          MAX ITERATIONS : 100
Info: RIGID WATER USING SETTLE ALGORITHM
Info: RANDOM NUMBER SEED     1743856665
Info: USE HYDROGEN BONDS?    NO
Info: Using AMBER format force field!
Info: AMBER PARM FILE        mobley_8337977.prmtop
Info: COORDINATE PDB         mobley_8337977.pdb
Info: Exclusions will be read from PARM file!
Info: SCNB (VDW SCALING)     2
Info: USING ARITHMETIC MEAN TO COMBINE L-J SIGMA PARAMETERS
Info: BINARY COORDINATES     mobley_8337977_equil.coor
Info: SUMMARY OF PARAMETERS:
Info: 6 BONDS
Info: 7 ANGLES
Info:   7 HARMONIC
Info:   0 COSINE-BASED
Info: 8 DIHEDRAL
Info: 0 IMPROPER
Info: 0 CROSSTERM
Info: 0 VDW
Info: 21 VDW_PAIRS
Info: 0 NBTHOLE_PAIRS
Info: To read alchdata from file: mobley_8337977.pdb
Info: To read alchflag data from column: 5
Info: STRUCTURE SUMMARY:
Info: 2905 ATOMS
Info: 2904 BONDS
Info: 33 ANGLES
Info: 50 DIHEDRALS
Info: 0 IMPROPERS
Info: 0 CROSSTERMS
Info: 2976 EXCLUSIONS
Info: 2898 RIGID BONDS
Info: ALCH: 0 ATOMS TO DISAPPEAR IN FINAL STATE
Info: ALCH: 19 ATOMS TO APPEAR IN FINAL STATE
Info: 5817 DEGREES OF FREEDOM
Info: 969 HYDROGEN GROUPS
Info: 4 ATOMS IN LARGEST HYDROGEN GROUP
Info: 969 MIGRATION GROUPS
Info: 4 ATOMS IN LARGEST MIGRATION GROUP
Info: TOTAL MASS = 17431.5 amu
Info: TOTAL CHARGE = 7.07805e-08 e
Info: MASS DENSITY = 0.974241 g/cm^3
Info: ATOM DENSITY = 0.0977726 atoms/A^3
Info: ADDED 0 IMPLICIT EXCLUSIONS
Info: NONBONDED TABLE R-SQUARED SPACING: 0.0625
Info: NONBONDED TABLE SIZE: 705 POINTS
Info: REMOVING COM VELOCITY 0.0216777 -0.0825961 0.14021
Info: Use 3D box decompostion in PME FFT.
Info: Updated CUDA force table with 4096 elements.
Info: Updated CUDA LJ table with 6 x 6 elements.
Info: Found 22 unique exclusion lists needing 56 bytes
TCL: Running for 1500000 steps
ETITLE: TS BOND ANGLE DIHED IMPRP ELECT VDW BOUNDARY MISC KINETIC TOTAL TEMP POTENTIAL TOTALAVG TEMPAVG PRESSURE GPRESSURE VOLUME PRESSAVG GPRESSAVG
ENERGY: 0 2.5193 7.1292 7.8274 0.0000 -10626.6323 1471.0990 0.0000 0.0000 1749.4138 -7388.6434 302.6801 -9138.0573 -7388.6434 302.6801 322.7201 402.1202 29711.7957 322.7201 402.1202
ENERGY: 300000 3.3759 9.8729 4.2867 0.0000 -10512.7310 1372.3490 0.0000 0.0000 1757.0953 -7365.7512 304.0091 -9122.8465 -7375.9299 298.6772 -89.7538 -15.5056 29716.8675 -122.0099 -68.8886
ENERGY: 600000 3.0803 7.0465 4.9774 0.0000 -10504.7406 1368.0163 0.0000 0.0000 1683.2710 -7438.3490 291.2362 -9121.6200 -7396.8604 297.7688 -359.7014 -276.8459 29605.5625 -186.3232 -116.6993
ENERGY: 900000 1.5794 10.9768 4.5467 0.0000 -10548.1597 1441.1538 0.0000 0.0000 1700.2148 -7389.6882 294.1678 -9089.9030 -7380.9787 298.6893 413.8942 446.5795 29618.7541 -244.8553 -182.9481
ENERGY: 1200000 1.2348 7.9327 5.9825 0.0000 -10619.3932 1507.3608 0.0000 0.0000 1709.2418 -7387.6407 295.7296 -9096.8824 -7375.0051 298.5827 923.3146 942.7280 29643.9705 -85.5884 -25.9378
ENERGY: 1500000 2.0750 10.1653 4.6909 0.0000 -10429.1866 1345.0153 0.0000 0.0000 1745.4013 -7321.8389 301.9859 -9067.2401 -7365.7358 299.1861 -395.5667 -312.5935 29901.1861 -72.9695 -8.3273
TCL: Running FEP window   2: Lambda1 0.95   Lambda2 0.8999999999999999 [dLambda -0.050000000000000044]
TCL: Setting parameter firsttimestep to 0
TCL: Setting parameter alchLambda to 0.95
Info: NONBONDED TABLE R-SQUARED SPACING: 0.0625
Info: NONBONDED TABLE SIZE: 705 POINTS
TCL: Setting parameter alchLambda2 to 0.8999999999999999
Info: NONBONDED TABLE R-SQUARED SPACING: 0.0625
Info: NONBONDED TABLE SIZE: 705 POINTS
TCL: Running for 1500000 steps
ETITLE: TS BOND ANGLE DIHED IMPRP ELECT VDW BOUNDARY MISC KINETIC TOTAL TEMP POTENTIAL TOTALAVG TEMPAVG PRESSURE GPRESSURE VOLUME PRESSAVG GPRESSAVG
ENERGY: 0 2.0750 10.1653 4.6909 0.0000 -10428.2130 1345.4193 0.0000 0.0000 1744.5713 -7321.2912 301.8423 -9065.8625 -7321.2912 301.8423 -405.5453 -320.2409 29901.1861 -405.5453 -320.2409
ENERGY: 300000 1.5540 8.5466 5.4018 0.0000 -10465.2717 1359.8748 0.0000 0.0000 1720.4818 -7369.4128 297.6743 -9089.8945 -7340.9082 299.6193 -262.5914 -186.8930 29764.2641 -102.1556 -43.2090
ENERGY: 600000 3.4174 8.0401 4.3004 0.0000 -10502.1356 1358.5822 0.0000 0.0000 1785.7756 -7342.0199 308.9713 -9127.7956 -7339.4404 300.6927 -292.2010 -175.0442 29808.6854 -224.9551 -164.0320
ENERGY: 900000 2.2379 5.1487 4.4216 0.0000 -10529.6990 1476.8317 0.0000 0.0000 1707.8416 -7333.2176 295.4874 -9041.0592 -7331.7212 300.4757 456.5057 472.9642 30391.1344 -94.4136 -43.6893
ENERGY: 1200000 4.1278 10.8672 4.5312 0.0000 -10490.1254 1359.4793 0.0000 0.0000 1725.4576 -7385.6624 298.5352 -9111.1200 -7343.5975 299.4781 -502.8185 -522.8130 29895.1048 -106.0739 -62.0753
ENERGY: 1500000 5.5828 7.3959 5.3325 0.0000 -10492.0851 1449.8167 0.0000 0.0000 1780.9880 -7242.9691 308.1430 -9023.9572 -7334.3482 300.1491 60.3905 88.0186 30557.6103 -63.0098 -18.3300
TCL: Running FEP window   3: Lambda1 0.8999999999999999 Lambda2 0.8499999999999999 [dLambda -0.050000000000000044]
TCL: Setting parameter firsttimestep to 0
TCL: Setting parameter alchLambda to 0.8999999999999999
Info: NONBONDED TABLE R-SQUARED SPACING: 0.0625
Info: NONBONDED TABLE SIZE: 705 POINTS
TCL: Setting parameter alchLambda2 to 0.8499999999999999
Info: NONBONDED TABLE R-SQUARED SPACING: 0.0625
Info: NONBONDED TABLE SIZE: 705 POINTS
TCL: Running for 1500000 steps
ETITLE: TS BOND ANGLE DIHED IMPRP ELECT VDW BOUNDARY MISC KINETIC TOTAL TEMP POTENTIAL TOTALAVG TEMPAVG PRESSURE GPRESSURE VOLUME PRESSAVG GPRESSAVG
ENERGY: 0 5.5828 7.3959 5.3325 0.0000 -10491.0875 1449.5155 0.0000 0.0000 1780.0944 -7243.1663 307.9884 -9023.2608 -7243.1663 307.9884 -5.9692 75.6691 30557.6103 -5.9692 75.6691
ENERGY: 300000 1.6334 9.7227 4.7758 0.0000 -10543.7095 1418.8608 0.0000 0.0000 1724.5956 -7384.1212 298.3861 -9108.7168 -7322.1931 301.0301 -109.7832 -94.0342 30014.6571 -159.0339 -112.1758
ENERGY: 600000 1.6389 11.0699 4.5890 0.0000 -10484.4019 1360.3356 0.0000 0.0000 1798.5831 -7308.1855 311.1873 -9106.7686 -7306.2088 303.1846 -98.6034 -69.2426 29480.6969 36.5207 74.5245
ENERGY: 900000 2.2010 9.3858 4.8163 0.0000 -10530.0435 1393.6998 0.0000 0.0000 1705.7703 -7414.1702 295.1290 -9119.9405 -7315.9179 302.7202 -164.6746 -103.1271 29732.1432 -28.2472 13.5055
ENERGY: 1200000 0.3431 8.4728 5.5853 0.0000 -10564.4959 1455.6219 0.0000 0.0000 1725.7296 -7368.7433 298.5823 -9094.4729 -7327.7718 302.0603 217.3884 336.7309 30090.1542 -6.9273 42.3519
ENERGY: 1500000 1.8440 8.1639 4.6405 0.0000 -10516.6796 1396.6351 0.0000 0.0000 1710.6961 -7394.7000 295.9812 -9105.3962 -7340.4878 301.5687 -220.3048 -256.5139 29970.5772 -65.1443 -17.7624
TCL: Running FEP window   4: Lambda1 0.8499999999999999 Lambda2 0.7999999999999998 [dLambda -0.050000000000000044]
TCL: Setting parameter firsttimestep to 0
TCL: Setting parameter alchLambda to 0.8499999999999999
Info: NONBONDED TABLE R-SQUARED SPACING: 0.0625
Info: NONBONDED TABLE SIZE: 705 POINTS
TCL: Setting parameter alchLambda2 to 0.7999999999999998
Info: NONBONDED TABLE R-SQUARED SPACING: 0.0625
Info: NONBONDED TABLE SIZE: 705 POINTS
TCL: Running for 1500000 steps
ETITLE: TS BOND ANGLE DIHED IMPRP ELECT VDW BOUNDARY MISC KINETIC TOTAL TEMP POTENTIAL TOTALAVG TEMPAVG PRESSURE GPRESSURE VOLUME PRESSAVG GPRESSAVG
ENERGY: 0 1.8440 8.1639 4.6405 0.0000 -10516.0944 1396.9813 0.0000 0.0000 1709.8535 -7394.6112 295.8355 -9104.4647 -7394.6112 295.8355 -350.4599 -265.4295 29970.5772 -350.4599 -265.4295
ENERGY: 300000 0.7389 10.1814 8.0444 0.0000 -10469.4472 1407.4954 0.0000 0.0000 1797.8467 -7245.1403 311.0599 -9042.9871 -7324.5725 300.6129 -225.4626 -228.2773 30431.2912 -232.0177 -149.2256
ENERGY: 600000 0.8637 7.3598 4.0067 0.0000 -10525.6291 1451.1263 0.0000 0.0000 1750.3420 -7311.9306 302.8407 -9062.2726 -7342.3722 300.0289 568.7018 622.9264 29856.3504 -165.9848 -94.5734
ENERGY: 900000 0.6964 10.5210 4.4744 0.0000 -10584.2890 1339.6584 0.0000 0.0000 1723.4359 -7505.5030 298.1855 -9228.9389 -7358.3502 300.0433 -891.6339 -789.2092 29649.2271 -171.3174 -100.0004
ENERGY: 1200000 2.8827 9.9266 4.6091 0.0000 -10670.1965 1483.0082 0.0000 0.0000 1663.9278 -7505.8420 287.8895 -9169.7698 -7364.0090 299.3990 120.5052 201.2797 29850.7087 -121.1036 -50.3497
ENERGY: 1500000 2.5815 8.7508 5.1929 0.0000 -10584.8983 1453.6972 0.0000 0.0000 1698.4477 -7416.2283 293.8620 -9114.6759 -7370.1819 298.4313 166.0448 329.4833 29823.1634 -163.8240 -89.7292
TCL: Running FEP window   5: Lambda1 0.7999999999999998 Lambda2 0.7499999999999998 [dLambda -0.050000000000000044]
TCL: Setting parameter firsttimestep to 0
TCL: Setting parameter alchLambda to 0.7999999999999998
Info: NONBONDED TABLE R-SQUARED SPACING: 0.0625
Info: NONBONDED TABLE SIZE: 705 POINTS
TCL: Setting parameter alchLambda2 to 0.7499999999999998
Info: NONBONDED TABLE R-SQUARED SPACING: 0.0625
Info: NONBONDED TABLE SIZE: 705 POINTS
TCL: Running for 1500000 steps
ETITLE: TS BOND ANGLE DIHED IMPRP ELECT VDW BOUNDARY MISC KINETIC TOTAL TEMP POTENTIAL TOTALAVG TEMPAVG PRESSURE GPRESSURE VOLUME PRESSAVG GPRESSAVG
ENERGY: 0 2.5815 8.7508 5.1929 0.0000 -10584.0139 1454.0910 0.0000 0.0000 1697.5666 -7415.8312 293.7096 -9113.3978 -7415.8312 293.7096 236.5861 323.6662 29823.1634 236.5861 323.6662
ENERGY: 300000 1.9783 5.2615 5.7276 0.0000 -10427.5878 1339.9861 0.0000 0.0000 1689.3134 -7385.3210 292.2816 -9074.6344 -7399.7118 297.1616 -646.6383 -578.8907 29919.5639 125.9514 224.6903
ENERGY: 600000 2.4100 7.7297 4.8869 0.0000 -10373.3382 1298.7495 0.0000 0.0000 1735.0161 -7324.5460 300.1890 -9059.5621 -7383.8288 297.1034 -562.0293 -548.3079 29838.4493 -69.7689 8.0802
ENERGY: 900000 2.8391 7.2405 5.1345 0.0000 -10521.8777 1419.5288 0.0000 0.0000 1754.6448 -7332.4900 303.5852 -9087.1348 -7373.0262 298.1510 382.0746 407.9485 29353.2557 -34.8890 34.3493
ENERGY: 1200000 1.6831 10.7995 7.1368 0.0000 -10624.8754 1498.8099 0.0000 0.0000 1734.1391 -7372.3069 300.0373 -9106.4460 -7370.3155 298.5718 493.8329 617.7970 30229.4297 -38.0123 32.8464
ENERGY: 1500000 1.9580 14.1178 5.5109 0.0000 -10590.5560 1464.1286 0.0000 0.0000 1701.4074 -7403.4334 294.3741 -9104.8408 -7361.1403 298.8231 498.6691 553.9766 29691.8736 -9.3188 63.7244
TCL: Running FEP window   6: Lambda1 0.7499999999999998 Lambda2 0.6999999999999997 [dLambda -0.050000000000000044]
TCL: Setting parameter firsttimestep to 0
TCL: Setting parameter alchLambda to 0.7499999999999998
Info: NONBONDED TABLE R-SQUARED SPACING: 0.0625
Info: NONBONDED TABLE SIZE: 705 POINTS
TCL: Setting parameter alchLambda2 to 0.6999999999999997
Info: NONBONDED TABLE R-SQUARED SPACING: 0.0625
Info: NONBONDED TABLE SIZE: 705 POINTS
TCL: Running for 1500000 steps
ETITLE: TS BOND ANGLE DIHED IMPRP ELECT VDW BOUNDARY MISC KINETIC TOTAL TEMP POTENTIAL TOTALAVG TEMPAVG PRESSURE GPRESSURE VOLUME PRESSAVG GPRESSAVG
ENERGY: 0 1.9580 14.1178 5.5109 0.0000 -10589.5364 1463.9852 0.0000 0.0000 1700.5285 -7403.4360 294.2221 -9103.9646 -7403.4360 294.2221 477.6330 543.1354 29691.8736 477.6330 543.1354
ENERGY: 300000 0.8319 7.7215 5.9756 0.0000 -10432.5911 1358.8734 0.0000 0.0000 1740.7417 -7318.4470 301.1797 -9059.1887 -7355.4446 298.0936 -114.9830 -114.4573 29832.8410 153.7746 211.0697
ENERGY: 600000 1.9742 9.3478 4.8219 0.0000 -10572.2476 1432.7487 0.0000 0.0000 1694.2107 -7429.1442 293.1290 -9123.3550 -7373.5798 297.6833 117.6042 167.6050 29844.5196 -87.6514 -25.7524
ENERGY: 900000 1.4535 10.3919 6.4954 0.0000 -10390.6468 1358.8293 0.0000 0.0000 1745.6000 -7267.8766 302.0202 -9013.4766 -7367.5802 298.4402 -195.7294 -129.9815 30369.9921 4.2522 53.4382
ENERGY: 1200000 0.6935 7.5612 4.2737 0.0000 -10540.9723 1421.7692 0.0000 0.0000 1769.4596 -7337.2151 306.1484 -9106.6747 -7362.0243 299.2694 -10.7835 118.0534 29887.5515 -80.7642 -22.2309
ENERGY: 1500000 1.3042 8.6706 4.3918 0.0000 -10582.5680 1482.5825 0.0000 0.0000 1737.3896 -7348.2291 300.5997 -9085.6188 -7356.7978 299.5537 729.7544 777.5700 29764.2401 -52.2791 8.7850
TCL: Running FEP window   7: Lambda1 0.6999999999999997 Lambda2 0.6499999999999997 [dLambda -0.050000000000000044]
TCL: Setting parameter firsttimestep to 0
TCL: Setting parameter alchLambda to 0.6999999999999997
Info: NONBONDED TABLE R-SQUARED SPACING: 0.0625
Info: NONBONDED TABLE SIZE: 705 POINTS
TCL: Setting parameter alchLambda2 to 0.6499999999999997
Info: NONBONDED TABLE R-SQUARED SPACING: 0.0625
Info: NONBONDED TABLE SIZE: 705 POINTS
TCL: Running for 1500000 steps
ETITLE: TS BOND ANGLE DIHED IMPRP ELECT VDW BOUNDARY MISC KINETIC TOTAL TEMP POTENTIAL TOTALAVG TEMPAVG PRESSURE GPRESSURE VOLUME PRESSAVG GPRESSAVG
ENERGY: 0 1.3042 8.6706 4.3918 0.0000 -10581.1711 1482.7369 0.0000 0.0000 1736.5084 -7347.5591 300.4472 -9084.0675 -7347.5591 300.4472 674.0739 773.9190 29764.2401 674.0739 773.9190
ENERGY: 300000 3.0965 12.6144 5.8748 0.0000 -10603.8752 1416.7477 0.0000 0.0000 1752.4106 -7413.1313 303.1986 -9165.5419 -7376.7287 299.6582 -120.0518 -28.8022 29871.8687 -2.6728 87.3053
ENERGY: 600000 2.2340 8.2919 4.0995 0.0000 -10637.6320 1511.8933 0.0000 0.0000 1782.8919 -7328.2214 308.4724 -9111.1132 -7367.2435 301.3696 1119.6634 1195.7491 29165.6067 71.6094 153.8272
ENERGY: 900000 2.1944 10.5199 6.4621 0.0000 -10490.8270 1377.7503 0.0000 0.0000 1750.4716 -7343.4289 302.8631 -9093.9004 -7362.0245 301.0557 -362.2595 -295.4776 30025.2437 9.8725 81.2698
ENERGY: 1200000 2.1630 11.9674 4.7755 0.0000 -10520.8485 1441.9241 0.0000 0.0000 1765.0425 -7294.9760 305.3841 -9060.0184 -7366.8641 299.7117 259.8685 306.8681 30032.2336 -49.2323 24.5625
ENERGY: 1500000 0.3536 9.8092 4.9669 0.0000 -10477.0788 1402.8636 0.0000 0.0000 1751.5633 -7307.5222 303.0520 -9059.0855 -7364.8256 300.0163 1.8916 73.1420 29961.5116 -115.0430 -39.4862
TCL: Running FEP window   8: Lambda1 0.6499999999999997 Lambda2 0.5999999999999996 [dLambda -0.050000000000000044]
TCL: Setting parameter firsttimestep to 0
TCL: Setting parameter alchLambda to 0.6499999999999997
Info: NONBONDED TABLE R-SQUARED SPACING: 0.0625
Info: NONBONDED TABLE SIZE: 705 POINTS
TCL: Setting parameter alchLambda2 to 0.5999999999999996
Info: NONBONDED TABLE R-SQUARED SPACING: 0.0625
Info: NONBONDED TABLE SIZE: 705 POINTS
TCL: Running for 1500000 steps
ETITLE: TS BOND ANGLE DIHED IMPRP ELECT VDW BOUNDARY MISC KINETIC TOTAL TEMP POTENTIAL TOTALAVG TEMPAVG PRESSURE GPRESSURE VOLUME PRESSAVG GPRESSAVG
ENERGY: 0 0.3536 9.8092 4.9669 0.0000 -10476.8482 1402.7812 0.0000 0.0000 1750.6721 -7308.2652 302.8978 -9058.9373 -7308.2652 302.8978 -37.1579 60.7447 29961.5116 -37.1579 60.7447
ENERGY: 300000 1.0987 9.1270 4.5918 0.0000 -10578.8686 1472.7139 0.0000 0.0000 1772.6978 -7318.6393 306.7087 -9091.3371 -7342.2651 302.1312 272.5743 335.6648 30234.0023 109.3304 172.9997
ENERGY: 600000 1.2507 10.2642 5.1524 0.0000 -10530.5963 1452.4007 0.0000 0.0000 1809.3411 -7252.1873 313.0486 -9061.5284 -7335.6185 302.8379 376.0895 453.8764 30036.4650 115.2668 174.5252
ENERGY: 900000 2.0719 8.3639 5.4777 0.0000 -10642.5531 1462.2629 0.0000 0.0000 1751.5330 -7412.8437 303.0468 -9164.3767 -7353.6359 302.6464 419.8847 488.2267 29515.8375 88.6398 147.9032
ENERGY: 1200000 2.9151 10.5029 4.4662 0.0000 -10547.5836 1387.6463 0.0000 0.0000 1778.3819 -7363.6710 307.6921 -9142.0530 -7343.4188 302.7234 -465.2051 -450.6491 29899.5020 113.3897 168.2620
ENERGY: 1500000 3.1207 9.9730 5.3840 0.0000 -10568.4525 1455.6619 0.0000 0.0000 1692.8079 -7401.5050 292.8863 -9094.3129 -7353.6757 301.1993 393.8478 479.3021 29614.9649 67.0679 125.4962
TCL: Running FEP window   9: Lambda1 0.5999999999999996 Lambda2 0.5499999999999996 [dLambda -0.050000000000000044]
TCL: Setting parameter firsttimestep to 0
TCL: Setting parameter alchLambda to 0.5999999999999996
Info: NONBONDED TABLE R-SQUARED SPACING: 0.0625
Info: NONBONDED TABLE SIZE: 705 POINTS
TCL: Setting parameter alchLambda2 to 0.5499999999999996
Info: NONBONDED TABLE R-SQUARED SPACING: 0.0625
Info: NONBONDED TABLE SIZE: 705 POINTS
TCL: Running for 1500000 steps
ETITLE: TS BOND ANGLE DIHED IMPRP ELECT VDW BOUNDARY MISC KINETIC TOTAL TEMP POTENTIAL TOTALAVG TEMPAVG PRESSURE GPRESSURE VOLUME PRESSAVG GPRESSAVG
ENERGY: 0 3.1207 9.9730 5.3840 0.0000 -10567.5764 1455.7749 0.0000 0.0000 1691.9696 -7401.3543 292.7412 -9093.3238 -7401.3543 292.7412 392.3665 474.1051 29614.9649 392.3665 474.1051
ENERGY: 300000 2.7473 8.0617 6.3033 0.0000 -10606.2547 1455.3918 0.0000 0.0000 1770.0873 -7363.6633 306.2570 -9133.7506 -7354.5418 300.6460 299.9684 371.8812 29692.5854 4.1981 69.3598
ENERGY: 600000 2.0302 6.5101 4.4838 0.0000 -10560.4062 1424.1161 0.0000 0.0000 1799.7893 -7323.4767 311.3960 -9123.2660 -7344.2996 304.3253 -167.7656 -109.6025 29936.0825 -17.1239 34.9209
ENERGY: 900000 2.1200 13.4603 4.1012 0.0000 -10544.7872 1407.5518 0.0000 0.0000 1728.3204 -7389.2334 299.0306 -9117.5538 -7353.8108 302.3840 26.4268 72.7826 29556.8444 -46.9821 6.6182
ENERGY: 1200000 0.5937 10.0740 4.3786 0.0000 -10523.1803 1391.1509 0.0000 0.0000 1744.2180 -7372.7652 301.7811 -9116.9832 -7351.3294 302.4924 -316.2463 -203.5038 29744.9352 -62.4495 -2.0095
ENERGY: 1500000 2.2289 7.7196 4.1366 0.0000 -10419.5985 1357.4522 0.0000 0.0000 1811.4648 -7236.5964 313.4160 -9048.0612 -7347.3401 303.2288 -403.2983 -312.7845 30072.1970 -104.1957 -38.7556
TCL: Running FEP window  10: Lambda1 0.5499999999999996 Lambda2 0.4999999999999996 [dLambda -0.04999999999999999]
TCL: Setting parameter firsttimestep to 0
TCL: Setting parameter alchLambda to 0.5499999999999996
Info: NONBONDED TABLE R-SQUARED SPACING: 0.0625
Info: NONBONDED TABLE SIZE: 705 POINTS
TCL: Setting parameter alchLambda2 to 0.4999999999999996
Info: NONBONDED TABLE R-SQUARED SPACING: 0.0625
Info: NONBONDED TABLE SIZE: 705 POINTS
TCL: Running for 1500000 steps
ETITLE: TS BOND ANGLE DIHED IMPRP ELECT VDW BOUNDARY MISC KINETIC TOTAL TEMP POTENTIAL TOTALAVG TEMPAVG PRESSURE GPRESSURE VOLUME PRESSAVG GPRESSAVG
ENERGY: 0 2.2289 7.7196 4.1366 0.0000 -10419.7449 1357.9376 0.0000 0.0000 1810.5930 -7237.1292 313.2652 -9047.7222 -7237.1292 313.2652 -401.2189 -318.2481 30072.1970 -401.2189 -318.2481
ENERGY: 300000 1.5133 11.6448 4.4820 0.0000 -10469.5159 1405.2796 0.0000 0.0000 1741.6043 -7304.9919 301.3289 -9046.5962 -7312.6237 303.2147 134.9733 141.7204 29913.4626 -182.6303 -143.8450
ENERGY: 600000 0.5362 8.8312 6.5445 0.0000 -10629.8275 1488.0704 0.0000 0.0000 1735.9917 -7389.8534 300.3578 -9125.8452 -7333.5974 302.1125 310.9166 428.2434 29921.1344 -93.5690 -53.4814
ENERGY: 900000 5.1784 5.4315 6.9120 0.0000 -10612.0673 1489.5556 0.0000 0.0000 1745.4075 -7359.5822 301.9869 -9104.9897 -7339.2770 300.9617 600.1413 680.2908 29700.8660 -62.0607 -15.6321
ENERGY: 1200000 1.6522 3.7584 5.7624 0.0000 -10518.4826 1370.3082 0.0000 0.0000 1717.9461 -7419.0553 297.2356 -9137.0014 -7339.6171 300.9644 -474.7600 -391.8386 29702.0119 -149.6158 -97.1978
ENERGY: 1500000 2.8885 5.4478 4.8341 0.0000 -10482.2217 1387.6818 0.0000 0.0000 1717.2749 -7364.0945 297.1195 -9081.3693 -7344.3077 300.5670 -227.4938 -170.7722 29889.5843 -79.2592 -21.4727
TCL: Running FEP window  11: Lambda1 0.4999999999999996 Lambda2 0.4499999999999996 [dLambda -0.04999999999999999]
TCL: Setting parameter firsttimestep to 0
TCL: Setting parameter alchLambda to 0.4999999999999996
Info: NONBONDED TABLE R-SQUARED SPACING: 0.0625
Info: NONBONDED TABLE SIZE: 705 POINTS
TCL: Setting parameter alchLambda2 to 0.4499999999999996
Info: NONBONDED TABLE R-SQUARED SPACING: 0.0625
Info: NONBONDED TABLE SIZE: 705 POINTS
TCL: Running for 1500000 steps
ETITLE: TS BOND ANGLE DIHED IMPRP ELECT VDW BOUNDARY MISC KINETIC TOTAL TEMP POTENTIAL TOTALAVG TEMPAVG PRESSURE GPRESSURE VOLUME PRESSAVG GPRESSAVG
ENERGY: 0 2.8885 5.4478 4.8341 0.0000 -10481.9516 1388.1111 0.0000 0.0000 1716.4558 -7364.2141 296.9778 -9080.6699 -7364.2141 296.9778 -263.2769 -171.4707 29889.5843 -263.2769 -171.4707
ENERGY: 300000 1.1189 7.8414 5.1030 0.0000 -10456.2271 1391.8751 0.0000 0.0000 1673.7406 -7376.5482 289.5873 -9050.2888 -7336.0050 292.9368 -30.5511 9.1015 29785.7384 -174.2051 -121.1175
ENERGY: 600000 2.9297 10.5957 5.1326 0.0000 -10557.9716 1436.6334 0.0000 0.0000 1772.2739 -7330.4062 306.6353 -9102.6802 -7336.4336 296.6767 416.7475 473.0938 29638.5540 -219.2781 -161.3979
ENERGY: 900000 3.7177 6.7759 5.8568 0.0000 -10598.4672 1480.8915 0.0000 0.0000 1785.2377 -7315.9877 308.8783 -9101.2254 -7324.4703 300.5031 602.9030 653.9718 29737.1036 -60.7495 -3.9297
ENERGY: 1200000 2.2230 13.5284 4.4879 0.0000 -10398.6257 1306.3165 0.0000 0.0000 1724.1402 -7347.9298 298.3073 -9072.0700 -7327.8996 299.5655 -910.5477 -817.4978 30161.8577 -105.0559 -43.6560
ENERGY: 1500000 2.1778 10.9568 8.3002 0.0000 -10448.2453 1392.6698 0.0000 0.0000 1749.1185 -7285.0222 302.6290 -9034.1407 -7330.4903 299.7062 -81.7772 29.4634 29959.0051 -157.2072 -88.8735
TCL: Running FEP window  12: Lambda1 0.4499999999999996 Lambda2 0.39999999999999963 [dLambda -0.04999999999999999]
TCL: Setting parameter firsttimestep to 0
TCL: Setting parameter alchLambda to 0.4499999999999996
Info: NONBONDED TABLE R-SQUARED SPACING: 0.0625
Info: NONBONDED TABLE SIZE: 705 POINTS
TCL: Setting parameter alchLambda2 to 0.39999999999999963
Info: NONBONDED TABLE R-SQUARED SPACING: 0.0625
Info: NONBONDED TABLE SIZE: 705 POINTS
TCL: Running for 1500000 steps
ETITLE: TS BOND ANGLE DIHED IMPRP ELECT VDW BOUNDARY MISC KINETIC TOTAL TEMP POTENTIAL TOTALAVG TEMPAVG PRESSURE GPRESSURE VOLUME PRESSAVG GPRESSAVG
ENERGY: 0 2.1778 10.9568 8.3002 0.0000 -10448.2458 1393.1663 0.0000 0.0000 1748.2697 -7285.3750 302.4821 -9033.6447 -7285.3750 302.4821 -52.2753 28.6454 29959.0051 -52.2753 28.6454
ENERGY: 300000 2.0792 7.0568 5.8826 0.0000 -10427.4221 1333.0863 0.0000 0.0000 1784.8348 -7294.4823 308.8086 -9079.3171 -7318.0938 302.3540 -743.1353 -704.0287 30108.3550 -91.9475 -58.3580
ENERGY: 600000 2.2599 7.4112 4.6395 0.0000 -10568.1564 1406.6290 0.0000 0.0000 1750.7375 -7396.4793 302.9091 -9147.2168 -7344.8567 302.2760 -198.0590 -158.5250 29488.5226 -112.0855 -77.8564
ENERGY: 900000 0.2574 5.5700 4.9931 0.0000 -10421.7497 1387.9032 0.0000 0.0000 1767.2198 -7255.8062 305.7609 -9023.0260 -7343.5097 302.5815 14.4438 15.5489 30081.2958 -80.0985 -50.2869
ENERGY: 1200000 1.7501 8.5114 5.8429 0.0000 -10518.6574 1377.9841 0.0000 0.0000 1683.6662 -7440.9026 291.3046 -9124.5688 -7349.0521 301.5609 -598.4316 -537.7669 30413.9317 -142.1801 -107.3189
ENERGY: 1500000 1.2160 10.8059 5.3128 0.0000 -10332.3750 1284.8989 0.0000 0.0000 1692.7809 -7337.3605 292.8816 -9030.1415 -7344.2904 300.8878 -1117.7836 -1005.8287 30512.0115 -193.8662 -153.3786
TCL: Running FEP window  13: Lambda1 0.39999999999999963 Lambda2 0.34999999999999964 [dLambda -0.04999999999999999]
TCL: Setting parameter firsttimestep to 0
TCL: Setting parameter alchLambda to 0.39999999999999963
Info: NONBONDED TABLE R-SQUARED SPACING: 0.0625
Info: NONBONDED TABLE SIZE: 705 POINTS
TCL: Setting parameter alchLambda2 to 0.34999999999999964
Info: NONBONDED TABLE R-SQUARED SPACING: 0.0625
Info: NONBONDED TABLE SIZE: 705 POINTS
TCL: Running for 1500000 steps
ETITLE: TS BOND ANGLE DIHED IMPRP ELECT VDW BOUNDARY MISC KINETIC TOTAL TEMP POTENTIAL TOTALAVG TEMPAVG PRESSURE GPRESSURE VOLUME PRESSAVG GPRESSAVG
ENERGY: 0 1.2160 10.8059 5.3128 0.0000 -10332.3748 1285.0596 0.0000 0.0000 1691.9244 -7338.0561 292.7334 -9029.9804 -7338.0561 292.7334 -1106.1018 -1011.0931 30512.0115 -1106.1018 -1011.0931
ENERGY: 300000 3.3545 12.3910 4.9226 0.0000 -10396.6156 1334.9539 0.0000 0.0000 1714.1404 -7326.8532 296.5772 -9040.9935 -7339.2193 297.4536 -732.4905 -739.7398 30224.7029 -426.8795 -379.0102
ENERGY: 600000 2.2250 8.0960 4.6237 0.0000 -10554.0984 1429.0236 0.0000 0.0000 1807.4372 -7302.6928 312.7192 -9110.1300 -7316.8063 302.9303 -44.1448 5.0820 30138.8097 -211.8363 -172.1670
ENERGY: 900000 2.3171 7.0356 5.7890 0.0000 -10384.8299 1297.8281 0.0000 0.0000 1754.3799 -7317.4802 303.5393 -9071.8601 -7326.5768 302.1269 -769.3750 -760.9603 29763.0531 -151.2733 -113.8475
ENERGY: 1200000 1.3031 8.4099 5.0031 0.0000 -10510.2064 1405.9369 0.0000 0.0000 1763.1389 -7326.4146 305.0548 -9089.5535 -7336.7376 302.2723 -250.4387 -202.6837 29992.5082 -87.0351 -37.2205
ENERGY: 1500000 1.5864 9.8388 6.6987 0.0000 -10434.1141 1396.4556 0.0000 0.0000 1684.4047 -7335.1299 291.4324 -9019.5346 -7335.6161 300.7617 -60.4687 -46.8028 30087.7471 -98.5168 -46.4199
TCL: Running FEP window  14: Lambda1 0.34999999999999964 Lambda2 0.29999999999999966 [dLambda -0.04999999999999999]
TCL: Setting parameter firsttimestep to 0
TCL: Setting parameter alchLambda to 0.34999999999999964
Info: NONBONDED TABLE R-SQUARED SPACING: 0.0625
Info: NONBONDED TABLE SIZE: 705 POINTS
TCL: Setting parameter alchLambda2 to 0.29999999999999966
Info: NONBONDED TABLE R-SQUARED SPACING: 0.0625
Info: NONBONDED TABLE SIZE: 705 POINTS
TCL: Running for 1500000 steps
ETITLE: TS BOND ANGLE DIHED IMPRP ELECT VDW BOUNDARY MISC KINETIC TOTAL TEMP POTENTIAL TOTALAVG TEMPAVG PRESSURE GPRESSURE VOLUME PRESSAVG GPRESSAVG
ENERGY: 0 1.5864 9.8388 6.6987 0.0000 -10434.1149 1396.8517 0.0000 0.0000 1683.5189 -7335.6204 291.2791 -9019.1394 -7335.6204 291.2791 -140.1774 -49.1019 30087.7471 -140.1774 -49.1019
ENERGY: 300000 6.5728 7.7213 4.6275 0.0000 -10567.3220 1379.3153 0.0000 0.0000 1755.2438 -7413.8413 303.6888 -9169.0851 -7372.0926 296.5257 -711.7271 -647.4738 29964.6563 -107.3769 -21.8037
ENERGY: 600000 1.5458 12.3446 4.4465 0.0000 -10487.6301 1355.3411 0.0000 0.0000 1775.0148 -7338.9373 307.1095 -9113.9522 -7360.4128 298.8223 -678.1782 -613.2736 30138.8939 -89.7489 -20.2264
ENERGY: 900000 1.9616 7.1511 5.6408 0.0000 -10476.5015 1356.2084 0.0000 0.0000 1761.4171 -7344.1225 304.7569 -9105.5396 -7364.7634 299.2388 -869.5256 -823.4062 30475.4487 -238.3325 -171.6125
ENERGY: 1200000 4.1837 7.3496 4.5135 0.0000 -10408.5571 1291.6529 0.0000 0.0000 1742.2828 -7358.5747 301.4463 -9100.8575 -7366.8706 299.9831 -992.0004 -920.6645 29977.9800 -230.3321 -169.8762
ENERGY: 1500000 1.7869 10.4873 4.9043 0.0000 -10371.9015 1350.8259 0.0000 0.0000 1718.8851 -7285.0120 297.3981 -9003.8971 -7357.1105 299.5978 -75.0073 -21.6483 29674.1132 -189.2176 -124.5882
TCL: Running FEP window  15: Lambda1 0.29999999999999966 Lambda2 0.24999999999999967 [dLambda -0.04999999999999999]
TCL: Setting parameter firsttimestep to 0
TCL: Setting parameter alchLambda to 0.29999999999999966
Info: NONBONDED TABLE R-SQUARED SPACING: 0.0625
Info: NONBONDED TABLE SIZE: 705 POINTS
TCL: Setting parameter alchLambda2 to 0.24999999999999967
Info: NONBONDED TABLE R-SQUARED SPACING: 0.0625
Info: NONBONDED TABLE SIZE: 705 POINTS
TCL: Running for 1500000 steps
ETITLE: TS BOND ANGLE DIHED IMPRP ELECT VDW BOUNDARY MISC KINETIC TOTAL TEMP POTENTIAL TOTALAVG TEMPAVG PRESSURE GPRESSURE VOLUME PRESSAVG GPRESSAVG
ENERGY: 0 1.7869 10.4873 4.9043 0.0000 -10371.9014 1350.7769 0.0000 0.0000 1718.0478 -7285.8981 297.2532 -9003.9459 -7285.8981 297.2532 -103.4436 -26.7258 29674.1132 -103.4436 -26.7258
ENERGY: 300000 1.3079 10.3889 4.4564 0.0000 -10501.2276 1414.4658 0.0000 0.0000 1781.4128 -7289.1958 308.2165 -9070.6086 -7299.4270 302.2690 23.3344 145.2034 29599.2848 -93.4279 -11.2828
ENERGY: 600000 1.5936 15.6254 4.6470 0.0000 -10406.5253 1313.0077 0.0000 0.0000 1754.3284 -7317.3233 303.5304 -9071.6516 -7322.6073 303.0913 -1064.2975 -946.8677 30407.2034 -365.0126 -270.4304
ENERGY: 900000 2.8839 11.1126 4.3351 0.0000 -10432.3318 1392.4389 0.0000 0.0000 1682.6012 -7338.9600 291.1203 -9021.5612 -7315.3369 302.3544 8.7467 73.6423 29677.2817 -327.2838 -243.0459
ENERGY: 1200000 0.6970 6.4698 5.1764 0.0000 -10588.7352 1470.1016 0.0000 0.0000 1736.9820 -7369.3085 300.5292 -9106.2905 -7332.7908 301.5271 316.2326 342.3981 29887.8771 -242.8467 -165.0743
ENERGY: 1500000 1.2940 6.8217 4.9026 0.0000 -10430.0955 1360.2034 0.0000 0.0000 1704.6918 -7352.1820 294.9424 -9056.8738 -7335.2149 301.2963 -502.1594 -487.5740 30141.9185 -390.2825 -320.5604
TCL: Running FEP window  16: Lambda1 0.24999999999999967 Lambda2 0.19999999999999968 [dLambda -0.04999999999999999]
TCL: Setting parameter firsttimestep to 0
TCL: Setting parameter alchLambda to 0.24999999999999967
Info: NONBONDED TABLE R-SQUARED SPACING: 0.0625
Info: NONBONDED TABLE SIZE: 705 POINTS
TCL: Setting parameter alchLambda2 to 0.19999999999999968
Info: NONBONDED TABLE R-SQUARED SPACING: 0.0625
Info: NONBONDED TABLE SIZE: 705 POINTS
TCL: Running for 1500000 steps
ETITLE: TS BOND ANGLE DIHED IMPRP ELECT VDW BOUNDARY MISC KINETIC TOTAL TEMP POTENTIAL TOTALAVG TEMPAVG PRESSURE GPRESSURE VOLUME PRESSAVG GPRESSAVG
ENERGY: 0 1.2940 6.8217 4.9026 0.0000 -10430.0952 1360.4778 0.0000 0.0000 1703.8548 -7352.7443 294.7976 -9056.5991 -7352.7443 294.7976 -583.3622 -491.1948 30141.9185 -583.3622 -491.1948
ENERGY: 300000 2.9136 10.7735 5.5774 0.0000 -10649.1568 1492.6193 0.0000 0.0000 1701.3267 -7435.9463 294.3602 -9137.2730 -7354.2231 298.1855 336.5818 449.4293 29554.6649 73.6369 155.1243
ENERGY: 600000 3.1784 10.8651 5.4521 0.0000 -10473.4961 1358.1504 0.0000 0.0000 1698.5233 -7397.3268 293.8751 -9095.8500 -7366.9536 299.0456 -710.7039 -674.2499 30050.4542 46.8700 107.9387
ENERGY: 900000 1.3356 4.9339 4.6947 0.0000 -10433.1016 1397.1345 0.0000 0.0000 1665.2233 -7359.7797 288.1136 -9025.0030 -7366.3100 297.0878 -75.2580 7.0625 29520.2786 -40.1156 19.9358
ENERGY: 1200000 1.1978 10.2571 5.6287 0.0000 -10556.6147 1418.5384 0.0000 0.0000 1791.0059 -7329.9868 309.8763 -9120.9927 -7353.9882 299.2000 545.1503 520.1284 28839.9050 105.6766 150.3305
ENERGY: 1500000 2.9021 13.4253 5.6785 0.0000 -10469.6817 1362.0362 0.0000 0.0000 1752.7103 -7332.9293 303.2505 -9085.6396 -7359.6946 299.1019 -449.1729 -405.5230 29909.9269 75.9562 121.7236
TCL: Running FEP window  17: Lambda1 0.19999999999999968 Lambda2 0.1499999999999997 [dLambda -0.04999999999999999]
TCL: Setting parameter firsttimestep to 0
TCL: Setting parameter alchLambda to 0.19999999999999968
Info: NONBONDED TABLE R-SQUARED SPACING: 0.0625
Info: NONBONDED TABLE SIZE: 705 POINTS
TCL: Setting parameter alchLambda2 to 0.1499999999999997
Info: NONBONDED TABLE R-SQUARED SPACING: 0.0625
Info: NONBONDED TABLE SIZE: 705 POINTS
TCL: Running for 1500000 steps
ETITLE: TS BOND ANGLE DIHED IMPRP ELECT VDW BOUNDARY MISC KINETIC TOTAL TEMP POTENTIAL TOTALAVG TEMPAVG PRESSURE GPRESSURE VOLUME PRESSAVG GPRESSAVG
ENERGY: 0 2.9021 13.4253 5.6785 0.0000 -10469.6826 1361.2528 0.0000 0.0000 1751.8021 -7334.6218 303.0933 -9086.4239 -7334.6218 303.0933 -508.4488 -414.4128 29909.9269 -508.4488 -414.4128
ENERGY: 300000 3.1705 6.1591 5.6347 0.0000 -10593.7592 1514.4824 0.0000 0.0000 1781.4987 -7282.8138 308.2314 -9064.3125 -7355.3419 303.1293 1103.1488 1201.4659 29401.6150 60.2933 146.5603
ENERGY: 600000 4.4163 15.6357 5.8056 0.0000 -10527.0095 1365.3145 0.0000 0.0000 1752.5499 -7383.2875 303.2227 -9135.8373 -7352.3620 301.5800 -783.2762 -762.1429 29939.5552 -193.5333 -115.8784
ENERGY: 900000 0.8769 7.9876 4.3975 0.0000 -10508.9834 1409.4930 0.0000 0.0000 1719.2810 -7366.9475 297.4666 -9086.2285 -7350.2939 300.6228 77.0455 105.4086 29668.9840 -143.1671 -72.2292
ENERGY: 1200000 4.8538 11.0259 5.4955 0.0000 -10580.1605 1439.2147 0.0000 0.0000 1709.1452 -7410.4255 295.7129 -9119.5707 -7358.5686 299.5801 -82.3310 -49.6329 30197.9713 -102.5287 -41.4226
ENERGY: 1500000 3.7046 6.2774 4.4999 0.0000 -10561.2208 1408.8091 0.0000 0.0000 1714.8007 -7423.1291 296.6914 -9137.9298 -7365.8538 299.1786 -337.2851 -274.5093 29695.5556 -79.4573 -15.8921
TCL: Running FEP window  18: Lambda1 0.1499999999999997 Lambda2 0.09999999999999969 [dLambda -0.05 ]
TCL: Setting parameter firsttimestep to 0
TCL: Setting parameter alchLambda to 0.1499999999999997
Info: NONBONDED TABLE R-SQUARED SPACING: 0.0625
Info: NONBONDED TABLE SIZE: 705 POINTS
TCL: Setting parameter alchLambda2 to 0.09999999999999969
Info: NONBONDED TABLE R-SQUARED SPACING: 0.0625
Info: NONBONDED TABLE SIZE: 705 POINTS
TCL: Running for 1500000 steps
ETITLE: TS BOND ANGLE DIHED IMPRP ELECT VDW BOUNDARY MISC KINETIC TOTAL TEMP POTENTIAL TOTALAVG TEMPAVG PRESSURE GPRESSURE VOLUME PRESSAVG GPRESSAVG
ENERGY: 0 3.7046 6.2775 4.4999 0.0000 -10561.2206 1408.4545 0.0000 0.0000 1713.9374 -7424.3467 296.5420 -9138.2841 -7424.3467 296.5420 -355.9357 -278.3090 29695.5556 -355.9357 -278.3090
ENERGY: 300000 1.1873 6.1741 4.1946 0.0000 -10533.4296 1393.9634 0.0000 0.0000 1769.8039 -7358.1063 306.2079 -9127.9102 -7375.6260 301.8576 -357.5131 -374.0523 29801.7129 -284.9009 -221.8842
ENERGY: 600000 2.2984 6.5721 4.2837 0.0000 -10496.0318 1361.5296 0.0000 0.0000 1721.1066 -7400.2414 297.7824 -9121.3479 -7365.7880 300.4587 -620.0016 -504.9617 29657.5444 -171.1489 -97.6944
ENERGY: 900000 1.0565 11.4866 4.7455 0.0000 -10476.5631 1390.8875 0.0000 0.0000 1798.7927 -7269.5943 311.2235 -9068.3871 -7342.4411 302.3065 -69.2546 -40.6388 29729.5063 -163.1857 -101.5132
ENERGY: 1200000 1.9385 7.9602 3.7979 0.0000 -10719.4924 1545.6579 0.0000 0.0000 1743.5670 -7416.5709 301.6685 -9160.1379 -7360.0820 301.0054 872.3014 901.2132 29491.7233 -70.6231 -13.9648
ENERGY: 1500000 2.5640 11.3282 5.6609 0.0000 -10535.2221 1445.0033 0.0000 0.0000 1786.8222 -7283.8436 309.1524 -9070.6657 -7346.8173 302.9135 70.5972 134.8503 29979.9640 -82.7119 -24.8350
TCL: Running FEP window  19: Lambda1 0.09999999999999969 Lambda2 0.049999999999999684 [dLambda -0.05 ]
TCL: Setting parameter firsttimestep to 0
TCL: Setting parameter alchLambda to 0.09999999999999969
Info: NONBONDED TABLE R-SQUARED SPACING: 0.0625
Info: NONBONDED TABLE SIZE: 705 POINTS
TCL: Setting parameter alchLambda2 to 0.049999999999999684
Info: NONBONDED TABLE R-SQUARED SPACING: 0.0625
Info: NONBONDED TABLE SIZE: 705 POINTS
TCL: Running for 1500000 steps
ETITLE: TS BOND ANGLE DIHED IMPRP ELECT VDW BOUNDARY MISC KINETIC TOTAL TEMP POTENTIAL TOTALAVG TEMPAVG PRESSURE GPRESSURE VOLUME PRESSAVG GPRESSAVG
ENERGY: 0 2.5640 11.3282 5.6609 0.0000 -10535.2219 1445.0438 0.0000 0.0000 1785.9363 -7284.6887 308.9992 -9070.6251 -7284.6887 308.9992 48.8953 132.9414 29979.9640 48.8953 132.9414
ENERGY: 300000 0.3488 7.3397 5.4296 0.0000 -10393.7423 1310.6626 0.0000 0.0000 1755.8860 -7314.0756 303.7999 -9069.9616 -7328.9367 303.7055 -719.2855 -618.5625 30092.7623 -68.1043 16.9271
ENERGY: 600000 1.0915 8.4981 5.0096 0.0000 -10530.3523 1454.8645 0.0000 0.0000 1721.0122 -7339.8764 297.7661 -9060.8886 -7320.8633 300.9376 378.7928 513.0697 29718.7677 -104.0340 -12.5792
ENERGY: 900000 3.1814 6.8956 5.4898 0.0000 -10500.8561 1420.0176 0.0000 0.0000 1708.3526 -7356.9192 295.5758 -9065.2718 -7320.8334 301.0153 290.9361 365.9144 29339.9629 -95.4408 -14.3649
ENERGY: 1200000 1.0684 7.9347 6.0859 0.0000 -10466.4184 1301.7385 0.0000 0.0000 1770.5380 -7379.0528 306.3350 -9149.5909 -7318.8097 302.2443 -1107.9831 -989.8942 29767.9971 -119.4002 -40.9059
ENERGY: 1500000 1.8470 6.9593 4.7116 0.0000 -10525.1234 1390.9063 0.0000 0.0000 1712.8667 -7407.8325 296.3568 -9120.6992 -7323.6143 302.3695 -229.1341 -121.9094 29640.5868 -130.3141 -51.5223
TCL: Running FEP window  20: Lambda1 0.049999999999999684 Lambda2 0.0    [dLambda -0.049999999999999684]
TCL: Setting parameter firsttimestep to 0
TCL: Setting parameter alchLambda to 0.049999999999999684
Info: NONBONDED TABLE R-SQUARED SPACING: 0.0625
Info: NONBONDED TABLE SIZE: 705 POINTS
TCL: Setting parameter alchLambda2 to 0.0
Info: NONBONDED TABLE R-SQUARED SPACING: 0.0625
Info: NONBONDED TABLE SIZE: 705 POINTS
TCL: Running for 1500000 steps
ETITLE: TS BOND ANGLE DIHED IMPRP ELECT VDW BOUNDARY MISC KINETIC TOTAL TEMP POTENTIAL TOTALAVG TEMPAVG PRESSURE GPRESSURE VOLUME PRESSAVG GPRESSAVG
ENERGY: 0 1.8470 6.9593 4.7116 0.0000 -10525.1234 1390.1462 0.0000 0.0000 1711.9841 -7409.4752 296.2041 -9121.4592 -7409.4752 296.2041 -214.4610 -127.6029 29640.5868 -214.4610 -127.6029
ENERGY: 300000 1.0015 6.2937 5.8830 0.0000 -10466.2377 1333.9071 0.0000 0.0000 1760.6542 -7358.4982 304.6249 -9119.1524 -7353.7893 298.2827 -761.9190 -763.6229 29816.9372 -181.8323 -113.9845
ENERGY: 600000 2.5769 6.2591 4.8330 0.0000 -10525.1462 1423.8422 0.0000 0.0000 1740.4792 -7347.1557 301.1343 -9087.6349 -7336.7554 300.5366 102.5488 183.7277 29498.3904 -79.7303 -14.2703
ENERGY: 900000 2.5331 6.4957 5.4044 0.0000 -10635.5058 1493.9528 0.0000 0.0000 1668.3156 -7458.8042 288.6486 -9127.1198 -7359.8163 299.7417 761.3998 826.3827 29464.8442 75.8590 130.9393
ENERGY: 1200000 2.4936 8.2808 5.2359 0.0000 -10449.1199 1370.0713 0.0000 0.0000 1786.2085 -7276.8299 309.0462 -9063.0384 -7349.7035 299.9596 -388.9007 -313.1935 29634.0721 8.6726 70.8605
ENERGY: 1500000 0.5421 8.3047 4.7266 0.0000 -10570.8856 1433.9813 0.0000 0.0000 1750.3986 -7372.9323 302.8505 -9123.3308 -7353.1290 300.0268 -307.1729 -218.2903 30421.6990 9.3268 73.7372
TCL: Exiting due to exit command.
