Info: SIMULATION PARAMETERS:
Info: TIMESTEP               2
Info: NUMBER OF STEPS        0
Info: STEPS PER CYCLE        10
Info: PERIODIC CELL BASIS 1  31.0877 0 0
Info: PERIODIC CELL BASIS 2  0 30.4426 0
Info: PERIODIC CELL BASIS 3  0 0 32.5068
Info: PERIODIC CELL CENTER   0 0 0
Info: WRAPPING WATERS AROUND PERIODIC BOUNDARIES ON OUTPUT.
Info: WRAPPING ALL CLUSTERS AROUND PERIODIC BOUNDARIES ON OUTPUT.
Info: FIRST LDB TIMESTEP     50
Info: LAST LDB TIMESTEP     -1
Info: HOM BACKGROUND SCALING 1
Info: PME BACKGROUND SCALING 1
Info: MIN ATOMS PER PATCH    40
Info: EMPTY PATCH LOAD       40 ATOMS
Info: VELOCITY FILE          mobley_4252724_equil.vel
Info: CENTER OF MASS MOVING INITIALLY? NO
Info: DIELECTRIC             1
Info: EXCLUDE                SCALED ONE-FOUR
Info: 1-4 ELECTROSTATICS SCALED BY 0.833333
Info: MODIFIED 1-4 VDW PARAMETERS WILL BE USED
Info: DCD FILENAME           mobley_4252724_prod.dcd
Info: DCD FREQUENCY          100000
Info: DCD FIRST STEP         100000
Info: DCD FILE WILL CONTAIN UNIT CELL DATA
Info: XST FILENAME           mobley_4252724_prod.xst
Info: XST FREQUENCY          100000
Info: NO VELOCITY DCD OUTPUT
Info: NO FORCE DCD OUTPUT
Info: OUTPUT FILENAME        mobley_4252724_prod
Info: BINARY OUTPUT FILES WILL BE USED
Info: RESTART FILENAME       mobley_4252724_prod.restart
Info: RESTART FREQUENCY      100000
Info: BINARY RESTART FILES WILL BE USED
Info: CUTOFF                 9
Info: PAIRLIST DISTANCE      11
Info: PAIRLIST SHRINK RATE   0.01
Info: PAIRLIST GROW RATE     0.01
Info: PAIRLIST TRIGGER       0.3
Info: PAIRLISTS PER CYCLE    2
Info: PAIRLISTS ENABLED
Info: MARGIN                 2
Info: HYDROGEN GROUP CUTOFF  2.5
Info: PATCH DIMENSION        15.5
Info: ENERGY OUTPUT STEPS    100000
Info: ENERGY EVALUATION STEPS    100000
Info: OUTPUT ENERGY PRECISION 4
Info: CROSSTERM ENERGY INCLUDED IN DIHEDRAL
Info: TIMING OUTPUT STEPS    1000000
Info: PRESSURE OUTPUT STEPS  100000
Info: ALCHEMICAL FEP ON
Info: FEP CURRENT LAMBDA VALUE     0
Info: FEP COMPARISON LAMBDA VALUE  0.05
Info: FEP INTRA-ALCHEMICAL NON-BONDED INTERACTIONS WILL BE RETAINED
Info: FEP INTRA-ALCHEMICAL BONDED INTERACTIONS WILL BE RETAINED
Info: FEP VDW SHIFTING COEFFICIENT 5
Info: FEP ELEC. ACTIVE FOR ANNIHILATED PARTICLES BETWEEN LAMBDA = 0 AND LAMBDA = 0.5
Info: FEP ELEC. ACTIVE FOR EXNIHILATED PARTICLES BETWEEN LAMBDA = 0.5 AND LAMBDA = 1
Info: FEP VDW ACTIVE FOR ANNIHILATED PARTICLES BETWEEN LAMBDA = 0 AND LAMBDA = 1
Info: FEP VDW ACTIVE FOR EXNIHILATED PARTICLES BETWEEN LAMBDA = 0 AND LAMBDA = 1
Info: FEP BOND ACTIVE FOR ANNIHILATED PARTICLES BETWEEN LAMBDA = 1 AND LAMBDA = 1
Info: FEP BOND ACTIVE FOR EXNIHILATED PARTICLES BETWEEN LAMBDA = 0 AND LAMBDA = 0
Info: LANGEVIN DYNAMICS ACTIVE
Info: LANGEVIN TEMPERATURE   300
Info: LANGEVIN USING BBK INTEGRATOR
Info: LANGEVIN DAMPING COEFFICIENT IS 1 INVERSE PS
Info: LANGEVIN DYNAMICS APPLIED TO HYDROGENS
Info: LANGEVIN PISTON PRESSURE CONTROL ACTIVE
Info:        TARGET PRESSURE IS 1.01325 BAR
Info:     OSCILLATION PERIOD IS 50 FS
Info:             DECAY TIME IS 25 FS
Info:     PISTON TEMPERATURE IS 300 K
Info:       PRESSURE CONTROL IS GROUP-BASED
Info:    INITIAL STRAIN RATE IS 0.000315441 0.000315441 0.000315441
Info:       CELL FLUCTUATION IS ISOTROPIC
Info: PARTICLE MESH EWALD (PME) ACTIVE
Info: PME TOLERANCE               1e-06
Info: PME EWALD COEFFICIENT       0.348832
Info: PME INTERPOLATION ORDER     4
Info: PME GRID DIMENSIONS         32 32 36
Info: PME MAXIMUM GRID SPACING    1
Info: PME CALCULATION WILL BE PERFORMED ON GPU
Info: FULL ELECTROSTATIC EVALUATION FREQUENCY      2
Info: USING VERLET I (r-RESPA) MTS SCHEME.
Info: C1 SPLITTING OF LONG RANGE ELECTROSTATICS
Info: PLACING ATOMS IN PATCHES BY HYDROGEN GROUPS
Info: RIGID BONDS TO HYDROGEN : ALL
Info:         ERROR TOLERANCE : 1e-08
Info:          MAX ITERATIONS : 100
Info: RIGID WATER USING SETTLE ALGORITHM
Info: RANDOM NUMBER SEED     1743886212
Info: USE HYDROGEN BONDS?    NO
Info: Using AMBER format force field!
Info: AMBER PARM FILE        mobley_4252724.prmtop
Info: COORDINATE PDB         mobley_4252724.pdb
Info: Exclusions will be read from PARM file!
Info: SCNB (VDW SCALING)     2
Info: USING ARITHMETIC MEAN TO COMBINE L-J SIGMA PARAMETERS
Info: BINARY COORDINATES     mobley_4252724_equil.coor
Info: SUMMARY OF PARAMETERS:
Info: 7 BONDS
Info: 8 ANGLES
Info:   8 HARMONIC
Info:   0 COSINE-BASED
Info: 6 DIHEDRAL
Info: 0 IMPROPER
Info: 0 CROSSTERM
Info: 0 VDW
Info: 21 VDW_PAIRS
Info: 0 NBTHOLE_PAIRS
Info: To read alchdata from file: mobley_4252724.pdb
Info: To read alchflag data from column: 5
Info: STRUCTURE SUMMARY:
Info: 2958 ATOMS
Info: 2958 BONDS
Info: 42 ANGLES
Info: 63 DIHEDRALS
Info: 0 IMPROPERS
Info: 0 CROSSTERMS
Info: 3054 EXCLUSIONS
Info: 2948 RIGID BONDS
Info: ALCH: 0 ATOMS TO DISAPPEAR IN FINAL STATE
Info: ALCH: 24 ATOMS TO APPEAR IN FINAL STATE
Info: 5926 DEGREES OF FREEDOM
Info: 988 HYDROGEN GROUPS
Info: 4 ATOMS IN LARGEST HYDROGEN GROUP
Info: 988 MIGRATION GROUPS
Info: 4 ATOMS IN LARGEST MIGRATION GROUP
Info: TOTAL MASS = 17753.9 amu
Info: TOTAL CHARGE = -1.49012e-08 e
Info: MASS DENSITY = 0.958314 g/cm^3
Info: ATOM DENSITY = 0.0961511 atoms/A^3
Info: ADDED 0 IMPLICIT EXCLUSIONS
Info: NONBONDED TABLE R-SQUARED SPACING: 0.0625
Info: NONBONDED TABLE SIZE: 705 POINTS
Info: REMOVING COM VELOCITY 0.00239927 0.120169 -0.0221591
Info: Use 3D box decompostion in PME FFT.
Info: Updated CUDA force table with 4096 elements.
Info: Updated CUDA LJ table with 6 x 6 elements.
Info: Found 23 unique exclusion lists needing 80 bytes
TCL: Running for 1500000 steps
ETITLE: TS BOND ANGLE DIHED IMPRP ELECT VDW BOUNDARY MISC KINETIC TOTAL TEMP POTENTIAL TOTALAVG TEMPAVG PRESSURE GPRESSURE VOLUME PRESSAVG GPRESSAVG
ENERGY: 0 2.4545 11.3216 3.4208 0.0000 -10677.7094 1439.2130 0.0000 0.0000 1710.0558 -7511.2437 290.4283 -9221.2994 -7511.2437 290.4283 -196.2927 -129.9295 30764.0868 -196.2927 -129.9295
ENERGY: 300000 1.4225 8.0958 3.4179 0.0000 -10709.9377 1460.9145 0.0000 0.0000 1748.2077 -7487.8792 296.9079 -9236.0869 -7487.3980 295.7340 162.6122 210.0206 30220.4414 -173.3276 -109.6799
ENERGY: 600000 1.1180 9.5847 7.9788 0.0000 -10579.3819 1389.4749 0.0000 0.0000 1803.4962 -7367.7294 306.2979 -9171.2255 -7468.1655 296.9677 -195.7592 -229.9763 30353.5196 -69.9255 -11.5132
ENERGY: 900000 4.8866 6.3607 6.3468 0.0000 -10653.9901 1444.6909 0.0000 0.0000 1818.5051 -7373.2001 308.8469 -9191.7052 -7449.7659 298.8636 -209.6597 -151.3552 30761.2974 -36.1638 24.5608
ENERGY: 1200000 3.5826 11.1025 3.9308 0.0000 -10717.8244 1421.2861 0.0000 0.0000 1763.1551 -7514.7673 299.4465 -9277.9224 -7449.9592 299.6348 -207.2592 -159.4706 30188.0582 -26.8053 26.6538
ENERGY: 1500000 1.3855 11.4694 6.4443 0.0000 -10654.4368 1459.1570 0.0000 0.0000 1780.0785 -7395.9021 302.3207 -9175.9806 -7450.7449 299.4850 555.4353 576.1875 29940.5035 109.9589 167.8147
TCL: Running FEP window   2: Lambda1 0.05   Lambda2 0.1    [dLambda 0.05  ]
TCL: Setting parameter firsttimestep to 0
TCL: Setting parameter alchLambda to 0.05
Info: NONBONDED TABLE R-SQUARED SPACING: 0.0625
Info: NONBONDED TABLE SIZE: 705 POINTS
TCL: Setting parameter alchLambda2 to 0.1
Info: NONBONDED TABLE R-SQUARED SPACING: 0.0625
Info: NONBONDED TABLE SIZE: 705 POINTS
TCL: Running for 1500000 steps
ETITLE: TS BOND ANGLE DIHED IMPRP ELECT VDW BOUNDARY MISC KINETIC TOTAL TEMP POTENTIAL TOTALAVG TEMPAVG PRESSURE GPRESSURE VOLUME PRESSAVG GPRESSAVG
ENERGY: 0 1.3855 11.4694 6.4443 0.0000 -10654.4388 1465.8158 0.0000 0.0000 1779.1790 -7390.1449 302.1679 -9169.3239 -7390.1449 302.1679 504.3537 588.3035 29940.5035 504.3537 588.3035
ENERGY: 300000 1.9344 8.3721 2.4905 0.0000 -10675.9618 1517.6172 0.0000 0.0000 1773.4677 -7372.0800 301.1979 -9145.5476 -7419.7837 300.1404 807.2357 803.3371 30308.6540 204.6054 261.5117
ENERGY: 600000 1.5800 8.6617 3.9070 0.0000 -10646.6445 1452.8109 0.0000 0.0000 1810.4026 -7369.2822 307.4708 -9179.6848 -7434.1277 300.9331 164.1883 227.1948 30364.7668 157.9647 218.8462
ENERGY: 900000 2.5978 5.6598 3.1621 0.0000 -10546.2477 1391.1653 0.0000 0.0000 1783.6664 -7359.9964 302.9301 -9143.6627 -7418.7733 300.8574 -388.1146 -317.5484 30618.4807 38.4788 101.8235
ENERGY: 1200000 4.0672 7.8167 6.3341 0.0000 -10649.0771 1386.3516 0.0000 0.0000 1779.4839 -7465.0236 302.2197 -9244.5075 -7415.4361 301.2957 -682.3040 -630.0317 30331.2826 -8.4694 58.7367
ENERGY: 1500000 4.7937 10.5423 2.6080 0.0000 -10634.8163 1478.3862 0.0000 0.0000 1776.1669 -7362.3192 301.6564 -9138.4860 -7416.3544 302.0232 539.3441 601.4786 30095.6913 -55.1120 13.6596
TCL: Running FEP window   3: Lambda1 0.1    Lambda2 0.15000000000000002 [dLambda 0.05000000000000002]
TCL: Setting parameter firsttimestep to 0
TCL: Setting parameter alchLambda to 0.1
Info: NONBONDED TABLE R-SQUARED SPACING: 0.0625
Info: NONBONDED TABLE SIZE: 705 POINTS
TCL: Setting parameter alchLambda2 to 0.15000000000000002
Info: NONBONDED TABLE R-SQUARED SPACING: 0.0625
Info: NONBONDED TABLE SIZE: 705 POINTS
TCL: Running for 1500000 steps
ETITLE: TS BOND ANGLE DIHED IMPRP ELECT VDW BOUNDARY MISC KINETIC TOTAL TEMP POTENTIAL TOTALAVG TEMPAVG PRESSURE GPRESSURE VOLUME PRESSAVG GPRESSAVG
ENERGY: 0 4.7937 10.5423 2.6080 0.0000 -10634.8162 1480.6351 0.0000 0.0000 1775.3138 -7360.9233 301.5115 -9136.2371 -7360.9233 301.5115 532.9752 610.6536 30095.6913 532.9752 610.6536
ENERGY: 300000 2.1010 7.3392 5.2531 0.0000 -10571.0142 1404.7220 0.0000 0.0000 1759.6801 -7391.9188 298.8563 -9151.5990 -7430.0746 302.2763 -274.8956 -183.0394 30614.3773 34.0137 115.2512
ENERGY: 600000 1.4730 8.4810 2.2857 0.0000 -10859.9196 1532.5303 0.0000 0.0000 1784.8249 -7530.3247 303.1268 -9315.1496 -7431.7890 302.2899 549.4664 664.4054 30022.3064 -37.0102 37.5579
ENERGY: 900000 2.5639 7.7563 4.1531 0.0000 -10644.1560 1418.5422 0.0000 0.0000 1720.0342 -7491.1064 292.1230 -9211.1405 -7450.5812 301.2894 67.8661 104.6505 29796.9008 -28.8786 29.4876
ENERGY: 1200000 2.8865 8.1449 2.8976 0.0000 -10584.8548 1368.4036 0.0000 0.0000 1724.1572 -7478.3650 292.8233 -9202.5223 -7455.4148 299.9165 -410.5959 -358.1494 30044.8778 -3.4077 51.2549
ENERGY: 1500000 3.3698 7.6076 3.5887 0.0000 -10609.2106 1430.8629 0.0000 0.0000 1769.6075 -7394.1741 300.5424 -9163.7815 -7449.5062 300.2150 90.4417 108.1612 30409.2409 -0.5862 53.6106
TCL: Running FEP window   4: Lambda1 0.15000000000000002 Lambda2 0.2    [dLambda 0.04999999999999999]
TCL: Setting parameter firsttimestep to 0
TCL: Setting parameter alchLambda to 0.15000000000000002
Info: NONBONDED TABLE R-SQUARED SPACING: 0.0625
Info: NONBONDED TABLE SIZE: 705 POINTS
TCL: Setting parameter alchLambda2 to 0.2
Info: NONBONDED TABLE R-SQUARED SPACING: 0.0625
Info: NONBONDED TABLE SIZE: 705 POINTS
TCL: Running for 1500000 steps
ETITLE: TS BOND ANGLE DIHED IMPRP ELECT VDW BOUNDARY MISC KINETIC TOTAL TEMP POTENTIAL TOTALAVG TEMPAVG PRESSURE GPRESSURE VOLUME PRESSAVG GPRESSAVG
ENERGY: 0 3.3698 7.6076 3.5887 0.0000 -10609.2102 1432.0351 0.0000 0.0000 1768.7220 -7393.8870 300.3920 -9162.6089 -7393.8870 300.3920 33.8876 118.4519 30409.2409 33.8876 118.4519
ENERGY: 300000 1.7628 11.8718 1.7775 0.0000 -10724.8201 1498.0437 0.0000 0.0000 1788.2142 -7423.1500 303.7024 -9211.3643 -7439.3095 301.0718 786.7782 841.6424 29685.4086 471.4450 536.4959
ENERGY: 600000 2.9974 9.2603 6.2502 0.0000 -10706.4498 1427.6771 0.0000 0.0000 1731.9694 -7528.2954 294.1501 -9260.2648 -7450.8910 300.5152 -325.4573 -236.7292 30449.3652 33.2924 108.8656
ENERGY: 900000 5.7402 9.5135 4.8641 0.0000 -10683.8471 1521.4861 0.0000 0.0000 1721.6418 -7420.6014 292.3961 -9142.2432 -7440.1643 300.8396 651.8095 725.2045 30178.8228 88.9133 163.1537
ENERGY: 1200000 0.5937 8.5654 4.2687 0.0000 -10660.4323 1430.3219 0.0000 0.0000 1760.0098 -7456.6729 298.9123 -9216.6827 -7432.2790 301.5990 105.2300 165.4505 29851.4255 102.4048 174.0395
ENERGY: 1500000 2.1365 9.8662 5.2211 0.0000 -10708.0895 1377.0271 0.0000 0.0000 1753.7039 -7560.1347 297.8414 -9313.8386 -7442.0002 301.4813 -737.5219 -602.7285 29839.3548 61.5874 135.9917
TCL: Running FEP window   5: Lambda1 0.2    Lambda2 0.25   [dLambda 0.04999999999999999]
TCL: Setting parameter firsttimestep to 0
TCL: Setting parameter alchLambda to 0.2
Info: NONBONDED TABLE R-SQUARED SPACING: 0.0625
Info: NONBONDED TABLE SIZE: 705 POINTS
TCL: Setting parameter alchLambda2 to 0.25
Info: NONBONDED TABLE R-SQUARED SPACING: 0.0625
Info: NONBONDED TABLE SIZE: 705 POINTS
TCL: Running for 1500000 steps
ETITLE: TS BOND ANGLE DIHED IMPRP ELECT VDW BOUNDARY MISC KINETIC TOTAL TEMP POTENTIAL TOTALAVG TEMPAVG PRESSURE GPRESSURE VOLUME PRESSAVG GPRESSAVG
ENERGY: 0 2.1365 9.8662 5.2211 0.0000 -10708.0897 1378.9764 0.0000 0.0000 1752.8780 -7559.0116 297.7011 -9311.8896 -7559.0116 297.7011 -670.8861 -590.6066 29839.3548 -670.8861 -590.6066
ENERGY: 300000 2.0559 9.9395 2.3720 0.0000 -10742.0302 1452.0695 0.0000 0.0000 1819.4647 -7456.1286 309.0099 -9275.5933 -7469.7469 302.8598 -41.7538 -1.1640 30205.1122 -426.4048 -367.3129
ENERGY: 600000 6.5263 8.4917 2.3629 0.0000 -10606.0375 1414.7351 0.0000 0.0000 1758.6909 -7415.2305 298.6883 -9173.9215 -7453.7238 301.9147 156.2655 236.1124 30225.1708 -111.2099 -55.7817
ENERGY: 900000 1.6265 9.6599 2.8400 0.0000 -10845.9519 1539.1154 0.0000 0.0000 1792.0503 -7500.6598 304.3539 -9292.7101 -7460.0667 301.6537 733.7290 712.1044 30134.4852 -5.0441 45.1819
ENERGY: 1200000 2.5459 8.5216 3.6690 0.0000 -10547.3370 1321.5615 0.0000 0.0000 1708.8227 -7502.2163 290.2189 -9211.0390 -7466.6717 300.4776 -1053.2358 -960.9380 30676.7580 -159.2297 -108.7194
ENERGY: 1500000 6.4578 10.1924 3.4316 0.0000 -10700.9347 1473.2470 0.0000 0.0000 1777.0335 -7430.5724 301.8036 -9207.6059 -7467.3456 300.0384 -79.6555 -8.6239 30750.8155 -108.2310 -55.3509
TCL: Running FEP window   6: Lambda1 0.25   Lambda2 0.3    [dLambda 0.04999999999999999]
TCL: Setting parameter firsttimestep to 0
TCL: Setting parameter alchLambda to 0.25
Info: NONBONDED TABLE R-SQUARED SPACING: 0.0625
Info: NONBONDED TABLE SIZE: 705 POINTS
TCL: Setting parameter alchLambda2 to 0.3
Info: NONBONDED TABLE R-SQUARED SPACING: 0.0625
Info: NONBONDED TABLE SIZE: 705 POINTS
TCL: Running for 1500000 steps
ETITLE: TS BOND ANGLE DIHED IMPRP ELECT VDW BOUNDARY MISC KINETIC TOTAL TEMP POTENTIAL TOTALAVG TEMPAVG PRESSURE GPRESSURE VOLUME PRESSAVG GPRESSAVG
ENERGY: 0 6.4578 10.1924 3.4316 0.0000 -10700.9352 1474.1164 0.0000 0.0000 1776.1630 -7430.5740 301.6557 -9206.7370 -7430.5740 301.6557 -81.8461 -1.2882 30750.8155 -81.8461 -1.2882
ENERGY: 300000 8.2090 9.3597 3.0366 0.0000 -10764.0832 1542.1274 0.0000 0.0000 1787.8615 -7413.4891 303.6425 -9201.3506 -7397.4524 303.9006 360.6012 395.5908 30776.1308 35.5475 88.2803
ENERGY: 600000 4.2175 11.6461 3.8193 0.0000 -10575.0244 1345.6214 0.0000 0.0000 1814.5818 -7395.1383 308.1806 -9209.7200 -7416.4454 303.9966 -752.5896 -726.8508 30385.7935 -39.6609 11.2372
ENERGY: 900000 3.9379 9.3033 3.0434 0.0000 -10551.6112 1369.6805 0.0000 0.0000 1754.7946 -7410.8515 298.0266 -9165.6461 -7425.4810 302.6802 -423.6580 -442.4312 30568.6631 -31.2395 14.7770
ENERGY: 1200000 3.8616 6.8556 6.1175 0.0000 -10671.6639 1391.4687 0.0000 0.0000 1758.0478 -7505.3127 298.5791 -9263.3604 -7446.7006 302.1190 -760.6723 -697.1982 30680.4999 -50.1071 0.5378
ENERGY: 1500000 1.3910 11.7019 5.2446 0.0000 -10562.4525 1378.1487 0.0000 0.0000 1711.7517 -7454.2147 290.7164 -9165.9663 -7441.7129 301.4583 -321.9524 -246.4984 30207.6590 -104.2451 -45.6434
TCL: Running FEP window   7: Lambda1 0.3    Lambda2 0.35   [dLambda 0.04999999999999999]
TCL: Setting parameter firsttimestep to 0
TCL: Setting parameter alchLambda to 0.3
Info: NONBONDED TABLE R-SQUARED SPACING: 0.0625
Info: NONBONDED TABLE SIZE: 705 POINTS
TCL: Setting parameter alchLambda2 to 0.35
Info: NONBONDED TABLE R-SQUARED SPACING: 0.0625
Info: NONBONDED TABLE SIZE: 705 POINTS
TCL: Running for 1500000 steps
ETITLE: TS BOND ANGLE DIHED IMPRP ELECT VDW BOUNDARY MISC KINETIC TOTAL TEMP POTENTIAL TOTALAVG TEMPAVG PRESSURE GPRESSURE VOLUME PRESSAVG GPRESSAVG
ENERGY: 0 1.3910 11.7019 5.2446 0.0000 -10562.4507 1378.9416 0.0000 0.0000 1710.8524 -7454.3192 290.5636 -9165.1716 -7454.3192 290.5636 -311.9034 -236.6408 30207.6590 -311.9034 -236.6408
ENERGY: 300000 6.5747 9.8792 3.9365 0.0000 -10704.4054 1392.7292 0.0000 0.0000 1777.4051 -7513.8808 301.8667 -9291.2858 -7475.0767 298.9932 -577.9871 -469.7681 30022.2204 -367.5224 -281.2125
ENERGY: 600000 5.0931 10.0670 10.5621 0.0000 -10675.6347 1420.4946 0.0000 0.0000 1760.6334 -7468.7845 299.0182 -9229.4179 -7457.1075 298.8693 -265.8016 -248.8231 30292.2643 -258.9580 -203.0757
ENERGY: 900000 3.1657 9.4931 4.1633 0.0000 -10664.7316 1459.9933 0.0000 0.0000 1783.7354 -7404.1808 302.9418 -9187.9162 -7446.8514 299.0789 275.7725 356.7954 30226.7719 -146.1643 -92.2338
ENERGY: 1200000 7.1217 10.7509 6.0167 0.0000 -10745.2309 1500.7143 0.0000 0.0000 1737.2375 -7483.3898 295.0448 -9220.6273 -7448.0492 299.0188 162.4720 227.0130 30602.0397 -123.3587 -67.2469
ENERGY: 1500000 4.9956 8.2667 5.4775 0.0000 -10500.9147 1326.9693 0.0000 0.0000 1755.8137 -7399.3919 298.1997 -9155.2057 -7446.1955 299.1808 -996.9130 -893.3296 30620.4684 -158.0757 -96.0546
TCL: Running FEP window   8: Lambda1 0.35   Lambda2 0.39999999999999997 [dLambda 0.04999999999999999]
TCL: Setting parameter firsttimestep to 0
TCL: Setting parameter alchLambda to 0.35
Info: NONBONDED TABLE R-SQUARED SPACING: 0.0625
Info: NONBONDED TABLE SIZE: 705 POINTS
TCL: Setting parameter alchLambda2 to 0.39999999999999997
Info: NONBONDED TABLE R-SQUARED SPACING: 0.0625
Info: NONBONDED TABLE SIZE: 705 POINTS
TCL: Running for 1500000 steps
ETITLE: TS BOND ANGLE DIHED IMPRP ELECT VDW BOUNDARY MISC KINETIC TOTAL TEMP POTENTIAL TOTALAVG TEMPAVG PRESSURE GPRESSURE VOLUME PRESSAVG GPRESSAVG
ENERGY: 0 4.9956 8.2667 5.4775 0.0000 -10500.9144 1328.1522 0.0000 0.0000 1754.9411 -7399.0812 298.0515 -9154.0223 -7399.0812 298.0515 -983.4408 -883.4661 30620.4684 -983.4408 -883.4661
ENERGY: 300000 1.9002 9.4259 2.2607 0.0000 -10671.8118 1426.6664 0.0000 0.0000 1761.5562 -7470.0025 299.1750 -9231.5586 -7450.9014 300.5550 -262.9396 -184.4423 30508.7239 -317.7222 -225.6907
ENERGY: 600000 7.6980 8.6042 1.7508 0.0000 -10606.9504 1433.1516 0.0000 0.0000 1796.4345 -7359.3113 305.0985 -9155.7458 -7409.4804 302.3786 0.1640 65.0383 30174.8523 -406.7127 -332.9460
ENERGY: 900000 2.4161 7.0602 2.2030 0.0000 -10738.0565 1439.5023 0.0000 0.0000 1729.7559 -7557.1190 293.7741 -9286.8749 -7427.5288 302.7169 -186.5455 -89.6488 30194.9403 -218.4381 -143.0999
ENERGY: 1200000 1.2471 10.6148 5.7026 0.0000 -10513.8507 1348.6482 0.0000 0.0000 1775.8481 -7371.7898 301.6022 -9147.6379 -7426.1679 302.2929 -379.3407 -309.3950 30228.6503 -144.1028 -77.2013
ENERGY: 1500000 7.2135 8.2061 2.6945 0.0000 -10694.4187 1451.8681 0.0000 0.0000 1761.8832 -7462.5533 299.2305 -9224.4365 -7425.1135 302.5284 -188.2254 -210.1422 30963.4712 -124.2771 -66.4310
TCL: Running FEP window   9: Lambda1 0.39999999999999997 Lambda2 0.44999999999999996 [dLambda 0.04999999999999999]
TCL: Setting parameter firsttimestep to 0
TCL: Setting parameter alchLambda to 0.39999999999999997
Info: NONBONDED TABLE R-SQUARED SPACING: 0.0625
Info: NONBONDED TABLE SIZE: 705 POINTS
TCL: Setting parameter alchLambda2 to 0.44999999999999996
Info: NONBONDED TABLE R-SQUARED SPACING: 0.0625
Info: NONBONDED TABLE SIZE: 705 POINTS
TCL: Running for 1500000 steps
ETITLE: TS BOND ANGLE DIHED IMPRP ELECT VDW BOUNDARY MISC KINETIC TOTAL TEMP POTENTIAL TOTALAVG TEMPAVG PRESSURE GPRESSURE VOLUME PRESSAVG GPRESSAVG
ENERGY: 0 7.2135 8.2061 2.6945 0.0000 -10694.4197 1453.1791 0.0000 0.0000 1761.0352 -7462.0914 299.0865 -9223.1266 -7462.0914 299.0865 -280.9458 -194.7196 30963.4712 -280.9458 -194.7196
ENERGY: 300000 2.1960 13.1658 5.2854 0.0000 -10613.9286 1419.5056 0.0000 0.0000 1756.3747 -7417.4012 298.2950 -9173.7759 -7468.8400 297.5637 47.4960 95.9498 30024.5398 -216.4243 -155.2063
ENERGY: 600000 8.1024 5.9311 3.4855 0.0000 -10799.9909 1555.2072 0.0000 0.0000 1755.2408 -7472.0239 298.1024 -9227.2647 -7461.7468 298.4364 754.7583 842.6826 30450.3705 79.9437 142.4985
ENERGY: 900000 5.1372 6.2400 2.7592 0.0000 -10665.9978 1441.3965 0.0000 0.0000 1835.9997 -7374.4652 311.8181 -9210.4649 -7457.2951 299.8666 -203.8934 -161.4166 30761.0698 52.3048 115.3847
ENERGY: 1200000 3.3956 8.3467 2.5152 0.0000 -10530.1579 1364.1091 0.0000 0.0000 1720.6364 -7431.1548 292.2253 -9151.7912 -7457.5526 298.4378 -735.3942 -682.8184 30984.7992 -80.6990 -15.7392
ENERGY: 1500000 2.4791 10.4750 1.8861 0.0000 -10694.0080 1402.6156 0.0000 0.0000 1746.3698 -7530.1824 296.5958 -9276.5522 -7457.5122 299.0056 -570.4195 -547.9968 30740.4397 -85.9523 -28.2433
TCL: Running FEP window  10: Lambda1 0.44999999999999996 Lambda2 0.49999999999999994 [dLambda 0.04999999999999999]
TCL: Setting parameter firsttimestep to 0
TCL: Setting parameter alchLambda to 0.44999999999999996
Info: NONBONDED TABLE R-SQUARED SPACING: 0.0625
Info: NONBONDED TABLE SIZE: 705 POINTS
TCL: Setting parameter alchLambda2 to 0.49999999999999994
Info: NONBONDED TABLE R-SQUARED SPACING: 0.0625
Info: NONBONDED TABLE SIZE: 705 POINTS
TCL: Running for 1500000 steps
ETITLE: TS BOND ANGLE DIHED IMPRP ELECT VDW BOUNDARY MISC KINETIC TOTAL TEMP POTENTIAL TOTALAVG TEMPAVG PRESSURE GPRESSURE VOLUME PRESSAVG GPRESSAVG
ENERGY: 0 2.4791 10.4750 1.8861 0.0000 -10694.0079 1402.2514 0.0000 0.0000 1745.5021 -7531.4142 296.4484 -9276.9163 -7531.4142 296.4484 -633.4521 -545.5588 30740.4397 -633.4521 -545.5588
ENERGY: 300000 1.5939 8.4792 3.1546 0.0000 -10455.2852 1289.3643 0.0000 0.0000 1837.7758 -7314.9174 312.1198 -9152.6932 -7441.5673 303.6118 -713.1821 -708.1385 30304.7796 -319.1743 -274.2419
ENERGY: 600000 5.7433 11.2621 4.1820 0.0000 -10613.0474 1388.3859 0.0000 0.0000 1711.0296 -7492.4445 290.5937 -9203.4741 -7467.1689 300.5120 -293.5007 -252.2802 30481.8414 -259.1442 -203.2848
ENERGY: 900000 0.9396 7.7439 3.1309 0.0000 -10702.9361 1468.4454 0.0000 0.0000 1773.2259 -7449.4505 301.1569 -9222.6763 -7473.3104 300.9518 331.8386 434.5560 30094.2999 -171.8570 -113.7832
ENERGY: 1200000 2.3885 10.9560 2.7475 0.0000 -10596.5194 1387.1399 0.0000 0.0000 1701.8617 -7491.4258 289.0367 -9193.2875 -7478.3144 300.1285 -355.1308 -362.3018 30558.2066 -155.2901 -100.9896
ENERGY: 1500000 3.2596 7.9306 2.1900 0.0000 -10684.1098 1420.1738 0.0000 0.0000 1828.8800 -7421.6758 310.6089 -9250.5558 -7465.4965 301.3033 -130.9453 -86.5564 30359.6371 -68.1650 -8.0431
TCL: Running FEP window  11: Lambda1 0.49999999999999994 Lambda2 0.5499999999999999 [dLambda 0.04999999999999999]
TCL: Setting parameter firsttimestep to 0
TCL: Setting parameter alchLambda to 0.49999999999999994
Info: NONBONDED TABLE R-SQUARED SPACING: 0.0625
Info: NONBONDED TABLE SIZE: 705 POINTS
TCL: Setting parameter alchLambda2 to 0.5499999999999999
Info: NONBONDED TABLE R-SQUARED SPACING: 0.0625
Info: NONBONDED TABLE SIZE: 705 POINTS
TCL: Running for 1500000 steps
ETITLE: TS BOND ANGLE DIHED IMPRP ELECT VDW BOUNDARY MISC KINETIC TOTAL TEMP POTENTIAL TOTALAVG TEMPAVG PRESSURE GPRESSURE VOLUME PRESSAVG GPRESSAVG
ENERGY: 0 3.2596 7.9306 2.1900 0.0000 -10684.1088 1420.5215 0.0000 0.0000 1828.0235 -7422.1836 310.4635 -9250.2071 -7422.1836 310.4635 -160.0885 -76.1373 30359.6371 -160.0885 -76.1373
ENERGY: 300000 3.6059 6.5654 4.2821 0.0000 -10685.3514 1474.9651 0.0000 0.0000 1691.1515 -7504.7814 287.2177 -9195.9328 -7443.5820 301.0281 512.2536 561.8804 30243.9884 -161.7236 -124.3878
ENERGY: 600000 2.6891 7.8517 3.4114 0.0000 -10753.1048 1537.7510 0.0000 0.0000 1752.2247 -7449.1769 297.5901 -9201.4016 -7437.2808 302.3208 965.4164 976.8872 30035.7219 -98.1563 -51.2197
ENERGY: 900000 1.8373 4.9071 4.6233 0.0000 -10673.1070 1420.9884 0.0000 0.0000 1765.7109 -7475.0399 299.8806 -9240.7509 -7438.6395 302.0368 -80.2468 -114.2861 30587.9365 -6.3760 27.1743
ENERGY: 1200000 3.4336 13.2246 3.5330 0.0000 -10625.8666 1443.9378 0.0000 0.0000 1776.6505 -7385.0870 301.7385 -9161.7375 -7440.9336 301.6319 222.3586 219.0304 30419.6593 12.7551 57.4322
ENERGY: 1500000 6.5681 9.0238 1.6728 0.0000 -10685.1315 1478.8562 0.0000 0.0000 1870.4682 -7318.5424 317.6721 -9189.0107 -7434.4406 302.7004 509.4280 578.3634 30021.8634 23.9304 70.4820
TCL: Running FEP window  12: Lambda1 0.5499999999999999 Lambda2 0.6    [dLambda 0.050000000000000044]
TCL: Setting parameter firsttimestep to 0
TCL: Setting parameter alchLambda to 0.5499999999999999
Info: NONBONDED TABLE R-SQUARED SPACING: 0.0625
Info: NONBONDED TABLE SIZE: 705 POINTS
TCL: Setting parameter alchLambda2 to 0.6
Info: NONBONDED TABLE R-SQUARED SPACING: 0.0625
Info: NONBONDED TABLE SIZE: 705 POINTS
TCL: Running for 1500000 steps
ETITLE: TS BOND ANGLE DIHED IMPRP ELECT VDW BOUNDARY MISC KINETIC TOTAL TEMP POTENTIAL TOTALAVG TEMPAVG PRESSURE GPRESSURE VOLUME PRESSAVG GPRESSAVG
ENERGY: 0 6.5681 9.0238 1.6728 0.0000 -10685.1484 1478.7541 0.0000 0.0000 1869.5591 -7319.5705 317.5177 -9189.1296 -7319.5705 317.5177 488.5203 584.2035 30021.8634 488.5203 584.2035
ENERGY: 300000 3.3902 10.0707 4.3019 0.0000 -10783.0088 1481.9412 0.0000 0.0000 1772.7950 -7510.5097 301.0837 -9283.3048 -7470.9732 301.3663 -139.5159 -105.0161 30833.7219 128.1024 207.2169
ENERGY: 600000 2.6181 10.8598 2.0173 0.0000 -10834.4807 1507.4302 0.0000 0.0000 1751.3149 -7560.2404 297.4356 -9311.5553 -7493.4108 299.3233 380.2234 456.8329 30142.9730 179.6760 249.6406
ENERGY: 900000 3.0578 9.5645 3.7542 0.0000 -10612.6087 1424.2219 0.0000 0.0000 1805.1471 -7366.8632 306.5783 -9172.0103 -7472.4639 300.4835 294.2539 376.4371 30014.5626 172.5729 240.3077
ENERGY: 1200000 6.7661 7.4486 1.7360 0.0000 -10656.5141 1426.7279 0.0000 0.0000 1778.5797 -7435.2558 302.0662 -9213.8355 -7462.4503 301.6708 -374.0766 -300.2772 30697.9331 88.9072 155.0486
ENERGY: 1500000 2.5903 8.8213 5.4557 0.0000 -10640.7697 1419.0789 0.0000 0.0000 1764.7344 -7440.0891 299.7147 -9204.8234 -7460.2613 302.1959 -136.5522 -66.8726 30218.2222 82.3666 146.6753
TCL: Running FEP window  13: Lambda1 0.6    Lambda2 0.65   [dLambda 0.050000000000000044]
TCL: Setting parameter firsttimestep to 0
TCL: Setting parameter alchLambda to 0.6
Info: NONBONDED TABLE R-SQUARED SPACING: 0.0625
Info: NONBONDED TABLE SIZE: 705 POINTS
TCL: Setting parameter alchLambda2 to 0.65
Info: NONBONDED TABLE R-SQUARED SPACING: 0.0625
Info: NONBONDED TABLE SIZE: 705 POINTS
TCL: Running for 1500000 steps
ETITLE: TS BOND ANGLE DIHED IMPRP ELECT VDW BOUNDARY MISC KINETIC TOTAL TEMP POTENTIAL TOTALAVG TEMPAVG PRESSURE GPRESSURE VOLUME PRESSAVG GPRESSAVG
ENERGY: 0 2.5903 8.8213 5.4557 0.0000 -10640.3827 1419.3759 0.0000 0.0000 1763.8859 -7440.2536 299.5706 -9204.1395 -7440.2536 299.5706 -142.7539 -52.7330 30218.2222 -142.7539 -52.7330
ENERGY: 300000 1.2006 11.4866 3.3585 0.0000 -10587.5671 1378.9964 0.0000 0.0000 1716.1847 -7476.3402 291.4693 -9192.5250 -7467.9480 296.7803 -367.1411 -275.8860 30467.4696 -236.1686 -154.6223
ENERGY: 600000 3.6106 7.4845 3.6633 0.0000 -10767.0961 1481.0055 0.0000 0.0000 1788.7599 -7482.5723 303.7951 -9271.3322 -7462.8053 298.5164 45.4688 117.9594 30824.3841 -125.5274 -52.0751
ENERGY: 900000 2.2497 9.4573 1.7844 0.0000 -10722.1164 1394.1520 0.0000 0.0000 1772.4010 -7542.0719 301.0168 -9314.4729 -7478.1862 298.3961 -505.8841 -437.0495 30327.4617 -95.6603 -27.6280
ENERGY: 1200000 5.2287 8.2805 1.2951 0.0000 -10495.6640 1313.0811 0.0000 0.0000 1767.3593 -7400.4192 300.1605 -9167.7785 -7472.0766 298.7754 -985.9775 -922.7725 30707.2697 -225.2220 -161.0583
ENERGY: 1500000 3.8693 12.2207 4.6619 0.0000 -10658.2167 1459.1567 0.0000 0.0000 1789.9208 -7388.3874 303.9923 -9178.3082 -7467.2505 299.7249 453.7909 528.4354 30121.7115 -126.3655 -54.0995
TCL: Running FEP window  14: Lambda1 0.65   Lambda2 0.7000000000000001 [dLambda 0.050000000000000044]
TCL: Setting parameter firsttimestep to 0
TCL: Setting parameter alchLambda to 0.65
Info: NONBONDED TABLE R-SQUARED SPACING: 0.0625
Info: NONBONDED TABLE SIZE: 705 POINTS
TCL: Setting parameter alchLambda2 to 0.7000000000000001
Info: NONBONDED TABLE R-SQUARED SPACING: 0.0625
Info: NONBONDED TABLE SIZE: 705 POINTS
TCL: Running for 1500000 steps
ETITLE: TS BOND ANGLE DIHED IMPRP ELECT VDW BOUNDARY MISC KINETIC TOTAL TEMP POTENTIAL TOTALAVG TEMPAVG PRESSURE GPRESSURE VOLUME PRESSAVG GPRESSAVG
ENERGY: 0 3.8693 12.2207 4.6619 0.0000 -10658.4950 1459.4085 0.0000 0.0000 1789.0156 -7389.3192 303.8385 -9178.3347 -7389.3192 303.8385 445.0259 540.3210 30121.7115 445.0259 540.3210
ENERGY: 300000 4.4060 7.2159 2.8569 0.0000 -10703.6075 1465.5048 0.0000 0.0000 1763.2865 -7460.3374 299.4688 -9223.6239 -7432.5608 299.3949 222.3465 244.9113 30218.2528 7.7819 54.7387
ENERGY: 600000 2.9513 6.6141 2.9059 0.0000 -10643.2917 1436.8243 0.0000 0.0000 1757.7898 -7436.2062 298.5353 -9193.9961 -7468.0009 297.2029 119.2656 80.3220 30274.7132 107.9134 166.2205
ENERGY: 900000 4.6869 4.7441 1.3737 0.0000 -10642.0852 1472.5538 0.0000 0.0000 1792.7730 -7365.9537 304.4767 -9158.7267 -7461.6110 298.0394 559.3534 666.9088 30058.3710 128.0715 194.9867
ENERGY: 1200000 4.0628 8.7760 5.4527 0.0000 -10624.7116 1380.9565 0.0000 0.0000 1752.8736 -7472.5900 297.7004 -9225.4636 -7467.2263 297.7880 -554.5249 -506.2007 30631.5712 143.3871 209.5727
ENERGY: 1500000 1.6204 7.8578 6.8106 0.0000 -10642.2665 1399.9237 0.0000 0.0000 1717.5605 -7508.4936 291.7029 -9226.0540 -7466.2778 297.7572 -154.5190 -59.5379 30233.1383 151.1275 212.3246
TCL: Running FEP window  15: Lambda1 0.7000000000000001 Lambda2 0.7500000000000001 [dLambda 0.050000000000000044]
TCL: Setting parameter firsttimestep to 0
TCL: Setting parameter alchLambda to 0.7000000000000001
Info: NONBONDED TABLE R-SQUARED SPACING: 0.0625
Info: NONBONDED TABLE SIZE: 705 POINTS
TCL: Setting parameter alchLambda2 to 0.7500000000000001
Info: NONBONDED TABLE R-SQUARED SPACING: 0.0625
Info: NONBONDED TABLE SIZE: 705 POINTS
TCL: Running for 1500000 steps
ETITLE: TS BOND ANGLE DIHED IMPRP ELECT VDW BOUNDARY MISC KINETIC TOTAL TEMP POTENTIAL TOTALAVG TEMPAVG PRESSURE GPRESSURE VOLUME PRESSAVG GPRESSAVG
ENERGY: 0 1.6204 7.8578 6.8106 0.0000 -10642.5551 1399.5555 0.0000 0.0000 1716.6693 -7510.0416 291.5516 -9226.7109 -7510.0416 291.5516 -145.0344 -55.2146 30233.1383 -145.0344 -55.2146
ENERGY: 300000 5.4376 7.6435 1.5141 0.0000 -10621.9444 1379.3600 0.0000 0.0000 1767.5446 -7460.4446 300.1920 -9227.9892 -7473.2523 294.2347 -672.2506 -604.5059 30521.9236 -106.8366 -40.7907
ENERGY: 600000 2.7806 7.0139 2.8738 0.0000 -10640.1024 1399.7402 0.0000 0.0000 1836.3951 -7391.2988 311.8853 -9227.6939 -7456.7959 298.7415 -162.9833 -97.1543 30321.0810 -147.5635 -83.4703
ENERGY: 900000 1.6666 7.8293 1.4345 0.0000 -10541.4977 1279.2908 0.0000 0.0000 1748.4077 -7502.8688 296.9419 -9251.2765 -7453.2504 298.6195 -1306.2079 -1273.4678 30702.1466 -249.1596 -192.5734
ENERGY: 1200000 5.4198 11.2841 4.1799 0.0000 -10769.4264 1482.4577 0.0000 0.0000 1818.2147 -7447.8702 308.7976 -9266.0849 -7455.9351 299.9129 288.9644 319.2329 30317.6132 -163.5201 -104.2314
ENERGY: 1500000 3.3189 12.0763 4.5189 0.0000 -10680.6353 1438.4176 0.0000 0.0000 1765.1200 -7457.1835 299.7802 -9222.3035 -7458.1579 300.2765 -83.8466 -27.7465 30458.9291 -73.7011 -11.8402
TCL: Running FEP window  16: Lambda1 0.7500000000000001 Lambda2 0.8000000000000002 [dLambda 0.050000000000000044]
TCL: Setting parameter firsttimestep to 0
TCL: Setting parameter alchLambda to 0.7500000000000001
Info: NONBONDED TABLE R-SQUARED SPACING: 0.0625
Info: NONBONDED TABLE SIZE: 705 POINTS
TCL: Setting parameter alchLambda2 to 0.8000000000000002
Info: NONBONDED TABLE R-SQUARED SPACING: 0.0625
Info: NONBONDED TABLE SIZE: 705 POINTS
TCL: Running for 1500000 steps
ETITLE: TS BOND ANGLE DIHED IMPRP ELECT VDW BOUNDARY MISC KINETIC TOTAL TEMP POTENTIAL TOTALAVG TEMPAVG PRESSURE GPRESSURE VOLUME PRESSAVG GPRESSAVG
ENERGY: 0 3.3189 12.0763 4.5189 0.0000 -10681.3874 1438.2894 0.0000 0.0000 1764.2404 -7458.9435 299.6308 -9223.1839 -7458.9435 299.6308 -91.8700 -18.3163 30458.9291 -91.8700 -18.3163
ENERGY: 300000 5.9806 11.6917 2.2976 0.0000 -10666.5184 1445.4582 0.0000 0.0000 1783.9804 -7417.1099 302.9834 -9201.0904 -7478.6993 300.2374 110.6322 173.3678 30393.7779 -258.0662 -159.5056
ENERGY: 600000 1.1637 10.8930 5.1673 0.0000 -10630.1196 1417.8233 0.0000 0.0000 1786.5407 -7408.5317 303.4182 -9195.0723 -7464.7150 299.1693 -24.2225 64.9283 30409.7874 -63.4680 16.9616
ENERGY: 900000 2.0240 8.0700 2.8172 0.0000 -10815.3950 1551.2847 0.0000 0.0000 1790.4120 -7460.7871 304.0757 -9251.1990 -7473.4584 298.3912 983.0134 1028.7764 30282.8110 -8.0277 64.3425
ENERGY: 1200000 1.8289 5.5627 3.5639 0.0000 -10850.2078 1554.0761 0.0000 0.0000 1765.8195 -7519.3567 299.8990 -9285.1762 -7475.7669 299.0103 1123.1883 1126.6610 29872.3905 148.3085 216.5517
ENERGY: 1500000 4.9747 13.6130 0.7973 0.0000 -10733.4427 1403.5510 0.0000 0.0000 1821.3762 -7489.1306 309.3345 -9310.5068 -7473.5643 300.2474 -596.3510 -545.6924 30212.2654 143.0773 207.9655
TCL: Running FEP window  17: Lambda1 0.8000000000000002 Lambda2 0.8500000000000002 [dLambda 0.050000000000000044]
TCL: Setting parameter firsttimestep to 0
TCL: Setting parameter alchLambda to 0.8000000000000002
Info: NONBONDED TABLE R-SQUARED SPACING: 0.0625
Info: NONBONDED TABLE SIZE: 705 POINTS
TCL: Setting parameter alchLambda2 to 0.8500000000000002
Info: NONBONDED TABLE R-SQUARED SPACING: 0.0625
Info: NONBONDED TABLE SIZE: 705 POINTS
TCL: Running for 1500000 steps
ETITLE: TS BOND ANGLE DIHED IMPRP ELECT VDW BOUNDARY MISC KINETIC TOTAL TEMP POTENTIAL TOTALAVG TEMPAVG PRESSURE GPRESSURE VOLUME PRESSAVG GPRESSAVG
ENERGY: 0 4.9747 13.6130 0.7973 0.0000 -10733.9419 1403.0470 0.0000 0.0000 1820.4743 -7491.0356 309.1814 -9311.5099 -7491.0356 309.1814 -628.5408 -543.5767 30212.2654 -628.5408 -543.5767
ENERGY: 300000 2.0971 13.0969 3.5600 0.0000 -10774.3808 1497.9023 0.0000 0.0000 1709.9440 -7547.7805 290.4094 -9257.7245 -7486.5203 300.6815 476.7874 505.7834 30164.4835 -211.4132 -161.8402
ENERGY: 600000 6.4722 11.6252 1.9776 0.0000 -10639.6630 1410.0541 0.0000 0.0000 1766.3632 -7443.1708 299.9914 -9209.5340 -7476.5122 300.9612 -295.5428 -196.5043 30291.9853 -153.4938 -94.0378
ENERGY: 900000 4.9761 9.5720 2.2130 0.0000 -10576.3062 1320.9109 0.0000 0.0000 1729.6700 -7508.9642 293.7595 -9238.6342 -7488.7099 299.1133 -1153.0474 -1132.7191 30606.1177 -341.8706 -282.5998
ENERGY: 1200000 3.7840 4.8616 3.9454 0.0000 -10498.7310 1324.2724 0.0000 0.0000 1718.3014 -7443.5662 291.8288 -9161.8676 -7476.3948 299.5830 -976.6037 -856.1280 30844.7587 -319.5454 -252.5576
ENERGY: 1500000 4.1212 6.9060 2.7376 0.0000 -10587.7854 1421.2586 0.0000 0.0000 1751.7752 -7400.9869 297.5138 -9152.7621 -7473.5299 299.5889 -144.2293 -129.0880 31141.0667 -241.8083 -179.6882
TCL: Running FEP window  18: Lambda1 0.8500000000000002 Lambda2 0.9000000000000002 [dLambda 0.050000000000000044]
TCL: Setting parameter firsttimestep to 0
TCL: Setting parameter alchLambda to 0.8500000000000002
Info: NONBONDED TABLE R-SQUARED SPACING: 0.0625
Info: NONBONDED TABLE SIZE: 705 POINTS
TCL: Setting parameter alchLambda2 to 0.9000000000000002
Info: NONBONDED TABLE R-SQUARED SPACING: 0.0625
Info: NONBONDED TABLE SIZE: 705 POINTS
TCL: Running for 1500000 steps
ETITLE: TS BOND ANGLE DIHED IMPRP ELECT VDW BOUNDARY MISC KINETIC TOTAL TEMP POTENTIAL TOTALAVG TEMPAVG PRESSURE GPRESSURE VOLUME PRESSAVG GPRESSAVG
ENERGY: 0 4.1212 6.9060 2.7376 0.0000 -10588.2848 1421.8434 0.0000 0.0000 1750.8962 -7401.7804 297.3645 -9152.6766 -7401.7804 297.3645 -187.4555 -108.7678 31141.0667 -187.4555 -108.7678
ENERGY: 300000 3.5946 8.1052 5.2559 0.0000 -10703.1373 1438.0889 0.0000 0.0000 1692.5423 -7555.5503 287.4539 -9248.0927 -7473.9477 295.1465 -235.9334 -185.7470 30564.0690 111.1493 172.9316
ENERGY: 600000 3.7810 7.8025 6.8412 0.0000 -10825.0112 1531.6784 0.0000 0.0000 1770.7507 -7504.1573 300.7365 -9274.9080 -7462.1699 297.5162 928.4112 956.7601 29952.7069 341.7912 403.5203
ENERGY: 900000 0.7933 7.9225 3.6901 0.0000 -10663.5690 1367.1561 0.0000 0.0000 1757.8449 -7526.1621 298.5446 -9284.0070 -7471.0990 298.9925 -635.7092 -534.3637 30247.7406 149.2861 220.5374
ENERGY: 1200000 4.7818 12.4676 3.7591 0.0000 -10609.9647 1455.5810 0.0000 0.0000 1810.4769 -7322.8983 307.4834 -9133.3751 -7458.6678 298.8371 638.8022 682.2124 30329.1522 126.0707 196.5673
ENERGY: 1500000 2.2648 10.8959 1.8456 0.0000 -10707.8320 1477.8662 0.0000 0.0000 1772.4399 -7442.5195 301.0234 -9214.9594 -7466.9250 298.8725 615.7764 659.6940 30106.6231 200.7854 270.6504
TCL: Running FEP window  19: Lambda1 0.9000000000000002 Lambda2 0.9500000000000003 [dLambda 0.050000000000000044]
TCL: Setting parameter firsttimestep to 0
TCL: Setting parameter alchLambda to 0.9000000000000002
Info: NONBONDED TABLE R-SQUARED SPACING: 0.0625
Info: NONBONDED TABLE SIZE: 705 POINTS
TCL: Setting parameter alchLambda2 to 0.9500000000000003
Info: NONBONDED TABLE R-SQUARED SPACING: 0.0625
Info: NONBONDED TABLE SIZE: 705 POINTS
TCL: Running for 1500000 steps
ETITLE: TS BOND ANGLE DIHED IMPRP ELECT VDW BOUNDARY MISC KINETIC TOTAL TEMP POTENTIAL TOTALAVG TEMPAVG PRESSURE GPRESSURE VOLUME PRESSAVG GPRESSAVG
ENERGY: 0 2.2648 10.8959 1.8456 0.0000 -10708.5005 1478.1083 0.0000 0.0000 1771.5784 -7443.8074 300.8771 -9215.3859 -7443.8074 300.8771 586.0295 677.0012 30106.6231 586.0295 677.0012
ENERGY: 300000 2.7571 8.3499 1.8324 0.0000 -10609.9046 1397.5546 0.0000 0.0000 1756.7960 -7442.6146 298.3665 -9199.4106 -7453.5856 297.7498 -94.9551 -18.8672 30404.4678 277.1738 372.8401
ENERGY: 600000 2.2076 8.9300 3.3524 0.0000 -10728.3251 1435.3279 0.0000 0.0000 1733.7771 -7544.7300 294.4571 -9278.5071 -7476.1132 298.0712 -170.8684 -41.2136 30293.1887 195.3700 276.5900
ENERGY: 900000 4.7689 10.9091 3.3660 0.0000 -10646.8134 1441.3002 0.0000 0.0000 1723.9189 -7462.5502 292.7828 -9186.4691 -7471.3675 297.7420 366.0914 462.9230 29980.5948 260.5324 339.8257
ENERGY: 1200000 2.3935 7.2665 1.3269 0.0000 -10641.9383 1460.4104 0.0000 0.0000 1766.5512 -7403.9897 300.0233 -9170.5409 -7456.9468 298.5395 188.2877 208.8328 30799.9161 230.4676 298.9153
ENERGY: 1500000 5.6423 9.4359 4.6906 0.0000 -10839.1349 1560.0571 0.0000 0.0000 1727.4585 -7531.8504 293.3840 -9259.3090 -7459.0715 298.7504 958.1943 1034.1567 30151.3132 261.9779 327.0963
TCL: Running FEP window  20: Lambda1 0.9500000000000003 Lambda2 1.0    [dLambda 0.04999999999999971]
TCL: Setting parameter firsttimestep to 0
TCL: Setting parameter alchLambda to 0.9500000000000003
Info: NONBONDED TABLE R-SQUARED SPACING: 0.0625
Info: NONBONDED TABLE SIZE: 705 POINTS
TCL: Setting parameter alchLambda2 to 1.0
Info: NONBONDED TABLE R-SQUARED SPACING: 0.0625
Info: NONBONDED TABLE SIZE: 705 POINTS
TCL: Running for 1500000 steps
ETITLE: TS BOND ANGLE DIHED IMPRP ELECT VDW BOUNDARY MISC KINETIC TOTAL TEMP POTENTIAL TOTALAVG TEMPAVG PRESSURE GPRESSURE VOLUME PRESSAVG GPRESSAVG
ENERGY: 0 5.6423 9.4359 4.6906 0.0000 -10839.5806 1560.2453 0.0000 0.0000 1726.5705 -7532.9959 293.2331 -9259.5664 -7532.9959 293.2331 974.8486 1048.4692 30151.3132 974.8486 1048.4692
ENERGY: 300000 2.9276 6.5752 6.6908 0.0000 -10637.3565 1385.8387 0.0000 0.0000 1778.5964 -7456.7278 302.0690 -9235.3243 -7459.7707 298.2283 -408.5024 -309.6676 30396.7973 -182.1260 -117.8647
ENERGY: 600000 3.2119 9.2194 3.0484 0.0000 -10755.7711 1528.4820 0.0000 0.0000 1743.7000 -7468.1095 296.1423 -9211.8095 -7482.7693 297.3507 946.1693 994.5798 30335.3482 -19.5576 36.3993
ENERGY: 900000 2.2679 13.3312 1.7840 0.0000 -10799.8854 1489.1205 0.0000 0.0000 1827.8100 -7465.5718 310.4272 -9293.3818 -7478.1652 298.1618 268.2618 350.7204 30438.8559 -20.4881 33.2221
ENERGY: 1200000 1.6643 7.6173 4.7577 0.0000 -10612.5758 1399.1025 0.0000 0.0000 1775.7684 -7423.6655 301.5887 -9199.4338 -7469.9953 299.3292 -216.4480 -176.9151 30668.1516 -28.4802 23.6294
ENERGY: 1500000 6.8312 10.3700 2.2501 0.0000 -10829.2344 1575.1839 0.0000 0.0000 1742.9741 -7491.6251 296.0191 -9234.5992 -7464.8571 299.3386 1294.5128 1365.5154 29896.1541 22.6636 79.3434
TCL: Exiting due to exit command.
