Info: SIMULATION PARAMETERS:
Info: TIMESTEP               2
Info: NUMBER OF STEPS        0
Info: STEPS PER CYCLE        10
Info: PERIODIC CELL BASIS 1  32.088 0 0
Info: PERIODIC CELL BASIS 2  0 30.0431 0
Info: PERIODIC CELL BASIS 3  0 0 31.2567
Info: PERIODIC CELL CENTER   0 0 0
Info: WRAPPING WATERS AROUND PERIODIC BOUNDARIES ON OUTPUT.
Info: WRAPPING ALL CLUSTERS AROUND PERIODIC BOUNDARIES ON OUTPUT.
Info: FIRST LDB TIMESTEP     50
Info: LAST LDB TIMESTEP     -1
Info: HOM BACKGROUND SCALING 1
Info: PME BACKGROUND SCALING 1
Info: MIN ATOMS PER PATCH    40
Info: EMPTY PATCH LOAD       40 ATOMS
Info: VELOCITY FILE          mobley_1803862_equil.vel
Info: CENTER OF MASS MOVING INITIALLY? NO
Info: DIELECTRIC             1
Info: EXCLUDE                SCALED ONE-FOUR
Info: 1-4 ELECTROSTATICS SCALED BY 0.833333
Info: MODIFIED 1-4 VDW PARAMETERS WILL BE USED
Info: DCD FILENAME           mobley_1803862_prod.dcd
Info: DCD FREQUENCY          100000
Info: DCD FIRST STEP         100000
Info: DCD FILE WILL CONTAIN UNIT CELL DATA
Info: XST FILENAME           mobley_1803862_prod.xst
Info: XST FREQUENCY          100000
Info: NO VELOCITY DCD OUTPUT
Info: NO FORCE DCD OUTPUT
Info: OUTPUT FILENAME        mobley_1803862_prod
Info: BINARY OUTPUT FILES WILL BE USED
Info: RESTART FILENAME       mobley_1803862_prod.restart
Info: RESTART FREQUENCY      100000
Info: BINARY RESTART FILES WILL BE USED
Info: CUTOFF                 9
Info: PAIRLIST DISTANCE      11
Info: PAIRLIST SHRINK RATE   0.01
Info: PAIRLIST GROW RATE     0.01
Info: PAIRLIST TRIGGER       0.3
Info: PAIRLISTS PER CYCLE    2
Info: PAIRLISTS ENABLED
Info: MARGIN                 2
Info: HYDROGEN GROUP CUTOFF  2.5
Info: PATCH DIMENSION        15.5
Info: ENERGY OUTPUT STEPS    100000
Info: ENERGY EVALUATION STEPS    100000
Info: OUTPUT ENERGY PRECISION 4
Info: CROSSTERM ENERGY INCLUDED IN DIHEDRAL
Info: TIMING OUTPUT STEPS    1000000
Info: PRESSURE OUTPUT STEPS  100000
Info: ALCHEMICAL FEP ON
Info: FEP CURRENT LAMBDA VALUE     1
Info: FEP COMPARISON LAMBDA VALUE  0.95
Info: FEP INTRA-ALCHEMICAL NON-BONDED INTERACTIONS WILL BE RETAINED
Info: FEP INTRA-ALCHEMICAL BONDED INTERACTIONS WILL BE RETAINED
Info: FEP VDW SHIFTING COEFFICIENT 5
Info: FEP ELEC. ACTIVE FOR ANNIHILATED PARTICLES BETWEEN LAMBDA = 0 AND LAMBDA = 0.5
Info: FEP ELEC. ACTIVE FOR EXNIHILATED PARTICLES BETWEEN LAMBDA = 0.5 AND LAMBDA = 1
Info: FEP VDW ACTIVE FOR ANNIHILATED PARTICLES BETWEEN LAMBDA = 0 AND LAMBDA = 1
Info: FEP VDW ACTIVE FOR EXNIHILATED PARTICLES BETWEEN LAMBDA = 0 AND LAMBDA = 1
Info: FEP BOND ACTIVE FOR ANNIHILATED PARTICLES BETWEEN LAMBDA = 1 AND LAMBDA = 1
Info: FEP BOND ACTIVE FOR EXNIHILATED PARTICLES BETWEEN LAMBDA = 0 AND LAMBDA = 0
Info: LANGEVIN DYNAMICS ACTIVE
Info: LANGEVIN TEMPERATURE   300
Info: LANGEVIN USING BBK INTEGRATOR
Info: LANGEVIN DAMPING COEFFICIENT IS 1 INVERSE PS
Info: LANGEVIN DYNAMICS APPLIED TO HYDROGENS
Info: LANGEVIN PISTON PRESSURE CONTROL ACTIVE
Info:        TARGET PRESSURE IS 1.01325 BAR
Info:     OSCILLATION PERIOD IS 50 FS
Info:             DECAY TIME IS 25 FS
Info:     PISTON TEMPERATURE IS 300 K
Info:       PRESSURE CONTROL IS GROUP-BASED
Info:    INITIAL STRAIN RATE IS -8.9536e-05 -8.9536e-05 -8.9536e-05
Info:       CELL FLUCTUATION IS ISOTROPIC
Info: PARTICLE MESH EWALD (PME) ACTIVE
Info: PME TOLERANCE               1e-06
Info: PME EWALD COEFFICIENT       0.348832
Info: PME INTERPOLATION ORDER     4
Info: PME GRID DIMENSIONS         36 32 32
Info: PME MAXIMUM GRID SPACING    1
Info: PME CALCULATION WILL BE PERFORMED ON GPU
Info: FULL ELECTROSTATIC EVALUATION FREQUENCY      2
Info: USING VERLET I (r-RESPA) MTS SCHEME.
Info: C1 SPLITTING OF LONG RANGE ELECTROSTATICS
Info: PLACING ATOMS IN PATCHES BY HYDROGEN GROUPS
Info: RIGID BONDS TO HYDROGEN : ALL
Info:         ERROR TOLERANCE : 1e-08
Info:          MAX ITERATIONS : 100
Info: RIGID WATER USING SETTLE ALGORITHM
Info: RANDOM NUMBER SEED     1743764751
Info: USE HYDROGEN BONDS?    NO
Info: Using AMBER format force field!
Info: AMBER PARM FILE        mobley_1803862.prmtop
Info: COORDINATE PDB         mobley_1803862.pdb
Info: Exclusions will be read from PARM file!
Info: SCNB (VDW SCALING)     2
Info: USING ARITHMETIC MEAN TO COMBINE L-J SIGMA PARAMETERS
Info: BINARY COORDINATES     mobley_1803862_equil.coor
Info: SUMMARY OF PARAMETERS:
Info: 4 BONDS
Info: 3 ANGLES
Info:   3 HARMONIC
Info:   0 COSINE-BASED
Info: 5 DIHEDRAL
Info: 0 IMPROPER
Info: 0 CROSSTERM
Info: 0 VDW
Info: 10 VDW_PAIRS
Info: 0 NBTHOLE_PAIRS
Info: To read alchdata from file: mobley_1803862.pdb
Info: To read alchflag data from column: 5
Info: STRUCTURE SUMMARY:
Info: 2948 ATOMS
Info: 2947 BONDS
Info: 30 ANGLES
Info: 40 DIHEDRALS
Info: 0 IMPROPERS
Info: 0 CROSSTERMS
Info: 3013 EXCLUSIONS
Info: 2943 RIGID BONDS
Info: ALCH: 0 ATOMS TO DISAPPEAR IN FINAL STATE
Info: ALCH: 17 ATOMS TO APPEAR IN FINAL STATE
Info: 5901 DEGREES OF FREEDOM
Info: 982 HYDROGEN GROUPS
Info: 4 ATOMS IN LARGEST HYDROGEN GROUP
Info: 982 MIGRATION GROUPS
Info: 4 ATOMS IN LARGEST MIGRATION GROUP
Info: TOTAL MASS = 17673.8 amu
Info: TOTAL CHARGE = -0.000100005 e
Info: MASS DENSITY = 0.973998 g/cm^3
Info: ATOM DENSITY = 0.0978356 atoms/A^3
Info: ADDED 0 IMPLICIT EXCLUSIONS
Info: NONBONDED TABLE R-SQUARED SPACING: 0.0625
Info: NONBONDED TABLE SIZE: 705 POINTS
Info: REMOVING COM VELOCITY 0.0811756 0.0463364 0.0506608
Info: Use 3D box decompostion in PME FFT.
Info: Updated CUDA force table with 4096 elements.
Info: Updated CUDA LJ table with 4 x 4 elements.
Info: Found 20 unique exclusion lists needing 48 bytes
TCL: Running for 1500000 steps
ETITLE: TS BOND ANGLE DIHED IMPRP ELECT VDW BOUNDARY MISC KINETIC TOTAL TEMP POTENTIAL TOTALAVG TEMPAVG PRESSURE GPRESSURE VOLUME PRESSAVG GPRESSAVG
ENERGY: 0 0.8936 9.5527 1.2961 0.0000 -10885.9224 1557.4111 0.0000 0.0000 1775.8838 -7540.8852 302.8861 -9316.7690 -7540.8852 302.8861 785.5154 864.7046 30132.1854 785.5154 864.7046
ENERGY: 300000 0.5191 6.5552 1.8485 0.0000 -10704.4933 1427.4954 0.0000 0.0000 1824.0728 -7444.0022 311.1050 -9268.0751 -7482.1806 303.7222 144.3855 127.0075 29950.1659 390.2098 438.5719
ENERGY: 600000 3.0430 10.2136 2.2260 0.0000 -10705.3447 1406.6723 0.0000 0.0000 1733.3117 -7549.8781 295.6252 -9283.1898 -7481.8727 301.9925 -225.6201 -197.8294 29921.6921 202.1463 247.6522
ENERGY: 900000 1.5505 9.0283 1.3004 0.0000 -10655.1935 1446.1131 0.0000 0.0000 1780.5508 -7416.6504 303.6821 -9197.2012 -7469.6720 301.7738 113.2125 166.8335 30575.6389 209.0167 265.3248
ENERGY: 1200000 1.0289 8.9872 2.6730 0.0000 -10711.5842 1485.3702 0.0000 0.0000 1780.6692 -7432.8558 303.7023 -9213.5249 -7473.1448 301.0703 457.6501 469.5202 30309.1527 261.6403 315.4436
ENERGY: 1500000 0.5330 7.6619 1.4382 0.0000 -10698.7390 1423.2816 0.0000 0.0000 1785.4546 -7480.3697 304.5184 -9265.8243 -7476.8191 300.6797 -89.9553 -65.7589 30570.4984 221.0316 278.9410
TCL: Running FEP window   2: Lambda1 0.95   Lambda2 0.8999999999999999 [dLambda -0.050000000000000044]
TCL: Setting parameter firsttimestep to 0
TCL: Setting parameter alchLambda to 0.95
Info: NONBONDED TABLE R-SQUARED SPACING: 0.0625
Info: NONBONDED TABLE SIZE: 705 POINTS
TCL: Setting parameter alchLambda2 to 0.8999999999999999
Info: NONBONDED TABLE R-SQUARED SPACING: 0.0625
Info: NONBONDED TABLE SIZE: 705 POINTS
TCL: Running for 1500000 steps
ETITLE: TS BOND ANGLE DIHED IMPRP ELECT VDW BOUNDARY MISC KINETIC TOTAL TEMP POTENTIAL TOTALAVG TEMPAVG PRESSURE GPRESSURE VOLUME PRESSAVG GPRESSAVG
ENERGY: 0 0.5330 7.6619 1.4382 0.0000 -10698.7363 1423.7120 0.0000 0.0000 1784.5811 -7480.8102 304.3694 -9265.3913 -7480.8102 304.3694 -140.1886 -69.6253 30570.4984 -140.1886 -69.6253
ENERGY: 300000 2.1653 11.0698 1.7226 0.0000 -10697.2065 1529.2896 0.0000 0.0000 1755.4609 -7397.4984 299.4028 -9152.9593 -7455.3609 301.2693 416.8932 474.6043 31173.8094 237.8878 299.1544
ENERGY: 600000 2.2533 7.9437 2.0446 0.0000 -10908.9058 1546.7384 0.0000 0.0000 1716.5896 -7633.3361 292.7732 -9349.9257 -7494.9691 300.5413 745.1031 751.3833 29831.3836 220.5675 266.1233
ENERGY: 900000 0.3322 10.6901 1.7850 0.0000 -10576.9764 1408.1626 0.0000 0.0000 1771.7703 -7384.2362 302.1845 -9156.0065 -7462.3074 300.9280 112.7564 173.8831 30443.9128 322.1891 371.1673
ENERGY: 1200000 1.3105 8.0009 2.9638 0.0000 -10640.2334 1397.5589 0.0000 0.0000 1737.9235 -7492.4759 296.4118 -9230.3994 -7465.1013 300.3956 -300.8790 -210.8475 30135.5101 122.1827 174.9679
ENERGY: 1500000 1.4832 9.1761 2.3189 0.0000 -10667.4850 1456.3328 0.0000 0.0000 1831.8477 -7366.3263 312.4310 -9198.1740 -7463.6009 300.4578 272.8760 385.5516 30348.6944 70.8903 129.4048
TCL: Running FEP window   3: Lambda1 0.8999999999999999 Lambda2 0.8499999999999999 [dLambda -0.050000000000000044]
TCL: Setting parameter firsttimestep to 0
TCL: Setting parameter alchLambda to 0.8999999999999999
Info: NONBONDED TABLE R-SQUARED SPACING: 0.0625
Info: NONBONDED TABLE SIZE: 705 POINTS
TCL: Setting parameter alchLambda2 to 0.8499999999999999
Info: NONBONDED TABLE R-SQUARED SPACING: 0.0625
Info: NONBONDED TABLE SIZE: 705 POINTS
TCL: Running for 1500000 steps
ETITLE: TS BOND ANGLE DIHED IMPRP ELECT VDW BOUNDARY MISC KINETIC TOTAL TEMP POTENTIAL TOTALAVG TEMPAVG PRESSURE GPRESSURE VOLUME PRESSAVG GPRESSAVG
ENERGY: 0 1.4832 9.1761 2.3189 0.0000 -10667.4683 1456.2806 0.0000 0.0000 1830.9669 -7367.2425 312.2808 -9198.2095 -7367.2425 312.2808 282.4102 372.8774 30348.6944 282.4102 372.8774
ENERGY: 300000 0.9660 7.7753 1.5301 0.0000 -10666.6133 1451.8161 0.0000 0.0000 1811.9200 -7392.6058 309.0322 -9204.5258 -7427.8984 305.1979 -102.6045 0.7837 30714.0869 70.6787 174.3995
ENERGY: 600000 0.9880 7.2241 3.3113 0.0000 -10710.9493 1467.2810 0.0000 0.0000 1765.2221 -7466.9227 301.0677 -9232.1448 -7455.8608 303.2471 224.1951 313.2342 29896.6034 90.1181 183.3165
ENERGY: 900000 0.7281 7.6366 1.0070 0.0000 -10731.5598 1474.5333 0.0000 0.0000 1746.0442 -7501.6106 297.7968 -9247.6548 -7470.3486 301.5513 190.3380 269.2297 30407.3136 110.6865 199.5859
ENERGY: 1200000 1.6178 5.8566 1.1697 0.0000 -10709.8799 1450.7557 0.0000 0.0000 1735.5270 -7514.9532 296.0030 -9250.4801 -7467.7453 300.9693 407.1977 408.6764 29778.5973 90.0816 169.3409
ENERGY: 1500000 0.5166 6.1512 2.4881 0.0000 -10779.3799 1505.9802 0.0000 0.0000 1759.1183 -7505.1256 300.0266 -9264.2439 -7473.1232 300.1218 361.8291 462.0899 30344.4702 151.0577 220.6116
TCL: Running FEP window   4: Lambda1 0.8499999999999999 Lambda2 0.7999999999999998 [dLambda -0.050000000000000044]
TCL: Setting parameter firsttimestep to 0
TCL: Setting parameter alchLambda to 0.8499999999999999
Info: NONBONDED TABLE R-SQUARED SPACING: 0.0625
Info: NONBONDED TABLE SIZE: 705 POINTS
TCL: Setting parameter alchLambda2 to 0.7999999999999998
Info: NONBONDED TABLE R-SQUARED SPACING: 0.0625
Info: NONBONDED TABLE SIZE: 705 POINTS
TCL: Running for 1500000 steps
ETITLE: TS BOND ANGLE DIHED IMPRP ELECT VDW BOUNDARY MISC KINETIC TOTAL TEMP POTENTIAL TOTALAVG TEMPAVG PRESSURE GPRESSURE VOLUME PRESSAVG GPRESSAVG
ENERGY: 0 0.5166 6.1512 2.4881 0.0000 -10779.3470 1505.9828 0.0000 0.0000 1758.2305 -7505.9778 299.8752 -9264.2083 -7505.9778 299.8752 377.5049 456.3971 30344.4702 377.5049 456.3971
ENERGY: 300000 0.9561 6.4617 3.6123 0.0000 -10622.9014 1397.5420 0.0000 0.0000 1735.2340 -7479.0953 295.9531 -9214.3293 -7455.9493 301.2094 -112.6221 5.3261 29905.0999 -118.6107 -39.3081
ENERGY: 600000 1.9035 7.3264 1.2009 0.0000 -10577.6814 1339.8479 0.0000 0.0000 1703.7749 -7523.6278 290.5875 -9227.4027 -7467.9442 298.5228 -658.4167 -555.4137 30250.9834 -296.1047 -213.3070
ENERGY: 900000 0.8610 5.9370 1.7517 0.0000 -10600.4241 1385.2248 0.0000 0.0000 1713.7262 -7492.9234 292.2848 -9206.6497 -7471.6810 297.9049 -620.4906 -565.7707 30806.0038 -298.9769 -227.6736
ENERGY: 1200000 0.2971 11.3279 3.4717 0.0000 -10767.5528 1487.0442 0.0000 0.0000 1803.6693 -7461.7427 307.6250 -9265.4119 -7471.9899 298.8188 317.1216 402.7584 30285.1344 -267.3977 -195.4474
ENERGY: 1500000 1.9504 7.4710 1.8493 0.0000 -10585.6980 1364.0480 0.0000 0.0000 1728.4926 -7481.8868 294.8033 -9210.3794 -7468.9228 298.5040 -480.3757 -443.0357 30221.2867 -254.7179 -186.4177
TCL: Running FEP window   5: Lambda1 0.7999999999999998 Lambda2 0.7499999999999998 [dLambda -0.050000000000000044]
TCL: Setting parameter firsttimestep to 0
TCL: Setting parameter alchLambda to 0.7999999999999998
Info: NONBONDED TABLE R-SQUARED SPACING: 0.0625
Info: NONBONDED TABLE SIZE: 705 POINTS
TCL: Setting parameter alchLambda2 to 0.7499999999999998
Info: NONBONDED TABLE R-SQUARED SPACING: 0.0625
Info: NONBONDED TABLE SIZE: 705 POINTS
TCL: Running for 1500000 steps
ETITLE: TS BOND ANGLE DIHED IMPRP ELECT VDW BOUNDARY MISC KINETIC TOTAL TEMP POTENTIAL TOTALAVG TEMPAVG PRESSURE GPRESSURE VOLUME PRESSAVG GPRESSAVG
ENERGY: 0 1.9504 7.4710 1.8493 0.0000 -10585.7170 1364.1137 0.0000 0.0000 1727.6051 -7482.7276 294.6519 -9210.3327 -7482.7276 294.6519 -536.0638 -451.3245 30221.2867 -536.0638 -451.3245
ENERGY: 300000 1.3260 8.2594 2.9517 0.0000 -10795.5987 1564.5179 0.0000 0.0000 1812.5037 -7406.0399 309.1318 -9218.5437 -7448.3389 300.3801 848.1025 899.3892 30642.4664 106.6053 207.2241
ENERGY: 600000 0.7929 7.2644 2.9862 0.0000 -10513.6514 1340.0491 0.0000 0.0000 1764.1507 -7398.4082 300.8849 -9162.5589 -7439.8690 298.4925 -620.5863 -543.2836 30632.3908 -9.0679 68.6924
ENERGY: 900000 0.7323 13.8775 1.6214 0.0000 -10613.1488 1384.4655 0.0000 0.0000 1811.5337 -7400.9185 308.9663 -9212.4521 -7448.5948 299.2174 -404.5519 -301.9766 30202.2618 -109.3593 -29.4811
ENERGY: 1200000 1.5792 6.0916 1.3967 0.0000 -10621.3141 1438.2834 0.0000 0.0000 1802.8157 -7371.1475 307.4795 -9173.9632 -7441.0478 300.6671 324.8719 391.0748 30158.9055 -81.1693 -7.7038
ENERGY: 1500000 1.7379 6.2903 3.7072 0.0000 -10663.7483 1434.2473 0.0000 0.0000 1748.3755 -7469.3902 298.1944 -9217.7656 -7444.9274 300.1056 -58.6498 -11.6808 30262.3104 -72.8142 -7.9804
TCL: Running FEP window   6: Lambda1 0.7499999999999998 Lambda2 0.6999999999999997 [dLambda -0.050000000000000044]
TCL: Setting parameter firsttimestep to 0
TCL: Setting parameter alchLambda to 0.7499999999999998
Info: NONBONDED TABLE R-SQUARED SPACING: 0.0625
Info: NONBONDED TABLE SIZE: 705 POINTS
TCL: Setting parameter alchLambda2 to 0.6999999999999997
Info: NONBONDED TABLE R-SQUARED SPACING: 0.0625
Info: NONBONDED TABLE SIZE: 705 POINTS
TCL: Running for 1500000 steps
ETITLE: TS BOND ANGLE DIHED IMPRP ELECT VDW BOUNDARY MISC KINETIC TOTAL TEMP POTENTIAL TOTALAVG TEMPAVG PRESSURE GPRESSURE VOLUME PRESSAVG GPRESSAVG
ENERGY: 0 1.7379 6.2903 3.7072 0.0000 -10663.7426 1434.5127 0.0000 0.0000 1747.4954 -7469.9991 298.0443 -9217.4944 -7469.9991 298.0443 -103.0096 -16.5679 30262.3104 -103.0096 -16.5679
ENERGY: 300000 1.4433 6.7063 4.5531 0.0000 -10691.2142 1410.9210 0.0000 0.0000 1744.4281 -7523.1624 297.5211 -9267.5904 -7482.1137 297.3869 -237.8650 -184.3842 30152.7955 -398.4762 -327.3017
ENERGY: 600000 2.0917 4.9147 2.3902 0.0000 -10716.2988 1460.5833 0.0000 0.0000 1682.9901 -7563.3287 287.0426 -9246.3188 -7482.9836 297.3330 30.3872 112.5279 30141.5399 -254.7364 -196.5194
ENERGY: 900000 0.2028 6.5603 2.2352 0.0000 -10689.2228 1501.4301 0.0000 0.0000 1761.0952 -7417.6993 300.3638 -9178.7945 -7480.5603 296.8981 884.4864 903.4119 29962.6202 8.8537 62.1304
ENERGY: 1200000 0.0520 5.6584 3.5071 0.0000 -10706.4581 1468.3247 0.0000 0.0000 1792.2065 -7436.7094 305.6700 -9228.9159 -7473.7947 298.5441 202.7007 350.4844 30248.6482 88.5561 144.5258
ENERGY: 1500000 0.7387 5.5661 3.5020 0.0000 -10720.1288 1425.8330 0.0000 0.0000 1788.6762 -7495.8127 305.0679 -9284.4890 -7474.8770 298.6343 9.7163 91.5721 29731.8249 57.8334 111.3705
TCL: Running FEP window   7: Lambda1 0.6999999999999997 Lambda2 0.6499999999999997 [dLambda -0.050000000000000044]
TCL: Setting parameter firsttimestep to 0
TCL: Setting parameter alchLambda to 0.6999999999999997
Info: NONBONDED TABLE R-SQUARED SPACING: 0.0625
Info: NONBONDED TABLE SIZE: 705 POINTS
TCL: Setting parameter alchLambda2 to 0.6499999999999997
Info: NONBONDED TABLE R-SQUARED SPACING: 0.0625
Info: NONBONDED TABLE SIZE: 705 POINTS
TCL: Running for 1500000 steps
ETITLE: TS BOND ANGLE DIHED IMPRP ELECT VDW BOUNDARY MISC KINETIC TOTAL TEMP POTENTIAL TOTALAVG TEMPAVG PRESSURE GPRESSURE VOLUME PRESSAVG GPRESSAVG
ENERGY: 0 0.7387 5.5661 3.5020 0.0000 -10720.1580 1425.8446 0.0000 0.0000 1787.8084 -7496.6982 304.9199 -9284.5066 -7496.6982 304.9199 -2.2749 80.9812 29731.8249 -2.2749 80.9812
ENERGY: 300000 1.1694 6.9148 1.5612 0.0000 -10554.2064 1373.0519 0.0000 0.0000 1726.0796 -7445.4295 294.3917 -9171.5091 -7500.8931 297.7764 -494.9270 -475.6397 30413.9631 -300.8863 -233.0241
ENERGY: 600000 2.2373 8.6190 2.2051 0.0000 -10666.0847 1493.3372 0.0000 0.0000 1727.8956 -7431.7904 294.7014 -9159.6860 -7488.6166 297.1988 512.4632 551.5465 30630.7446 -83.6978 -27.4480
ENERGY: 900000 1.0888 7.5541 1.5434 0.0000 -10703.6183 1487.2799 0.0000 0.0000 1794.9739 -7411.1782 306.1420 -9206.1521 -7490.6365 298.1019 312.2961 361.0039 30493.1198 44.7396 107.4030
ENERGY: 1200000 1.5652 9.7957 2.0568 0.0000 -10688.1196 1415.9886 0.0000 0.0000 1719.8811 -7538.8322 293.3345 -9258.7133 -7481.7799 298.4526 -446.7717 -452.4122 30568.7984 -79.2250 -26.0297
ENERGY: 1500000 0.6917 11.3488 2.2461 0.0000 -10772.7667 1457.1371 0.0000 0.0000 1736.1729 -7565.1702 296.1132 -9301.3431 -7485.5215 298.0273 -36.8794 42.3755 30098.3285 -108.4014 -51.3154
TCL: Running FEP window   8: Lambda1 0.6499999999999997 Lambda2 0.5999999999999996 [dLambda -0.050000000000000044]
TCL: Setting parameter firsttimestep to 0
TCL: Setting parameter alchLambda to 0.6499999999999997
Info: NONBONDED TABLE R-SQUARED SPACING: 0.0625
Info: NONBONDED TABLE SIZE: 705 POINTS
TCL: Setting parameter alchLambda2 to 0.5999999999999996
Info: NONBONDED TABLE R-SQUARED SPACING: 0.0625
Info: NONBONDED TABLE SIZE: 705 POINTS
TCL: Running for 1500000 steps
ETITLE: TS BOND ANGLE DIHED IMPRP ELECT VDW BOUNDARY MISC KINETIC TOTAL TEMP POTENTIAL TOTALAVG TEMPAVG PRESSURE GPRESSURE VOLUME PRESSAVG GPRESSAVG
ENERGY: 0 0.6917 11.3488 2.2461 0.0000 -10772.7888 1457.0325 0.0000 0.0000 1735.2629 -7566.2068 295.9580 -9301.4697 -7566.2068 295.9580 -51.0922 31.9808 30098.3285 -51.0922 31.9808
ENERGY: 300000 0.3710 6.3091 1.5562 0.0000 -10638.6609 1417.1069 0.0000 0.0000 1760.5763 -7452.7415 300.2753 -9213.3178 -7528.6452 296.8506 -235.6509 -188.4972 30637.6667 -119.1662 -46.7564
ENERGY: 600000 0.9108 3.8311 1.8531 0.0000 -10439.9718 1287.7779 0.0000 0.0000 1729.6551 -7415.9439 295.0015 -9145.5990 -7494.3001 296.8674 -981.2534 -872.8425 30224.5754 -287.9254 -205.6394
ENERGY: 900000 2.6669 9.6147 3.1857 0.0000 -10600.3802 1415.1705 0.0000 0.0000 1775.6687 -7394.0737 302.8494 -9169.7424 -7491.5173 297.7446 -268.3248 -132.2445 30544.9264 -219.5291 -137.7204
ENERGY: 1200000 3.1673 8.7633 3.0416 0.0000 -10495.9515 1288.2572 0.0000 0.0000 1787.6411 -7405.0811 304.8914 -9192.7222 -7487.2378 297.3680 -1212.4032 -1150.3680 30541.6140 -235.2887 -152.2790
ENERGY: 1500000 1.2270 6.7212 1.5824 0.0000 -10639.4670 1324.7049 0.0000 0.0000 1759.1766 -7546.0548 300.0366 -9305.2314 -7491.1509 298.5578 -1213.7993 -1126.5736 30180.0869 -300.8747 -217.0376
TCL: Running FEP window   9: Lambda1 0.5999999999999996 Lambda2 0.5499999999999996 [dLambda -0.050000000000000044]
TCL: Setting parameter firsttimestep to 0
TCL: Setting parameter alchLambda to 0.5999999999999996
Info: NONBONDED TABLE R-SQUARED SPACING: 0.0625
Info: NONBONDED TABLE SIZE: 705 POINTS
TCL: Setting parameter alchLambda2 to 0.5499999999999996
Info: NONBONDED TABLE R-SQUARED SPACING: 0.0625
Info: NONBONDED TABLE SIZE: 705 POINTS
TCL: Running for 1500000 steps
ETITLE: TS BOND ANGLE DIHED IMPRP ELECT VDW BOUNDARY MISC KINETIC TOTAL TEMP POTENTIAL TOTALAVG TEMPAVG PRESSURE GPRESSURE VOLUME PRESSAVG GPRESSAVG
ENERGY: 0 1.2270 6.7212 1.5824 0.0000 -10639.4664 1324.9290 0.0000 0.0000 1758.3080 -7546.6988 299.8884 -9305.0067 -7546.6988 299.8884 -1225.7281 -1130.7491 30180.0869 -1225.7281 -1130.7491
ENERGY: 300000 1.8709 3.7265 3.1540 0.0000 -10836.1564 1533.8352 0.0000 0.0000 1704.0106 -7589.5592 290.6277 -9293.5698 -7543.4636 294.3138 651.2808 727.9207 30075.0474 -222.9900 -158.9424
ENERGY: 600000 0.8782 10.2238 1.7643 0.0000 -10572.0652 1436.4747 0.0000 0.0000 1790.5533 -7332.1710 305.3880 -9122.7242 -7469.0130 299.6921 385.1899 487.8899 30085.5161 -47.5804 22.3688
ENERGY: 900000 2.7794 10.4169 1.8094 0.0000 -10584.9729 1384.6769 0.0000 0.0000 1720.8154 -7464.4750 293.4939 -9185.2904 -7462.7348 299.2181 -472.8123 -417.4487 30507.4969 -124.4173 -63.7100
ENERGY: 1200000 0.6741 6.0164 2.2205 0.0000 -10626.3391 1400.8460 0.0000 0.0000 1724.7492 -7491.8330 294.1648 -9216.5822 -7474.9974 298.2846 -518.4921 -406.2676 30478.2533 -164.8298 -99.2295
ENERGY: 1500000 1.1019 9.0114 2.3247 0.0000 -10699.9072 1498.6139 0.0000 0.0000 1832.7346 -7356.1207 312.5823 -9188.8553 -7476.3481 298.3457 735.7914 700.7015 30067.8116 -43.4188 12.1212
TCL: Running FEP window  10: Lambda1 0.5499999999999996 Lambda2 0.4999999999999996 [dLambda -0.04999999999999999]
TCL: Setting parameter firsttimestep to 0
TCL: Setting parameter alchLambda to 0.5499999999999996
Info: NONBONDED TABLE R-SQUARED SPACING: 0.0625
Info: NONBONDED TABLE SIZE: 705 POINTS
TCL: Setting parameter alchLambda2 to 0.4999999999999996
Info: NONBONDED TABLE R-SQUARED SPACING: 0.0625
Info: NONBONDED TABLE SIZE: 705 POINTS
TCL: Running for 1500000 steps
ETITLE: TS BOND ANGLE DIHED IMPRP ELECT VDW BOUNDARY MISC KINETIC TOTAL TEMP POTENTIAL TOTALAVG TEMPAVG PRESSURE GPRESSURE VOLUME PRESSAVG GPRESSAVG
ENERGY: 0 1.1019 9.0114 2.3247 0.0000 -10699.8721 1498.8951 0.0000 0.0000 1831.8827 -7356.6563 312.4370 -9188.5390 -7356.6563 312.4370 621.5898 695.0851 30067.8116 621.5898 695.0851
ENERGY: 300000 0.5814 8.5362 1.3439 0.0000 -10659.6709 1389.6580 0.0000 0.0000 1762.4389 -7497.1125 300.5930 -9259.5514 -7414.4631 306.2335 -262.4975 -251.7430 29991.1944 -76.1372 -63.5119
ENERGY: 600000 1.2818 6.5510 3.2789 0.0000 -10728.6473 1466.9648 0.0000 0.0000 1754.5304 -7496.0405 299.2441 -9250.5708 -7439.5233 303.5373 210.4560 248.4225 30091.8960 -34.6134 -6.7382
ENERGY: 900000 3.7412 10.3442 2.3873 0.0000 -10608.3566 1436.5190 0.0000 0.0000 1763.7855 -7391.5794 300.8226 -9155.3648 -7436.0957 302.1291 161.8343 246.3477 30196.0969 -36.7659 -2.6634
ENERGY: 1200000 1.6602 9.6889 4.4106 0.0000 -10656.4174 1464.2682 0.0000 0.0000 1780.1896 -7396.1998 303.6205 -9176.3894 -7443.1442 302.5110 295.2279 306.7274 30540.3576 -3.5729 27.1134
ENERGY: 1500000 0.5009 9.2722 1.6452 0.0000 -10627.2129 1355.4760 0.0000 0.0000 1746.1369 -7514.1817 297.8126 -9260.3186 -7444.6298 302.2525 -533.1040 -468.3885 29975.2451 -108.4633 -77.4029
TCL: Running FEP window  11: Lambda1 0.4999999999999996 Lambda2 0.4499999999999996 [dLambda -0.04999999999999999]
TCL: Setting parameter firsttimestep to 0
TCL: Setting parameter alchLambda to 0.4999999999999996
Info: NONBONDED TABLE R-SQUARED SPACING: 0.0625
Info: NONBONDED TABLE SIZE: 705 POINTS
TCL: Setting parameter alchLambda2 to 0.4499999999999996
Info: NONBONDED TABLE R-SQUARED SPACING: 0.0625
Info: NONBONDED TABLE SIZE: 705 POINTS
TCL: Running for 1500000 steps
ETITLE: TS BOND ANGLE DIHED IMPRP ELECT VDW BOUNDARY MISC KINETIC TOTAL TEMP POTENTIAL TOTALAVG TEMPAVG PRESSURE GPRESSURE VOLUME PRESSAVG GPRESSAVG
ENERGY: 0 0.5009 9.2722 1.6452 0.0000 -10627.1992 1355.5687 0.0000 0.0000 1745.2686 -7514.9437 297.6645 -9260.2123 -7514.9437 297.6645 -538.6474 -472.9226 29975.2451 -538.6474 -472.9226
ENERGY: 300000 1.4746 7.1949 2.8386 0.0000 -10717.4569 1479.0661 0.0000 0.0000 1755.6917 -7471.1911 299.4422 -9226.8828 -7460.0990 298.9763 173.5648 244.6994 30402.8277 -190.6786 -138.2584
ENERGY: 600000 0.6787 8.7457 2.0510 0.0000 -10701.1148 1404.8602 0.0000 0.0000 1773.5138 -7511.2653 302.4819 -9284.7791 -7465.6298 299.4465 -444.0935 -401.0847 30519.6395 -410.0841 -333.7347
ENERGY: 900000 1.2026 7.5816 1.7163 0.0000 -10860.6519 1521.4236 0.0000 0.0000 1743.2268 -7585.5011 297.3163 -9328.7279 -7498.5204 297.4423 467.1080 524.5498 29908.4842 -175.8034 -91.0919
ENERGY: 1200000 1.2994 6.7820 1.8156 0.0000 -10611.1282 1412.3296 0.0000 0.0000 1754.6060 -7434.2956 299.2570 -9188.9016 -7482.7299 298.1724 -461.4479 -327.2287 30895.0575 -151.5053 -62.9529
ENERGY: 1500000 2.6004 8.1017 2.6644 0.0000 -10845.2592 1527.2136 0.0000 0.0000 1774.6995 -7529.9797 302.6841 -9304.6792 -7482.8066 298.6852 204.3274 371.8213 30304.6309 -198.4079 -106.9785
TCL: Running FEP window  12: Lambda1 0.4499999999999996 Lambda2 0.39999999999999963 [dLambda -0.04999999999999999]
TCL: Setting parameter firsttimestep to 0
TCL: Setting parameter alchLambda to 0.4499999999999996
Info: NONBONDED TABLE R-SQUARED SPACING: 0.0625
Info: NONBONDED TABLE SIZE: 705 POINTS
TCL: Setting parameter alchLambda2 to 0.39999999999999963
Info: NONBONDED TABLE R-SQUARED SPACING: 0.0625
Info: NONBONDED TABLE SIZE: 705 POINTS
TCL: Running for 1500000 steps
ETITLE: TS BOND ANGLE DIHED IMPRP ELECT VDW BOUNDARY MISC KINETIC TOTAL TEMP POTENTIAL TOTALAVG TEMPAVG PRESSURE GPRESSURE VOLUME PRESSAVG GPRESSAVG
ENERGY: 0 2.6004 8.1017 2.6644 0.0000 -10845.2599 1527.0538 0.0000 0.0000 1773.8394 -7531.0003 302.5374 -9304.8396 -7531.0003 302.5374 268.5786 364.1512 30304.6309 268.5786 364.1512
ENERGY: 300000 1.0887 10.7409 2.3821 0.0000 -10669.8171 1453.6155 0.0000 0.0000 1768.6882 -7433.3018 301.6588 -9201.9900 -7529.0660 296.2499 84.3387 125.0778 30473.7413 6.7937 85.6065
ENERGY: 600000 2.3458 10.1866 1.9675 0.0000 -10599.6039 1355.3085 0.0000 0.0000 1822.2697 -7407.5259 310.7974 -9229.7956 -7501.1965 299.5481 -585.6921 -472.4146 30295.0337 -206.0990 -134.8935
ENERGY: 900000 0.4340 8.7868 1.6806 0.0000 -10822.4581 1524.5435 0.0000 0.0000 1817.2164 -7469.7968 309.9356 -9287.0132 -7507.8754 299.5964 877.0531 952.6921 29623.2529 -36.5444 33.9917
ENERGY: 1200000 0.9555 7.8664 1.3901 0.0000 -10755.4027 1490.5286 0.0000 0.0000 1752.4919 -7502.1701 298.8965 -9254.6620 -7492.9467 300.7918 162.8032 238.5575 30451.6156 27.6288 98.5182
ENERGY: 1500000 2.4933 9.5035 1.7461 0.0000 -10720.3129 1432.9046 0.0000 0.0000 1732.4974 -7541.1680 295.4863 -9273.6654 -7493.5775 300.2147 -97.5843 -24.5272 29935.7424 -1.4376 67.7336
TCL: Running FEP window  13: Lambda1 0.39999999999999963 Lambda2 0.34999999999999964 [dLambda -0.04999999999999999]
TCL: Setting parameter firsttimestep to 0
TCL: Setting parameter alchLambda to 0.39999999999999963
Info: NONBONDED TABLE R-SQUARED SPACING: 0.0625
Info: NONBONDED TABLE SIZE: 705 POINTS
TCL: Setting parameter alchLambda2 to 0.34999999999999964
Info: NONBONDED TABLE R-SQUARED SPACING: 0.0625
Info: NONBONDED TABLE SIZE: 705 POINTS
TCL: Running for 1500000 steps
ETITLE: TS BOND ANGLE DIHED IMPRP ELECT VDW BOUNDARY MISC KINETIC TOTAL TEMP POTENTIAL TOTALAVG TEMPAVG PRESSURE GPRESSURE VOLUME PRESSAVG GPRESSAVG
ENERGY: 0 2.4933 9.5035 1.7461 0.0000 -10720.3138 1433.1764 0.0000 0.0000 1731.5685 -7541.8260 295.3279 -9273.3945 -7541.8260 295.3279 -122.5504 -26.3077 29935.7424 -122.5504 -26.3077
ENERGY: 300000 1.4762 7.8323 1.6729 0.0000 -10715.4785 1417.7824 0.0000 0.0000 1738.6004 -7548.1142 296.5272 -9286.7146 -7502.9539 299.0555 -483.3924 -372.2815 30486.7081 -136.1836 -49.8208
ENERGY: 600000 1.0834 7.1547 1.4984 0.0000 -10668.3161 1407.4081 0.0000 0.0000 1760.6962 -7490.4753 300.2958 -9251.1716 -7464.5013 299.0038 -258.2620 -216.1094 30139.0921 -24.6753 40.7255
ENERGY: 900000 0.3902 10.4631 1.4138 0.0000 -10582.0744 1382.8614 0.0000 0.0000 1749.6091 -7437.3368 298.4048 -9186.9460 -7467.2101 298.0808 -242.6980 -178.1723 30010.7554 -213.9677 -151.8554
ENERGY: 1200000 1.1204 14.5995 2.2395 0.0000 -10629.5420 1373.7583 0.0000 0.0000 1750.7936 -7487.0307 298.6068 -9237.8244 -7468.7606 298.4998 -372.1069 -360.0289 30362.0025 -183.7912 -129.0215
ENERGY: 1500000 0.5815 7.1481 4.0863 0.0000 -10628.2036 1363.1067 0.0000 0.0000 1750.5006 -7502.7804 298.5569 -9253.2811 -7469.9244 298.9278 -642.7297 -588.1962 30185.0212 -163.2819 -108.1938
TCL: Running FEP window  14: Lambda1 0.34999999999999964 Lambda2 0.29999999999999966 [dLambda -0.04999999999999999]
TCL: Setting parameter firsttimestep to 0
TCL: Setting parameter alchLambda to 0.34999999999999964
Info: NONBONDED TABLE R-SQUARED SPACING: 0.0625
Info: NONBONDED TABLE SIZE: 705 POINTS
TCL: Setting parameter alchLambda2 to 0.29999999999999966
Info: NONBONDED TABLE R-SQUARED SPACING: 0.0625
Info: NONBONDED TABLE SIZE: 705 POINTS
TCL: Running for 1500000 steps
ETITLE: TS BOND ANGLE DIHED IMPRP ELECT VDW BOUNDARY MISC KINETIC TOTAL TEMP POTENTIAL TOTALAVG TEMPAVG PRESSURE GPRESSURE VOLUME PRESSAVG GPRESSAVG
ENERGY: 0 0.5815 7.1481 4.0863 0.0000 -10628.2041 1362.5539 0.0000 0.0000 1749.5809 -7504.2534 298.4000 -9253.8343 -7504.2534 298.4000 -682.8065 -600.8874 30185.0212 -682.8065 -600.8874
ENERGY: 300000 0.3685 4.8197 1.6000 0.0000 -10497.8320 1329.1406 0.0000 0.0000 1694.0631 -7467.8401 288.9311 -9161.9033 -7468.7588 302.0497 -598.9365 -543.6760 30256.4517 -118.6481 -53.0048
ENERGY: 600000 0.9368 7.8917 1.6965 0.0000 -10476.6986 1295.4467 0.0000 0.0000 1764.2742 -7406.4527 300.9060 -9170.7269 -7469.8865 300.9931 -941.7178 -833.2310 30245.4304 -92.2829 -25.2849
ENERGY: 900000 2.1431 9.8296 1.5910 0.0000 -10621.0233 1424.0818 0.0000 0.0000 1680.1661 -7503.2117 286.5609 -9183.3778 -7474.5539 298.9819 22.5075 33.3436 29982.4647 -38.8651 16.6566
ENERGY: 1200000 1.4349 6.2557 1.1453 0.0000 -10799.0275 1515.2491 0.0000 0.0000 1735.2430 -7539.6996 295.9546 -9274.9426 -7487.6863 298.2800 279.9698 435.6432 30165.2992 -53.2008 10.5230
ENERGY: 1500000 1.2063 11.3542 1.4572 0.0000 -10658.7887 1395.9356 0.0000 0.0000 1783.1018 -7465.7334 304.1172 -9248.8352 -7478.7807 299.1012 -487.9854 -425.6673 30494.9666 -72.8297 -7.7412
TCL: Running FEP window  15: Lambda1 0.29999999999999966 Lambda2 0.24999999999999967 [dLambda -0.04999999999999999]
TCL: Setting parameter firsttimestep to 0
TCL: Setting parameter alchLambda to 0.29999999999999966
Info: NONBONDED TABLE R-SQUARED SPACING: 0.0625
Info: NONBONDED TABLE SIZE: 705 POINTS
TCL: Setting parameter alchLambda2 to 0.24999999999999967
Info: NONBONDED TABLE R-SQUARED SPACING: 0.0625
Info: NONBONDED TABLE SIZE: 705 POINTS
TCL: Running for 1500000 steps
ETITLE: TS BOND ANGLE DIHED IMPRP ELECT VDW BOUNDARY MISC KINETIC TOTAL TEMP POTENTIAL TOTALAVG TEMPAVG PRESSURE GPRESSURE VOLUME PRESSAVG GPRESSAVG
ENERGY: 0 1.2063 11.3542 1.4572 0.0000 -10658.7904 1396.1503 0.0000 0.0000 1782.2073 -7466.4151 303.9646 -9248.6224 -7466.4151 303.9646 -511.8041 -427.4064 30494.9666 -511.8041 -427.4064
ENERGY: 300000 1.0200 6.7446 1.4465 0.0000 -10687.9900 1462.0880 0.0000 0.0000 1768.7543 -7447.9365 301.6701 -9216.6908 -7480.9755 299.3965 118.2749 149.5937 30646.5710 -384.5517 -329.2047
ENERGY: 600000 3.5598 6.1884 1.3789 0.0000 -10679.5825 1444.2569 0.0000 0.0000 1725.6750 -7498.5235 294.3227 -9224.1984 -7474.0529 300.8346 -88.0581 -49.9469 30115.0398 -250.1928 -188.4519
ENERGY: 900000 0.7738 4.9027 1.2661 0.0000 -10553.5805 1419.7012 0.0000 0.0000 1825.6279 -7301.3088 311.3702 -9126.9367 -7452.1956 301.9056 85.4074 175.1951 30437.9209 -42.3560 27.2241
ENERGY: 1200000 0.0388 6.8312 2.2281 0.0000 -10616.6065 1394.4609 0.0000 0.0000 1789.6503 -7423.3972 305.2340 -9213.0475 -7444.7518 302.1689 -262.1406 -218.9948 30360.3302 -73.7087 -7.8078
ENERGY: 1500000 0.6547 5.8624 1.7786 0.0000 -10736.0471 1479.5395 0.0000 0.0000 1832.0107 -7416.2012 312.4588 -9248.2119 -7443.0616 302.7511 438.2099 468.3959 30133.4438 -8.2793 56.7147
TCL: Running FEP window  16: Lambda1 0.24999999999999967 Lambda2 0.19999999999999968 [dLambda -0.04999999999999999]
TCL: Setting parameter firsttimestep to 0
TCL: Setting parameter alchLambda to 0.24999999999999967
Info: NONBONDED TABLE R-SQUARED SPACING: 0.0625
Info: NONBONDED TABLE SIZE: 705 POINTS
TCL: Setting parameter alchLambda2 to 0.19999999999999968
Info: NONBONDED TABLE R-SQUARED SPACING: 0.0625
Info: NONBONDED TABLE SIZE: 705 POINTS
TCL: Running for 1500000 steps
ETITLE: TS BOND ANGLE DIHED IMPRP ELECT VDW BOUNDARY MISC KINETIC TOTAL TEMP POTENTIAL TOTALAVG TEMPAVG PRESSURE GPRESSURE VOLUME PRESSAVG GPRESSAVG
ENERGY: 0 0.6547 5.8624 1.7786 0.0000 -10736.0473 1479.6696 0.0000 0.0000 1831.1650 -7416.9170 312.3146 -9248.0819 -7416.9170 312.3146 408.4897 465.5133 30133.4438 408.4897 465.5133
ENERGY: 300000 0.3879 11.4261 2.7867 0.0000 -10664.1598 1465.1084 0.0000 0.0000 1794.8151 -7389.6356 306.1149 -9184.4507 -7425.1881 303.2619 231.7747 238.1792 30536.1739 -79.3783 -10.6613
ENERGY: 600000 0.3416 11.1300 1.4416 0.0000 -10738.2938 1485.0404 0.0000 0.0000 1694.6482 -7545.6921 289.0309 -9240.3403 -7446.3133 299.7268 175.3119 212.1373 30188.1174 -62.4649 -2.0191
ENERGY: 900000 1.2441 9.9204 3.2233 0.0000 -10717.5848 1462.2637 0.0000 0.0000 1733.2086 -7507.7248 295.6076 -9240.9334 -7448.4225 299.6940 -21.3174 -17.5423 30551.2261 -226.7536 -165.0430
ENERGY: 1200000 0.5599 7.8035 2.2698 0.0000 -10753.8474 1450.0149 0.0000 0.0000 1770.9188 -7522.2803 302.0393 -9293.1992 -7447.6056 300.4308 110.6849 165.7140 30054.2865 -330.6547 -260.1406
ENERGY: 1500000 1.5319 5.2985 1.1859 0.0000 -10669.0672 1504.7885 0.0000 0.0000 1728.4402 -7427.8223 294.7943 -9156.2625 -7448.4711 300.0143 868.1261 901.9091 30005.4475 -192.6775 -125.5192
TCL: Running FEP window  17: Lambda1 0.19999999999999968 Lambda2 0.1499999999999997 [dLambda -0.04999999999999999]
TCL: Setting parameter firsttimestep to 0
TCL: Setting parameter alchLambda to 0.19999999999999968
Info: NONBONDED TABLE R-SQUARED SPACING: 0.0625
Info: NONBONDED TABLE SIZE: 705 POINTS
TCL: Setting parameter alchLambda2 to 0.1499999999999997
Info: NONBONDED TABLE R-SQUARED SPACING: 0.0625
Info: NONBONDED TABLE SIZE: 705 POINTS
TCL: Running for 1500000 steps
ETITLE: TS BOND ANGLE DIHED IMPRP ELECT VDW BOUNDARY MISC KINETIC TOTAL TEMP POTENTIAL TOTALAVG TEMPAVG PRESSURE GPRESSURE VOLUME PRESSAVG GPRESSAVG
ENERGY: 0 1.5319 5.2985 1.1859 0.0000 -10669.0654 1504.8790 0.0000 0.0000 1727.5544 -7428.6157 294.6433 -9156.1701 -7428.6157 294.6433 805.9041 898.6737 30005.4475 805.9041 898.6737
ENERGY: 300000 0.4343 8.5886 2.7283 0.0000 -10630.9563 1452.5202 0.0000 0.0000 1750.7764 -7415.9086 298.6039 -9166.6849 -7454.6205 295.0725 287.0427 301.0139 30186.2919 66.3042 124.5769
ENERGY: 600000 1.0789 8.0535 2.2443 0.0000 -10729.3089 1458.0202 0.0000 0.0000 1741.6444 -7518.2675 297.0464 -9259.9120 -7476.7025 294.7763 56.4659 135.2222 30200.1810 173.7212 231.6134
ENERGY: 900000 0.3286 8.2419 2.7999 0.0000 -10606.6604 1382.5346 0.0000 0.0000 1791.4175 -7421.3378 305.5354 -9212.7553 -7462.2750 297.1446 -186.4849 -120.7728 30150.2239 120.4159 177.5824
ENERGY: 1200000 0.7887 6.8629 1.3086 0.0000 -10742.2523 1439.8424 0.0000 0.0000 1810.3052 -7483.1445 308.7568 -9293.4497 -7463.6931 298.3330 -183.8679 -152.1296 30298.1915 116.9008 174.2220
ENERGY: 1500000 0.1502 14.8878 2.2016 0.0000 -10664.4240 1436.1672 0.0000 0.0000 1756.5283 -7454.4889 299.5849 -9211.0172 -7454.4474 299.7085 91.2446 201.4777 29954.6072 136.8806 196.3217
TCL: Running FEP window  18: Lambda1 0.1499999999999997 Lambda2 0.09999999999999969 [dLambda -0.05 ]
TCL: Setting parameter firsttimestep to 0
TCL: Setting parameter alchLambda to 0.1499999999999997
Info: NONBONDED TABLE R-SQUARED SPACING: 0.0625
Info: NONBONDED TABLE SIZE: 705 POINTS
TCL: Setting parameter alchLambda2 to 0.09999999999999969
Info: NONBONDED TABLE R-SQUARED SPACING: 0.0625
Info: NONBONDED TABLE SIZE: 705 POINTS
TCL: Running for 1500000 steps
ETITLE: TS BOND ANGLE DIHED IMPRP ELECT VDW BOUNDARY MISC KINETIC TOTAL TEMP POTENTIAL TOTALAVG TEMPAVG PRESSURE GPRESSURE VOLUME PRESSAVG GPRESSAVG
ENERGY: 0 0.1502 14.8878 2.2016 0.0000 -10664.4228 1436.5629 0.0000 0.0000 1755.6239 -7454.9965 299.4306 -9210.6203 -7454.9965 299.4306 110.3799 201.7467 29954.6072 110.3799 201.7467
ENERGY: 300000 0.3397 8.7299 2.7609 0.0000 -10645.6884 1491.2759 0.0000 0.0000 1752.5634 -7390.0187 298.9087 -9142.5820 -7463.0669 297.0751 578.3337 638.7431 30257.2337 261.1065 349.3005
ENERGY: 600000 0.1898 8.5467 2.3730 0.0000 -10597.1493 1404.1579 0.0000 0.0000 1757.7343 -7424.1475 299.7906 -9181.8818 -7446.1735 299.7781 -81.3120 13.9849 29941.5028 195.4271 274.3756
ENERGY: 900000 1.3397 9.1811 1.4920 0.0000 -10643.5467 1529.5876 0.0000 0.0000 1772.3080 -7329.6384 302.2762 -9101.9464 -7441.8728 300.2856 748.7006 780.6320 30576.5081 316.4334 383.5880
ENERGY: 1200000 0.3624 8.1145 1.8564 0.0000 -10617.0747 1380.9178 0.0000 0.0000 1786.3211 -7439.5024 304.6662 -9225.8236 -7440.3427 301.8459 -173.8986 -144.0072 29796.3254 168.8460 228.1978
ENERGY: 1500000 1.5409 8.3169 1.2582 0.0000 -10816.6842 1541.9237 0.0000 0.0000 1747.5009 -7516.1437 298.0452 -9263.6445 -7451.6063 300.7460 846.1767 824.6101 29822.7576 143.9266 193.5800
TCL: Running FEP window  19: Lambda1 0.09999999999999969 Lambda2 0.049999999999999684 [dLambda -0.05 ]
TCL: Setting parameter firsttimestep to 0
TCL: Setting parameter alchLambda to 0.09999999999999969
Info: NONBONDED TABLE R-SQUARED SPACING: 0.0625
Info: NONBONDED TABLE SIZE: 705 POINTS
TCL: Setting parameter alchLambda2 to 0.049999999999999684
Info: NONBONDED TABLE R-SQUARED SPACING: 0.0625
Info: NONBONDED TABLE SIZE: 705 POINTS
TCL: Running for 1500000 steps
ETITLE: TS BOND ANGLE DIHED IMPRP ELECT VDW BOUNDARY MISC KINETIC TOTAL TEMP POTENTIAL TOTALAVG TEMPAVG PRESSURE GPRESSURE VOLUME PRESSAVG GPRESSAVG
ENERGY: 0 1.5409 8.3169 1.2582 0.0000 -10816.6834 1541.4002 0.0000 0.0000 1746.6022 -7517.5650 297.8920 -9264.1672 -7517.5650 297.8920 741.3541 819.6105 29822.7576 741.3541 819.6105
ENERGY: 300000 1.1049 6.4999 1.8011 0.0000 -10776.5835 1482.9640 0.0000 0.0000 1744.4623 -7539.7513 297.5270 -9284.2136 -7507.3225 297.4572 298.7219 331.5436 30082.0589 243.9287 293.2648
ENERGY: 600000 1.3787 11.3081 3.4612 0.0000 -10730.1736 1473.8157 0.0000 0.0000 1760.5464 -7479.6633 300.2702 -9240.2098 -7483.1587 298.7088 65.5421 137.4562 30328.5396 386.6069 447.7267
ENERGY: 900000 0.5271 6.2331 2.2286 0.0000 -10643.4824 1408.0050 0.0000 0.0000 1746.9424 -7479.5463 297.9500 -9226.4887 -7487.9108 297.4314 -378.1743 -295.1572 30489.9136 292.8970 350.7327
ENERGY: 1200000 1.1392 5.3481 1.5198 0.0000 -10742.6007 1421.9948 0.0000 0.0000 1787.9577 -7524.6412 304.9453 -9312.5989 -7489.9426 299.6341 -182.6005 -52.7543 29979.4151 184.9018 248.3038
ENERGY: 1500000 0.3425 5.8573 1.9529 0.0000 -10728.9591 1502.3194 0.0000 0.0000 1773.1849 -7445.3020 302.4258 -9218.4870 -7484.5536 300.1433 590.3951 636.7431 30253.6840 189.3665 249.1343
TCL: Running FEP window  20: Lambda1 0.049999999999999684 Lambda2 0.0    [dLambda -0.049999999999999684]
TCL: Setting parameter firsttimestep to 0
TCL: Setting parameter alchLambda to 0.049999999999999684
Info: NONBONDED TABLE R-SQUARED SPACING: 0.0625
Info: NONBONDED TABLE SIZE: 705 POINTS
TCL: Setting parameter alchLambda2 to 0.0
Info: NONBONDED TABLE R-SQUARED SPACING: 0.0625
Info: NONBONDED TABLE SIZE: 705 POINTS
TCL: Running for 1500000 steps
ETITLE: TS BOND ANGLE DIHED IMPRP ELECT VDW BOUNDARY MISC KINETIC TOTAL TEMP POTENTIAL TOTALAVG TEMPAVG PRESSURE GPRESSURE VOLUME PRESSAVG GPRESSAVG
ENERGY: 0 0.3425 5.8573 1.9529 0.0000 -10728.9576 1502.6100 0.0000 0.0000 1772.3403 -7445.8546 302.2817 -9218.1948 -7445.8546 302.2817 553.3960 637.9947 30253.6840 553.3960 637.9947
ENERGY: 300000 0.4662 9.0047 1.6524 0.0000 -10861.2068 1534.1791 0.0000 0.0000 1821.9018 -7494.0025 310.7347 -9315.9043 -7442.7556 304.0040 538.5778 615.4255 29996.1019 -86.9114 -27.2334
ENERGY: 600000 1.6411 5.4679 1.0749 0.0000 -10769.8494 1466.7739 0.0000 0.0000 1806.2058 -7488.6859 308.0577 -9294.8917 -7453.0812 303.7956 -110.5335 17.8966 30547.3995 -15.3594 36.8560
ENERGY: 900000 1.9446 8.0393 2.6548 0.0000 -10693.1780 1418.2371 0.0000 0.0000 1731.4050 -7530.8972 295.3000 -9262.3022 -7469.5506 302.0766 -336.6502 -274.7994 30244.0504 -159.9910 -102.4023
ENERGY: 1200000 2.1061 7.4150 2.1517 0.0000 -10501.1083 1361.9630 0.0000 0.0000 1738.5770 -7388.8955 296.5232 -9127.4724 -7461.8385 300.8676 -682.3767 -584.7767 30747.4973 -168.1164 -105.3511
ENERGY: 1500000 2.0141 5.3155 3.9835 0.0000 -10675.3026 1420.0001 0.0000 0.0000 1765.6838 -7478.3056 301.1464 -9243.9893 -7452.3281 301.5027 -340.9411 -289.2161 30252.7922 -168.6739 -104.0066
TCL: Exiting due to exit command.
