Info: SIMULATION PARAMETERS:
Info: TIMESTEP               2
Info: NUMBER OF STEPS        0
Info: STEPS PER CYCLE        10
Info: PERIODIC CELL BASIS 1  30.4419 0 0
Info: PERIODIC CELL BASIS 2  0 29.8501 0
Info: PERIODIC CELL BASIS 3  0 0 33.3289
Info: PERIODIC CELL CENTER   0 0 0
Info: WRAPPING WATERS AROUND PERIODIC BOUNDARIES ON OUTPUT.
Info: WRAPPING ALL CLUSTERS AROUND PERIODIC BOUNDARIES ON OUTPUT.
Info: FIRST LDB TIMESTEP     50
Info: LAST LDB TIMESTEP     -1
Info: HOM BACKGROUND SCALING 1
Info: PME BACKGROUND SCALING 1
Info: MIN ATOMS PER PATCH    40
Info: EMPTY PATCH LOAD       40 ATOMS
Info: VELOCITY FILE          mobley_7497999_equil.vel
Info: CENTER OF MASS MOVING INITIALLY? NO
Info: DIELECTRIC             1
Info: EXCLUDE                SCALED ONE-FOUR
Info: 1-4 ELECTROSTATICS SCALED BY 0.833333
Info: MODIFIED 1-4 VDW PARAMETERS WILL BE USED
Info: DCD FILENAME           mobley_7497999_prod.dcd
Info: DCD FREQUENCY          100000
Info: DCD FIRST STEP         100000
Info: DCD FILE WILL CONTAIN UNIT CELL DATA
Info: XST FILENAME           mobley_7497999_prod.xst
Info: XST FREQUENCY          100000
Info: NO VELOCITY DCD OUTPUT
Info: NO FORCE DCD OUTPUT
Info: OUTPUT FILENAME        mobley_7497999_prod
Info: BINARY OUTPUT FILES WILL BE USED
Info: RESTART FILENAME       mobley_7497999_prod.restart
Info: RESTART FREQUENCY      100000
Info: BINARY RESTART FILES WILL BE USED
Info: CUTOFF                 9
Info: PAIRLIST DISTANCE      11
Info: PAIRLIST SHRINK RATE   0.01
Info: PAIRLIST GROW RATE     0.01
Info: PAIRLIST TRIGGER       0.3
Info: PAIRLISTS PER CYCLE    2
Info: PAIRLISTS ENABLED
Info: MARGIN                 2
Info: HYDROGEN GROUP CUTOFF  2.5
Info: PATCH DIMENSION        15.5
Info: ENERGY OUTPUT STEPS    100000
Info: ENERGY EVALUATION STEPS    100000
Info: OUTPUT ENERGY PRECISION 4
Info: CROSSTERM ENERGY INCLUDED IN DIHEDRAL
Info: TIMING OUTPUT STEPS    1000000
Info: PRESSURE OUTPUT STEPS  100000
Info: ALCHEMICAL FEP ON
Info: FEP CURRENT LAMBDA VALUE     0
Info: FEP COMPARISON LAMBDA VALUE  0.05
Info: FEP INTRA-ALCHEMICAL NON-BONDED INTERACTIONS WILL BE RETAINED
Info: FEP INTRA-ALCHEMICAL BONDED INTERACTIONS WILL BE RETAINED
Info: FEP VDW SHIFTING COEFFICIENT 5
Info: FEP ELEC. ACTIVE FOR ANNIHILATED PARTICLES BETWEEN LAMBDA = 0 AND LAMBDA = 0.5
Info: FEP ELEC. ACTIVE FOR EXNIHILATED PARTICLES BETWEEN LAMBDA = 0.5 AND LAMBDA = 1
Info: FEP VDW ACTIVE FOR ANNIHILATED PARTICLES BETWEEN LAMBDA = 0 AND LAMBDA = 1
Info: FEP VDW ACTIVE FOR EXNIHILATED PARTICLES BETWEEN LAMBDA = 0 AND LAMBDA = 1
Info: FEP BOND ACTIVE FOR ANNIHILATED PARTICLES BETWEEN LAMBDA = 1 AND LAMBDA = 1
Info: FEP BOND ACTIVE FOR EXNIHILATED PARTICLES BETWEEN LAMBDA = 0 AND LAMBDA = 0
Info: LANGEVIN DYNAMICS ACTIVE
Info: LANGEVIN TEMPERATURE   300
Info: LANGEVIN USING BBK INTEGRATOR
Info: LANGEVIN DAMPING COEFFICIENT IS 1 INVERSE PS
Info: LANGEVIN DYNAMICS APPLIED TO HYDROGENS
Info: LANGEVIN PISTON PRESSURE CONTROL ACTIVE
Info:        TARGET PRESSURE IS 1.01325 BAR
Info:     OSCILLATION PERIOD IS 50 FS
Info:             DECAY TIME IS 25 FS
Info:     PISTON TEMPERATURE IS 300 K
Info:       PRESSURE CONTROL IS GROUP-BASED
Info:    INITIAL STRAIN RATE IS -0.000362459 -0.000362459 -0.000362459
Info:       CELL FLUCTUATION IS ISOTROPIC
Info: PARTICLE MESH EWALD (PME) ACTIVE
Info: PME TOLERANCE               1e-06
Info: PME EWALD COEFFICIENT       0.348832
Info: PME INTERPOLATION ORDER     4
Info: PME GRID DIMENSIONS         32 32 36
Info: PME MAXIMUM GRID SPACING    1
Info: PME CALCULATION WILL BE PERFORMED ON GPU
Info: FULL ELECTROSTATIC EVALUATION FREQUENCY      2
Info: USING VERLET I (r-RESPA) MTS SCHEME.
Info: C1 SPLITTING OF LONG RANGE ELECTROSTATICS
Info: PLACING ATOMS IN PATCHES BY HYDROGEN GROUPS
Info: RIGID BONDS TO HYDROGEN : ALL
Info:         ERROR TOLERANCE : 1e-08
Info:          MAX ITERATIONS : 100
Info: RIGID WATER USING SETTLE ALGORITHM
Info: RANDOM NUMBER SEED     1743775505
Info: USE HYDROGEN BONDS?    NO
Info: Using AMBER format force field!
Info: AMBER PARM FILE        mobley_7497999.prmtop
Info: COORDINATE PDB         mobley_7497999.pdb
Info: Exclusions will be read from PARM file!
Info: SCNB (VDW SCALING)     2
Info: USING ARITHMETIC MEAN TO COMBINE L-J SIGMA PARAMETERS
Info: BINARY COORDINATES     mobley_7497999_equil.coor
Info: SUMMARY OF PARAMETERS:
Info: 8 BONDS
Info: 8 ANGLES
Info:   8 HARMONIC
Info:   0 COSINE-BASED
Info: 8 DIHEDRAL
Info: 0 IMPROPER
Info: 0 CROSSTERM
Info: 0 VDW
Info: 28 VDW_PAIRS
Info: 0 NBTHOLE_PAIRS
Info: To read alchdata from file: mobley_7497999.pdb
Info: To read alchflag data from column: 5
Info: STRUCTURE SUMMARY:
Info: 2945 ATOMS
Info: 2945 BONDS
Info: 27 ANGLES
Info: 47 DIHEDRALS
Info: 0 IMPROPERS
Info: 0 CROSSTERMS
Info: 3003 EXCLUSIONS
Info: 2936 RIGID BONDS
Info: ALCH: 0 ATOMS TO DISAPPEAR IN FINAL STATE
Info: ALCH: 17 ATOMS TO APPEAR IN FINAL STATE
Info: 5899 DEGREES OF FREEDOM
Info: 985 HYDROGEN GROUPS
Info: 4 ATOMS IN LARGEST HYDROGEN GROUP
Info: 985 MIGRATION GROUPS
Info: 4 ATOMS IN LARGEST MIGRATION GROUP
Info: TOTAL MASS = 17703.8 amu
Info: TOTAL CHARGE = 9.99868e-05 e
Info: MASS DENSITY = 0.970701 g/cm^3
Info: ATOM DENSITY = 0.0972402 atoms/A^3
Info: ADDED 0 IMPLICIT EXCLUSIONS
Info: NONBONDED TABLE R-SQUARED SPACING: 0.0625
Info: NONBONDED TABLE SIZE: 705 POINTS
Info: REMOVING COM VELOCITY -0.0266961 0.167199 -0.230581
Info: Use 3D box decompostion in PME FFT.
Info: Updated CUDA force table with 4096 elements.
Info: Updated CUDA LJ table with 7 x 7 elements.
Info: Found 16 unique exclusion lists needing 36 bytes
TCL: Running for 1500000 steps
ETITLE: TS BOND ANGLE DIHED IMPRP ELECT VDW BOUNDARY MISC KINETIC TOTAL TEMP POTENTIAL TOTALAVG TEMPAVG PRESSURE GPRESSURE VOLUME PRESSAVG GPRESSAVG
ENERGY: 0 2.5895 5.6093 5.4163 0.0000 -10605.3214 1400.5564 0.0000 0.0000 1774.8490 -7416.3009 302.8122 -9191.1499 -7416.3009 302.8122 -383.8900 -300.6641 30285.8184 -383.8900 -300.6641
ENERGY: 300000 2.0524 5.3479 7.4557 0.0000 -10726.0038 1478.7943 0.0000 0.0000 1768.6013 -7463.7523 301.7463 -9232.3536 -7443.5216 300.7147 228.2023 296.7712 29925.8109 -79.7383 -36.3329
ENERGY: 600000 0.9688 2.5913 5.0874 0.0000 -10746.2483 1462.3312 0.0000 0.0000 1753.8429 -7521.4266 299.2283 -9275.2695 -7457.5220 300.5625 -60.7342 14.1500 30217.0133 38.3591 107.6756
ENERGY: 900000 4.4014 4.4996 7.0313 0.0000 -10481.2510 1356.2832 0.0000 0.0000 1755.4946 -7353.5409 299.5101 -9109.0355 -7452.5024 300.2481 -668.3259 -610.9777 30855.1553 -147.6660 -79.9929
ENERGY: 1200000 3.8882 6.0916 6.0802 0.0000 -10634.6860 1395.0833 0.0000 0.0000 1698.9435 -7524.5992 289.8618 -9223.5427 -7463.9256 299.4676 -457.1396 -356.1768 29980.1211 -232.6327 -161.7787
ENERGY: 1500000 5.7160 11.2389 6.7632 0.0000 -10842.6936 1520.0782 0.0000 0.0000 1814.1122 -7484.7850 309.5110 -9298.8972 -7468.6295 300.2626 509.6505 588.9146 29623.5139 -175.8642 -106.6401
TCL: Running FEP window   2: Lambda1 0.05   Lambda2 0.1    [dLambda 0.05  ]
TCL: Setting parameter firsttimestep to 0
TCL: Setting parameter alchLambda to 0.05
Info: NONBONDED TABLE R-SQUARED SPACING: 0.0625
Info: NONBONDED TABLE SIZE: 705 POINTS
TCL: Setting parameter alchLambda2 to 0.1
Info: NONBONDED TABLE R-SQUARED SPACING: 0.0625
Info: NONBONDED TABLE SIZE: 705 POINTS
TCL: Running for 1500000 steps
ETITLE: TS BOND ANGLE DIHED IMPRP ELECT VDW BOUNDARY MISC KINETIC TOTAL TEMP POTENTIAL TOTALAVG TEMPAVG PRESSURE GPRESSURE VOLUME PRESSAVG GPRESSAVG
ENERGY: 0 5.7160 11.2389 6.7632 0.0000 -10842.6930 1521.8791 0.0000 0.0000 1813.2452 -7483.8506 309.3631 -9297.0958 -7483.8506 309.3631 514.1498 593.3957 29623.5139 514.1498 593.3957
ENERGY: 300000 1.1391 7.1599 5.7395 0.0000 -10667.0055 1490.5940 0.0000 0.0000 1802.3863 -7359.9868 307.5104 -9162.3731 -7441.6486 306.5230 630.4715 704.2842 30060.4458 508.3699 586.8330
ENERGY: 600000 2.3218 7.1247 5.9554 0.0000 -10766.0547 1534.9300 0.0000 0.0000 1754.5529 -7461.1700 299.3494 -9215.7229 -7439.0619 303.1024 1076.4831 1138.5944 29601.7962 504.4010 580.8186
ENERGY: 900000 1.8018 2.8118 6.9204 0.0000 -10690.3627 1474.2370 0.0000 0.0000 1781.8948 -7422.6969 304.0143 -9204.5917 -7445.2649 302.7774 323.4529 383.7128 30319.7207 306.5568 374.5214
ENERGY: 1200000 6.4349 4.1047 3.9127 0.0000 -10716.4555 1458.9810 0.0000 0.0000 1787.7346 -7455.2876 305.0107 -9243.0222 -7451.4722 302.1060 -211.2305 -101.9484 29980.9990 266.2062 340.1169
ENERGY: 1500000 3.1561 5.6545 6.3604 0.0000 -10819.4015 1542.5105 0.0000 0.0000 1776.0636 -7485.6564 303.0194 -9261.7200 -7452.7178 301.8264 384.4636 498.8232 30369.6453 254.8805 335.3426
TCL: Running FEP window   3: Lambda1 0.1    Lambda2 0.15000000000000002 [dLambda 0.05000000000000002]
TCL: Setting parameter firsttimestep to 0
TCL: Setting parameter alchLambda to 0.1
Info: NONBONDED TABLE R-SQUARED SPACING: 0.0625
Info: NONBONDED TABLE SIZE: 705 POINTS
TCL: Setting parameter alchLambda2 to 0.15000000000000002
Info: NONBONDED TABLE R-SQUARED SPACING: 0.0625
Info: NONBONDED TABLE SIZE: 705 POINTS
TCL: Running for 1500000 steps
ETITLE: TS BOND ANGLE DIHED IMPRP ELECT VDW BOUNDARY MISC KINETIC TOTAL TEMP POTENTIAL TOTALAVG TEMPAVG PRESSURE GPRESSURE VOLUME PRESSAVG GPRESSAVG
ENERGY: 0 3.1561 5.6545 6.3604 0.0000 -10819.3988 1543.2706 0.0000 0.0000 1775.2154 -7485.7418 302.8747 -9260.9572 -7485.7418 302.8747 413.2315 505.1886 30369.6453 413.2315 505.1886
ENERGY: 300000 1.8980 5.6684 3.4624 0.0000 -10733.7373 1493.6658 0.0000 0.0000 1748.6525 -7480.3903 298.3428 -9229.0428 -7441.6521 301.5992 133.3813 207.0048 30715.3707 263.2863 328.1949
ENERGY: 600000 1.7082 4.9801 4.6896 0.0000 -10585.1161 1450.6020 0.0000 0.0000 1743.9092 -7379.2269 297.5335 -9123.1361 -7442.3604 299.5163 497.1368 643.3592 29895.4632 341.1814 417.6773
ENERGY: 900000 2.9561 8.3529 8.3078 0.0000 -10798.4826 1494.5788 0.0000 0.0000 1804.8768 -7479.4103 307.9354 -9284.2871 -7448.6589 299.7246 181.8214 178.8938 29941.8050 284.7528 351.8016
ENERGY: 1200000 4.6244 4.2428 5.6940 0.0000 -10854.7392 1543.0923 0.0000 0.0000 1839.7385 -7457.3473 313.8832 -9297.0858 -7448.3715 301.4785 840.6255 867.9074 29953.5206 242.0647 303.5226
ENERGY: 1500000 2.7931 7.7076 7.0741 0.0000 -10659.4989 1369.0409 0.0000 0.0000 1690.7120 -7582.1712 288.4574 -9272.8832 -7451.2603 300.7043 -922.4256 -804.8588 30331.1420 125.3641 191.2484
TCL: Running FEP window   4: Lambda1 0.15000000000000002 Lambda2 0.2    [dLambda 0.04999999999999999]
TCL: Setting parameter firsttimestep to 0
TCL: Setting parameter alchLambda to 0.15000000000000002
Info: NONBONDED TABLE R-SQUARED SPACING: 0.0625
Info: NONBONDED TABLE SIZE: 705 POINTS
TCL: Setting parameter alchLambda2 to 0.2
Info: NONBONDED TABLE R-SQUARED SPACING: 0.0625
Info: NONBONDED TABLE SIZE: 705 POINTS
TCL: Running for 1500000 steps
ETITLE: TS BOND ANGLE DIHED IMPRP ELECT VDW BOUNDARY MISC KINETIC TOTAL TEMP POTENTIAL TOTALAVG TEMPAVG PRESSURE GPRESSURE VOLUME PRESSAVG GPRESSAVG
ENERGY: 0 2.7931 7.7076 7.0741 0.0000 -10659.4983 1369.9453 0.0000 0.0000 1689.8446 -7582.1337 288.3094 -9271.9783 -7582.1337 288.3094 -891.8184 -797.1259 30331.1420 -891.8184 -797.1259
ENERGY: 300000 2.5374 4.6417 5.8307 0.0000 -10597.4781 1437.6894 0.0000 0.0000 1770.3728 -7376.4061 302.0485 -9146.7789 -7457.9669 297.8126 -73.8764 45.8041 30336.5537 -116.8324 -33.3370
ENERGY: 600000 3.0909 5.5362 4.9188 0.0000 -10772.8892 1480.0734 0.0000 0.0000 1740.5219 -7538.7479 296.9556 -9279.2698 -7444.0883 300.2666 125.5541 192.9344 30244.0324 -10.8296 54.3514
ENERGY: 900000 2.6943 8.5008 3.1418 0.0000 -10652.5008 1387.0533 0.0000 0.0000 1808.1282 -7442.9824 308.4901 -9251.1107 -7429.6458 300.8829 -549.5968 -497.8221 30262.9992 -112.1560 -52.9373
ENERGY: 1200000 5.3481 3.9016 7.6208 0.0000 -10749.6200 1505.7818 0.0000 0.0000 1800.0493 -7426.9182 307.1117 -9226.9676 -7431.1865 302.4585 427.2474 470.6268 30223.8457 -59.1260 3.3191
ENERGY: 1500000 1.6117 5.6154 6.0420 0.0000 -10705.2606 1505.0189 0.0000 0.0000 1791.0290 -7395.9435 305.5727 -9186.9726 -7436.4261 302.1012 802.8727 849.8679 30014.5894 115.5756 178.4310
TCL: Running FEP window   5: Lambda1 0.2    Lambda2 0.25   [dLambda 0.04999999999999999]
TCL: Setting parameter firsttimestep to 0
TCL: Setting parameter alchLambda to 0.2
Info: NONBONDED TABLE R-SQUARED SPACING: 0.0625
Info: NONBONDED TABLE SIZE: 705 POINTS
TCL: Setting parameter alchLambda2 to 0.25
Info: NONBONDED TABLE R-SQUARED SPACING: 0.0625
Info: NONBONDED TABLE SIZE: 705 POINTS
TCL: Running for 1500000 steps
ETITLE: TS BOND ANGLE DIHED IMPRP ELECT VDW BOUNDARY MISC KINETIC TOTAL TEMP POTENTIAL TOTALAVG TEMPAVG PRESSURE GPRESSURE VOLUME PRESSAVG GPRESSAVG
ENERGY: 0 1.6117 5.6154 6.0420 0.0000 -10705.2598 1506.9138 0.0000 0.0000 1790.1281 -7394.9488 305.4190 -9185.0769 -7394.9488 305.4190 774.9461 859.7163 30014.5894 774.9461 859.7163
ENERGY: 300000 2.0334 6.3955 6.6842 0.0000 -10767.3076 1498.1625 0.0000 0.0000 1833.3597 -7420.6723 312.7949 -9254.0319 -7427.4684 305.9931 402.6080 428.3579 29918.9027 228.1780 247.7307
ENERGY: 600000 5.5447 6.5805 6.4134 0.0000 -10612.9104 1397.8277 0.0000 0.0000 1791.2238 -7405.3204 305.6060 -9196.5442 -7408.8664 305.3138 -492.9439 -388.8705 30246.2876 88.4147 134.0842
ENERGY: 900000 4.5831 3.5153 4.4023 0.0000 -10670.5605 1457.0224 0.0000 0.0000 1760.4855 -7440.5519 300.3616 -9201.0374 -7423.9986 303.4766 97.4553 139.2173 29929.3768 109.4096 166.0166
ENERGY: 1200000 1.5724 7.5507 4.1637 0.0000 -10843.7127 1578.4524 0.0000 0.0000 1780.6860 -7471.2874 303.8081 -9251.9734 -7430.9253 303.2792 989.9759 1067.5068 29997.6340 160.9078 216.9622
ENERGY: 1500000 6.9553 3.3919 5.1833 0.0000 -10496.4056 1325.8946 0.0000 0.0000 1771.0849 -7383.8956 302.1700 -9154.9805 -7425.3512 302.8601 -884.0037 -774.6274 30044.8315 99.7975 157.8372
TCL: Running FEP window   6: Lambda1 0.25   Lambda2 0.3    [dLambda 0.04999999999999999]
TCL: Setting parameter firsttimestep to 0
TCL: Setting parameter alchLambda to 0.25
Info: NONBONDED TABLE R-SQUARED SPACING: 0.0625
Info: NONBONDED TABLE SIZE: 705 POINTS
TCL: Setting parameter alchLambda2 to 0.3
Info: NONBONDED TABLE R-SQUARED SPACING: 0.0625
Info: NONBONDED TABLE SIZE: 705 POINTS
TCL: Running for 1500000 steps
ETITLE: TS BOND ANGLE DIHED IMPRP ELECT VDW BOUNDARY MISC KINETIC TOTAL TEMP POTENTIAL TOTALAVG TEMPAVG PRESSURE GPRESSURE VOLUME PRESSAVG GPRESSAVG
ENERGY: 0 6.9553 3.3919 5.1833 0.0000 -10496.4053 1326.4946 0.0000 0.0000 1770.1954 -7384.1848 302.0183 -9154.3802 -7384.1848 302.0183 -840.6555 -768.8589 30044.8315 -840.6555 -768.8589
ENERGY: 300000 1.4647 3.1015 7.4146 0.0000 -10572.2285 1328.3483 0.0000 0.0000 1786.8491 -7445.0503 304.8596 -9231.8994 -7388.4225 304.1151 -958.8560 -880.6277 30427.7872 -413.6600 -338.6042
ENERGY: 600000 2.7918 5.6442 5.3549 0.0000 -10830.5109 1550.2034 0.0000 0.0000 1747.7760 -7518.7406 298.1932 -9266.5167 -7415.7137 302.3534 1019.1877 1117.2082 29734.3637 -133.4210 -67.3733
ENERGY: 900000 5.2775 6.6958 7.2875 0.0000 -10685.1852 1467.4903 0.0000 0.0000 1793.5589 -7404.8752 306.0044 -9198.4341 -7417.9813 302.7502 68.0418 125.9620 30233.4772 -230.0425 -160.1319
ENERGY: 1200000 3.7958 4.0563 6.1022 0.0000 -10641.1489 1431.6428 0.0000 0.0000 1712.6315 -7482.9203 292.1971 -9195.5518 -7409.8080 301.8015 -173.9501 -125.9335 30299.9810 -241.9506 -164.4426
ENERGY: 1500000 0.8587 5.6038 7.0091 0.0000 -10735.0626 1505.1559 0.0000 0.0000 1815.7136 -7400.7215 309.7843 -9216.4351 -7406.0274 302.9276 602.3487 667.4540 30207.7000 -183.1267 -97.9076
TCL: Running FEP window   7: Lambda1 0.3    Lambda2 0.35   [dLambda 0.04999999999999999]
TCL: Setting parameter firsttimestep to 0
TCL: Setting parameter alchLambda to 0.3
Info: NONBONDED TABLE R-SQUARED SPACING: 0.0625
Info: NONBONDED TABLE SIZE: 705 POINTS
TCL: Setting parameter alchLambda2 to 0.35
Info: NONBONDED TABLE R-SQUARED SPACING: 0.0625
Info: NONBONDED TABLE SIZE: 705 POINTS
TCL: Running for 1500000 steps
ETITLE: TS BOND ANGLE DIHED IMPRP ELECT VDW BOUNDARY MISC KINETIC TOTAL TEMP POTENTIAL TOTALAVG TEMPAVG PRESSURE GPRESSURE VOLUME PRESSAVG GPRESSAVG
ENERGY: 0 0.8587 5.6038 7.0091 0.0000 -10735.0633 1505.1228 0.0000 0.0000 1814.8653 -7401.6036 309.6395 -9216.4689 -7401.6036 309.6395 596.4709 673.3727 30207.7000 596.4709 673.3727
ENERGY: 300000 3.3133 8.2465 7.5436 0.0000 -10798.5106 1513.8879 0.0000 0.0000 1807.0133 -7458.5059 308.2999 -9265.5192 -7440.9875 304.0930 628.0391 691.4068 29998.9439 257.0238 326.6817
ENERGY: 600000 1.8540 4.4180 5.2538 0.0000 -10791.4151 1544.7533 0.0000 0.0000 1805.6270 -7429.5090 308.0633 -9235.1360 -7433.0839 304.7832 666.1246 746.8012 30115.5737 163.3534 227.5010
ENERGY: 900000 3.8600 3.1312 6.9569 0.0000 -10615.5438 1385.2481 0.0000 0.0000 1803.7057 -7412.6419 307.7355 -9216.3476 -7440.9147 304.2301 -485.7446 -365.0094 30376.7423 69.2128 134.2532
ENERGY: 1200000 6.2071 6.1726 8.0746 0.0000 -10726.5053 1519.9712 0.0000 0.0000 1720.8677 -7465.2121 293.6023 -9186.0798 -7441.7006 303.0333 620.6127 667.1810 29984.9927 24.6316 89.1397
ENERGY: 1500000 5.2192 8.0015 6.5792 0.0000 -10629.3130 1439.2831 0.0000 0.0000 1789.6887 -7380.5413 305.3441 -9170.2300 -7436.0466 302.7504 64.4201 100.2609 30107.2850 -42.4151 21.9770
TCL: Running FEP window   8: Lambda1 0.35   Lambda2 0.39999999999999997 [dLambda 0.04999999999999999]
TCL: Setting parameter firsttimestep to 0
TCL: Setting parameter alchLambda to 0.35
Info: NONBONDED TABLE R-SQUARED SPACING: 0.0625
Info: NONBONDED TABLE SIZE: 705 POINTS
TCL: Setting parameter alchLambda2 to 0.39999999999999997
Info: NONBONDED TABLE R-SQUARED SPACING: 0.0625
Info: NONBONDED TABLE SIZE: 705 POINTS
TCL: Running for 1500000 steps
ETITLE: TS BOND ANGLE DIHED IMPRP ELECT VDW BOUNDARY MISC KINETIC TOTAL TEMP POTENTIAL TOTALAVG TEMPAVG PRESSURE GPRESSURE VOLUME PRESSAVG GPRESSAVG
ENERGY: 0 5.2192 8.0015 6.5792 0.0000 -10629.3135 1438.8992 0.0000 0.0000 1788.7771 -7381.8373 305.1885 -9170.6144 -7381.8373 305.1885 17.4714 101.5188 30107.2850 17.4714 101.5188
ENERGY: 300000 3.0941 5.3134 5.2472 0.0000 -10461.9596 1317.5862 0.0000 0.0000 1730.5448 -7400.1739 295.2534 -9130.7188 -7398.8065 300.5466 -858.7280 -815.8091 30754.9920 -368.2480 -319.2789
ENERGY: 600000 3.4658 5.6262 3.7827 0.0000 -10677.5076 1494.4037 0.0000 0.0000 1783.0692 -7387.1599 304.2147 -9170.2291 -7394.6771 301.2255 710.8289 770.1050 30178.7448 95.3675 146.6379
ENERGY: 900000 1.4468 5.9422 4.9895 0.0000 -10672.9116 1413.7667 0.0000 0.0000 1758.9451 -7487.8212 300.0988 -9246.7663 -7427.0485 300.3179 -226.0863 -187.3156 30298.1310 -65.9593 -12.1363
ENERGY: 1200000 2.7781 6.2610 3.6397 0.0000 -10719.4181 1471.3771 0.0000 0.0000 1719.6531 -7515.7091 293.3951 -9235.3622 -7434.3123 300.1423 272.5437 282.9377 29886.3905 -49.1673 0.1521
ENERGY: 1500000 6.9921 3.6452 7.7337 0.0000 -10603.9869 1432.5582 0.0000 0.0000 1774.6905 -7378.3672 302.7852 -9153.0577 -7423.7996 301.4496 60.0865 103.5635 29938.4380 -32.8674 17.3872
TCL: Running FEP window   9: Lambda1 0.39999999999999997 Lambda2 0.44999999999999996 [dLambda 0.04999999999999999]
TCL: Setting parameter firsttimestep to 0
TCL: Setting parameter alchLambda to 0.39999999999999997
Info: NONBONDED TABLE R-SQUARED SPACING: 0.0625
Info: NONBONDED TABLE SIZE: 705 POINTS
TCL: Setting parameter alchLambda2 to 0.44999999999999996
Info: NONBONDED TABLE R-SQUARED SPACING: 0.0625
Info: NONBONDED TABLE SIZE: 705 POINTS
TCL: Running for 1500000 steps
ETITLE: TS BOND ANGLE DIHED IMPRP ELECT VDW BOUNDARY MISC KINETIC TOTAL TEMP POTENTIAL TOTALAVG TEMPAVG PRESSURE GPRESSURE VOLUME PRESSAVG GPRESSAVG
ENERGY: 0 6.9921 3.6452 7.7337 0.0000 -10603.9873 1432.6547 0.0000 0.0000 1773.8011 -7379.1604 302.6334 -9152.9615 -7379.1604 302.6334 31.1522 108.0614 29938.4380 31.1522 108.0614
ENERGY: 300000 1.4123 5.0417 4.7381 0.0000 -10703.2912 1475.1866 0.0000 0.0000 1757.8993 -7459.0132 299.9204 -9216.9125 -7426.5691 301.9363 231.7289 279.3455 30663.7905 54.0563 121.6701
ENERGY: 600000 5.8722 2.9190 6.4362 0.0000 -10561.3146 1336.4461 0.0000 0.0000 1723.2316 -7486.4096 294.0056 -9209.6412 -7453.7528 299.9835 -890.8345 -823.3630 30112.9153 -174.1022 -117.1936
ENERGY: 900000 4.8648 5.7858 5.0311 0.0000 -10537.1701 1354.7341 0.0000 0.0000 1740.9689 -7425.7854 297.0318 -9166.7543 -7448.2110 300.0436 -553.0113 -490.4261 30269.2297 -219.3073 -168.6880
ENERGY: 1200000 2.7831 6.4761 5.8815 0.0000 -10607.5802 1395.0836 0.0000 0.0000 1780.4936 -7416.8623 303.7753 -9197.3559 -7449.6138 300.3761 -327.2483 -211.7540 30334.9096 -191.4679 -138.2359
ENERGY: 1500000 4.0547 6.7201 6.0197 0.0000 -10676.7755 1422.4354 0.0000 0.0000 1745.8258 -7491.7197 297.8605 -9237.5455 -7455.6517 299.8070 -333.9596 -246.2032 30508.6115 -240.5520 -178.2988
TCL: Running FEP window  10: Lambda1 0.44999999999999996 Lambda2 0.49999999999999994 [dLambda 0.04999999999999999]
TCL: Setting parameter firsttimestep to 0
TCL: Setting parameter alchLambda to 0.44999999999999996
Info: NONBONDED TABLE R-SQUARED SPACING: 0.0625
Info: NONBONDED TABLE SIZE: 705 POINTS
TCL: Setting parameter alchLambda2 to 0.49999999999999994
Info: NONBONDED TABLE R-SQUARED SPACING: 0.0625
Info: NONBONDED TABLE SIZE: 705 POINTS
TCL: Running for 1500000 steps
ETITLE: TS BOND ANGLE DIHED IMPRP ELECT VDW BOUNDARY MISC KINETIC TOTAL TEMP POTENTIAL TOTALAVG TEMPAVG PRESSURE GPRESSURE VOLUME PRESSAVG GPRESSAVG
ENERGY: 0 4.0547 6.7201 6.0197 0.0000 -10676.7770 1422.3393 0.0000 0.0000 1744.9522 -7492.6908 297.7114 -9237.6431 -7492.6908 297.7114 -317.4916 -239.4927 30508.6115 -317.4916 -239.4927
ENERGY: 300000 3.7366 4.2947 7.0486 0.0000 -10743.8917 1522.0308 0.0000 0.0000 1829.1998 -7377.5813 312.0852 -9206.7811 -7432.3761 301.8093 695.7129 777.7279 29955.3250 168.4127 262.7762
ENERGY: 600000 1.3860 3.3662 4.1368 0.0000 -10595.1997 1405.8581 0.0000 0.0000 1823.3206 -7357.1320 311.0821 -9180.4525 -7407.3650 302.3968 -192.1056 -90.4234 30281.3124 202.0643 276.3570
ENERGY: 900000 4.2019 5.0262 5.2653 0.0000 -10674.7308 1445.4678 0.0000 0.0000 1771.0346 -7443.7349 302.1614 -9214.7696 -7423.5175 301.3096 201.4275 247.8169 29859.8501 128.6390 199.0195
ENERGY: 1200000 3.3198 2.4615 5.5161 0.0000 -10710.3619 1462.2002 0.0000 0.0000 1723.2182 -7513.6460 294.0033 -9236.8642 -7433.3625 300.7856 17.2075 35.7777 30335.4240 144.6295 216.8481
ENERGY: 1500000 4.1690 7.2539 4.6154 0.0000 -10566.7155 1355.6427 0.0000 0.0000 1775.0993 -7419.9352 302.8549 -9195.0345 -7440.2474 300.2979 -504.9807 -505.0003 30106.0671 91.0169 160.0203
TCL: Running FEP window  11: Lambda1 0.49999999999999994 Lambda2 0.5499999999999999 [dLambda 0.04999999999999999]
TCL: Setting parameter firsttimestep to 0
TCL: Setting parameter alchLambda to 0.49999999999999994
Info: NONBONDED TABLE R-SQUARED SPACING: 0.0625
Info: NONBONDED TABLE SIZE: 705 POINTS
TCL: Setting parameter alchLambda2 to 0.5499999999999999
Info: NONBONDED TABLE R-SQUARED SPACING: 0.0625
Info: NONBONDED TABLE SIZE: 705 POINTS
TCL: Running for 1500000 steps
ETITLE: TS BOND ANGLE DIHED IMPRP ELECT VDW BOUNDARY MISC KINETIC TOTAL TEMP POTENTIAL TOTALAVG TEMPAVG PRESSURE GPRESSURE VOLUME PRESSAVG GPRESSAVG
ENERGY: 0 4.1690 7.2539 4.6154 0.0000 -10566.7149 1355.8954 0.0000 0.0000 1774.2243 -7420.5570 302.7056 -9194.7812 -7420.5570 302.7056 -567.4728 -495.3902 30106.0671 -567.4728 -495.3902
ENERGY: 300000 1.3032 4.9470 12.2684 0.0000 -10675.3197 1415.2619 0.0000 0.0000 1728.1375 -7513.4016 294.8426 -9241.5392 -7463.5286 300.2836 -282.2799 -223.3389 30405.0007 -438.5939 -388.6489
ENERGY: 600000 2.1437 4.0617 5.6458 0.0000 -10709.5511 1460.1212 0.0000 0.0000 1727.7517 -7509.8270 294.7768 -9237.5787 -7451.9611 300.5091 270.7391 326.9959 30074.3373 -107.7127 -62.9299
ENERGY: 900000 2.5607 5.1132 5.9918 0.0000 -10751.1339 1443.4524 0.0000 0.0000 1808.7762 -7485.2397 308.6006 -9294.0159 -7470.9807 300.6852 -59.2779 -1.8058 30372.9586 -176.8779 -141.5425
ENERGY: 1200000 1.4541 4.2446 6.7194 0.0000 -10581.1818 1381.9148 0.0000 0.0000 1764.7815 -7422.0674 301.0946 -9186.8489 -7459.5178 301.0220 -409.8363 -278.9957 30429.6415 -234.5317 -186.0085
ENERGY: 1500000 5.5753 4.4935 8.6443 0.0000 -10702.6649 1517.6332 0.0000 0.0000 1756.9702 -7409.3484 299.7619 -9166.3187 -7453.7940 301.0060 635.2197 681.8254 30122.0032 -111.0661 -54.6823
TCL: Running FEP window  12: Lambda1 0.5499999999999999 Lambda2 0.6    [dLambda 0.050000000000000044]
TCL: Setting parameter firsttimestep to 0
TCL: Setting parameter alchLambda to 0.5499999999999999
Info: NONBONDED TABLE R-SQUARED SPACING: 0.0625
Info: NONBONDED TABLE SIZE: 705 POINTS
TCL: Setting parameter alchLambda2 to 0.6
Info: NONBONDED TABLE R-SQUARED SPACING: 0.0625
Info: NONBONDED TABLE SIZE: 705 POINTS
TCL: Running for 1500000 steps
ETITLE: TS BOND ANGLE DIHED IMPRP ELECT VDW BOUNDARY MISC KINETIC TOTAL TEMP POTENTIAL TOTALAVG TEMPAVG PRESSURE GPRESSURE VOLUME PRESSAVG GPRESSAVG
ENERGY: 0 5.5753 4.4935 8.6443 0.0000 -10703.1456 1518.0279 0.0000 0.0000 1756.1277 -7410.2769 299.6181 -9166.4046 -7410.2769 299.6181 597.7542 695.1366 30122.0032 597.7542 695.1366
ENERGY: 300000 1.5499 7.7375 4.9756 0.0000 -10833.0531 1499.8865 0.0000 0.0000 1777.3176 -7541.5860 303.2334 -9318.9036 -7456.2401 300.0779 260.6030 408.9715 29842.0965 -56.0291 20.3466
ENERGY: 600000 3.2678 6.0471 5.7380 0.0000 -10855.7863 1479.5784 0.0000 0.0000 1753.3508 -7607.8042 299.1444 -9361.1551 -7483.6567 300.0256 26.7695 209.1497 29696.1950 26.1548 113.0776
ENERGY: 900000 3.2301 2.8442 3.8798 0.0000 -10668.7676 1420.5008 0.0000 0.0000 1788.3912 -7449.9215 305.1227 -9238.3127 -7477.4997 300.5116 -159.7011 -154.8273 30228.1708 -46.6368 29.1242
ENERGY: 1200000 3.0451 4.0727 4.0112 0.0000 -10751.4755 1474.6697 0.0000 0.0000 1768.8582 -7496.8187 301.7901 -9265.6769 -7484.0275 299.3525 48.4629 127.7466 30100.8887 -74.3518 9.6065
ENERGY: 1500000 4.8785 4.5669 4.5881 0.0000 -10776.5754 1469.7003 0.0000 0.0000 1773.2438 -7519.5978 302.5384 -9292.8416 -7483.4666 300.1938 -80.1916 38.4226 30019.8926 -113.5457 -33.8395
TCL: Running FEP window  13: Lambda1 0.6    Lambda2 0.65   [dLambda 0.050000000000000044]
TCL: Setting parameter firsttimestep to 0
TCL: Setting parameter alchLambda to 0.6
Info: NONBONDED TABLE R-SQUARED SPACING: 0.0625
Info: NONBONDED TABLE SIZE: 705 POINTS
TCL: Setting parameter alchLambda2 to 0.65
Info: NONBONDED TABLE R-SQUARED SPACING: 0.0625
Info: NONBONDED TABLE SIZE: 705 POINTS
TCL: Running for 1500000 steps
ETITLE: TS BOND ANGLE DIHED IMPRP ELECT VDW BOUNDARY MISC KINETIC TOTAL TEMP POTENTIAL TOTALAVG TEMPAVG PRESSURE GPRESSURE VOLUME PRESSAVG GPRESSAVG
ENERGY: 0 4.8785 4.5669 4.5881 0.0000 -10776.6282 1469.1192 0.0000 0.0000 1772.4012 -7521.0743 302.3946 -9293.4755 -7521.0743 302.3946 -42.6531 41.7244 30019.8926 -42.6531 41.7244
ENERGY: 300000 4.3381 9.4592 4.2316 0.0000 -10691.2925 1454.6048 0.0000 0.0000 1749.8971 -7468.7616 298.5551 -9218.6587 -7482.6113 298.5340 -69.7840 48.9652 30551.2817 -376.9432 -292.1312
ENERGY: 600000 4.2323 5.9272 8.9045 0.0000 -10574.6193 1429.5495 0.0000 0.0000 1702.4840 -7423.5218 290.4658 -9126.0059 -7486.6234 295.8913 -7.2463 57.3956 30854.0874 -246.0139 -171.8631
ENERGY: 900000 1.8460 6.6494 5.1413 0.0000 -10716.0949 1477.3924 0.0000 0.0000 1732.2247 -7492.8411 295.5400 -9225.0658 -7483.4976 295.7804 5.8228 66.4165 30762.1442 -176.2255 -109.1775
ENERGY: 1200000 4.2577 3.4418 4.7661 0.0000 -10591.1279 1365.4861 0.0000 0.0000 1746.0176 -7467.1587 297.8932 -9213.1763 -7476.6810 297.0650 -593.1860 -522.5739 30323.8304 -162.9213 -90.5932
ENERGY: 1500000 4.5025 4.4290 5.0378 0.0000 -10638.7153 1412.9489 0.0000 0.0000 1732.0126 -7479.7846 295.5038 -9211.7972 -7475.2988 297.2103 -189.5359 -87.2309 30130.9405 -124.6640 -46.2682
TCL: Running FEP window  14: Lambda1 0.65   Lambda2 0.7000000000000001 [dLambda 0.050000000000000044]
TCL: Setting parameter firsttimestep to 0
TCL: Setting parameter alchLambda to 0.65
Info: NONBONDED TABLE R-SQUARED SPACING: 0.0625
Info: NONBONDED TABLE SIZE: 705 POINTS
TCL: Setting parameter alchLambda2 to 0.7000000000000001
Info: NONBONDED TABLE R-SQUARED SPACING: 0.0625
Info: NONBONDED TABLE SIZE: 705 POINTS
TCL: Running for 1500000 steps
ETITLE: TS BOND ANGLE DIHED IMPRP ELECT VDW BOUNDARY MISC KINETIC TOTAL TEMP POTENTIAL TOTALAVG TEMPAVG PRESSURE GPRESSURE VOLUME PRESSAVG GPRESSAVG
ENERGY: 0 4.5025 4.4290 5.0378 0.0000 -10639.2170 1412.7429 0.0000 0.0000 1731.1359 -7481.3689 295.3542 -9212.5048 -7481.3689 295.3542 -182.8025 -82.8258 30130.9405 -182.8025 -82.8258
ENERGY: 300000 4.1718 4.6811 7.3192 0.0000 -10661.3642 1447.6102 0.0000 0.0000 1807.0808 -7390.5012 308.3114 -9197.5819 -7467.4144 297.1004 270.3529 292.9233 30427.8724 79.3571 132.7899
ENERGY: 600000 2.9667 7.4284 6.1703 0.0000 -10817.6904 1560.0967 0.0000 0.0000 1818.4464 -7422.5819 310.2505 -9241.0283 -7462.9025 300.8887 1176.6210 1206.6431 30021.7097 118.6735 162.0752
ENERGY: 900000 3.3852 4.8251 6.1106 0.0000 -10695.0780 1456.6121 0.0000 0.0000 1763.2722 -7460.8729 300.8371 -9224.1451 -7462.9400 301.6084 41.6658 94.4530 30266.0370 196.9682 240.1904
ENERGY: 1200000 3.9849 3.7868 5.2749 0.0000 -10610.1753 1475.6866 0.0000 0.0000 1759.8044 -7361.6377 300.2454 -9121.4421 -7453.8860 301.2414 643.6987 706.2217 30243.2164 201.4582 253.2748
ENERGY: 1500000 2.2983 5.0755 8.3073 0.0000 -10710.4305 1498.3403 0.0000 0.0000 1819.4916 -7376.9175 310.4288 -9196.4091 -7453.3405 301.8838 671.2957 677.5765 30154.1633 259.2622 311.1883
TCL: Running FEP window  15: Lambda1 0.7000000000000001 Lambda2 0.7500000000000001 [dLambda 0.050000000000000044]
TCL: Setting parameter firsttimestep to 0
TCL: Setting parameter alchLambda to 0.7000000000000001
Info: NONBONDED TABLE R-SQUARED SPACING: 0.0625
Info: NONBONDED TABLE SIZE: 705 POINTS
TCL: Setting parameter alchLambda2 to 0.7500000000000001
Info: NONBONDED TABLE R-SQUARED SPACING: 0.0625
Info: NONBONDED TABLE SIZE: 705 POINTS
TCL: Running for 1500000 steps
ETITLE: TS BOND ANGLE DIHED IMPRP ELECT VDW BOUNDARY MISC KINETIC TOTAL TEMP POTENTIAL TOTALAVG TEMPAVG PRESSURE GPRESSURE VOLUME PRESSAVG GPRESSAVG
ENERGY: 0 2.2983 5.0755 8.3073 0.0000 -10711.1733 1498.0075 0.0000 0.0000 1818.6105 -7378.8742 310.2785 -9197.4848 -7378.8742 310.2785 596.4713 681.4029 30154.1633 596.4713 681.4029
ENERGY: 300000 5.0470 3.0014 4.3932 0.0000 -10658.4201 1466.3368 0.0000 0.0000 1716.1354 -7463.5063 292.7949 -9179.6417 -7447.5288 300.9031 -115.5729 -43.5024 30687.9483 175.8434 253.9927
ENERGY: 600000 4.2940 7.0919 4.9678 0.0000 -10776.5896 1469.1117 0.0000 0.0000 1776.6242 -7514.5001 303.1151 -9291.1243 -7461.6076 300.8834 86.4415 123.7001 29863.7326 66.0392 128.0972
ENERGY: 900000 5.6714 5.0212 5.4134 0.0000 -10679.5452 1427.6077 0.0000 0.0000 1716.6630 -7519.1685 292.8849 -9235.8315 -7465.3594 298.9105 -306.1073 -248.0089 30354.0378 62.7930 132.3827
ENERGY: 1200000 3.6998 8.6695 5.0516 0.0000 -10556.3479 1390.2652 0.0000 0.0000 1739.0448 -7409.6170 296.7036 -9148.6618 -7448.5104 300.1992 -366.2496 -268.5659 30542.6477 91.2371 167.2559
ENERGY: 1500000 2.6489 3.3237 7.2808 0.0000 -10622.7999 1418.1173 0.0000 0.0000 1716.4981 -7474.9311 292.8568 -9191.4291 -7451.6603 299.3501 -160.3325 -158.8988 30516.5430 77.8965 147.7273
TCL: Running FEP window  16: Lambda1 0.7500000000000001 Lambda2 0.8000000000000002 [dLambda 0.050000000000000044]
TCL: Setting parameter firsttimestep to 0
TCL: Setting parameter alchLambda to 0.7500000000000001
Info: NONBONDED TABLE R-SQUARED SPACING: 0.0625
Info: NONBONDED TABLE SIZE: 705 POINTS
TCL: Setting parameter alchLambda2 to 0.8000000000000002
Info: NONBONDED TABLE R-SQUARED SPACING: 0.0625
Info: NONBONDED TABLE SIZE: 705 POINTS
TCL: Running for 1500000 steps
ETITLE: TS BOND ANGLE DIHED IMPRP ELECT VDW BOUNDARY MISC KINETIC TOTAL TEMP POTENTIAL TOTALAVG TEMPAVG PRESSURE GPRESSURE VOLUME PRESSAVG GPRESSAVG
ENERGY: 0 2.6489 3.3237 7.2808 0.0000 -10623.5425 1417.6166 0.0000 0.0000 1715.6170 -7477.0554 292.7065 -9192.6725 -7477.0554 292.7065 -241.6613 -156.0446 30516.5430 -241.6613 -156.0446
ENERGY: 300000 3.3395 4.8166 5.2320 0.0000 -10628.9842 1452.7009 0.0000 0.0000 1746.8014 -7416.0938 298.0269 -9162.8952 -7443.1238 295.4767 32.5663 112.5202 30566.2639 24.1173 84.1870
ENERGY: 600000 3.2898 2.6148 5.4045 0.0000 -10506.8099 1309.7495 0.0000 0.0000 1749.3228 -7436.4285 298.4571 -9185.7513 -7441.2260 299.0921 -756.4213 -674.2348 30210.8367 -75.3859 -6.1835
ENERGY: 900000 3.3983 5.0094 7.1250 0.0000 -10564.7425 1373.3983 0.0000 0.0000 1780.0577 -7395.7538 303.7009 -9175.8115 -7430.0496 299.2103 -449.5309 -354.8115 30460.3089 -99.4647 -34.2470
ENERGY: 1200000 5.3007 4.5869 4.5160 0.0000 -10657.2189 1442.4318 0.0000 0.0000 1784.5818 -7415.8018 304.4728 -9200.3836 -7429.6355 299.1910 -175.2596 -70.8332 30317.9505 -101.8248 -37.5290
ENERGY: 1500000 1.8604 5.9550 4.6656 0.0000 -10500.5685 1360.5891 0.0000 0.0000 1787.1204 -7340.3779 304.9059 -9127.4984 -7429.0800 299.7396 -62.5937 -55.1053 30180.7945 -93.8614 -29.8530
TCL: Running FEP window  17: Lambda1 0.8000000000000002 Lambda2 0.8500000000000002 [dLambda 0.050000000000000044]
TCL: Setting parameter firsttimestep to 0
TCL: Setting parameter alchLambda to 0.8000000000000002
Info: NONBONDED TABLE R-SQUARED SPACING: 0.0625
Info: NONBONDED TABLE SIZE: 705 POINTS
TCL: Setting parameter alchLambda2 to 0.8500000000000002
Info: NONBONDED TABLE R-SQUARED SPACING: 0.0625
Info: NONBONDED TABLE SIZE: 705 POINTS
TCL: Running for 1500000 steps
ETITLE: TS BOND ANGLE DIHED IMPRP ELECT VDW BOUNDARY MISC KINETIC TOTAL TEMP POTENTIAL TOTALAVG TEMPAVG PRESSURE GPRESSURE VOLUME PRESSAVG GPRESSAVG
ENERGY: 0 1.8604 5.9550 4.6656 0.0000 -10501.8378 1360.3695 0.0000 0.0000 1786.2983 -7342.6891 304.7656 -9128.9873 -7342.6891 304.7656 -124.9337 -48.5929 30180.7945 -124.9337 -48.5929
ENERGY: 300000 2.5494 6.4337 5.3726 0.0000 -10644.2617 1440.5056 0.0000 0.0000 1732.3974 -7457.0030 295.5694 -9189.4004 -7425.8715 301.1641 182.7775 195.9805 29885.6931 147.5740 201.5474
ENERGY: 600000 3.3698 1.8272 4.2300 0.0000 -10688.9957 1433.6823 0.0000 0.0000 1735.9664 -7509.9201 296.1783 -9245.8865 -7474.3750 296.7449 -394.6193 -318.5416 30674.5207 159.1057 214.7214
ENERGY: 900000 3.9275 4.4828 7.3797 0.0000 -10594.2805 1442.7903 0.0000 0.0000 1709.8484 -7425.8519 291.7223 -9135.7002 -7459.2186 297.5688 294.0332 374.0836 30512.3980 212.2463 267.8049
ENERGY: 1200000 1.6398 9.6607 9.0190 0.0000 -10667.6087 1466.9015 0.0000 0.0000 1765.5514 -7414.8364 301.2259 -9180.3878 -7462.4940 297.1912 406.2671 495.2304 30191.9563 183.8082 245.5781
ENERGY: 1500000 2.3506 9.4994 4.9979 0.0000 -10663.6354 1461.2629 0.0000 0.0000 1729.4961 -7456.0284 295.0744 -9185.5245 -7465.0961 297.4954 320.9325 361.0710 30540.9745 133.3743 189.9176
TCL: Running FEP window  18: Lambda1 0.8500000000000002 Lambda2 0.9000000000000002 [dLambda 0.050000000000000044]
TCL: Setting parameter firsttimestep to 0
TCL: Setting parameter alchLambda to 0.8500000000000002
Info: NONBONDED TABLE R-SQUARED SPACING: 0.0625
Info: NONBONDED TABLE SIZE: 705 POINTS
TCL: Setting parameter alchLambda2 to 0.9000000000000002
Info: NONBONDED TABLE R-SQUARED SPACING: 0.0625
Info: NONBONDED TABLE SIZE: 705 POINTS
TCL: Running for 1500000 steps
ETITLE: TS BOND ANGLE DIHED IMPRP ELECT VDW BOUNDARY MISC KINETIC TOTAL TEMP POTENTIAL TOTALAVG TEMPAVG PRESSURE GPRESSURE VOLUME PRESSAVG GPRESSAVG
ENERGY: 0 2.3506 9.4994 4.9979 0.0000 -10664.8278 1461.0815 0.0000 0.0000 1728.6189 -7458.2794 294.9248 -9186.8983 -7458.2794 294.9248 278.6235 370.0239 30540.9745 278.6235 370.0239
ENERGY: 300000 3.2547 7.0265 8.3136 0.0000 -10609.7023 1400.7918 0.0000 0.0000 1773.4475 -7416.8683 302.5731 -9190.3158 -7443.5808 299.6097 -187.0473 -75.5107 30188.5042 35.5152 115.0288
ENERGY: 600000 2.7054 7.7851 8.9581 0.0000 -10634.3932 1445.9819 0.0000 0.0000 1722.3174 -7446.6453 293.8497 -9168.9627 -7435.4831 299.6609 -1.9646 79.0249 30473.4943 -56.9216 24.1214
ENERGY: 900000 2.6416 7.4226 8.9409 0.0000 -10640.1758 1343.3524 0.0000 0.0000 1850.6126 -7427.2057 315.7385 -9277.8183 -7427.6877 301.6752 -1021.3537 -894.6567 30643.1322 -63.4332 29.3521
ENERGY: 1200000 4.1189 3.6741 4.9990 0.0000 -10723.0201 1519.1711 0.0000 0.0000 1825.3440 -7365.7130 311.4273 -9191.0571 -7427.3306 303.1419 677.9208 807.4478 30207.7788 63.1990 157.0865
ENERGY: 1500000 3.0514 4.7362 6.1260 0.0000 -10556.6483 1363.2079 0.0000 0.0000 1744.0570 -7435.4698 297.5587 -9179.5268 -7429.7294 301.9339 -482.5904 -456.3896 30721.5079 18.2386 106.0905
TCL: Running FEP window  19: Lambda1 0.9000000000000002 Lambda2 0.9500000000000003 [dLambda 0.050000000000000044]
TCL: Setting parameter firsttimestep to 0
TCL: Setting parameter alchLambda to 0.9000000000000002
Info: NONBONDED TABLE R-SQUARED SPACING: 0.0625
Info: NONBONDED TABLE SIZE: 705 POINTS
TCL: Setting parameter alchLambda2 to 0.9500000000000003
Info: NONBONDED TABLE R-SQUARED SPACING: 0.0625
Info: NONBONDED TABLE SIZE: 705 POINTS
TCL: Running for 1500000 steps
ETITLE: TS BOND ANGLE DIHED IMPRP ELECT VDW BOUNDARY MISC KINETIC TOTAL TEMP POTENTIAL TOTALAVG TEMPAVG PRESSURE GPRESSURE VOLUME PRESSAVG GPRESSAVG
ENERGY: 0 3.0514 4.7362 6.1260 0.0000 -10557.5238 1363.4153 0.0000 0.0000 1743.1340 -7437.0608 297.4012 -9180.1948 -7437.0608 297.4012 -520.1325 -443.6379 30721.5079 -520.1325 -443.6379
ENERGY: 300000 3.0968 7.6597 4.6754 0.0000 -10434.1386 1327.8438 0.0000 0.0000 1712.9874 -7377.8755 292.2578 -9090.8629 -7449.9178 297.3418 -682.4046 -611.9080 30734.6973 -681.1617 -635.5376
ENERGY: 600000 2.4989 5.3631 5.0287 0.0000 -10697.9984 1447.0671 0.0000 0.0000 1784.6880 -7453.3525 304.4909 -9238.0405 -7461.2220 299.0477 38.4812 86.7835 30604.9049 -460.6213 -406.7187
ENERGY: 900000 3.0526 5.5015 7.2825 0.0000 -10732.1421 1422.3210 0.0000 0.0000 1713.3013 -7580.6832 292.3114 -9293.9845 -7453.4677 300.5265 -361.2678 -268.5327 30383.5362 -339.1730 -282.3771
ENERGY: 1200000 3.7036 5.0954 6.1513 0.0000 -10577.3850 1388.3499 0.0000 0.0000 1746.3268 -7427.7581 297.9460 -9174.0848 -7453.9689 299.5804 -545.9888 -470.8783 30973.0995 -276.1846 -224.2845
ENERGY: 1500000 3.6474 3.7048 4.6361 0.0000 -10791.5991 1500.9358 0.0000 0.0000 1706.5397 -7572.1353 291.1578 -9278.6750 -7470.7279 298.0884 550.0359 601.2533 30180.9739 -238.5034 -182.5642
TCL: Running FEP window  20: Lambda1 0.9500000000000003 Lambda2 1.0    [dLambda 0.04999999999999971]
TCL: Setting parameter firsttimestep to 0
TCL: Setting parameter alchLambda to 0.9500000000000003
Info: NONBONDED TABLE R-SQUARED SPACING: 0.0625
Info: NONBONDED TABLE SIZE: 705 POINTS
TCL: Setting parameter alchLambda2 to 1.0
Info: NONBONDED TABLE R-SQUARED SPACING: 0.0625
Info: NONBONDED TABLE SIZE: 705 POINTS
TCL: Running for 1500000 steps
ETITLE: TS BOND ANGLE DIHED IMPRP ELECT VDW BOUNDARY MISC KINETIC TOTAL TEMP POTENTIAL TOTALAVG TEMPAVG PRESSURE GPRESSURE VOLUME PRESSAVG GPRESSAVG
ENERGY: 0 3.6474 3.7048 4.6361 0.0000 -10793.2463 1502.4233 0.0000 0.0000 1705.6498 -7573.1848 291.0059 -9278.8346 -7573.1848 291.0059 540.2886 628.1363 30180.9739 540.2886 628.1363
ENERGY: 300000 4.0818 8.1180 3.1782 0.0000 -10522.3484 1354.4423 0.0000 0.0000 1783.3249 -7369.2031 304.2583 -9152.5280 -7450.8019 300.5475 -700.1055 -593.8898 31102.2723 87.8660 178.7715
ENERGY: 600000 1.5943 6.7482 7.6900 0.0000 -10587.5039 1469.1655 0.0000 0.0000 1728.4551 -7373.8509 294.8968 -9102.3059 -7441.5067 299.6281 881.8147 922.3017 30206.2677 231.1235 292.3837
ENERGY: 900000 2.9332 3.4584 7.9862 0.0000 -10570.7249 1351.1109 0.0000 0.0000 1753.7824 -7451.4537 299.2180 -9205.2361 -7440.7727 300.0986 -466.6722 -427.1471 30302.7018 88.4863 148.8655
ENERGY: 1200000 2.3735 8.8934 7.5728 0.0000 -10650.3717 1419.5629 0.0000 0.0000 1748.5309 -7463.4382 298.3220 -9211.9691 -7434.0444 300.3848 148.3091 166.9144 30047.9759 59.4839 121.6607
ENERGY: 1500000 3.4022 3.8006 4.4684 0.0000 -10590.1888 1421.9318 0.0000 0.0000 1711.8963 -7444.6895 292.0717 -9156.5857 -7440.7342 300.0756 -58.6619 77.3769 30478.5035 16.6518 80.4223
TCL: Exiting due to exit command.
