Info: SIMULATION PARAMETERS:
Info: TIMESTEP               2
Info: NUMBER OF STEPS        0
Info: STEPS PER CYCLE        10
Info: PERIODIC CELL BASIS 1  32.0062 0 0
Info: PERIODIC CELL BASIS 2  0 29.9664 0
Info: PERIODIC CELL BASIS 3  0 0 31.2461
Info: PERIODIC CELL CENTER   0 0 0
Info: WRAPPING WATERS AROUND PERIODIC BOUNDARIES ON OUTPUT.
Info: WRAPPING ALL CLUSTERS AROUND PERIODIC BOUNDARIES ON OUTPUT.
Info: FIRST LDB TIMESTEP     50
Info: LAST LDB TIMESTEP     -1
Info: HOM BACKGROUND SCALING 1
Info: PME BACKGROUND SCALING 1
Info: MIN ATOMS PER PATCH    40
Info: EMPTY PATCH LOAD       40 ATOMS
Info: VELOCITY FILE          mobley_7988076_equil.vel
Info: CENTER OF MASS MOVING INITIALLY? NO
Info: DIELECTRIC             1
Info: EXCLUDE                SCALED ONE-FOUR
Info: 1-4 ELECTROSTATICS SCALED BY 0.833333
Info: MODIFIED 1-4 VDW PARAMETERS WILL BE USED
Info: DCD FILENAME           mobley_7988076_prod.dcd
Info: DCD FREQUENCY          100000
Info: DCD FIRST STEP         100000
Info: DCD FILE WILL CONTAIN UNIT CELL DATA
Info: XST FILENAME           mobley_7988076_prod.xst
Info: XST FREQUENCY          100000
Info: NO VELOCITY DCD OUTPUT
Info: NO FORCE DCD OUTPUT
Info: OUTPUT FILENAME        mobley_7988076_prod
Info: BINARY OUTPUT FILES WILL BE USED
Info: RESTART FILENAME       mobley_7988076_prod.restart
Info: RESTART FREQUENCY      100000
Info: BINARY RESTART FILES WILL BE USED
Info: CUTOFF                 9
Info: PAIRLIST DISTANCE      11
Info: PAIRLIST SHRINK RATE   0.01
Info: PAIRLIST GROW RATE     0.01
Info: PAIRLIST TRIGGER       0.3
Info: PAIRLISTS PER CYCLE    2
Info: PAIRLISTS ENABLED
Info: MARGIN                 2
Info: HYDROGEN GROUP CUTOFF  2.5
Info: PATCH DIMENSION        15.5
Info: ENERGY OUTPUT STEPS    100000
Info: ENERGY EVALUATION STEPS    100000
Info: OUTPUT ENERGY PRECISION 4
Info: CROSSTERM ENERGY INCLUDED IN DIHEDRAL
Info: TIMING OUTPUT STEPS    1000000
Info: PRESSURE OUTPUT STEPS  100000
Info: ALCHEMICAL FEP ON
Info: FEP CURRENT LAMBDA VALUE     1
Info: FEP COMPARISON LAMBDA VALUE  0.95
Info: FEP INTRA-ALCHEMICAL NON-BONDED INTERACTIONS WILL BE RETAINED
Info: FEP INTRA-ALCHEMICAL BONDED INTERACTIONS WILL BE RETAINED
Info: FEP VDW SHIFTING COEFFICIENT 5
Info: FEP ELEC. ACTIVE FOR ANNIHILATED PARTICLES BETWEEN LAMBDA = 0 AND LAMBDA = 0.5
Info: FEP ELEC. ACTIVE FOR EXNIHILATED PARTICLES BETWEEN LAMBDA = 0.5 AND LAMBDA = 1
Info: FEP VDW ACTIVE FOR ANNIHILATED PARTICLES BETWEEN LAMBDA = 0 AND LAMBDA = 1
Info: FEP VDW ACTIVE FOR EXNIHILATED PARTICLES BETWEEN LAMBDA = 0 AND LAMBDA = 1
Info: FEP BOND ACTIVE FOR ANNIHILATED PARTICLES BETWEEN LAMBDA = 1 AND LAMBDA = 1
Info: FEP BOND ACTIVE FOR EXNIHILATED PARTICLES BETWEEN LAMBDA = 0 AND LAMBDA = 0
Info: LANGEVIN DYNAMICS ACTIVE
Info: LANGEVIN TEMPERATURE   300
Info: LANGEVIN USING BBK INTEGRATOR
Info: LANGEVIN DAMPING COEFFICIENT IS 1 INVERSE PS
Info: LANGEVIN DYNAMICS APPLIED TO HYDROGENS
Info: LANGEVIN PISTON PRESSURE CONTROL ACTIVE
Info:        TARGET PRESSURE IS 1.01325 BAR
Info:     OSCILLATION PERIOD IS 50 FS
Info:             DECAY TIME IS 25 FS
Info:     PISTON TEMPERATURE IS 300 K
Info:       PRESSURE CONTROL IS GROUP-BASED
Info:    INITIAL STRAIN RATE IS -0.000363012 -0.000363012 -0.000363012
Info:       CELL FLUCTUATION IS ISOTROPIC
Info: PARTICLE MESH EWALD (PME) ACTIVE
Info: PME TOLERANCE               1e-06
Info: PME EWALD COEFFICIENT       0.348832
Info: PME INTERPOLATION ORDER     4
Info: PME GRID DIMENSIONS         36 32 32
Info: PME MAXIMUM GRID SPACING    1
Info: PME CALCULATION WILL BE PERFORMED ON GPU
Info: FULL ELECTROSTATIC EVALUATION FREQUENCY      2
Info: USING VERLET I (r-RESPA) MTS SCHEME.
Info: C1 SPLITTING OF LONG RANGE ELECTROSTATICS
Info: PLACING ATOMS IN PATCHES BY HYDROGEN GROUPS
Info: RIGID BONDS TO HYDROGEN : ALL
Info:         ERROR TOLERANCE : 1e-08
Info:          MAX ITERATIONS : 100
Info: RIGID WATER USING SETTLE ALGORITHM
Info: RANDOM NUMBER SEED     1743759048
Info: USE HYDROGEN BONDS?    NO
Info: Using AMBER format force field!
Info: AMBER PARM FILE        mobley_7988076.prmtop
Info: COORDINATE PDB         mobley_7988076.pdb
Info: Exclusions will be read from PARM file!
Info: SCNB (VDW SCALING)     2
Info: USING ARITHMETIC MEAN TO COMBINE L-J SIGMA PARAMETERS
Info: BINARY COORDINATES     mobley_7988076_equil.coor
Info: SUMMARY OF PARAMETERS:
Info: 9 BONDS
Info: 8 ANGLES
Info:   8 HARMONIC
Info:   0 COSINE-BASED
Info: 5 DIHEDRAL
Info: 0 IMPROPER
Info: 0 CROSSTERM
Info: 0 VDW
Info: 28 VDW_PAIRS
Info: 0 NBTHOLE_PAIRS
Info: To read alchdata from file: mobley_7988076.pdb
Info: To read alchflag data from column: 5
Info: STRUCTURE SUMMARY:
Info: 2952 ATOMS
Info: 2952 BONDS
Info: 22 ANGLES
Info: 37 DIHEDRALS
Info: 0 IMPROPERS
Info: 0 CROSSTERMS
Info: 3001 EXCLUSIONS
Info: 2943 RIGID BONDS
Info: ALCH: 0 ATOMS TO DISAPPEAR IN FINAL STATE
Info: ALCH: 15 ATOMS TO APPEAR IN FINAL STATE
Info: 5913 DEGREES OF FREEDOM
Info: 988 HYDROGEN GROUPS
Info: 3 ATOMS IN LARGEST HYDROGEN GROUP
Info: 988 MIGRATION GROUPS
Info: 3 ATOMS IN LARGEST MIGRATION GROUP
Info: TOTAL MASS = 17759.8 amu
Info: TOTAL CHARGE = -2.18861e-08 e
Info: MASS DENSITY = 0.984086 g/cm^3
Info: ATOM DENSITY = 0.0985037 atoms/A^3
Info: ADDED 0 IMPLICIT EXCLUSIONS
Info: NONBONDED TABLE R-SQUARED SPACING: 0.0625
Info: NONBONDED TABLE SIZE: 705 POINTS
Info: REMOVING COM VELOCITY 0.106881 -0.0393435 0.0615538
Info: Use 3D box decompostion in PME FFT.
Info: Updated CUDA force table with 4096 elements.
Info: Updated CUDA LJ table with 7 x 7 elements.
Info: Found 17 unique exclusion lists needing 36 bytes
TCL: Running for 1500000 steps
ETITLE: TS BOND ANGLE DIHED IMPRP ELECT VDW BOUNDARY MISC KINETIC TOTAL TEMP POTENTIAL TOTALAVG TEMPAVG PRESSURE GPRESSURE VOLUME PRESSAVG GPRESSAVG
ENERGY: 0 3.7309 6.4328 3.5732 0.0000 -10777.5433 1455.3365 0.0000 0.0000 1756.2034 -7552.2666 298.9216 -9308.4699 -7552.2666 298.9216 267.6785 329.7185 29968.4274 267.6785 329.7185
ENERGY: 300000 2.5802 5.5197 1.5162 0.0000 -10672.5045 1419.3122 0.0000 0.0000 1783.9487 -7459.6276 303.6441 -9243.5763 -7536.5967 296.3804 36.5842 34.7894 30504.8370 203.1079 249.9349
ENERGY: 600000 2.1784 1.6435 1.6831 0.0000 -10754.7140 1436.3444 0.0000 0.0000 1704.4261 -7608.4386 290.1086 -9312.8646 -7527.4976 297.7754 -71.7164 25.6641 30160.9842 125.5295 180.2496
ENERGY: 900000 3.3015 3.2682 0.7701 0.0000 -10752.1297 1439.8900 0.0000 0.0000 1722.1299 -7582.7699 293.1220 -9304.8999 -7550.2965 296.9264 123.9979 226.0003 29811.9064 131.8310 190.6371
ENERGY: 1200000 2.0269 2.7665 7.0971 0.0000 -10650.2763 1347.0626 0.0000 0.0000 1769.5796 -7521.7436 301.1984 -9291.3231 -7541.9607 298.1130 -718.6556 -628.7531 30276.3052 28.4399 92.0016
ENERGY: 1500000 2.5306 5.6581 4.6845 0.0000 -10618.8626 1342.1925 0.0000 0.0000 1755.2507 -7508.5462 298.7595 -9263.7969 -7533.7778 298.3894 -712.5329 -712.0263 30502.1930 -69.8972 -12.1007
TCL: Running FEP window   2: Lambda1 0.95   Lambda2 0.8999999999999999 [dLambda -0.050000000000000044]
TCL: Setting parameter firsttimestep to 0
TCL: Setting parameter alchLambda to 0.95
Info: NONBONDED TABLE R-SQUARED SPACING: 0.0625
Info: NONBONDED TABLE SIZE: 705 POINTS
TCL: Setting parameter alchLambda2 to 0.8999999999999999
Info: NONBONDED TABLE R-SQUARED SPACING: 0.0625
Info: NONBONDED TABLE SIZE: 705 POINTS
TCL: Running for 1500000 steps
ETITLE: TS BOND ANGLE DIHED IMPRP ELECT VDW BOUNDARY MISC KINETIC TOTAL TEMP POTENTIAL TOTALAVG TEMPAVG PRESSURE GPRESSURE VOLUME PRESSAVG GPRESSAVG
ENERGY: 0 2.5306 5.6581 4.6845 0.0000 -10616.8784 1341.9665 0.0000 0.0000 1754.3909 -7507.6479 298.6131 -9262.0387 -7507.6479 298.6131 -807.2303 -719.8333 30502.1930 -807.2303 -719.8333
ENERGY: 300000 2.5053 4.2582 3.9114 0.0000 -10640.6960 1382.9799 0.0000 0.0000 1753.5312 -7493.5100 298.4668 -9247.0412 -7482.9615 302.9910 -526.2849 -469.9202 30534.5200 -498.1932 -424.1099
ENERGY: 600000 1.0929 2.3441 2.3350 0.0000 -10624.6471 1351.6735 0.0000 0.0000 1785.4634 -7481.7382 303.9019 -9267.2015 -7468.1998 302.9185 -696.6648 -706.1825 30683.6485 -272.5882 -230.6495
ENERGY: 900000 1.4236 5.0939 1.9556 0.0000 -10632.2958 1367.1704 0.0000 0.0000 1744.1400 -7512.5123 296.8683 -9256.6522 -7479.0190 302.7431 -613.8160 -592.7713 30458.6889 -373.5186 -327.6323
ENERGY: 1200000 1.2254 2.7928 5.0350 0.0000 -10640.3559 1381.7759 0.0000 0.0000 1722.3415 -7527.1854 293.1580 -9249.5269 -7492.6123 301.4699 -280.3750 -173.3327 30322.4856 -343.2699 -287.4802
ENERGY: 1500000 3.2921 2.6441 1.1804 0.0000 -10796.0896 1452.9089 0.0000 0.0000 1779.9337 -7556.1304 302.9607 -9336.0641 -7486.7055 302.0466 58.3228 81.1411 30421.3914 -265.6711 -208.9731
TCL: Running FEP window   3: Lambda1 0.8999999999999999 Lambda2 0.8499999999999999 [dLambda -0.050000000000000044]
TCL: Setting parameter firsttimestep to 0
TCL: Setting parameter alchLambda to 0.8999999999999999
Info: NONBONDED TABLE R-SQUARED SPACING: 0.0625
Info: NONBONDED TABLE SIZE: 705 POINTS
TCL: Setting parameter alchLambda2 to 0.8499999999999999
Info: NONBONDED TABLE R-SQUARED SPACING: 0.0625
Info: NONBONDED TABLE SIZE: 705 POINTS
TCL: Running for 1500000 steps
ETITLE: TS BOND ANGLE DIHED IMPRP ELECT VDW BOUNDARY MISC KINETIC TOTAL TEMP POTENTIAL TOTALAVG TEMPAVG PRESSURE GPRESSURE VOLUME PRESSAVG GPRESSAVG
ENERGY: 0 3.2921 2.6441 1.1804 0.0000 -10793.2556 1451.4559 0.0000 0.0000 1779.0328 -7555.6502 302.8074 -9334.6830 -7555.6502 302.8074 -24.9674 56.9186 30421.3914 -24.9674 56.9186
ENERGY: 300000 2.8334 5.2132 1.5858 0.0000 -10680.4271 1384.5781 0.0000 0.0000 1755.6421 -7530.5745 298.8261 -9286.2166 -7502.4230 302.0634 -530.3905 -452.6896 30428.9440 50.0630 114.4388
ENERGY: 600000 2.2059 3.8318 4.2609 0.0000 -10493.8456 1309.5198 0.0000 0.0000 1734.1518 -7439.8753 295.1682 -9174.0272 -7513.1871 299.1419 -938.0160 -835.1000 30865.0290 -251.9373 -177.7544
ENERGY: 900000 0.8912 4.4133 5.2479 0.0000 -10729.2344 1412.2825 0.0000 0.0000 1740.5707 -7565.8289 296.2608 -9306.3996 -7513.2372 298.8297 -574.2919 -438.7414 30652.2015 -261.4094 -171.1852
ENERGY: 1200000 3.6148 4.8231 3.2369 0.0000 -10681.3947 1387.8049 0.0000 0.0000 1748.8933 -7533.0216 297.6774 -9281.9149 -7509.0605 298.3153 -653.4522 -515.7639 30252.2227 -167.8375 -83.4549
ENERGY: 1500000 8.4364 2.0270 1.4298 0.0000 -10791.2882 1480.0988 0.0000 0.0000 1781.2734 -7518.0228 303.1887 -9299.2962 -7511.1954 298.8881 105.9817 193.4756 30101.7573 -195.9170 -109.6800
TCL: Running FEP window   4: Lambda1 0.8499999999999999 Lambda2 0.7999999999999998 [dLambda -0.050000000000000044]
TCL: Setting parameter firsttimestep to 0
TCL: Setting parameter alchLambda to 0.8499999999999999
Info: NONBONDED TABLE R-SQUARED SPACING: 0.0625
Info: NONBONDED TABLE SIZE: 705 POINTS
TCL: Setting parameter alchLambda2 to 0.7999999999999998
Info: NONBONDED TABLE R-SQUARED SPACING: 0.0625
Info: NONBONDED TABLE SIZE: 705 POINTS
TCL: Running for 1500000 steps
ETITLE: TS BOND ANGLE DIHED IMPRP ELECT VDW BOUNDARY MISC KINETIC TOTAL TEMP POTENTIAL TOTALAVG TEMPAVG PRESSURE GPRESSURE VOLUME PRESSAVG GPRESSAVG
ENERGY: 0 8.4364 2.0270 1.4298 0.0000 -10788.6961 1479.6596 0.0000 0.0000 1780.3843 -7516.7590 303.0374 -9297.1433 -7516.7590 303.0374 91.0387 186.8604 30101.7573 91.0387 186.8604
ENERGY: 300000 2.6011 0.7653 3.0074 0.0000 -10750.6823 1461.1455 0.0000 0.0000 1816.0771 -7467.0858 309.1127 -9283.1629 -7487.2139 303.2122 -2.7768 43.7898 30711.0447 -42.4777 27.0656
ENERGY: 600000 2.1635 2.0235 2.7153 0.0000 -10648.6623 1440.9069 0.0000 0.0000 1803.2364 -7397.6166 306.9271 -9200.8530 -7481.5860 303.9870 216.9476 293.8496 30184.4820 -76.0250 8.4202
ENERGY: 900000 2.7603 2.0768 3.4740 0.0000 -10838.4874 1527.0750 0.0000 0.0000 1763.4653 -7539.6361 300.1577 -9303.1014 -7498.7957 302.4113 444.5657 504.0263 30501.8304 4.8294 84.9661
ENERGY: 1200000 4.9292 2.8848 2.1077 0.0000 -10552.7148 1298.6496 0.0000 0.0000 1688.9626 -7555.1809 287.4766 -9244.1436 -7505.5252 300.3488 -1235.6258 -1216.2019 30588.5101 -181.5354 -109.1292
ENERGY: 1500000 1.8311 4.5877 4.6518 0.0000 -10785.4001 1564.8121 0.0000 0.0000 1760.8990 -7448.6184 299.7209 -9209.5175 -7500.4501 299.8237 1372.0975 1445.5219 30091.9993 -1.1383 75.1580
TCL: Running FEP window   5: Lambda1 0.7999999999999998 Lambda2 0.7499999999999998 [dLambda -0.050000000000000044]
TCL: Setting parameter firsttimestep to 0
TCL: Setting parameter alchLambda to 0.7999999999999998
Info: NONBONDED TABLE R-SQUARED SPACING: 0.0625
Info: NONBONDED TABLE SIZE: 705 POINTS
TCL: Setting parameter alchLambda2 to 0.7499999999999998
Info: NONBONDED TABLE R-SQUARED SPACING: 0.0625
Info: NONBONDED TABLE SIZE: 705 POINTS
TCL: Running for 1500000 steps
ETITLE: TS BOND ANGLE DIHED IMPRP ELECT VDW BOUNDARY MISC KINETIC TOTAL TEMP POTENTIAL TOTALAVG TEMPAVG PRESSURE GPRESSURE VOLUME PRESSAVG GPRESSAVG
ENERGY: 0 1.8311 4.5877 4.6518 0.0000 -10782.9258 1564.6479 0.0000 0.0000 1760.0099 -7447.1974 299.5695 -9207.2073 -7447.1974 299.5695 1358.6158 1438.7524 30091.9993 1358.6158 1438.7524
ENERGY: 300000 3.8748 2.0218 4.6270 0.0000 -10742.5584 1484.9799 0.0000 0.0000 1740.2971 -7506.7578 296.2142 -9247.0549 -7470.6324 300.2764 424.6254 496.1800 30379.4057 218.5871 300.3540
ENERGY: 600000 1.8958 2.6785 4.2227 0.0000 -10870.6513 1529.5710 0.0000 0.0000 1783.8274 -7548.4559 303.6235 -9332.2833 -7503.9079 298.5054 813.2395 880.4579 30066.6008 227.3949 294.8304
ENERGY: 900000 3.2462 2.8380 5.1254 0.0000 -10697.4635 1387.7260 0.0000 0.0000 1708.7015 -7589.8265 290.8364 -9298.5279 -7509.0845 297.3490 -560.7068 -510.3593 30455.7929 47.0478 112.8965
ENERGY: 1200000 5.1569 3.3761 1.3560 0.0000 -10642.2410 1383.6751 0.0000 0.0000 1734.0090 -7514.6680 295.1439 -9248.6770 -7501.5112 297.9754 -722.2209 -645.6609 30657.1046 -115.0634 -51.2069
ENERGY: 1500000 3.4570 3.3959 3.5442 0.0000 -10695.7880 1426.0914 0.0000 0.0000 1793.4110 -7465.8886 305.2547 -9259.2995 -7498.5590 299.0503 -26.9261 34.3910 30263.1921 -120.5898 -56.4057
TCL: Running FEP window   6: Lambda1 0.7499999999999998 Lambda2 0.6999999999999997 [dLambda -0.050000000000000044]
TCL: Setting parameter firsttimestep to 0
TCL: Setting parameter alchLambda to 0.7499999999999998
Info: NONBONDED TABLE R-SQUARED SPACING: 0.0625
Info: NONBONDED TABLE SIZE: 705 POINTS
TCL: Setting parameter alchLambda2 to 0.6999999999999997
Info: NONBONDED TABLE R-SQUARED SPACING: 0.0625
Info: NONBONDED TABLE SIZE: 705 POINTS
TCL: Running for 1500000 steps
ETITLE: TS BOND ANGLE DIHED IMPRP ELECT VDW BOUNDARY MISC KINETIC TOTAL TEMP POTENTIAL TOTALAVG TEMPAVG PRESSURE GPRESSURE VOLUME PRESSAVG GPRESSAVG
ENERGY: 0 3.4570 3.3959 3.5442 0.0000 -10693.6594 1424.7704 0.0000 0.0000 1792.5556 -7465.9362 305.1091 -9258.4918 -7465.9362 305.1091 -67.8423 17.0272 30263.1921 -67.8423 17.0272
ENERGY: 300000 3.8111 5.8523 6.1363 0.0000 -10557.6421 1300.9203 0.0000 0.0000 1700.6849 -7540.2372 289.4719 -9240.9221 -7526.3995 299.3247 -1366.1657 -1286.8648 31043.4404 -251.7221 -171.7447
ENERGY: 600000 2.0473 2.9464 5.3616 0.0000 -10646.1414 1402.3897 0.0000 0.0000 1726.3680 -7507.0283 293.8434 -9233.3963 -7507.6678 297.2785 -246.9568 -161.7946 30230.5316 -91.8772 -16.5853
ENERGY: 900000 4.3947 4.7947 3.9085 0.0000 -10647.7061 1385.6028 0.0000 0.0000 1758.4627 -7490.5428 299.3062 -9249.0054 -7501.6608 297.9750 -240.3472 -225.1196 30219.1426 -25.9707 35.5479
ENERGY: 1200000 3.3643 3.8662 5.0623 0.0000 -10577.2315 1388.8410 0.0000 0.0000 1780.7511 -7395.3467 303.0999 -9176.0978 -7490.5395 300.0610 -208.6034 -127.0202 30487.1874 -58.0911 1.9647
ENERGY: 1500000 3.1726 3.1618 6.5584 0.0000 -10799.1927 1521.4467 0.0000 0.0000 1777.0300 -7487.8232 302.4665 -9264.8532 -7493.7731 300.3345 860.3239 898.0906 30067.2648 -18.2255 39.3721
TCL: Running FEP window   7: Lambda1 0.6999999999999997 Lambda2 0.6499999999999997 [dLambda -0.050000000000000044]
TCL: Setting parameter firsttimestep to 0
TCL: Setting parameter alchLambda to 0.6999999999999997
Info: NONBONDED TABLE R-SQUARED SPACING: 0.0625
Info: NONBONDED TABLE SIZE: 705 POINTS
TCL: Setting parameter alchLambda2 to 0.6499999999999997
Info: NONBONDED TABLE R-SQUARED SPACING: 0.0625
Info: NONBONDED TABLE SIZE: 705 POINTS
TCL: Running for 1500000 steps
ETITLE: TS BOND ANGLE DIHED IMPRP ELECT VDW BOUNDARY MISC KINETIC TOTAL TEMP POTENTIAL TOTALAVG TEMPAVG PRESSURE GPRESSURE VOLUME PRESSAVG GPRESSAVG
ENERGY: 0 3.1726 3.1618 6.5584 0.0000 -10796.9900 1521.1532 0.0000 0.0000 1776.1674 -7486.7767 302.3197 -9262.9441 -7486.7767 302.3197 802.1234 891.4044 30067.2648 802.1234 891.4044
ENERGY: 300000 3.3147 4.5984 2.8339 0.0000 -10822.2895 1526.0762 0.0000 0.0000 1809.6596 -7475.8067 308.0203 -9285.4664 -7484.6310 303.4442 983.2652 1052.7041 29894.3798 426.2464 485.7591
ENERGY: 600000 3.9446 4.5036 2.6836 0.0000 -10754.9809 1429.8467 0.0000 0.0000 1760.7654 -7553.2371 299.6981 -9314.0024 -7500.8504 302.2847 -609.7611 -504.9310 30675.3098 118.5637 196.9769
ENERGY: 900000 6.1528 5.3040 1.2456 0.0000 -10608.4034 1395.8394 0.0000 0.0000 1745.1303 -7454.7312 297.0369 -9199.8616 -7496.9169 300.4467 -235.5386 -160.4486 30556.1132 -52.1764 18.5507
ENERGY: 1200000 1.7893 2.0360 5.1170 0.0000 -10712.2536 1428.2860 0.0000 0.0000 1734.8716 -7540.1537 295.2908 -9275.0253 -7496.5401 300.2080 -172.7950 -134.2002 30534.6047 -143.3014 -68.9517
ENERGY: 1500000 2.5633 3.3770 1.9216 0.0000 -10655.1088 1401.5829 0.0000 0.0000 1859.6189 -7386.0453 316.5239 -9245.6641 -7487.0371 302.0228 -176.4218 -164.0237 30433.7546 -67.4808 -5.7621
TCL: Running FEP window   8: Lambda1 0.6499999999999997 Lambda2 0.5999999999999996 [dLambda -0.050000000000000044]
TCL: Setting parameter firsttimestep to 0
TCL: Setting parameter alchLambda to 0.6499999999999997
Info: NONBONDED TABLE R-SQUARED SPACING: 0.0625
Info: NONBONDED TABLE SIZE: 705 POINTS
TCL: Setting parameter alchLambda2 to 0.5999999999999996
Info: NONBONDED TABLE R-SQUARED SPACING: 0.0625
Info: NONBONDED TABLE SIZE: 705 POINTS
TCL: Running for 1500000 steps
ETITLE: TS BOND ANGLE DIHED IMPRP ELECT VDW BOUNDARY MISC KINETIC TOTAL TEMP POTENTIAL TOTALAVG TEMPAVG PRESSURE GPRESSURE VOLUME PRESSAVG GPRESSAVG
ENERGY: 0 2.5632 3.3770 1.9216 0.0000 -10652.5152 1401.5623 0.0000 0.0000 1858.7326 -7384.3585 316.3730 -9243.0911 -7384.3585 316.3730 -241.2007 -168.8452 30433.7546 -241.2007 -168.8452
ENERGY: 300000 2.7331 3.1045 4.5558 0.0000 -10732.8439 1442.8808 0.0000 0.0000 1805.9191 -7473.6505 307.3837 -9279.5696 -7445.0508 307.9634 -111.4105 -42.3259 30460.7203 102.8944 167.2309
ENERGY: 600000 1.1720 1.6346 2.0599 0.0000 -10808.5846 1503.4230 0.0000 0.0000 1761.3224 -7538.9727 299.7929 -9300.2951 -7464.8650 305.5326 543.2644 641.0553 30026.2161 199.8380 271.9043
ENERGY: 900000 2.3307 4.8843 2.4132 0.0000 -10621.8753 1398.2644 0.0000 0.0000 1690.5311 -7523.4517 287.7436 -9213.9828 -7494.5362 301.7197 -329.6271 -209.7366 30686.1763 92.4851 168.4848
ENERGY: 1200000 2.4188 5.7004 3.6398 0.0000 -10687.0904 1416.2556 0.0000 0.0000 1793.2121 -7465.8638 305.2208 -9259.0759 -7480.6364 301.9406 -182.8352 -73.0591 30257.8492 19.1435 93.8054
ENERGY: 1500000 0.7075 3.0579 3.0464 0.0000 -10729.7321 1443.0159 0.0000 0.0000 1738.3550 -7541.5494 295.8837 -9279.9044 -7488.5138 301.6151 -129.1255 -39.1220 30485.1172 4.5251 69.2333
TCL: Running FEP window   9: Lambda1 0.5999999999999996 Lambda2 0.5499999999999996 [dLambda -0.050000000000000044]
TCL: Setting parameter firsttimestep to 0
TCL: Setting parameter alchLambda to 0.5999999999999996
Info: NONBONDED TABLE R-SQUARED SPACING: 0.0625
Info: NONBONDED TABLE SIZE: 705 POINTS
TCL: Setting parameter alchLambda2 to 0.5499999999999996
Info: NONBONDED TABLE R-SQUARED SPACING: 0.0625
Info: NONBONDED TABLE SIZE: 705 POINTS
TCL: Running for 1500000 steps
ETITLE: TS BOND ANGLE DIHED IMPRP ELECT VDW BOUNDARY MISC KINETIC TOTAL TEMP POTENTIAL TOTALAVG TEMPAVG PRESSURE GPRESSURE VOLUME PRESSAVG GPRESSAVG
ENERGY: 0 0.7075 3.0580 3.0464 0.0000 -10728.5032 1442.9612 0.0000 0.0000 1737.4955 -7541.2347 295.7374 -9278.7302 -7541.2347 295.7374 -124.9382 -44.7370 30485.1172 -124.9382 -44.7370
ENERGY: 300000 1.3618 2.6118 6.5109 0.0000 -10860.9449 1540.0871 0.0000 0.0000 1775.8395 -7534.5337 302.2638 -9310.3732 -7541.2273 298.4924 685.8870 752.3370 30085.8143 20.4524 71.5992
ENERGY: 600000 7.4624 4.3988 4.1322 0.0000 -10755.0364 1426.3837 0.0000 0.0000 1764.8845 -7547.7748 300.3992 -9312.6593 -7527.7437 300.1098 -399.9634 -334.2753 30519.5449 -184.3615 -125.2714
ENERGY: 900000 3.5191 5.0749 3.3108 0.0000 -10748.7044 1472.7481 0.0000 0.0000 1778.2520 -7485.7995 302.6745 -9264.0516 -7517.6605 302.3701 243.0348 287.9886 30302.7894 -99.3855 -46.7235
ENERGY: 1200000 3.9131 4.0400 4.2894 0.0000 -10704.4202 1490.3647 0.0000 0.0000 1773.9736 -7427.8395 301.9463 -9201.8131 -7513.4978 301.2932 395.4236 482.7064 30245.9580 -89.2543 -37.1197
ENERGY: 1500000 4.4587 2.1588 4.7204 0.0000 -10674.8311 1399.6694 0.0000 0.0000 1780.3496 -7483.4743 303.0315 -9263.8239 -7513.7891 301.1967 -371.0281 -234.9002 30262.3170 -90.3953 -35.4330
TCL: Running FEP window  10: Lambda1 0.5499999999999996 Lambda2 0.4999999999999996 [dLambda -0.04999999999999999]
TCL: Setting parameter firsttimestep to 0
TCL: Setting parameter alchLambda to 0.5499999999999996
Info: NONBONDED TABLE R-SQUARED SPACING: 0.0625
Info: NONBONDED TABLE SIZE: 705 POINTS
TCL: Setting parameter alchLambda2 to 0.4999999999999996
Info: NONBONDED TABLE R-SQUARED SPACING: 0.0625
Info: NONBONDED TABLE SIZE: 705 POINTS
TCL: Running for 1500000 steps
ETITLE: TS BOND ANGLE DIHED IMPRP ELECT VDW BOUNDARY MISC KINETIC TOTAL TEMP POTENTIAL TOTALAVG TEMPAVG PRESSURE GPRESSURE VOLUME PRESSAVG GPRESSAVG
ENERGY: 0 4.4587 2.1588 4.7204 0.0000 -10671.7622 1399.4769 0.0000 0.0000 1779.4661 -7481.4813 302.8811 -9260.9474 -7481.4813 302.8811 -329.4848 -236.4008 30262.3170 -329.4848 -236.4008
ENERGY: 300000 2.0598 6.1174 3.7579 0.0000 -10680.8655 1405.6812 0.0000 0.0000 1805.7230 -7457.5262 307.3503 -9263.2491 -7508.7974 303.3490 -552.8387 -465.4553 30745.2277 -133.3398 -62.9071
ENERGY: 600000 1.6785 6.1371 2.1366 0.0000 -10650.3250 1427.4563 0.0000 0.0000 1825.2828 -7387.6338 310.6795 -9212.9166 -7491.6402 305.0851 206.8022 300.7933 30153.0963 -39.1509 34.5265
ENERGY: 900000 2.5514 4.6589 6.8773 0.0000 -10664.6991 1387.8350 0.0000 0.0000 1762.4022 -7500.3743 299.9767 -9262.7764 -7488.6382 303.7972 -402.2227 -309.0516 30621.9446 -168.8386 -92.9459
ENERGY: 1200000 2.3580 1.8013 3.9020 0.0000 -10799.8062 1480.7981 0.0000 0.0000 1740.0690 -7570.8778 296.1754 -9310.9468 -7504.8122 302.6306 220.4175 209.9245 30329.4055 -41.4744 29.7698
ENERGY: 1500000 1.6894 2.5894 3.2027 0.0000 -10658.3319 1431.3619 0.0000 0.0000 1812.1724 -7407.3162 308.4480 -9219.4886 -7501.3276 302.0738 183.0800 165.8062 30393.7144 -92.7546 -28.2453
TCL: Running FEP window  11: Lambda1 0.4999999999999996 Lambda2 0.4499999999999996 [dLambda -0.04999999999999999]
TCL: Setting parameter firsttimestep to 0
TCL: Setting parameter alchLambda to 0.4999999999999996
Info: NONBONDED TABLE R-SQUARED SPACING: 0.0625
Info: NONBONDED TABLE SIZE: 705 POINTS
TCL: Setting parameter alchLambda2 to 0.4499999999999996
Info: NONBONDED TABLE R-SQUARED SPACING: 0.0625
Info: NONBONDED TABLE SIZE: 705 POINTS
TCL: Running for 1500000 steps
ETITLE: TS BOND ANGLE DIHED IMPRP ELECT VDW BOUNDARY MISC KINETIC TOTAL TEMP POTENTIAL TOTALAVG TEMPAVG PRESSURE GPRESSURE VOLUME PRESSAVG GPRESSAVG
ENERGY: 0 1.6894 2.5894 3.2027 0.0000 -10658.6161 1431.8462 0.0000 0.0000 1811.3094 -7407.9790 308.3012 -9219.2884 -7407.9790 308.3012 74.1514 161.5745 30393.7144 74.1514 161.5745
ENERGY: 300000 1.7959 3.6763 3.8521 0.0000 -10646.3131 1381.8176 0.0000 0.0000 1747.3427 -7507.8284 297.4134 -9255.1711 -7463.6387 300.9747 -515.3484 -450.0404 30296.4663 99.2551 165.9238
ENERGY: 600000 2.7707 3.2102 3.1518 0.0000 -10822.6148 1499.7184 0.0000 0.0000 1763.1824 -7550.5813 300.1095 -9313.7637 -7481.0788 301.4087 754.7591 812.6551 29572.6407 187.7996 248.3598
ENERGY: 900000 3.1251 7.8144 1.0568 0.0000 -10705.7924 1423.3455 0.0000 0.0000 1768.3898 -7502.0607 300.9959 -9270.4505 -7485.4231 301.2824 -172.3178 -116.8236 30380.2754 -13.2265 59.2470
ENERGY: 1200000 1.7218 2.6870 3.2962 0.0000 -10827.5718 1475.8400 0.0000 0.0000 1801.8694 -7542.1574 306.6944 -9344.0268 -7497.0104 301.4230 42.4090 122.7346 30441.3259 -46.1341 30.1051
ENERGY: 1500000 3.3859 3.0264 5.1779 0.0000 -10718.0325 1414.2954 0.0000 0.0000 1741.9754 -7550.1714 296.4999 -9292.1469 -7503.4964 300.5134 -245.2384 -262.4372 30359.9579 -90.7430 -18.8720
TCL: Running FEP window  12: Lambda1 0.4499999999999996 Lambda2 0.39999999999999963 [dLambda -0.04999999999999999]
TCL: Setting parameter firsttimestep to 0
TCL: Setting parameter alchLambda to 0.4499999999999996
Info: NONBONDED TABLE R-SQUARED SPACING: 0.0625
Info: NONBONDED TABLE SIZE: 705 POINTS
TCL: Setting parameter alchLambda2 to 0.39999999999999963
Info: NONBONDED TABLE R-SQUARED SPACING: 0.0625
Info: NONBONDED TABLE SIZE: 705 POINTS
TCL: Running for 1500000 steps
ETITLE: TS BOND ANGLE DIHED IMPRP ELECT VDW BOUNDARY MISC KINETIC TOTAL TEMP POTENTIAL TOTALAVG TEMPAVG PRESSURE GPRESSURE VOLUME PRESSAVG GPRESSAVG
ENERGY: 0 3.3859 3.0264 5.1779 0.0000 -10718.0326 1414.4685 0.0000 0.0000 1741.1030 -7550.8708 296.3514 -9291.9738 -7550.8708 296.3514 -366.8603 -269.5315 30359.9579 -366.8603 -269.5315
ENERGY: 300000 3.2181 3.1435 3.7280 0.0000 -10643.9962 1396.7446 0.0000 0.0000 1690.9628 -7546.1993 287.8171 -9237.1620 -7535.3076 296.5385 -354.4898 -242.6115 30302.0441 -112.2450 -56.5695
ENERGY: 600000 2.9490 2.4948 3.5593 0.0000 -10799.0565 1518.4363 0.0000 0.0000 1837.9028 -7433.7143 312.8276 -9271.6171 -7498.2380 299.6347 843.0709 837.2019 29957.2698 61.9853 105.8415
ENERGY: 900000 3.1845 3.1535 4.9318 0.0000 -10644.0597 1372.8155 0.0000 0.0000 1773.1109 -7486.8635 301.7994 -9259.9744 -7501.1667 299.0672 -695.7445 -690.6279 30861.0076 -92.8037 -48.8134
ENERGY: 1200000 3.3231 4.7647 4.4541 0.0000 -10620.5727 1350.2752 0.0000 0.0000 1794.6731 -7463.0825 305.4695 -9257.7556 -7500.0321 299.5190 -649.7694 -572.9184 29998.0826 -145.1274 -79.8897
ENERGY: 1500000 3.0748 3.1292 4.8910 0.0000 -10671.9916 1364.7532 0.0000 0.0000 1787.6485 -7508.4948 304.2739 -9296.1434 -7501.7384 300.0428 -815.8107 -746.8349 30584.7421 -199.8876 -137.9144
TCL: Running FEP window  13: Lambda1 0.39999999999999963 Lambda2 0.34999999999999964 [dLambda -0.04999999999999999]
TCL: Setting parameter firsttimestep to 0
TCL: Setting parameter alchLambda to 0.39999999999999963
Info: NONBONDED TABLE R-SQUARED SPACING: 0.0625
Info: NONBONDED TABLE SIZE: 705 POINTS
TCL: Setting parameter alchLambda2 to 0.34999999999999964
Info: NONBONDED TABLE R-SQUARED SPACING: 0.0625
Info: NONBONDED TABLE SIZE: 705 POINTS
TCL: Running for 1500000 steps
ETITLE: TS BOND ANGLE DIHED IMPRP ELECT VDW BOUNDARY MISC KINETIC TOTAL TEMP POTENTIAL TOTALAVG TEMPAVG PRESSURE GPRESSURE VOLUME PRESSAVG GPRESSAVG
ENERGY: 0 3.0748 3.1292 4.8910 0.0000 -10671.9920 1364.9605 0.0000 0.0000 1786.7299 -7509.2066 304.1175 -9295.9365 -7509.2066 304.1175 -833.2874 -750.7185 30584.7421 -833.2874 -750.7185
ENERGY: 300000 2.8045 2.1069 4.0385 0.0000 -10707.8441 1446.9349 0.0000 0.0000 1769.8528 -7482.1065 301.2449 -9251.9593 -7502.5572 297.9850 -38.2929 93.1826 30205.9024 -176.6806 -110.8993
ENERGY: 600000 3.5223 3.3706 4.1950 0.0000 -10710.9499 1453.1067 0.0000 0.0000 1754.3691 -7492.3861 298.6094 -9246.7552 -7489.7636 300.5521 94.3136 78.6951 30398.2589 -48.7091 5.0946
ENERGY: 900000 2.8612 4.1304 3.7448 0.0000 -10566.1374 1403.4276 0.0000 0.0000 1773.0951 -7378.8784 301.7967 -9151.9735 -7493.9245 300.1501 -489.4193 -373.3230 31479.5709 -46.0087 5.4515
ENERGY: 1200000 2.9258 4.0698 3.8884 0.0000 -10794.9886 1535.8458 0.0000 0.0000 1746.2571 -7502.0017 297.2287 -9248.2588 -7502.1501 299.6935 658.9966 702.4876 30140.2170 42.1077 89.1976
ENERGY: 1500000 2.1300 3.2751 3.3215 0.0000 -10730.5506 1464.2223 0.0000 0.0000 1746.5280 -7511.0737 297.2748 -9257.6017 -7498.6900 300.4533 103.8130 110.3570 30281.0589 -29.4393 18.9894
TCL: Running FEP window  14: Lambda1 0.34999999999999964 Lambda2 0.29999999999999966 [dLambda -0.04999999999999999]
TCL: Setting parameter firsttimestep to 0
TCL: Setting parameter alchLambda to 0.34999999999999964
Info: NONBONDED TABLE R-SQUARED SPACING: 0.0625
Info: NONBONDED TABLE SIZE: 705 POINTS
TCL: Setting parameter alchLambda2 to 0.29999999999999966
Info: NONBONDED TABLE R-SQUARED SPACING: 0.0625
Info: NONBONDED TABLE SIZE: 705 POINTS
TCL: Running for 1500000 steps
ETITLE: TS BOND ANGLE DIHED IMPRP ELECT VDW BOUNDARY MISC KINETIC TOTAL TEMP POTENTIAL TOTALAVG TEMPAVG PRESSURE GPRESSURE VOLUME PRESSAVG GPRESSAVG
ENERGY: 0 2.1300 3.2751 3.3215 0.0000 -10730.5500 1464.5611 0.0000 0.0000 1745.6505 -7511.6118 297.1254 -9257.2623 -7511.6118 297.1254 25.8124 107.7360 30281.0589 25.8124 107.7360
ENERGY: 300000 2.1301 5.3742 4.3154 0.0000 -10823.3241 1503.8516 0.0000 0.0000 1783.3608 -7524.2921 303.5440 -9307.6529 -7524.3062 297.0420 516.3785 610.6475 30004.6592 112.0411 197.7054
ENERGY: 600000 2.1218 3.6663 3.7872 0.0000 -10686.6192 1416.7249 0.0000 0.0000 1735.2037 -7525.1154 295.3473 -9260.3191 -7526.1774 297.5344 -427.3212 -367.0878 30349.1119 138.9651 232.0740
ENERGY: 900000 2.0161 2.7339 3.1257 0.0000 -10661.0417 1387.5740 0.0000 0.0000 1816.7800 -7448.8120 309.2323 -9265.5920 -7499.3634 300.6997 -560.3875 -496.8988 30679.6128 91.5065 169.1582
ENERGY: 1200000 5.3685 5.5678 3.3869 0.0000 -10634.6968 1380.6760 0.0000 0.0000 1771.4057 -7468.2918 301.5092 -9239.6975 -7490.9201 300.9861 -702.4440 -643.0293 30688.4477 139.5174 216.4185
ENERGY: 1500000 2.5325 2.6731 3.3334 0.0000 -10649.5933 1400.6047 0.0000 0.0000 1746.1959 -7494.2536 297.2183 -9240.4495 -7485.0793 300.8769 -332.3565 -180.6438 30512.6190 85.7027 167.5293
TCL: Running FEP window  15: Lambda1 0.29999999999999966 Lambda2 0.24999999999999967 [dLambda -0.04999999999999999]
TCL: Setting parameter firsttimestep to 0
TCL: Setting parameter alchLambda to 0.29999999999999966
Info: NONBONDED TABLE R-SQUARED SPACING: 0.0625
Info: NONBONDED TABLE SIZE: 705 POINTS
TCL: Setting parameter alchLambda2 to 0.24999999999999967
Info: NONBONDED TABLE R-SQUARED SPACING: 0.0625
Info: NONBONDED TABLE SIZE: 705 POINTS
TCL: Running for 1500000 steps
ETITLE: TS BOND ANGLE DIHED IMPRP ELECT VDW BOUNDARY MISC KINETIC TOTAL TEMP POTENTIAL TOTALAVG TEMPAVG PRESSURE GPRESSURE VOLUME PRESSAVG GPRESSAVG
ENERGY: 0 2.5325 2.6731 3.3334 0.0000 -10649.5935 1400.9428 0.0000 0.0000 1745.3139 -7494.7978 297.0681 -9240.1117 -7494.7978 297.0681 -268.2262 -181.3469 30512.6190 -268.2262 -181.3469
ENERGY: 300000 5.5170 3.1710 7.3870 0.0000 -10650.2766 1345.8520 0.0000 0.0000 1791.6626 -7496.6870 304.9571 -9288.3497 -7499.4079 300.0762 -805.0160 -739.5809 30398.6707 -200.5829 -143.3517
ENERGY: 600000 4.2852 2.9460 5.7770 0.0000 -10717.4977 1433.5409 0.0000 0.0000 1744.8751 -7526.0734 296.9934 -9270.9486 -7490.4867 298.4799 -38.9531 33.1832 30391.4485 -214.4855 -143.8712
ENERGY: 900000 3.0916 3.7807 4.3416 0.0000 -10723.7574 1435.5306 0.0000 0.0000 1764.3029 -7512.7100 300.3002 -9277.0130 -7491.4956 298.3882 -147.5928 -31.6946 30181.1517 -260.6812 -190.9299
ENERGY: 1200000 1.0898 3.6191 1.9714 0.0000 -10604.0329 1347.0448 0.0000 0.0000 1788.8099 -7461.4979 304.4715 -9250.3078 -7483.3997 299.4787 -822.2035 -670.6079 30672.8870 -291.5772 -229.5767
ENERGY: 1500000 2.6706 1.7813 3.0742 0.0000 -10736.6574 1440.8479 0.0000 0.0000 1738.4728 -7549.8106 295.9037 -9288.2834 -7498.8424 298.4231 -10.9027 31.0768 30162.0392 -180.6024 -119.8174
TCL: Running FEP window  16: Lambda1 0.24999999999999967 Lambda2 0.19999999999999968 [dLambda -0.04999999999999999]
TCL: Setting parameter firsttimestep to 0
TCL: Setting parameter alchLambda to 0.24999999999999967
Info: NONBONDED TABLE R-SQUARED SPACING: 0.0625
Info: NONBONDED TABLE SIZE: 705 POINTS
TCL: Setting parameter alchLambda2 to 0.19999999999999968
Info: NONBONDED TABLE R-SQUARED SPACING: 0.0625
Info: NONBONDED TABLE SIZE: 705 POINTS
TCL: Running for 1500000 steps
ETITLE: TS BOND ANGLE DIHED IMPRP ELECT VDW BOUNDARY MISC KINETIC TOTAL TEMP POTENTIAL TOTALAVG TEMPAVG PRESSURE GPRESSURE VOLUME PRESSAVG GPRESSAVG
ENERGY: 0 2.6706 1.7813 3.0742 0.0000 -10736.6580 1440.4262 0.0000 0.0000 1737.6229 -7551.0829 295.7590 -9288.7057 -7551.0829 295.7590 -49.9577 22.7524 30162.0392 -49.9577 22.7524
ENERGY: 300000 3.1824 2.7818 1.9260 0.0000 -10722.9391 1432.0078 0.0000 0.0000 1752.2247 -7530.8164 298.2444 -9283.0411 -7505.5697 300.4769 -400.9173 -378.3328 30384.9063 107.2869 167.8552
ENERGY: 600000 2.8923 6.1483 5.7028 0.0000 -10691.0997 1477.7797 0.0000 0.0000 1752.8005 -7445.7762 298.3424 -9198.5767 -7494.8870 299.4710 296.4526 365.5396 30452.1000 128.6786 194.0538
ENERGY: 900000 2.1867 4.4807 3.2798 0.0000 -10746.7579 1437.5264 0.0000 0.0000 1782.8886 -7516.3957 303.4637 -9299.2842 -7486.1212 299.7529 78.1077 136.0754 29935.9412 -42.5574 5.8032
ENERGY: 1200000 2.5565 4.0402 3.0755 0.0000 -10728.9233 1464.5756 0.0000 0.0000 1761.5800 -7493.0955 299.8368 -9254.6755 -7473.1750 300.4340 217.8591 339.5787 29864.6796 3.6277 56.8713
ENERGY: 1500000 4.9039 3.5652 2.9492 0.0000 -10702.0551 1385.6027 0.0000 0.0000 1751.2291 -7553.8050 298.0749 -9305.0341 -7483.5699 300.2361 -668.6474 -568.1112 30050.1199 -27.5313 23.1881
TCL: Running FEP window  17: Lambda1 0.19999999999999968 Lambda2 0.1499999999999997 [dLambda -0.04999999999999999]
TCL: Setting parameter firsttimestep to 0
TCL: Setting parameter alchLambda to 0.19999999999999968
Info: NONBONDED TABLE R-SQUARED SPACING: 0.0625
Info: NONBONDED TABLE SIZE: 705 POINTS
TCL: Setting parameter alchLambda2 to 0.1499999999999997
Info: NONBONDED TABLE R-SQUARED SPACING: 0.0625
Info: NONBONDED TABLE SIZE: 705 POINTS
TCL: Running for 1500000 steps
ETITLE: TS BOND ANGLE DIHED IMPRP ELECT VDW BOUNDARY MISC KINETIC TOTAL TEMP POTENTIAL TOTALAVG TEMPAVG PRESSURE GPRESSURE VOLUME PRESSAVG GPRESSAVG
ENERGY: 0 4.9039 3.5652 2.9492 0.0000 -10702.0555 1384.7635 0.0000 0.0000 1750.4139 -7555.4598 297.9362 -9305.8737 -7555.4598 297.9362 -659.2735 -574.2193 30050.1199 -659.2735 -574.2193
ENERGY: 300000 2.4858 7.6746 3.1206 0.0000 -10545.4028 1347.4351 0.0000 0.0000 1813.9425 -7370.7442 308.7493 -9184.6867 -7443.0778 303.1663 -642.1042 -591.5242 30699.3840 -473.9171 -410.5304
ENERGY: 600000 2.4811 2.1420 2.1224 0.0000 -10732.3745 1420.5044 0.0000 0.0000 1746.7117 -7558.4130 297.3060 -9305.1247 -7462.9840 302.2599 -189.3695 -6.0549 29952.4877 -276.4100 -196.9217
ENERGY: 900000 4.0361 1.5859 4.4260 0.0000 -10686.0145 1441.6842 0.0000 0.0000 1717.9171 -7516.3652 292.4049 -9234.2823 -7474.4934 299.4913 -239.0067 -129.6725 30622.8483 -228.0117 -153.6971
ENERGY: 1200000 2.5772 1.9959 1.9483 0.0000 -10491.3919 1340.4848 0.0000 0.0000 1775.1159 -7369.2699 302.1407 -9144.3858 -7472.6729 299.5180 -694.4744 -591.8574 30664.8022 -190.3110 -117.8301
ENERGY: 1500000 2.3033 4.6301 1.3906 0.0000 -10673.1222 1378.8886 0.0000 0.0000 1770.9055 -7515.0041 301.4240 -9285.9095 -7483.9685 300.0845 -528.5773 -484.6363 30181.5957 -122.8725 -55.1265
TCL: Running FEP window  18: Lambda1 0.1499999999999997 Lambda2 0.09999999999999969 [dLambda -0.05 ]
TCL: Setting parameter firsttimestep to 0
TCL: Setting parameter alchLambda to 0.1499999999999997
Info: NONBONDED TABLE R-SQUARED SPACING: 0.0625
Info: NONBONDED TABLE SIZE: 705 POINTS
TCL: Setting parameter alchLambda2 to 0.09999999999999969
Info: NONBONDED TABLE R-SQUARED SPACING: 0.0625
Info: NONBONDED TABLE SIZE: 705 POINTS
TCL: Running for 1500000 steps
ETITLE: TS BOND ANGLE DIHED IMPRP ELECT VDW BOUNDARY MISC KINETIC TOTAL TEMP POTENTIAL TOTALAVG TEMPAVG PRESSURE GPRESSURE VOLUME PRESSAVG GPRESSAVG
ENERGY: 0 2.3034 4.6301 1.3906 0.0000 -10673.1214 1378.9444 0.0000 0.0000 1770.1014 -7515.7516 301.2872 -9285.8530 -7515.7516 301.2872 -580.2372 -491.2491 30181.5957 -580.2372 -491.2491
ENERGY: 300000 5.2984 2.0626 4.6318 0.0000 -10705.8705 1457.2656 0.0000 0.0000 1760.1010 -7476.5110 299.5850 -9236.6121 -7462.7945 305.3809 -191.2633 -84.1849 30608.6069 -27.5643 58.8688
ENERGY: 600000 2.3554 2.4287 3.2752 0.0000 -10715.1500 1441.1946 0.0000 0.0000 1751.3380 -7514.5582 298.0935 -9265.8961 -7478.5652 302.2469 77.2281 174.4407 29837.0846 39.8171 114.4207
ENERGY: 900000 4.8664 2.3303 3.1459 0.0000 -10652.7657 1454.9497 0.0000 0.0000 1791.8298 -7395.6436 304.9856 -9187.4735 -7481.6261 300.4663 172.6065 149.5349 30334.9640 -59.6866 1.2974
ENERGY: 1200000 1.5315 4.5994 0.8040 0.0000 -10741.5065 1474.9016 0.0000 0.0000 1732.9454 -7526.7246 294.9629 -9259.6700 -7489.5849 299.9408 142.2785 194.5055 30339.7600 57.7340 122.3246
ENERGY: 1500000 2.1704 2.0425 2.0080 0.0000 -10642.9422 1417.3101 0.0000 0.0000 1754.7150 -7464.6961 298.6683 -9219.4112 -7489.0837 299.7270 -264.0688 -199.6573 30388.3656 -5.1159 58.3439
TCL: Running FEP window  19: Lambda1 0.09999999999999969 Lambda2 0.049999999999999684 [dLambda -0.05 ]
TCL: Setting parameter firsttimestep to 0
TCL: Setting parameter alchLambda to 0.09999999999999969
Info: NONBONDED TABLE R-SQUARED SPACING: 0.0625
Info: NONBONDED TABLE SIZE: 705 POINTS
TCL: Setting parameter alchLambda2 to 0.049999999999999684
Info: NONBONDED TABLE R-SQUARED SPACING: 0.0625
Info: NONBONDED TABLE SIZE: 705 POINTS
TCL: Running for 1500000 steps
ETITLE: TS BOND ANGLE DIHED IMPRP ELECT VDW BOUNDARY MISC KINETIC TOTAL TEMP POTENTIAL TOTALAVG TEMPAVG PRESSURE GPRESSURE VOLUME PRESSAVG GPRESSAVG
ENERGY: 0 2.1704 2.0425 2.0080 0.0000 -10642.9414 1414.9061 0.0000 0.0000 1753.8694 -7467.9449 298.5243 -9221.8143 -7467.9449 298.5243 -289.1690 -211.5316 30388.3656 -289.1690 -211.5316
ENERGY: 300000 2.3908 3.7220 4.0535 0.0000 -10951.3622 1625.5573 0.0000 0.0000 1771.7990 -7543.8395 301.5761 -9315.6386 -7492.1005 299.0609 1456.6659 1507.1614 29658.8469 137.4862 166.2517
ENERGY: 600000 1.7492 5.5244 5.2416 0.0000 -10701.9016 1422.9266 0.0000 0.0000 1756.3317 -7510.1281 298.9434 -9266.4598 -7500.9287 299.5347 -194.7808 -102.6811 30038.3027 153.7191 201.8078
ENERGY: 900000 7.1879 5.3434 3.1197 0.0000 -10737.7825 1497.3680 0.0000 0.0000 1756.3548 -7468.4087 298.9474 -9224.7635 -7477.6294 300.2379 297.5097 342.2859 30502.1472 191.9766 238.1088
ENERGY: 1200000 3.8006 1.7949 7.9000 0.0000 -10845.5592 1555.2148 0.0000 0.0000 1752.5919 -7524.2569 298.3069 -9276.8488 -7481.0749 300.6834 698.1738 861.2964 30168.5674 222.1021 278.6683
ENERGY: 1500000 3.6011 1.5812 3.8747 0.0000 -10798.9163 1482.7273 0.0000 0.0000 1730.6834 -7576.4486 294.5779 -9307.1320 -7478.2195 300.6427 170.8938 246.9907 30177.7144 175.8306 240.7650
TCL: Running FEP window  20: Lambda1 0.049999999999999684 Lambda2 0.0    [dLambda -0.049999999999999684]
TCL: Setting parameter firsttimestep to 0
TCL: Setting parameter alchLambda to 0.049999999999999684
Info: NONBONDED TABLE R-SQUARED SPACING: 0.0625
Info: NONBONDED TABLE SIZE: 705 POINTS
TCL: Setting parameter alchLambda2 to 0.0
Info: NONBONDED TABLE R-SQUARED SPACING: 0.0625
Info: NONBONDED TABLE SIZE: 705 POINTS
TCL: Running for 1500000 steps
ETITLE: TS BOND ANGLE DIHED IMPRP ELECT VDW BOUNDARY MISC KINETIC TOTAL TEMP POTENTIAL TOTALAVG TEMPAVG PRESSURE GPRESSURE VOLUME PRESSAVG GPRESSAVG
ENERGY: 0 3.6011 1.5812 3.8747 0.0000 -10798.9171 1481.5532 0.0000 0.0000 1729.8140 -7578.4929 294.4299 -9308.3070 -7578.4929 294.4299 169.0995 241.3740 30177.7144 169.0995 241.3740
ENERGY: 300000 3.4942 2.1223 3.1298 0.0000 -10587.4063 1359.4245 0.0000 0.0000 1771.7910 -7447.4445 301.5748 -9219.2355 -7511.4486 298.6276 -656.6591 -629.9419 30237.4260 -182.4754 -126.3184
ENERGY: 600000 7.8038 4.3111 2.9229 0.0000 -10740.9974 1480.0702 0.0000 0.0000 1783.1379 -7462.7514 303.5061 -9245.8893 -7504.3857 298.9648 275.8903 381.5728 30158.2511 -66.6962 2.5329
ENERGY: 900000 3.1597 4.7249 2.6186 0.0000 -10843.8915 1496.8768 0.0000 0.0000 1773.2114 -7563.3001 301.8165 -9336.5114 -7487.2371 300.3464 314.4539 361.0681 29885.9060 -15.6061 48.5304
ENERGY: 1200000 1.3584 3.1812 1.4719 0.0000 -10694.8230 1436.4082 0.0000 0.0000 1808.9296 -7443.4737 307.8961 -9252.4034 -7483.0644 301.1814 94.6306 146.0672 30084.4779 9.4594 69.3985
ENERGY: 1500000 2.3705 9.6052 5.4865 0.0000 -10650.8723 1344.1520 0.0000 0.0000 1728.6966 -7560.5615 294.2397 -9289.2581 -7483.1688 300.9485 -1062.2714 -953.9220 30438.8105 -91.7102 -23.0408
TCL: Exiting due to exit command.
