Info: SIMULATION PARAMETERS:
Info: TIMESTEP               2
Info: NUMBER OF STEPS        0
Info: STEPS PER CYCLE        10
Info: PERIODIC CELL BASIS 1  30.3373 0 0
Info: PERIODIC CELL BASIS 2  0 31.7917 0
Info: PERIODIC CELL BASIS 3  0 0 32.1039
Info: PERIODIC CELL CENTER   0 0 0
Info: WRAPPING WATERS AROUND PERIODIC BOUNDARIES ON OUTPUT.
Info: WRAPPING ALL CLUSTERS AROUND PERIODIC BOUNDARIES ON OUTPUT.
Info: FIRST LDB TIMESTEP     50
Info: LAST LDB TIMESTEP     -1
Info: HOM BACKGROUND SCALING 1
Info: PME BACKGROUND SCALING 1
Info: MIN ATOMS PER PATCH    40
Info: EMPTY PATCH LOAD       40 ATOMS
Info: VELOCITY FILE          mobley_2279874_equil.vel
Info: CENTER OF MASS MOVING INITIALLY? NO
Info: DIELECTRIC             1
Info: EXCLUDE                SCALED ONE-FOUR
Info: 1-4 ELECTROSTATICS SCALED BY 0.833333
Info: MODIFIED 1-4 VDW PARAMETERS WILL BE USED
Info: DCD FILENAME           mobley_2279874_prod.dcd
Info: DCD FREQUENCY          100000
Info: DCD FIRST STEP         100000
Info: DCD FILE WILL CONTAIN UNIT CELL DATA
Info: XST FILENAME           mobley_2279874_prod.xst
Info: XST FREQUENCY          100000
Info: NO VELOCITY DCD OUTPUT
Info: NO FORCE DCD OUTPUT
Info: OUTPUT FILENAME        mobley_2279874_prod
Info: BINARY OUTPUT FILES WILL BE USED
Info: RESTART FILENAME       mobley_2279874_prod.restart
Info: RESTART FREQUENCY      100000
Info: BINARY RESTART FILES WILL BE USED
Info: CUTOFF                 9
Info: PAIRLIST DISTANCE      11
Info: PAIRLIST SHRINK RATE   0.01
Info: PAIRLIST GROW RATE     0.01
Info: PAIRLIST TRIGGER       0.3
Info: PAIRLISTS PER CYCLE    2
Info: PAIRLISTS ENABLED
Info: MARGIN                 2
Info: HYDROGEN GROUP CUTOFF  2.5
Info: PATCH DIMENSION        15.5
Info: ENERGY OUTPUT STEPS    100000
Info: ENERGY EVALUATION STEPS    100000
Info: OUTPUT ENERGY PRECISION 4
Info: CROSSTERM ENERGY INCLUDED IN DIHEDRAL
Info: TIMING OUTPUT STEPS    1000000
Info: PRESSURE OUTPUT STEPS  100000
Info: ALCHEMICAL FEP ON
Info: FEP CURRENT LAMBDA VALUE     1
Info: FEP COMPARISON LAMBDA VALUE  0.95
Info: FEP INTRA-ALCHEMICAL NON-BONDED INTERACTIONS WILL BE RETAINED
Info: FEP INTRA-ALCHEMICAL BONDED INTERACTIONS WILL BE RETAINED
Info: FEP VDW SHIFTING COEFFICIENT 5
Info: FEP ELEC. ACTIVE FOR ANNIHILATED PARTICLES BETWEEN LAMBDA = 0 AND LAMBDA = 0.5
Info: FEP ELEC. ACTIVE FOR EXNIHILATED PARTICLES BETWEEN LAMBDA = 0.5 AND LAMBDA = 1
Info: FEP VDW ACTIVE FOR ANNIHILATED PARTICLES BETWEEN LAMBDA = 0 AND LAMBDA = 1
Info: FEP VDW ACTIVE FOR EXNIHILATED PARTICLES BETWEEN LAMBDA = 0 AND LAMBDA = 1
Info: FEP BOND ACTIVE FOR ANNIHILATED PARTICLES BETWEEN LAMBDA = 1 AND LAMBDA = 1
Info: FEP BOND ACTIVE FOR EXNIHILATED PARTICLES BETWEEN LAMBDA = 0 AND LAMBDA = 0
Info: LANGEVIN DYNAMICS ACTIVE
Info: LANGEVIN TEMPERATURE   300
Info: LANGEVIN USING BBK INTEGRATOR
Info: LANGEVIN DAMPING COEFFICIENT IS 1 INVERSE PS
Info: LANGEVIN DYNAMICS APPLIED TO HYDROGENS
Info: LANGEVIN PISTON PRESSURE CONTROL ACTIVE
Info:        TARGET PRESSURE IS 1.01325 BAR
Info:     OSCILLATION PERIOD IS 50 FS
Info:             DECAY TIME IS 25 FS
Info:     PISTON TEMPERATURE IS 300 K
Info:       PRESSURE CONTROL IS GROUP-BASED
Info:    INITIAL STRAIN RATE IS -0.00037718 -0.00037718 -0.00037718
Info:       CELL FLUCTUATION IS ISOTROPIC
Info: PARTICLE MESH EWALD (PME) ACTIVE
Info: PME TOLERANCE               1e-06
Info: PME EWALD COEFFICIENT       0.348832
Info: PME INTERPOLATION ORDER     4
Info: PME GRID DIMENSIONS         32 32 36
Info: PME MAXIMUM GRID SPACING    1
Info: PME CALCULATION WILL BE PERFORMED ON GPU
Info: FULL ELECTROSTATIC EVALUATION FREQUENCY      2
Info: USING VERLET I (r-RESPA) MTS SCHEME.
Info: C1 SPLITTING OF LONG RANGE ELECTROSTATICS
Info: PLACING ATOMS IN PATCHES BY HYDROGEN GROUPS
Info: RIGID BONDS TO HYDROGEN : ALL
Info:         ERROR TOLERANCE : 1e-08
Info:          MAX ITERATIONS : 100
Info: RIGID WATER USING SETTLE ALGORITHM
Info: RANDOM NUMBER SEED     1743915605
Info: USE HYDROGEN BONDS?    NO
Info: Using AMBER format force field!
Info: AMBER PARM FILE        mobley_2279874.prmtop
Info: COORDINATE PDB         mobley_2279874.pdb
Info: Exclusions will be read from PARM file!
Info: SCNB (VDW SCALING)     2
Info: USING ARITHMETIC MEAN TO COMBINE L-J SIGMA PARAMETERS
Info: BINARY COORDINATES     mobley_2279874_equil.coor
Info: SUMMARY OF PARAMETERS:
Info: 5 BONDS
Info: 5 ANGLES
Info:   5 HARMONIC
Info:   0 COSINE-BASED
Info: 4 DIHEDRAL
Info: 0 IMPROPER
Info: 0 CROSSTERM
Info: 0 VDW
Info: 21 VDW_PAIRS
Info: 0 NBTHOLE_PAIRS
Info: To read alchdata from file: mobley_2279874.pdb
Info: To read alchflag data from column: 5
Info: STRUCTURE SUMMARY:
Info: 2999 ATOMS
Info: 2998 BONDS
Info: 27 ANGLES
Info: 30 DIHEDRALS
Info: 0 IMPROPERS
Info: 0 CROSSTERMS
Info: 3043 EXCLUSIONS
Info: 2992 RIGID BONDS
Info: ALCH: 0 ATOMS TO DISAPPEAR IN FINAL STATE
Info: ALCH: 17 ATOMS TO APPEAR IN FINAL STATE
Info: 6005 DEGREES OF FREEDOM
Info: 1001 HYDROGEN GROUPS
Info: 4 ATOMS IN LARGEST HYDROGEN GROUP
Info: 1001 MIGRATION GROUPS
Info: 4 ATOMS IN LARGEST MIGRATION GROUP
Info: TOTAL MASS = 18014 amu
Info: TOTAL CHARGE = 0.000299994 e
Info: MASS DENSITY = 0.966097 g/cm^3
Info: ATOM DENSITY = 0.0968562 atoms/A^3
Info: ADDED 0 IMPLICIT EXCLUSIONS
Info: NONBONDED TABLE R-SQUARED SPACING: 0.0625
Info: NONBONDED TABLE SIZE: 705 POINTS
Info: REMOVING COM VELOCITY 0.0196898 -0.136357 0.040731
Info: Use 3D box decompostion in PME FFT.
Info: Updated CUDA force table with 4096 elements.
Info: Updated CUDA LJ table with 6 x 6 elements.
Info: Found 20 unique exclusion lists needing 44 bytes
TCL: Running for 1500000 steps
ETITLE: TS BOND ANGLE DIHED IMPRP ELECT VDW BOUNDARY MISC KINETIC TOTAL TEMP POTENTIAL TOTALAVG TEMPAVG PRESSURE GPRESSURE VOLUME PRESSAVG GPRESSAVG
ENERGY: 0 4.0948 7.8026 15.6421 0.0000 -10875.6104 1531.8866 0.0000 0.0000 1747.2151 -7568.9692 292.8355 -9316.1843 -7568.9692 292.8355 655.0960 731.2853 30963.4382 655.0960 731.2853
ENERGY: 300000 2.5695 8.2049 14.3930 0.0000 -10698.3264 1358.5934 0.0000 0.0000 1743.1383 -7571.4273 292.1522 -9314.5657 -7604.0762 294.3753 -657.3597 -537.4613 30945.5969 21.2597 94.8771
ENERGY: 600000 0.8357 8.4251 14.4704 0.0000 -10874.4529 1423.9742 0.0000 0.0000 1796.6406 -7630.1068 301.1193 -9426.7474 -7630.0097 295.3901 -367.8351 -254.9523 31081.1016 -83.3102 -5.5180
ENERGY: 900000 2.3993 6.1604 16.0598 0.0000 -10769.6636 1390.3879 0.0000 0.0000 1843.3482 -7511.3080 308.9476 -9354.6562 -7616.9720 295.7702 -490.9534 -394.2698 31317.9649 -26.1153 53.5526
ENERGY: 1200000 1.5830 8.5123 15.8448 0.0000 -11014.9374 1531.0750 0.0000 0.0000 1752.7893 -7705.1330 293.7698 -9457.9223 -7627.1301 295.7995 381.2643 562.1446 30581.2290 -54.3732 24.6690
ENERGY: 1500000 1.5094 4.5647 12.9518 0.0000 -10900.7675 1487.2191 0.0000 0.0000 1798.8421 -7595.6803 301.4883 -9394.5225 -7620.7904 296.5431 366.0462 477.1239 30782.1146 10.2885 93.7427
TCL: Running FEP window   2: Lambda1 0.95   Lambda2 0.8999999999999999 [dLambda -0.050000000000000044]
TCL: Setting parameter firsttimestep to 0
TCL: Setting parameter alchLambda to 0.95
Info: NONBONDED TABLE R-SQUARED SPACING: 0.0625
Info: NONBONDED TABLE SIZE: 705 POINTS
TCL: Setting parameter alchLambda2 to 0.8999999999999999
Info: NONBONDED TABLE R-SQUARED SPACING: 0.0625
Info: NONBONDED TABLE SIZE: 705 POINTS
TCL: Running for 1500000 steps
ETITLE: TS BOND ANGLE DIHED IMPRP ELECT VDW BOUNDARY MISC KINETIC TOTAL TEMP POTENTIAL TOTALAVG TEMPAVG PRESSURE GPRESSURE VOLUME PRESSAVG GPRESSAVG
ENERGY: 0 1.5094 4.5647 12.9518 0.0000 -10899.2770 1486.3722 0.0000 0.0000 1797.9479 -7595.9309 301.3384 -9393.8788 -7595.9309 301.3384 375.8166 455.0302 30782.1146 375.8166 455.0302
ENERGY: 300000 2.7145 7.5874 13.6486 0.0000 -10756.3055 1395.5043 0.0000 0.0000 1730.0264 -7606.8243 289.9547 -9336.8507 -7646.9136 295.0609 -368.2878 -360.5033 30918.3022 -18.6800 27.7719
ENERGY: 600000 2.0176 7.8321 18.1933 0.0000 -10976.1906 1530.7071 0.0000 0.0000 1783.0544 -7634.3861 298.8422 -9417.4405 -7641.7953 295.6819 484.7309 585.3157 30963.7285 179.4265 226.9987
ENERGY: 900000 3.5139 8.8776 14.5882 0.0000 -10906.5692 1502.6227 0.0000 0.0000 1825.6425 -7551.3243 305.9800 -9376.9668 -7617.1238 298.1565 436.4612 491.7311 30741.4510 86.9891 136.2645
ENERGY: 1200000 3.1274 7.0372 14.5791 0.0000 -11028.6484 1570.4103 0.0000 0.0000 1835.5921 -7597.9023 307.6476 -9433.4945 -7617.7950 298.0422 901.0020 981.8520 30424.6055 155.9695 207.2974
ENERGY: 1500000 1.5345 5.7362 16.8108 0.0000 -11008.6415 1468.1643 0.0000 0.0000 1778.8928 -7737.5028 298.1447 -9516.3957 -7620.9217 298.1313 -279.0158 -192.3918 30698.9902 130.8322 180.0757
TCL: Running FEP window   3: Lambda1 0.8999999999999999 Lambda2 0.8499999999999999 [dLambda -0.050000000000000044]
TCL: Setting parameter firsttimestep to 0
TCL: Setting parameter alchLambda to 0.8999999999999999
Info: NONBONDED TABLE R-SQUARED SPACING: 0.0625
Info: NONBONDED TABLE SIZE: 705 POINTS
TCL: Setting parameter alchLambda2 to 0.8499999999999999
Info: NONBONDED TABLE R-SQUARED SPACING: 0.0625
Info: NONBONDED TABLE SIZE: 705 POINTS
TCL: Running for 1500000 steps
ETITLE: TS BOND ANGLE DIHED IMPRP ELECT VDW BOUNDARY MISC KINETIC TOTAL TEMP POTENTIAL TOTALAVG TEMPAVG PRESSURE GPRESSURE VOLUME PRESSAVG GPRESSAVG
ENERGY: 0 1.5345 5.7362 16.8108 0.0000 -11006.7875 1468.1126 0.0000 0.0000 1777.9817 -7736.6117 297.9920 -9514.5934 -7736.6117 297.9920 -289.2017 -202.2623 30698.9902 -289.2017 -202.2623
ENERGY: 300000 1.2993 8.4306 16.9082 0.0000 -10777.5025 1406.3663 0.0000 0.0000 1756.0837 -7588.4143 294.3219 -9344.4980 -7614.3075 298.5229 -577.5950 -559.2856 31303.7106 -270.2717 -216.2411
ENERGY: 600000 2.6493 8.8523 16.0426 0.0000 -10888.8132 1497.8663 0.0000 0.0000 1828.6978 -7534.7049 306.4921 -9363.4027 -7608.1384 299.6614 247.7801 285.2283 31094.3620 -66.5610 -30.4234
ENERGY: 900000 1.7729 6.6099 14.4504 0.0000 -10774.5681 1458.4808 0.0000 0.0000 1822.5498 -7470.7043 305.4617 -9293.2541 -7589.7608 301.0220 202.3668 297.5326 31036.6123 -24.1693 22.9559
ENERGY: 1200000 1.0325 7.7171 13.9705 0.0000 -10884.3966 1464.0236 0.0000 0.0000 1792.4332 -7605.2197 300.4141 -9397.6528 -7595.8796 300.3663 191.8923 306.3121 30506.9672 -19.3491 32.8233
ENERGY: 1500000 0.9571 12.1497 16.2441 0.0000 -10960.4976 1466.4474 0.0000 0.0000 1748.1685 -7716.5309 292.9953 -9464.6994 -7602.2845 300.3082 -275.3201 -217.2599 31069.2488 -48.1553 0.6233
TCL: Running FEP window   4: Lambda1 0.8499999999999999 Lambda2 0.7999999999999998 [dLambda -0.050000000000000044]
TCL: Setting parameter firsttimestep to 0
TCL: Setting parameter alchLambda to 0.8499999999999999
Info: NONBONDED TABLE R-SQUARED SPACING: 0.0625
Info: NONBONDED TABLE SIZE: 705 POINTS
TCL: Setting parameter alchLambda2 to 0.7999999999999998
Info: NONBONDED TABLE R-SQUARED SPACING: 0.0625
Info: NONBONDED TABLE SIZE: 705 POINTS
TCL: Running for 1500000 steps
ETITLE: TS BOND ANGLE DIHED IMPRP ELECT VDW BOUNDARY MISC KINETIC TOTAL TEMP POTENTIAL TOTALAVG TEMPAVG PRESSURE GPRESSURE VOLUME PRESSAVG GPRESSAVG
ENERGY: 0 0.9571 12.1497 16.2441 0.0000 -10959.3853 1466.1696 0.0000 0.0000 1747.2682 -7716.5967 292.8444 -9463.8649 -7716.5967 292.8444 -311.0735 -228.3956 31069.2488 -311.0735 -228.3956
ENERGY: 300000 2.0302 7.3159 13.8372 0.0000 -10769.2214 1357.9946 0.0000 0.0000 1757.5056 -7630.5379 294.5602 -9388.0435 -7640.6170 298.4171 -961.6905 -865.0112 31219.7704 -412.0899 -344.9297
ENERGY: 600000 0.7054 8.2142 13.5980 0.0000 -10804.8798 1402.1305 0.0000 0.0000 1788.7073 -7591.5244 299.7897 -9380.2317 -7627.2103 298.3969 -574.8568 -479.2197 31379.6250 -244.4832 -170.2144
ENERGY: 900000 1.1682 7.0686 15.8045 0.0000 -10761.5681 1377.2946 0.0000 0.0000 1757.5193 -7602.7130 294.5625 -9360.2322 -7621.1038 297.8273 -759.2618 -689.6380 31142.7367 -103.3557 -36.9927
ENERGY: 1200000 1.3254 7.1007 14.3383 0.0000 -10906.8491 1500.0116 0.0000 0.0000 1813.5690 -7570.5040 303.9565 -9384.0730 -7626.0181 298.9610 619.2340 695.2794 30431.4821 -44.7839 10.3681
ENERGY: 1500000 2.3123 9.2639 14.2543 0.0000 -10705.9999 1394.2375 0.0000 0.0000 1816.0741 -7469.8578 304.3764 -9285.9319 -7617.6875 299.0327 -125.6838 -87.8208 30914.0952 -43.0609 6.8207
TCL: Running FEP window   5: Lambda1 0.7999999999999998 Lambda2 0.7499999999999998 [dLambda -0.050000000000000044]
TCL: Setting parameter firsttimestep to 0
TCL: Setting parameter alchLambda to 0.7999999999999998
Info: NONBONDED TABLE R-SQUARED SPACING: 0.0625
Info: NONBONDED TABLE SIZE: 705 POINTS
TCL: Setting parameter alchLambda2 to 0.7499999999999998
Info: NONBONDED TABLE R-SQUARED SPACING: 0.0625
Info: NONBONDED TABLE SIZE: 705 POINTS
TCL: Running for 1500000 steps
ETITLE: TS BOND ANGLE DIHED IMPRP ELECT VDW BOUNDARY MISC KINETIC TOTAL TEMP POTENTIAL TOTALAVG TEMPAVG PRESSURE GPRESSURE VOLUME PRESSAVG GPRESSAVG
ENERGY: 0 2.3123 9.2639 14.2543 0.0000 -10704.5154 1393.9784 0.0000 0.0000 1815.1909 -7469.5156 304.2283 -9284.7065 -7469.5156 304.2283 -179.0276 -100.5555 30914.0952 -179.0276 -100.5555
ENERGY: 300000 2.0833 6.9482 17.5799 0.0000 -10780.1773 1423.2449 0.0000 0.0000 1769.5086 -7560.8124 296.5719 -9330.3210 -7578.3129 297.4694 -377.2752 -300.4185 31231.3873 1.0400 66.0446
ENERGY: 600000 2.9544 7.3449 14.8110 0.0000 -10823.0984 1413.7181 0.0000 0.0000 1822.3590 -7561.9110 305.4297 -9384.2699 -7575.4662 299.7693 -361.2416 -297.8456 30796.1966 -175.6667 -104.8391
ENERGY: 900000 1.9365 8.7802 13.9441 0.0000 -11046.4616 1523.7721 0.0000 0.0000 1825.8236 -7672.2051 306.0104 -9498.0287 -7589.0247 300.5873 244.0953 287.3641 30670.5666 -69.7575 1.4120
ENERGY: 1200000 2.4872 5.8362 14.5715 0.0000 -10845.3415 1412.1380 0.0000 0.0000 1787.4360 -7622.8726 299.5766 -9410.3086 -7581.3788 300.9128 -265.8966 -213.5577 30438.6086 -180.8029 -109.4049
ENERGY: 1500000 2.1498 4.2341 14.6981 0.0000 -10883.2354 1433.7716 0.0000 0.0000 1822.6034 -7605.7784 305.4707 -9428.3818 -7581.9823 300.9279 -303.1070 -194.5116 30681.4698 -214.1517 -141.6605
TCL: Running FEP window   6: Lambda1 0.7499999999999998 Lambda2 0.6999999999999997 [dLambda -0.050000000000000044]
TCL: Setting parameter firsttimestep to 0
TCL: Setting parameter alchLambda to 0.7499999999999998
Info: NONBONDED TABLE R-SQUARED SPACING: 0.0625
Info: NONBONDED TABLE SIZE: 705 POINTS
TCL: Setting parameter alchLambda2 to 0.6999999999999997
Info: NONBONDED TABLE R-SQUARED SPACING: 0.0625
Info: NONBONDED TABLE SIZE: 705 POINTS
TCL: Running for 1500000 steps
ETITLE: TS BOND ANGLE DIHED IMPRP ELECT VDW BOUNDARY MISC KINETIC TOTAL TEMP POTENTIAL TOTALAVG TEMPAVG PRESSURE GPRESSURE VOLUME PRESSAVG GPRESSAVG
ENERGY: 0 2.1498 4.2341 14.6981 0.0000 -10881.7912 1434.0117 0.0000 0.0000 1821.6921 -7605.0055 305.3179 -9426.6975 -7605.0055 305.3179 -281.8743 -194.8431 30681.4698 -281.8743 -194.8431
ENERGY: 300000 1.2251 10.4908 13.4018 0.0000 -10847.0939 1380.7575 0.0000 0.0000 1680.7538 -7760.4649 281.6965 -9441.2187 -7622.0079 298.1031 -845.7679 -755.2392 30937.4900 11.3139 80.2309
ENERGY: 600000 1.2230 8.0700 14.4409 0.0000 -10783.0558 1416.3747 0.0000 0.0000 1772.2220 -7570.7252 297.0267 -9342.9473 -7615.3550 299.5192 -100.0317 24.2991 30738.7358 35.5280 99.7327
ENERGY: 900000 1.8151 7.5954 15.1183 0.0000 -10900.0726 1411.5811 0.0000 0.0000 1787.4558 -7676.5068 299.5799 -9463.9626 -7623.2507 299.9868 -463.7127 -470.2747 30852.1032 -83.7468 -36.1522
ENERGY: 1200000 0.3178 5.5512 13.7171 0.0000 -10919.5289 1475.7729 0.0000 0.0000 1754.6374 -7669.5325 294.0795 -9424.1699 -7620.1104 299.0111 227.8594 370.1236 30510.1991 -117.3804 -55.0708
ENERGY: 1500000 0.3043 15.6668 13.8999 0.0000 -10990.7707 1525.1388 0.0000 0.0000 1749.8136 -7685.9473 293.2710 -9435.7609 -7623.8955 299.1080 370.8283 471.3684 30775.6239 -103.7709 -35.5487
TCL: Running FEP window   7: Lambda1 0.6999999999999997 Lambda2 0.6499999999999997 [dLambda -0.050000000000000044]
TCL: Setting parameter firsttimestep to 0
TCL: Setting parameter alchLambda to 0.6999999999999997
Info: NONBONDED TABLE R-SQUARED SPACING: 0.0625
Info: NONBONDED TABLE SIZE: 705 POINTS
TCL: Setting parameter alchLambda2 to 0.6499999999999997
Info: NONBONDED TABLE R-SQUARED SPACING: 0.0625
Info: NONBONDED TABLE SIZE: 705 POINTS
TCL: Running for 1500000 steps
ETITLE: TS BOND ANGLE DIHED IMPRP ELECT VDW BOUNDARY MISC KINETIC TOTAL TEMP POTENTIAL TOTALAVG TEMPAVG PRESSURE GPRESSURE VOLUME PRESSAVG GPRESSAVG
ENERGY: 0 0.3043 15.6668 13.8999 0.0000 -10989.3815 1525.2231 0.0000 0.0000 1748.9394 -7685.3479 293.1245 -9434.2873 -7685.3479 293.1245 391.7610 463.6185 30775.6239 391.7610 463.6185
ENERGY: 300000 1.2481 5.5428 15.2243 0.0000 -10819.2245 1380.9009 0.0000 0.0000 1821.5017 -7594.8066 305.2860 -9416.3083 -7632.7551 297.1891 -660.8889 -589.9484 30758.3425 162.9874 232.5973
ENERGY: 600000 2.0380 10.3564 14.1209 0.0000 -10882.6475 1469.6572 0.0000 0.0000 1777.3326 -7609.1423 297.8833 -9386.4749 -7635.5380 297.3546 139.2675 229.7845 30773.0484 -22.6970 41.2995
ENERGY: 900000 0.6317 4.7414 15.3526 0.0000 -10856.2258 1498.8878 0.0000 0.0000 1793.4623 -7543.1501 300.5866 -9336.6124 -7621.1229 297.9934 545.3127 611.1593 30567.9838 -22.5419 38.0874
ENERGY: 1200000 1.1837 10.6876 13.4420 0.0000 -10738.7256 1348.4250 0.0000 0.0000 1789.3730 -7575.6143 299.9012 -9364.9873 -7619.7772 298.5679 -797.2351 -672.9771 30898.5596 -49.2335 13.1137
ENERGY: 1500000 1.9080 9.0233 15.0877 0.0000 -10784.2516 1365.0856 0.0000 0.0000 1821.5314 -7571.6156 305.2910 -9393.1470 -7617.3789 299.0013 -702.8083 -668.5754 30957.4521 -87.3402 -23.7380
TCL: Running FEP window   8: Lambda1 0.6499999999999997 Lambda2 0.5999999999999996 [dLambda -0.050000000000000044]
TCL: Setting parameter firsttimestep to 0
TCL: Setting parameter alchLambda to 0.6499999999999997
Info: NONBONDED TABLE R-SQUARED SPACING: 0.0625
Info: NONBONDED TABLE SIZE: 705 POINTS
TCL: Setting parameter alchLambda2 to 0.5999999999999996
Info: NONBONDED TABLE R-SQUARED SPACING: 0.0625
Info: NONBONDED TABLE SIZE: 705 POINTS
TCL: Running for 1500000 steps
ETITLE: TS BOND ANGLE DIHED IMPRP ELECT VDW BOUNDARY MISC KINETIC TOTAL TEMP POTENTIAL TOTALAVG TEMPAVG PRESSURE GPRESSURE VOLUME PRESSAVG GPRESSAVG
ENERGY: 0 1.9080 9.0233 15.0877 0.0000 -10783.3148 1365.5232 0.0000 0.0000 1820.6684 -7571.1040 305.1464 -9391.7725 -7571.1040 305.1464 -746.1678 -672.1211 30957.4521 -746.1678 -672.1211
ENERGY: 300000 1.1046 7.9581 14.5996 0.0000 -10897.7351 1506.0619 0.0000 0.0000 1752.3779 -7615.6329 293.7008 -9368.0108 -7573.9140 300.6298 361.6703 391.0864 30971.6493 -211.7802 -160.9420
ENERGY: 600000 1.9532 9.1037 14.6169 0.0000 -10784.9808 1403.4449 0.0000 0.0000 1836.8374 -7519.0249 307.8563 -9355.8623 -7551.2330 302.0444 -433.5366 -352.2756 31134.4021 -95.6318 -32.1748
ENERGY: 900000 1.0591 11.6945 14.3159 0.0000 -10649.0603 1352.7793 0.0000 0.0000 1804.5011 -7464.7104 302.4367 -9269.2115 -7557.9133 301.0238 -733.3616 -605.2006 31391.6496 -76.1154 -5.8586
ENERGY: 1200000 1.7198 5.7786 13.0065 0.0000 -10956.5628 1513.6645 0.0000 0.0000 1769.6231 -7652.7703 296.5911 -9422.3933 -7578.4527 300.3763 590.5964 609.2300 30441.0919 -24.0172 49.3970
ENERGY: 1500000 2.8754 8.7353 14.0074 0.0000 -10881.3877 1441.8463 0.0000 0.0000 1787.7804 -7626.1429 299.6343 -9413.9233 -7595.7416 299.5752 -139.7634 -80.0216 30618.9309 -79.2696 -12.9841
TCL: Running FEP window   9: Lambda1 0.5999999999999996 Lambda2 0.5499999999999996 [dLambda -0.050000000000000044]
TCL: Setting parameter firsttimestep to 0
TCL: Setting parameter alchLambda to 0.5999999999999996
Info: NONBONDED TABLE R-SQUARED SPACING: 0.0625
Info: NONBONDED TABLE SIZE: 705 POINTS
TCL: Setting parameter alchLambda2 to 0.5499999999999996
Info: NONBONDED TABLE R-SQUARED SPACING: 0.0625
Info: NONBONDED TABLE SIZE: 705 POINTS
TCL: Running for 1500000 steps
ETITLE: TS BOND ANGLE DIHED IMPRP ELECT VDW BOUNDARY MISC KINETIC TOTAL TEMP POTENTIAL TOTALAVG TEMPAVG PRESSURE GPRESSURE VOLUME PRESSAVG GPRESSAVG
ENERGY: 0 2.8754 8.7353 14.0074 0.0000 -10881.1682 1440.8365 0.0000 0.0000 1786.8715 -7627.8420 299.4820 -9414.7135 -7627.8420 299.4820 -171.3103 -94.2198 30618.9309 -171.3103 -94.2198
ENERGY: 300000 1.7946 7.5043 14.2407 0.0000 -10949.8012 1512.6917 0.0000 0.0000 1788.1905 -7625.3794 299.7030 -9413.5699 -7622.3981 297.9105 9.9748 45.4195 31487.8040 -29.0625 44.0030
ENERGY: 600000 1.0987 14.4988 15.0109 0.0000 -10876.4368 1456.5855 0.0000 0.0000 1746.9697 -7642.2732 292.7944 -9389.2429 -7620.6047 298.0287 94.7882 146.4224 30490.8541 -40.2337 13.6674
ENERGY: 900000 0.6903 9.1418 14.2109 0.0000 -10821.0728 1419.8798 0.0000 0.0000 1755.0912 -7622.0588 294.1556 -9377.1501 -7633.6378 297.7468 -117.6425 -53.0807 30603.7575 42.8322 96.7156
ENERGY: 1200000 1.0458 5.7338 13.6086 0.0000 -10742.8203 1387.4867 0.0000 0.0000 1812.9461 -7521.9994 303.8521 -9334.9455 -7617.6511 298.6513 -483.7910 -469.1629 31144.3806 106.6320 157.9862
ENERGY: 1500000 2.6792 8.7946 13.5159 0.0000 -10841.7055 1439.4369 0.0000 0.0000 1770.4777 -7606.8012 296.7344 -9377.2789 -7620.1405 298.7722 -247.1203 -236.4926 30915.7677 89.8259 136.9719
TCL: Running FEP window  10: Lambda1 0.5499999999999996 Lambda2 0.4999999999999996 [dLambda -0.04999999999999999]
TCL: Setting parameter firsttimestep to 0
TCL: Setting parameter alchLambda to 0.5499999999999996
Info: NONBONDED TABLE R-SQUARED SPACING: 0.0625
Info: NONBONDED TABLE SIZE: 705 POINTS
TCL: Setting parameter alchLambda2 to 0.4999999999999996
Info: NONBONDED TABLE R-SQUARED SPACING: 0.0625
Info: NONBONDED TABLE SIZE: 705 POINTS
TCL: Running for 1500000 steps
ETITLE: TS BOND ANGLE DIHED IMPRP ELECT VDW BOUNDARY MISC KINETIC TOTAL TEMP POTENTIAL TOTALAVG TEMPAVG PRESSURE GPRESSURE VOLUME PRESSAVG GPRESSAVG
ENERGY: 0 2.6792 8.7946 13.5159 0.0000 -10841.3733 1439.2777 0.0000 0.0000 1769.5690 -7607.5369 296.5821 -9377.1059 -7607.5369 296.5821 -325.1529 -243.0139 30915.7677 -325.1529 -243.0139
ENERGY: 300000 2.1091 7.8193 14.4146 0.0000 -10785.8115 1408.8923 0.0000 0.0000 1814.7379 -7537.8384 304.1524 -9352.5763 -7578.2530 299.8397 -558.9073 -480.2931 30819.1509 -411.5816 -335.8106
ENERGY: 600000 2.2416 12.7666 14.6578 0.0000 -10982.5581 1559.0901 0.0000 0.0000 1756.9930 -7636.8088 294.4743 -9393.8019 -7617.1844 297.2601 386.5263 487.4609 31051.7520 -280.3744 -218.4730
ENERGY: 900000 0.3410 9.7066 12.4138 0.0000 -10928.2764 1458.8154 0.0000 0.0000 1806.0060 -7640.9936 302.6889 -9446.9996 -7612.4622 298.5965 -278.7166 -200.8858 30874.4223 -226.5565 -160.6144
ENERGY: 1200000 3.7096 7.1063 12.9935 0.0000 -10863.4344 1466.9040 0.0000 0.0000 1758.9533 -7613.7679 294.8029 -9372.7212 -7615.0010 298.9564 -61.4757 42.6674 30887.8336 -203.5315 -136.2611
ENERGY: 1500000 1.7345 6.2254 13.8389 0.0000 -10823.0135 1408.7457 0.0000 0.0000 1758.3561 -7634.1129 294.7028 -9392.4690 -7603.1444 299.2196 -485.3242 -434.0296 31166.6470 -142.6698 -81.7821
TCL: Running FEP window  11: Lambda1 0.4999999999999996 Lambda2 0.4499999999999996 [dLambda -0.04999999999999999]
TCL: Setting parameter firsttimestep to 0
TCL: Setting parameter alchLambda to 0.4999999999999996
Info: NONBONDED TABLE R-SQUARED SPACING: 0.0625
Info: NONBONDED TABLE SIZE: 705 POINTS
TCL: Setting parameter alchLambda2 to 0.4499999999999996
Info: NONBONDED TABLE R-SQUARED SPACING: 0.0625
Info: NONBONDED TABLE SIZE: 705 POINTS
TCL: Running for 1500000 steps
ETITLE: TS BOND ANGLE DIHED IMPRP ELECT VDW BOUNDARY MISC KINETIC TOTAL TEMP POTENTIAL TOTALAVG TEMPAVG PRESSURE GPRESSURE VOLUME PRESSAVG GPRESSAVG
ENERGY: 0 1.7345 6.2254 13.8389 0.0000 -10822.2542 1408.5992 0.0000 0.0000 1757.5015 -7634.3547 294.5595 -9391.8562 -7634.3547 294.5595 -498.2478 -436.3694 31166.6470 -498.2478 -436.3694
ENERGY: 300000 1.7641 4.7881 14.3956 0.0000 -10943.0005 1500.9126 0.0000 0.0000 1817.2843 -7603.8558 304.5792 -9421.1401 -7622.6653 298.6996 610.3713 673.9901 30042.9262 66.2906 127.4532
ENERGY: 600000 1.0909 7.4691 14.4122 0.0000 -10746.9101 1433.4933 0.0000 0.0000 1757.9969 -7532.4478 294.6426 -9290.4446 -7607.9185 298.4581 -16.6514 -19.0523 31085.1174 115.5053 157.7137
ENERGY: 900000 0.9527 11.9549 15.1590 0.0000 -10902.0111 1508.3080 0.0000 0.0000 1799.1863 -7566.4501 301.5460 -9365.6365 -7601.1947 299.5189 719.5464 800.4220 30182.2919 84.5803 147.1013
ENERGY: 1200000 1.3386 7.8161 13.7930 0.0000 -10923.6221 1470.1434 0.0000 0.0000 1773.1295 -7657.4016 297.1788 -9430.5310 -7602.4266 299.0575 -101.7911 -35.6903 30617.8554 18.3677 84.3253
ENERGY: 1500000 1.7481 5.9964 13.3199 0.0000 -10877.2147 1536.1871 0.0000 0.0000 1735.7079 -7584.2553 290.9069 -9319.9632 -7592.5628 299.1445 479.2108 535.3751 31135.3634 19.7819 84.6308
TCL: Running FEP window  12: Lambda1 0.4499999999999996 Lambda2 0.39999999999999963 [dLambda -0.04999999999999999]
TCL: Setting parameter firsttimestep to 0
TCL: Setting parameter alchLambda to 0.4499999999999996
Info: NONBONDED TABLE R-SQUARED SPACING: 0.0625
Info: NONBONDED TABLE SIZE: 705 POINTS
TCL: Setting parameter alchLambda2 to 0.39999999999999963
Info: NONBONDED TABLE R-SQUARED SPACING: 0.0625
Info: NONBONDED TABLE SIZE: 705 POINTS
TCL: Running for 1500000 steps
ETITLE: TS BOND ANGLE DIHED IMPRP ELECT VDW BOUNDARY MISC KINETIC TOTAL TEMP POTENTIAL TOTALAVG TEMPAVG PRESSURE GPRESSURE VOLUME PRESSAVG GPRESSAVG
ENERGY: 0 1.7481 5.9964 13.3199 0.0000 -10877.2139 1536.3703 0.0000 0.0000 1734.7988 -7584.9804 290.7545 -9319.7792 -7584.9804 290.7545 441.8439 528.3782 31135.3634 441.8439 528.3782
ENERGY: 300000 2.0053 5.4560 15.9258 0.0000 -10755.8493 1347.6881 0.0000 0.0000 1768.8692 -7615.9049 296.4648 -9384.7741 -7585.9178 298.5518 -1164.5746 -1030.0587 31102.4872 -206.2411 -122.4909
ENERGY: 600000 2.1807 8.7932 14.1402 0.0000 -10763.2165 1353.6107 0.0000 0.0000 1766.0765 -7618.4152 295.9967 -9384.4918 -7595.1717 298.0379 -777.3123 -736.0177 30646.9804 -276.6058 -196.7338
ENERGY: 900000 0.6497 7.2921 13.5205 0.0000 -10977.8602 1505.4394 0.0000 0.0000 1848.0191 -7602.9394 309.7304 -9450.9585 -7602.5146 298.9760 271.3071 329.3287 30501.6802 -142.8778 -70.3043
ENERGY: 1200000 2.7641 7.0178 14.6808 0.0000 -11000.6844 1575.3415 0.0000 0.0000 1767.7349 -7633.1452 296.2747 -9400.8801 -7608.1869 298.7409 653.9861 764.8415 30915.9774 13.2429 87.0090
ENERGY: 1500000 2.3297 5.1878 13.8046 0.0000 -10747.9684 1339.7596 0.0000 0.0000 1792.1482 -7594.7386 300.3664 -9386.8869 -7615.1012 298.5262 -785.9655 -734.9010 30565.8758 -20.2053 51.1378
TCL: Running FEP window  13: Lambda1 0.39999999999999963 Lambda2 0.34999999999999964 [dLambda -0.04999999999999999]
TCL: Setting parameter firsttimestep to 0
TCL: Setting parameter alchLambda to 0.39999999999999963
Info: NONBONDED TABLE R-SQUARED SPACING: 0.0625
Info: NONBONDED TABLE SIZE: 705 POINTS
TCL: Setting parameter alchLambda2 to 0.34999999999999964
Info: NONBONDED TABLE R-SQUARED SPACING: 0.0625
Info: NONBONDED TABLE SIZE: 705 POINTS
TCL: Running for 1500000 steps
ETITLE: TS BOND ANGLE DIHED IMPRP ELECT VDW BOUNDARY MISC KINETIC TOTAL TEMP POTENTIAL TOTALAVG TEMPAVG PRESSURE GPRESSURE VOLUME PRESSAVG GPRESSAVG
ENERGY: 0 2.3297 5.1878 13.8046 0.0000 -10747.9690 1339.5108 0.0000 0.0000 1791.2662 -7595.8699 300.2185 -9387.1362 -7595.8699 300.2185 -828.0621 -743.2258 30565.8758 -828.0621 -743.2258
ENERGY: 300000 2.3120 6.2034 13.6574 0.0000 -10739.5124 1368.2291 0.0000 0.0000 1795.3661 -7553.7443 300.9057 -9349.1105 -7562.3572 303.0660 -857.5152 -775.6615 31515.0890 -710.1756 -638.1397
ENERGY: 600000 3.0936 13.3198 14.0377 0.0000 -10988.5936 1508.3581 0.0000 0.0000 1819.0673 -7630.7171 304.8780 -9449.7843 -7565.4241 302.9206 234.1067 225.8876 30915.5894 -365.1351 -311.8153
ENERGY: 900000 1.7592 5.4420 14.3869 0.0000 -10739.8764 1402.5468 0.0000 0.0000 1818.6972 -7497.0443 304.8160 -9315.7415 -7555.8688 303.6107 -355.9199 -341.4508 31193.2138 -248.7205 -204.1737
ENERGY: 1200000 1.7200 11.2271 13.5844 0.0000 -10786.1287 1407.7874 0.0000 0.0000 1872.7360 -7479.0737 313.8730 -9351.8097 -7547.3794 304.1264 -335.7493 -308.5725 30910.4642 -249.2557 -206.7904
ENERGY: 1500000 0.9724 6.7594 14.5388 0.0000 -11004.7001 1511.9668 0.0000 0.0000 1802.0436 -7668.4191 302.0248 -9470.4627 -7566.9536 304.3774 317.7657 342.0559 30503.4162 -225.8350 -183.6060
TCL: Running FEP window  14: Lambda1 0.34999999999999964 Lambda2 0.29999999999999966 [dLambda -0.04999999999999999]
TCL: Setting parameter firsttimestep to 0
TCL: Setting parameter alchLambda to 0.34999999999999964
Info: NONBONDED TABLE R-SQUARED SPACING: 0.0625
Info: NONBONDED TABLE SIZE: 705 POINTS
TCL: Setting parameter alchLambda2 to 0.29999999999999966
Info: NONBONDED TABLE R-SQUARED SPACING: 0.0625
Info: NONBONDED TABLE SIZE: 705 POINTS
TCL: Running for 1500000 steps
ETITLE: TS BOND ANGLE DIHED IMPRP ELECT VDW BOUNDARY MISC KINETIC TOTAL TEMP POTENTIAL TOTALAVG TEMPAVG PRESSURE GPRESSURE VOLUME PRESSAVG GPRESSAVG
ENERGY: 0 0.9724 6.7594 14.5388 0.0000 -11004.7004 1510.9788 0.0000 0.0000 1801.1528 -7670.2981 301.8756 -9471.4510 -7670.2981 301.8756 263.3434 329.5193 30503.4162 263.3434 329.5193
ENERGY: 300000 4.1348 7.7120 16.1915 0.0000 -10840.0841 1474.1047 0.0000 0.0000 1789.0109 -7548.9303 299.8405 -9337.9412 -7611.5263 298.1329 -24.6851 8.4673 31157.2703 99.6634 143.4960
ENERGY: 600000 1.3393 7.7444 12.9431 0.0000 -10886.9839 1412.0345 0.0000 0.0000 1794.8209 -7658.1017 300.8143 -9452.9226 -7607.7093 298.4939 -685.9388 -611.4876 30964.0824 -98.1124 -44.8628
ENERGY: 900000 2.7074 8.6950 14.6548 0.0000 -10918.9052 1488.9397 0.0000 0.0000 1778.2368 -7625.6715 298.0348 -9403.9084 -7622.5093 298.3779 194.5823 249.9280 30448.9741 26.4957 69.6271
ENERGY: 1200000 1.8098 7.0285 14.7349 0.0000 -11071.7335 1610.9418 0.0000 0.0000 1798.4870 -7638.7316 301.4288 -9437.2186 -7609.6197 299.4838 1406.7928 1496.5074 30042.2886 164.5628 216.2285
ENERGY: 1500000 1.9678 16.9495 15.3475 0.0000 -10873.7313 1421.0799 0.0000 0.0000 1782.1236 -7636.2630 298.6862 -9418.3865 -7615.0166 299.9728 -135.8159 -84.8337 30327.7520 118.6219 168.7248
TCL: Running FEP window  15: Lambda1 0.29999999999999966 Lambda2 0.24999999999999967 [dLambda -0.04999999999999999]
TCL: Setting parameter firsttimestep to 0
TCL: Setting parameter alchLambda to 0.29999999999999966
Info: NONBONDED TABLE R-SQUARED SPACING: 0.0625
Info: NONBONDED TABLE SIZE: 705 POINTS
TCL: Setting parameter alchLambda2 to 0.24999999999999967
Info: NONBONDED TABLE R-SQUARED SPACING: 0.0625
Info: NONBONDED TABLE SIZE: 705 POINTS
TCL: Running for 1500000 steps
ETITLE: TS BOND ANGLE DIHED IMPRP ELECT VDW BOUNDARY MISC KINETIC TOTAL TEMP POTENTIAL TOTALAVG TEMPAVG PRESSURE GPRESSURE VOLUME PRESSAVG GPRESSAVG
ENERGY: 0 1.9678 16.9495 15.3475 0.0000 -10873.7303 1421.6183 0.0000 0.0000 1781.3021 -7636.5450 298.5485 -9417.8471 -7636.5450 298.5485 -162.6485 -86.3070 30327.7520 -162.6485 -86.3070
ENERGY: 300000 2.2376 5.2040 14.7904 0.0000 -10882.9863 1465.9834 0.0000 0.0000 1772.0867 -7622.6843 297.0040 -9394.7710 -7603.0703 301.2964 26.2862 130.0382 30608.5700 -141.5386 -63.7066
ENERGY: 600000 2.5879 7.6392 14.6998 0.0000 -10904.0840 1443.2523 0.0000 0.0000 1833.2954 -7602.6095 307.2627 -9435.9048 -7604.2266 301.9725 -327.2043 -265.8737 30991.7201 -187.7227 -99.9879
ENERGY: 900000 6.1832 7.7721 13.3829 0.0000 -10934.1676 1563.1904 0.0000 0.0000 1764.3153 -7579.3238 295.7015 -9343.6390 -7597.3136 299.8742 518.8204 532.1886 31087.4594 -63.0326 10.5900
ENERGY: 1200000 0.6815 7.5256 13.9897 0.0000 -10862.3044 1412.0473 0.0000 0.0000 1789.4478 -7638.6124 299.9138 -9428.0602 -7602.6505 299.3870 -362.7049 -309.4033 30586.7318 -91.3821 -19.1297
ENERGY: 1500000 2.1392 7.5556 12.8421 0.0000 -10869.7004 1448.3262 0.0000 0.0000 1767.3333 -7631.5039 296.2074 -9398.8372 -7597.0395 299.7429 -132.3833 -46.9273 30667.4025 -100.7120 -27.6366
TCL: Running FEP window  16: Lambda1 0.24999999999999967 Lambda2 0.19999999999999968 [dLambda -0.04999999999999999]
TCL: Setting parameter firsttimestep to 0
TCL: Setting parameter alchLambda to 0.24999999999999967
Info: NONBONDED TABLE R-SQUARED SPACING: 0.0625
Info: NONBONDED TABLE SIZE: 705 POINTS
TCL: Setting parameter alchLambda2 to 0.19999999999999968
Info: NONBONDED TABLE R-SQUARED SPACING: 0.0625
Info: NONBONDED TABLE SIZE: 705 POINTS
TCL: Running for 1500000 steps
ETITLE: TS BOND ANGLE DIHED IMPRP ELECT VDW BOUNDARY MISC KINETIC TOTAL TEMP POTENTIAL TOTALAVG TEMPAVG PRESSURE GPRESSURE VOLUME PRESSAVG GPRESSAVG
ENERGY: 0 2.1392 7.5556 12.8421 0.0000 -10869.6998 1448.0952 0.0000 0.0000 1766.4167 -7632.6509 296.0537 -9399.0676 -7632.6509 296.0537 -123.2199 -52.0112 30667.4025 -123.2199 -52.0112
ENERGY: 300000 1.3080 3.8079 15.4409 0.0000 -11088.0121 1616.0061 0.0000 0.0000 1796.2706 -7655.1787 301.0573 -9451.4494 -7621.6055 299.1950 1070.1471 1105.3343 30633.0959 237.7761 305.9495
ENERGY: 600000 3.0387 5.0361 16.1110 0.0000 -10828.9511 1444.5445 0.0000 0.0000 1783.7040 -7576.5168 298.9511 -9360.2207 -7607.5559 299.7211 -392.9350 -306.3127 31267.1394 148.4721 218.0142
ENERGY: 900000 1.0931 9.5916 14.7370 0.0000 -10907.7770 1465.1620 0.0000 0.0000 1805.7719 -7611.4214 302.6497 -9417.1933 -7591.8121 301.0588 -267.4830 -198.2708 30822.3709 162.1773 226.5941
ENERGY: 1200000 1.4524 8.1167 14.6058 0.0000 -10834.3001 1417.5796 0.0000 0.0000 1848.3238 -7544.2218 309.7815 -9392.5456 -7601.7352 300.7233 -350.4483 -350.7623 30815.6034 20.9187 69.9548
ENERGY: 1500000 4.8354 4.8241 13.0751 0.0000 -10753.6611 1392.2659 0.0000 0.0000 1778.2373 -7560.4233 298.0349 -9338.6606 -7606.4024 299.6722 -433.2871 -414.2752 30871.7714 -47.3856 3.9994
TCL: Running FEP window  17: Lambda1 0.19999999999999968 Lambda2 0.1499999999999997 [dLambda -0.04999999999999999]
TCL: Setting parameter firsttimestep to 0
TCL: Setting parameter alchLambda to 0.19999999999999968
Info: NONBONDED TABLE R-SQUARED SPACING: 0.0625
Info: NONBONDED TABLE SIZE: 705 POINTS
TCL: Setting parameter alchLambda2 to 0.1499999999999997
Info: NONBONDED TABLE R-SQUARED SPACING: 0.0625
Info: NONBONDED TABLE SIZE: 705 POINTS
TCL: Running for 1500000 steps
ETITLE: TS BOND ANGLE DIHED IMPRP ELECT VDW BOUNDARY MISC KINETIC TOTAL TEMP POTENTIAL TOTALAVG TEMPAVG PRESSURE GPRESSURE VOLUME PRESSAVG GPRESSAVG
ENERGY: 0 4.8354 4.8241 13.0751 0.0000 -10753.6628 1392.6673 0.0000 0.0000 1777.3220 -7560.9389 297.8815 -9338.2609 -7560.9389 297.8815 -496.7164 -419.3744 30871.7714 -496.7164 -419.3744
ENERGY: 300000 1.5157 7.6800 13.2972 0.0000 -10797.1608 1450.7659 0.0000 0.0000 1773.1837 -7550.7184 297.1879 -9323.9020 -7600.6285 298.8745 -390.2531 -268.2479 31438.2011 -217.0640 -137.9867
ENERGY: 600000 1.9138 7.7256 12.8892 0.0000 -10996.7427 1535.9935 0.0000 0.0000 1856.2518 -7581.9688 311.1102 -9438.2206 -7608.2857 300.4077 411.3603 523.1885 30528.0944 -61.3542 23.5922
ENERGY: 900000 1.4575 6.1171 13.6347 0.0000 -10801.7360 1424.6246 0.0000 0.0000 1786.3768 -7569.5253 299.3991 -9355.9021 -7589.7733 300.9500 -436.9961 -380.7071 31402.8837 -66.3484 8.3197
ENERGY: 1200000 1.5979 3.6421 14.9883 0.0000 -10968.7548 1541.7097 0.0000 0.0000 1796.7071 -7610.1098 301.1304 -9406.8169 -7587.8061 301.4909 347.6129 403.6127 30944.3633 -10.9750 64.5260
ENERGY: 1500000 2.2056 10.1878 14.6746 0.0000 -10785.9167 1352.5519 0.0000 0.0000 1778.4342 -7627.8625 298.0679 -9406.2967 -7590.6728 301.4450 -1262.4183 -1221.9834 31450.0809 -134.5957 -56.3602
TCL: Running FEP window  18: Lambda1 0.1499999999999997 Lambda2 0.09999999999999969 [dLambda -0.05 ]
TCL: Setting parameter firsttimestep to 0
TCL: Setting parameter alchLambda to 0.1499999999999997
Info: NONBONDED TABLE R-SQUARED SPACING: 0.0625
Info: NONBONDED TABLE SIZE: 705 POINTS
TCL: Setting parameter alchLambda2 to 0.09999999999999969
Info: NONBONDED TABLE R-SQUARED SPACING: 0.0625
Info: NONBONDED TABLE SIZE: 705 POINTS
TCL: Running for 1500000 steps
ETITLE: TS BOND ANGLE DIHED IMPRP ELECT VDW BOUNDARY MISC KINETIC TOTAL TEMP POTENTIAL TOTALAVG TEMPAVG PRESSURE GPRESSURE VOLUME PRESSAVG GPRESSAVG
ENERGY: 0 2.2057 10.1879 14.6746 0.0000 -10785.9167 1352.5416 0.0000 0.0000 1777.5255 -7628.7815 297.9156 -9406.3070 -7628.7815 297.9156 -1294.3943 -1224.6083 31450.0809 -1294.3943 -1224.6083
ENERGY: 300000 1.6949 8.3756 13.8330 0.0000 -10865.2018 1420.1683 0.0000 0.0000 1741.3822 -7679.7478 291.8579 -9421.1300 -7660.9746 293.1930 -329.5202 -275.5772 30430.0107 -411.5881 -386.3598
ENERGY: 600000 1.9217 3.4092 14.9208 0.0000 -10778.3867 1386.8684 0.0000 0.0000 1783.5330 -7587.7337 298.9224 -9371.2667 -7623.8798 297.2299 -526.6151 -450.2220 30594.9847 -324.6715 -279.1460
ENERGY: 900000 2.1999 7.3524 13.1045 0.0000 -10860.0052 1452.5888 0.0000 0.0000 1800.8132 -7583.9464 301.8186 -9384.7595 -7625.7205 298.3445 -106.5688 -55.8161 30743.1379 -220.1412 -170.5930
ENERGY: 1200000 2.3289 10.1867 13.8546 0.0000 -10713.5096 1381.4609 0.0000 0.0000 1743.8773 -7561.8013 292.2761 -9305.6786 -7619.4883 297.6372 -291.7865 -245.9698 31027.7704 -228.3833 -178.1070
ENERGY: 1500000 5.7853 6.2285 15.1344 0.0000 -10998.3451 1576.9790 0.0000 0.0000 1795.5157 -7598.7022 300.9308 -9394.2179 -7619.8605 297.5499 431.0776 491.3651 31175.0337 -217.8651 -166.9875
TCL: Running FEP window  19: Lambda1 0.09999999999999969 Lambda2 0.049999999999999684 [dLambda -0.05 ]
TCL: Setting parameter firsttimestep to 0
TCL: Setting parameter alchLambda to 0.09999999999999969
Info: NONBONDED TABLE R-SQUARED SPACING: 0.0625
Info: NONBONDED TABLE SIZE: 705 POINTS
TCL: Setting parameter alchLambda2 to 0.049999999999999684
Info: NONBONDED TABLE R-SQUARED SPACING: 0.0625
Info: NONBONDED TABLE SIZE: 705 POINTS
TCL: Running for 1500000 steps
ETITLE: TS BOND ANGLE DIHED IMPRP ELECT VDW BOUNDARY MISC KINETIC TOTAL TEMP POTENTIAL TOTALAVG TEMPAVG PRESSURE GPRESSURE VOLUME PRESSAVG GPRESSAVG
ENERGY: 0 5.7853 6.2285 15.1344 0.0000 -10998.3455 1576.3657 0.0000 0.0000 1794.5992 -7600.2324 300.7771 -9394.8316 -7600.2324 300.7771 392.6599 486.7092 31175.0337 392.6599 486.7092
ENERGY: 300000 1.3732 9.5634 14.2300 0.0000 -10779.2458 1415.2841 0.0000 0.0000 1802.8466 -7535.9485 302.1594 -9338.7951 -7570.5562 300.2398 -254.7895 -160.6416 30709.7064 58.0832 152.5190
ENERGY: 600000 2.5730 6.4423 15.7837 0.0000 -10857.5865 1366.3548 0.0000 0.0000 1787.3450 -7679.0877 299.5613 -9466.4327 -7585.5218 302.1624 -1323.4945 -1229.9090 31077.4592 -122.7724 -37.6788
ENERGY: 900000 1.9881 5.2449 13.5631 0.0000 -10867.3352 1477.7171 0.0000 0.0000 1803.6119 -7565.2102 302.2877 -9368.8221 -7589.1877 300.8325 294.5041 332.9612 30519.1578 -18.3845 60.5905
ENERGY: 1200000 1.9112 8.5501 13.6804 0.0000 -10795.3391 1413.4754 0.0000 0.0000 1746.1268 -7611.5951 292.6531 -9357.7220 -7582.1098 300.0527 -283.5955 -271.8523 30871.1565 -143.4848 -69.0634
ENERGY: 1500000 1.5671 9.5210 13.8836 0.0000 -10863.5099 1438.7191 0.0000 0.0000 1812.2450 -7587.5741 303.7346 -9399.8191 -7581.3342 300.4251 -244.2132 -298.9092 30903.2704 -149.3778 -86.7189
TCL: Running FEP window  20: Lambda1 0.049999999999999684 Lambda2 0.0    [dLambda -0.049999999999999684]
TCL: Setting parameter firsttimestep to 0
TCL: Setting parameter alchLambda to 0.049999999999999684
Info: NONBONDED TABLE R-SQUARED SPACING: 0.0625
Info: NONBONDED TABLE SIZE: 705 POINTS
TCL: Setting parameter alchLambda2 to 0.0
Info: NONBONDED TABLE R-SQUARED SPACING: 0.0625
Info: NONBONDED TABLE SIZE: 705 POINTS
TCL: Running for 1500000 steps
ETITLE: TS BOND ANGLE DIHED IMPRP ELECT VDW BOUNDARY MISC KINETIC TOTAL TEMP POTENTIAL TOTALAVG TEMPAVG PRESSURE GPRESSURE VOLUME PRESSAVG GPRESSAVG
ENERGY: 0 1.5671 9.5210 13.8836 0.0000 -10863.5105 1437.0978 0.0000 0.0000 1811.3611 -7590.0798 303.5865 -9401.4410 -7590.0798 303.5865 -392.1348 -306.2288 30903.2704 -392.1348 -306.2288
ENERGY: 300000 1.5941 6.7367 15.9266 0.0000 -10839.5656 1419.1001 0.0000 0.0000 1817.4784 -7578.7296 304.6117 -9396.2080 -7599.0320 300.8026 -467.9890 -378.2324 30793.7385 67.9843 158.3511
ENERGY: 600000 1.7684 11.5444 14.1014 0.0000 -11045.0940 1546.7301 0.0000 0.0000 1744.7440 -7726.2057 292.4214 -9470.9497 -7618.6509 298.7899 132.4789 178.1439 30899.8165 178.3996 236.2128
ENERGY: 900000 1.6948 5.9191 12.4553 0.0000 -10855.0523 1504.9358 0.0000 0.0000 1719.0907 -7610.9565 288.1218 -9330.0472 -7618.4037 297.0901 479.2369 536.8940 30794.2360 174.6760 239.4363
ENERGY: 1200000 1.1576 7.3119 14.5397 0.0000 -10972.4734 1556.9928 0.0000 0.0000 1847.8124 -7544.6589 309.6958 -9392.4713 -7596.2781 299.1112 815.4978 937.9874 30293.5837 228.6536 300.6686
ENERGY: 1500000 0.8134 4.9623 15.1105 0.0000 -10890.3265 1460.7152 0.0000 0.0000 1786.1562 -7622.5688 299.3621 -9408.7250 -7600.6627 299.6791 -5.5099 40.8577 30469.9155 85.1833 149.7595
TCL: Exiting due to exit command.
