Info: SIMULATION PARAMETERS:
Info: TIMESTEP               2
Info: NUMBER OF STEPS        0
Info: STEPS PER CYCLE        10
Info: PERIODIC CELL BASIS 1  31.5952 0 0
Info: PERIODIC CELL BASIS 2  0 30.0639 0
Info: PERIODIC CELL BASIS 3  0 0 31.3477
Info: PERIODIC CELL CENTER   0 0 0
Info: WRAPPING WATERS AROUND PERIODIC BOUNDARIES ON OUTPUT.
Info: WRAPPING ALL CLUSTERS AROUND PERIODIC BOUNDARIES ON OUTPUT.
Info: FIRST LDB TIMESTEP     50
Info: LAST LDB TIMESTEP     -1
Info: HOM BACKGROUND SCALING 1
Info: PME BACKGROUND SCALING 1
Info: MIN ATOMS PER PATCH    40
Info: EMPTY PATCH LOAD       40 ATOMS
Info: VELOCITY FILE          mobley_9246215_equil.vel
Info: CENTER OF MASS MOVING INITIALLY? NO
Info: DIELECTRIC             1
Info: EXCLUDE                SCALED ONE-FOUR
Info: 1-4 ELECTROSTATICS SCALED BY 0.833333
Info: MODIFIED 1-4 VDW PARAMETERS WILL BE USED
Info: DCD FILENAME           mobley_9246215_prod.dcd
Info: DCD FREQUENCY          100000
Info: DCD FIRST STEP         100000
Info: DCD FILE WILL CONTAIN UNIT CELL DATA
Info: XST FILENAME           mobley_9246215_prod.xst
Info: XST FREQUENCY          100000
Info: NO VELOCITY DCD OUTPUT
Info: NO FORCE DCD OUTPUT
Info: OUTPUT FILENAME        mobley_9246215_prod
Info: BINARY OUTPUT FILES WILL BE USED
Info: RESTART FILENAME       mobley_9246215_prod.restart
Info: RESTART FREQUENCY      100000
Info: BINARY RESTART FILES WILL BE USED
Info: CUTOFF                 9
Info: PAIRLIST DISTANCE      11
Info: PAIRLIST SHRINK RATE   0.01
Info: PAIRLIST GROW RATE     0.01
Info: PAIRLIST TRIGGER       0.3
Info: PAIRLISTS PER CYCLE    2
Info: PAIRLISTS ENABLED
Info: MARGIN                 2
Info: HYDROGEN GROUP CUTOFF  2.5
Info: PATCH DIMENSION        15.5
Info: ENERGY OUTPUT STEPS    100000
Info: ENERGY EVALUATION STEPS    100000
Info: OUTPUT ENERGY PRECISION 4
Info: CROSSTERM ENERGY INCLUDED IN DIHEDRAL
Info: TIMING OUTPUT STEPS    1000000
Info: PRESSURE OUTPUT STEPS  100000
Info: ALCHEMICAL FEP ON
Info: FEP CURRENT LAMBDA VALUE     1
Info: FEP COMPARISON LAMBDA VALUE  0.95
Info: FEP INTRA-ALCHEMICAL NON-BONDED INTERACTIONS WILL BE RETAINED
Info: FEP INTRA-ALCHEMICAL BONDED INTERACTIONS WILL BE RETAINED
Info: FEP VDW SHIFTING COEFFICIENT 5
Info: FEP ELEC. ACTIVE FOR ANNIHILATED PARTICLES BETWEEN LAMBDA = 0 AND LAMBDA = 0.5
Info: FEP ELEC. ACTIVE FOR EXNIHILATED PARTICLES BETWEEN LAMBDA = 0.5 AND LAMBDA = 1
Info: FEP VDW ACTIVE FOR ANNIHILATED PARTICLES BETWEEN LAMBDA = 0 AND LAMBDA = 1
Info: FEP VDW ACTIVE FOR EXNIHILATED PARTICLES BETWEEN LAMBDA = 0 AND LAMBDA = 1
Info: FEP BOND ACTIVE FOR ANNIHILATED PARTICLES BETWEEN LAMBDA = 1 AND LAMBDA = 1
Info: FEP BOND ACTIVE FOR EXNIHILATED PARTICLES BETWEEN LAMBDA = 0 AND LAMBDA = 0
Info: LANGEVIN DYNAMICS ACTIVE
Info: LANGEVIN TEMPERATURE   300
Info: LANGEVIN USING BBK INTEGRATOR
Info: LANGEVIN DAMPING COEFFICIENT IS 1 INVERSE PS
Info: LANGEVIN DYNAMICS APPLIED TO HYDROGENS
Info: LANGEVIN PISTON PRESSURE CONTROL ACTIVE
Info:        TARGET PRESSURE IS 1.01325 BAR
Info:     OSCILLATION PERIOD IS 50 FS
Info:             DECAY TIME IS 25 FS
Info:     PISTON TEMPERATURE IS 300 K
Info:       PRESSURE CONTROL IS GROUP-BASED
Info:    INITIAL STRAIN RATE IS 0.000387744 0.000387744 0.000387744
Info:       CELL FLUCTUATION IS ISOTROPIC
Info: PARTICLE MESH EWALD (PME) ACTIVE
Info: PME TOLERANCE               1e-06
Info: PME EWALD COEFFICIENT       0.348832
Info: PME INTERPOLATION ORDER     4
Info: PME GRID DIMENSIONS         32 32 32
Info: PME MAXIMUM GRID SPACING    1
Info: PME CALCULATION WILL BE PERFORMED ON GPU
Info: FULL ELECTROSTATIC EVALUATION FREQUENCY      2
Info: USING VERLET I (r-RESPA) MTS SCHEME.
Info: C1 SPLITTING OF LONG RANGE ELECTROSTATICS
Info: PLACING ATOMS IN PATCHES BY HYDROGEN GROUPS
Info: RIGID BONDS TO HYDROGEN : ALL
Info:         ERROR TOLERANCE : 1e-08
Info:          MAX ITERATIONS : 100
Info: RIGID WATER USING SETTLE ALGORITHM
Info: RANDOM NUMBER SEED     1743835053
Info: USE HYDROGEN BONDS?    NO
Info: Using AMBER format force field!
Info: AMBER PARM FILE        mobley_9246215.prmtop
Info: COORDINATE PDB         mobley_9246215.pdb
Info: Exclusions will be read from PARM file!
Info: SCNB (VDW SCALING)     2
Info: USING ARITHMETIC MEAN TO COMBINE L-J SIGMA PARAMETERS
Info: BINARY COORDINATES     mobley_9246215_equil.coor
Info: SUMMARY OF PARAMETERS:
Info: 6 BONDS
Info: 7 ANGLES
Info:   7 HARMONIC
Info:   0 COSINE-BASED
Info: 5 DIHEDRAL
Info: 0 IMPROPER
Info: 0 CROSSTERM
Info: 0 VDW
Info: 21 VDW_PAIRS
Info: 0 NBTHOLE_PAIRS
Info: To read alchdata from file: mobley_9246215.pdb
Info: To read alchflag data from column: 5
Info: STRUCTURE SUMMARY:
Info: 2911 ATOMS
Info: 2910 BONDS
Info: 18 ANGLES
Info: 32 DIHEDRALS
Info: 0 IMPROPERS
Info: 0 CROSSTERMS
Info: 2948 EXCLUSIONS
Info: 2906 RIGID BONDS
Info: ALCH: 0 ATOMS TO DISAPPEAR IN FINAL STATE
Info: ALCH: 13 ATOMS TO APPEAR IN FINAL STATE
Info: 5827 DEGREES OF FREEDOM
Info: 971 HYDROGEN GROUPS
Info: 3 ATOMS IN LARGEST HYDROGEN GROUP
Info: 971 MIGRATION GROUPS
Info: 3 ATOMS IN LARGEST MIGRATION GROUP
Info: TOTAL MASS = 17471.6 amu
Info: TOTAL CHARGE = 0.000200043 e
Info: MASS DENSITY = 0.974359 g/cm^3
Info: ATOM DENSITY = 0.097762 atoms/A^3
Info: ADDED 0 IMPLICIT EXCLUSIONS
Info: NONBONDED TABLE R-SQUARED SPACING: 0.0625
Info: NONBONDED TABLE SIZE: 705 POINTS
Info: REMOVING COM VELOCITY -0.0720545 0.0510117 -0.0596706
Info: Use 3D box decompostion in PME FFT.
Info: Updated CUDA force table with 4096 elements.
Info: Updated CUDA LJ table with 6 x 6 elements.
Info: Found 16 unique exclusion lists needing 28 bytes
TCL: Running for 1500000 steps
ETITLE: TS BOND ANGLE DIHED IMPRP ELECT VDW BOUNDARY MISC KINETIC TOTAL TEMP POTENTIAL TOTALAVG TEMPAVG PRESSURE GPRESSURE VOLUME PRESSAVG GPRESSAVG
ENERGY: 0 1.5064 2.2825 7.9225 0.0000 -10626.5525 1397.4969 0.0000 0.0000 1708.9072 -7508.4370 295.1643 -9217.3442 -7508.4370 295.1643 -471.0345 -380.9699 29776.3922 -471.0345 -380.9699
ENERGY: 300000 0.3552 5.9941 7.8465 0.0000 -10663.7222 1480.5909 0.0000 0.0000 1708.2118 -7460.7237 295.0442 -9168.9355 -7415.5749 299.1705 412.9119 518.7702 29907.2910 -79.0677 15.6518
ENERGY: 600000 1.5098 3.7962 5.3777 0.0000 -10475.3041 1420.3605 0.0000 0.0000 1694.0589 -7350.2011 292.5997 -9044.2599 -7384.2271 298.8606 393.4971 435.3745 29812.1414 62.3736 133.1104
ENERGY: 900000 1.9660 4.3154 6.7966 0.0000 -10550.8578 1414.8245 0.0000 0.0000 1708.2469 -7414.7084 295.0503 -9122.9553 -7382.0219 298.5721 -19.2369 10.2143 30137.7138 58.9213 116.1936
ENERGY: 1200000 1.1427 2.4560 5.5294 0.0000 -10500.5115 1401.6923 0.0000 0.0000 1767.8162 -7321.8749 305.3391 -9089.6912 -7375.0098 300.8737 -220.0676 -105.2774 30163.3018 57.1416 117.7902
ENERGY: 1500000 0.1930 5.5722 9.7988 0.0000 -10620.8001 1442.4439 0.0000 0.0000 1814.4392 -7348.3531 313.3919 -9162.7923 -7370.2199 302.0187 261.7565 257.9933 29822.8366 61.1721 116.3635
TCL: Running FEP window   2: Lambda1 0.95   Lambda2 0.8999999999999999 [dLambda -0.050000000000000044]
TCL: Setting parameter firsttimestep to 0
TCL: Setting parameter alchLambda to 0.95
Info: NONBONDED TABLE R-SQUARED SPACING: 0.0625
Info: NONBONDED TABLE SIZE: 705 POINTS
TCL: Setting parameter alchLambda2 to 0.8999999999999999
Info: NONBONDED TABLE R-SQUARED SPACING: 0.0625
Info: NONBONDED TABLE SIZE: 705 POINTS
TCL: Running for 1500000 steps
ETITLE: TS BOND ANGLE DIHED IMPRP ELECT VDW BOUNDARY MISC KINETIC TOTAL TEMP POTENTIAL TOTALAVG TEMPAVG PRESSURE GPRESSURE VOLUME PRESSAVG GPRESSAVG
ENERGY: 0 0.1930 5.5722 9.7988 0.0000 -10620.6212 1442.3351 0.0000 0.0000 1813.5471 -7349.1751 313.2378 -9162.7222 -7349.1751 313.2378 151.8788 246.6563 29822.8366 151.8788 246.6563
ENERGY: 300000 1.1768 4.3171 7.8682 0.0000 -10358.7537 1342.4823 0.0000 0.0000 1789.0283 -7213.8810 309.0029 -9002.9093 -7306.2487 304.8794 -410.6132 -383.0551 30460.4586 266.3161 316.5193
ENERGY: 600000 0.5252 4.3779 6.3188 0.0000 -10383.0168 1324.6611 0.0000 0.0000 1750.0641 -7297.0696 302.2730 -9047.1338 -7311.6474 304.1885 -778.9246 -679.0106 30402.9955 -29.4365 38.2541
ENERGY: 900000 2.5316 6.7689 6.0551 0.0000 -10590.9136 1467.9768 0.0000 0.0000 1749.2568 -7358.3244 302.1335 -9107.5811 -7322.4993 304.2178 629.5219 720.1362 29718.8965 74.5658 136.2671
ENERGY: 1200000 1.2779 4.3857 6.3117 0.0000 -10497.1571 1403.1898 0.0000 0.0000 1726.3506 -7355.6413 298.1772 -9081.9920 -7338.7896 302.8647 -167.3776 -111.1614 30175.4820 13.6901 72.8773
ENERGY: 1500000 0.7175 3.2193 6.0943 0.0000 -10447.6625 1371.2777 0.0000 0.0000 1741.2563 -7325.0974 300.7517 -9066.3537 -7340.4929 302.6227 -359.0477 -293.6486 30177.5610 -31.6352 31.2925
TCL: Running FEP window   3: Lambda1 0.8999999999999999 Lambda2 0.8499999999999999 [dLambda -0.050000000000000044]
TCL: Setting parameter firsttimestep to 0
TCL: Setting parameter alchLambda to 0.8999999999999999
Info: NONBONDED TABLE R-SQUARED SPACING: 0.0625
Info: NONBONDED TABLE SIZE: 705 POINTS
TCL: Setting parameter alchLambda2 to 0.8499999999999999
Info: NONBONDED TABLE R-SQUARED SPACING: 0.0625
Info: NONBONDED TABLE SIZE: 705 POINTS
TCL: Running for 1500000 steps
ETITLE: TS BOND ANGLE DIHED IMPRP ELECT VDW BOUNDARY MISC KINETIC TOTAL TEMP POTENTIAL TOTALAVG TEMPAVG PRESSURE GPRESSURE VOLUME PRESSAVG GPRESSAVG
ENERGY: 0 0.7175 3.2193 6.0943 0.0000 -10447.4853 1370.7573 0.0000 0.0000 1740.3702 -7326.3267 300.5986 -9066.6969 -7326.3267 300.5986 -389.8148 -312.0106 30177.5610 -389.8148 -312.0106
ENERGY: 300000 1.4268 5.6498 5.4294 0.0000 -10392.3869 1303.5438 0.0000 0.0000 1686.3060 -7390.0311 291.2606 -9076.3371 -7365.5069 294.1712 -781.9199 -712.5611 29865.9595 -189.9528 -109.1080
ENERGY: 600000 0.8981 3.1705 7.4890 0.0000 -10642.4287 1472.4225 0.0000 0.0000 1716.5647 -7441.8838 296.4869 -9158.4485 -7375.3615 295.4561 384.8664 415.0532 29753.5325 142.2344 196.0404
ENERGY: 900000 3.0613 3.2260 7.6897 0.0000 -10512.2227 1398.4822 0.0000 0.0000 1753.5084 -7346.2552 302.8679 -9099.7636 -7382.0672 296.3564 80.0627 139.2603 29942.0349 -13.7454 38.7998
ENERGY: 1200000 0.4068 2.9508 8.6305 0.0000 -10292.2534 1217.6821 0.0000 0.0000 1764.0043 -7298.5789 304.6807 -9062.5832 -7368.0625 298.1344 -1443.7263 -1341.1172 30322.2336 -147.0773 -86.6362
ENERGY: 1500000 0.7211 4.5186 7.4704 0.0000 -10474.4320 1444.1637 0.0000 0.0000 1733.5005 -7284.0578 299.4121 -9017.5583 -7365.2074 298.0847 799.7514 866.0467 29593.3074 -107.4076 -48.1319
TCL: Running FEP window   4: Lambda1 0.8499999999999999 Lambda2 0.7999999999999998 [dLambda -0.050000000000000044]
TCL: Setting parameter firsttimestep to 0
TCL: Setting parameter alchLambda to 0.8499999999999999
Info: NONBONDED TABLE R-SQUARED SPACING: 0.0625
Info: NONBONDED TABLE SIZE: 705 POINTS
TCL: Setting parameter alchLambda2 to 0.7999999999999998
Info: NONBONDED TABLE R-SQUARED SPACING: 0.0625
Info: NONBONDED TABLE SIZE: 705 POINTS
TCL: Running for 1500000 steps
ETITLE: TS BOND ANGLE DIHED IMPRP ELECT VDW BOUNDARY MISC KINETIC TOTAL TEMP POTENTIAL TOTALAVG TEMPAVG PRESSURE GPRESSURE VOLUME PRESSAVG GPRESSAVG
ENERGY: 0 0.7211 4.5186 7.4704 0.0000 -10474.4575 1443.8563 0.0000 0.0000 1732.6153 -7285.2758 299.2592 -9017.8912 -7285.2758 299.2592 779.5135 849.0423 29593.3074 779.5135 849.0423
ENERGY: 300000 0.9435 1.6671 7.0591 0.0000 -10495.4957 1481.8970 0.0000 0.0000 1652.7403 -7351.1886 285.4631 -9003.9290 -7311.2568 300.8275 778.6351 773.0649 30134.0525 250.2571 269.2378
ENERGY: 600000 1.3357 6.4091 7.8939 0.0000 -10587.9863 1477.2163 0.0000 0.0000 1743.6007 -7351.5307 301.1566 -9095.1314 -7349.9696 299.7686 519.1460 596.5379 29585.9855 287.7678 333.0225
ENERGY: 900000 3.8448 5.0437 7.3804 0.0000 -10480.5570 1412.1328 0.0000 0.0000 1735.1715 -7316.9838 299.7007 -9052.1553 -7341.6866 299.3601 -119.6929 -72.6714 30158.4293 180.3704 233.8608
ENERGY: 1200000 1.6499 2.7607 8.6574 0.0000 -10726.5675 1466.5522 0.0000 0.0000 1750.3406 -7496.6066 302.3207 -9246.9473 -7373.1943 299.1362 54.9558 109.0388 29665.0027 134.8457 191.7190
ENERGY: 1500000 2.2012 5.9666 6.1453 0.0000 -10499.1074 1429.2131 0.0000 0.0000 1741.5960 -7313.9852 300.8104 -9055.5812 -7371.4084 299.7187 111.4442 202.0050 29900.5425 101.3842 161.6416
TCL: Running FEP window   5: Lambda1 0.7999999999999998 Lambda2 0.7499999999999998 [dLambda -0.050000000000000044]
TCL: Setting parameter firsttimestep to 0
TCL: Setting parameter alchLambda to 0.7999999999999998
Info: NONBONDED TABLE R-SQUARED SPACING: 0.0625
Info: NONBONDED TABLE SIZE: 705 POINTS
TCL: Setting parameter alchLambda2 to 0.7499999999999998
Info: NONBONDED TABLE R-SQUARED SPACING: 0.0625
Info: NONBONDED TABLE SIZE: 705 POINTS
TCL: Running for 1500000 steps
ETITLE: TS BOND ANGLE DIHED IMPRP ELECT VDW BOUNDARY MISC KINETIC TOTAL TEMP POTENTIAL TOTALAVG TEMPAVG PRESSURE GPRESSURE VOLUME PRESSAVG GPRESSAVG
ENERGY: 0 2.2012 5.9666 6.1453 0.0000 -10498.7986 1428.8178 0.0000 0.0000 1740.7347 -7314.9329 300.6616 -9055.6676 -7314.9329 300.6616 91.6574 186.7045 29900.5425 91.6574 186.7045
ENERGY: 300000 0.5928 1.3466 6.5554 0.0000 -10480.2749 1356.3537 0.0000 0.0000 1745.5889 -7369.8374 301.5000 -9115.4263 -7349.0687 305.1794 -504.4374 -459.3095 30072.0798 -109.3599 -51.2444
ENERGY: 600000 1.5190 3.8472 5.7911 0.0000 -10409.0755 1349.8958 0.0000 0.0000 1779.9950 -7268.0275 307.4427 -9048.0225 -7351.2350 304.5005 -572.4005 -518.3076 30543.6046 -244.4266 -187.0642
ENERGY: 900000 0.4389 6.2246 6.1995 0.0000 -10473.9494 1367.9836 0.0000 0.0000 1728.5412 -7364.5616 298.5555 -9093.1027 -7369.8133 301.6950 -397.2108 -325.7300 29876.6774 -292.8108 -237.0437
ENERGY: 1200000 0.4257 7.7920 7.2259 0.0000 -10528.7840 1359.9880 0.0000 0.0000 1710.8692 -7442.4832 295.5032 -9153.3524 -7372.2662 301.5896 -739.2129 -610.1133 30278.1098 -266.2674 -202.9862
ENERGY: 1500000 2.0965 5.6824 9.8700 0.0000 -10510.9784 1357.7334 0.0000 0.0000 1765.3920 -7370.2041 304.9204 -9135.5961 -7365.2589 301.9890 -510.8345 -445.0200 29682.9266 -180.0424 -114.8492
TCL: Running FEP window   6: Lambda1 0.7499999999999998 Lambda2 0.6999999999999997 [dLambda -0.050000000000000044]
TCL: Setting parameter firsttimestep to 0
TCL: Setting parameter alchLambda to 0.7499999999999998
Info: NONBONDED TABLE R-SQUARED SPACING: 0.0625
Info: NONBONDED TABLE SIZE: 705 POINTS
TCL: Setting parameter alchLambda2 to 0.6999999999999997
Info: NONBONDED TABLE R-SQUARED SPACING: 0.0625
Info: NONBONDED TABLE SIZE: 705 POINTS
TCL: Running for 1500000 steps
ETITLE: TS BOND ANGLE DIHED IMPRP ELECT VDW BOUNDARY MISC KINETIC TOTAL TEMP POTENTIAL TOTALAVG TEMPAVG PRESSURE GPRESSURE VOLUME PRESSAVG GPRESSAVG
ENERGY: 0 2.0965 5.6824 9.8700 0.0000 -10510.8701 1357.8061 0.0000 0.0000 1764.5686 -7370.8464 304.7782 -9135.4150 -7370.8464 304.7782 -534.8441 -450.1030 29682.9266 -534.8441 -450.1030
ENERGY: 300000 1.4796 2.7962 8.6615 0.0000 -10598.0705 1463.6984 0.0000 0.0000 1754.7125 -7366.7222 303.0758 -9121.4347 -7379.7840 302.1941 326.8726 384.7556 29860.0258 -21.2257 48.9082
ENERGY: 600000 0.7498 4.4250 6.7676 0.0000 -10622.0032 1484.9105 0.0000 0.0000 1735.5943 -7389.5560 299.7737 -9125.1502 -7398.0382 297.1166 594.9901 633.9179 29724.1783 101.6451 166.8299
ENERGY: 900000 0.8023 2.7921 6.5751 0.0000 -10466.9940 1388.1689 0.0000 0.0000 1762.6305 -7306.0251 304.4435 -9068.6556 -7385.6700 298.4681 68.2446 73.2747 30127.1231 117.5959 169.3909
ENERGY: 1200000 0.4727 3.0962 7.6231 0.0000 -10596.4214 1416.0650 0.0000 0.0000 1727.8614 -7441.3029 298.4381 -9169.1643 -7396.8076 298.5880 -24.3238 -8.1696 29784.7637 46.2566 103.5627
ENERGY: 1500000 0.3487 6.1379 5.0582 0.0000 -10487.1917 1354.9774 0.0000 0.0000 1706.5943 -7414.0752 294.7648 -9120.6695 -7397.1335 298.0506 -540.2097 -469.4001 29969.4418 -28.5693 32.3951
TCL: Running FEP window   7: Lambda1 0.6999999999999997 Lambda2 0.6499999999999997 [dLambda -0.050000000000000044]
TCL: Setting parameter firsttimestep to 0
TCL: Setting parameter alchLambda to 0.6999999999999997
Info: NONBONDED TABLE R-SQUARED SPACING: 0.0625
Info: NONBONDED TABLE SIZE: 705 POINTS
TCL: Setting parameter alchLambda2 to 0.6499999999999997
Info: NONBONDED TABLE R-SQUARED SPACING: 0.0625
Info: NONBONDED TABLE SIZE: 705 POINTS
TCL: Running for 1500000 steps
ETITLE: TS BOND ANGLE DIHED IMPRP ELECT VDW BOUNDARY MISC KINETIC TOTAL TEMP POTENTIAL TOTALAVG TEMPAVG PRESSURE GPRESSURE VOLUME PRESSAVG GPRESSAVG
ENERGY: 0 0.3487 6.1379 5.0582 0.0000 -10487.0657 1354.9745 0.0000 0.0000 1705.7138 -7414.8327 294.6127 -9120.5465 -7414.8327 294.6127 -549.9258 -475.9165 29969.4418 -549.9258 -475.9165
ENERGY: 300000 2.3957 5.8004 6.5511 0.0000 -10462.0092 1358.6344 0.0000 0.0000 1755.4219 -7333.2056 303.1984 -9088.6276 -7383.1160 298.1714 -196.4748 -70.4578 29947.7144 -447.9704 -370.4054
ENERGY: 600000 2.5612 1.6021 5.8187 0.0000 -10581.8102 1390.7275 0.0000 0.0000 1780.1753 -7400.9255 307.4738 -9181.1008 -7394.9536 299.3759 -224.7628 -207.7156 29664.6770 -169.8570 -112.5107
ENERGY: 900000 0.8966 4.1555 8.9253 0.0000 -10580.8876 1422.6504 0.0000 0.0000 1730.3799 -7413.8799 298.8731 -9144.2598 -7394.2184 299.3650 -178.0987 -62.2969 29957.7477 -47.3541 3.3457
ENERGY: 1200000 0.9894 2.2379 7.3693 0.0000 -10541.3256 1414.7798 0.0000 0.0000 1736.0182 -7379.9310 299.8469 -9115.9492 -7390.5911 299.5774 91.2086 184.1921 29827.3446 -56.8440 -4.3439
ENERGY: 1500000 1.1730 3.8368 5.2854 0.0000 -10524.1426 1390.1832 0.0000 0.0000 1654.9342 -7468.7300 285.8420 -9123.6642 -7395.3323 298.4456 -301.5569 -227.9947 29815.8974 -79.9536 -26.7186
TCL: Running FEP window   8: Lambda1 0.6499999999999997 Lambda2 0.5999999999999996 [dLambda -0.050000000000000044]
TCL: Setting parameter firsttimestep to 0
TCL: Setting parameter alchLambda to 0.6499999999999997
Info: NONBONDED TABLE R-SQUARED SPACING: 0.0625
Info: NONBONDED TABLE SIZE: 705 POINTS
TCL: Setting parameter alchLambda2 to 0.5999999999999996
Info: NONBONDED TABLE R-SQUARED SPACING: 0.0625
Info: NONBONDED TABLE SIZE: 705 POINTS
TCL: Running for 1500000 steps
ETITLE: TS BOND ANGLE DIHED IMPRP ELECT VDW BOUNDARY MISC KINETIC TOTAL TEMP POTENTIAL TOTALAVG TEMPAVG PRESSURE GPRESSURE VOLUME PRESSAVG GPRESSAVG
ENERGY: 0 1.1730 3.8368 5.2854 0.0000 -10524.1890 1390.4133 0.0000 0.0000 1654.0594 -7469.4211 285.6909 -9123.4805 -7469.4211 285.6909 -308.5618 -232.9428 29815.8974 -308.5618 -232.9428
ENERGY: 300000 1.5176 1.9052 7.3987 0.0000 -10491.1519 1418.5873 0.0000 0.0000 1769.2295 -7292.5136 305.5832 -9061.7431 -7370.7443 301.1743 193.3240 241.1547 29928.6442 -174.5174 -103.1473
ENERGY: 600000 1.1798 5.2192 8.8484 0.0000 -10711.7118 1509.0858 0.0000 0.0000 1708.2542 -7479.1244 295.0515 -9187.3786 -7382.6381 297.6540 775.0034 808.8681 29331.8702 189.1961 249.4383
ENERGY: 900000 1.7224 3.5328 7.2088 0.0000 -10529.0128 1427.7129 0.0000 0.0000 1668.7767 -7420.0591 288.2329 -9088.8359 -7381.1420 297.8556 -109.8623 -132.0053 30705.7331 123.5332 176.2316
ENERGY: 1200000 1.1004 5.8155 5.8958 0.0000 -10538.0860 1436.3658 0.0000 0.0000 1670.4723 -7418.4362 288.5258 -9088.9085 -7395.0297 296.6926 54.5346 143.8480 29968.3159 85.0143 138.3775
ENERGY: 1500000 1.2156 4.4918 9.1919 0.0000 -10515.3338 1462.5611 0.0000 0.0000 1688.5321 -7349.3414 291.6451 -9037.8734 -7385.6131 296.0663 408.7316 428.4152 30315.8838 76.2201 128.9771
TCL: Running FEP window   9: Lambda1 0.5999999999999996 Lambda2 0.5499999999999996 [dLambda -0.050000000000000044]
TCL: Setting parameter firsttimestep to 0
TCL: Setting parameter alchLambda to 0.5999999999999996
Info: NONBONDED TABLE R-SQUARED SPACING: 0.0625
Info: NONBONDED TABLE SIZE: 705 POINTS
TCL: Setting parameter alchLambda2 to 0.5499999999999996
Info: NONBONDED TABLE R-SQUARED SPACING: 0.0625
Info: NONBONDED TABLE SIZE: 705 POINTS
TCL: Running for 1500000 steps
ETITLE: TS BOND ANGLE DIHED IMPRP ELECT VDW BOUNDARY MISC KINETIC TOTAL TEMP POTENTIAL TOTALAVG TEMPAVG PRESSURE GPRESSURE VOLUME PRESSAVG GPRESSAVG
ENERGY: 0 1.2156 4.4918 9.1919 0.0000 -10515.1545 1462.7230 0.0000 0.0000 1687.6535 -7349.8788 291.4934 -9037.5323 -7349.8788 291.4934 332.2974 425.8619 30315.8838 332.2974 425.8619
ENERGY: 300000 2.3788 7.5496 7.4308 0.0000 -10561.8693 1464.7836 0.0000 0.0000 1785.4312 -7294.2953 308.3816 -9079.7265 -7343.8456 300.4274 283.6650 346.5035 29896.0882 165.5745 252.6148
ENERGY: 600000 0.8212 2.6284 5.5168 0.0000 -10631.8251 1463.0452 0.0000 0.0000 1703.5714 -7456.2422 294.2427 -9159.8136 -7387.1480 297.6445 318.0890 381.6447 29625.5407 77.7339 153.1353
ENERGY: 900000 1.0647 5.9807 7.7398 0.0000 -10535.6262 1424.4633 0.0000 0.0000 1705.0734 -7391.3044 294.5021 -9096.3777 -7384.2290 298.0774 12.3051 19.1524 30277.6286 76.5644 145.1011
ENERGY: 1200000 1.3187 4.5932 6.7651 0.0000 -10541.8042 1429.1171 0.0000 0.0000 1745.4747 -7354.5354 301.4803 -9100.0101 -7384.3316 298.2954 212.3023 225.7974 30048.7799 -57.1697 1.9139
ENERGY: 1500000 0.7354 2.9121 9.9523 0.0000 -10635.1721 1491.3933 0.0000 0.0000 1723.7062 -7406.4729 297.7204 -9130.1791 -7375.5894 299.0961 785.6245 743.2244 29584.2817 -114.1997 -59.5924
TCL: Running FEP window  10: Lambda1 0.5499999999999996 Lambda2 0.4999999999999996 [dLambda -0.04999999999999999]
TCL: Setting parameter firsttimestep to 0
TCL: Setting parameter alchLambda to 0.5499999999999996
Info: NONBONDED TABLE R-SQUARED SPACING: 0.0625
Info: NONBONDED TABLE SIZE: 705 POINTS
TCL: Setting parameter alchLambda2 to 0.4999999999999996
Info: NONBONDED TABLE R-SQUARED SPACING: 0.0625
Info: NONBONDED TABLE SIZE: 705 POINTS
TCL: Running for 1500000 steps
ETITLE: TS BOND ANGLE DIHED IMPRP ELECT VDW BOUNDARY MISC KINETIC TOTAL TEMP POTENTIAL TOTALAVG TEMPAVG PRESSURE GPRESSURE VOLUME PRESSAVG GPRESSAVG
ENERGY: 0 0.7354 2.9121 9.9523 0.0000 -10634.8533 1491.5727 0.0000 0.0000 1722.8155 -7406.8654 297.5666 -9129.6809 -7406.8654 297.5666 659.7152 737.4646 29584.2817 659.7152 737.4646
ENERGY: 300000 1.7902 4.4617 7.7331 0.0000 -10603.8403 1424.9383 0.0000 0.0000 1723.5311 -7441.3859 297.6902 -9164.9170 -7429.7301 299.1003 -224.2525 -138.1040 29936.5059 -17.8967 70.3110
ENERGY: 600000 2.3639 3.5591 5.8562 0.0000 -10557.2058 1398.9267 0.0000 0.0000 1773.2375 -7373.2624 306.2755 -9146.4999 -7410.5044 300.0937 -354.9708 -288.3011 30007.6257 -92.9650 -5.6978
ENERGY: 900000 2.6376 5.7436 8.0608 0.0000 -10493.4590 1334.9512 0.0000 0.0000 1738.0831 -7403.9827 300.2036 -9142.0658 -7386.5579 300.4271 -699.3561 -692.7383 30279.1810 -232.2430 -154.8463
ENERGY: 1200000 1.0244 3.9855 7.1087 0.0000 -10437.5776 1363.8831 0.0000 0.0000 1761.1050 -7300.4709 304.1800 -9061.5758 -7373.6142 300.4648 -289.5575 -237.1579 30004.4908 -32.1245 41.7300
ENERGY: 1500000 0.4614 5.1533 6.5974 0.0000 -10517.1390 1354.4537 0.0000 0.0000 1745.3636 -7405.1096 301.4611 -9150.4732 -7373.5116 300.4383 -640.6599 -508.3802 29911.2266 -60.3268 12.8540
TCL: Running FEP window  11: Lambda1 0.4999999999999996 Lambda2 0.4499999999999996 [dLambda -0.04999999999999999]
TCL: Setting parameter firsttimestep to 0
TCL: Setting parameter alchLambda to 0.4999999999999996
Info: NONBONDED TABLE R-SQUARED SPACING: 0.0625
Info: NONBONDED TABLE SIZE: 705 POINTS
TCL: Setting parameter alchLambda2 to 0.4499999999999996
Info: NONBONDED TABLE R-SQUARED SPACING: 0.0625
Info: NONBONDED TABLE SIZE: 705 POINTS
TCL: Running for 1500000 steps
ETITLE: TS BOND ANGLE DIHED IMPRP ELECT VDW BOUNDARY MISC KINETIC TOTAL TEMP POTENTIAL TOTALAVG TEMPAVG PRESSURE GPRESSURE VOLUME PRESSAVG GPRESSAVG
ENERGY: 0 0.4614 5.1533 6.5974 0.0000 -10517.0272 1354.4516 0.0000 0.0000 1744.5244 -7405.8390 301.3162 -9150.3635 -7405.8390 301.3162 -596.9478 -511.6596 29911.2266 -596.9478 -511.6596
ENERGY: 300000 2.6415 3.2546 6.0546 0.0000 -10616.9151 1455.6423 0.0000 0.0000 1779.8856 -7369.4364 307.4238 -9149.3221 -7382.7243 302.0435 287.4536 361.8640 29921.9572 -301.1681 -236.5793
ENERGY: 600000 1.2070 4.1958 5.9920 0.0000 -10493.2335 1376.2692 0.0000 0.0000 1750.8620 -7354.7075 302.4108 -9105.5695 -7362.2894 301.2061 -288.0981 -227.0426 30216.6023 -169.8669 -106.9998
ENERGY: 900000 1.7629 2.1522 8.3436 0.0000 -10692.1201 1510.4921 0.0000 0.0000 1692.5905 -7476.7788 292.3461 -9169.3693 -7378.5663 299.5425 605.8563 682.0424 29639.5874 -69.2988 -9.0518
ENERGY: 1200000 1.0003 3.7924 8.3786 0.0000 -10510.6049 1369.6378 0.0000 0.0000 1657.3103 -7470.4856 286.2524 -9127.7959 -7390.8661 298.3538 -367.5665 -325.3654 29714.2898 -160.6559 -96.6172
ENERGY: 1500000 1.3093 3.0612 6.7186 0.0000 -10594.7289 1402.7204 0.0000 0.0000 1766.2075 -7414.7119 305.0613 -9180.9194 -7387.0037 299.3754 -350.4154 -301.4038 30036.3411 -230.6447 -169.3355
TCL: Running FEP window  12: Lambda1 0.4499999999999996 Lambda2 0.39999999999999963 [dLambda -0.04999999999999999]
TCL: Setting parameter firsttimestep to 0
TCL: Setting parameter alchLambda to 0.4499999999999996
Info: NONBONDED TABLE R-SQUARED SPACING: 0.0625
Info: NONBONDED TABLE SIZE: 705 POINTS
TCL: Setting parameter alchLambda2 to 0.39999999999999963
Info: NONBONDED TABLE R-SQUARED SPACING: 0.0625
Info: NONBONDED TABLE SIZE: 705 POINTS
TCL: Running for 1500000 steps
ETITLE: TS BOND ANGLE DIHED IMPRP ELECT VDW BOUNDARY MISC KINETIC TOTAL TEMP POTENTIAL TOTALAVG TEMPAVG PRESSURE GPRESSURE VOLUME PRESSAVG GPRESSAVG
ENERGY: 0 1.3093 3.0612 6.7186 0.0000 -10594.7285 1402.9637 0.0000 0.0000 1765.3552 -7415.3204 304.9141 -9180.6757 -7415.3204 304.9141 -382.2713 -304.7649 30036.3411 -382.2713 -304.7649
ENERGY: 300000 0.8658 3.4829 6.1018 0.0000 -10511.3514 1411.4400 0.0000 0.0000 1770.1412 -7319.3196 305.7407 -9089.4608 -7354.9785 304.0803 113.9221 122.1342 29801.6376 -109.1201 -57.4580
ENERGY: 600000 1.2063 4.9858 9.6081 0.0000 -10480.7208 1393.1496 0.0000 0.0000 1773.2831 -7298.4879 306.2834 -9071.7710 -7333.0670 304.6705 -213.3868 -81.9890 30106.9222 -135.2842 -84.6878
ENERGY: 900000 2.0460 4.4796 6.5267 0.0000 -10570.2893 1429.9448 0.0000 0.0000 1710.8120 -7416.4802 295.4933 -9127.2921 -7348.4907 302.3879 206.0357 247.0227 29352.8153 -22.3698 25.6527
ENERGY: 1200000 1.1913 2.7745 6.1538 0.0000 -10486.3411 1350.9986 0.0000 0.0000 1709.8029 -7415.4201 295.3190 -9125.2230 -7356.5832 302.4585 -994.0873 -958.4566 30517.7615 -113.9184 -64.7226
ENERGY: 1500000 1.2311 2.0004 8.4521 0.0000 -10601.7846 1454.8510 0.0000 0.0000 1718.1651 -7417.0849 296.7633 -9135.2500 -7368.3533 302.2310 171.6210 207.5614 30053.3003 -57.5249 -2.5455
TCL: Running FEP window  13: Lambda1 0.39999999999999963 Lambda2 0.34999999999999964 [dLambda -0.04999999999999999]
TCL: Setting parameter firsttimestep to 0
TCL: Setting parameter alchLambda to 0.39999999999999963
Info: NONBONDED TABLE R-SQUARED SPACING: 0.0625
Info: NONBONDED TABLE SIZE: 705 POINTS
TCL: Setting parameter alchLambda2 to 0.34999999999999964
Info: NONBONDED TABLE R-SQUARED SPACING: 0.0625
Info: NONBONDED TABLE SIZE: 705 POINTS
TCL: Running for 1500000 steps
ETITLE: TS BOND ANGLE DIHED IMPRP ELECT VDW BOUNDARY MISC KINETIC TOTAL TEMP POTENTIAL TOTALAVG TEMPAVG PRESSURE GPRESSURE VOLUME PRESSAVG GPRESSAVG
ENERGY: 0 1.2311 2.0004 8.4521 0.0000 -10601.7847 1454.8630 0.0000 0.0000 1717.3114 -7417.9267 296.6159 -9135.2381 -7417.9267 296.6159 123.5662 204.7359 30053.3003 123.5662 204.7359
ENERGY: 300000 0.8817 3.6376 5.4053 0.0000 -10606.0400 1454.9482 0.0000 0.0000 1824.3051 -7316.8621 315.0960 -9141.1673 -7362.1018 302.9893 445.9136 527.5465 29701.9761 140.2134 187.0938
ENERGY: 600000 1.1910 2.4651 8.3931 0.0000 -10507.1081 1410.5175 0.0000 0.0000 1726.6994 -7357.8421 298.2374 -9084.5415 -7355.1584 302.4230 -27.2539 82.6130 29703.0934 97.1866 161.0986
ENERGY: 900000 1.3079 4.6881 11.3702 0.0000 -10554.4309 1405.7226 0.0000 0.0000 1820.8568 -7310.4853 314.5004 -9131.3421 -7344.6193 303.2415 -262.7547 -194.1755 29919.8706 21.8349 87.0733
ENERGY: 1200000 2.8963 3.4253 5.7480 0.0000 -10653.3796 1482.0913 0.0000 0.0000 1745.6437 -7413.5751 301.5095 -9159.2187 -7356.7629 302.9034 66.2301 143.0932 30352.1836 62.9138 132.6374
ENERGY: 1500000 1.0259 3.1085 9.3254 0.0000 -10628.5681 1470.1372 0.0000 0.0000 1721.0746 -7423.8965 297.2659 -9144.9712 -7355.3846 302.1989 256.2255 242.0132 29931.9645 135.5784 197.8103
TCL: Running FEP window  14: Lambda1 0.34999999999999964 Lambda2 0.29999999999999966 [dLambda -0.04999999999999999]
TCL: Setting parameter firsttimestep to 0
TCL: Setting parameter alchLambda to 0.34999999999999964
Info: NONBONDED TABLE R-SQUARED SPACING: 0.0625
Info: NONBONDED TABLE SIZE: 705 POINTS
TCL: Setting parameter alchLambda2 to 0.29999999999999966
Info: NONBONDED TABLE R-SQUARED SPACING: 0.0625
Info: NONBONDED TABLE SIZE: 705 POINTS
TCL: Running for 1500000 steps
ETITLE: TS BOND ANGLE DIHED IMPRP ELECT VDW BOUNDARY MISC KINETIC TOTAL TEMP POTENTIAL TOTALAVG TEMPAVG PRESSURE GPRESSURE VOLUME PRESSAVG GPRESSAVG
ENERGY: 0 1.0259 3.1085 9.3254 0.0000 -10628.5693 1470.1081 0.0000 0.0000 1720.2044 -7424.7970 297.1156 -9145.0014 -7424.7970 297.1156 166.6215 234.1164 29931.9645 166.6215 234.1164
ENERGY: 300000 3.1988 6.2816 9.0643 0.0000 -10576.7177 1472.4142 0.0000 0.0000 1770.9141 -7314.8446 305.8742 -9085.7587 -7395.3902 298.9779 783.6620 790.0190 29527.7238 145.8228 201.7921
ENERGY: 600000 2.2723 3.2598 5.7045 0.0000 -10368.5688 1298.4247 0.0000 0.0000 1722.9889 -7335.9186 297.5965 -9058.9075 -7375.7909 301.1621 -917.0587 -854.3726 29865.3192 -267.5133 -227.6749
ENERGY: 900000 1.7049 3.2847 7.8378 0.0000 -10612.8758 1462.2316 0.0000 0.0000 1751.3631 -7386.4538 302.4973 -9137.8169 -7368.4542 300.3044 228.3337 285.9742 29863.0265 -150.7307 -102.7591
ENERGY: 1200000 0.1233 2.1931 7.0011 0.0000 -10466.5650 1381.3257 0.0000 0.0000 1744.5915 -7331.3303 301.3277 -9075.9218 -7364.8871 300.7325 -373.1951 -235.1058 30007.5039 -208.1878 -152.1420
ENERGY: 1500000 0.3166 1.7860 6.4448 0.0000 -10623.2577 1385.0150 0.0000 0.0000 1745.4163 -7484.2790 301.4702 -9229.6953 -7377.7880 300.6225 -532.4969 -433.7886 29464.6782 -253.9248 -195.5744
TCL: Running FEP window  15: Lambda1 0.29999999999999966 Lambda2 0.24999999999999967 [dLambda -0.04999999999999999]
TCL: Setting parameter firsttimestep to 0
TCL: Setting parameter alchLambda to 0.29999999999999966
Info: NONBONDED TABLE R-SQUARED SPACING: 0.0625
Info: NONBONDED TABLE SIZE: 705 POINTS
TCL: Setting parameter alchLambda2 to 0.24999999999999967
Info: NONBONDED TABLE R-SQUARED SPACING: 0.0625
Info: NONBONDED TABLE SIZE: 705 POINTS
TCL: Running for 1500000 steps
ETITLE: TS BOND ANGLE DIHED IMPRP ELECT VDW BOUNDARY MISC KINETIC TOTAL TEMP POTENTIAL TOTALAVG TEMPAVG PRESSURE GPRESSURE VOLUME PRESSAVG GPRESSAVG
ENERGY: 0 0.3166 1.7860 6.4448 0.0000 -10623.2572 1385.2724 0.0000 0.0000 1744.5349 -7484.9025 301.3180 -9229.4374 -7484.9025 301.3180 -513.7188 -432.0566 29464.6782 -513.7188 -432.0566
ENERGY: 300000 1.2920 10.5579 5.8575 0.0000 -10607.7824 1466.0830 0.0000 0.0000 1749.0859 -7374.9061 302.1040 -9123.9919 -7404.7738 305.0047 110.2995 183.6083 30299.4429 -92.9659 -24.1111
ENERGY: 600000 1.6711 5.8986 5.9783 0.0000 -10482.6765 1357.7387 0.0000 0.0000 1787.9980 -7323.3919 308.8250 -9111.3899 -7390.5492 302.7549 -506.0384 -418.6023 30110.9619 -155.6089 -89.0748
ENERGY: 900000 1.0937 4.3129 7.2502 0.0000 -10599.2500 1438.0465 0.0000 0.0000 1710.4774 -7438.0693 295.4355 -9148.5467 -7397.6500 300.8773 -92.9849 -22.1839 29806.1857 -119.6426 -52.2450
ENERGY: 1200000 1.2653 3.3994 9.9464 0.0000 -10499.4186 1362.6485 0.0000 0.0000 1720.4802 -7401.6786 297.1632 -9122.1588 -7411.4774 299.1828 -750.4226 -665.9105 30239.5363 -192.9830 -127.2932
ENERGY: 1500000 1.1717 3.0469 5.5148 0.0000 -10511.4599 1399.0944 0.0000 0.0000 1744.1030 -7358.5291 301.2434 -9102.6321 -7400.8501 299.9879 -129.5574 -49.6715 30108.2152 -97.3914 -26.6341
TCL: Running FEP window  16: Lambda1 0.24999999999999967 Lambda2 0.19999999999999968 [dLambda -0.04999999999999999]
TCL: Setting parameter firsttimestep to 0
TCL: Setting parameter alchLambda to 0.24999999999999967
Info: NONBONDED TABLE R-SQUARED SPACING: 0.0625
Info: NONBONDED TABLE SIZE: 705 POINTS
TCL: Setting parameter alchLambda2 to 0.19999999999999968
Info: NONBONDED TABLE R-SQUARED SPACING: 0.0625
Info: NONBONDED TABLE SIZE: 705 POINTS
TCL: Running for 1500000 steps
ETITLE: TS BOND ANGLE DIHED IMPRP ELECT VDW BOUNDARY MISC KINETIC TOTAL TEMP POTENTIAL TOTALAVG TEMPAVG PRESSURE GPRESSURE VOLUME PRESSAVG GPRESSAVG
ENERGY: 0 1.1717 3.0469 5.5148 0.0000 -10511.4605 1399.4659 0.0000 0.0000 1743.2371 -7359.0242 301.0938 -9102.2612 -7359.0242 301.0938 -136.8488 -47.1312 30108.2152 -136.8488 -47.1312
ENERGY: 300000 2.2267 2.8583 6.5845 0.0000 -10646.4138 1475.2004 0.0000 0.0000 1734.5284 -7425.0154 299.5896 -9159.5438 -7396.6143 299.1514 162.0046 225.5882 29862.5290 -39.9240 39.6967
ENERGY: 600000 1.5519 4.5332 10.4278 0.0000 -10607.0078 1457.0911 0.0000 0.0000 1714.3326 -7419.0713 296.1014 -9133.4039 -7395.0090 298.5492 24.7623 47.2874 29897.7119 -6.7793 59.8814
ENERGY: 900000 0.4227 3.3335 6.3935 0.0000 -10515.8288 1393.5577 0.0000 0.0000 1728.1317 -7383.9896 298.4848 -9112.1213 -7395.1517 298.2182 -204.4759 -159.8888 29903.2599 -77.0497 -8.7663
ENERGY: 1200000 1.3211 6.1236 6.7973 0.0000 -10612.4150 1555.2208 0.0000 0.0000 1769.5039 -7273.4483 305.6306 -9042.9522 -7382.7948 299.6794 1512.0890 1583.5001 29528.2226 29.5297 96.7134
ENERGY: 1500000 0.1420 2.4691 6.7803 0.0000 -10557.1508 1419.1991 0.0000 0.0000 1735.2707 -7393.2896 299.7178 -9128.5603 -7388.9473 299.1926 -167.7178 -111.1335 30304.7149 72.0802 139.5606
TCL: Running FEP window  17: Lambda1 0.19999999999999968 Lambda2 0.1499999999999997 [dLambda -0.04999999999999999]
TCL: Setting parameter firsttimestep to 0
TCL: Setting parameter alchLambda to 0.19999999999999968
Info: NONBONDED TABLE R-SQUARED SPACING: 0.0625
Info: NONBONDED TABLE SIZE: 705 POINTS
TCL: Setting parameter alchLambda2 to 0.1499999999999997
Info: NONBONDED TABLE R-SQUARED SPACING: 0.0625
Info: NONBONDED TABLE SIZE: 705 POINTS
TCL: Running for 1500000 steps
ETITLE: TS BOND ANGLE DIHED IMPRP ELECT VDW BOUNDARY MISC KINETIC TOTAL TEMP POTENTIAL TOTALAVG TEMPAVG PRESSURE GPRESSURE VOLUME PRESSAVG GPRESSAVG
ENERGY: 0 0.1420 2.4691 6.7803 0.0000 -10557.1499 1419.4526 0.0000 0.0000 1734.4812 -7393.8247 299.5815 -9128.3059 -7393.8247 299.5815 -188.8755 -112.2191 30304.7149 -188.8755 -112.2191
ENERGY: 300000 0.4088 6.7407 5.6419 0.0000 -10413.6347 1379.3394 0.0000 0.0000 1698.0528 -7323.4511 293.2895 -9021.5040 -7355.6480 299.2201 -452.0129 -378.8289 30313.2869 16.9963 80.3977
ENERGY: 600000 1.1865 7.8420 6.0504 0.0000 -10557.6280 1405.1794 0.0000 0.0000 1732.5961 -7404.7736 299.2559 -9137.3697 -7365.6774 300.2060 -336.8362 -277.4796 30298.9513 90.4879 144.8527
ENERGY: 900000 0.5839 3.7893 6.9223 0.0000 -10692.8623 1512.0722 0.0000 0.0000 1781.5536 -7387.9410 307.7119 -9169.4946 -7356.1999 303.2678 592.7655 607.8690 29679.7750 136.3383 189.6332
ENERGY: 1200000 2.6668 6.4129 7.0967 0.0000 -10638.4269 1497.3197 0.0000 0.0000 1717.0997 -7407.8311 296.5793 -9124.9308 -7371.6755 301.4512 576.9053 602.0721 29650.1949 181.9033 241.6995
ENERGY: 1500000 0.5719 3.2730 5.2100 0.0000 -10537.9149 1482.6221 0.0000 0.0000 1694.4621 -7351.7757 292.6693 -9046.2379 -7366.3009 301.1958 805.6059 850.2614 29706.6922 151.8368 206.5572
TCL: Running FEP window  18: Lambda1 0.1499999999999997 Lambda2 0.09999999999999969 [dLambda -0.05 ]
TCL: Setting parameter firsttimestep to 0
TCL: Setting parameter alchLambda to 0.1499999999999997
Info: NONBONDED TABLE R-SQUARED SPACING: 0.0625
Info: NONBONDED TABLE SIZE: 705 POINTS
TCL: Setting parameter alchLambda2 to 0.09999999999999969
Info: NONBONDED TABLE R-SQUARED SPACING: 0.0625
Info: NONBONDED TABLE SIZE: 705 POINTS
TCL: Running for 1500000 steps
ETITLE: TS BOND ANGLE DIHED IMPRP ELECT VDW BOUNDARY MISC KINETIC TOTAL TEMP POTENTIAL TOTALAVG TEMPAVG PRESSURE GPRESSURE VOLUME PRESSAVG GPRESSAVG
ENERGY: 0 0.5719 3.2730 5.2100 0.0000 -10537.9144 1482.9008 0.0000 0.0000 1693.6034 -7352.3552 292.5210 -9045.9586 -7352.3552 292.5210 764.3044 849.3912 29706.6922 764.3044 849.3912
ENERGY: 300000 2.4619 3.9946 4.3669 0.0000 -10619.5277 1455.1264 0.0000 0.0000 1677.8605 -7475.7174 289.8019 -9153.5779 -7397.2849 297.9060 476.8952 493.2312 29115.8166 68.9107 122.6669
ENERGY: 600000 1.8689 7.3687 4.5480 0.0000 -10591.5516 1468.2563 0.0000 0.0000 1725.9476 -7383.5622 298.1075 -9109.5097 -7399.8721 298.9313 505.0407 559.5818 29627.6701 138.9161 191.8359
ENERGY: 900000 2.1883 4.5700 6.7347 0.0000 -10545.7664 1408.3759 0.0000 0.0000 1709.6775 -7414.2201 295.2974 -9123.8975 -7392.2046 299.0494 -195.7448 -156.8516 29934.9797 9.0133 72.5164
ENERGY: 1200000 0.1821 2.2094 5.2607 0.0000 -10454.5183 1341.4894 0.0000 0.0000 1739.7409 -7365.6358 300.4899 -9105.3767 -7400.8816 298.9328 -316.6366 -261.1927 29333.9742 -63.7674 -2.1792
ENERGY: 1500000 0.7047 4.3937 5.3756 0.0000 -10622.9045 1486.6153 0.0000 0.0000 1741.7729 -7384.0423 300.8409 -9125.8152 -7399.2886 298.9325 274.9745 324.6640 30169.0203 9.8225 65.5201
TCL: Running FEP window  19: Lambda1 0.09999999999999969 Lambda2 0.049999999999999684 [dLambda -0.05 ]
TCL: Setting parameter firsttimestep to 0
TCL: Setting parameter alchLambda to 0.09999999999999969
Info: NONBONDED TABLE R-SQUARED SPACING: 0.0625
Info: NONBONDED TABLE SIZE: 705 POINTS
TCL: Setting parameter alchLambda2 to 0.049999999999999684
Info: NONBONDED TABLE R-SQUARED SPACING: 0.0625
Info: NONBONDED TABLE SIZE: 705 POINTS
TCL: Running for 1500000 steps
ETITLE: TS BOND ANGLE DIHED IMPRP ELECT VDW BOUNDARY MISC KINETIC TOTAL TEMP POTENTIAL TOTALAVG TEMPAVG PRESSURE GPRESSURE VOLUME PRESSAVG GPRESSAVG
ENERGY: 0 0.7047 4.3937 5.3756 0.0000 -10622.9053 1486.4733 0.0000 0.0000 1740.8736 -7385.0844 300.6856 -9125.9580 -7385.0844 300.6856 230.1479 322.7726 30169.0203 230.1479 322.7726
ENERGY: 300000 2.4702 6.1570 6.1296 0.0000 -10581.2732 1475.5646 0.0000 0.0000 1673.8163 -7417.1355 289.1034 -9090.9518 -7395.4047 295.8495 492.0028 560.2607 29796.6149 169.2863 243.3499
ENERGY: 600000 1.0687 4.6404 6.7074 0.0000 -10538.5732 1385.4080 0.0000 0.0000 1671.0708 -7469.6779 288.6292 -9140.7488 -7382.9769 297.2561 -488.8824 -391.6021 29877.1500 99.4105 172.6299
ENERGY: 900000 0.9818 6.5308 8.7151 0.0000 -10666.4232 1531.7702 0.0000 0.0000 1672.4652 -7445.9601 288.8700 -9118.4253 -7393.5506 296.8794 894.4956 951.2348 29740.7584 353.0105 413.2706
ENERGY: 1200000 1.0678 2.0602 4.8701 0.0000 -10638.6284 1434.2826 0.0000 0.0000 1737.2415 -7459.1062 300.0582 -9196.3477 -7396.4270 298.5694 -143.9607 -93.9190 29604.2225 189.6903 248.2068
ENERGY: 1500000 0.7892 7.7671 4.9651 0.0000 -10680.6738 1463.5709 0.0000 0.0000 1734.0735 -7469.5081 299.5111 -9203.5815 -7396.8074 298.7154 135.9834 234.8840 29561.3048 94.1589 152.0488
TCL: Running FEP window  20: Lambda1 0.049999999999999684 Lambda2 0.0    [dLambda -0.049999999999999684]
TCL: Setting parameter firsttimestep to 0
TCL: Setting parameter alchLambda to 0.049999999999999684
Info: NONBONDED TABLE R-SQUARED SPACING: 0.0625
Info: NONBONDED TABLE SIZE: 705 POINTS
TCL: Setting parameter alchLambda2 to 0.0
Info: NONBONDED TABLE R-SQUARED SPACING: 0.0625
Info: NONBONDED TABLE SIZE: 705 POINTS
TCL: Running for 1500000 steps
ETITLE: TS BOND ANGLE DIHED IMPRP ELECT VDW BOUNDARY MISC KINETIC TOTAL TEMP POTENTIAL TOTALAVG TEMPAVG PRESSURE GPRESSURE VOLUME PRESSAVG GPRESSAVG
ENERGY: 0 0.7892 7.7671 4.9651 0.0000 -10680.6734 1463.0218 0.0000 0.0000 1733.2238 -7470.9064 299.3643 -9204.1302 -7470.9064 299.3643 165.9012 230.2737 29561.3048 165.9012 230.2737
ENERGY: 300000 1.7196 2.3403 7.2710 0.0000 -10684.0095 1535.6387 0.0000 0.0000 1703.1106 -7433.9295 294.1631 -9137.0400 -7432.1997 296.7589 974.7766 997.2207 29685.5304 267.6490 339.0375
ENERGY: 600000 1.1764 5.6841 6.8364 0.0000 -10551.8042 1384.8872 0.0000 0.0000 1726.5966 -7426.6235 298.2196 -9153.2201 -7401.2838 298.6626 -200.4663 -131.5042 29543.5126 128.4078 207.9059
ENERGY: 900000 0.6467 4.2350 5.9778 0.0000 -10661.8439 1476.9552 0.0000 0.0000 1695.4222 -7478.6071 292.8352 -9174.0293 -7399.4172 298.1296 208.7060 307.0407 29800.5060 177.1134 253.2048
ENERGY: 1200000 2.1464 3.9402 9.5034 0.0000 -10491.7792 1410.3985 0.0000 0.0000 1756.7251 -7309.0656 303.4235 -9065.7906 -7382.3336 298.9406 79.5737 120.8654 29958.1221 105.6632 167.1040
ENERGY: 1500000 0.6954 4.3205 10.1112 0.0000 -10589.4887 1431.3318 0.0000 0.0000 1765.7830 -7377.2468 304.9880 -9143.0299 -7379.2450 299.9080 -183.7897 -91.6869 29924.3330 15.3467 84.0674
TCL: Exiting due to exit command.
