Info: SIMULATION PARAMETERS:
Info: TIMESTEP               2
Info: NUMBER OF STEPS        0
Info: STEPS PER CYCLE        10
Info: PERIODIC CELL BASIS 1  32.5308 0 0
Info: PERIODIC CELL BASIS 2  0 30.6328 0
Info: PERIODIC CELL BASIS 3  0 0 31.0746
Info: PERIODIC CELL CENTER   0 0 0
Info: WRAPPING WATERS AROUND PERIODIC BOUNDARIES ON OUTPUT.
Info: WRAPPING ALL CLUSTERS AROUND PERIODIC BOUNDARIES ON OUTPUT.
Info: FIRST LDB TIMESTEP     50
Info: LAST LDB TIMESTEP     -1
Info: HOM BACKGROUND SCALING 1
Info: PME BACKGROUND SCALING 1
Info: MIN ATOMS PER PATCH    40
Info: EMPTY PATCH LOAD       40 ATOMS
Info: VELOCITY FILE          mobley_252413_equil.vel
Info: CENTER OF MASS MOVING INITIALLY? NO
Info: DIELECTRIC             1
Info: EXCLUDE                SCALED ONE-FOUR
Info: 1-4 ELECTROSTATICS SCALED BY 0.833333
Info: MODIFIED 1-4 VDW PARAMETERS WILL BE USED
Info: DCD FILENAME           mobley_252413_prod.dcd
Info: DCD FREQUENCY          100000
Info: DCD FIRST STEP         100000
Info: DCD FILE WILL CONTAIN UNIT CELL DATA
Info: XST FILENAME           mobley_252413_prod.xst
Info: XST FREQUENCY          100000
Info: NO VELOCITY DCD OUTPUT
Info: NO FORCE DCD OUTPUT
Info: OUTPUT FILENAME        mobley_252413_prod
Info: BINARY OUTPUT FILES WILL BE USED
Info: RESTART FILENAME       mobley_252413_prod.restart
Info: RESTART FREQUENCY      100000
Info: BINARY RESTART FILES WILL BE USED
Info: CUTOFF                 9
Info: PAIRLIST DISTANCE      11
Info: PAIRLIST SHRINK RATE   0.01
Info: PAIRLIST GROW RATE     0.01
Info: PAIRLIST TRIGGER       0.3
Info: PAIRLISTS PER CYCLE    2
Info: PAIRLISTS ENABLED
Info: MARGIN                 2
Info: HYDROGEN GROUP CUTOFF  2.5
Info: PATCH DIMENSION        15.5
Info: ENERGY OUTPUT STEPS    100000
Info: ENERGY EVALUATION STEPS    100000
Info: OUTPUT ENERGY PRECISION 4
Info: CROSSTERM ENERGY INCLUDED IN DIHEDRAL
Info: TIMING OUTPUT STEPS    1000000
Info: PRESSURE OUTPUT STEPS  100000
Info: ALCHEMICAL FEP ON
Info: FEP CURRENT LAMBDA VALUE     0
Info: FEP COMPARISON LAMBDA VALUE  0.05
Info: FEP INTRA-ALCHEMICAL NON-BONDED INTERACTIONS WILL BE RETAINED
Info: FEP INTRA-ALCHEMICAL BONDED INTERACTIONS WILL BE RETAINED
Info: FEP VDW SHIFTING COEFFICIENT 5
Info: FEP ELEC. ACTIVE FOR ANNIHILATED PARTICLES BETWEEN LAMBDA = 0 AND LAMBDA = 0.5
Info: FEP ELEC. ACTIVE FOR EXNIHILATED PARTICLES BETWEEN LAMBDA = 0.5 AND LAMBDA = 1
Info: FEP VDW ACTIVE FOR ANNIHILATED PARTICLES BETWEEN LAMBDA = 0 AND LAMBDA = 1
Info: FEP VDW ACTIVE FOR EXNIHILATED PARTICLES BETWEEN LAMBDA = 0 AND LAMBDA = 1
Info: FEP BOND ACTIVE FOR ANNIHILATED PARTICLES BETWEEN LAMBDA = 1 AND LAMBDA = 1
Info: FEP BOND ACTIVE FOR EXNIHILATED PARTICLES BETWEEN LAMBDA = 0 AND LAMBDA = 0
Info: LANGEVIN DYNAMICS ACTIVE
Info: LANGEVIN TEMPERATURE   300
Info: LANGEVIN USING BBK INTEGRATOR
Info: LANGEVIN DAMPING COEFFICIENT IS 1 INVERSE PS
Info: LANGEVIN DYNAMICS APPLIED TO HYDROGENS
Info: LANGEVIN PISTON PRESSURE CONTROL ACTIVE
Info:        TARGET PRESSURE IS 1.01325 BAR
Info:     OSCILLATION PERIOD IS 50 FS
Info:             DECAY TIME IS 25 FS
Info:     PISTON TEMPERATURE IS 300 K
Info:       PRESSURE CONTROL IS GROUP-BASED
Info:    INITIAL STRAIN RATE IS 0.000268242 0.000268242 0.000268242
Info:       CELL FLUCTUATION IS ISOTROPIC
Info: PARTICLE MESH EWALD (PME) ACTIVE
Info: PME TOLERANCE               1e-06
Info: PME EWALD COEFFICIENT       0.348832
Info: PME INTERPOLATION ORDER     4
Info: PME GRID DIMENSIONS         36 32 32
Info: PME MAXIMUM GRID SPACING    1
Info: PME CALCULATION WILL BE PERFORMED ON GPU
Info: FULL ELECTROSTATIC EVALUATION FREQUENCY      2
Info: USING VERLET I (r-RESPA) MTS SCHEME.
Info: C1 SPLITTING OF LONG RANGE ELECTROSTATICS
Info: PLACING ATOMS IN PATCHES BY HYDROGEN GROUPS
Info: RIGID BONDS TO HYDROGEN : ALL
Info:         ERROR TOLERANCE : 1e-08
Info:          MAX ITERATIONS : 100
Info: RIGID WATER USING SETTLE ALGORITHM
Info: RANDOM NUMBER SEED     1743812812
Info: USE HYDROGEN BONDS?    NO
Info: Using AMBER format force field!
Info: AMBER PARM FILE        mobley_252413.prmtop
Info: COORDINATE PDB         mobley_252413.pdb
Info: Exclusions will be read from PARM file!
Info: SCNB (VDW SCALING)     2
Info: USING ARITHMETIC MEAN TO COMBINE L-J SIGMA PARAMETERS
Info: BINARY COORDINATES     mobley_252413_equil.coor
Info: SUMMARY OF PARAMETERS:
Info: 4 BONDS
Info: 3 ANGLES
Info:   3 HARMONIC
Info:   0 COSINE-BASED
Info: 5 DIHEDRAL
Info: 0 IMPROPER
Info: 0 CROSSTERM
Info: 0 VDW
Info: 10 VDW_PAIRS
Info: 0 NBTHOLE_PAIRS
Info: To read alchdata from file: mobley_252413.pdb
Info: To read alchflag data from column: 5
Info: STRUCTURE SUMMARY:
Info: 2957 ATOMS
Info: 2956 BONDS
Info: 42 ANGLES
Info: 62 DIHEDRALS
Info: 0 IMPROPERS
Info: 0 CROSSTERMS
Info: 3052 EXCLUSIONS
Info: 2950 RIGID BONDS
Info: ALCH: 0 ATOMS TO DISAPPEAR IN FINAL STATE
Info: ALCH: 23 ATOMS TO APPEAR IN FINAL STATE
Info: 5921 DEGREES OF FREEDOM
Info: 985 HYDROGEN GROUPS
Info: 4 ATOMS IN LARGEST HYDROGEN GROUP
Info: 985 MIGRATION GROUPS
Info: 4 ATOMS IN LARGEST MIGRATION GROUP
Info: TOTAL MASS = 17719.8 amu
Info: TOTAL CHARGE = -0.000200018 e
Info: MASS DENSITY = 0.950239 g/cm^3
Info: ATOM DENSITY = 0.0954915 atoms/A^3
Info: ADDED 0 IMPLICIT EXCLUSIONS
Info: NONBONDED TABLE R-SQUARED SPACING: 0.0625
Info: NONBONDED TABLE SIZE: 705 POINTS
Info: REMOVING COM VELOCITY 0.0203948 -0.0812178 0.149594
Info: Use 3D box decompostion in PME FFT.
Info: Updated CUDA force table with 4096 elements.
Info: Updated CUDA LJ table with 4 x 4 elements.
Info: Found 26 unique exclusion lists needing 80 bytes
TCL: Running for 1500000 steps
ETITLE: TS BOND ANGLE DIHED IMPRP ELECT VDW BOUNDARY MISC KINETIC TOTAL TEMP POTENTIAL TOTALAVG TEMPAVG PRESSURE GPRESSURE VOLUME PRESSAVG GPRESSAVG
ENERGY: 0 1.7976 9.0728 2.6004 0.0000 -10543.0814 1339.4423 0.0000 0.0000 1828.1747 -7361.9936 310.7513 -9190.1683 -7361.9936 310.7513 -919.7010 -845.1118 30966.0916 -919.7010 -845.1118
ENERGY: 300000 6.1808 10.0326 3.2176 0.0000 -10784.7642 1492.1476 0.0000 0.0000 1744.6165 -7528.5692 296.5482 -9273.1857 -7457.5083 301.1511 186.6144 254.6028 30169.9044 -68.1069 -1.1051
ENERGY: 600000 2.0016 11.9690 3.8662 0.0000 -10756.7509 1488.0426 0.0000 0.0000 1713.4952 -7537.3763 291.2582 -9250.8715 -7464.6128 300.1148 107.3156 75.4725 30435.4625 -84.5406 -26.5632
ENERGY: 900000 1.4177 11.7675 5.3083 0.0000 -10709.2061 1444.2707 0.0000 0.0000 1811.2229 -7435.2190 307.8699 -9246.4419 -7459.0643 299.3154 -234.3614 -161.1456 30674.5934 93.4194 152.0577
ENERGY: 1200000 0.7048 13.0418 4.4374 0.0000 -10487.5501 1336.4019 0.0000 0.0000 1720.4914 -7412.4728 292.4474 -9132.9642 -7453.3069 299.3584 -723.5022 -613.0065 30395.3455 73.7599 127.8087
ENERGY: 1500000 0.3958 11.8862 3.2407 0.0000 -10635.2088 1414.9699 0.0000 0.0000 1760.5477 -7444.1685 299.2562 -9204.7161 -7453.4415 299.7533 -120.8065 -146.3382 30396.8022 41.2213 92.8356
TCL: Running FEP window   2: Lambda1 0.05   Lambda2 0.1    [dLambda 0.05  ]
TCL: Setting parameter firsttimestep to 0
TCL: Setting parameter alchLambda to 0.05
Info: NONBONDED TABLE R-SQUARED SPACING: 0.0625
Info: NONBONDED TABLE SIZE: 705 POINTS
TCL: Setting parameter alchLambda2 to 0.1
Info: NONBONDED TABLE R-SQUARED SPACING: 0.0625
Info: NONBONDED TABLE SIZE: 705 POINTS
TCL: Running for 1500000 steps
ETITLE: TS BOND ANGLE DIHED IMPRP ELECT VDW BOUNDARY MISC KINETIC TOTAL TEMP POTENTIAL TOTALAVG TEMPAVG PRESSURE GPRESSURE VOLUME PRESSAVG GPRESSAVG
ENERGY: 0 0.3958 11.8862 3.2407 0.0000 -10635.2082 1416.5651 0.0000 0.0000 1759.6882 -7443.4320 299.1101 -9203.1203 -7443.4320 299.1101 -209.1571 -139.4320 30396.8022 -209.1571 -139.4320
ENERGY: 300000 2.0385 10.1814 4.3511 0.0000 -10710.6636 1515.0492 0.0000 0.0000 1720.1078 -7458.9355 292.3822 -9179.0434 -7462.4653 298.8676 658.3075 695.9722 30305.3675 -89.3621 -20.9852
ENERGY: 600000 0.9585 11.4886 5.7375 0.0000 -10711.1364 1456.5342 0.0000 0.0000 1692.1349 -7544.2828 287.6274 -9236.4177 -7484.5395 298.8563 40.0927 20.8106 30165.2741 -18.5483 31.8292
ENERGY: 900000 1.4671 12.1402 2.3945 0.0000 -10662.3351 1405.3807 0.0000 0.0000 1746.4268 -7494.5259 296.8559 -9240.9527 -7469.4624 300.1598 -183.5800 -143.9150 29963.9280 -12.1307 35.4232
ENERGY: 1200000 0.8816 14.9056 3.2400 0.0000 -10755.8597 1465.5912 0.0000 0.0000 1750.0479 -7521.1934 297.4714 -9271.2413 -7467.5033 300.4727 202.9913 245.9067 30005.4809 -96.8632 -48.2671
ENERGY: 1500000 3.7295 12.6022 3.3961 0.0000 -10602.2843 1389.7198 0.0000 0.0000 1704.5260 -7488.3107 289.7337 -9192.8366 -7478.8716 298.6012 -458.1769 -435.8910 30405.8982 -92.8832 -44.9585
TCL: Running FEP window   3: Lambda1 0.1    Lambda2 0.15000000000000002 [dLambda 0.05000000000000002]
TCL: Setting parameter firsttimestep to 0
TCL: Setting parameter alchLambda to 0.1
Info: NONBONDED TABLE R-SQUARED SPACING: 0.0625
Info: NONBONDED TABLE SIZE: 705 POINTS
TCL: Setting parameter alchLambda2 to 0.15000000000000002
Info: NONBONDED TABLE R-SQUARED SPACING: 0.0625
Info: NONBONDED TABLE SIZE: 705 POINTS
TCL: Running for 1500000 steps
ETITLE: TS BOND ANGLE DIHED IMPRP ELECT VDW BOUNDARY MISC KINETIC TOTAL TEMP POTENTIAL TOTALAVG TEMPAVG PRESSURE GPRESSURE VOLUME PRESSAVG GPRESSAVG
ENERGY: 0 3.7295 12.6022 3.3961 0.0000 -10602.2848 1391.1027 0.0000 0.0000 1703.5957 -7487.8585 289.5755 -9191.4542 -7487.8585 289.5755 -500.7879 -429.0339 30405.8982 -500.7879 -429.0339
ENERGY: 300000 2.1138 11.8959 3.5061 0.0000 -10818.0889 1572.2088 0.0000 0.0000 1786.5899 -7441.7744 303.6828 -9228.3643 -7455.1030 297.9687 1437.9323 1476.3521 29498.1078 -210.6936 -151.8805
ENERGY: 600000 2.1632 11.5822 2.6254 0.0000 -10643.6160 1390.9411 0.0000 0.0000 1712.6525 -7523.6515 291.1150 -9236.3040 -7460.4054 297.1444 -379.0286 -407.7149 30295.6193 -157.7034 -111.1910
ENERGY: 900000 3.3249 8.2259 2.1495 0.0000 -10646.2508 1426.4065 0.0000 0.0000 1763.0465 -7443.0975 299.6809 -9206.1440 -7462.4520 298.3599 175.3224 203.2536 30159.4225 -94.6571 -47.9591
ENERGY: 1200000 1.5239 8.7525 3.0111 0.0000 -10781.6583 1461.6271 0.0000 0.0000 1753.1350 -7553.6088 297.9962 -9306.7437 -7459.5143 299.8148 -169.1270 -119.7958 30381.6432 -129.0703 -73.4384
ENERGY: 1500000 2.0739 9.5254 6.3273 0.0000 -10768.6325 1479.9829 0.0000 0.0000 1725.4141 -7545.3089 293.2842 -9270.7229 -7466.8766 300.3031 399.7103 409.9040 30079.2666 -27.8361 26.1980
TCL: Running FEP window   4: Lambda1 0.15000000000000002 Lambda2 0.2    [dLambda 0.04999999999999999]
TCL: Setting parameter firsttimestep to 0
TCL: Setting parameter alchLambda to 0.15000000000000002
Info: NONBONDED TABLE R-SQUARED SPACING: 0.0625
Info: NONBONDED TABLE SIZE: 705 POINTS
TCL: Setting parameter alchLambda2 to 0.2
Info: NONBONDED TABLE R-SQUARED SPACING: 0.0625
Info: NONBONDED TABLE SIZE: 705 POINTS
TCL: Running for 1500000 steps
ETITLE: TS BOND ANGLE DIHED IMPRP ELECT VDW BOUNDARY MISC KINETIC TOTAL TEMP POTENTIAL TOTALAVG TEMPAVG PRESSURE GPRESSURE VOLUME PRESSAVG GPRESSAVG
ENERGY: 0 2.0739 9.5254 6.3273 0.0000 -10768.6329 1480.5242 0.0000 0.0000 1724.5111 -7545.6710 293.1307 -9270.1821 -7545.6710 293.1307 338.6531 417.0525 30079.2666 338.6531 417.0525
ENERGY: 300000 1.4336 10.6976 3.4023 0.0000 -10647.6096 1464.3133 0.0000 0.0000 1730.9046 -7436.8582 294.2175 -9167.7628 -7480.1138 296.6570 405.3957 481.8383 30040.9304 -128.3724 -40.1626
ENERGY: 600000 4.9104 10.5015 5.1493 0.0000 -10660.3035 1403.2884 0.0000 0.0000 1754.9995 -7481.4542 298.3131 -9236.4537 -7464.3591 298.2880 -200.8330 -192.2769 30218.9940 -167.7862 -100.8599
ENERGY: 900000 2.5412 10.1438 2.5278 0.0000 -10781.4891 1467.5325 0.0000 0.0000 1766.1991 -7532.5447 300.2168 -9298.7438 -7468.9601 299.1746 -128.8795 -40.2484 30283.4968 -78.1728 -11.4970
ENERGY: 1200000 2.5950 10.3529 2.6321 0.0000 -10565.3484 1377.2460 0.0000 0.0000 1814.6751 -7357.8473 308.4567 -9172.5224 -7463.5631 300.3252 -404.4815 -288.0601 30527.1266 -130.4327 -62.2257
ENERGY: 1500000 2.1093 11.0170 2.7469 0.0000 -10525.8405 1355.0723 0.0000 0.0000 1747.1786 -7407.7164 296.9837 -9154.8949 -7467.5523 299.9630 -555.3005 -496.8012 30442.0068 -122.7550 -62.7022
TCL: Running FEP window   5: Lambda1 0.2    Lambda2 0.25   [dLambda 0.04999999999999999]
TCL: Setting parameter firsttimestep to 0
TCL: Setting parameter alchLambda to 0.2
Info: NONBONDED TABLE R-SQUARED SPACING: 0.0625
Info: NONBONDED TABLE SIZE: 705 POINTS
TCL: Setting parameter alchLambda2 to 0.25
Info: NONBONDED TABLE R-SQUARED SPACING: 0.0625
Info: NONBONDED TABLE SIZE: 705 POINTS
TCL: Running for 1500000 steps
ETITLE: TS BOND ANGLE DIHED IMPRP ELECT VDW BOUNDARY MISC KINETIC TOTAL TEMP POTENTIAL TOTALAVG TEMPAVG PRESSURE GPRESSURE VOLUME PRESSAVG GPRESSAVG
ENERGY: 0 2.1094 11.0170 2.7469 0.0000 -10525.8409 1355.5499 0.0000 0.0000 1746.3129 -7408.1049 296.8366 -9154.4178 -7408.1049 296.8366 -580.2297 -491.9776 30442.0068 -580.2297 -491.9776
ENERGY: 300000 6.4691 12.9095 3.9577 0.0000 -10806.1181 1515.8666 0.0000 0.0000 1793.2948 -7473.6204 304.8225 -9266.9152 -7457.9113 298.7307 417.0522 486.2190 29974.3159 -13.5209 44.7354
ENERGY: 600000 2.3250 17.3164 3.1812 0.0000 -10689.2038 1441.5651 0.0000 0.0000 1768.2102 -7456.6059 300.5586 -9224.8160 -7471.2684 298.6550 396.5889 442.8594 29628.3745 -33.8741 15.9949
ENERGY: 900000 5.1729 10.6474 3.3080 0.0000 -10579.8487 1381.3161 0.0000 0.0000 1786.3552 -7393.0491 303.6429 -9179.4044 -7454.0643 299.1645 -639.4275 -563.8762 30530.0153 -143.1007 -82.7792
ENERGY: 1200000 2.6237 12.7104 3.6413 0.0000 -10607.6553 1406.4492 0.0000 0.0000 1772.1171 -7410.1136 301.2227 -9182.2308 -7456.9297 298.2259 -47.8373 -54.4226 30266.6498 -173.8209 -115.0457
ENERGY: 1500000 2.3554 9.9847 2.4339 0.0000 -10745.1018 1497.4401 0.0000 0.0000 1722.3327 -7510.5550 292.7604 -9232.8877 -7468.1460 297.2087 543.0485 621.9823 29828.4912 -96.3968 -28.9048
TCL: Running FEP window   6: Lambda1 0.25   Lambda2 0.3    [dLambda 0.04999999999999999]
TCL: Setting parameter firsttimestep to 0
TCL: Setting parameter alchLambda to 0.25
Info: NONBONDED TABLE R-SQUARED SPACING: 0.0625
Info: NONBONDED TABLE SIZE: 705 POINTS
TCL: Setting parameter alchLambda2 to 0.3
Info: NONBONDED TABLE R-SQUARED SPACING: 0.0625
Info: NONBONDED TABLE SIZE: 705 POINTS
TCL: Running for 1500000 steps
ETITLE: TS BOND ANGLE DIHED IMPRP ELECT VDW BOUNDARY MISC KINETIC TOTAL TEMP POTENTIAL TOTALAVG TEMPAVG PRESSURE GPRESSURE VOLUME PRESSAVG GPRESSAVG
ENERGY: 0 2.3553 9.9847 2.4339 0.0000 -10745.1012 1498.4670 0.0000 0.0000 1721.4370 -7510.4232 292.6082 -9231.8602 -7510.4232 292.6082 543.4675 632.9577 29828.4912 543.4675 632.9577
ENERGY: 300000 0.5281 8.7683 3.0572 0.0000 -10797.8237 1519.0868 0.0000 0.0000 1789.2524 -7477.1310 304.1354 -9266.3834 -7475.6332 299.3285 630.0141 655.9716 30291.6755 -18.9832 55.5411
ENERGY: 600000 4.3043 15.4733 2.9920 0.0000 -10770.7733 1548.9899 0.0000 0.0000 1795.6481 -7403.3657 305.2225 -9199.0138 -7473.4600 299.3627 834.9011 848.8139 30240.1391 -102.4265 -42.0230
ENERGY: 900000 1.2452 15.2605 3.0982 0.0000 -10580.2857 1374.1735 0.0000 0.0000 1796.0334 -7390.4750 305.2880 -9186.5084 -7471.9025 298.2481 -514.4892 -381.8795 30445.9567 -202.0865 -125.5367
ENERGY: 1200000 2.8177 12.1134 3.9667 0.0000 -10717.4623 1455.9323 0.0000 0.0000 1766.3054 -7476.3267 300.2349 -9242.6321 -7474.8770 297.9432 69.3878 126.7380 30133.1499 -172.0914 -103.8896
ENERGY: 1500000 2.9034 8.8741 3.8924 0.0000 -10691.0118 1419.0518 0.0000 0.0000 1830.9298 -7425.3603 311.2197 -9256.2901 -7464.0658 299.2278 -1.7581 154.7632 29820.3119 -155.5357 -84.6813
TCL: Running FEP window   7: Lambda1 0.3    Lambda2 0.35   [dLambda 0.04999999999999999]
TCL: Setting parameter firsttimestep to 0
TCL: Setting parameter alchLambda to 0.3
Info: NONBONDED TABLE R-SQUARED SPACING: 0.0625
Info: NONBONDED TABLE SIZE: 705 POINTS
TCL: Setting parameter alchLambda2 to 0.35
Info: NONBONDED TABLE R-SQUARED SPACING: 0.0625
Info: NONBONDED TABLE SIZE: 705 POINTS
TCL: Running for 1500000 steps
ETITLE: TS BOND ANGLE DIHED IMPRP ELECT VDW BOUNDARY MISC KINETIC TOTAL TEMP POTENTIAL TOTALAVG TEMPAVG PRESSURE GPRESSURE VOLUME PRESSAVG GPRESSAVG
ENERGY: 0 2.9034 8.8741 3.8924 0.0000 -10691.0130 1419.6686 0.0000 0.0000 1830.0824 -7425.5921 311.0756 -9255.6745 -7425.5921 311.0756 80.0656 167.3649 29820.3119 80.0656 167.3649
ENERGY: 300000 3.6487 8.6918 3.8325 0.0000 -10769.6559 1499.8847 0.0000 0.0000 1725.0201 -7528.5781 293.2172 -9253.5982 -7488.2070 298.0575 74.0874 165.1200 30466.7705 -32.7465 40.6987
ENERGY: 600000 1.6810 13.1250 3.3727 0.0000 -10690.0283 1503.0364 0.0000 0.0000 1687.7335 -7481.0796 286.8793 -9168.8131 -7485.0573 297.2401 379.2845 511.0005 30403.7721 -102.1943 -37.8930
ENERGY: 900000 2.1997 9.8843 2.8155 0.0000 -10591.1574 1396.1843 0.0000 0.0000 1760.3265 -7419.7470 299.2186 -9180.0735 -7457.6331 298.2247 -206.1911 -135.5425 30445.6866 -12.0062 58.7722
ENERGY: 1200000 1.3123 9.8315 3.4072 0.0000 -10702.9617 1462.9680 0.0000 0.0000 1757.1023 -7468.3403 298.6705 -9225.4425 -7466.0978 297.9460 -46.0194 9.9504 30699.5061 50.1728 115.9861
ENERGY: 1500000 5.9788 17.9163 4.8116 0.0000 -10741.5141 1478.4186 0.0000 0.0000 1770.5328 -7463.8560 300.9534 -9234.3888 -7462.9612 299.4483 34.0047 91.7034 30378.3254 114.5958 181.5486
TCL: Running FEP window   8: Lambda1 0.35   Lambda2 0.39999999999999997 [dLambda 0.04999999999999999]
TCL: Setting parameter firsttimestep to 0
TCL: Setting parameter alchLambda to 0.35
Info: NONBONDED TABLE R-SQUARED SPACING: 0.0625
Info: NONBONDED TABLE SIZE: 705 POINTS
TCL: Setting parameter alchLambda2 to 0.39999999999999997
Info: NONBONDED TABLE R-SQUARED SPACING: 0.0625
Info: NONBONDED TABLE SIZE: 705 POINTS
TCL: Running for 1500000 steps
ETITLE: TS BOND ANGLE DIHED IMPRP ELECT VDW BOUNDARY MISC KINETIC TOTAL TEMP POTENTIAL TOTALAVG TEMPAVG PRESSURE GPRESSURE VOLUME PRESSAVG GPRESSAVG
ENERGY: 0 5.9789 17.9163 4.8116 0.0000 -10741.5148 1477.8644 0.0000 0.0000 1769.6811 -7465.2626 300.8087 -9234.9437 -7465.2626 300.8087 6.7381 90.9870 30378.3254 6.7381 90.9870
ENERGY: 300000 3.1035 10.5771 2.9762 0.0000 -10738.7509 1490.1176 0.0000 0.0000 1780.3989 -7451.5775 302.6305 -9231.9764 -7465.3735 300.5042 425.1620 445.1148 29984.2443 359.8598 420.2294
ENERGY: 600000 2.1597 11.8471 2.7088 0.0000 -10682.4280 1493.1909 0.0000 0.0000 1735.8400 -7436.6814 295.0564 -9172.5214 -7460.7338 302.0548 452.1506 567.0381 30378.4501 252.4713 324.5337
ENERGY: 900000 0.8068 12.2943 2.9487 0.0000 -10770.7291 1502.3462 0.0000 0.0000 1839.1432 -7413.1899 312.6158 -9252.3331 -7452.7875 303.1931 482.7560 550.9987 30495.4280 270.3468 345.0227
ENERGY: 1200000 1.5690 12.3449 2.6633 0.0000 -10546.8374 1407.6710 0.0000 0.0000 1787.9120 -7334.6772 303.9075 -9122.5892 -7435.1942 303.2283 -84.6725 -35.1467 30759.3945 163.4535 235.0458
ENERGY: 1500000 3.1428 12.0297 6.2891 0.0000 -10646.2348 1455.0924 0.0000 0.0000 1835.0779 -7334.6029 311.9247 -9169.6808 -7435.2092 303.6238 254.4204 305.2542 30634.3751 224.1648 298.8645
TCL: Running FEP window   9: Lambda1 0.39999999999999997 Lambda2 0.44999999999999996 [dLambda 0.04999999999999999]
TCL: Setting parameter firsttimestep to 0
TCL: Setting parameter alchLambda to 0.39999999999999997
Info: NONBONDED TABLE R-SQUARED SPACING: 0.0625
Info: NONBONDED TABLE SIZE: 705 POINTS
TCL: Setting parameter alchLambda2 to 0.44999999999999996
Info: NONBONDED TABLE R-SQUARED SPACING: 0.0625
Info: NONBONDED TABLE SIZE: 705 POINTS
TCL: Running for 1500000 steps
ETITLE: TS BOND ANGLE DIHED IMPRP ELECT VDW BOUNDARY MISC KINETIC TOTAL TEMP POTENTIAL TOTALAVG TEMPAVG PRESSURE GPRESSURE VOLUME PRESSAVG GPRESSAVG
ENERGY: 0 3.1428 12.0297 6.2891 0.0000 -10646.2356 1455.0001 0.0000 0.0000 1834.2294 -7335.5445 311.7805 -9169.7739 -7335.5445 311.7805 211.8249 311.8455 30634.3751 211.8249 311.8455
ENERGY: 300000 4.4285 6.4312 3.2612 0.0000 -10679.6995 1458.0772 0.0000 0.0000 1810.1267 -7397.3748 307.6836 -9207.5015 -7437.8308 302.3689 165.8250 230.2192 30155.6127 -58.9444 -2.9214
ENERGY: 600000 3.0850 6.6026 3.2526 0.0000 -10826.1347 1496.5543 0.0000 0.0000 1811.9490 -7504.6912 307.9933 -9316.6402 -7447.1257 301.9925 438.5210 433.1295 29998.2498 147.1000 184.7716
ENERGY: 900000 1.3102 16.4244 3.2472 0.0000 -10783.8979 1514.7652 0.0000 0.0000 1736.7310 -7511.4200 295.2078 -9248.1510 -7452.5736 301.2451 360.1752 421.5495 30273.0900 244.4615 285.8887
ENERGY: 1200000 1.8908 9.5931 2.8807 0.0000 -10744.7836 1475.4559 0.0000 0.0000 1777.4036 -7477.5595 302.1213 -9254.9631 -7464.9346 300.3917 99.8638 164.7730 30548.9742 311.6331 359.3728
ENERGY: 1500000 0.6342 11.2955 4.4073 0.0000 -10626.4314 1416.1899 0.0000 0.0000 1680.9733 -7512.9313 285.7302 -9193.9046 -7464.3279 299.4805 -133.7819 -84.2590 30437.1175 188.2659 240.6505
TCL: Running FEP window  10: Lambda1 0.44999999999999996 Lambda2 0.49999999999999994 [dLambda 0.04999999999999999]
TCL: Setting parameter firsttimestep to 0
TCL: Setting parameter alchLambda to 0.44999999999999996
Info: NONBONDED TABLE R-SQUARED SPACING: 0.0625
Info: NONBONDED TABLE SIZE: 705 POINTS
TCL: Setting parameter alchLambda2 to 0.49999999999999994
Info: NONBONDED TABLE R-SQUARED SPACING: 0.0625
Info: NONBONDED TABLE SIZE: 705 POINTS
TCL: Running for 1500000 steps
ETITLE: TS BOND ANGLE DIHED IMPRP ELECT VDW BOUNDARY MISC KINETIC TOTAL TEMP POTENTIAL TOTALAVG TEMPAVG PRESSURE GPRESSURE VOLUME PRESSAVG GPRESSAVG
ENERGY: 0 0.6342 11.2955 4.4073 0.0000 -10626.4318 1415.7364 0.0000 0.0000 1680.0544 -7514.3041 285.5740 -9194.3585 -7514.3041 285.5740 -148.5596 -82.2486 30437.1175 -148.5596 -82.2486
ENERGY: 300000 1.7049 7.2099 2.1839 0.0000 -10729.7700 1421.7731 0.0000 0.0000 1794.5269 -7502.3713 305.0319 -9296.8982 -7503.9250 295.6294 -252.7747 -140.0832 30031.1906 7.1508 89.1877
ENERGY: 600000 3.1427 9.1430 2.8397 0.0000 -10644.1379 1432.9103 0.0000 0.0000 1754.2641 -7441.8382 298.1881 -9196.1023 -7487.3498 297.7322 120.4993 194.7030 30109.1111 -125.8501 -54.6972
ENERGY: 900000 2.2417 19.3325 2.8369 0.0000 -10500.3206 1280.6891 0.0000 0.0000 1740.0744 -7455.1460 295.7761 -9195.2204 -7474.3430 298.4296 -1394.6503 -1304.2880 30469.7805 -289.8915 -220.5307
ENERGY: 1200000 2.4624 8.8643 2.5368 0.0000 -10872.4139 1580.4226 0.0000 0.0000 1773.5516 -7504.5762 301.4666 -9278.1278 -7477.6928 299.8558 1266.2071 1342.6880 29746.0333 13.4872 77.9215
ENERGY: 1500000 1.2347 10.9312 3.6894 0.0000 -10761.5181 1452.6336 0.0000 0.0000 1765.5727 -7527.4565 300.1103 -9293.0292 -7483.9222 300.6213 -37.1101 -7.1510 30279.4036 42.4251 105.8419
TCL: Running FEP window  11: Lambda1 0.49999999999999994 Lambda2 0.5499999999999999 [dLambda 0.04999999999999999]
TCL: Setting parameter firsttimestep to 0
TCL: Setting parameter alchLambda to 0.49999999999999994
Info: NONBONDED TABLE R-SQUARED SPACING: 0.0625
Info: NONBONDED TABLE SIZE: 705 POINTS
TCL: Setting parameter alchLambda2 to 0.5499999999999999
Info: NONBONDED TABLE R-SQUARED SPACING: 0.0625
Info: NONBONDED TABLE SIZE: 705 POINTS
TCL: Running for 1500000 steps
ETITLE: TS BOND ANGLE DIHED IMPRP ELECT VDW BOUNDARY MISC KINETIC TOTAL TEMP POTENTIAL TOTALAVG TEMPAVG PRESSURE GPRESSURE VOLUME PRESSAVG GPRESSAVG
ENERGY: 0 1.2347 10.9312 3.6894 0.0000 -10761.5181 1452.2639 0.0000 0.0000 1764.7135 -7528.6854 299.9643 -9293.3989 -7528.6854 299.9643 -71.7458 -2.2849 30279.4036 -71.7458 -2.2849
ENERGY: 300000 1.2975 10.9689 3.4106 0.0000 -10736.9616 1481.2285 0.0000 0.0000 1787.3135 -7452.7427 303.8058 -9240.0561 -7473.1288 301.3526 384.0480 396.2718 30527.2549 211.8037 279.5415
ENERGY: 600000 0.6867 11.5460 4.1887 0.0000 -10629.5445 1382.0865 0.0000 0.0000 1769.2506 -7461.7860 300.7355 -9231.0366 -7447.5611 302.3017 -558.3233 -503.8258 30439.4781 -74.3146 -12.3995
ENERGY: 900000 2.6560 9.5922 2.8433 0.0000 -10747.6589 1495.1413 0.0000 0.0000 1701.7102 -7535.7159 289.2550 -9237.4261 -7471.1885 300.1120 111.9320 163.6368 30604.8080 16.4490 78.2522
ENERGY: 1200000 1.4755 14.2110 2.8526 0.0000 -10651.5872 1431.8781 0.0000 0.0000 1739.3954 -7461.7747 295.6607 -9201.1701 -7476.5249 299.6402 -311.1696 -251.6094 30675.7406 -12.8623 52.5552
ENERGY: 1500000 1.3862 8.5416 2.8974 0.0000 -10681.8653 1367.1824 0.0000 0.0000 1776.8982 -7524.9595 302.0354 -9301.8577 -7472.6856 299.9553 -508.5612 -472.4685 30165.1701 -72.5051 -2.9340
TCL: Running FEP window  12: Lambda1 0.5499999999999999 Lambda2 0.6    [dLambda 0.050000000000000044]
TCL: Setting parameter firsttimestep to 0
TCL: Setting parameter alchLambda to 0.5499999999999999
Info: NONBONDED TABLE R-SQUARED SPACING: 0.0625
Info: NONBONDED TABLE SIZE: 705 POINTS
TCL: Setting parameter alchLambda2 to 0.6
Info: NONBONDED TABLE R-SQUARED SPACING: 0.0625
Info: NONBONDED TABLE SIZE: 705 POINTS
TCL: Running for 1500000 steps
ETITLE: TS BOND ANGLE DIHED IMPRP ELECT VDW BOUNDARY MISC KINETIC TOTAL TEMP POTENTIAL TOTALAVG TEMPAVG PRESSURE GPRESSURE VOLUME PRESSAVG GPRESSAVG
ENERGY: 0 1.3862 8.5416 2.8974 0.0000 -10681.7965 1367.0333 0.0000 0.0000 1775.9916 -7525.9464 301.8813 -9301.9379 -7525.9464 301.8813 -523.1214 -466.7107 30165.1701 -523.1214 -466.7107
ENERGY: 300000 2.7240 12.4088 2.8404 0.0000 -10660.7792 1463.5810 0.0000 0.0000 1737.2920 -7441.9331 295.3032 -9179.2251 -7472.8216 301.2241 321.4777 356.2940 30270.1668 -135.2509 -96.1993
ENERGY: 600000 1.4148 15.1489 3.4625 0.0000 -10586.8407 1393.6707 0.0000 0.0000 1743.4619 -7429.6819 296.3520 -9173.1438 -7460.1862 300.1162 -327.8928 -218.4911 30303.1512 -141.5371 -78.8651
ENERGY: 900000 1.5552 9.4611 2.8834 0.0000 -10679.6627 1428.8692 0.0000 0.0000 1781.2187 -7455.6751 302.7698 -9236.8938 -7457.2749 300.2230 -140.4798 -47.1829 30394.5496 -113.8188 -47.3511
ENERGY: 1200000 1.4713 16.9460 3.5642 0.0000 -10633.7027 1415.5288 0.0000 0.0000 1776.4577 -7419.7346 301.9605 -9196.1923 -7463.4233 300.0056 -109.4895 -20.3563 30540.7705 -133.3460 -63.0630
ENERGY: 1500000 2.3959 13.9052 3.1925 0.0000 -10645.4173 1405.6591 0.0000 0.0000 1756.7295 -7463.5353 298.6072 -9220.2647 -7447.0230 300.5264 -331.8199 -305.0357 30505.4891 -83.6087 -13.4471
TCL: Running FEP window  13: Lambda1 0.6    Lambda2 0.65   [dLambda 0.050000000000000044]
TCL: Setting parameter firsttimestep to 0
TCL: Setting parameter alchLambda to 0.6
Info: NONBONDED TABLE R-SQUARED SPACING: 0.0625
Info: NONBONDED TABLE SIZE: 705 POINTS
TCL: Setting parameter alchLambda2 to 0.65
Info: NONBONDED TABLE R-SQUARED SPACING: 0.0625
Info: NONBONDED TABLE SIZE: 705 POINTS
TCL: Running for 1500000 steps
ETITLE: TS BOND ANGLE DIHED IMPRP ELECT VDW BOUNDARY MISC KINETIC TOTAL TEMP POTENTIAL TOTALAVG TEMPAVG PRESSURE GPRESSURE VOLUME PRESSAVG GPRESSAVG
ENERGY: 0 2.3959 13.9051 3.1925 0.0000 -10645.4253 1405.4750 0.0000 0.0000 1755.8900 -7464.5668 298.4645 -9220.4568 -7464.5668 298.4645 -393.9747 -299.4250 30505.4891 -393.9747 -299.4250
ENERGY: 300000 2.4052 10.1246 2.8554 0.0000 -10916.0967 1558.0999 0.0000 0.0000 1853.4896 -7489.1220 315.0543 -9342.6116 -7465.4523 304.0235 977.9417 1071.2388 29757.7432 -259.0079 -179.3332
ENERGY: 600000 2.3625 10.5753 3.1853 0.0000 -10718.2520 1464.8435 0.0000 0.0000 1766.9132 -7470.3722 300.3382 -9237.2853 -7467.6514 302.5783 344.0239 394.5593 30057.7733 -84.4025 -12.7607
ENERGY: 900000 4.2796 14.2677 2.8646 0.0000 -10655.2717 1363.4387 0.0000 0.0000 1829.6508 -7440.7703 311.0023 -9270.4211 -7456.7194 303.3395 -721.7751 -644.9470 30229.8025 -75.7272 -13.8449
ENERGY: 1200000 2.2156 9.1410 3.1925 0.0000 -10520.0034 1345.5578 0.0000 0.0000 1769.7848 -7390.1118 300.8263 -9159.8966 -7447.5627 302.5526 -525.1138 -468.9112 30460.8305 -179.8573 -122.9495
ENERGY: 1500000 3.7970 10.7384 2.6289 0.0000 -10695.0824 1434.0322 0.0000 0.0000 1798.2472 -7445.6388 305.6643 -9243.8859 -7451.5978 301.9340 -167.7945 -228.6335 30543.7621 -178.7437 -128.3844
TCL: Running FEP window  14: Lambda1 0.65   Lambda2 0.7000000000000001 [dLambda 0.050000000000000044]
TCL: Setting parameter firsttimestep to 0
TCL: Setting parameter alchLambda to 0.65
Info: NONBONDED TABLE R-SQUARED SPACING: 0.0625
Info: NONBONDED TABLE SIZE: 705 POINTS
TCL: Setting parameter alchLambda2 to 0.7000000000000001
Info: NONBONDED TABLE R-SQUARED SPACING: 0.0625
Info: NONBONDED TABLE SIZE: 705 POINTS
TCL: Running for 1500000 steps
ETITLE: TS BOND ANGLE DIHED IMPRP ELECT VDW BOUNDARY MISC KINETIC TOTAL TEMP POTENTIAL TOTALAVG TEMPAVG PRESSURE GPRESSURE VOLUME PRESSAVG GPRESSAVG
ENERGY: 0 3.7970 10.7384 2.6289 0.0000 -10695.0829 1434.3389 0.0000 0.0000 1797.3667 -7446.2130 305.5146 -9243.5797 -7446.2130 305.5146 -298.0971 -214.7312 30543.7621 -298.0971 -214.7312
ENERGY: 300000 2.8356 10.9350 3.9013 0.0000 -10589.7555 1447.2952 0.0000 0.0000 1760.4187 -7364.3696 299.2343 -9124.7884 -7394.6147 302.0456 258.0835 310.2125 30373.3047 -43.1714 18.4173
ENERGY: 600000 2.8114 7.9707 2.8573 0.0000 -10750.2698 1514.3300 0.0000 0.0000 1785.6383 -7436.6620 303.5210 -9222.3003 -7416.4817 302.0847 732.5812 768.5668 30016.1063 11.3469 66.9312
ENERGY: 900000 4.1150 9.8491 2.7918 0.0000 -10775.8244 1585.8740 0.0000 0.0000 1726.2390 -7446.9555 293.4244 -9173.1944 -7429.5464 299.4088 1154.0920 1267.9068 30461.5985 47.0667 105.9801
ENERGY: 1200000 4.5895 9.1358 2.3897 0.0000 -10729.8608 1518.7046 0.0000 0.0000 1793.4170 -7401.6243 304.8433 -9195.0413 -7437.3367 299.9392 373.6721 418.7736 30766.6461 24.1576 87.5833
ENERGY: 1500000 1.9108 9.2553 3.2620 0.0000 -10781.2675 1450.3420 0.0000 0.0000 1810.0433 -7506.4540 307.6694 -9316.4973 -7448.6809 300.6972 4.0960 78.5827 29851.5454 -75.0362 -8.0047
TCL: Running FEP window  15: Lambda1 0.7000000000000001 Lambda2 0.7500000000000001 [dLambda 0.050000000000000044]
TCL: Setting parameter firsttimestep to 0
TCL: Setting parameter alchLambda to 0.7000000000000001
Info: NONBONDED TABLE R-SQUARED SPACING: 0.0625
Info: NONBONDED TABLE SIZE: 705 POINTS
TCL: Setting parameter alchLambda2 to 0.7500000000000001
Info: NONBONDED TABLE R-SQUARED SPACING: 0.0625
Info: NONBONDED TABLE SIZE: 705 POINTS
TCL: Running for 1500000 steps
ETITLE: TS BOND ANGLE DIHED IMPRP ELECT VDW BOUNDARY MISC KINETIC TOTAL TEMP POTENTIAL TOTALAVG TEMPAVG PRESSURE GPRESSURE VOLUME PRESSAVG GPRESSAVG
ENERGY: 0 1.9108 9.2553 3.2620 0.0000 -10781.3082 1450.1684 0.0000 0.0000 1809.1550 -7507.5566 307.5184 -9316.7116 -7507.5566 307.5184 0.1976 84.2210 29851.5454 0.1976 84.2210
ENERGY: 300000 5.8789 7.9776 3.3953 0.0000 -10490.7219 1288.9422 0.0000 0.0000 1745.4782 -7439.0496 296.6947 -9184.5279 -7443.2362 300.4212 -1454.4810 -1368.9722 31109.8282 -308.4959 -224.8545
ENERGY: 600000 4.0132 11.9242 2.3460 0.0000 -10757.8169 1442.5055 0.0000 0.0000 1773.2902 -7523.7378 301.4221 -9297.0280 -7482.2900 298.6716 -59.4374 -19.7903 30150.0855 -84.0315 -23.0672
ENERGY: 900000 2.2791 7.8312 2.4684 0.0000 -10712.5263 1461.4619 0.0000 0.0000 1759.5829 -7478.9029 299.0922 -9238.4858 -7472.9714 299.1792 84.8158 124.0031 30593.7804 -137.9518 -87.0559
ENERGY: 1200000 3.8204 12.8573 5.0019 0.0000 -10551.5309 1388.3518 0.0000 0.0000 1748.2636 -7393.2359 297.1681 -9141.4995 -7465.7363 299.6126 -520.8344 -499.9500 31424.8255 -104.0648 -58.2217
ENERGY: 1500000 2.4295 9.6241 4.1679 0.0000 -10629.9917 1353.4875 0.0000 0.0000 1756.4167 -7503.8661 298.5540 -9260.2828 -7475.1726 298.8033 -646.1226 -586.7275 30501.4317 -190.6421 -139.8603
TCL: Running FEP window  16: Lambda1 0.7500000000000001 Lambda2 0.8000000000000002 [dLambda 0.050000000000000044]
TCL: Setting parameter firsttimestep to 0
TCL: Setting parameter alchLambda to 0.7500000000000001
Info: NONBONDED TABLE R-SQUARED SPACING: 0.0625
Info: NONBONDED TABLE SIZE: 705 POINTS
TCL: Setting parameter alchLambda2 to 0.8000000000000002
Info: NONBONDED TABLE R-SQUARED SPACING: 0.0625
Info: NONBONDED TABLE SIZE: 705 POINTS
TCL: Running for 1500000 steps
ETITLE: TS BOND ANGLE DIHED IMPRP ELECT VDW BOUNDARY MISC KINETIC TOTAL TEMP POTENTIAL TOTALAVG TEMPAVG PRESSURE GPRESSURE VOLUME PRESSAVG GPRESSAVG
ENERGY: 0 2.4295 9.6241 4.1679 0.0000 -10629.9565 1353.1206 0.0000 0.0000 1755.5565 -7505.0579 298.4078 -9260.6143 -7505.0579 298.4078 -674.3962 -580.1312 30501.4317 -674.3962 -580.1312
ENERGY: 300000 2.2440 11.5282 2.5722 0.0000 -10544.9715 1370.4509 0.0000 0.0000 1794.8841 -7363.2922 305.0926 -9158.1763 -7459.1347 300.7617 -294.1514 -225.3745 30609.2545 -328.6748 -267.6638
ENERGY: 600000 1.4529 10.8596 5.3546 0.0000 -10695.5573 1486.5587 0.0000 0.0000 1795.3789 -7395.9527 305.1767 -9191.3316 -7458.2206 300.7309 459.1166 544.3418 30473.4176 -250.4876 -192.6200
ENERGY: 900000 2.6243 13.4501 2.6295 0.0000 -10729.2069 1385.4763 0.0000 0.0000 1772.4669 -7552.5598 301.2822 -9325.0267 -7464.8298 300.9511 -600.2806 -551.5874 30376.8999 -251.3245 -192.0211
ENERGY: 1200000 1.9647 9.2511 2.1115 0.0000 -10768.3002 1504.8611 0.0000 0.0000 1767.6140 -7482.4978 300.4573 -9250.1118 -7473.9059 300.2216 162.8454 230.8888 30716.0552 -270.5921 -215.0575
ENERGY: 1500000 1.6440 15.1809 2.3341 0.0000 -10520.6025 1299.0421 0.0000 0.0000 1720.9630 -7481.4384 292.5276 -9202.4014 -7470.8450 300.5979 -1203.9603 -1087.6356 30726.2538 -276.3044 -217.6624
TCL: Running FEP window  17: Lambda1 0.8000000000000002 Lambda2 0.8500000000000002 [dLambda 0.050000000000000044]
TCL: Setting parameter firsttimestep to 0
TCL: Setting parameter alchLambda to 0.8000000000000002
Info: NONBONDED TABLE R-SQUARED SPACING: 0.0625
Info: NONBONDED TABLE SIZE: 705 POINTS
TCL: Setting parameter alchLambda2 to 0.8500000000000002
Info: NONBONDED TABLE R-SQUARED SPACING: 0.0625
Info: NONBONDED TABLE SIZE: 705 POINTS
TCL: Running for 1500000 steps
ETITLE: TS BOND ANGLE DIHED IMPRP ELECT VDW BOUNDARY MISC KINETIC TOTAL TEMP POTENTIAL TOTALAVG TEMPAVG PRESSURE GPRESSURE VOLUME PRESSAVG GPRESSAVG
ENERGY: 0 1.6440 15.1809 2.3341 0.0000 -10520.6024 1298.8980 0.0000 0.0000 1720.0752 -7482.4701 292.3767 -9202.5454 -7482.4701 292.3767 -1160.9364 -1078.7074 30726.2538 -1160.9364 -1078.7074
ENERGY: 300000 0.8761 7.2957 3.4594 0.0000 -10598.4622 1355.5802 0.0000 0.0000 1781.2067 -7450.0441 302.7678 -9231.2508 -7478.2979 297.0035 -507.2407 -473.9945 30569.0684 -832.5212 -770.8926
ENERGY: 600000 2.0759 9.8504 3.0632 0.0000 -10652.1312 1430.1436 0.0000 0.0000 1775.2357 -7431.7624 301.7528 -9206.9981 -7452.5473 299.1262 141.8135 137.1377 30297.0946 -456.0177 -402.6313
ENERGY: 900000 3.8165 9.1476 3.3682 0.0000 -10652.8762 1408.7083 0.0000 0.0000 1786.0046 -7441.8309 303.5833 -9227.8355 -7444.6113 300.9063 -154.0337 -96.9661 30099.5575 -412.5242 -349.6140
ENERGY: 1200000 5.5081 9.7434 2.9636 0.0000 -10806.5432 1513.2508 0.0000 0.0000 1789.1361 -7485.9413 304.1156 -9275.0773 -7445.8996 301.5801 422.3726 467.5993 30169.7944 -324.0974 -266.8513
ENERGY: 1500000 2.0309 11.2773 3.3097 0.0000 -10756.9847 1478.4782 0.0000 0.0000 1796.6788 -7465.2097 305.3977 -9261.8886 -7443.7001 302.8521 201.9813 274.2929 30584.4866 -255.4081 -196.7192
TCL: Running FEP window  18: Lambda1 0.8500000000000002 Lambda2 0.9000000000000002 [dLambda 0.050000000000000044]
TCL: Setting parameter firsttimestep to 0
TCL: Setting parameter alchLambda to 0.8500000000000002
Info: NONBONDED TABLE R-SQUARED SPACING: 0.0625
Info: NONBONDED TABLE SIZE: 705 POINTS
TCL: Setting parameter alchLambda2 to 0.9000000000000002
Info: NONBONDED TABLE R-SQUARED SPACING: 0.0625
Info: NONBONDED TABLE SIZE: 705 POINTS
TCL: Running for 1500000 steps
ETITLE: TS BOND ANGLE DIHED IMPRP ELECT VDW BOUNDARY MISC KINETIC TOTAL TEMP POTENTIAL TOTALAVG TEMPAVG PRESSURE GPRESSURE VOLUME PRESSAVG GPRESSAVG
ENERGY: 0 2.0309 11.2773 3.3097 0.0000 -10756.9903 1478.1658 0.0000 0.0000 1795.7987 -7466.4078 305.2481 -9262.2065 -7466.4078 305.2481 218.4321 279.8669 30584.4866 218.4321 279.8669
ENERGY: 300000 1.2192 4.8992 2.4667 0.0000 -10606.5815 1437.9326 0.0000 0.0000 1771.6767 -7388.3872 301.1479 -9160.0638 -7465.6050 301.8944 203.4270 189.4924 30659.7971 461.2053 482.5141
ENERGY: 600000 3.6439 12.8407 4.2049 0.0000 -10641.4397 1350.5756 0.0000 0.0000 1771.6759 -7498.4987 301.1477 -9270.1745 -7453.4855 301.4033 -755.2909 -689.9681 30276.3157 205.1424 249.1409
ENERGY: 900000 2.5386 12.0162 5.4148 0.0000 -10564.1483 1359.7902 0.0000 0.0000 1755.2674 -7429.1211 298.3586 -9184.3885 -7462.6907 300.4562 -406.8543 -362.8508 30416.4878 89.9439 139.2902
ENERGY: 1200000 2.2258 11.3650 2.5655 0.0000 -10761.4360 1470.1406 0.0000 0.0000 1760.4136 -7514.7255 299.2334 -9275.1390 -7462.1040 300.8366 48.4224 159.5813 30418.0348 78.3677 140.9435
ENERGY: 1500000 2.8471 18.4459 5.0792 0.0000 -10651.5838 1386.2388 0.0000 0.0000 1791.3537 -7447.6191 304.4925 -9238.9728 -7462.3643 300.3924 -244.1342 -180.9826 30206.0246 80.6077 144.6530
TCL: Running FEP window  19: Lambda1 0.9000000000000002 Lambda2 0.9500000000000003 [dLambda 0.050000000000000044]
TCL: Setting parameter firsttimestep to 0
TCL: Setting parameter alchLambda to 0.9000000000000002
Info: NONBONDED TABLE R-SQUARED SPACING: 0.0625
Info: NONBONDED TABLE SIZE: 705 POINTS
TCL: Setting parameter alchLambda2 to 0.9500000000000003
Info: NONBONDED TABLE R-SQUARED SPACING: 0.0625
Info: NONBONDED TABLE SIZE: 705 POINTS
TCL: Running for 1500000 steps
ETITLE: TS BOND ANGLE DIHED IMPRP ELECT VDW BOUNDARY MISC KINETIC TOTAL TEMP POTENTIAL TOTALAVG TEMPAVG PRESSURE GPRESSURE VOLUME PRESSAVG GPRESSAVG
ENERGY: 0 2.8471 18.4459 5.0792 0.0000 -10651.6152 1387.2391 0.0000 0.0000 1790.5065 -7447.4974 304.3485 -9238.0039 -7447.4974 304.3485 -227.7781 -154.8959 30206.0246 -227.7781 -154.8959
ENERGY: 300000 2.5379 11.1705 2.4359 0.0000 -10649.5945 1361.1040 0.0000 0.0000 1746.4260 -7525.9202 296.8558 -9272.3462 -7471.0060 300.9503 -688.3421 -680.9194 30292.4852 -329.5286 -270.9356
ENERGY: 600000 3.2821 11.9132 3.3472 0.0000 -10578.9481 1391.4246 0.0000 0.0000 1787.6021 -7381.3789 303.8549 -9168.9810 -7457.4824 301.2104 -519.9026 -463.9709 31060.3838 -208.5980 -141.7903
ENERGY: 900000 2.1202 8.5908 3.6098 0.0000 -10788.4565 1496.2091 0.0000 0.0000 1819.5108 -7458.4159 309.2787 -9277.9267 -7449.3100 302.4368 425.0111 442.8285 30310.4137 -79.8212 -9.7540
ENERGY: 1200000 0.5650 11.2475 5.5679 0.0000 -10554.2309 1381.6343 0.0000 0.0000 1761.9268 -7393.2894 299.4906 -9155.2162 -7447.5583 302.0316 -92.4437 -45.2633 30529.0944 -120.9641 -55.4406
ENERGY: 1500000 4.2291 10.3141 2.7148 0.0000 -10590.9841 1361.4912 0.0000 0.0000 1749.8748 -7462.3600 297.4420 -9212.2348 -7446.1968 302.1432 -319.0991 -357.9176 30305.3986 -159.6460 -97.0517
TCL: Running FEP window  20: Lambda1 0.9500000000000003 Lambda2 1.0    [dLambda 0.04999999999999971]
TCL: Setting parameter firsttimestep to 0
TCL: Setting parameter alchLambda to 0.9500000000000003
Info: NONBONDED TABLE R-SQUARED SPACING: 0.0625
Info: NONBONDED TABLE SIZE: 705 POINTS
TCL: Setting parameter alchLambda2 to 1.0
Info: NONBONDED TABLE R-SQUARED SPACING: 0.0625
Info: NONBONDED TABLE SIZE: 705 POINTS
TCL: Running for 1500000 steps
ETITLE: TS BOND ANGLE DIHED IMPRP ELECT VDW BOUNDARY MISC KINETIC TOTAL TEMP POTENTIAL TOTALAVG TEMPAVG PRESSURE GPRESSURE VOLUME PRESSAVG GPRESSAVG
ENERGY: 0 4.2291 10.3141 2.7148 0.0000 -10590.9715 1361.1002 0.0000 0.0000 1749.0359 -7463.5773 297.2994 -9212.6132 -7463.5773 297.2994 -422.3230 -348.7982 30305.3986 -422.3230 -348.7982
ENERGY: 300000 3.1007 15.1100 3.7560 0.0000 -10709.2414 1459.5548 0.0000 0.0000 1697.4657 -7530.2542 288.5336 -9227.7199 -7503.5319 297.3502 425.1420 507.2377 30187.1679 -41.3327 15.7981
ENERGY: 600000 2.7085 13.2562 3.7597 0.0000 -10654.2560 1431.3112 0.0000 0.0000 1820.8004 -7382.4200 309.4979 -9203.2203 -7494.4769 299.4235 230.6053 221.6143 30456.1270 133.5162 183.8984
ENERGY: 900000 2.5145 10.7669 3.0179 0.0000 -10634.4702 1357.1683 0.0000 0.0000 1765.3512 -7495.6513 300.0727 -9261.0026 -7495.4044 298.8051 -831.4464 -741.6198 30740.1530 -31.4519 24.1128
ENERGY: 1200000 3.2972 10.8862 3.1345 0.0000 -10638.7407 1421.4663 0.0000 0.0000 1749.4899 -7450.4665 297.3766 -9199.9564 -7482.6892 298.5234 -77.2197 -25.3618 30505.6348 -6.0131 49.8230
ENERGY: 1500000 4.2136 9.5847 5.3975 0.0000 -10637.3136 1363.8979 0.0000 0.0000 1714.6312 -7539.5888 291.4513 -9254.2200 -7479.3877 298.0731 -859.1001 -750.8091 30542.5678 -51.7319 3.3632
TCL: Exiting due to exit command.
