Info: SIMULATION PARAMETERS:
Info: TIMESTEP               2
Info: NUMBER OF STEPS        0
Info: STEPS PER CYCLE        10
Info: PERIODIC CELL BASIS 1  31.0171 0 0
Info: PERIODIC CELL BASIS 2  0 29.6145 0
Info: PERIODIC CELL BASIS 3  0 0 33.2024
Info: PERIODIC CELL CENTER   0 0 0
Info: WRAPPING WATERS AROUND PERIODIC BOUNDARIES ON OUTPUT.
Info: WRAPPING ALL CLUSTERS AROUND PERIODIC BOUNDARIES ON OUTPUT.
Info: FIRST LDB TIMESTEP     50
Info: LAST LDB TIMESTEP     -1
Info: HOM BACKGROUND SCALING 1
Info: PME BACKGROUND SCALING 1
Info: MIN ATOMS PER PATCH    40
Info: EMPTY PATCH LOAD       40 ATOMS
Info: VELOCITY FILE          mobley_5311804_equil.vel
Info: CENTER OF MASS MOVING INITIALLY? NO
Info: DIELECTRIC             1
Info: EXCLUDE                SCALED ONE-FOUR
Info: 1-4 ELECTROSTATICS SCALED BY 0.833333
Info: MODIFIED 1-4 VDW PARAMETERS WILL BE USED
Info: DCD FILENAME           mobley_5311804_prod.dcd
Info: DCD FREQUENCY          100000
Info: DCD FIRST STEP         100000
Info: DCD FILE WILL CONTAIN UNIT CELL DATA
Info: XST FILENAME           mobley_5311804_prod.xst
Info: XST FREQUENCY          100000
Info: NO VELOCITY DCD OUTPUT
Info: NO FORCE DCD OUTPUT
Info: OUTPUT FILENAME        mobley_5311804_prod
Info: BINARY OUTPUT FILES WILL BE USED
Info: RESTART FILENAME       mobley_5311804_prod.restart
Info: RESTART FREQUENCY      100000
Info: BINARY RESTART FILES WILL BE USED
Info: CUTOFF                 9
Info: PAIRLIST DISTANCE      11
Info: PAIRLIST SHRINK RATE   0.01
Info: PAIRLIST GROW RATE     0.01
Info: PAIRLIST TRIGGER       0.3
Info: PAIRLISTS PER CYCLE    2
Info: PAIRLISTS ENABLED
Info: MARGIN                 2
Info: HYDROGEN GROUP CUTOFF  2.5
Info: PATCH DIMENSION        15.5
Info: ENERGY OUTPUT STEPS    100000
Info: ENERGY EVALUATION STEPS    100000
Info: OUTPUT ENERGY PRECISION 4
Info: CROSSTERM ENERGY INCLUDED IN DIHEDRAL
Info: TIMING OUTPUT STEPS    1000000
Info: PRESSURE OUTPUT STEPS  100000
Info: ALCHEMICAL FEP ON
Info: FEP CURRENT LAMBDA VALUE     0
Info: FEP COMPARISON LAMBDA VALUE  0.05
Info: FEP INTRA-ALCHEMICAL NON-BONDED INTERACTIONS WILL BE RETAINED
Info: FEP INTRA-ALCHEMICAL BONDED INTERACTIONS WILL BE RETAINED
Info: FEP VDW SHIFTING COEFFICIENT 5
Info: FEP ELEC. ACTIVE FOR ANNIHILATED PARTICLES BETWEEN LAMBDA = 0 AND LAMBDA = 0.5
Info: FEP ELEC. ACTIVE FOR EXNIHILATED PARTICLES BETWEEN LAMBDA = 0.5 AND LAMBDA = 1
Info: FEP VDW ACTIVE FOR ANNIHILATED PARTICLES BETWEEN LAMBDA = 0 AND LAMBDA = 1
Info: FEP VDW ACTIVE FOR EXNIHILATED PARTICLES BETWEEN LAMBDA = 0 AND LAMBDA = 1
Info: FEP BOND ACTIVE FOR ANNIHILATED PARTICLES BETWEEN LAMBDA = 1 AND LAMBDA = 1
Info: FEP BOND ACTIVE FOR EXNIHILATED PARTICLES BETWEEN LAMBDA = 0 AND LAMBDA = 0
Info: LANGEVIN DYNAMICS ACTIVE
Info: LANGEVIN TEMPERATURE   300
Info: LANGEVIN USING BBK INTEGRATOR
Info: LANGEVIN DAMPING COEFFICIENT IS 1 INVERSE PS
Info: LANGEVIN DYNAMICS APPLIED TO HYDROGENS
Info: LANGEVIN PISTON PRESSURE CONTROL ACTIVE
Info:        TARGET PRESSURE IS 1.01325 BAR
Info:     OSCILLATION PERIOD IS 50 FS
Info:             DECAY TIME IS 25 FS
Info:     PISTON TEMPERATURE IS 300 K
Info:       PRESSURE CONTROL IS GROUP-BASED
Info:    INITIAL STRAIN RATE IS -0.000186575 -0.000186575 -0.000186575
Info:       CELL FLUCTUATION IS ISOTROPIC
Info: PARTICLE MESH EWALD (PME) ACTIVE
Info: PME TOLERANCE               1e-06
Info: PME EWALD COEFFICIENT       0.348832
Info: PME INTERPOLATION ORDER     4
Info: PME GRID DIMENSIONS         32 32 36
Info: PME MAXIMUM GRID SPACING    1
Info: PME CALCULATION WILL BE PERFORMED ON GPU
Info: FULL ELECTROSTATIC EVALUATION FREQUENCY      2
Info: USING VERLET I (r-RESPA) MTS SCHEME.
Info: C1 SPLITTING OF LONG RANGE ELECTROSTATICS
Info: PLACING ATOMS IN PATCHES BY HYDROGEN GROUPS
Info: RIGID BONDS TO HYDROGEN : ALL
Info:         ERROR TOLERANCE : 1e-08
Info:          MAX ITERATIONS : 100
Info: RIGID WATER USING SETTLE ALGORITHM
Info: RANDOM NUMBER SEED     1743755052
Info: USE HYDROGEN BONDS?    NO
Info: Using AMBER format force field!
Info: AMBER PARM FILE        mobley_5311804.prmtop
Info: COORDINATE PDB         mobley_5311804.pdb
Info: Exclusions will be read from PARM file!
Info: SCNB (VDW SCALING)     2
Info: USING ARITHMETIC MEAN TO COMBINE L-J SIGMA PARAMETERS
Info: BINARY COORDINATES     mobley_5311804_equil.coor
Info: SUMMARY OF PARAMETERS:
Info: 8 BONDS
Info: 8 ANGLES
Info:   8 HARMONIC
Info:   0 COSINE-BASED
Info: 4 DIHEDRAL
Info: 0 IMPROPER
Info: 0 CROSSTERM
Info: 0 VDW
Info: 28 VDW_PAIRS
Info: 0 NBTHOLE_PAIRS
Info: To read alchdata from file: mobley_5311804.pdb
Info: To read alchflag data from column: 5
Info: STRUCTURE SUMMARY:
Info: 2965 ATOMS
Info: 2965 BONDS
Info: 25 ANGLES
Info: 39 DIHEDRALS
Info: 0 IMPROPERS
Info: 0 CROSSTERMS
Info: 3020 EXCLUSIONS
Info: 2957 RIGID BONDS
Info: ALCH: 0 ATOMS TO DISAPPEAR IN FINAL STATE
Info: ALCH: 16 ATOMS TO APPEAR IN FINAL STATE
Info: 5938 DEGREES OF FREEDOM
Info: 991 HYDROGEN GROUPS
Info: 3 ATOMS IN LARGEST HYDROGEN GROUP
Info: 991 MIGRATION GROUPS
Info: 3 ATOMS IN LARGEST MIGRATION GROUP
Info: TOTAL MASS = 17817.9 amu
Info: TOTAL CHARGE = -0.000200011 e
Info: MASS DENSITY = 0.970152 g/cm^3
Info: ATOM DENSITY = 0.0972187 atoms/A^3
Info: ADDED 0 IMPLICIT EXCLUSIONS
Info: NONBONDED TABLE R-SQUARED SPACING: 0.0625
Info: NONBONDED TABLE SIZE: 705 POINTS
Info: REMOVING COM VELOCITY -0.113407 -0.091814 -0.101466
Info: Use 3D box decompostion in PME FFT.
Info: Updated CUDA force table with 4096 elements.
Info: Updated CUDA LJ table with 7 x 7 elements.
Info: Found 18 unique exclusion lists needing 40 bytes
TCL: Running for 1500000 steps
ETITLE: TS BOND ANGLE DIHED IMPRP ELECT VDW BOUNDARY MISC KINETIC TOTAL TEMP POTENTIAL TOTALAVG TEMPAVG PRESSURE GPRESSURE VOLUME PRESSAVG GPRESSAVG
ENERGY: 0 1.6473 4.8368 2.7546 0.0000 -10713.0364 1488.0657 0.0000 0.0000 1745.2013 -7470.5307 295.7983 -9215.7320 -7470.5307 295.7983 483.4548 564.6438 30498.2457 483.4548 564.6438
ENERGY: 300000 2.8667 4.9908 3.8858 0.0000 -10662.6655 1414.7456 0.0000 0.0000 1724.8153 -7511.3614 292.3431 -9236.1766 -7487.9509 296.9332 -325.0178 -179.4739 30304.2032 101.0820 193.7002
ENERGY: 600000 3.6799 3.0123 2.8016 0.0000 -10671.8534 1402.2336 0.0000 0.0000 1821.4244 -7438.7016 308.7176 -9260.1260 -7470.6806 300.7343 -98.2586 -13.7830 30408.5271 65.4415 149.7503
ENERGY: 900000 2.2698 4.2518 3.1294 0.0000 -10647.5444 1440.7762 0.0000 0.0000 1759.4005 -7437.7167 298.2050 -9197.1172 -7485.5629 298.8475 16.4168 27.2102 30809.4896 222.9846 290.9359
ENERGY: 1200000 0.7215 5.9035 2.5282 0.0000 -10711.3203 1422.1574 0.0000 0.0000 1735.8830 -7544.1267 294.2189 -9280.0097 -7500.5993 298.9903 -312.3270 -255.0685 30510.8125 295.0333 364.7045
ENERGY: 1500000 2.5225 6.0336 3.3107 0.0000 -10609.4906 1373.7539 0.0000 0.0000 1788.0894 -7435.7805 303.0675 -9223.8699 -7509.8240 298.7554 -492.2462 -410.4186 30443.3401 204.8636 275.2679
TCL: Running FEP window   2: Lambda1 0.05   Lambda2 0.1    [dLambda 0.05  ]
TCL: Setting parameter firsttimestep to 0
TCL: Setting parameter alchLambda to 0.05
Info: NONBONDED TABLE R-SQUARED SPACING: 0.0625
Info: NONBONDED TABLE SIZE: 705 POINTS
TCL: Setting parameter alchLambda2 to 0.1
Info: NONBONDED TABLE R-SQUARED SPACING: 0.0625
Info: NONBONDED TABLE SIZE: 705 POINTS
TCL: Running for 1500000 steps
ETITLE: TS BOND ANGLE DIHED IMPRP ELECT VDW BOUNDARY MISC KINETIC TOTAL TEMP POTENTIAL TOTALAVG TEMPAVG PRESSURE GPRESSURE VOLUME PRESSAVG GPRESSAVG
ENERGY: 0 2.5225 6.0336 3.3107 0.0000 -10609.4911 1375.8294 0.0000 0.0000 1787.2213 -7434.5736 302.9204 -9221.7949 -7434.5736 302.9204 -498.1815 -406.3381 30443.3401 -498.1815 -406.3381
ENERGY: 300000 1.6376 2.5724 2.0332 0.0000 -10607.3848 1345.1875 0.0000 0.0000 1807.1823 -7448.7719 306.3036 -9255.9542 -7464.0060 303.5324 -774.0667 -761.7398 30815.1367 -769.0126 -707.1953
ENERGY: 600000 2.1780 4.8430 2.8377 0.0000 -10872.6195 1548.3432 0.0000 0.0000 1802.5179 -7511.8996 305.5131 -9314.4175 -7473.4500 301.0530 647.2809 686.8936 30114.2334 -452.0294 -405.3403
ENERGY: 900000 0.8834 3.3549 2.3142 0.0000 -10923.1621 1546.8765 0.0000 0.0000 1780.3066 -7589.4264 301.7484 -9369.7330 -7487.1315 300.2232 487.2156 584.9652 30117.8276 -174.1844 -121.2455
ENERGY: 1200000 0.7015 4.9006 3.6872 0.0000 -10749.4836 1395.3057 0.0000 0.0000 1745.7993 -7599.0893 295.8997 -9344.8886 -7497.3893 300.0332 -698.5745 -630.5553 30468.1659 -172.0398 -114.5859
ENERGY: 1500000 1.3674 3.6181 2.3611 0.0000 -10821.1892 1496.0167 0.0000 0.0000 1773.8922 -7543.9336 300.6612 -9317.8258 -7503.0057 299.2572 257.2879 271.3463 30391.5247 -133.1791 -77.6792
TCL: Running FEP window   3: Lambda1 0.1    Lambda2 0.15000000000000002 [dLambda 0.05000000000000002]
TCL: Setting parameter firsttimestep to 0
TCL: Setting parameter alchLambda to 0.1
Info: NONBONDED TABLE R-SQUARED SPACING: 0.0625
Info: NONBONDED TABLE SIZE: 705 POINTS
TCL: Setting parameter alchLambda2 to 0.15000000000000002
Info: NONBONDED TABLE R-SQUARED SPACING: 0.0625
Info: NONBONDED TABLE SIZE: 705 POINTS
TCL: Running for 1500000 steps
ETITLE: TS BOND ANGLE DIHED IMPRP ELECT VDW BOUNDARY MISC KINETIC TOTAL TEMP POTENTIAL TOTALAVG TEMPAVG PRESSURE GPRESSURE VOLUME PRESSAVG GPRESSAVG
ENERGY: 0 1.3674 3.6181 2.3611 0.0000 -10821.1900 1497.5205 0.0000 0.0000 1773.0444 -7543.2785 300.5175 -9316.3229 -7543.2785 300.5175 193.4749 277.3564 30391.5247 193.4749 277.3564
ENERGY: 300000 4.9272 4.4464 2.1563 0.0000 -10790.8625 1512.8384 0.0000 0.0000 1744.1925 -7522.3016 295.6274 -9266.4941 -7513.1939 300.6232 505.2569 532.9383 30058.8219 471.9671 529.0274
ENERGY: 600000 0.9327 4.5286 3.1882 0.0000 -10680.1998 1453.9409 0.0000 0.0000 1730.6462 -7486.9633 293.3313 -9217.6095 -7524.1501 298.3590 288.1216 337.8129 30204.3111 404.9255 464.1893
ENERGY: 900000 2.1449 7.0345 2.4886 0.0000 -10831.3197 1502.8249 0.0000 0.0000 1797.0235 -7519.8033 304.5818 -9316.8268 -7525.0292 299.2558 105.4971 206.8340 30415.5682 248.8386 317.7152
ENERGY: 1200000 1.8130 4.9877 1.3325 0.0000 -10742.7606 1452.0418 0.0000 0.0000 1750.3207 -7532.2649 296.6660 -9282.5855 -7508.6656 299.7262 15.9762 144.3351 30150.7012 204.6585 279.2025
ENERGY: 1500000 4.0429 3.5324 7.3473 0.0000 -10654.2719 1348.8313 0.0000 0.0000 1781.0354 -7509.4827 301.8719 -9290.5180 -7497.9075 300.3632 -1288.4506 -1266.2185 30949.3311 78.8061 150.3502
TCL: Running FEP window   4: Lambda1 0.15000000000000002 Lambda2 0.2    [dLambda 0.04999999999999999]
TCL: Setting parameter firsttimestep to 0
TCL: Setting parameter alchLambda to 0.15000000000000002
Info: NONBONDED TABLE R-SQUARED SPACING: 0.0625
Info: NONBONDED TABLE SIZE: 705 POINTS
TCL: Setting parameter alchLambda2 to 0.2
Info: NONBONDED TABLE R-SQUARED SPACING: 0.0625
Info: NONBONDED TABLE SIZE: 705 POINTS
TCL: Running for 1500000 steps
ETITLE: TS BOND ANGLE DIHED IMPRP ELECT VDW BOUNDARY MISC KINETIC TOTAL TEMP POTENTIAL TOTALAVG TEMPAVG PRESSURE GPRESSURE VOLUME PRESSAVG GPRESSAVG
ENERGY: 0 4.0429 3.5324 7.3473 0.0000 -10654.2717 1349.2534 0.0000 0.0000 1780.1592 -7509.9365 301.7234 -9290.0957 -7509.9365 301.7234 -1340.6157 -1263.4685 30949.3311 -1340.6157 -1263.4685
ENERGY: 300000 2.5861 2.5697 1.5266 0.0000 -10717.1410 1377.0925 0.0000 0.0000 1841.7853 -7491.5808 312.1686 -9333.3661 -7478.3537 306.5757 -519.4897 -532.2047 30260.7861 -454.4676 -413.6910
ENERGY: 600000 1.5494 8.6689 2.5356 0.0000 -10737.5377 1429.5617 0.0000 0.0000 1779.2276 -7515.9945 301.5655 -9295.2221 -7498.7674 303.6231 -221.5458 -218.3726 30462.2380 -247.0538 -203.0899
ENERGY: 900000 2.7232 5.9972 3.9077 0.0000 -10527.5792 1302.4457 0.0000 0.0000 1753.1161 -7459.3891 297.1398 -9212.5053 -7502.1694 302.1963 -1154.3371 -1138.0400 30844.3755 -346.3787 -301.5058
ENERGY: 1200000 0.8212 2.7537 3.0894 0.0000 -10685.0134 1445.6220 0.0000 0.0000 1773.4466 -7459.2805 300.5857 -9232.7271 -7498.5155 301.1938 232.1384 308.1795 30152.5370 -261.0505 -214.5631
ENERGY: 1500000 2.2139 6.1641 4.1434 0.0000 -10791.5620 1438.8012 0.0000 0.0000 1725.4863 -7614.7532 292.4568 -9340.2395 -7515.7394 299.3049 -79.2905 1.3040 29900.2726 -239.5377 -189.4438
TCL: Running FEP window   5: Lambda1 0.2    Lambda2 0.25   [dLambda 0.04999999999999999]
TCL: Setting parameter firsttimestep to 0
TCL: Setting parameter alchLambda to 0.2
Info: NONBONDED TABLE R-SQUARED SPACING: 0.0625
Info: NONBONDED TABLE SIZE: 705 POINTS
TCL: Setting parameter alchLambda2 to 0.25
Info: NONBONDED TABLE R-SQUARED SPACING: 0.0625
Info: NONBONDED TABLE SIZE: 705 POINTS
TCL: Running for 1500000 steps
ETITLE: TS BOND ANGLE DIHED IMPRP ELECT VDW BOUNDARY MISC KINETIC TOTAL TEMP POTENTIAL TOTALAVG TEMPAVG PRESSURE GPRESSURE VOLUME PRESSAVG GPRESSAVG
ENERGY: 0 2.2139 6.1641 4.1434 0.0000 -10791.5620 1440.5123 0.0000 0.0000 1724.5819 -7613.9466 292.3035 -9338.5284 -7613.9466 292.3035 -63.8826 16.6482 29900.2726 -63.8826 16.6482
ENERGY: 300000 1.8392 3.9169 1.1214 0.0000 -10687.8936 1394.1747 0.0000 0.0000 1755.1904 -7531.6510 297.4914 -9286.8414 -7544.8456 298.3841 -534.9205 -391.2559 30420.7167 -147.9484 -69.8206
ENERGY: 600000 2.0392 4.9299 4.7188 0.0000 -10722.8017 1429.9117 0.0000 0.0000 1775.9310 -7505.2712 301.0068 -9281.2021 -7536.3102 298.7392 -464.0693 -427.5673 31095.0256 -68.8779 -3.6725
ENERGY: 900000 4.3560 5.5744 2.2129 0.0000 -10888.7219 1519.6819 0.0000 0.0000 1765.9472 -7590.9495 299.3146 -9356.8967 -7520.7403 300.0881 241.9070 353.6858 30278.9965 -42.5633 24.2010
ENERGY: 1200000 2.8224 6.0497 4.1546 0.0000 -10714.4182 1405.1018 0.0000 0.0000 1767.9420 -7528.3477 299.6527 -9296.2897 -7523.2351 300.0817 -629.7640 -475.7168 30506.0902 18.3238 94.1912
ENERGY: 1500000 4.0608 3.5692 2.1712 0.0000 -10672.2609 1392.6422 0.0000 0.0000 1798.6918 -7471.1257 304.8646 -9269.8175 -7515.3436 301.1478 16.0623 36.4715 29631.2431 29.3884 99.2852
TCL: Running FEP window   6: Lambda1 0.25   Lambda2 0.3    [dLambda 0.04999999999999999]
TCL: Setting parameter firsttimestep to 0
TCL: Setting parameter alchLambda to 0.25
Info: NONBONDED TABLE R-SQUARED SPACING: 0.0625
Info: NONBONDED TABLE SIZE: 705 POINTS
TCL: Setting parameter alchLambda2 to 0.3
Info: NONBONDED TABLE R-SQUARED SPACING: 0.0625
Info: NONBONDED TABLE SIZE: 705 POINTS
TCL: Running for 1500000 steps
ETITLE: TS BOND ANGLE DIHED IMPRP ELECT VDW BOUNDARY MISC KINETIC TOTAL TEMP POTENTIAL TOTALAVG TEMPAVG PRESSURE GPRESSURE VOLUME PRESSAVG GPRESSAVG
ENERGY: 0 4.0608 3.5692 2.1712 0.0000 -10672.2630 1394.0294 0.0000 0.0000 1797.8384 -7470.5940 304.7199 -9268.4324 -7470.5940 304.7199 -42.4629 48.6476 29631.2431 -42.4629 48.6476
ENERGY: 300000 4.7038 4.9484 3.1573 0.0000 -10770.6458 1525.9297 0.0000 0.0000 1738.7759 -7493.1307 294.7093 -9231.9066 -7488.5391 300.2104 602.2880 730.5777 30291.7775 -145.8952 -60.3596
ENERGY: 600000 2.2551 6.2272 2.2946 0.0000 -10856.7659 1509.4528 0.0000 0.0000 1774.7873 -7561.7488 300.8129 -9336.5362 -7518.3082 298.4081 474.0429 598.1782 30195.9086 -34.9693 40.4277
ENERGY: 900000 1.2812 6.7263 4.1073 0.0000 -10675.1049 1441.6462 0.0000 0.0000 1779.5399 -7441.8039 301.6185 -9221.3438 -7507.2393 298.2740 248.6135 233.2146 30547.2388 -67.5642 0.4876
ENERGY: 1200000 9.9233 7.6684 3.3326 0.0000 -10772.6489 1444.5590 0.0000 0.0000 1792.7032 -7514.4623 303.8495 -9307.1654 -7502.5871 299.8163 -66.0099 3.1586 30830.3102 -100.4893 -33.1420
ENERGY: 1500000 0.5092 1.9211 1.9314 0.0000 -10745.5330 1502.2219 0.0000 0.0000 1793.3240 -7445.6254 303.9548 -9238.9494 -7497.4917 299.8175 386.5989 486.4878 30762.0647 -101.7598 -34.8710
TCL: Running FEP window   7: Lambda1 0.3    Lambda2 0.35   [dLambda 0.04999999999999999]
TCL: Setting parameter firsttimestep to 0
TCL: Setting parameter alchLambda to 0.3
Info: NONBONDED TABLE R-SQUARED SPACING: 0.0625
Info: NONBONDED TABLE SIZE: 705 POINTS
TCL: Setting parameter alchLambda2 to 0.35
Info: NONBONDED TABLE R-SQUARED SPACING: 0.0625
Info: NONBONDED TABLE SIZE: 705 POINTS
TCL: Running for 1500000 steps
ETITLE: TS BOND ANGLE DIHED IMPRP ELECT VDW BOUNDARY MISC KINETIC TOTAL TEMP POTENTIAL TOTALAVG TEMPAVG PRESSURE GPRESSURE VOLUME PRESSAVG GPRESSAVG
ENERGY: 0 0.5092 1.9211 1.9314 0.0000 -10745.5327 1502.8049 0.0000 0.0000 1792.4634 -7445.9027 303.8089 -9238.3661 -7445.9027 303.8089 412.8121 493.8209 30762.0647 412.8121 493.8209
ENERGY: 300000 1.5753 5.5221 1.0970 0.0000 -10664.4060 1434.3925 0.0000 0.0000 1783.2589 -7438.5602 302.2488 -9221.8192 -7487.8697 303.6865 -344.3190 -205.5865 31009.2382 107.4322 192.4258
ENERGY: 600000 2.4261 4.3038 1.8309 0.0000 -10819.0118 1453.6167 0.0000 0.0000 1769.6966 -7587.1377 299.9501 -9356.8342 -7522.7724 300.8423 -211.4348 -191.7292 30512.1493 62.6002 127.6365
ENERGY: 900000 2.2419 5.0280 5.1507 0.0000 -10750.9597 1453.5369 0.0000 0.0000 1795.6258 -7489.3765 304.3449 -9285.0023 -7522.9007 300.6958 52.6715 197.2628 30314.6162 91.5066 163.3866
ENERGY: 1200000 1.7547 5.3468 2.0504 0.0000 -10782.2625 1433.4886 0.0000 0.0000 1782.5690 -7557.0529 302.1319 -9339.6219 -7526.4745 300.2066 -196.6273 -150.1631 30205.0524 198.7936 271.9825
ENERGY: 1500000 3.6811 3.3889 1.9416 0.0000 -10858.7125 1532.5501 0.0000 0.0000 1753.0685 -7564.0824 297.1318 -9317.1509 -7534.7490 298.7851 611.7234 641.3299 30035.9860 188.4506 260.0059
TCL: Running FEP window   8: Lambda1 0.35   Lambda2 0.39999999999999997 [dLambda 0.04999999999999999]
TCL: Setting parameter firsttimestep to 0
TCL: Setting parameter alchLambda to 0.35
Info: NONBONDED TABLE R-SQUARED SPACING: 0.0625
Info: NONBONDED TABLE SIZE: 705 POINTS
TCL: Setting parameter alchLambda2 to 0.39999999999999997
Info: NONBONDED TABLE R-SQUARED SPACING: 0.0625
Info: NONBONDED TABLE SIZE: 705 POINTS
TCL: Running for 1500000 steps
ETITLE: TS BOND ANGLE DIHED IMPRP ELECT VDW BOUNDARY MISC KINETIC TOTAL TEMP POTENTIAL TOTALAVG TEMPAVG PRESSURE GPRESSURE VOLUME PRESSAVG GPRESSAVG
ENERGY: 0 3.6811 3.3889 1.9416 0.0000 -10858.7125 1532.7605 0.0000 0.0000 1752.2241 -7564.7163 296.9886 -9316.9405 -7564.7163 296.9886 546.2813 646.5277 30035.9860 546.2813 646.5277
ENERGY: 300000 1.1931 5.5994 3.2041 0.0000 -10859.4281 1496.7681 0.0000 0.0000 1757.3575 -7595.3060 297.8587 -9352.6635 -7566.1265 298.1013 233.3369 296.7586 30373.7858 165.8551 238.6271
ENERGY: 600000 4.4158 2.5860 2.0173 0.0000 -10725.2372 1403.6323 0.0000 0.0000 1694.7168 -7617.8689 287.2416 -9312.5857 -7566.2867 296.6231 -527.8993 -467.6024 30375.6292 -84.8218 -21.4349
ENERGY: 900000 1.5173 6.5146 1.8245 0.0000 -10796.0051 1516.6234 0.0000 0.0000 1765.3239 -7504.2013 299.2090 -9269.5252 -7549.8370 297.2661 537.1495 552.5426 30415.4587 47.4960 97.7956
ENERGY: 1200000 2.5145 4.6245 2.0773 0.0000 -10634.6592 1329.1427 0.0000 0.0000 1765.7383 -7530.5619 299.2792 -9296.3002 -7536.2982 298.3055 -820.1090 -732.9342 30063.5405 -1.6732 53.9183
ENERGY: 1500000 2.8740 5.8589 6.3689 0.0000 -10758.8835 1423.7305 0.0000 0.0000 1787.1435 -7532.9076 302.9072 -9320.0511 -7532.4283 298.2875 -114.9394 -53.2464 30094.9746 -0.3366 52.5002
TCL: Running FEP window   9: Lambda1 0.39999999999999997 Lambda2 0.44999999999999996 [dLambda 0.04999999999999999]
TCL: Setting parameter firsttimestep to 0
TCL: Setting parameter alchLambda to 0.39999999999999997
Info: NONBONDED TABLE R-SQUARED SPACING: 0.0625
Info: NONBONDED TABLE SIZE: 705 POINTS
TCL: Setting parameter alchLambda2 to 0.44999999999999996
Info: NONBONDED TABLE R-SQUARED SPACING: 0.0625
Info: NONBONDED TABLE SIZE: 705 POINTS
TCL: Running for 1500000 steps
ETITLE: TS BOND ANGLE DIHED IMPRP ELECT VDW BOUNDARY MISC KINETIC TOTAL TEMP POTENTIAL TOTALAVG TEMPAVG PRESSURE GPRESSURE VOLUME PRESSAVG GPRESSAVG
ENERGY: 0 2.8740 5.8589 6.3689 0.0000 -10758.8856 1423.4357 0.0000 0.0000 1786.2653 -7534.0827 302.7584 -9320.3480 -7534.0827 302.7584 -129.1516 -49.0742 30094.9746 -129.1516 -49.0742
ENERGY: 300000 2.0267 2.7492 2.3234 0.0000 -10690.2378 1389.4692 0.0000 0.0000 1734.7619 -7558.9075 294.0289 -9293.6694 -7543.2291 299.1492 -457.5527 -395.5171 30266.1853 -0.6260 59.2528
ENERGY: 600000 1.8363 7.4891 4.8785 0.0000 -10815.4399 1500.9991 0.0000 0.0000 1769.3813 -7530.8555 299.8967 -9300.2369 -7520.4604 299.7021 331.2588 480.2205 30305.6329 76.1772 145.7375
ENERGY: 900000 2.8195 2.1437 3.5908 0.0000 -10727.5478 1438.7020 0.0000 0.0000 1804.7928 -7475.4990 305.8986 -9280.2919 -7502.2110 300.7902 -76.6966 -51.3311 30347.2476 90.3229 151.2487
ENERGY: 1200000 0.6101 5.3337 2.4120 0.0000 -10724.0281 1451.7651 0.0000 0.0000 1743.8651 -7520.0421 295.5718 -9263.9072 -7515.4550 300.1930 -10.0252 -8.0777 30522.5456 101.2839 160.5815
ENERGY: 1500000 2.3509 7.8712 2.0665 0.0000 -10812.4657 1476.9540 0.0000 0.0000 1813.1366 -7510.0866 307.3128 -9323.2232 -7523.5744 299.4707 351.6715 405.8898 29880.7151 79.8779 135.7621
TCL: Running FEP window  10: Lambda1 0.44999999999999996 Lambda2 0.49999999999999994 [dLambda 0.04999999999999999]
TCL: Setting parameter firsttimestep to 0
TCL: Setting parameter alchLambda to 0.44999999999999996
Info: NONBONDED TABLE R-SQUARED SPACING: 0.0625
Info: NONBONDED TABLE SIZE: 705 POINTS
TCL: Setting parameter alchLambda2 to 0.49999999999999994
Info: NONBONDED TABLE R-SQUARED SPACING: 0.0625
Info: NONBONDED TABLE SIZE: 705 POINTS
TCL: Running for 1500000 steps
ETITLE: TS BOND ANGLE DIHED IMPRP ELECT VDW BOUNDARY MISC KINETIC TOTAL TEMP POTENTIAL TOTALAVG TEMPAVG PRESSURE GPRESSURE VOLUME PRESSAVG GPRESSAVG
ENERGY: 0 2.3508 7.8712 2.0665 0.0000 -10812.4646 1476.9852 0.0000 0.0000 1812.2870 -7510.9040 307.1688 -9323.1909 -7510.9040 307.1688 316.4529 412.2140 29880.7151 316.4529 412.2140
ENERGY: 300000 3.2659 6.6677 2.2614 0.0000 -10731.0123 1438.8024 0.0000 0.0000 1783.9418 -7496.0731 302.3646 -9280.0149 -7492.6036 302.3042 -273.8737 -222.4320 30715.4064 -32.0910 18.4724
ENERGY: 600000 1.4492 3.3329 2.7091 0.0000 -10690.6052 1438.3218 0.0000 0.0000 1779.2146 -7465.5775 301.5633 -9244.7922 -7464.4217 304.4756 130.8408 188.7172 30427.6735 -7.7099 46.7379
ENERGY: 900000 2.7519 6.9068 5.1673 0.0000 -10795.6891 1500.0244 0.0000 0.0000 1820.6056 -7460.2332 308.5788 -9280.8388 -7455.7280 303.8408 153.9795 219.3714 30913.4662 30.5588 91.2108
ENERGY: 1200000 2.1193 7.3119 4.7021 0.0000 -10779.9203 1498.4297 0.0000 0.0000 1759.5762 -7507.7812 298.2348 -9267.3574 -7462.2377 303.9345 442.5347 505.9143 30494.9512 65.5528 134.7651
ENERGY: 1500000 5.5521 5.5615 4.6029 0.0000 -10751.5138 1449.5594 0.0000 0.0000 1765.5751 -7520.6628 299.2515 -9286.2379 -7466.8834 303.1215 -253.4604 -192.0946 30732.7623 39.7072 112.1431
TCL: Running FEP window  11: Lambda1 0.49999999999999994 Lambda2 0.5499999999999999 [dLambda 0.04999999999999999]
TCL: Setting parameter firsttimestep to 0
TCL: Setting parameter alchLambda to 0.49999999999999994
Info: NONBONDED TABLE R-SQUARED SPACING: 0.0625
Info: NONBONDED TABLE SIZE: 705 POINTS
TCL: Setting parameter alchLambda2 to 0.5499999999999999
Info: NONBONDED TABLE R-SQUARED SPACING: 0.0625
Info: NONBONDED TABLE SIZE: 705 POINTS
TCL: Running for 1500000 steps
ETITLE: TS BOND ANGLE DIHED IMPRP ELECT VDW BOUNDARY MISC KINETIC TOTAL TEMP POTENTIAL TOTALAVG TEMPAVG PRESSURE GPRESSURE VOLUME PRESSAVG GPRESSAVG
ENERGY: 0 5.5521 5.5615 4.6029 0.0000 -10751.5140 1449.6261 0.0000 0.0000 1764.6961 -7521.4752 299.1026 -9286.1713 -7521.4752 299.1026 -282.4878 -185.1803 30732.7623 -282.4878 -185.1803
ENERGY: 300000 2.7334 5.5965 3.0039 0.0000 -10856.2570 1464.7638 0.0000 0.0000 1797.9634 -7582.1959 304.7411 -9380.1593 -7522.7294 301.0688 64.4022 176.2656 30083.7586 145.4213 242.9416
ENERGY: 600000 0.8937 3.1664 3.9265 0.0000 -10597.0888 1398.1928 0.0000 0.0000 1771.1745 -7419.7348 300.2006 -9190.9093 -7495.0246 302.2138 -81.7369 26.1049 30413.8312 28.9148 123.5439
ENERGY: 900000 4.1037 2.9638 2.6600 0.0000 -10877.2164 1507.3970 0.0000 0.0000 1769.9584 -7590.1335 299.9945 -9360.0918 -7507.2919 300.3584 252.6293 299.5549 30348.7005 -50.5626 34.5653
ENERGY: 1200000 3.0279 4.9476 2.1909 0.0000 -10660.5131 1381.7820 0.0000 0.0000 1812.3880 -7456.1766 307.1860 -9268.5646 -7506.5290 300.8766 -512.2303 -472.3712 30479.0971 -118.6714 -43.1029
ENERGY: 1500000 2.2320 2.7947 3.2877 0.0000 -10793.5715 1520.7412 0.0000 0.0000 1791.4138 -7473.1021 303.6310 -9264.5159 -7516.6751 300.8163 477.8257 527.6005 30943.2018 -116.8600 -41.2974
TCL: Running FEP window  12: Lambda1 0.5499999999999999 Lambda2 0.6    [dLambda 0.050000000000000044]
TCL: Setting parameter firsttimestep to 0
TCL: Setting parameter alchLambda to 0.5499999999999999
Info: NONBONDED TABLE R-SQUARED SPACING: 0.0625
Info: NONBONDED TABLE SIZE: 705 POINTS
TCL: Setting parameter alchLambda2 to 0.6
Info: NONBONDED TABLE R-SQUARED SPACING: 0.0625
Info: NONBONDED TABLE SIZE: 705 POINTS
TCL: Running for 1500000 steps
ETITLE: TS BOND ANGLE DIHED IMPRP ELECT VDW BOUNDARY MISC KINETIC TOTAL TEMP POTENTIAL TOTALAVG TEMPAVG PRESSURE GPRESSURE VOLUME PRESSAVG GPRESSAVG
ENERGY: 0 2.2320 2.7947 3.2877 0.0000 -10793.2592 1520.7221 0.0000 0.0000 1790.5272 -7473.6954 303.4807 -9264.2226 -7473.6954 303.4807 462.8301 533.1073 30943.2018 462.8301 533.1073
ENERGY: 300000 3.0613 2.4282 2.1027 0.0000 -10726.0960 1405.5556 0.0000 0.0000 1758.6369 -7554.3112 298.0756 -9312.9481 -7543.5660 302.0471 -549.5176 -438.7412 30685.9361 34.5644 120.4008
ENERGY: 600000 5.0687 4.2711 2.3859 0.0000 -10661.0503 1423.5633 0.0000 0.0000 1725.9647 -7499.7966 292.5379 -9225.7613 -7524.5303 299.9658 184.3361 278.9986 29966.6743 -2.7158 73.1424
ENERGY: 900000 1.1365 3.4546 3.3446 0.0000 -10729.7799 1416.1694 0.0000 0.0000 1803.7526 -7501.9223 305.7223 -9305.6749 -7526.2488 299.9881 -49.9169 9.0161 30018.3488 41.4442 116.5902
ENERGY: 1200000 2.6836 3.1970 1.9834 0.0000 -10664.0425 1407.5280 0.0000 0.0000 1768.8432 -7479.8074 299.8054 -9248.6506 -7536.8655 299.2577 -372.8261 -373.7650 30849.3294 47.1287 108.5025
ENERGY: 1500000 2.9159 3.9033 3.1585 0.0000 -10587.0675 1385.0994 0.0000 0.0000 1762.6114 -7429.3790 298.7492 -9191.9904 -7525.1426 299.7353 -404.4507 -372.4577 30620.4423 8.2006 67.7528
TCL: Running FEP window  13: Lambda1 0.6    Lambda2 0.65   [dLambda 0.050000000000000044]
TCL: Setting parameter firsttimestep to 0
TCL: Setting parameter alchLambda to 0.6
Info: NONBONDED TABLE R-SQUARED SPACING: 0.0625
Info: NONBONDED TABLE SIZE: 705 POINTS
TCL: Setting parameter alchLambda2 to 0.65
Info: NONBONDED TABLE R-SQUARED SPACING: 0.0625
Info: NONBONDED TABLE SIZE: 705 POINTS
TCL: Running for 1500000 steps
ETITLE: TS BOND ANGLE DIHED IMPRP ELECT VDW BOUNDARY MISC KINETIC TOTAL TEMP POTENTIAL TOTALAVG TEMPAVG PRESSURE GPRESSURE VOLUME PRESSAVG GPRESSAVG
ENERGY: 0 2.9159 3.9033 3.1585 0.0000 -10586.6778 1384.8919 0.0000 0.0000 1761.7460 -7430.0623 298.6025 -9191.8083 -7430.0623 298.6025 -442.9495 -366.1761 30620.4423 -442.9495 -366.1761
ENERGY: 300000 1.6332 4.3009 5.3051 0.0000 -10717.0381 1356.5696 0.0000 0.0000 1774.1436 -7575.0858 300.7038 -9349.2293 -7506.7993 299.7507 -602.9014 -550.9562 30147.3128 -363.4787 -299.8974
ENERGY: 600000 1.0443 2.0253 3.0428 0.0000 -10750.1939 1442.0159 0.0000 0.0000 1753.3368 -7548.7289 297.1772 -9302.0657 -7501.3908 298.3965 -136.6518 -116.6283 30488.3466 -324.0080 -266.6471
ENERGY: 900000 0.6966 5.7500 2.5131 0.0000 -10853.2699 1455.2182 0.0000 0.0000 1761.4744 -7627.6177 298.5565 -9389.0921 -7512.9216 300.0821 -185.8298 -116.5706 30544.1169 -232.1084 -179.4200
ENERGY: 1200000 2.0344 5.9593 3.3016 0.0000 -10748.8496 1440.3609 0.0000 0.0000 1770.0370 -7527.1565 300.0078 -9297.1935 -7515.8339 299.9319 -168.2115 -111.9213 30413.1369 -216.4381 -162.4034
ENERGY: 1500000 2.1424 7.2876 2.5041 0.0000 -10735.5032 1416.0348 0.0000 0.0000 1804.2936 -7503.2407 305.8140 -9307.5343 -7514.9895 300.0216 -231.0927 -182.4463 30363.1488 -133.9050 -80.9388
TCL: Running FEP window  14: Lambda1 0.65   Lambda2 0.7000000000000001 [dLambda 0.050000000000000044]
TCL: Setting parameter firsttimestep to 0
TCL: Setting parameter alchLambda to 0.65
Info: NONBONDED TABLE R-SQUARED SPACING: 0.0625
Info: NONBONDED TABLE SIZE: 705 POINTS
TCL: Setting parameter alchLambda2 to 0.7000000000000001
Info: NONBONDED TABLE R-SQUARED SPACING: 0.0625
Info: NONBONDED TABLE SIZE: 705 POINTS
TCL: Running for 1500000 steps
ETITLE: TS BOND ANGLE DIHED IMPRP ELECT VDW BOUNDARY MISC KINETIC TOTAL TEMP POTENTIAL TOTALAVG TEMPAVG PRESSURE GPRESSURE VOLUME PRESSAVG GPRESSAVG
ENERGY: 0 2.1424 7.2876 2.5041 0.0000 -10735.9283 1415.6497 0.0000 0.0000 1803.4194 -7504.9251 305.6659 -9308.3445 -7504.9251 305.6659 -256.0862 -180.1734 30363.1488 -256.0862 -180.1734
ENERGY: 300000 2.2458 2.5950 2.8035 0.0000 -10653.0194 1413.5838 0.0000 0.0000 1799.3756 -7432.4158 304.9805 -9231.7913 -7508.2629 300.1222 90.9016 102.4730 30472.7217 84.0321 139.1802
ENERGY: 600000 1.3775 4.7244 3.6903 0.0000 -10668.2620 1403.9464 0.0000 0.0000 1756.1703 -7498.3532 297.6575 -9254.5235 -7506.2493 300.5069 -62.4665 30.8047 29923.1638 78.7366 140.6898
ENERGY: 900000 2.4448 4.2977 3.0883 0.0000 -10765.9621 1414.5448 0.0000 0.0000 1787.6633 -7553.9233 302.9953 -9341.5866 -7507.0818 302.1014 -191.5366 -52.8643 30095.8732 54.2002 122.2887
ENERGY: 1200000 4.6590 7.1650 3.2066 0.0000 -10671.9268 1407.7487 0.0000 0.0000 1727.2955 -7521.8520 292.7634 -9249.1475 -7494.0731 301.9329 -349.5412 -251.0379 30794.6284 11.3127 80.8162
ENERGY: 1500000 1.9618 4.7278 3.6407 0.0000 -10828.1719 1442.3576 0.0000 0.0000 1766.3581 -7609.1260 299.3842 -9375.4840 -7502.1986 302.1075 -94.7281 -73.9549 30257.2512 7.4009 74.8620
TCL: Running FEP window  15: Lambda1 0.7000000000000001 Lambda2 0.7500000000000001 [dLambda 0.050000000000000044]
TCL: Setting parameter firsttimestep to 0
TCL: Setting parameter alchLambda to 0.7000000000000001
Info: NONBONDED TABLE R-SQUARED SPACING: 0.0625
Info: NONBONDED TABLE SIZE: 705 POINTS
TCL: Setting parameter alchLambda2 to 0.7500000000000001
Info: NONBONDED TABLE R-SQUARED SPACING: 0.0625
Info: NONBONDED TABLE SIZE: 705 POINTS
TCL: Running for 1500000 steps
ETITLE: TS BOND ANGLE DIHED IMPRP ELECT VDW BOUNDARY MISC KINETIC TOTAL TEMP POTENTIAL TOTALAVG TEMPAVG PRESSURE GPRESSURE VOLUME PRESSAVG GPRESSAVG
ENERGY: 0 1.9618 4.7278 3.6407 0.0000 -10828.9407 1442.4414 0.0000 0.0000 1765.5045 -7610.6644 299.2396 -9376.1689 -7610.6644 299.2396 -140.0646 -66.4426 30257.2512 -140.0646 -66.4426
ENERGY: 300000 3.5560 7.7547 1.3275 0.0000 -10744.2728 1453.6271 0.0000 0.0000 1774.4049 -7503.6026 300.7481 -9278.0075 -7531.7490 297.1459 226.7326 320.0561 30072.3670 -119.5230 -40.4445
ENERGY: 600000 3.1777 5.0392 3.2340 0.0000 -10760.2347 1458.1265 0.0000 0.0000 1762.7356 -7527.9218 298.7703 -9290.6574 -7521.1950 298.7526 -61.0276 42.7508 30760.9573 -144.5198 -59.0221
ENERGY: 900000 1.1659 4.4107 3.3699 0.0000 -10720.7220 1460.8835 0.0000 0.0000 1691.9751 -7558.9168 286.7769 -9250.8920 -7519.9513 297.7246 -39.6255 86.0650 30631.3979 -175.6179 -83.0430
ENERGY: 1200000 3.1236 4.7141 3.5905 0.0000 -10759.4018 1433.2676 0.0000 0.0000 1762.8244 -7551.8817 298.7853 -9314.7061 -7530.3988 297.8020 -360.0671 -284.5059 30727.0780 -218.9045 -126.5795
ENERGY: 1500000 1.9207 5.2302 3.9249 0.0000 -10769.7140 1433.8000 0.0000 0.0000 1769.8506 -7554.9875 299.9762 -9324.8381 -7527.1233 298.6436 -187.3968 -170.4164 30559.1128 -193.0958 -108.6780
TCL: Running FEP window  16: Lambda1 0.7500000000000001 Lambda2 0.8000000000000002 [dLambda 0.050000000000000044]
TCL: Setting parameter firsttimestep to 0
TCL: Setting parameter alchLambda to 0.7500000000000001
Info: NONBONDED TABLE R-SQUARED SPACING: 0.0625
Info: NONBONDED TABLE SIZE: 705 POINTS
TCL: Setting parameter alchLambda2 to 0.8000000000000002
Info: NONBONDED TABLE R-SQUARED SPACING: 0.0625
Info: NONBONDED TABLE SIZE: 705 POINTS
TCL: Running for 1500000 steps
ETITLE: TS BOND ANGLE DIHED IMPRP ELECT VDW BOUNDARY MISC KINETIC TOTAL TEMP POTENTIAL TOTALAVG TEMPAVG PRESSURE GPRESSURE VOLUME PRESSAVG GPRESSAVG
ENERGY: 0 1.9207 5.2302 3.9249 0.0000 -10771.4240 1435.0708 0.0000 0.0000 1768.9557 -7556.3216 299.8245 -9325.2774 -7556.3216 299.8245 -244.5446 -150.9411 30559.1128 -244.5446 -150.9411
ENERGY: 300000 3.7876 4.0739 2.9369 0.0000 -10639.4453 1365.8523 0.0000 0.0000 1792.8534 -7469.9413 303.8750 -9262.7947 -7484.7972 304.1632 -478.0686 -395.7784 30352.0568 -327.8474 -259.3164
ENERGY: 600000 3.1066 6.1867 5.3722 0.0000 -10606.8463 1385.6770 0.0000 0.0000 1753.8781 -7452.6257 297.2690 -9206.5038 -7483.7402 302.1186 -219.5421 -191.8702 30541.4441 -178.1530 -123.3887
ENERGY: 900000 2.3015 6.2200 2.9812 0.0000 -10602.7371 1338.9149 0.0000 0.0000 1782.6466 -7469.6730 302.1450 -9252.3196 -7491.1180 302.2696 -782.4491 -716.1061 30655.2672 -166.4557 -110.4322
ENERGY: 1200000 0.5862 4.1733 2.4754 0.0000 -10705.0030 1392.2403 0.0000 0.0000 1757.9092 -7547.6187 297.9522 -9305.5279 -7493.7658 301.9531 -395.4872 -341.9388 30316.2263 -225.0284 -171.6864
ENERGY: 1500000 3.2776 4.8435 3.3240 0.0000 -10691.7777 1394.7917 0.0000 0.0000 1749.7438 -7535.7971 296.5683 -9285.5409 -7502.8079 301.5564 -409.6157 -353.2181 30643.7629 -299.5432 -242.6986
TCL: Running FEP window  17: Lambda1 0.8000000000000002 Lambda2 0.8500000000000002 [dLambda 0.050000000000000044]
TCL: Setting parameter firsttimestep to 0
TCL: Setting parameter alchLambda to 0.8000000000000002
Info: NONBONDED TABLE R-SQUARED SPACING: 0.0625
Info: NONBONDED TABLE SIZE: 705 POINTS
TCL: Setting parameter alchLambda2 to 0.8500000000000002
Info: NONBONDED TABLE R-SQUARED SPACING: 0.0625
Info: NONBONDED TABLE SIZE: 705 POINTS
TCL: Running for 1500000 steps
ETITLE: TS BOND ANGLE DIHED IMPRP ELECT VDW BOUNDARY MISC KINETIC TOTAL TEMP POTENTIAL TOTALAVG TEMPAVG PRESSURE GPRESSURE VOLUME PRESSAVG GPRESSAVG
ENERGY: 0 3.2776 4.8435 3.3240 0.0000 -10694.0735 1397.1976 0.0000 0.0000 1748.8562 -7536.5746 296.4178 -9285.4307 -7536.5746 296.4178 -415.6718 -328.2675 30643.7629 -415.6718 -328.2675
ENERGY: 300000 2.1651 5.2292 3.3804 0.0000 -10624.4676 1354.3094 0.0000 0.0000 1771.8760 -7487.5076 300.3195 -9259.3836 -7498.2547 299.4845 -755.0152 -643.5063 30871.2098 -515.4654 -450.3380
ENERGY: 600000 1.0600 3.3271 1.8394 0.0000 -10701.9893 1412.3840 0.0000 0.0000 1801.9821 -7481.3966 305.4223 -9283.3788 -7492.7120 300.3203 -273.2554 -108.6332 30238.5127 -331.0785 -246.6622
ENERGY: 900000 3.2024 2.0870 2.4011 0.0000 -10697.1894 1463.3859 0.0000 0.0000 1724.1297 -7501.9833 292.2269 -9226.1130 -7497.8453 299.0552 374.4939 388.0482 30310.7811 -154.4971 -84.6162
ENERGY: 1200000 4.5151 4.7456 2.9494 0.0000 -10701.3783 1411.7710 0.0000 0.0000 1713.8602 -7563.5370 290.4862 -9277.3971 -7495.3312 299.6019 -112.7248 -49.4554 30259.3800 -143.1541 -70.2590
ENERGY: 1500000 1.1864 3.4659 2.8914 0.0000 -10637.8588 1430.1654 0.0000 0.0000 1709.7071 -7490.4427 289.7823 -9200.1498 -7492.9343 299.5084 -17.3951 10.8223 30647.1779 -152.2222 -89.7704
TCL: Running FEP window  18: Lambda1 0.8500000000000002 Lambda2 0.9000000000000002 [dLambda 0.050000000000000044]
TCL: Setting parameter firsttimestep to 0
TCL: Setting parameter alchLambda to 0.8500000000000002
Info: NONBONDED TABLE R-SQUARED SPACING: 0.0625
Info: NONBONDED TABLE SIZE: 705 POINTS
TCL: Setting parameter alchLambda2 to 0.9000000000000002
Info: NONBONDED TABLE R-SQUARED SPACING: 0.0625
Info: NONBONDED TABLE SIZE: 705 POINTS
TCL: Running for 1500000 steps
ETITLE: TS BOND ANGLE DIHED IMPRP ELECT VDW BOUNDARY MISC KINETIC TOTAL TEMP POTENTIAL TOTALAVG TEMPAVG PRESSURE GPRESSURE VOLUME PRESSAVG GPRESSAVG
ENERGY: 0 1.1864 3.4659 2.8914 0.0000 -10638.6695 1429.7695 0.0000 0.0000 1708.8126 -7492.5437 289.6307 -9201.3564 -7492.5437 289.6307 -64.4339 12.5233 30647.1779 -64.4339 12.5233
ENERGY: 300000 0.9925 1.8240 4.9004 0.0000 -10724.6876 1410.6535 0.0000 0.0000 1746.0622 -7560.2550 295.9442 -9306.3171 -7460.1033 300.0131 -193.3246 -135.3610 30404.9901 -12.4784 27.6046
ENERGY: 600000 2.5455 2.4786 3.5071 0.0000 -10750.5778 1437.5590 0.0000 0.0000 1793.6673 -7510.8202 304.0129 -9304.4875 -7485.0622 301.3284 -318.7274 -295.9792 30877.4106 -157.6335 -134.7290
ENERGY: 900000 5.2902 5.0366 1.5455 0.0000 -10867.2083 1468.1718 0.0000 0.0000 1779.7227 -7607.4416 301.6494 -9387.1642 -7499.2621 301.5332 -29.3821 53.1278 30303.1493 -21.0359 17.6805
ENERGY: 1200000 1.2966 5.7220 2.6461 0.0000 -10854.9439 1559.5184 0.0000 0.0000 1811.5487 -7474.2120 307.0437 -9285.7607 -7494.2881 302.7559 674.3342 793.8847 30794.6703 -14.6386 25.0552
ENERGY: 1500000 2.1831 2.7208 3.2826 0.0000 -10722.4983 1413.6911 0.0000 0.0000 1769.7947 -7530.8258 299.9667 -9300.6206 -7496.0983 302.5617 -219.3753 -185.2381 30219.6095 -87.5046 -44.5675
TCL: Running FEP window  19: Lambda1 0.9000000000000002 Lambda2 0.9500000000000003 [dLambda 0.050000000000000044]
TCL: Setting parameter firsttimestep to 0
TCL: Setting parameter alchLambda to 0.9000000000000002
Info: NONBONDED TABLE R-SQUARED SPACING: 0.0625
Info: NONBONDED TABLE SIZE: 705 POINTS
TCL: Setting parameter alchLambda2 to 0.9500000000000003
Info: NONBONDED TABLE R-SQUARED SPACING: 0.0625
Info: NONBONDED TABLE SIZE: 705 POINTS
TCL: Running for 1500000 steps
ETITLE: TS BOND ANGLE DIHED IMPRP ELECT VDW BOUNDARY MISC KINETIC TOTAL TEMP POTENTIAL TOTALAVG TEMPAVG PRESSURE GPRESSURE VOLUME PRESSAVG GPRESSAVG
ENERGY: 0 2.1831 2.7208 3.2826 0.0000 -10724.3576 1413.8640 0.0000 0.0000 1768.9345 -7533.3727 299.8209 -9302.3071 -7533.3727 299.8209 -236.8314 -172.2173 30219.6095 -236.8314 -172.2173
ENERGY: 300000 2.3948 5.0302 1.6037 0.0000 -10854.3847 1507.7922 0.0000 0.0000 1769.7899 -7567.7739 299.9659 -9337.5638 -7574.3917 297.4800 350.9991 341.3820 30514.3331 -62.4669 -20.9447
ENERGY: 600000 0.9547 6.1616 5.1169 0.0000 -10694.6298 1469.9599 0.0000 0.0000 1766.0676 -7446.3692 299.3350 -9212.4368 -7539.6017 298.2522 449.7078 483.4713 30451.1449 -184.1438 -150.2967
ENERGY: 900000 1.8400 3.1628 3.7918 0.0000 -10793.6326 1429.6323 0.0000 0.0000 1762.3794 -7592.8263 298.7099 -9355.2057 -7542.9133 299.0526 -291.8029 -248.9320 30328.6474 -162.9363 -127.9446
ENERGY: 1200000 2.7539 4.0484 3.1839 0.0000 -10797.8663 1488.9192 0.0000 0.0000 1767.6716 -7531.2893 299.6069 -9298.9610 -7540.4060 298.4773 425.2851 491.2658 30185.8206 -64.4585 -19.5243
ENERGY: 1500000 1.8067 4.3149 1.7713 0.0000 -10632.7317 1402.1527 0.0000 0.0000 1776.9586 -7445.7276 301.1809 -9222.6862 -7533.1577 299.1303 -339.1864 -279.0348 30952.0255 -109.9786 -61.5285
TCL: Running FEP window  20: Lambda1 0.9500000000000003 Lambda2 1.0    [dLambda 0.04999999999999971]
TCL: Setting parameter firsttimestep to 0
TCL: Setting parameter alchLambda to 0.9500000000000003
Info: NONBONDED TABLE R-SQUARED SPACING: 0.0625
Info: NONBONDED TABLE SIZE: 705 POINTS
TCL: Setting parameter alchLambda2 to 1.0
Info: NONBONDED TABLE R-SQUARED SPACING: 0.0625
Info: NONBONDED TABLE SIZE: 705 POINTS
TCL: Running for 1500000 steps
ETITLE: TS BOND ANGLE DIHED IMPRP ELECT VDW BOUNDARY MISC KINETIC TOTAL TEMP POTENTIAL TOTALAVG TEMPAVG PRESSURE GPRESSURE VOLUME PRESSAVG GPRESSAVG
ENERGY: 0 1.8067 4.3149 1.7713 0.0000 -10634.8123 1402.8125 0.0000 0.0000 1776.0462 -7448.0607 301.0263 -9224.1069 -7448.0607 301.0263 -350.2087 -268.7696 30952.0255 -350.2087 -268.7696
ENERGY: 300000 1.5238 2.7644 4.0864 0.0000 -10797.7353 1431.4509 0.0000 0.0000 1752.8272 -7605.0826 297.0909 -9357.9098 -7500.6156 302.3827 -345.8934 -333.0821 30714.0471 -53.6674 -20.6596
ENERGY: 600000 5.8043 5.7548 3.2632 0.0000 -10734.2029 1425.7105 0.0000 0.0000 1764.5413 -7529.1290 299.0763 -9293.6702 -7510.5611 301.0233 -260.6652 -229.5009 30401.8473 25.5043 59.5298
ENERGY: 900000 1.6694 4.3890 3.9345 0.0000 -10747.7066 1421.8244 0.0000 0.0000 1728.1057 -7587.7836 292.9008 -9315.8894 -7517.5691 301.4663 -356.3839 -314.5693 30635.7222 48.3368 78.5345
ENERGY: 1200000 3.2662 4.8449 5.9326 0.0000 -10757.5827 1416.2925 0.0000 0.0000 1769.5192 -7557.7274 299.9200 -9327.2465 -7519.9181 300.7811 -324.8351 -251.4965 30570.0844 -37.7991 -2.8432
ENERGY: 1500000 1.8703 5.6904 1.5155 0.0000 -10617.9964 1384.6590 0.0000 0.0000 1758.5693 -7465.6918 298.0641 -9224.2611 -7514.4550 300.5233 27.8602 47.1786 30277.8539 -106.8542 -65.8305
TCL: Exiting due to exit command.
