Info: SIMULATION PARAMETERS:
Info: TIMESTEP               2
Info: NUMBER OF STEPS        0
Info: STEPS PER CYCLE        10
Info: PERIODIC CELL BASIS 1  31.0424 0 0
Info: PERIODIC CELL BASIS 2  0 30.3774 0
Info: PERIODIC CELL BASIS 3  0 0 31.6746
Info: PERIODIC CELL CENTER   0 0 0
Info: WRAPPING WATERS AROUND PERIODIC BOUNDARIES ON OUTPUT.
Info: WRAPPING ALL CLUSTERS AROUND PERIODIC BOUNDARIES ON OUTPUT.
Info: FIRST LDB TIMESTEP     50
Info: LAST LDB TIMESTEP     -1
Info: HOM BACKGROUND SCALING 1
Info: PME BACKGROUND SCALING 1
Info: MIN ATOMS PER PATCH    40
Info: EMPTY PATCH LOAD       40 ATOMS
Info: VELOCITY FILE          mobley_4699732_equil.vel
Info: CENTER OF MASS MOVING INITIALLY? NO
Info: DIELECTRIC             1
Info: EXCLUDE                SCALED ONE-FOUR
Info: 1-4 ELECTROSTATICS SCALED BY 0.833333
Info: MODIFIED 1-4 VDW PARAMETERS WILL BE USED
Info: DCD FILENAME           mobley_4699732_prod.dcd
Info: DCD FREQUENCY          100000
Info: DCD FIRST STEP         100000
Info: DCD FILE WILL CONTAIN UNIT CELL DATA
Info: XST FILENAME           mobley_4699732_prod.xst
Info: XST FREQUENCY          100000
Info: NO VELOCITY DCD OUTPUT
Info: NO FORCE DCD OUTPUT
Info: OUTPUT FILENAME        mobley_4699732_prod
Info: BINARY OUTPUT FILES WILL BE USED
Info: RESTART FILENAME       mobley_4699732_prod.restart
Info: RESTART FREQUENCY      100000
Info: BINARY RESTART FILES WILL BE USED
Info: CUTOFF                 9
Info: PAIRLIST DISTANCE      11
Info: PAIRLIST SHRINK RATE   0.01
Info: PAIRLIST GROW RATE     0.01
Info: PAIRLIST TRIGGER       0.3
Info: PAIRLISTS PER CYCLE    2
Info: PAIRLISTS ENABLED
Info: MARGIN                 2
Info: HYDROGEN GROUP CUTOFF  2.5
Info: PATCH DIMENSION        15.5
Info: ENERGY OUTPUT STEPS    100000
Info: ENERGY EVALUATION STEPS    100000
Info: OUTPUT ENERGY PRECISION 4
Info: CROSSTERM ENERGY INCLUDED IN DIHEDRAL
Info: TIMING OUTPUT STEPS    1000000
Info: PRESSURE OUTPUT STEPS  100000
Info: ALCHEMICAL FEP ON
Info: FEP CURRENT LAMBDA VALUE     1
Info: FEP COMPARISON LAMBDA VALUE  0.95
Info: FEP INTRA-ALCHEMICAL NON-BONDED INTERACTIONS WILL BE RETAINED
Info: FEP INTRA-ALCHEMICAL BONDED INTERACTIONS WILL BE RETAINED
Info: FEP VDW SHIFTING COEFFICIENT 5
Info: FEP ELEC. ACTIVE FOR ANNIHILATED PARTICLES BETWEEN LAMBDA = 0 AND LAMBDA = 0.5
Info: FEP ELEC. ACTIVE FOR EXNIHILATED PARTICLES BETWEEN LAMBDA = 0.5 AND LAMBDA = 1
Info: FEP VDW ACTIVE FOR ANNIHILATED PARTICLES BETWEEN LAMBDA = 0 AND LAMBDA = 1
Info: FEP VDW ACTIVE FOR EXNIHILATED PARTICLES BETWEEN LAMBDA = 0 AND LAMBDA = 1
Info: FEP BOND ACTIVE FOR ANNIHILATED PARTICLES BETWEEN LAMBDA = 1 AND LAMBDA = 1
Info: FEP BOND ACTIVE FOR EXNIHILATED PARTICLES BETWEEN LAMBDA = 0 AND LAMBDA = 0
Info: LANGEVIN DYNAMICS ACTIVE
Info: LANGEVIN TEMPERATURE   300
Info: LANGEVIN USING BBK INTEGRATOR
Info: LANGEVIN DAMPING COEFFICIENT IS 1 INVERSE PS
Info: LANGEVIN DYNAMICS APPLIED TO HYDROGENS
Info: LANGEVIN PISTON PRESSURE CONTROL ACTIVE
Info:        TARGET PRESSURE IS 1.01325 BAR
Info:     OSCILLATION PERIOD IS 50 FS
Info:             DECAY TIME IS 25 FS
Info:     PISTON TEMPERATURE IS 300 K
Info:       PRESSURE CONTROL IS GROUP-BASED
Info:    INITIAL STRAIN RATE IS -0.00049837 -0.00049837 -0.00049837
Info:       CELL FLUCTUATION IS ISOTROPIC
Info: PARTICLE MESH EWALD (PME) ACTIVE
Info: PME TOLERANCE               1e-06
Info: PME EWALD COEFFICIENT       0.348832
Info: PME INTERPOLATION ORDER     4
Info: PME GRID DIMENSIONS         32 32 32
Info: PME MAXIMUM GRID SPACING    1
Info: PME CALCULATION WILL BE PERFORMED ON GPU
Info: FULL ELECTROSTATIC EVALUATION FREQUENCY      2
Info: USING VERLET I (r-RESPA) MTS SCHEME.
Info: C1 SPLITTING OF LONG RANGE ELECTROSTATICS
Info: PLACING ATOMS IN PATCHES BY HYDROGEN GROUPS
Info: RIGID BONDS TO HYDROGEN : ALL
Info:         ERROR TOLERANCE : 1e-08
Info:          MAX ITERATIONS : 100
Info: RIGID WATER USING SETTLE ALGORITHM
Info: RANDOM NUMBER SEED     1743682306
Info: USE HYDROGEN BONDS?    NO
Info: Using AMBER format force field!
Info: AMBER PARM FILE        mobley_4699732.prmtop
Info: COORDINATE PDB         mobley_4699732.pdb
Info: Exclusions will be read from PARM file!
Info: SCNB (VDW SCALING)     2
Info: USING ARITHMETIC MEAN TO COMBINE L-J SIGMA PARAMETERS
Info: BINARY COORDINATES     mobley_4699732_equil.coor
Info: SUMMARY OF PARAMETERS:
Info: 6 BONDS
Info: 7 ANGLES
Info:   7 HARMONIC
Info:   0 COSINE-BASED
Info: 5 DIHEDRAL
Info: 0 IMPROPER
Info: 0 CROSSTERM
Info: 0 VDW
Info: 21 VDW_PAIRS
Info: 0 NBTHOLE_PAIRS
Info: To read alchdata from file: mobley_4699732.pdb
Info: To read alchflag data from column: 5
Info: STRUCTURE SUMMARY:
Info: 2909 ATOMS
Info: 2908 BONDS
Info: 18 ANGLES
Info: 25 DIHEDRALS
Info: 0 IMPROPERS
Info: 0 CROSSTERMS
Info: 2944 EXCLUSIONS
Info: 2904 RIGID BONDS
Info: ALCH: 0 ATOMS TO DISAPPEAR IN FINAL STATE
Info: ALCH: 11 ATOMS TO APPEAR IN FINAL STATE
Info: 5823 DEGREES OF FREEDOM
Info: 971 HYDROGEN GROUPS
Info: 4 ATOMS IN LARGEST HYDROGEN GROUP
Info: 971 MIGRATION GROUPS
Info: 4 ATOMS IN LARGEST MIGRATION GROUP
Info: TOTAL MASS = 17516.4 amu
Info: TOTAL CHARGE = -9.99905e-05 e
Info: MASS DENSITY = 0.973837 g/cm^3
Info: ATOM DENSITY = 0.0973924 atoms/A^3
Info: ADDED 0 IMPLICIT EXCLUSIONS
Info: NONBONDED TABLE R-SQUARED SPACING: 0.0625
Info: NONBONDED TABLE SIZE: 705 POINTS
Info: REMOVING COM VELOCITY -0.0548291 -0.0598019 0.257521
Info: Use 3D box decompostion in PME FFT.
Info: Updated CUDA force table with 4096 elements.
Info: Updated CUDA LJ table with 6 x 6 elements.
Info: Found 14 unique exclusion lists needing 24 bytes
TCL: Running for 1500000 steps
ETITLE: TS BOND ANGLE DIHED IMPRP ELECT VDW BOUNDARY MISC KINETIC TOTAL TEMP POTENTIAL TOTALAVG TEMPAVG PRESSURE GPRESSURE VOLUME PRESSAVG GPRESSAVG
ENERGY: 0 0.9523 3.3423 1.9490 0.0000 -10529.9472 1465.2168 0.0000 0.0000 1742.3311 -7316.1557 301.1441 -9058.4868 -7316.1557 301.1441 616.1053 702.0327 29868.8692 616.1053 702.0327
ENERGY: 300000 1.1771 4.9628 2.7429 0.0000 -10521.9385 1415.1213 0.0000 0.0000 1784.2971 -7313.6373 308.3974 -9097.9344 -7350.4973 303.3853 80.9561 91.8270 30216.0164 421.4646 452.6114
ENERGY: 600000 1.9146 3.7115 2.0970 0.0000 -10522.4492 1366.6184 0.0000 0.0000 1724.2820 -7423.8257 298.0244 -9148.1077 -7369.5726 300.2740 -660.5654 -563.7712 30097.7238 206.9634 251.8982
ENERGY: 900000 1.1220 4.1764 3.0602 0.0000 -10454.0572 1305.1332 0.0000 0.0000 1776.0576 -7364.5079 306.9733 -9140.5654 -7371.5957 301.1694 -859.9689 -701.8716 29899.9585 20.9076 61.0615
ENERGY: 1200000 1.8957 3.6326 2.1638 0.0000 -10547.4941 1451.6864 0.0000 0.0000 1696.0663 -7392.0493 293.1477 -9088.1156 -7384.4549 299.1913 186.8537 284.3051 30068.4566 -49.6322 2.3358
ENERGY: 1500000 1.3840 3.3272 3.0491 0.0000 -10658.1690 1430.9659 0.0000 0.0000 1750.8177 -7468.6251 302.6109 -9219.4429 -7385.5436 298.9502 -125.3808 -9.7848 29887.9483 -72.7834 -21.2766
TCL: Running FEP window   2: Lambda1 0.95   Lambda2 0.8999999999999999 [dLambda -0.050000000000000044]
TCL: Setting parameter firsttimestep to 0
TCL: Setting parameter alchLambda to 0.95
Info: NONBONDED TABLE R-SQUARED SPACING: 0.0625
Info: NONBONDED TABLE SIZE: 705 POINTS
TCL: Setting parameter alchLambda2 to 0.8999999999999999
Info: NONBONDED TABLE R-SQUARED SPACING: 0.0625
Info: NONBONDED TABLE SIZE: 705 POINTS
TCL: Running for 1500000 steps
ETITLE: TS BOND ANGLE DIHED IMPRP ELECT VDW BOUNDARY MISC KINETIC TOTAL TEMP POTENTIAL TOTALAVG TEMPAVG PRESSURE GPRESSURE VOLUME PRESSAVG GPRESSAVG
ENERGY: 0 1.3840 3.3272 3.0491 0.0000 -10657.6982 1431.0529 0.0000 0.0000 1749.9369 -7468.9482 302.4586 -9218.8851 -7468.9482 302.4586 -99.6832 -16.8239 29887.9483 -99.6832 -16.8239
ENERGY: 300000 3.5735 5.1097 1.8457 0.0000 -10489.8878 1408.1651 0.0000 0.0000 1747.2705 -7323.9232 301.9978 -9071.1938 -7395.2499 299.9018 -85.2088 -83.1002 30574.2416 -327.7262 -260.4547
ENERGY: 600000 1.9513 5.2185 3.0439 0.0000 -10602.4480 1466.6701 0.0000 0.0000 1710.3846 -7415.1797 295.6224 -9125.5643 -7423.6005 298.2470 266.7870 258.7856 30554.7185 -109.9992 -60.0697
ENERGY: 900000 0.7754 2.8697 1.6770 0.0000 -10582.3899 1448.4960 0.0000 0.0000 1761.2796 -7367.2921 304.4191 -9128.5717 -7426.4377 298.3964 217.2544 206.0227 30100.7222 -91.3908 -43.1024
ENERGY: 1200000 0.6146 3.3324 2.4072 0.0000 -10744.7925 1495.0352 0.0000 0.0000 1703.1531 -7540.2500 294.3725 -9243.4031 -7434.6210 298.6619 443.4436 494.9410 29570.3501 -26.4948 25.2660
ENERGY: 1500000 1.6353 4.2562 3.2326 0.0000 -10554.4032 1439.4961 0.0000 0.0000 1740.3474 -7365.4357 300.8012 -9105.7832 -7432.3344 299.3374 126.5728 241.0278 30166.1078 -44.2015 11.9062
TCL: Running FEP window   3: Lambda1 0.8999999999999999 Lambda2 0.8499999999999999 [dLambda -0.050000000000000044]
TCL: Setting parameter firsttimestep to 0
TCL: Setting parameter alchLambda to 0.8999999999999999
Info: NONBONDED TABLE R-SQUARED SPACING: 0.0625
Info: NONBONDED TABLE SIZE: 705 POINTS
TCL: Setting parameter alchLambda2 to 0.8499999999999999
Info: NONBONDED TABLE R-SQUARED SPACING: 0.0625
Info: NONBONDED TABLE SIZE: 705 POINTS
TCL: Running for 1500000 steps
ETITLE: TS BOND ANGLE DIHED IMPRP ELECT VDW BOUNDARY MISC KINETIC TOTAL TEMP POTENTIAL TOTALAVG TEMPAVG PRESSURE GPRESSURE VOLUME PRESSAVG GPRESSAVG
ENERGY: 0 1.6353 4.2562 3.2326 0.0000 -10553.9250 1439.6020 0.0000 0.0000 1739.5033 -7365.6957 300.6553 -9105.1990 -7365.6957 300.6553 139.6506 232.3882 30166.1078 139.6506 232.3882
ENERGY: 300000 0.8880 5.3731 3.4872 0.0000 -10535.3695 1409.2492 0.0000 0.0000 1752.5074 -7363.8646 302.9029 -9116.3720 -7400.6519 298.7681 -109.5969 -125.9670 30191.3645 344.3331 372.5557
ENERGY: 600000 1.3691 3.0653 5.0116 0.0000 -10562.6802 1436.9688 0.0000 0.0000 1748.2465 -7368.0189 302.1665 -9116.2654 -7401.4457 299.9582 135.3702 190.9076 30225.0458 46.6375 97.7532
ENERGY: 900000 2.2590 7.3485 1.9238 0.0000 -10595.1955 1496.4916 0.0000 0.0000 1771.9673 -7315.2052 306.2664 -9087.1725 -7396.2880 300.7774 920.2237 1001.8007 29688.3170 232.1021 284.6462
ENERGY: 1200000 1.1945 4.8166 1.3935 0.0000 -10407.9540 1346.3274 0.0000 0.0000 1788.5696 -7265.6526 309.1359 -9054.2221 -7396.7697 300.4461 -169.5117 -124.9749 30290.7619 156.4497 213.3356
ENERGY: 1500000 1.2379 3.4202 1.9559 0.0000 -10527.0727 1427.3295 0.0000 0.0000 1723.2476 -7369.8817 297.8457 -9093.1293 -7395.4864 299.8779 -22.7669 104.1806 30121.5826 127.5300 195.0871
TCL: Running FEP window   4: Lambda1 0.8499999999999999 Lambda2 0.7999999999999998 [dLambda -0.050000000000000044]
TCL: Setting parameter firsttimestep to 0
TCL: Setting parameter alchLambda to 0.8499999999999999
Info: NONBONDED TABLE R-SQUARED SPACING: 0.0625
Info: NONBONDED TABLE SIZE: 705 POINTS
TCL: Setting parameter alchLambda2 to 0.7999999999999998
Info: NONBONDED TABLE R-SQUARED SPACING: 0.0625
Info: NONBONDED TABLE SIZE: 705 POINTS
TCL: Running for 1500000 steps
ETITLE: TS BOND ANGLE DIHED IMPRP ELECT VDW BOUNDARY MISC KINETIC TOTAL TEMP POTENTIAL TOTALAVG TEMPAVG PRESSURE GPRESSURE VOLUME PRESSAVG GPRESSAVG
ENERGY: 0 1.2379 3.4202 1.9559 0.0000 -10526.5558 1427.6306 0.0000 0.0000 1722.3997 -7369.9116 297.6991 -9092.3113 -7369.9116 297.6991 2.7905 99.3321 30121.5826 2.7905 99.3321
ENERGY: 300000 0.5708 2.6809 1.7704 0.0000 -10535.2002 1415.0012 0.0000 0.0000 1770.2497 -7344.9271 305.9695 -9115.1768 -7377.2196 300.2523 -196.2811 -129.2744 30144.5585 -210.7794 -159.2844
ENERGY: 600000 1.8910 5.3254 2.7430 0.0000 -10626.7587 1447.3530 0.0000 0.0000 1762.6250 -7406.8212 304.6516 -9169.4462 -7388.8278 299.8460 50.2612 98.1504 29840.5244 -164.3809 -116.6481
ENERGY: 900000 1.4484 5.5281 2.0211 0.0000 -10619.3042 1473.0886 0.0000 0.0000 1735.4526 -7401.7654 299.9552 -9137.2180 -7384.5543 300.6314 361.6794 420.4819 30215.4502 -105.3142 -51.6156
ENERGY: 1200000 1.5632 9.4328 2.4568 0.0000 -10459.9913 1334.3040 0.0000 0.0000 1700.8623 -7411.3722 293.9766 -9112.2345 -7392.8473 300.4318 -684.0771 -654.6500 29929.2156 -77.5811 -19.6041
ENERGY: 1500000 1.5321 6.1297 1.8395 0.0000 -10586.0449 1512.0084 0.0000 0.0000 1736.2545 -7328.2808 300.0938 -9064.5353 -7385.5548 299.9823 748.2093 791.5585 30167.0418 -49.8744 12.7925
TCL: Running FEP window   5: Lambda1 0.7999999999999998 Lambda2 0.7499999999999998 [dLambda -0.050000000000000044]
TCL: Setting parameter firsttimestep to 0
TCL: Setting parameter alchLambda to 0.7999999999999998
Info: NONBONDED TABLE R-SQUARED SPACING: 0.0625
Info: NONBONDED TABLE SIZE: 705 POINTS
TCL: Setting parameter alchLambda2 to 0.7499999999999998
Info: NONBONDED TABLE R-SQUARED SPACING: 0.0625
Info: NONBONDED TABLE SIZE: 705 POINTS
TCL: Running for 1500000 steps
ETITLE: TS BOND ANGLE DIHED IMPRP ELECT VDW BOUNDARY MISC KINETIC TOTAL TEMP POTENTIAL TOTALAVG TEMPAVG PRESSURE GPRESSURE VOLUME PRESSAVG GPRESSAVG
ENERGY: 0 1.5321 6.1297 1.8395 0.0000 -10585.6068 1512.3217 0.0000 0.0000 1735.3817 -7328.4021 299.9429 -9063.7838 -7328.4021 299.9429 701.1143 785.3924 30167.0418 701.1143 785.3924
ENERGY: 300000 0.5343 4.5151 3.1590 0.0000 -10687.4367 1484.4702 0.0000 0.0000 1751.0370 -7443.7211 302.6488 -9194.7582 -7344.1293 301.7576 364.8567 329.1142 29872.7113 372.0943 429.0552
ENERGY: 600000 0.5187 3.2857 1.5531 0.0000 -10664.9640 1393.0434 0.0000 0.0000 1725.0100 -7541.5531 298.1503 -9266.5630 -7372.4320 302.3825 -524.8202 -427.7521 29702.6802 72.9665 135.0590
ENERGY: 900000 0.2203 4.1411 2.5928 0.0000 -10549.1339 1394.5786 0.0000 0.0000 1719.0768 -7428.5243 297.1248 -9147.6011 -7396.1283 300.0199 -204.6412 -196.6918 30041.2702 141.5399 197.7510
ENERGY: 1200000 1.3517 2.9007 3.4409 0.0000 -10422.0639 1329.7274 0.0000 0.0000 1719.4752 -7365.1678 297.1936 -9084.6430 -7376.8361 301.3983 -641.7840 -592.2483 30209.2839 127.9175 176.3623
ENERGY: 1500000 1.6153 5.9073 3.3651 0.0000 -10552.4632 1379.2618 0.0000 0.0000 1762.3277 -7399.9859 304.6003 -9162.3136 -7379.0570 301.0953 -288.5689 -227.5128 29968.1843 151.5750 200.1972
TCL: Running FEP window   6: Lambda1 0.7499999999999998 Lambda2 0.6999999999999997 [dLambda -0.050000000000000044]
TCL: Setting parameter firsttimestep to 0
TCL: Setting parameter alchLambda to 0.7499999999999998
Info: NONBONDED TABLE R-SQUARED SPACING: 0.0625
Info: NONBONDED TABLE SIZE: 705 POINTS
TCL: Setting parameter alchLambda2 to 0.6999999999999997
Info: NONBONDED TABLE R-SQUARED SPACING: 0.0625
Info: NONBONDED TABLE SIZE: 705 POINTS
TCL: Running for 1500000 steps
ETITLE: TS BOND ANGLE DIHED IMPRP ELECT VDW BOUNDARY MISC KINETIC TOTAL TEMP POTENTIAL TOTALAVG TEMPAVG PRESSURE GPRESSURE VOLUME PRESSAVG GPRESSAVG
ENERGY: 0 1.6153 5.9073 3.3651 0.0000 -10551.9910 1379.5906 0.0000 0.0000 1761.4745 -7400.0381 304.4528 -9161.5126 -7400.0381 304.4528 -310.9109 -226.1394 29968.1843 -310.9109 -226.1394
ENERGY: 300000 1.7693 5.7105 3.1878 0.0000 -10388.0127 1346.9565 0.0000 0.0000 1719.3946 -7310.9941 297.1797 -9030.3886 -7372.7260 301.4500 -538.3158 -479.3157 30370.1849 -280.0552 -222.5291
ENERGY: 600000 0.7921 3.9488 2.1250 0.0000 -10565.6236 1423.2149 0.0000 0.0000 1709.2082 -7426.3347 295.4191 -9135.5429 -7374.8741 299.3187 202.9359 221.0438 29737.3376 -255.8945 -201.2189
ENERGY: 900000 3.2731 4.5729 1.5584 0.0000 -10772.4443 1531.6346 0.0000 0.0000 1702.1654 -7529.2399 294.2018 -9231.4053 -7400.4560 298.6809 697.6211 715.5444 29398.1333 -165.2028 -110.9009
ENERGY: 1200000 1.4635 6.7095 2.6129 0.0000 -10394.4847 1326.1913 0.0000 0.0000 1792.0739 -7265.4336 309.7416 -9057.5075 -7389.8809 299.4759 -792.2715 -702.7361 30519.6148 -238.4642 -187.1470
ENERGY: 1500000 1.7602 6.4475 2.9477 0.0000 -10516.7196 1381.5403 0.0000 0.0000 1712.6251 -7411.3986 296.0097 -9124.0238 -7386.0007 299.0815 -523.3193 -415.2618 30207.3272 -269.8368 -219.5192
TCL: Running FEP window   7: Lambda1 0.6999999999999997 Lambda2 0.6499999999999997 [dLambda -0.050000000000000044]
TCL: Setting parameter firsttimestep to 0
TCL: Setting parameter alchLambda to 0.6999999999999997
Info: NONBONDED TABLE R-SQUARED SPACING: 0.0625
Info: NONBONDED TABLE SIZE: 705 POINTS
TCL: Setting parameter alchLambda2 to 0.6499999999999997
Info: NONBONDED TABLE R-SQUARED SPACING: 0.0625
Info: NONBONDED TABLE SIZE: 705 POINTS
TCL: Running for 1500000 steps
ETITLE: TS BOND ANGLE DIHED IMPRP ELECT VDW BOUNDARY MISC KINETIC TOTAL TEMP POTENTIAL TOTALAVG TEMPAVG PRESSURE GPRESSURE VOLUME PRESSAVG GPRESSAVG
ENERGY: 0 1.7602 6.4475 2.9477 0.0000 -10516.2254 1381.5586 0.0000 0.0000 1711.7795 -7411.7319 295.8635 -9123.5114 -7411.7319 295.8635 -517.3192 -422.1321 30207.3272 -517.3192 -422.1321
ENERGY: 300000 0.1973 3.8746 2.2785 0.0000 -10603.8706 1450.1578 0.0000 0.0000 1701.4633 -7445.8993 294.0805 -9147.3626 -7439.1572 294.6630 272.9231 339.3496 29727.1265 75.1485 149.7184
ENERGY: 600000 1.6924 4.4484 3.0592 0.0000 -10479.6086 1324.2315 0.0000 0.0000 1769.1844 -7376.9927 305.7854 -9146.1771 -7393.9454 300.1731 -939.3932 -918.1365 30274.7059 69.9837 129.1931
ENERGY: 900000 0.8870 4.7970 3.1416 0.0000 -10582.6419 1453.3318 0.0000 0.0000 1771.3163 -7349.1682 306.1538 -9120.4845 -7383.9485 301.6168 442.5833 468.2728 29834.5834 289.9253 343.6905
ENERGY: 1200000 0.7998 3.4896 4.3610 0.0000 -10595.5060 1435.0599 0.0000 0.0000 1751.9318 -7399.8640 302.8034 -9151.7958 -7382.6475 302.0083 127.6357 167.9277 29846.4748 185.2300 231.6162
ENERGY: 1500000 0.8495 2.1316 3.4586 0.0000 -10539.6430 1388.4818 0.0000 0.0000 1759.1340 -7385.5874 304.0483 -9144.7214 -7379.0791 302.4177 -1.4504 -3.5429 29875.9958 116.8041 164.3872
TCL: Running FEP window   8: Lambda1 0.6499999999999997 Lambda2 0.5999999999999996 [dLambda -0.050000000000000044]
TCL: Setting parameter firsttimestep to 0
TCL: Setting parameter alchLambda to 0.6499999999999997
Info: NONBONDED TABLE R-SQUARED SPACING: 0.0625
Info: NONBONDED TABLE SIZE: 705 POINTS
TCL: Setting parameter alchLambda2 to 0.5999999999999996
Info: NONBONDED TABLE R-SQUARED SPACING: 0.0625
Info: NONBONDED TABLE SIZE: 705 POINTS
TCL: Running for 1500000 steps
ETITLE: TS BOND ANGLE DIHED IMPRP ELECT VDW BOUNDARY MISC KINETIC TOTAL TEMP POTENTIAL TOTALAVG TEMPAVG PRESSURE GPRESSURE VOLUME PRESSAVG GPRESSAVG
ENERGY: 0 0.8495 2.1316 3.4586 0.0000 -10539.9720 1388.4082 0.0000 0.0000 1758.2462 -7386.8778 303.8948 -9145.1240 -7386.8778 303.8948 -102.4011 -14.2816 29875.9958 -102.4011 -14.2816
ENERGY: 300000 1.3840 6.5401 3.0703 0.0000 -10492.6292 1392.7610 0.0000 0.0000 1742.8566 -7346.0172 301.2349 -9088.8737 -7381.1360 302.5327 -226.1748 -167.4533 30322.9588 -477.5699 -387.0965
ENERGY: 600000 0.9022 2.2617 1.3747 0.0000 -10547.1503 1405.6584 0.0000 0.0000 1733.9727 -7402.9806 299.6994 -9136.9533 -7371.1829 301.7477 -2.2220 9.7060 29767.0218 -112.9355 -43.7114
ENERGY: 900000 2.5198 5.6563 2.3035 0.0000 -10624.3451 1444.6117 0.0000 0.0000 1752.4088 -7416.8449 302.8859 -9169.2538 -7381.1229 301.6364 -11.5611 -36.3355 30173.6235 101.6306 166.1242
ENERGY: 1200000 1.5799 3.6148 3.1007 0.0000 -10574.7587 1450.5185 0.0000 0.0000 1716.3833 -7399.5616 296.6592 -9115.9449 -7381.5385 300.9995 478.9432 508.4897 29799.9636 128.7266 191.3877
ENERGY: 1500000 0.9863 3.4351 2.0120 0.0000 -10544.8019 1335.6447 0.0000 0.0000 1704.3444 -7498.3793 294.5784 -9202.7237 -7386.8821 300.6322 -774.6762 -710.1486 29639.9419 97.5392 163.1645
TCL: Running FEP window   9: Lambda1 0.5999999999999996 Lambda2 0.5499999999999996 [dLambda -0.050000000000000044]
TCL: Setting parameter firsttimestep to 0
TCL: Setting parameter alchLambda to 0.5999999999999996
Info: NONBONDED TABLE R-SQUARED SPACING: 0.0625
Info: NONBONDED TABLE SIZE: 705 POINTS
TCL: Setting parameter alchLambda2 to 0.5499999999999996
Info: NONBONDED TABLE R-SQUARED SPACING: 0.0625
Info: NONBONDED TABLE SIZE: 705 POINTS
TCL: Running for 1500000 steps
ETITLE: TS BOND ANGLE DIHED IMPRP ELECT VDW BOUNDARY MISC KINETIC TOTAL TEMP POTENTIAL TOTALAVG TEMPAVG PRESSURE GPRESSURE VOLUME PRESSAVG GPRESSAVG
ENERGY: 0 0.9863 3.4351 2.0120 0.0000 -10544.5095 1335.4512 0.0000 0.0000 1703.5365 -7499.0883 294.4388 -9202.6248 -7499.0883 294.4388 -811.4699 -721.8414 29639.9419 -811.4699 -721.8414
ENERGY: 300000 0.7034 8.8709 1.8560 0.0000 -10482.1363 1358.6628 0.0000 0.0000 1742.0882 -7369.9549 301.1021 -9112.0432 -7411.3227 297.2260 -709.3263 -622.5858 30318.9720 -291.8722 -222.8116
ENERGY: 600000 0.7911 4.4932 3.9420 0.0000 -10466.9859 1343.1051 0.0000 0.0000 1733.8588 -7380.7956 299.6797 -9114.6544 -7380.1776 299.1567 -709.5532 -681.0889 30363.2883 -247.6752 -190.2608
ENERGY: 900000 2.6350 4.5902 3.2911 0.0000 -10530.9530 1359.9262 0.0000 0.0000 1735.7949 -7424.7156 300.0143 -9160.5105 -7387.8750 299.3870 -849.9045 -814.9275 30441.9676 -218.1816 -162.6913
ENERGY: 1200000 1.0443 2.9385 2.9260 0.0000 -10597.5100 1433.2284 0.0000 0.0000 1719.8640 -7437.5088 297.2608 -9157.3728 -7389.0303 299.4428 -113.2574 -107.4945 30138.1559 -227.5090 -173.7687
ENERGY: 1500000 1.2310 7.7277 1.7487 0.0000 -10382.9563 1315.7995 0.0000 0.0000 1752.6371 -7303.8123 302.9253 -9056.4494 -7396.9466 299.4043 -728.0849 -707.1560 30237.1892 -258.1004 -206.3083
TCL: Running FEP window  10: Lambda1 0.5499999999999996 Lambda2 0.4999999999999996 [dLambda -0.04999999999999999]
TCL: Setting parameter firsttimestep to 0
TCL: Setting parameter alchLambda to 0.5499999999999996
Info: NONBONDED TABLE R-SQUARED SPACING: 0.0625
Info: NONBONDED TABLE SIZE: 705 POINTS
TCL: Setting parameter alchLambda2 to 0.4999999999999996
Info: NONBONDED TABLE R-SQUARED SPACING: 0.0625
Info: NONBONDED TABLE SIZE: 705 POINTS
TCL: Running for 1500000 steps
ETITLE: TS BOND ANGLE DIHED IMPRP ELECT VDW BOUNDARY MISC KINETIC TOTAL TEMP POTENTIAL TOTALAVG TEMPAVG PRESSURE GPRESSURE VOLUME PRESSAVG GPRESSAVG
ENERGY: 0 1.2310 7.7277 1.7487 0.0000 -10382.8201 1316.0170 0.0000 0.0000 1751.7769 -7304.3189 302.7767 -9056.0957 -7304.3189 302.7767 -781.8422 -711.5152 30237.1892 -781.8422 -711.5152
ENERGY: 300000 1.7589 5.8203 2.9870 0.0000 -10598.0612 1401.5145 0.0000 0.0000 1744.2580 -7441.7225 301.4771 -9185.9806 -7373.5526 302.6164 -253.0034 -170.6793 29784.9585 -417.7691 -343.0174
ENERGY: 600000 0.8231 4.7832 3.1786 0.0000 -10705.1412 1521.3803 0.0000 0.0000 1815.9844 -7358.9916 313.8743 -9174.9760 -7372.4708 302.8652 673.2346 754.8854 30054.8651 -122.6492 -39.2204
ENERGY: 900000 0.3333 1.2201 3.1537 0.0000 -10534.3046 1403.5485 0.0000 0.0000 1699.5144 -7426.5345 293.7436 -9126.0489 -7377.2984 300.0957 -280.5403 -217.7875 30258.0831 -140.0553 -64.1969
ENERGY: 1200000 2.0402 4.0155 4.0676 0.0000 -10572.1913 1442.1321 0.0000 0.0000 1720.8370 -7399.0989 297.4290 -9119.9359 -7384.4862 299.5074 31.7290 72.2882 30097.9663 -77.3552 -10.5934
ENERGY: 1500000 0.4994 4.9128 3.8588 0.0000 -10641.1989 1477.8278 0.0000 0.0000 1713.6823 -7440.4179 296.1924 -9154.1002 -7385.6239 299.7446 356.6759 440.6009 29902.5995 9.6052 78.7036
TCL: Running FEP window  11: Lambda1 0.4999999999999996 Lambda2 0.4499999999999996 [dLambda -0.04999999999999999]
TCL: Setting parameter firsttimestep to 0
TCL: Setting parameter alchLambda to 0.4999999999999996
Info: NONBONDED TABLE R-SQUARED SPACING: 0.0625
Info: NONBONDED TABLE SIZE: 705 POINTS
TCL: Setting parameter alchLambda2 to 0.4499999999999996
Info: NONBONDED TABLE R-SQUARED SPACING: 0.0625
Info: NONBONDED TABLE SIZE: 705 POINTS
TCL: Running for 1500000 steps
ETITLE: TS BOND ANGLE DIHED IMPRP ELECT VDW BOUNDARY MISC KINETIC TOTAL TEMP POTENTIAL TOTALAVG TEMPAVG PRESSURE GPRESSURE VOLUME PRESSAVG GPRESSAVG
ENERGY: 0 0.4994 4.9128 3.8588 0.0000 -10641.6890 1478.2410 0.0000 0.0000 1712.8035 -7441.3735 296.0405 -9154.1770 -7441.3735 296.0405 358.6685 438.7952 29902.5995 358.6685 438.7952
ENERGY: 300000 2.6517 5.8847 3.1186 0.0000 -10561.3951 1449.9656 0.0000 0.0000 1718.0778 -7381.6967 296.9521 -9099.7745 -7397.6688 297.3884 374.3723 381.6285 30125.9783 130.7161 189.8356
ENERGY: 600000 1.2658 7.9497 3.8326 0.0000 -10540.1298 1416.5917 0.0000 0.0000 1730.1037 -7380.3864 299.0307 -9110.4901 -7397.6620 298.5445 -52.3965 4.5643 30089.2380 -6.2310 54.1863
ENERGY: 900000 0.9067 3.7534 1.8105 0.0000 -10653.4136 1461.6611 0.0000 0.0000 1706.8301 -7478.4518 295.0081 -9185.2819 -7388.4744 299.7572 265.2303 275.7989 29517.8066 -71.9278 -20.4377
ENERGY: 1200000 1.2510 4.2838 1.8002 0.0000 -10554.0813 1399.6607 0.0000 0.0000 1682.4589 -7464.6267 290.7958 -9147.0856 -7403.6640 298.6118 -285.0806 -187.0553 29974.0420 -106.4576 -49.3923
ENERGY: 1500000 0.2641 3.6214 1.9344 0.0000 -10444.5464 1353.8148 0.0000 0.0000 1733.6764 -7351.2353 299.6482 -9084.9117 -7399.2085 298.6851 -455.4052 -404.1989 30054.3251 -119.6436 -57.1935
TCL: Running FEP window  12: Lambda1 0.4499999999999996 Lambda2 0.39999999999999963 [dLambda -0.04999999999999999]
TCL: Setting parameter firsttimestep to 0
TCL: Setting parameter alchLambda to 0.4499999999999996
Info: NONBONDED TABLE R-SQUARED SPACING: 0.0625
Info: NONBONDED TABLE SIZE: 705 POINTS
TCL: Setting parameter alchLambda2 to 0.39999999999999963
Info: NONBONDED TABLE R-SQUARED SPACING: 0.0625
Info: NONBONDED TABLE SIZE: 705 POINTS
TCL: Running for 1500000 steps
ETITLE: TS BOND ANGLE DIHED IMPRP ELECT VDW BOUNDARY MISC KINETIC TOTAL TEMP POTENTIAL TOTALAVG TEMPAVG PRESSURE GPRESSURE VOLUME PRESSAVG GPRESSAVG
ENERGY: 0 0.2641 3.6214 1.9344 0.0000 -10444.5466 1354.1189 0.0000 0.0000 1732.8165 -7351.7912 299.4996 -9084.6078 -7351.7912 299.4996 -482.5431 -409.2749 30054.3251 -482.5431 -409.2749
ENERGY: 300000 1.0674 2.1136 1.9435 0.0000 -10470.6012 1446.9757 0.0000 0.0000 1785.4193 -7233.0816 308.5914 -9018.5009 -7326.1642 300.7737 403.3745 426.9698 30250.4190 -231.4687 -184.0451
ENERGY: 600000 2.2184 3.2849 1.4423 0.0000 -10680.0008 1540.9790 0.0000 0.0000 1733.6102 -7398.4661 299.6367 -9132.0762 -7349.4968 300.4221 1012.1655 1036.4564 29877.0207 -184.2271 -127.8195
ENERGY: 900000 1.5155 4.5169 2.9790 0.0000 -10520.9231 1363.3313 0.0000 0.0000 1734.4145 -7414.1658 299.7758 -9148.5804 -7361.0856 301.5431 -498.2955 -459.5901 29674.4101 -178.5755 -121.7352
ENERGY: 1200000 1.3262 3.0132 2.7981 0.0000 -10668.2701 1499.0169 0.0000 0.0000 1761.3945 -7400.7211 304.4390 -9162.1156 -7355.2577 301.8925 511.7230 580.5602 29966.6072 -119.2565 -54.4687
ENERGY: 1500000 1.3224 2.3911 1.9370 0.0000 -10518.0392 1369.1628 0.0000 0.0000 1655.7311 -7487.4948 286.1761 -9143.2260 -7367.3739 300.8984 -706.8284 -681.6444 30182.8806 -206.8482 -150.9797
TCL: Running FEP window  13: Lambda1 0.39999999999999963 Lambda2 0.34999999999999964 [dLambda -0.04999999999999999]
TCL: Setting parameter firsttimestep to 0
TCL: Setting parameter alchLambda to 0.39999999999999963
Info: NONBONDED TABLE R-SQUARED SPACING: 0.0625
Info: NONBONDED TABLE SIZE: 705 POINTS
TCL: Setting parameter alchLambda2 to 0.34999999999999964
Info: NONBONDED TABLE R-SQUARED SPACING: 0.0625
Info: NONBONDED TABLE SIZE: 705 POINTS
TCL: Running for 1500000 steps
ETITLE: TS BOND ANGLE DIHED IMPRP ELECT VDW BOUNDARY MISC KINETIC TOTAL TEMP POTENTIAL TOTALAVG TEMPAVG PRESSURE GPRESSURE VOLUME PRESSAVG GPRESSAVG
ENERGY: 0 1.3224 2.3911 1.9370 0.0000 -10518.0394 1368.6532 0.0000 0.0000 1654.8674 -7488.8683 286.0269 -9143.7357 -7488.8683 286.0269 -768.9087 -690.7991 30182.8806 -768.9087 -690.7991
ENERGY: 300000 1.2155 1.9767 1.9080 0.0000 -10558.4392 1405.5293 0.0000 0.0000 1768.1336 -7379.6760 305.6038 -9147.8096 -7419.9374 298.3836 -21.5507 -22.4959 29925.8279 -161.6789 -113.6721
ENERGY: 600000 2.3512 6.7817 2.0909 0.0000 -10547.8888 1444.1367 0.0000 0.0000 1728.9273 -7363.6009 298.8273 -9092.5283 -7399.2718 300.1346 235.1225 248.8088 30103.0821 -11.2611 26.9829
ENERGY: 900000 0.2637 4.6793 1.6292 0.0000 -10488.8286 1412.3647 0.0000 0.0000 1727.7581 -7342.1335 298.6253 -9069.8917 -7389.8817 299.6215 -20.1637 72.2397 30188.5081 -28.7655 21.1817
ENERGY: 1200000 0.9311 7.2593 3.0643 0.0000 -10539.4803 1413.1812 0.0000 0.0000 1738.3015 -7376.7429 300.4476 -9115.0444 -7387.3600 300.1098 237.5236 278.1343 29650.5748 65.4521 101.9365
ENERGY: 1500000 0.1291 2.5688 3.0931 0.0000 -10393.2272 1285.7759 0.0000 0.0000 1723.3216 -7378.3387 297.8584 -9101.6603 -7379.9525 300.0034 -1156.2695 -1044.2272 30254.7536 -117.5343 -71.2258
TCL: Running FEP window  14: Lambda1 0.34999999999999964 Lambda2 0.29999999999999966 [dLambda -0.04999999999999999]
TCL: Setting parameter firsttimestep to 0
TCL: Setting parameter alchLambda to 0.34999999999999964
Info: NONBONDED TABLE R-SQUARED SPACING: 0.0625
Info: NONBONDED TABLE SIZE: 705 POINTS
TCL: Setting parameter alchLambda2 to 0.29999999999999966
Info: NONBONDED TABLE R-SQUARED SPACING: 0.0625
Info: NONBONDED TABLE SIZE: 705 POINTS
TCL: Running for 1500000 steps
ETITLE: TS BOND ANGLE DIHED IMPRP ELECT VDW BOUNDARY MISC KINETIC TOTAL TEMP POTENTIAL TOTALAVG TEMPAVG PRESSURE GPRESSURE VOLUME PRESSAVG GPRESSAVG
ENERGY: 0 0.1291 2.5688 3.0931 0.0000 -10393.2281 1286.0186 0.0000 0.0000 1722.4969 -7378.9215 297.7159 -9101.4185 -7378.9215 297.7159 -1132.7717 -1043.6324 30254.7536 -1132.7717 -1043.6324
ENERGY: 300000 1.3168 2.7886 3.2591 0.0000 -10602.2536 1491.7386 0.0000 0.0000 1753.9348 -7349.2157 303.1496 -9103.1505 -7363.7097 302.1198 246.8292 343.4644 30510.7303 -202.2753 -136.9778
ENERGY: 600000 2.7235 5.6249 2.7331 0.0000 -10631.1469 1404.0853 0.0000 0.0000 1705.0090 -7510.9710 294.6933 -9215.9801 -7398.1827 300.8432 -616.1590 -554.3260 30194.4628 -223.7794 -160.7826
ENERGY: 900000 2.0932 5.4164 2.0712 0.0000 -10551.5237 1410.1352 0.0000 0.0000 1654.6174 -7477.1903 285.9836 -9131.8077 -7403.7743 297.5890 44.2440 104.9184 29510.6555 -146.7537 -82.1641
ENERGY: 1200000 1.5892 3.7035 4.6048 0.0000 -10519.3724 1409.0297 0.0000 0.0000 1726.1004 -7374.3447 298.3387 -9100.4451 -7395.2809 298.7345 -113.9885 -8.3390 30089.3240 -75.8028 -6.2651
ENERGY: 1500000 1.0752 2.3704 4.1981 0.0000 -10380.5253 1308.4321 0.0000 0.0000 1707.0492 -7357.4003 295.0459 -9064.4495 -7391.2871 298.2945 -902.3225 -821.0539 30214.3927 -98.1114 -29.3235
TCL: Running FEP window  15: Lambda1 0.29999999999999966 Lambda2 0.24999999999999967 [dLambda -0.04999999999999999]
TCL: Setting parameter firsttimestep to 0
TCL: Setting parameter alchLambda to 0.29999999999999966
Info: NONBONDED TABLE R-SQUARED SPACING: 0.0625
Info: NONBONDED TABLE SIZE: 705 POINTS
TCL: Setting parameter alchLambda2 to 0.24999999999999967
Info: NONBONDED TABLE R-SQUARED SPACING: 0.0625
Info: NONBONDED TABLE SIZE: 705 POINTS
TCL: Running for 1500000 steps
ETITLE: TS BOND ANGLE DIHED IMPRP ELECT VDW BOUNDARY MISC KINETIC TOTAL TEMP POTENTIAL TOTALAVG TEMPAVG PRESSURE GPRESSURE VOLUME PRESSAVG GPRESSAVG
ENERGY: 0 1.0752 2.3704 4.1981 0.0000 -10380.5254 1308.7063 0.0000 0.0000 1706.1616 -7358.0139 294.8925 -9064.1754 -7358.0139 294.8925 -915.5645 -824.1406 30214.3927 -915.5645 -824.1406
ENERGY: 300000 1.8186 4.7056 3.1703 0.0000 -10559.1818 1365.4295 0.0000 0.0000 1772.5507 -7411.5072 306.3672 -9184.0578 -7397.3027 300.6786 -412.1325 -378.4097 29877.3054 -178.3805 -100.8248
ENERGY: 600000 1.1568 2.8156 1.4938 0.0000 -10500.8059 1402.0043 0.0000 0.0000 1719.9471 -7373.3884 297.2752 -9093.3355 -7409.4030 299.0576 54.1854 127.6532 29755.6240 -105.1349 -37.2597
ENERGY: 900000 1.9173 3.5404 1.7225 0.0000 -10414.6999 1310.8930 0.0000 0.0000 1737.1960 -7359.4307 300.2565 -9096.6267 -7408.7645 299.2589 -819.3548 -734.0955 29962.2323 -191.7415 -119.0610
ENERGY: 1200000 0.5812 4.0982 1.6106 0.0000 -10606.2922 1456.1053 0.0000 0.0000 1736.7528 -7407.1441 300.1799 -9143.8968 -7412.0685 297.5419 444.9382 547.5840 29517.8896 -121.0521 -41.2733
ENERGY: 1500000 2.2481 6.0398 2.5501 0.0000 -10575.8068 1443.5682 0.0000 0.0000 1705.1880 -7416.2125 294.7242 -9121.4005 -7409.3611 297.9934 -85.0424 -69.5320 30092.1116 -148.7664 -78.0651
TCL: Running FEP window  16: Lambda1 0.24999999999999967 Lambda2 0.19999999999999968 [dLambda -0.04999999999999999]
TCL: Setting parameter firsttimestep to 0
TCL: Setting parameter alchLambda to 0.24999999999999967
Info: NONBONDED TABLE R-SQUARED SPACING: 0.0625
Info: NONBONDED TABLE SIZE: 705 POINTS
TCL: Setting parameter alchLambda2 to 0.19999999999999968
Info: NONBONDED TABLE R-SQUARED SPACING: 0.0625
Info: NONBONDED TABLE SIZE: 705 POINTS
TCL: Running for 1500000 steps
ETITLE: TS BOND ANGLE DIHED IMPRP ELECT VDW BOUNDARY MISC KINETIC TOTAL TEMP POTENTIAL TOTALAVG TEMPAVG PRESSURE GPRESSURE VOLUME PRESSAVG GPRESSAVG
ENERGY: 0 2.2481 6.0398 2.5501 0.0000 -10575.8039 1443.4190 0.0000 0.0000 1704.3363 -7417.2106 294.5770 -9121.5468 -7417.2106 294.5770 -144.9345 -74.4072 30092.1116 -144.9345 -74.4072
ENERGY: 300000 1.9023 2.8733 2.9706 0.0000 -10571.9758 1384.4026 0.0000 0.0000 1689.1984 -7490.6286 291.9606 -9179.8269 -7416.1752 296.3361 -355.9227 -275.8369 29367.8768 -313.2636 -251.6899
ENERGY: 600000 1.8171 4.4053 2.7837 0.0000 -10601.3358 1514.2884 0.0000 0.0000 1696.3512 -7381.6901 293.1969 -9078.0413 -7386.4197 298.4534 998.6291 1041.2241 29524.6011 -161.7400 -104.3147
ENERGY: 900000 0.7652 6.7629 1.5139 0.0000 -10734.9255 1512.6945 0.0000 0.0000 1724.1871 -7489.0018 298.0080 -9213.1889 -7383.2282 299.4474 621.3809 689.9139 29624.1127 58.9829 119.5032
ENERGY: 1200000 2.9386 4.8680 4.1128 0.0000 -10541.8273 1431.5288 0.0000 0.0000 1800.9452 -7297.4338 311.2749 -9098.3790 -7370.8668 301.8425 294.6151 350.7234 29616.3575 -17.2235 40.8310
ENERGY: 1500000 1.6705 7.4359 3.7127 0.0000 -10596.8812 1474.9637 0.0000 0.0000 1672.7332 -7436.3652 289.1148 -9109.0984 -7370.2584 301.6460 122.4336 146.8706 30341.0419 -29.4908 30.2783
TCL: Running FEP window  17: Lambda1 0.19999999999999968 Lambda2 0.1499999999999997 [dLambda -0.04999999999999999]
TCL: Setting parameter firsttimestep to 0
TCL: Setting parameter alchLambda to 0.19999999999999968
Info: NONBONDED TABLE R-SQUARED SPACING: 0.0625
Info: NONBONDED TABLE SIZE: 705 POINTS
TCL: Setting parameter alchLambda2 to 0.1499999999999997
Info: NONBONDED TABLE R-SQUARED SPACING: 0.0625
Info: NONBONDED TABLE SIZE: 705 POINTS
TCL: Running for 1500000 steps
ETITLE: TS BOND ANGLE DIHED IMPRP ELECT VDW BOUNDARY MISC KINETIC TOTAL TEMP POTENTIAL TOTALAVG TEMPAVG PRESSURE GPRESSURE VOLUME PRESSAVG GPRESSAVG
ENERGY: 0 1.6705 7.4359 3.7127 0.0000 -10596.8818 1474.7276 0.0000 0.0000 1671.8722 -7437.4628 288.9660 -9109.3350 -7437.4628 288.9660 60.0421 143.4914 30341.0419 60.0421 143.4914
ENERGY: 300000 1.7592 3.5428 3.1124 0.0000 -10644.6281 1470.9512 0.0000 0.0000 1744.1745 -7421.0880 301.4627 -9165.2624 -7405.0556 296.7027 432.6364 438.9746 29767.7981 242.1511 288.2920
ENERGY: 600000 1.8051 6.1202 3.1043 0.0000 -10447.9199 1376.6499 0.0000 0.0000 1705.9990 -7354.2413 294.8644 -9060.2403 -7400.8233 297.0338 -408.9887 -374.0727 30523.9140 85.8128 145.2725
ENERGY: 900000 0.5485 3.4159 1.7894 0.0000 -10520.7332 1357.7677 0.0000 0.0000 1742.9166 -7414.2952 301.2452 -9157.2117 -7397.9075 298.5742 -437.7273 -358.7541 29631.2037 204.3288 252.2399
ENERGY: 1200000 0.6353 2.8203 4.1428 0.0000 -10592.3237 1417.5571 0.0000 0.0000 1737.7994 -7429.3687 300.3608 -9167.1680 -7408.9603 299.6752 19.2335 47.1881 29662.9705 154.6771 196.5629
ENERGY: 1500000 1.3009 4.1889 3.2005 0.0000 -10649.0331 1465.3986 0.0000 0.0000 1742.0308 -7432.9133 301.0921 -9174.9441 -7414.2881 299.0327 268.9630 311.3790 29818.7042 118.4401 167.2782
TCL: Running FEP window  18: Lambda1 0.1499999999999997 Lambda2 0.09999999999999969 [dLambda -0.05 ]
TCL: Setting parameter firsttimestep to 0
TCL: Setting parameter alchLambda to 0.1499999999999997
Info: NONBONDED TABLE R-SQUARED SPACING: 0.0625
Info: NONBONDED TABLE SIZE: 705 POINTS
TCL: Setting parameter alchLambda2 to 0.09999999999999969
Info: NONBONDED TABLE R-SQUARED SPACING: 0.0625
Info: NONBONDED TABLE SIZE: 705 POINTS
TCL: Running for 1500000 steps
ETITLE: TS BOND ANGLE DIHED IMPRP ELECT VDW BOUNDARY MISC KINETIC TOTAL TEMP POTENTIAL TOTALAVG TEMPAVG PRESSURE GPRESSURE VOLUME PRESSAVG GPRESSAVG
ENERGY: 0 1.3009 4.1889 3.2005 0.0000 -10649.0339 1465.7256 0.0000 0.0000 1741.1679 -7433.4501 300.9430 -9174.6180 -7433.4501 300.9430 230.6655 310.6518 29818.7042 230.6655 310.6518
ENERGY: 300000 0.1865 7.6353 4.0783 0.0000 -10458.7509 1389.0413 0.0000 0.0000 1767.0585 -7290.7510 305.4179 -9057.8095 -7387.0441 299.2486 -56.8704 -8.6408 30079.7207 -87.4311 -23.7570
ENERGY: 600000 1.5271 3.3170 2.6518 0.0000 -10664.9888 1493.5125 0.0000 0.0000 1724.3265 -7439.6540 298.0321 -9163.9805 -7389.6412 298.5293 528.1990 531.3290 29812.8787 95.1033 156.5224
ENERGY: 900000 0.7984 2.3178 1.8371 0.0000 -10560.7886 1438.4120 0.0000 0.0000 1712.0694 -7405.3540 295.9136 -9117.4234 -7402.5844 298.3663 425.4722 486.5936 29214.2999 102.9714 161.6057
ENERGY: 1200000 0.8689 4.2261 2.9521 0.0000 -10626.1192 1441.5798 0.0000 0.0000 1682.1600 -7494.3325 290.7441 -9176.4924 -7410.1048 297.7924 68.5211 137.6599 29634.3653 163.3092 227.5470
ENERGY: 1500000 0.4464 6.6554 1.7719 0.0000 -10609.9026 1451.4288 0.0000 0.0000 1725.5251 -7424.0750 298.2393 -9149.6000 -7409.7922 298.3236 175.9033 223.9917 29753.9097 187.0068 254.9240
TCL: Running FEP window  19: Lambda1 0.09999999999999969 Lambda2 0.049999999999999684 [dLambda -0.05 ]
TCL: Setting parameter firsttimestep to 0
TCL: Setting parameter alchLambda to 0.09999999999999969
Info: NONBONDED TABLE R-SQUARED SPACING: 0.0625
Info: NONBONDED TABLE SIZE: 705 POINTS
TCL: Setting parameter alchLambda2 to 0.049999999999999684
Info: NONBONDED TABLE R-SQUARED SPACING: 0.0625
Info: NONBONDED TABLE SIZE: 705 POINTS
TCL: Running for 1500000 steps
ETITLE: TS BOND ANGLE DIHED IMPRP ELECT VDW BOUNDARY MISC KINETIC TOTAL TEMP POTENTIAL TOTALAVG TEMPAVG PRESSURE GPRESSURE VOLUME PRESSAVG GPRESSAVG
ENERGY: 0 0.4464 6.6554 1.7719 0.0000 -10609.9041 1450.8215 0.0000 0.0000 1724.6337 -7425.5752 298.0852 -9150.2089 -7425.5752 298.0852 134.8457 218.3417 29753.9097 134.8457 218.3417
ENERGY: 300000 0.9975 3.8988 1.6714 0.0000 -10483.3005 1316.4594 0.0000 0.0000 1739.0927 -7421.1807 300.5843 -9160.2734 -7439.0450 298.0699 -911.3639 -836.3598 29795.6922 -190.1955 -112.1569
ENERGY: 600000 0.3233 2.8734 1.9100 0.0000 -10416.6280 1339.4412 0.0000 0.0000 1738.2517 -7333.8284 300.4390 -9072.0801 -7415.1545 299.1121 -439.7293 -393.8879 29890.3379 -233.4626 -175.1100
ENERGY: 900000 0.6346 5.5096 2.9046 0.0000 -10481.5172 1382.9718 0.0000 0.0000 1778.7320 -7310.7646 307.4356 -9089.4967 -7401.5901 299.5098 -158.6289 -104.0856 29679.1193 -142.4261 -88.6109
ENERGY: 1200000 1.4830 5.8345 2.8929 0.0000 -10577.9192 1449.7956 0.0000 0.0000 1719.2848 -7398.6282 297.1607 -9117.9130 -7395.8636 300.2019 159.7169 305.2397 29639.0639 -58.9712 8.9487
ENERGY: 1500000 1.4434 7.8035 3.3116 0.0000 -10577.2727 1447.0959 0.0000 0.0000 1695.5642 -7422.0540 293.0609 -9117.6182 -7396.0941 299.4348 -60.5934 -2.0009 30198.6941 -54.9628 13.9309
TCL: Running FEP window  20: Lambda1 0.049999999999999684 Lambda2 0.0    [dLambda -0.049999999999999684]
TCL: Setting parameter firsttimestep to 0
TCL: Setting parameter alchLambda to 0.049999999999999684
Info: NONBONDED TABLE R-SQUARED SPACING: 0.0625
Info: NONBONDED TABLE SIZE: 705 POINTS
TCL: Setting parameter alchLambda2 to 0.0
Info: NONBONDED TABLE R-SQUARED SPACING: 0.0625
Info: NONBONDED TABLE SIZE: 705 POINTS
TCL: Running for 1500000 steps
ETITLE: TS BOND ANGLE DIHED IMPRP ELECT VDW BOUNDARY MISC KINETIC TOTAL TEMP POTENTIAL TOTALAVG TEMPAVG PRESSURE GPRESSURE VOLUME PRESSAVG GPRESSAVG
ENERGY: 0 1.4434 7.8036 3.3116 0.0000 -10577.2731 1446.6200 0.0000 0.0000 1694.7315 -7423.3630 292.9170 -9118.0945 -7423.3630 292.9170 -101.3304 -5.3456 30198.6941 -101.3304 -5.3456
ENERGY: 300000 0.4205 5.2661 1.5031 0.0000 -10410.0923 1333.7684 0.0000 0.0000 1725.9434 -7343.1907 298.3116 -9069.1341 -7354.9555 296.8884 -482.8858 -467.0244 30071.8703 -112.7257 -65.7206
ENERGY: 600000 2.4511 3.9405 3.2329 0.0000 -10602.4691 1445.5174 0.0000 0.0000 1711.4088 -7435.9184 295.7994 -9147.3272 -7381.6541 297.1738 148.3435 261.1885 29902.6594 -107.0431 -56.3755
ENERGY: 900000 0.5054 7.3830 2.1984 0.0000 -10521.3641 1393.8722 0.0000 0.0000 1709.7813 -7407.6238 295.5181 -9117.4051 -7385.3359 298.5247 -212.4717 -155.7032 29897.7045 56.3031 100.1218
ENERGY: 1200000 0.1491 6.9210 2.9878 0.0000 -10463.0314 1385.0207 0.0000 0.0000 1724.0624 -7343.8903 297.9865 -9067.9527 -7384.5780 299.1502 -327.7594 -298.0446 30239.0146 0.0037 49.0377
ENERGY: 1500000 0.9385 10.0976 1.4187 0.0000 -10400.8669 1285.2269 0.0000 0.0000 1740.2640 -7362.9212 300.7868 -9103.1853 -7389.5570 298.9985 -1189.4557 -1134.8894 30113.2234 -10.8122 38.9704
TCL: Exiting due to exit command.
