Info: SIMULATION PARAMETERS:
Info: TIMESTEP               2
Info: NUMBER OF STEPS        0
Info: STEPS PER CYCLE        10
Info: PERIODIC CELL BASIS 1  32.381 0 0
Info: PERIODIC CELL BASIS 2  0 30.1758 0
Info: PERIODIC CELL BASIS 3  0 0 31.7297
Info: PERIODIC CELL CENTER   0 0 0
Info: WRAPPING WATERS AROUND PERIODIC BOUNDARIES ON OUTPUT.
Info: WRAPPING ALL CLUSTERS AROUND PERIODIC BOUNDARIES ON OUTPUT.
Info: FIRST LDB TIMESTEP     50
Info: LAST LDB TIMESTEP     -1
Info: HOM BACKGROUND SCALING 1
Info: PME BACKGROUND SCALING 1
Info: MIN ATOMS PER PATCH    40
Info: EMPTY PATCH LOAD       40 ATOMS
Info: VELOCITY FILE          mobley_8208692_equil.vel
Info: CENTER OF MASS MOVING INITIALLY? NO
Info: DIELECTRIC             1
Info: EXCLUDE                SCALED ONE-FOUR
Info: 1-4 ELECTROSTATICS SCALED BY 0.833333
Info: MODIFIED 1-4 VDW PARAMETERS WILL BE USED
Info: DCD FILENAME           mobley_8208692_prod.dcd
Info: DCD FREQUENCY          100000
Info: DCD FIRST STEP         100000
Info: DCD FILE WILL CONTAIN UNIT CELL DATA
Info: XST FILENAME           mobley_8208692_prod.xst
Info: XST FREQUENCY          100000
Info: NO VELOCITY DCD OUTPUT
Info: NO FORCE DCD OUTPUT
Info: OUTPUT FILENAME        mobley_8208692_prod
Info: BINARY OUTPUT FILES WILL BE USED
Info: RESTART FILENAME       mobley_8208692_prod.restart
Info: RESTART FREQUENCY      100000
Info: BINARY RESTART FILES WILL BE USED
Info: CUTOFF                 9
Info: PAIRLIST DISTANCE      11
Info: PAIRLIST SHRINK RATE   0.01
Info: PAIRLIST GROW RATE     0.01
Info: PAIRLIST TRIGGER       0.3
Info: PAIRLISTS PER CYCLE    2
Info: PAIRLISTS ENABLED
Info: MARGIN                 2
Info: HYDROGEN GROUP CUTOFF  2.5
Info: PATCH DIMENSION        15.5
Info: ENERGY OUTPUT STEPS    100000
Info: ENERGY EVALUATION STEPS    100000
Info: OUTPUT ENERGY PRECISION 4
Info: CROSSTERM ENERGY INCLUDED IN DIHEDRAL
Info: TIMING OUTPUT STEPS    1000000
Info: PRESSURE OUTPUT STEPS  100000
Info: ALCHEMICAL FEP ON
Info: FEP CURRENT LAMBDA VALUE     0
Info: FEP COMPARISON LAMBDA VALUE  0.05
Info: FEP INTRA-ALCHEMICAL NON-BONDED INTERACTIONS WILL BE RETAINED
Info: FEP INTRA-ALCHEMICAL BONDED INTERACTIONS WILL BE RETAINED
Info: FEP VDW SHIFTING COEFFICIENT 5
Info: FEP ELEC. ACTIVE FOR ANNIHILATED PARTICLES BETWEEN LAMBDA = 0 AND LAMBDA = 0.5
Info: FEP ELEC. ACTIVE FOR EXNIHILATED PARTICLES BETWEEN LAMBDA = 0.5 AND LAMBDA = 1
Info: FEP VDW ACTIVE FOR ANNIHILATED PARTICLES BETWEEN LAMBDA = 0 AND LAMBDA = 1
Info: FEP VDW ACTIVE FOR EXNIHILATED PARTICLES BETWEEN LAMBDA = 0 AND LAMBDA = 1
Info: FEP BOND ACTIVE FOR ANNIHILATED PARTICLES BETWEEN LAMBDA = 1 AND LAMBDA = 1
Info: FEP BOND ACTIVE FOR EXNIHILATED PARTICLES BETWEEN LAMBDA = 0 AND LAMBDA = 0
Info: LANGEVIN DYNAMICS ACTIVE
Info: LANGEVIN TEMPERATURE   300
Info: LANGEVIN USING BBK INTEGRATOR
Info: LANGEVIN DAMPING COEFFICIENT IS 1 INVERSE PS
Info: LANGEVIN DYNAMICS APPLIED TO HYDROGENS
Info: LANGEVIN PISTON PRESSURE CONTROL ACTIVE
Info:        TARGET PRESSURE IS 1.01325 BAR
Info:     OSCILLATION PERIOD IS 50 FS
Info:             DECAY TIME IS 25 FS
Info:     PISTON TEMPERATURE IS 300 K
Info:       PRESSURE CONTROL IS GROUP-BASED
Info:    INITIAL STRAIN RATE IS -2.82753e-05 -2.82753e-05 -2.82753e-05
Info:       CELL FLUCTUATION IS ISOTROPIC
Info: PARTICLE MESH EWALD (PME) ACTIVE
Info: PME TOLERANCE               1e-06
Info: PME EWALD COEFFICIENT       0.348832
Info: PME INTERPOLATION ORDER     4
Info: PME GRID DIMENSIONS         36 32 32
Info: PME MAXIMUM GRID SPACING    1
Info: PME CALCULATION WILL BE PERFORMED ON GPU
Info: FULL ELECTROSTATIC EVALUATION FREQUENCY      2
Info: USING VERLET I (r-RESPA) MTS SCHEME.
Info: C1 SPLITTING OF LONG RANGE ELECTROSTATICS
Info: PLACING ATOMS IN PATCHES BY HYDROGEN GROUPS
Info: RIGID BONDS TO HYDROGEN : ALL
Info:         ERROR TOLERANCE : 1e-08
Info:          MAX ITERATIONS : 100
Info: RIGID WATER USING SETTLE ALGORITHM
Info: RANDOM NUMBER SEED     1743815331
Info: USE HYDROGEN BONDS?    NO
Info: Using AMBER format force field!
Info: AMBER PARM FILE        mobley_8208692.prmtop
Info: COORDINATE PDB         mobley_8208692.pdb
Info: Exclusions will be read from PARM file!
Info: SCNB (VDW SCALING)     2
Info: USING ARITHMETIC MEAN TO COMBINE L-J SIGMA PARAMETERS
Info: BINARY COORDINATES     mobley_8208692_equil.coor
Info: SUMMARY OF PARAMETERS:
Info: 7 BONDS
Info: 8 ANGLES
Info:   8 HARMONIC
Info:   0 COSINE-BASED
Info: 3 DIHEDRAL
Info: 0 IMPROPER
Info: 0 CROSSTERM
Info: 0 VDW
Info: 15 VDW_PAIRS
Info: 0 NBTHOLE_PAIRS
Info: To read alchdata from file: mobley_8208692.pdb
Info: To read alchflag data from column: 5
Info: STRUCTURE SUMMARY:
Info: 2965 ATOMS
Info: 2966 BONDS
Info: 36 ANGLES
Info: 64 DIHEDRALS
Info: 0 IMPROPERS
Info: 0 CROSSTERMS
Info: 3048 EXCLUSIONS
Info: 2945 RIGID BONDS
Info: ALCH: 0 ATOMS TO DISAPPEAR IN FINAL STATE
Info: ALCH: 22 ATOMS TO APPEAR IN FINAL STATE
Info: 5950 DEGREES OF FREEDOM
Info: 1001 HYDROGEN GROUPS
Info: 3 ATOMS IN LARGEST HYDROGEN GROUP
Info: 1001 MIGRATION GROUPS
Info: 3 ATOMS IN LARGEST MIGRATION GROUP
Info: TOTAL MASS = 18103.4 amu
Info: TOTAL CHARGE = 0.000100007 e
Info: MASS DENSITY = 0.969625 g/cm^3
Info: ATOM DENSITY = 0.0956331 atoms/A^3
Info: ADDED 0 IMPLICIT EXCLUSIONS
Info: NONBONDED TABLE R-SQUARED SPACING: 0.0625
Info: NONBONDED TABLE SIZE: 705 POINTS
Info: REMOVING COM VELOCITY -0.0652594 0.0141758 0.163771
Info: Use 3D box decompostion in PME FFT.
Info: Updated CUDA force table with 4096 elements.
Info: Updated CUDA LJ table with 5 x 5 elements.
Info: Found 21 unique exclusion lists needing 52 bytes
TCL: Running for 1500000 steps
ETITLE: TS BOND ANGLE DIHED IMPRP ELECT VDW BOUNDARY MISC KINETIC TOTAL TEMP POTENTIAL TOTALAVG TEMPAVG PRESSURE GPRESSURE VOLUME PRESSAVG GPRESSAVG
ENERGY: 0 9.0130 1.7110 11.6233 0.0000 -10564.2222 1389.9719 0.0000 0.0000 1735.4810 -7416.4220 293.5576 -9151.9031 -7416.4220 293.5576 -405.5808 -305.7973 31003.9096 -405.5808 -305.7973
ENERGY: 300000 6.8831 3.8387 11.1484 0.0000 -10611.9428 1395.9683 0.0000 0.0000 1768.8191 -7425.2852 299.1967 -9194.1043 -7443.1576 294.7869 -330.3374 -289.0372 30259.8238 -126.1758 -59.5182
ENERGY: 600000 8.3121 2.5134 10.9415 0.0000 -10686.4187 1404.9393 0.0000 0.0000 1752.3724 -7507.3399 296.4148 -9259.7123 -7449.9293 297.7608 -585.0139 -480.3523 30645.9619 -143.9456 -78.2946
ENERGY: 900000 8.0148 4.2985 10.3945 0.0000 -10533.0983 1372.1392 0.0000 0.0000 1852.3610 -7285.8903 313.3279 -9138.2513 -7432.3737 300.2616 -518.8601 -480.8144 30810.4287 -124.7714 -57.6001
ENERGY: 1200000 11.0246 5.1111 14.1828 0.0000 -10641.7418 1390.2161 0.0000 0.0000 1751.8263 -7469.3809 296.3224 -9221.2072 -7442.2944 298.9619 -545.0291 -493.6172 30416.1479 -216.1832 -155.3478
ENERGY: 1500000 6.3804 4.0345 14.2340 0.0000 -10639.7569 1425.1894 0.0000 0.0000 1742.6432 -7447.2754 294.7691 -9189.9185 -7445.0992 298.5037 -403.6376 -385.3192 30778.6780 -230.0923 -172.7283
TCL: Running FEP window   2: Lambda1 0.05   Lambda2 0.1    [dLambda 0.05  ]
TCL: Setting parameter firsttimestep to 0
TCL: Setting parameter alchLambda to 0.05
Info: NONBONDED TABLE R-SQUARED SPACING: 0.0625
Info: NONBONDED TABLE SIZE: 705 POINTS
TCL: Setting parameter alchLambda2 to 0.1
Info: NONBONDED TABLE R-SQUARED SPACING: 0.0625
Info: NONBONDED TABLE SIZE: 705 POINTS
TCL: Running for 1500000 steps
ETITLE: TS BOND ANGLE DIHED IMPRP ELECT VDW BOUNDARY MISC KINETIC TOTAL TEMP POTENTIAL TOTALAVG TEMPAVG PRESSURE GPRESSURE VOLUME PRESSAVG GPRESSAVG
ENERGY: 0 6.3804 4.0345 14.2340 0.0000 -10639.7561 1431.3863 0.0000 0.0000 1741.7709 -7441.9499 294.6215 -9183.7208 -7441.9499 294.6215 -447.2691 -365.0130 30778.6780 -447.2691 -365.0130
ENERGY: 300000 4.6645 3.0053 18.0992 0.0000 -10665.2592 1378.2805 0.0000 0.0000 1749.7345 -7511.4752 295.9685 -9261.2097 -7434.7444 299.4573 -618.0660 -524.0307 30135.3851 -302.2292 -245.3598
ENERGY: 600000 9.2199 4.7458 11.2584 0.0000 -10703.2596 1429.7347 0.0000 0.0000 1740.2234 -7508.0775 294.3598 -9248.3009 -7462.1452 298.0165 -413.7572 -329.3744 30571.5531 -278.6316 -221.9483
ENERGY: 900000 6.7664 6.1913 14.8115 0.0000 -10734.6302 1432.7641 0.0000 0.0000 1700.8354 -7573.2616 287.6972 -9274.0970 -7476.8212 298.5113 -345.4661 -219.2098 30157.3840 -166.1006 -90.2524
ENERGY: 1200000 7.0957 7.9482 12.9363 0.0000 -10769.4889 1499.4458 0.0000 0.0000 1739.8180 -7502.2449 294.2912 -9242.0629 -7482.0642 297.9197 665.1123 744.0425 29973.3722 -38.0670 34.5429
ENERGY: 1500000 4.6865 2.4747 11.5422 0.0000 -10691.7039 1506.4505 0.0000 0.0000 1772.6710 -7393.8789 299.8483 -9166.5499 -7481.2400 297.3649 470.6464 567.5423 30738.2282 -86.9061 -14.8687
TCL: Running FEP window   3: Lambda1 0.1    Lambda2 0.15000000000000002 [dLambda 0.05000000000000002]
TCL: Setting parameter firsttimestep to 0
TCL: Setting parameter alchLambda to 0.1
Info: NONBONDED TABLE R-SQUARED SPACING: 0.0625
Info: NONBONDED TABLE SIZE: 705 POINTS
TCL: Setting parameter alchLambda2 to 0.15000000000000002
Info: NONBONDED TABLE R-SQUARED SPACING: 0.0625
Info: NONBONDED TABLE SIZE: 705 POINTS
TCL: Running for 1500000 steps
ETITLE: TS BOND ANGLE DIHED IMPRP ELECT VDW BOUNDARY MISC KINETIC TOTAL TEMP POTENTIAL TOTALAVG TEMPAVG PRESSURE GPRESSURE VOLUME PRESSAVG GPRESSAVG
ENERGY: 0 4.6865 2.4747 11.5422 0.0000 -10691.7053 1509.7089 0.0000 0.0000 1771.7876 -7391.5054 299.6989 -9163.2930 -7391.5054 299.6989 488.3806 581.5801 30738.2282 488.3806 581.5801
ENERGY: 300000 15.6387 7.7780 15.3651 0.0000 -10623.2636 1382.8121 0.0000 0.0000 1825.3336 -7376.3363 308.7562 -9201.6698 -7431.1077 303.6222 -472.1904 -439.1135 30524.2082 72.1569 140.9097
ENERGY: 600000 7.0791 3.5502 12.5014 0.0000 -10678.3514 1435.0142 0.0000 0.0000 1778.2789 -7441.9276 300.7969 -9220.2065 -7469.1879 298.2468 -273.5691 -161.2335 30497.1802 -48.8222 24.2222
ENERGY: 900000 11.9647 3.4002 10.0232 0.0000 -10573.7063 1389.0218 0.0000 0.0000 1764.7859 -7394.5105 298.5145 -9159.2964 -7462.1334 298.3157 -769.9467 -664.7826 30625.3956 -29.8497 34.1680
ENERGY: 1200000 12.4087 3.5056 13.0153 0.0000 -10771.5654 1456.0899 0.0000 0.0000 1747.8265 -7538.7194 295.6458 -9286.5460 -7471.1832 299.1327 -483.1576 -468.6552 30545.0869 -33.1156 26.3558
ENERGY: 1500000 4.6374 2.9384 10.9702 0.0000 -10488.6114 1343.3628 0.0000 0.0000 1761.4478 -7365.2547 297.9499 -9126.7025 -7466.0189 298.8852 -297.0954 -252.8466 30711.8204 -131.1697 -71.6837
TCL: Running FEP window   4: Lambda1 0.15000000000000002 Lambda2 0.2    [dLambda 0.04999999999999999]
TCL: Setting parameter firsttimestep to 0
TCL: Setting parameter alchLambda to 0.15000000000000002
Info: NONBONDED TABLE R-SQUARED SPACING: 0.0625
Info: NONBONDED TABLE SIZE: 705 POINTS
TCL: Setting parameter alchLambda2 to 0.2
Info: NONBONDED TABLE R-SQUARED SPACING: 0.0625
Info: NONBONDED TABLE SIZE: 705 POINTS
TCL: Running for 1500000 steps
ETITLE: TS BOND ANGLE DIHED IMPRP ELECT VDW BOUNDARY MISC KINETIC TOTAL TEMP POTENTIAL TOTALAVG TEMPAVG PRESSURE GPRESSURE VOLUME PRESSAVG GPRESSAVG
ENERGY: 0 4.6374 2.9384 10.9702 0.0000 -10488.6121 1347.8812 0.0000 0.0000 1760.5608 -7361.6239 297.7998 -9122.1848 -7361.6239 297.7998 -317.6839 -232.3875 30711.8204 -317.6839 -232.3875
ENERGY: 300000 7.2139 4.9361 17.5889 0.0000 -10728.6784 1473.8508 0.0000 0.0000 1741.1990 -7483.8896 294.5248 -9225.0887 -7423.6278 299.1235 64.7712 93.8239 30186.8176 -290.6270 -200.7675
ENERGY: 600000 12.4849 5.0193 12.5135 0.0000 -10639.0067 1359.9886 0.0000 0.0000 1738.6277 -7510.3728 294.0898 -9249.0005 -7459.1388 297.7212 -1046.7948 -1000.6149 30689.9242 -133.6161 -78.0480
ENERGY: 900000 5.3377 2.7335 13.6176 0.0000 -10732.0955 1435.0619 0.0000 0.0000 1734.2799 -7541.0649 293.3544 -9275.3448 -7451.9547 298.9623 -640.7004 -520.0445 30858.7347 -200.0847 -135.6405
ENERGY: 1200000 6.8331 6.1455 14.0192 0.0000 -10832.3623 1580.4558 0.0000 0.0000 1783.1520 -7441.7567 301.6211 -9224.9087 -7442.0679 299.8219 1203.4266 1212.2472 30270.3452 -7.2119 53.7726
ENERGY: 1500000 6.1010 3.4837 13.7013 0.0000 -10687.1756 1390.6237 0.0000 0.0000 1795.3226 -7477.9433 303.6798 -9273.2659 -7447.2935 300.8561 -623.5442 -543.5996 30650.7769 -133.0797 -62.7461
TCL: Running FEP window   5: Lambda1 0.2    Lambda2 0.25   [dLambda 0.04999999999999999]
TCL: Setting parameter firsttimestep to 0
TCL: Setting parameter alchLambda to 0.2
Info: NONBONDED TABLE R-SQUARED SPACING: 0.0625
Info: NONBONDED TABLE SIZE: 705 POINTS
TCL: Setting parameter alchLambda2 to 0.25
Info: NONBONDED TABLE R-SQUARED SPACING: 0.0625
Info: NONBONDED TABLE SIZE: 705 POINTS
TCL: Running for 1500000 steps
ETITLE: TS BOND ANGLE DIHED IMPRP ELECT VDW BOUNDARY MISC KINETIC TOTAL TEMP POTENTIAL TOTALAVG TEMPAVG PRESSURE GPRESSURE VOLUME PRESSAVG GPRESSAVG
ENERGY: 0 6.1010 3.4837 13.7013 0.0000 -10687.1747 1391.2010 0.0000 0.0000 1794.4280 -7478.2597 303.5285 -9272.6877 -7478.2597 303.5285 -608.3902 -533.6819 30650.7769 -608.3902 -533.6819
ENERGY: 300000 6.7864 5.6250 13.2870 0.0000 -10727.0182 1415.7616 0.0000 0.0000 1760.8496 -7524.7087 297.8487 -9285.5582 -7459.4570 302.6255 -126.3238 -112.6633 30258.8088 295.0185 350.5774
ENERGY: 600000 6.2618 3.5463 14.4409 0.0000 -10706.6283 1408.8001 0.0000 0.0000 1810.0461 -7463.5331 306.1703 -9273.5792 -7472.7386 301.0822 -197.7924 -132.0840 30214.7365 284.3367 345.4372
ENERGY: 900000 9.0275 2.4046 14.7820 0.0000 -10584.0222 1324.1110 0.0000 0.0000 1781.9085 -7451.7887 301.4108 -9233.6972 -7472.7206 299.7988 -1136.7152 -1113.2929 30523.4537 52.5190 121.0206
ENERGY: 1200000 3.0150 4.3767 10.8373 0.0000 -10657.4630 1446.2799 0.0000 0.0000 1704.7272 -7488.2269 288.3555 -9192.9541 -7462.7313 299.6878 238.2850 278.8387 30487.0289 140.2976 210.5242
ENERGY: 1500000 3.5519 8.2135 12.6864 0.0000 -10693.3186 1390.0318 0.0000 0.0000 1758.2745 -7520.5606 297.4131 -9278.8351 -7460.8247 298.9741 -376.8744 -331.4277 30331.7897 29.4491 101.3196
TCL: Running FEP window   6: Lambda1 0.25   Lambda2 0.3    [dLambda 0.04999999999999999]
TCL: Setting parameter firsttimestep to 0
TCL: Setting parameter alchLambda to 0.25
Info: NONBONDED TABLE R-SQUARED SPACING: 0.0625
Info: NONBONDED TABLE SIZE: 705 POINTS
TCL: Setting parameter alchLambda2 to 0.3
Info: NONBONDED TABLE R-SQUARED SPACING: 0.0625
Info: NONBONDED TABLE SIZE: 705 POINTS
TCL: Running for 1500000 steps
ETITLE: TS BOND ANGLE DIHED IMPRP ELECT VDW BOUNDARY MISC KINETIC TOTAL TEMP POTENTIAL TOTALAVG TEMPAVG PRESSURE GPRESSURE VOLUME PRESSAVG GPRESSAVG
ENERGY: 0 3.5519 8.2135 12.6864 0.0000 -10693.3191 1390.3681 0.0000 0.0000 1757.3565 -7521.1428 297.2578 -9278.4993 -7521.1428 297.2578 -411.0300 -322.4297 30331.7897 -411.0300 -322.4297
ENERGY: 300000 6.6072 4.0920 11.4551 0.0000 -10520.8363 1276.7967 0.0000 0.0000 1810.9084 -7410.9769 306.3161 -9221.8853 -7488.3604 300.6614 -1153.9674 -1073.1217 30382.8627 -433.1537 -382.1272
ENERGY: 600000 3.1550 5.7154 15.5469 0.0000 -10614.6734 1431.8585 0.0000 0.0000 1788.8887 -7369.5088 302.5915 -9158.3975 -7459.9111 300.6919 -110.6453 -68.0553 31085.7839 -243.5244 -172.0760
ENERGY: 900000 5.9113 5.1891 12.3625 0.0000 -10770.6403 1460.4011 0.0000 0.0000 1795.6745 -7491.1017 303.7393 -9286.7763 -7463.1467 300.7745 -33.9053 -40.7230 30787.5917 -202.1278 -149.4897
ENERGY: 1200000 4.7939 4.6100 11.2312 0.0000 -10603.3863 1342.5928 0.0000 0.0000 1765.7932 -7474.3652 298.6849 -9240.1584 -7464.6555 298.8247 -677.9371 -643.5539 30538.1428 -180.0277 -130.3658
ENERGY: 1500000 9.6461 7.1150 14.3033 0.0000 -10760.7045 1459.2368 0.0000 0.0000 1766.0097 -7504.3937 298.7215 -9270.4034 -7469.2469 299.6008 143.3246 178.7677 30301.9289 -186.7631 -129.8748
TCL: Running FEP window   7: Lambda1 0.3    Lambda2 0.35   [dLambda 0.04999999999999999]
TCL: Setting parameter firsttimestep to 0
TCL: Setting parameter alchLambda to 0.3
Info: NONBONDED TABLE R-SQUARED SPACING: 0.0625
Info: NONBONDED TABLE SIZE: 705 POINTS
TCL: Setting parameter alchLambda2 to 0.35
Info: NONBONDED TABLE R-SQUARED SPACING: 0.0625
Info: NONBONDED TABLE SIZE: 705 POINTS
TCL: Running for 1500000 steps
ETITLE: TS BOND ANGLE DIHED IMPRP ELECT VDW BOUNDARY MISC KINETIC TOTAL TEMP POTENTIAL TOTALAVG TEMPAVG PRESSURE GPRESSURE VOLUME PRESSAVG GPRESSAVG
ENERGY: 0 9.6461 7.1150 14.3033 0.0000 -10760.7040 1458.4295 0.0000 0.0000 1765.1078 -7506.1025 298.5690 -9271.2102 -7506.1025 298.5690 97.2795 180.6338 30301.9289 97.2795 180.6338
ENERGY: 300000 8.6246 4.0677 10.9012 0.0000 -10700.0627 1469.0549 0.0000 0.0000 1785.3058 -7422.1085 301.9855 -9207.4143 -7469.5013 299.3612 32.6942 83.7771 30556.6926 -7.4715 45.7981
ENERGY: 600000 7.2514 4.9169 14.4370 0.0000 -10848.4066 1476.9086 0.0000 0.0000 1834.1945 -7510.6981 310.2550 -9344.8926 -7479.8686 299.7796 58.7228 152.4333 30560.0220 -34.8955 28.6786
ENERGY: 900000 7.6321 6.6056 15.3982 0.0000 -10658.5518 1405.2316 0.0000 0.0000 1835.4285 -7388.2557 310.4638 -9223.6843 -7457.3016 301.2013 -224.9691 -180.5412 30310.4289 -52.1877 8.9075
ENERGY: 1200000 7.5173 6.2684 12.5552 0.0000 -10846.8790 1543.7326 0.0000 0.0000 1737.9728 -7538.8326 293.9791 -9276.8054 -7474.7745 299.2895 258.5276 328.8744 30776.2318 -22.3683 44.3067
ENERGY: 1500000 5.2528 7.1750 13.8601 0.0000 -10687.1195 1403.0657 0.0000 0.0000 1816.2522 -7441.5136 307.2201 -9257.7658 -7466.3720 300.0848 -146.1953 -20.7424 30387.7474 22.9549 93.1885
TCL: Running FEP window   8: Lambda1 0.35   Lambda2 0.39999999999999997 [dLambda 0.04999999999999999]
TCL: Setting parameter firsttimestep to 0
TCL: Setting parameter alchLambda to 0.35
Info: NONBONDED TABLE R-SQUARED SPACING: 0.0625
Info: NONBONDED TABLE SIZE: 705 POINTS
TCL: Setting parameter alchLambda2 to 0.39999999999999997
Info: NONBONDED TABLE R-SQUARED SPACING: 0.0625
Info: NONBONDED TABLE SIZE: 705 POINTS
TCL: Running for 1500000 steps
ETITLE: TS BOND ANGLE DIHED IMPRP ELECT VDW BOUNDARY MISC KINETIC TOTAL TEMP POTENTIAL TOTALAVG TEMPAVG PRESSURE GPRESSURE VOLUME PRESSAVG GPRESSAVG
ENERGY: 0 5.2528 7.1750 13.8601 0.0000 -10687.1210 1404.0232 0.0000 0.0000 1815.3380 -7441.4719 307.0654 -9256.8099 -7441.4719 307.0654 -115.3802 -3.4224 30387.7474 -115.3802 -3.4224
ENERGY: 300000 6.8762 5.0605 13.9363 0.0000 -10701.7335 1435.4058 0.0000 0.0000 1765.6860 -7474.7688 298.6668 -9240.4548 -7463.6572 300.7820 -433.7149 -365.8261 30910.0719 38.2143 138.9060
ENERGY: 600000 7.7556 3.4486 17.8670 0.0000 -10853.5565 1526.0089 0.0000 0.0000 1756.6962 -7541.7802 297.1461 -9298.4764 -7488.7143 299.2860 401.5932 453.8787 30702.9457 -156.7048 -74.6806
ENERGY: 900000 8.2189 6.1365 14.6836 0.0000 -10637.8120 1353.8389 0.0000 0.0000 1763.6187 -7491.3154 298.3171 -9254.9341 -7496.3762 299.1499 -499.3898 -441.5085 30180.7501 -217.6084 -146.2463
ENERGY: 1200000 7.4261 2.9747 11.2296 0.0000 -10652.8502 1439.5401 0.0000 0.0000 1783.7085 -7407.9711 301.7153 -9191.6796 -7485.4978 298.7453 -23.1281 61.4195 30913.7319 -194.4523 -125.2398
ENERGY: 1500000 5.1843 6.0635 12.3632 0.0000 -10830.7289 1548.7281 0.0000 0.0000 1764.8643 -7493.5255 298.5278 -9258.3899 -7486.9018 299.1867 881.1396 928.5453 30470.9509 -41.4846 24.1104
TCL: Running FEP window   9: Lambda1 0.39999999999999997 Lambda2 0.44999999999999996 [dLambda 0.04999999999999999]
TCL: Setting parameter firsttimestep to 0
TCL: Setting parameter alchLambda to 0.39999999999999997
Info: NONBONDED TABLE R-SQUARED SPACING: 0.0625
Info: NONBONDED TABLE SIZE: 705 POINTS
TCL: Setting parameter alchLambda2 to 0.44999999999999996
Info: NONBONDED TABLE R-SQUARED SPACING: 0.0625
Info: NONBONDED TABLE SIZE: 705 POINTS
TCL: Running for 1500000 steps
ETITLE: TS BOND ANGLE DIHED IMPRP ELECT VDW BOUNDARY MISC KINETIC TOTAL TEMP POTENTIAL TOTALAVG TEMPAVG PRESSURE GPRESSURE VOLUME PRESSAVG GPRESSAVG
ENERGY: 0 5.1843 6.0635 12.3632 0.0000 -10830.7283 1548.3690 0.0000 0.0000 1764.0125 -7494.7358 298.3837 -9258.7483 -7494.7358 298.3837 841.7650 937.0324 30470.9509 841.7650 937.0324
ENERGY: 300000 10.2594 4.8416 14.2511 0.0000 -10653.1704 1369.7784 0.0000 0.0000 1795.3165 -7458.7232 303.6788 -9254.0397 -7454.8426 305.2524 -1050.1184 -1029.1179 31356.6074 170.1370 235.6151
ENERGY: 600000 6.6610 3.3068 13.9621 0.0000 -10701.4307 1488.9000 0.0000 0.0000 1785.4325 -7403.1682 302.0069 -9188.6007 -7433.6077 304.3818 609.7550 687.9410 30712.9822 252.9413 322.1086
ENERGY: 900000 5.7218 5.0286 12.5505 0.0000 -10789.4467 1440.6377 0.0000 0.0000 1779.2892 -7546.2189 300.9678 -9325.5081 -7456.0242 303.2652 -160.7528 -140.2424 30277.8651 280.3488 345.8058
ENERGY: 1200000 8.6647 6.4951 13.5037 0.0000 -10692.4729 1412.9481 0.0000 0.0000 1825.4209 -7425.4404 308.7710 -9250.8613 -7460.3940 303.7192 -313.5513 -308.0529 30699.3565 130.0878 191.5688
ENERGY: 1500000 8.1380 4.8415 13.3598 0.0000 -10679.7509 1459.9707 0.0000 0.0000 1811.5271 -7381.9138 306.4208 -9193.4409 -7445.2783 304.2586 154.9781 205.3021 31122.5182 157.9788 211.3444
TCL: Running FEP window  10: Lambda1 0.44999999999999996 Lambda2 0.49999999999999994 [dLambda 0.04999999999999999]
TCL: Setting parameter firsttimestep to 0
TCL: Setting parameter alchLambda to 0.44999999999999996
Info: NONBONDED TABLE R-SQUARED SPACING: 0.0625
Info: NONBONDED TABLE SIZE: 705 POINTS
TCL: Setting parameter alchLambda2 to 0.49999999999999994
Info: NONBONDED TABLE R-SQUARED SPACING: 0.0625
Info: NONBONDED TABLE SIZE: 705 POINTS
TCL: Running for 1500000 steps
ETITLE: TS BOND ANGLE DIHED IMPRP ELECT VDW BOUNDARY MISC KINETIC TOTAL TEMP POTENTIAL TOTALAVG TEMPAVG PRESSURE GPRESSURE VOLUME PRESSAVG GPRESSAVG
ENERGY: 0 8.1379 4.8415 13.3598 0.0000 -10679.7509 1460.2417 0.0000 0.0000 1810.6514 -7382.5186 306.2727 -9193.1700 -7382.5186 306.2727 136.0401 216.9677 31122.5182 136.0401 216.9677
ENERGY: 300000 7.4813 6.1606 15.3247 0.0000 -10691.9058 1480.4072 0.0000 0.0000 1823.5568 -7358.9751 308.4556 -9182.5320 -7436.4574 300.5048 723.0131 754.4337 30503.7652 317.8197 358.3170
ENERGY: 600000 9.6564 3.1876 13.5974 0.0000 -10656.1127 1430.3340 0.0000 0.0000 1695.0854 -7504.2519 286.7246 -9199.3373 -7455.1761 299.1083 -376.7992 -270.2507 31006.5118 176.7748 224.2190
ENERGY: 900000 8.2745 10.2298 12.2517 0.0000 -10530.9061 1311.9925 0.0000 0.0000 1769.9252 -7418.2324 299.3838 -9188.1576 -7461.3512 298.8493 -756.7327 -646.2618 30589.5149 -11.5194 41.8348
ENERGY: 1200000 9.2610 5.0899 11.4595 0.0000 -10783.7032 1511.6945 0.0000 0.0000 1762.7549 -7483.4434 298.1710 -9246.1983 -7442.7387 300.6892 574.3350 616.4280 30433.8076 82.5826 136.0471
ENERGY: 1500000 4.3590 2.6995 12.2060 0.0000 -10736.4468 1406.9365 0.0000 0.0000 1721.5131 -7588.7328 291.1949 -9310.2458 -7458.0219 299.3846 -400.6755 -317.9418 30564.6831 99.5542 153.7989
TCL: Running FEP window  11: Lambda1 0.49999999999999994 Lambda2 0.5499999999999999 [dLambda 0.04999999999999999]
TCL: Setting parameter firsttimestep to 0
TCL: Setting parameter alchLambda to 0.49999999999999994
Info: NONBONDED TABLE R-SQUARED SPACING: 0.0625
Info: NONBONDED TABLE SIZE: 705 POINTS
TCL: Setting parameter alchLambda2 to 0.5499999999999999
Info: NONBONDED TABLE R-SQUARED SPACING: 0.0625
Info: NONBONDED TABLE SIZE: 705 POINTS
TCL: Running for 1500000 steps
ETITLE: TS BOND ANGLE DIHED IMPRP ELECT VDW BOUNDARY MISC KINETIC TOTAL TEMP POTENTIAL TOTALAVG TEMPAVG PRESSURE GPRESSURE VOLUME PRESSAVG GPRESSAVG
ENERGY: 0 4.3590 2.6995 12.2060 0.0000 -10736.4479 1406.1814 0.0000 0.0000 1720.6695 -7590.3325 291.0522 -9311.0021 -7590.3325 291.0522 -407.2794 -314.5820 30564.6831 -407.2794 -314.5820
ENERGY: 300000 5.4717 2.7450 12.2472 0.0000 -10583.8896 1371.1287 0.0000 0.0000 1763.2538 -7429.0432 298.2554 -9192.2970 -7478.4420 299.2847 -590.8529 -434.0186 30789.1660 -248.5379 -148.2631
ENERGY: 600000 10.5298 4.8919 14.0006 0.0000 -10632.2615 1423.9115 0.0000 0.0000 1735.0092 -7443.9185 293.4778 -9178.9277 -7481.3856 298.3105 -191.9559 -133.5946 30605.3635 -403.3173 -314.4050
ENERGY: 900000 4.7617 5.6152 11.1080 0.0000 -10708.8802 1413.1120 0.0000 0.0000 1832.1193 -7442.1640 309.9040 -9274.2834 -7470.3358 300.4547 -259.2488 -216.2575 30641.8476 -375.8739 -291.0602
ENERGY: 1200000 6.5367 3.3336 9.7895 0.0000 -10787.4550 1522.0255 0.0000 0.0000 1717.9652 -7527.8045 290.5948 -9245.7697 -7469.5184 300.2738 583.9334 691.3691 30359.4729 -205.5569 -128.1217
ENERGY: 1500000 7.2806 6.9484 13.4652 0.0000 -10785.9306 1570.4992 0.0000 0.0000 1760.2206 -7427.5165 297.7423 -9187.7371 -7470.1614 299.5202 864.7144 955.1089 30719.3566 -167.8858 -88.9010
TCL: Running FEP window  12: Lambda1 0.5499999999999999 Lambda2 0.6    [dLambda 0.050000000000000044]
TCL: Setting parameter firsttimestep to 0
TCL: Setting parameter alchLambda to 0.5499999999999999
Info: NONBONDED TABLE R-SQUARED SPACING: 0.0625
Info: NONBONDED TABLE SIZE: 705 POINTS
TCL: Setting parameter alchLambda2 to 0.6
Info: NONBONDED TABLE R-SQUARED SPACING: 0.0625
Info: NONBONDED TABLE SIZE: 705 POINTS
TCL: Running for 1500000 steps
ETITLE: TS BOND ANGLE DIHED IMPRP ELECT VDW BOUNDARY MISC KINETIC TOTAL TEMP POTENTIAL TOTALAVG TEMPAVG PRESSURE GPRESSURE VOLUME PRESSAVG GPRESSAVG
ENERGY: 0 7.2806 6.9484 13.4652 0.0000 -10785.6423 1569.7024 0.0000 0.0000 1759.3696 -7428.8761 297.5983 -9188.2457 -7428.8761 297.5983 881.3110 958.6470 30719.3566 881.3110 958.6470
ENERGY: 300000 7.6875 3.5032 13.1950 0.0000 -10723.0203 1452.6286 0.0000 0.0000 1745.4341 -7500.5718 295.2411 -9246.0059 -7468.8048 296.2438 -261.7818 -193.5875 31157.5044 290.1832 346.6487
ENERGY: 600000 4.5111 3.3621 10.4958 0.0000 -10709.8413 1407.8600 0.0000 0.0000 1766.1975 -7517.4147 298.7533 -9283.6123 -7481.5630 298.8598 -125.2314 -102.8876 30675.2542 217.8758 256.9596
ENERGY: 900000 7.6711 5.7276 12.1775 0.0000 -10643.9048 1361.7055 0.0000 0.0000 1755.8217 -7500.8013 296.9982 -9256.6230 -7479.9631 299.7061 -651.4550 -558.1392 30637.1596 91.5866 137.4253
ENERGY: 1200000 4.8991 3.0566 10.8096 0.0000 -10726.5931 1446.2652 0.0000 0.0000 1755.3057 -7506.2568 296.9109 -9261.5625 -7478.6513 299.6634 268.0179 299.3990 30597.7565 22.9909 76.4971
ENERGY: 1500000 8.0818 3.2451 9.1685 0.0000 -10619.8183 1404.9489 0.0000 0.0000 1762.0136 -7432.3604 298.0456 -9194.3741 -7471.8125 299.8852 -109.0713 -34.9934 30582.5119 13.7851 66.4366
TCL: Running FEP window  13: Lambda1 0.6    Lambda2 0.65   [dLambda 0.050000000000000044]
TCL: Setting parameter firsttimestep to 0
TCL: Setting parameter alchLambda to 0.6
Info: NONBONDED TABLE R-SQUARED SPACING: 0.0625
Info: NONBONDED TABLE SIZE: 705 POINTS
TCL: Setting parameter alchLambda2 to 0.65
Info: NONBONDED TABLE R-SQUARED SPACING: 0.0625
Info: NONBONDED TABLE SIZE: 705 POINTS
TCL: Running for 1500000 steps
ETITLE: TS BOND ANGLE DIHED IMPRP ELECT VDW BOUNDARY MISC KINETIC TOTAL TEMP POTENTIAL TOTALAVG TEMPAVG PRESSURE GPRESSURE VOLUME PRESSAVG GPRESSAVG
ENERGY: 0 8.0818 3.2451 9.1685 0.0000 -10619.6937 1405.6700 0.0000 0.0000 1761.1473 -7432.3810 297.8990 -9193.5283 -7432.3810 297.8990 -114.5157 -12.8674 30582.5119 -114.5157 -12.8674
ENERGY: 300000 9.2862 2.8145 12.9187 0.0000 -10816.0654 1475.0194 0.0000 0.0000 1769.1125 -7546.9140 299.2464 -9316.0266 -7488.6422 300.2048 44.9145 128.5076 30590.3761 -60.7785 27.9088
ENERGY: 600000 7.9933 3.3705 15.2684 0.0000 -10814.8503 1507.7371 0.0000 0.0000 1770.2876 -7510.1933 299.4451 -9280.4809 -7490.1021 299.7797 485.1153 552.6814 29984.1471 167.7807 252.3485
ENERGY: 900000 8.5433 2.9766 13.0849 0.0000 -10617.9190 1430.7582 0.0000 0.0000 1798.6314 -7363.9245 304.2395 -9162.5560 -7481.7931 300.7755 90.6959 136.5511 30932.5649 80.5468 156.9902
ENERGY: 1200000 7.0376 4.9253 15.0895 0.0000 -10589.9818 1360.4894 0.0000 0.0000 1764.9145 -7437.5254 298.5363 -9202.4399 -7487.5065 299.9533 -390.8464 -269.8619 30610.7296 37.4281 112.0879
ENERGY: 1500000 10.3213 3.1052 14.8390 0.0000 -10725.4018 1474.6373 0.0000 0.0000 1771.6361 -7450.8630 299.6732 -9222.4991 -7490.1855 299.5625 217.7400 327.4813 30749.5239 -16.7038 59.8010
TCL: Running FEP window  14: Lambda1 0.65   Lambda2 0.7000000000000001 [dLambda 0.050000000000000044]
TCL: Setting parameter firsttimestep to 0
TCL: Setting parameter alchLambda to 0.65
Info: NONBONDED TABLE R-SQUARED SPACING: 0.0625
Info: NONBONDED TABLE SIZE: 705 POINTS
TCL: Setting parameter alchLambda2 to 0.7000000000000001
Info: NONBONDED TABLE R-SQUARED SPACING: 0.0625
Info: NONBONDED TABLE SIZE: 705 POINTS
TCL: Running for 1500000 steps
ETITLE: TS BOND ANGLE DIHED IMPRP ELECT VDW BOUNDARY MISC KINETIC TOTAL TEMP POTENTIAL TOTALAVG TEMPAVG PRESSURE GPRESSURE VOLUME PRESSAVG GPRESSAVG
ENERGY: 0 10.3213 3.1052 14.8390 0.0000 -10725.5404 1474.1282 0.0000 0.0000 1770.7879 -7452.3589 299.5297 -9223.1467 -7452.3589 299.5297 248.8722 338.3255 30749.5239 248.8722 338.3255
ENERGY: 300000 9.0663 8.1134 14.7565 0.0000 -10775.2989 1502.7974 0.0000 0.0000 1811.1793 -7429.3859 306.3620 -9240.5652 -7444.0136 302.0003 315.6115 361.2849 30872.7488 34.8256 92.3339
ENERGY: 600000 7.8184 4.9069 17.6337 0.0000 -10747.3737 1465.7723 0.0000 0.0000 1801.6354 -7449.6070 304.7476 -9251.2424 -7452.7853 301.6931 273.1098 319.3859 30625.5688 1.5968 60.3097
ENERGY: 900000 7.8185 2.5118 13.9859 0.0000 -10731.0810 1424.5529 0.0000 0.0000 1747.4484 -7534.7635 295.5819 -9282.2119 -7463.5882 301.6012 -434.1784 -403.4623 30792.2108 -169.0861 -112.5382
ENERGY: 1200000 6.7693 2.0675 12.3990 0.0000 -10792.0063 1456.6832 0.0000 0.0000 1776.0213 -7538.0660 300.4150 -9314.0873 -7465.3118 301.3316 159.6067 194.7308 30288.2682 -82.7002 -24.2857
ENERGY: 1500000 6.8087 7.1543 13.3687 0.0000 -10793.4369 1479.3539 0.0000 0.0000 1760.9673 -7525.7841 297.8686 -9286.7513 -7469.5976 300.0531 396.2993 424.8373 30518.4381 13.9343 74.1799
TCL: Running FEP window  15: Lambda1 0.7000000000000001 Lambda2 0.7500000000000001 [dLambda 0.050000000000000044]
TCL: Setting parameter firsttimestep to 0
TCL: Setting parameter alchLambda to 0.7000000000000001
Info: NONBONDED TABLE R-SQUARED SPACING: 0.0625
Info: NONBONDED TABLE SIZE: 705 POINTS
TCL: Setting parameter alchLambda2 to 0.7500000000000001
Info: NONBONDED TABLE R-SQUARED SPACING: 0.0625
Info: NONBONDED TABLE SIZE: 705 POINTS
TCL: Running for 1500000 steps
ETITLE: TS BOND ANGLE DIHED IMPRP ELECT VDW BOUNDARY MISC KINETIC TOTAL TEMP POTENTIAL TOTALAVG TEMPAVG PRESSURE GPRESSURE VOLUME PRESSAVG GPRESSAVG
ENERGY: 0 6.8087 7.1543 13.3687 0.0000 -10793.5060 1478.4075 0.0000 0.0000 1760.1225 -7527.6444 297.7257 -9287.7669 -7527.6444 297.7257 347.1968 431.4191 30518.4381 347.1968 431.4191
ENERGY: 300000 7.0900 2.7444 13.0045 0.0000 -10728.9517 1455.0637 0.0000 0.0000 1770.4649 -7480.5843 299.4751 -9251.0491 -7489.4942 299.8351 0.4129 85.0641 30590.4581 -38.5348 29.6503
ENERGY: 600000 8.4525 2.7114 13.1934 0.0000 -10620.6270 1395.1359 0.0000 0.0000 1859.2805 -7341.8533 314.4983 -9201.1338 -7456.4110 302.3535 -51.7377 15.0801 30709.7443 -81.3072 -0.3404
ENERGY: 900000 5.6015 5.7876 11.0477 0.0000 -10788.3157 1509.1183 0.0000 0.0000 1791.1166 -7465.6440 302.9684 -9256.7606 -7463.9585 301.5802 634.7789 691.7439 30472.4731 -6.0344 72.9565
ENERGY: 1200000 4.3166 5.1005 13.8797 0.0000 -10649.1840 1397.0745 0.0000 0.0000 1768.0523 -7460.7604 299.0670 -9228.8127 -7454.2224 302.6199 -57.7267 50.5303 30228.1456 31.9652 114.6113
ENERGY: 1500000 5.3798 5.8839 16.3240 0.0000 -10836.8813 1544.6855 0.0000 0.0000 1803.2375 -7461.3706 305.0186 -9264.6081 -7460.1415 302.7653 1089.4170 1053.8854 30560.4641 120.3016 184.7207
TCL: Running FEP window  16: Lambda1 0.7500000000000001 Lambda2 0.8000000000000002 [dLambda 0.050000000000000044]
TCL: Setting parameter firsttimestep to 0
TCL: Setting parameter alchLambda to 0.7500000000000001
Info: NONBONDED TABLE R-SQUARED SPACING: 0.0625
Info: NONBONDED TABLE SIZE: 705 POINTS
TCL: Setting parameter alchLambda2 to 0.8000000000000002
Info: NONBONDED TABLE R-SQUARED SPACING: 0.0625
Info: NONBONDED TABLE SIZE: 705 POINTS
TCL: Running for 1500000 steps
ETITLE: TS BOND ANGLE DIHED IMPRP ELECT VDW BOUNDARY MISC KINETIC TOTAL TEMP POTENTIAL TOTALAVG TEMPAVG PRESSURE GPRESSURE VOLUME PRESSAVG GPRESSAVG
ENERGY: 0 5.3798 5.8839 16.3240 0.0000 -10836.9229 1543.6220 0.0000 0.0000 1802.3527 -7463.3605 304.8689 -9265.7132 -7463.3605 304.8689 982.6357 1057.2140 30560.4641 982.6357 1057.2140
ENERGY: 300000 8.2781 6.8421 10.5069 0.0000 -10831.4734 1533.6000 0.0000 0.0000 1812.0351 -7460.2112 306.5067 -9272.2463 -7441.3571 302.6297 721.9499 804.9333 30699.2072 219.7685 289.6501
ENERGY: 600000 8.7077 3.9906 12.9695 0.0000 -10696.4635 1444.3785 0.0000 0.0000 1803.9996 -7422.4177 305.1475 -9226.4172 -7431.0498 304.7699 -223.8632 -184.8083 31141.2475 142.0390 191.2621
ENERGY: 900000 5.3312 5.2773 12.4798 0.0000 -10634.5007 1403.4749 0.0000 0.0000 1752.2805 -7455.6569 296.3992 -9207.9374 -7443.2466 302.9847 -244.9475 -207.9824 30818.5180 26.4904 76.3101
ENERGY: 1200000 5.9536 6.8003 11.6982 0.0000 -10538.1459 1310.1048 0.0000 0.0000 1795.7218 -7407.8673 303.7473 -9203.5891 -7431.6071 302.9678 -501.3466 -459.5380 30466.5059 -22.4317 24.8872
ENERGY: 1500000 6.1004 4.4740 13.9537 0.0000 -10783.4237 1425.1669 0.0000 0.0000 1809.1219 -7524.6068 306.0140 -9333.7288 -7425.8772 303.4387 -337.0053 -213.4704 30610.0528 -106.2601 -48.5297
TCL: Running FEP window  17: Lambda1 0.8000000000000002 Lambda2 0.8500000000000002 [dLambda 0.050000000000000044]
TCL: Setting parameter firsttimestep to 0
TCL: Setting parameter alchLambda to 0.8000000000000002
Info: NONBONDED TABLE R-SQUARED SPACING: 0.0625
Info: NONBONDED TABLE SIZE: 705 POINTS
TCL: Setting parameter alchLambda2 to 0.8500000000000002
Info: NONBONDED TABLE R-SQUARED SPACING: 0.0625
Info: NONBONDED TABLE SIZE: 705 POINTS
TCL: Running for 1500000 steps
ETITLE: TS BOND ANGLE DIHED IMPRP ELECT VDW BOUNDARY MISC KINETIC TOTAL TEMP POTENTIAL TOTALAVG TEMPAVG PRESSURE GPRESSURE VOLUME PRESSAVG GPRESSAVG
ENERGY: 0 6.1004 4.4740 13.9537 0.0000 -10783.6724 1425.2838 0.0000 0.0000 1808.2330 -7525.6275 305.8636 -9333.8605 -7525.6275 305.8636 -285.4902 -188.3587 30610.0528 -285.4902 -188.3587
ENERGY: 300000 8.4589 6.5344 12.0785 0.0000 -10724.4298 1491.0798 0.0000 0.0000 1751.3234 -7454.9549 296.2373 -9206.2782 -7434.6133 303.4141 957.5325 983.2643 30402.4906 204.4218 251.0834
ENERGY: 600000 7.8709 4.9493 13.4870 0.0000 -10697.7275 1461.6797 0.0000 0.0000 1774.0397 -7435.7009 300.0798 -9209.7405 -7438.1328 302.2739 363.9699 396.0123 30682.4916 141.8227 186.1516
ENERGY: 900000 4.4423 4.8265 12.2232 0.0000 -10679.4794 1325.8069 0.0000 0.0000 1734.9228 -7597.2577 293.4631 -9332.1805 -7453.0048 301.7151 -1143.4417 -1027.3854 30662.6284 42.5943 104.4968
ENERGY: 1200000 6.6191 6.6560 10.7723 0.0000 -10781.2120 1504.0012 0.0000 0.0000 1754.0084 -7499.1550 296.6915 -9253.1634 -7464.5061 299.9055 710.7637 810.2603 30292.5048 35.9804 102.1817
ENERGY: 1500000 4.3114 3.8542 12.5876 0.0000 -10723.8721 1440.1239 0.0000 0.0000 1811.7554 -7451.2397 306.4594 -9262.9951 -7457.1623 300.7564 -115.9668 -43.4957 30925.1328 89.9771 153.5840
TCL: Running FEP window  18: Lambda1 0.8500000000000002 Lambda2 0.9000000000000002 [dLambda 0.050000000000000044]
TCL: Setting parameter firsttimestep to 0
TCL: Setting parameter alchLambda to 0.8500000000000002
Info: NONBONDED TABLE R-SQUARED SPACING: 0.0625
Info: NONBONDED TABLE SIZE: 705 POINTS
TCL: Setting parameter alchLambda2 to 0.9000000000000002
Info: NONBONDED TABLE R-SQUARED SPACING: 0.0625
Info: NONBONDED TABLE SIZE: 705 POINTS
TCL: Running for 1500000 steps
ETITLE: TS BOND ANGLE DIHED IMPRP ELECT VDW BOUNDARY MISC KINETIC TOTAL TEMP POTENTIAL TOTALAVG TEMPAVG PRESSURE GPRESSURE VOLUME PRESSAVG GPRESSAVG
ENERGY: 0 4.3114 3.8542 12.5876 0.0000 -10724.1691 1440.6773 0.0000 0.0000 1810.8887 -7451.8500 306.3128 -9262.7387 -7451.8500 306.3128 -106.5301 -18.6576 30925.1328 -106.5301 -18.6576
ENERGY: 300000 3.6001 5.1739 12.6366 0.0000 -10624.9649 1384.0213 0.0000 0.0000 1846.7219 -7372.8112 312.3740 -9219.5331 -7416.1000 309.9540 -116.9940 -108.7601 30775.4920 45.8150 103.2758
ENERGY: 600000 6.2985 8.7912 11.5806 0.0000 -10577.5248 1324.3454 0.0000 0.0000 1764.5033 -7462.0058 298.4667 -9226.5091 -7421.7511 304.0414 -981.0908 -882.1128 30860.2007 -134.3316 -79.1882
ENERGY: 900000 8.2089 5.1602 13.3986 0.0000 -10559.4059 1386.2918 0.0000 0.0000 1723.5901 -7422.7563 291.5462 -9146.3464 -7422.3620 303.5575 -188.9249 -141.2744 31020.7235 -133.2119 -78.2521
ENERGY: 1200000 6.8026 4.5655 12.9799 0.0000 -10688.1450 1407.9339 0.0000 0.0000 1757.6674 -7498.1958 297.3104 -9255.8632 -7444.1166 302.5214 -135.3664 -38.6964 30709.3549 -160.0974 -103.9512
ENERGY: 1500000 6.1715 2.0561 14.5605 0.0000 -10651.3620 1397.6945 0.0000 0.0000 1766.5726 -7464.3067 298.8167 -9230.8793 -7458.9375 301.4248 -499.5661 -396.1919 30845.5877 -179.7519 -116.0688
TCL: Running FEP window  19: Lambda1 0.9000000000000002 Lambda2 0.9500000000000003 [dLambda 0.050000000000000044]
TCL: Setting parameter firsttimestep to 0
TCL: Setting parameter alchLambda to 0.9000000000000002
Info: NONBONDED TABLE R-SQUARED SPACING: 0.0625
Info: NONBONDED TABLE SIZE: 705 POINTS
TCL: Setting parameter alchLambda2 to 0.9500000000000003
Info: NONBONDED TABLE R-SQUARED SPACING: 0.0625
Info: NONBONDED TABLE SIZE: 705 POINTS
TCL: Running for 1500000 steps
ETITLE: TS BOND ANGLE DIHED IMPRP ELECT VDW BOUNDARY MISC KINETIC TOTAL TEMP POTENTIAL TOTALAVG TEMPAVG PRESSURE GPRESSURE VOLUME PRESSAVG GPRESSAVG
ENERGY: 0 6.1715 2.0561 14.5605 0.0000 -10651.8810 1396.8110 0.0000 0.0000 1765.6482 -7466.6336 298.6604 -9232.2818 -7466.6336 298.6604 -470.6277 -385.1905 30845.5877 -470.6277 -385.1905
ENERGY: 300000 4.0815 3.6772 12.2282 0.0000 -10675.1869 1451.4851 0.0000 0.0000 1752.5455 -7451.1694 296.4440 -9203.7149 -7460.1064 297.9094 477.9927 550.8132 30561.2894 -28.5547 37.7232
ENERGY: 600000 5.4958 6.3117 14.2848 0.0000 -10664.4036 1399.4681 0.0000 0.0000 1756.3330 -7482.5102 297.0847 -9238.8432 -7471.2705 298.6355 -209.9913 -171.8316 30453.6174 -157.4303 -97.0936
ENERGY: 900000 4.2160 4.6153 12.7496 0.0000 -10653.2723 1378.8188 0.0000 0.0000 1831.2239 -7421.6487 309.7525 -9252.8726 -7464.1819 300.1225 106.5447 187.8003 30101.0472 -213.8817 -148.2318
ENERGY: 1200000 6.9692 4.4034 14.2467 0.0000 -10661.5628 1436.6583 0.0000 0.0000 1770.9845 -7428.3008 299.5630 -9199.2853 -7465.8912 300.6453 146.9935 252.9412 30635.1280 -68.4338 5.4480
ENERGY: 1500000 8.1074 4.5856 12.6647 0.0000 -10863.9701 1501.5820 0.0000 0.0000 1760.3459 -7576.6844 297.7635 -9337.0302 -7471.0218 300.2783 614.8064 769.5167 30154.4285 -16.4802 62.9235
TCL: Running FEP window  20: Lambda1 0.9500000000000003 Lambda2 1.0    [dLambda 0.04999999999999971]
TCL: Setting parameter firsttimestep to 0
TCL: Setting parameter alchLambda to 0.9500000000000003
Info: NONBONDED TABLE R-SQUARED SPACING: 0.0625
Info: NONBONDED TABLE SIZE: 705 POINTS
TCL: Setting parameter alchLambda2 to 1.0
Info: NONBONDED TABLE R-SQUARED SPACING: 0.0625
Info: NONBONDED TABLE SIZE: 705 POINTS
TCL: Running for 1500000 steps
ETITLE: TS BOND ANGLE DIHED IMPRP ELECT VDW BOUNDARY MISC KINETIC TOTAL TEMP POTENTIAL TOTALAVG TEMPAVG PRESSURE GPRESSURE VOLUME PRESSAVG GPRESSAVG
ENERGY: 0 8.1074 4.5856 12.6647 0.0000 -10864.2089 1500.5162 0.0000 0.0000 1759.4494 -7578.8855 297.6118 -9338.3349 -7578.8855 297.6118 697.4994 771.7253 30154.4285 697.4994 771.7253
ENERGY: 300000 4.7600 4.6433 14.4196 0.0000 -10708.9030 1423.1744 0.0000 0.0000 1744.4856 -7517.4201 295.0807 -9261.9057 -7509.0836 302.8618 -363.3490 -232.9304 30888.6112 -29.3783 42.0973
ENERGY: 600000 7.0725 3.7039 13.8997 0.0000 -10763.5008 1475.5037 0.0000 0.0000 1773.0063 -7490.3148 299.9050 -9263.3210 -7491.0409 300.6827 465.3823 476.4122 30435.8704 -151.4374 -101.4397
ENERGY: 900000 8.5417 5.1897 11.7830 0.0000 -10717.0207 1452.2415 0.0000 0.0000 1797.4075 -7441.8573 304.0325 -9239.2648 -7478.6178 301.9404 161.7470 214.6340 30563.5746 -104.8833 -61.6790
ENERGY: 1200000 6.6385 3.5122 13.1586 0.0000 -10616.0000 1328.5889 0.0000 0.0000 1833.0462 -7431.0557 310.0608 -9264.1018 -7470.5960 302.7898 -939.3441 -846.4365 30995.1241 -120.9812 -77.8622
ENERGY: 1500000 12.7326 2.5986 10.8343 0.0000 -10698.5875 1445.3926 0.0000 0.0000 1764.8960 -7462.1333 298.5331 -9227.0293 -7465.9895 302.6740 113.4272 186.6307 30517.8678 4.6412 52.5085
TCL: Exiting due to exit command.
