Info: SIMULATION PARAMETERS:
Info: TIMESTEP               2
Info: NUMBER OF STEPS        0
Info: STEPS PER CYCLE        10
Info: PERIODIC CELL BASIS 1  30.5494 0 0
Info: PERIODIC CELL BASIS 2  0 31.8287 0
Info: PERIODIC CELL BASIS 3  0 0 31.124
Info: PERIODIC CELL CENTER   0 0 0
Info: WRAPPING WATERS AROUND PERIODIC BOUNDARIES ON OUTPUT.
Info: WRAPPING ALL CLUSTERS AROUND PERIODIC BOUNDARIES ON OUTPUT.
Info: FIRST LDB TIMESTEP     50
Info: LAST LDB TIMESTEP     -1
Info: HOM BACKGROUND SCALING 1
Info: PME BACKGROUND SCALING 1
Info: MIN ATOMS PER PATCH    40
Info: EMPTY PATCH LOAD       40 ATOMS
Info: VELOCITY FILE          mobley_2213823_equil.vel
Info: CENTER OF MASS MOVING INITIALLY? NO
Info: DIELECTRIC             1
Info: EXCLUDE                SCALED ONE-FOUR
Info: 1-4 ELECTROSTATICS SCALED BY 0.833333
Info: MODIFIED 1-4 VDW PARAMETERS WILL BE USED
Info: DCD FILENAME           mobley_2213823_prod.dcd
Info: DCD FREQUENCY          100000
Info: DCD FIRST STEP         100000
Info: DCD FILE WILL CONTAIN UNIT CELL DATA
Info: XST FILENAME           mobley_2213823_prod.xst
Info: XST FREQUENCY          100000
Info: NO VELOCITY DCD OUTPUT
Info: NO FORCE DCD OUTPUT
Info: OUTPUT FILENAME        mobley_2213823_prod
Info: BINARY OUTPUT FILES WILL BE USED
Info: RESTART FILENAME       mobley_2213823_prod.restart
Info: RESTART FREQUENCY      100000
Info: BINARY RESTART FILES WILL BE USED
Info: CUTOFF                 9
Info: PAIRLIST DISTANCE      11
Info: PAIRLIST SHRINK RATE   0.01
Info: PAIRLIST GROW RATE     0.01
Info: PAIRLIST TRIGGER       0.3
Info: PAIRLISTS PER CYCLE    2
Info: PAIRLISTS ENABLED
Info: MARGIN                 2
Info: HYDROGEN GROUP CUTOFF  2.5
Info: PATCH DIMENSION        15.5
Info: ENERGY OUTPUT STEPS    100000
Info: ENERGY EVALUATION STEPS    100000
Info: OUTPUT ENERGY PRECISION 4
Info: CROSSTERM ENERGY INCLUDED IN DIHEDRAL
Info: TIMING OUTPUT STEPS    1000000
Info: PRESSURE OUTPUT STEPS  100000
Info: ALCHEMICAL FEP ON
Info: FEP CURRENT LAMBDA VALUE     1
Info: FEP COMPARISON LAMBDA VALUE  0.95
Info: FEP INTRA-ALCHEMICAL NON-BONDED INTERACTIONS WILL BE RETAINED
Info: FEP INTRA-ALCHEMICAL BONDED INTERACTIONS WILL BE RETAINED
Info: FEP VDW SHIFTING COEFFICIENT 5
Info: FEP ELEC. ACTIVE FOR ANNIHILATED PARTICLES BETWEEN LAMBDA = 0 AND LAMBDA = 0.5
Info: FEP ELEC. ACTIVE FOR EXNIHILATED PARTICLES BETWEEN LAMBDA = 0.5 AND LAMBDA = 1
Info: FEP VDW ACTIVE FOR ANNIHILATED PARTICLES BETWEEN LAMBDA = 0 AND LAMBDA = 1
Info: FEP VDW ACTIVE FOR EXNIHILATED PARTICLES BETWEEN LAMBDA = 0 AND LAMBDA = 1
Info: FEP BOND ACTIVE FOR ANNIHILATED PARTICLES BETWEEN LAMBDA = 1 AND LAMBDA = 1
Info: FEP BOND ACTIVE FOR EXNIHILATED PARTICLES BETWEEN LAMBDA = 0 AND LAMBDA = 0
Info: LANGEVIN DYNAMICS ACTIVE
Info: LANGEVIN TEMPERATURE   300
Info: LANGEVIN USING BBK INTEGRATOR
Info: LANGEVIN DAMPING COEFFICIENT IS 1 INVERSE PS
Info: LANGEVIN DYNAMICS APPLIED TO HYDROGENS
Info: LANGEVIN PISTON PRESSURE CONTROL ACTIVE
Info:        TARGET PRESSURE IS 1.01325 BAR
Info:     OSCILLATION PERIOD IS 50 FS
Info:             DECAY TIME IS 25 FS
Info:     PISTON TEMPERATURE IS 300 K
Info:       PRESSURE CONTROL IS GROUP-BASED
Info:    INITIAL STRAIN RATE IS -0.000189819 -0.000189819 -0.000189819
Info:       CELL FLUCTUATION IS ISOTROPIC
Info: PARTICLE MESH EWALD (PME) ACTIVE
Info: PME TOLERANCE               1e-06
Info: PME EWALD COEFFICIENT       0.348832
Info: PME INTERPOLATION ORDER     4
Info: PME GRID DIMENSIONS         32 32 32
Info: PME MAXIMUM GRID SPACING    1
Info: PME CALCULATION WILL BE PERFORMED ON GPU
Info: FULL ELECTROSTATIC EVALUATION FREQUENCY      2
Info: USING VERLET I (r-RESPA) MTS SCHEME.
Info: C1 SPLITTING OF LONG RANGE ELECTROSTATICS
Info: PLACING ATOMS IN PATCHES BY HYDROGEN GROUPS
Info: RIGID BONDS TO HYDROGEN : ALL
Info:         ERROR TOLERANCE : 1e-08
Info:          MAX ITERATIONS : 100
Info: RIGID WATER USING SETTLE ALGORITHM
Info: RANDOM NUMBER SEED     1743861456
Info: USE HYDROGEN BONDS?    NO
Info: Using AMBER format force field!
Info: AMBER PARM FILE        mobley_2213823.prmtop
Info: COORDINATE PDB         mobley_2213823.pdb
Info: Exclusions will be read from PARM file!
Info: SCNB (VDW SCALING)     2
Info: USING ARITHMETIC MEAN TO COMBINE L-J SIGMA PARAMETERS
Info: BINARY COORDINATES     mobley_2213823_equil.coor
Info: SUMMARY OF PARAMETERS:
Info: 4 BONDS
Info: 3 ANGLES
Info:   3 HARMONIC
Info:   0 COSINE-BASED
Info: 5 DIHEDRAL
Info: 0 IMPROPER
Info: 0 CROSSTERM
Info: 0 VDW
Info: 10 VDW_PAIRS
Info: 0 NBTHOLE_PAIRS
Info: To read alchdata from file: mobley_2213823.pdb
Info: To read alchflag data from column: 5
Info: STRUCTURE SUMMARY:
Info: 2954 ATOMS
Info: 2953 BONDS
Info: 36 ANGLES
Info: 53 DIHEDRALS
Info: 0 IMPROPERS
Info: 0 CROSSTERMS
Info: 3034 EXCLUSIONS
Info: 2948 RIGID BONDS
Info: ALCH: 0 ATOMS TO DISAPPEAR IN FINAL STATE
Info: ALCH: 20 ATOMS TO APPEAR IN FINAL STATE
Info: 5914 DEGREES OF FREEDOM
Info: 984 HYDROGEN GROUPS
Info: 4 ATOMS IN LARGEST HYDROGEN GROUP
Info: 984 MIGRATION GROUPS
Info: 4 ATOMS IN LARGEST MIGRATION GROUP
Info: TOTAL MASS = 17705.8 amu
Info: TOTAL CHARGE = 0.000100002 e
Info: MASS DENSITY = 0.971534 g/cm^3
Info: ATOM DENSITY = 0.0976098 atoms/A^3
Info: ADDED 0 IMPLICIT EXCLUSIONS
Info: NONBONDED TABLE R-SQUARED SPACING: 0.0625
Info: NONBONDED TABLE SIZE: 705 POINTS
Info: REMOVING COM VELOCITY 0.0113727 0.149511 -0.0500198
Info: Use 3D box decompostion in PME FFT.
Info: Updated CUDA force table with 4096 elements.
Info: Updated CUDA LJ table with 4 x 4 elements.
Info: Found 23 unique exclusion lists needing 64 bytes
TCL: Running for 1500000 steps
ETITLE: TS BOND ANGLE DIHED IMPRP ELECT VDW BOUNDARY MISC KINETIC TOTAL TEMP POTENTIAL TOTALAVG TEMPAVG PRESSURE GPRESSURE VOLUME PRESSAVG GPRESSAVG
ENERGY: 0 0.6581 9.7106 3.2722 0.0000 -10789.8767 1506.8159 0.0000 0.0000 1743.2137 -7526.2062 296.6605 -9269.4199 -7526.2062 296.6605 503.3399 577.4658 30263.3658 503.3399 577.4658
ENERGY: 300000 0.8667 9.8517 3.4341 0.0000 -10669.2153 1476.3162 0.0000 0.0000 1766.7851 -7411.9615 300.6719 -9178.7466 -7458.3118 303.0461 581.4724 610.4436 30496.8285 455.6097 511.0295
ENERGY: 600000 1.9332 13.4043 3.0642 0.0000 -10773.7757 1439.7200 0.0000 0.0000 1797.5679 -7518.0861 305.9105 -9315.6540 -7462.6641 301.5130 -151.7927 -99.7480 30244.9872 460.1944 501.6641
ENERGY: 900000 1.3628 12.5010 3.5152 0.0000 -10753.4625 1471.9679 0.0000 0.0000 1759.7692 -7504.3465 299.4779 -9264.1156 -7454.7017 301.5412 85.4873 128.8997 30525.9554 409.3099 451.7565
ENERGY: 1200000 1.3366 6.7859 3.0960 0.0000 -10760.4311 1481.9345 0.0000 0.0000 1731.0911 -7536.1870 294.5975 -9267.2782 -7457.1058 301.1979 347.9251 405.8388 30032.5425 322.8076 370.2844
ENERGY: 1500000 2.5087 12.4406 3.3806 0.0000 -10635.6186 1472.8379 0.0000 0.0000 1759.7436 -7384.7072 299.4735 -9144.4508 -7465.1394 300.5361 511.6314 516.6400 30400.1098 265.9709 315.7399
TCL: Running FEP window   2: Lambda1 0.95   Lambda2 0.8999999999999999 [dLambda -0.050000000000000044]
TCL: Setting parameter firsttimestep to 0
TCL: Setting parameter alchLambda to 0.95
Info: NONBONDED TABLE R-SQUARED SPACING: 0.0625
Info: NONBONDED TABLE SIZE: 705 POINTS
TCL: Setting parameter alchLambda2 to 0.8999999999999999
Info: NONBONDED TABLE R-SQUARED SPACING: 0.0625
Info: NONBONDED TABLE SIZE: 705 POINTS
TCL: Running for 1500000 steps
ETITLE: TS BOND ANGLE DIHED IMPRP ELECT VDW BOUNDARY MISC KINETIC TOTAL TEMP POTENTIAL TOTALAVG TEMPAVG PRESSURE GPRESSURE VOLUME PRESSAVG GPRESSAVG
ENERGY: 0 2.5087 12.4406 3.3806 0.0000 -10635.6060 1473.1242 0.0000 0.0000 1758.9081 -7385.2437 299.3314 -9144.1518 -7385.2437 299.3314 429.6965 510.3858 30400.1098 429.6965 510.3858
ENERGY: 300000 2.2392 11.3306 3.2365 0.0000 -10805.4641 1530.0698 0.0000 0.0000 1706.5648 -7552.0232 290.4236 -9258.5880 -7457.9131 297.1810 723.7993 696.8124 30250.3375 131.1630 177.6901
ENERGY: 600000 1.5014 5.8183 2.6170 0.0000 -10746.6356 1527.1082 0.0000 0.0000 1759.0634 -7450.5272 299.3578 -9209.5907 -7450.3672 299.2153 688.4659 778.7049 30344.0556 152.0585 210.0965
ENERGY: 900000 0.8846 10.6232 2.8245 0.0000 -10616.1893 1377.0283 0.0000 0.0000 1800.7711 -7424.0576 306.4556 -9224.8287 -7461.9060 299.4373 -386.7502 -336.0871 30532.7105 108.2138 172.9285
ENERGY: 1200000 3.2579 7.3859 4.4715 0.0000 -10881.6662 1554.1643 0.0000 0.0000 1807.8209 -7504.5657 307.6553 -9312.3865 -7463.2588 299.6777 789.4145 911.4658 30062.9418 129.9122 198.2347
ENERGY: 1500000 1.1500 8.2561 4.6112 0.0000 -10645.9400 1364.2525 0.0000 0.0000 1752.3247 -7515.3455 298.2110 -9267.6702 -7465.1251 300.6959 -706.2591 -584.6262 30360.4690 -4.7699 60.4460
TCL: Running FEP window   3: Lambda1 0.8999999999999999 Lambda2 0.8499999999999999 [dLambda -0.050000000000000044]
TCL: Setting parameter firsttimestep to 0
TCL: Setting parameter alchLambda to 0.8999999999999999
Info: NONBONDED TABLE R-SQUARED SPACING: 0.0625
Info: NONBONDED TABLE SIZE: 705 POINTS
TCL: Setting parameter alchLambda2 to 0.8499999999999999
Info: NONBONDED TABLE R-SQUARED SPACING: 0.0625
Info: NONBONDED TABLE SIZE: 705 POINTS
TCL: Running for 1500000 steps
ETITLE: TS BOND ANGLE DIHED IMPRP ELECT VDW BOUNDARY MISC KINETIC TOTAL TEMP POTENTIAL TOTALAVG TEMPAVG PRESSURE GPRESSURE VOLUME PRESSAVG GPRESSAVG
ENERGY: 0 1.1500 8.2561 4.6112 0.0000 -10645.9598 1364.7694 0.0000 0.0000 1751.4481 -7515.7251 298.0618 -9267.1731 -7515.7251 298.0618 -679.6123 -589.1853 30360.4690 -679.6123 -589.1853
ENERGY: 300000 1.8858 11.8084 6.6407 0.0000 -10664.4131 1441.2072 0.0000 0.0000 1744.8623 -7458.0087 296.9410 -9202.8710 -7465.6651 302.2369 42.9851 97.6668 30598.0216 79.1332 148.7823
ENERGY: 600000 1.1709 9.4872 4.5097 0.0000 -10601.0416 1427.8887 0.0000 0.0000 1798.9319 -7359.0532 306.1426 -9157.9852 -7468.7659 302.0074 164.7811 227.6070 30378.1925 84.2881 142.2311
ENERGY: 900000 0.5551 13.3958 2.9196 0.0000 -10770.0909 1466.2255 0.0000 0.0000 1750.0431 -7536.9518 297.8227 -9286.9949 -7475.2515 300.6061 137.5970 191.2350 30326.0292 -77.7479 -25.4202
ENERGY: 1200000 0.4618 8.5240 4.8771 0.0000 -10702.8244 1480.8725 0.0000 0.0000 1774.9278 -7433.1612 302.0576 -9208.0889 -7464.8772 299.9904 304.1695 341.0551 30797.0567 33.4908 92.7590
ENERGY: 1500000 0.6515 13.6141 3.4702 0.0000 -10571.8300 1407.2356 0.0000 0.0000 1761.7470 -7385.1116 299.8145 -9146.8586 -7461.6877 299.9811 120.5605 170.8181 30336.4980 11.8896 72.4470
TCL: Running FEP window   4: Lambda1 0.8499999999999999 Lambda2 0.7999999999999998 [dLambda -0.050000000000000044]
TCL: Setting parameter firsttimestep to 0
TCL: Setting parameter alchLambda to 0.8499999999999999
Info: NONBONDED TABLE R-SQUARED SPACING: 0.0625
Info: NONBONDED TABLE SIZE: 705 POINTS
TCL: Setting parameter alchLambda2 to 0.7999999999999998
Info: NONBONDED TABLE R-SQUARED SPACING: 0.0625
Info: NONBONDED TABLE SIZE: 705 POINTS
TCL: Running for 1500000 steps
ETITLE: TS BOND ANGLE DIHED IMPRP ELECT VDW BOUNDARY MISC KINETIC TOTAL TEMP POTENTIAL TOTALAVG TEMPAVG PRESSURE GPRESSURE VOLUME PRESSAVG GPRESSAVG
ENERGY: 0 0.6515 13.6141 3.4702 0.0000 -10571.8018 1407.6700 0.0000 0.0000 1760.9108 -7385.4853 299.6722 -9146.3960 -7385.4853 299.6722 87.7836 165.5522 30336.4980 87.7836 165.5522
ENERGY: 300000 1.3214 11.3956 3.7807 0.0000 -10790.4535 1502.3456 0.0000 0.0000 1767.9275 -7503.6827 300.8663 -9271.6102 -7451.0653 302.4292 609.3656 703.7043 29981.1786 175.9474 268.1672
ENERGY: 600000 7.0777 11.2243 5.0259 0.0000 -10536.7405 1320.6833 0.0000 0.0000 1738.0646 -7454.6648 295.7842 -9192.7294 -7438.9775 300.0087 -988.8822 -953.9276 30546.6746 89.6947 160.7462
ENERGY: 900000 0.6718 9.9367 3.6438 0.0000 -10699.8516 1492.5493 0.0000 0.0000 1776.7691 -7416.2810 302.3709 -9193.0501 -7452.2163 300.2973 658.8373 706.4941 30462.9162 112.7239 183.1964
ENERGY: 1200000 2.8361 13.5576 3.0958 0.0000 -10615.5617 1461.4954 0.0000 0.0000 1748.9578 -7385.6190 297.6380 -9134.5768 -7458.1138 298.1760 730.4439 831.2539 30005.9915 191.7498 271.9346
ENERGY: 1500000 3.8723 12.4090 3.4454 0.0000 -10658.9341 1397.0480 0.0000 0.0000 1726.7584 -7515.4010 293.8601 -9242.1594 -7460.9247 298.6958 -517.3198 -463.9792 30350.7304 120.6752 193.3914
TCL: Running FEP window   5: Lambda1 0.7999999999999998 Lambda2 0.7499999999999998 [dLambda -0.050000000000000044]
TCL: Setting parameter firsttimestep to 0
TCL: Setting parameter alchLambda to 0.7999999999999998
Info: NONBONDED TABLE R-SQUARED SPACING: 0.0625
Info: NONBONDED TABLE SIZE: 705 POINTS
TCL: Setting parameter alchLambda2 to 0.7499999999999998
Info: NONBONDED TABLE R-SQUARED SPACING: 0.0625
Info: NONBONDED TABLE SIZE: 705 POINTS
TCL: Running for 1500000 steps
ETITLE: TS BOND ANGLE DIHED IMPRP ELECT VDW BOUNDARY MISC KINETIC TOTAL TEMP POTENTIAL TOTALAVG TEMPAVG PRESSURE GPRESSURE VOLUME PRESSAVG GPRESSAVG
ENERGY: 0 3.8723 12.4090 3.4454 0.0000 -10658.9727 1396.8602 0.0000 0.0000 1725.8658 -7516.5200 293.7082 -9242.3857 -7516.5200 293.7082 -549.6949 -475.8891 30350.7304 -549.6949 -475.8891
ENERGY: 300000 1.2348 9.2179 3.7917 0.0000 -10728.4266 1503.2966 0.0000 0.0000 1837.2472 -7373.6385 312.6631 -9210.8857 -7473.4875 298.8163 613.8702 639.4668 30681.6055 -131.8781 -68.6654
ENERGY: 600000 1.1580 9.9508 3.3223 0.0000 -10599.0896 1413.6355 0.0000 0.0000 1806.9373 -7364.0856 307.5050 -9171.0229 -7454.2267 299.2354 25.1774 -1.3982 30343.2176 -146.5853 -95.8937
ENERGY: 900000 6.6538 11.2896 2.9302 0.0000 -10679.2550 1475.4753 0.0000 0.0000 1754.7045 -7428.2016 298.6160 -9182.9061 -7442.3271 301.1274 430.7799 457.6184 30368.5773 -68.0998 -21.9212
ENERGY: 1200000 2.6726 11.5392 4.0167 0.0000 -10777.4364 1487.1863 0.0000 0.0000 1811.4806 -7460.5410 308.2782 -9272.0216 -7460.3665 301.9151 244.0499 328.6114 30016.7375 13.9091 60.3981
ENERGY: 1500000 2.5764 5.4941 3.9587 0.0000 -10656.0984 1402.3973 0.0000 0.0000 1808.8559 -7432.8160 307.8315 -9241.6719 -7470.0205 301.8185 -111.1038 -44.3243 30140.3619 119.3153 168.7548
TCL: Running FEP window   6: Lambda1 0.7499999999999998 Lambda2 0.6999999999999997 [dLambda -0.050000000000000044]
TCL: Setting parameter firsttimestep to 0
TCL: Setting parameter alchLambda to 0.7499999999999998
Info: NONBONDED TABLE R-SQUARED SPACING: 0.0625
Info: NONBONDED TABLE SIZE: 705 POINTS
TCL: Setting parameter alchLambda2 to 0.6999999999999997
Info: NONBONDED TABLE R-SQUARED SPACING: 0.0625
Info: NONBONDED TABLE SIZE: 705 POINTS
TCL: Running for 1500000 steps
ETITLE: TS BOND ANGLE DIHED IMPRP ELECT VDW BOUNDARY MISC KINETIC TOTAL TEMP POTENTIAL TOTALAVG TEMPAVG PRESSURE GPRESSURE VOLUME PRESSAVG GPRESSAVG
ENERGY: 0 2.5764 5.4941 3.9587 0.0000 -10656.1212 1402.8881 0.0000 0.0000 1807.9912 -7433.2127 307.6843 -9241.2039 -7433.2127 307.6843 -124.9262 -47.1153 30140.3619 -124.9262 -47.1153
ENERGY: 300000 0.6389 8.8864 5.5656 0.0000 -10748.4714 1500.6529 0.0000 0.0000 1829.8126 -7402.9149 311.3979 -9232.7275 -7448.0998 303.9472 603.7940 622.7603 30286.2921 396.0298 448.5485
ENERGY: 600000 1.1420 8.0943 2.9466 0.0000 -10750.3742 1508.6457 0.0000 0.0000 1784.8446 -7444.7011 303.7452 -9229.5457 -7443.8436 304.0100 749.6457 865.3808 30127.9898 400.9725 453.4134
ENERGY: 900000 0.9019 7.3648 4.2372 0.0000 -10729.8877 1455.2970 0.0000 0.0000 1757.6383 -7504.4486 299.1153 -9262.0869 -7441.9517 303.2590 34.5043 113.1399 30468.9962 374.5622 430.0073
ENERGY: 1200000 3.1085 9.4104 5.3611 0.0000 -10652.8566 1447.8723 0.0000 0.0000 1718.7497 -7468.3546 292.4972 -9187.1043 -7439.3404 302.7178 72.3251 81.3158 30617.5600 309.4232 366.1386
ENERGY: 1500000 0.9985 7.3560 2.9454 0.0000 -10752.7720 1483.7720 0.0000 0.0000 1772.6481 -7485.0520 301.6696 -9257.7001 -7438.9470 303.1667 284.5520 341.7117 30663.9313 207.0570 264.6099
TCL: Running FEP window   7: Lambda1 0.6999999999999997 Lambda2 0.6499999999999997 [dLambda -0.050000000000000044]
TCL: Setting parameter firsttimestep to 0
TCL: Setting parameter alchLambda to 0.6999999999999997
Info: NONBONDED TABLE R-SQUARED SPACING: 0.0625
Info: NONBONDED TABLE SIZE: 705 POINTS
TCL: Setting parameter alchLambda2 to 0.6499999999999997
Info: NONBONDED TABLE R-SQUARED SPACING: 0.0625
Info: NONBONDED TABLE SIZE: 705 POINTS
TCL: Running for 1500000 steps
ETITLE: TS BOND ANGLE DIHED IMPRP ELECT VDW BOUNDARY MISC KINETIC TOTAL TEMP POTENTIAL TOTALAVG TEMPAVG PRESSURE GPRESSURE VOLUME PRESSAVG GPRESSAVG
ENERGY: 0 0.9985 7.3561 2.9454 0.0000 -10752.7347 1482.9952 0.0000 0.0000 1771.7935 -7486.6461 301.5242 -9258.4396 -7486.6461 301.5242 235.7505 320.9661 30663.9313 235.7505 320.9661
ENERGY: 300000 0.5887 10.1486 7.0806 0.0000 -10519.4351 1308.4404 0.0000 0.0000 1706.1334 -7487.0434 290.3501 -9193.1767 -7474.4585 294.2461 -604.8946 -621.3308 30132.3728 -297.6254 -264.2028
ENERGY: 600000 2.7091 4.5534 3.0311 0.0000 -10783.3596 1507.3226 0.0000 0.0000 1775.3513 -7490.3921 302.1297 -9265.7435 -7470.3514 297.9132 490.0702 556.3198 30254.1731 -195.1782 -150.8208
ENERGY: 900000 0.6889 7.3317 2.8517 0.0000 -10641.4789 1379.1425 0.0000 0.0000 1711.2159 -7540.2481 291.2151 -9251.4640 -7480.8521 296.8461 -656.2964 -548.9689 30292.3599 -272.7105 -216.2019
ENERGY: 1200000 1.6437 10.4888 2.6117 0.0000 -10673.6246 1406.9740 0.0000 0.0000 1792.5954 -7459.3110 305.0643 -9251.9064 -7477.4920 298.2343 -419.5541 -347.0748 30729.8560 -210.6276 -147.1995
ENERGY: 1500000 1.4892 11.2429 3.4034 0.0000 -10827.5991 1539.0743 0.0000 0.0000 1751.9740 -7520.4154 298.1513 -9272.3894 -7488.9990 297.9030 816.9465 888.4474 30078.2653 -102.6910 -38.4419
TCL: Running FEP window   8: Lambda1 0.6499999999999997 Lambda2 0.5999999999999996 [dLambda -0.050000000000000044]
TCL: Setting parameter firsttimestep to 0
TCL: Setting parameter alchLambda to 0.6499999999999997
Info: NONBONDED TABLE R-SQUARED SPACING: 0.0625
Info: NONBONDED TABLE SIZE: 705 POINTS
TCL: Setting parameter alchLambda2 to 0.5999999999999996
Info: NONBONDED TABLE R-SQUARED SPACING: 0.0625
Info: NONBONDED TABLE SIZE: 705 POINTS
TCL: Running for 1500000 steps
ETITLE: TS BOND ANGLE DIHED IMPRP ELECT VDW BOUNDARY MISC KINETIC TOTAL TEMP POTENTIAL TOTALAVG TEMPAVG PRESSURE GPRESSURE VOLUME PRESSAVG GPRESSAVG
ENERGY: 0 1.4892 11.2429 3.4034 0.0000 -10827.5814 1539.4150 0.0000 0.0000 1751.0974 -7520.9336 298.0021 -9272.0310 -7520.9336 298.0021 794.1499 883.3221 30078.2653 794.1499 883.3221
ENERGY: 300000 0.3140 8.8736 2.3598 0.0000 -10666.7463 1382.3177 0.0000 0.0000 1749.4744 -7523.4068 297.7259 -9272.8812 -7465.8415 299.3938 -640.6671 -562.0791 30814.0141 -144.5848 -47.1610
ENERGY: 600000 0.7940 10.9150 3.2028 0.0000 -10821.4558 1532.3497 0.0000 0.0000 1794.5877 -7479.6065 305.4033 -9274.1942 -7463.0033 300.9549 746.0239 806.8734 30209.2749 -80.1201 -5.7025
ENERGY: 900000 2.0872 11.9345 2.8300 0.0000 -10844.5381 1468.7185 0.0000 0.0000 1753.6396 -7605.3284 298.4348 -9358.9679 -7467.7437 300.9457 58.6095 119.9494 29820.9932 -55.5661 16.9175
ENERGY: 1200000 0.7995 13.9556 2.6972 0.0000 -10741.8162 1491.8801 0.0000 0.0000 1772.4290 -7460.0547 301.6324 -9232.4837 -7466.9084 300.6307 379.3675 444.3180 30429.5045 -41.4835 30.2998
ENERGY: 1500000 1.6292 6.9898 2.3624 0.0000 -10677.2168 1460.2898 0.0000 0.0000 1747.4640 -7458.4816 297.3838 -9205.9456 -7468.5846 300.8449 63.6763 136.7359 30548.1029 -147.1877 -81.5409
TCL: Running FEP window   9: Lambda1 0.5999999999999996 Lambda2 0.5499999999999996 [dLambda -0.050000000000000044]
TCL: Setting parameter firsttimestep to 0
TCL: Setting parameter alchLambda to 0.5999999999999996
Info: NONBONDED TABLE R-SQUARED SPACING: 0.0625
Info: NONBONDED TABLE SIZE: 705 POINTS
TCL: Setting parameter alchLambda2 to 0.5499999999999996
Info: NONBONDED TABLE R-SQUARED SPACING: 0.0625
Info: NONBONDED TABLE SIZE: 705 POINTS
TCL: Running for 1500000 steps
ETITLE: TS BOND ANGLE DIHED IMPRP ELECT VDW BOUNDARY MISC KINETIC TOTAL TEMP POTENTIAL TOTALAVG TEMPAVG PRESSURE GPRESSURE VOLUME PRESSAVG GPRESSAVG
ENERGY: 0 1.6292 6.9898 2.3624 0.0000 -10677.2070 1460.3103 0.0000 0.0000 1746.6232 -7459.2921 297.2407 -9205.9153 -7459.2921 297.2407 47.2100 129.9786 30548.1029 47.2100 129.9786
ENERGY: 300000 2.3001 9.6194 4.6830 0.0000 -10667.4306 1474.5526 0.0000 0.0000 1803.8168 -7372.4587 306.9739 -9176.2754 -7466.0217 301.6973 324.2888 340.5903 30620.7235 -87.2600 -25.6095
ENERGY: 600000 0.6778 11.2299 2.7451 0.0000 -10793.8232 1460.5039 0.0000 0.0000 1762.1929 -7556.4736 299.8904 -9318.6665 -7479.3160 300.2865 -287.9679 -253.2756 30743.3658 -82.4669 -30.5573
ENERGY: 900000 1.5356 7.2997 4.5145 0.0000 -10660.9299 1386.7563 0.0000 0.0000 1759.6898 -7501.1339 299.4644 -9260.8237 -7489.6741 299.2105 -113.5194 -155.4245 29768.8490 -50.4993 -15.5948
ENERGY: 1200000 0.4763 11.8858 3.0778 0.0000 -10778.7483 1461.5542 0.0000 0.0000 1781.2787 -7520.4755 303.1384 -9301.7542 -7486.3036 300.4636 100.8374 141.2196 30028.1500 -122.4994 -84.8402
ENERGY: 1500000 1.7553 10.3134 3.7081 0.0000 -10768.7924 1495.7629 0.0000 0.0000 1730.3744 -7526.8784 294.4755 -9257.2527 -7482.7288 300.4801 235.0847 232.7997 30431.2759 -105.9359 -63.2935
TCL: Running FEP window  10: Lambda1 0.5499999999999996 Lambda2 0.4999999999999996 [dLambda -0.04999999999999999]
TCL: Setting parameter firsttimestep to 0
TCL: Setting parameter alchLambda to 0.5499999999999996
Info: NONBONDED TABLE R-SQUARED SPACING: 0.0625
Info: NONBONDED TABLE SIZE: 705 POINTS
TCL: Setting parameter alchLambda2 to 0.4999999999999996
Info: NONBONDED TABLE R-SQUARED SPACING: 0.0625
Info: NONBONDED TABLE SIZE: 705 POINTS
TCL: Running for 1500000 steps
ETITLE: TS BOND ANGLE DIHED IMPRP ELECT VDW BOUNDARY MISC KINETIC TOTAL TEMP POTENTIAL TOTALAVG TEMPAVG PRESSURE GPRESSURE VOLUME PRESSAVG GPRESSAVG
ENERGY: 0 1.7553 10.3134 3.7081 0.0000 -10768.7773 1496.2870 0.0000 0.0000 1729.4974 -7527.2161 294.3262 -9256.7136 -7527.2161 294.3262 152.1834 233.0203 30431.2759 152.1834 233.0203
ENERGY: 300000 2.0664 8.9029 2.6854 0.0000 -10583.3890 1364.8827 0.0000 0.0000 1750.1037 -7454.7480 297.8330 -9204.8517 -7490.1031 297.0832 -679.2855 -626.1183 30385.8793 -309.8005 -236.6637
ENERGY: 600000 3.9005 10.0744 2.6913 0.0000 -10828.6107 1510.1226 0.0000 0.0000 1777.0049 -7524.8170 302.4111 -9301.8219 -7504.2081 297.3288 371.8351 424.0368 30286.7352 -208.3354 -142.6321
ENERGY: 900000 3.5140 12.3614 2.7203 0.0000 -10651.8441 1395.1065 0.0000 0.0000 1742.9749 -7495.1670 296.6198 -9238.1419 -7503.3866 297.7107 -197.8173 -196.3591 30125.4959 -225.1542 -171.5021
ENERGY: 1200000 2.3653 11.7465 3.2887 0.0000 -10712.4119 1429.5369 0.0000 0.0000 1761.0995 -7504.3749 299.7043 -9265.4744 -7500.8313 298.0593 -148.1479 -126.5488 30045.7856 -178.9086 -129.2100
ENERGY: 1500000 2.3913 4.7910 2.8284 0.0000 -10637.3504 1403.2957 0.0000 0.0000 1739.6876 -7484.3564 296.0604 -9224.0439 -7492.1703 297.9835 -264.5568 -189.6873 30399.9711 -171.9988 -115.9633
TCL: Running FEP window  11: Lambda1 0.4999999999999996 Lambda2 0.4499999999999996 [dLambda -0.04999999999999999]
TCL: Setting parameter firsttimestep to 0
TCL: Setting parameter alchLambda to 0.4999999999999996
Info: NONBONDED TABLE R-SQUARED SPACING: 0.0625
Info: NONBONDED TABLE SIZE: 705 POINTS
TCL: Setting parameter alchLambda2 to 0.4499999999999996
Info: NONBONDED TABLE R-SQUARED SPACING: 0.0625
Info: NONBONDED TABLE SIZE: 705 POINTS
TCL: Running for 1500000 steps
ETITLE: TS BOND ANGLE DIHED IMPRP ELECT VDW BOUNDARY MISC KINETIC TOTAL TEMP POTENTIAL TOTALAVG TEMPAVG PRESSURE GPRESSURE VOLUME PRESSAVG GPRESSAVG
ENERGY: 0 2.3913 4.7910 2.8284 0.0000 -10637.3685 1403.4550 0.0000 0.0000 1738.7835 -7485.1192 295.9065 -9223.9027 -7485.1192 295.9065 -276.1786 -196.8854 30399.9711 -276.1786 -196.8854
ENERGY: 300000 0.7466 10.1455 4.5428 0.0000 -10539.9716 1368.9168 0.0000 0.0000 1719.7561 -7435.8637 292.6685 -9155.6199 -7454.8476 296.6962 -310.4774 -268.9274 30440.2077 -73.9495 -2.9807
ENERGY: 600000 3.8181 10.0757 2.6967 0.0000 -10642.9211 1386.0415 0.0000 0.0000 1743.6907 -7496.5984 296.7417 -9240.2891 -7462.2907 297.2669 -737.2154 -666.3616 30656.9861 -335.0281 -266.5915
ENERGY: 900000 0.3539 10.6420 5.1420 0.0000 -10830.1103 1567.1072 0.0000 0.0000 1718.6646 -7528.2006 292.4827 -9246.8651 -7454.7487 297.6555 1111.8784 1152.7335 29829.8399 -33.6367 12.6500
ENERGY: 1200000 2.6081 8.1241 3.8133 0.0000 -10737.3439 1424.2481 0.0000 0.0000 1716.3685 -7582.1819 292.0920 -9298.5504 -7468.6864 297.4220 -199.4159 -138.8358 29973.0155 -88.1960 -33.2513
ENERGY: 1500000 2.6383 10.5614 2.5629 0.0000 -10581.9134 1343.0595 0.0000 0.0000 1794.2190 -7428.8722 305.3406 -9223.0913 -7460.8286 298.5839 -670.5644 -547.0670 30224.5665 -124.5876 -68.1067
TCL: Running FEP window  12: Lambda1 0.4499999999999996 Lambda2 0.39999999999999963 [dLambda -0.04999999999999999]
TCL: Setting parameter firsttimestep to 0
TCL: Setting parameter alchLambda to 0.4499999999999996
Info: NONBONDED TABLE R-SQUARED SPACING: 0.0625
Info: NONBONDED TABLE SIZE: 705 POINTS
TCL: Setting parameter alchLambda2 to 0.39999999999999963
Info: NONBONDED TABLE R-SQUARED SPACING: 0.0625
Info: NONBONDED TABLE SIZE: 705 POINTS
TCL: Running for 1500000 steps
ETITLE: TS BOND ANGLE DIHED IMPRP ELECT VDW BOUNDARY MISC KINETIC TOTAL TEMP POTENTIAL TOTALAVG TEMPAVG PRESSURE GPRESSURE VOLUME PRESSAVG GPRESSAVG
ENERGY: 0 2.6383 10.5614 2.5629 0.0000 -10581.9141 1343.1607 0.0000 0.0000 1793.3549 -7429.6359 305.1935 -9222.9908 -7429.6359 305.1935 -627.7916 -551.8105 30224.5665 -627.7916 -551.8105
ENERGY: 300000 1.5886 17.4027 4.1783 0.0000 -10617.7934 1349.1177 0.0000 0.0000 1802.2453 -7443.2608 306.7065 -9245.5061 -7486.4913 302.6895 -507.8185 -491.9690 30324.5849 -440.0220 -397.0678
ENERGY: 600000 2.9243 11.6764 2.6532 0.0000 -10700.1784 1423.6694 0.0000 0.0000 1779.2861 -7479.9690 302.7993 -9259.2551 -7469.0657 304.5627 -263.5224 -234.2133 30345.6577 -412.5069 -369.1975
ENERGY: 900000 3.3032 9.1236 2.7971 0.0000 -10732.5835 1495.0542 0.0000 0.0000 1790.0083 -7432.2971 304.6240 -9222.3054 -7473.6512 303.6469 438.5774 512.6605 30200.0764 -231.7455 -191.2352
ENERGY: 1200000 3.6539 7.7265 2.9926 0.0000 -10745.0952 1431.6589 0.0000 0.0000 1773.6921 -7525.3713 301.8473 -9299.0634 -7475.2281 301.9320 -404.2833 -353.5407 30358.4422 -264.5332 -219.9778
ENERGY: 1500000 3.1353 7.8583 2.2450 0.0000 -10641.8415 1437.4807 0.0000 0.0000 1813.0377 -7378.0844 308.5431 -9191.1222 -7472.4194 301.6988 51.8837 122.6368 30361.6542 -295.0175 -247.4247
TCL: Running FEP window  13: Lambda1 0.39999999999999963 Lambda2 0.34999999999999964 [dLambda -0.04999999999999999]
TCL: Setting parameter firsttimestep to 0
TCL: Setting parameter alchLambda to 0.39999999999999963
Info: NONBONDED TABLE R-SQUARED SPACING: 0.0625
Info: NONBONDED TABLE SIZE: 705 POINTS
TCL: Setting parameter alchLambda2 to 0.34999999999999964
Info: NONBONDED TABLE R-SQUARED SPACING: 0.0625
Info: NONBONDED TABLE SIZE: 705 POINTS
TCL: Running for 1500000 steps
ETITLE: TS BOND ANGLE DIHED IMPRP ELECT VDW BOUNDARY MISC KINETIC TOTAL TEMP POTENTIAL TOTALAVG TEMPAVG PRESSURE GPRESSURE VOLUME PRESSAVG GPRESSAVG
ENERGY: 0 3.1353 7.8583 2.2450 0.0000 -10641.8408 1437.1516 0.0000 0.0000 1812.1775 -7379.2730 308.3968 -9191.4506 -7379.2730 308.3968 23.1171 109.9853 30361.6542 23.1171 109.9853
ENERGY: 300000 2.3067 7.2013 4.1018 0.0000 -10682.3410 1396.8581 0.0000 0.0000 1733.3191 -7538.5539 294.9766 -9271.8731 -7453.6960 301.2290 -628.2576 -522.3413 30365.0713 -136.1258 -61.0037
ENERGY: 600000 2.2686 9.0158 2.6384 0.0000 -10744.0952 1449.9683 0.0000 0.0000 1785.5700 -7494.6342 303.8687 -9280.2042 -7493.1387 298.2593 -72.3876 -12.7056 30072.5685 -183.8871 -118.6801
ENERGY: 900000 1.0436 4.4896 3.0597 0.0000 -10586.1626 1416.4813 0.0000 0.0000 1715.7204 -7445.3679 291.9817 -9161.0883 -7489.5396 296.3872 -161.5984 -161.5190 30649.4757 -140.4478 -83.8958
ENERGY: 1200000 7.1343 8.6179 4.4886 0.0000 -10765.9826 1477.3167 0.0000 0.0000 1692.3328 -7576.0923 288.0016 -9268.4251 -7476.8117 297.6249 -69.7792 -17.5644 30331.4827 -79.1830 -19.8606
ENERGY: 1500000 2.1965 8.0290 3.1683 0.0000 -10756.5717 1560.3029 0.0000 0.0000 1799.5054 -7383.3696 306.2402 -9182.8750 -7474.1882 298.0205 1261.0905 1270.6480 29907.1291 78.0275 131.8064
TCL: Running FEP window  14: Lambda1 0.34999999999999964 Lambda2 0.29999999999999966 [dLambda -0.04999999999999999]
TCL: Setting parameter firsttimestep to 0
TCL: Setting parameter alchLambda to 0.34999999999999964
Info: NONBONDED TABLE R-SQUARED SPACING: 0.0625
Info: NONBONDED TABLE SIZE: 705 POINTS
TCL: Setting parameter alchLambda2 to 0.29999999999999966
Info: NONBONDED TABLE R-SQUARED SPACING: 0.0625
Info: NONBONDED TABLE SIZE: 705 POINTS
TCL: Running for 1500000 steps
ETITLE: TS BOND ANGLE DIHED IMPRP ELECT VDW BOUNDARY MISC KINETIC TOTAL TEMP POTENTIAL TOTALAVG TEMPAVG PRESSURE GPRESSURE VOLUME PRESSAVG GPRESSAVG
ENERGY: 0 2.1965 8.0290 3.1683 0.0000 -10756.5711 1560.5585 0.0000 0.0000 1798.6337 -7383.9851 306.0919 -9182.6188 -7383.9851 306.0919 1170.8178 1266.0392 29907.1291 1170.8178 1266.0392
ENERGY: 300000 1.9062 12.5829 2.2859 0.0000 -10671.4956 1452.8695 0.0000 0.0000 1743.1231 -7458.7279 296.6451 -9201.8511 -7429.7237 302.9593 91.1453 151.1898 30416.6107 346.0480 396.6739
ENERGY: 600000 1.6738 6.9150 3.2365 0.0000 -10678.6107 1454.2682 0.0000 0.0000 1790.3763 -7422.1408 304.6866 -9212.5171 -7438.0622 301.4223 -92.8012 49.8470 30409.5712 338.1123 402.7153
ENERGY: 900000 0.5867 13.8629 3.5496 0.0000 -10699.3767 1476.1682 0.0000 0.0000 1782.3366 -7422.8728 303.3184 -9205.2093 -7444.2708 300.8437 430.1762 453.4269 30235.2098 330.1938 391.3752
ENERGY: 1200000 0.5873 10.8042 5.4324 0.0000 -10587.8480 1369.9786 0.0000 0.0000 1827.6042 -7373.4412 311.0221 -9201.0455 -7445.2386 300.6673 -314.5843 -252.5729 30195.1087 257.9803 320.7496
ENERGY: 1500000 1.4693 7.0135 3.3003 0.0000 -10773.9264 1514.3746 0.0000 0.0000 1749.5450 -7498.2236 297.7379 -9247.7687 -7444.3968 300.7465 570.4407 665.5588 29955.3667 329.5786 394.5301
TCL: Running FEP window  15: Lambda1 0.29999999999999966 Lambda2 0.24999999999999967 [dLambda -0.04999999999999999]
TCL: Setting parameter firsttimestep to 0
TCL: Setting parameter alchLambda to 0.29999999999999966
Info: NONBONDED TABLE R-SQUARED SPACING: 0.0625
Info: NONBONDED TABLE SIZE: 705 POINTS
TCL: Setting parameter alchLambda2 to 0.24999999999999967
Info: NONBONDED TABLE R-SQUARED SPACING: 0.0625
Info: NONBONDED TABLE SIZE: 705 POINTS
TCL: Running for 1500000 steps
ETITLE: TS BOND ANGLE DIHED IMPRP ELECT VDW BOUNDARY MISC KINETIC TOTAL TEMP POTENTIAL TOTALAVG TEMPAVG PRESSURE GPRESSURE VOLUME PRESSAVG GPRESSAVG
ENERGY: 0 1.4693 7.0135 3.3003 0.0000 -10773.9267 1514.5902 0.0000 0.0000 1748.7030 -7498.8504 297.5947 -9247.5534 -7498.8504 297.5947 578.8367 659.6970 29955.3667 578.8367 659.6970
ENERGY: 300000 1.1934 9.0870 2.5448 0.0000 -10627.8748 1368.7932 0.0000 0.0000 1751.1911 -7495.0653 298.0181 -9246.2564 -7453.3309 300.7562 -744.2632 -671.1000 30299.8716 -324.0155 -251.5064
ENERGY: 600000 0.7281 9.7795 2.8506 0.0000 -10626.2823 1383.4747 0.0000 0.0000 1787.0296 -7442.4198 304.1171 -9229.4494 -7436.1216 300.6260 -536.2879 -488.2427 30375.5794 -155.5930 -96.3977
ENERGY: 900000 0.1463 11.1514 6.3125 0.0000 -10611.3664 1369.1547 0.0000 0.0000 1772.7793 -7451.8222 301.6920 -9224.6015 -7444.7317 301.4808 -318.1056 -237.5513 30218.3957 -204.5747 -129.0675
ENERGY: 1200000 3.2507 7.8223 4.8625 0.0000 -10456.9268 1297.1087 0.0000 0.0000 1786.8200 -7357.0626 304.0814 -9143.8826 -7436.8913 302.1805 -948.8008 -868.0339 30482.3645 -230.8554 -148.1173
ENERGY: 1500000 2.2178 9.5538 3.0481 0.0000 -10735.7186 1395.5100 0.0000 0.0000 1803.5527 -7521.8362 306.9290 -9325.3889 -7437.1389 302.4786 -292.5399 -224.0832 29691.6716 -211.5219 -131.8734
TCL: Running FEP window  16: Lambda1 0.24999999999999967 Lambda2 0.19999999999999968 [dLambda -0.04999999999999999]
TCL: Setting parameter firsttimestep to 0
TCL: Setting parameter alchLambda to 0.24999999999999967
Info: NONBONDED TABLE R-SQUARED SPACING: 0.0625
Info: NONBONDED TABLE SIZE: 705 POINTS
TCL: Setting parameter alchLambda2 to 0.19999999999999968
Info: NONBONDED TABLE R-SQUARED SPACING: 0.0625
Info: NONBONDED TABLE SIZE: 705 POINTS
TCL: Running for 1500000 steps
ETITLE: TS BOND ANGLE DIHED IMPRP ELECT VDW BOUNDARY MISC KINETIC TOTAL TEMP POTENTIAL TOTALAVG TEMPAVG PRESSURE GPRESSURE VOLUME PRESSAVG GPRESSAVG
ENERGY: 0 2.2178 9.5538 3.0481 0.0000 -10735.7191 1395.8838 0.0000 0.0000 1802.7013 -7522.3143 306.7841 -9325.0156 -7522.3143 306.7841 -312.2547 -223.2824 29691.6716 -312.2547 -223.2824
ENERGY: 300000 0.4881 4.9286 3.0258 0.0000 -10746.3431 1476.5525 0.0000 0.0000 1811.9578 -7449.3902 308.3594 -9261.3479 -7438.1114 306.3522 505.9027 567.1097 29825.9590 -126.0348 -49.2336
ENERGY: 600000 0.1965 8.7426 4.1289 0.0000 -10698.1057 1465.8693 0.0000 0.0000 1773.2027 -7445.9658 301.7640 -9219.1685 -7439.1224 304.6321 400.1123 521.9197 29739.7740 -164.3072 -77.9131
ENERGY: 900000 0.6329 5.1305 3.0772 0.0000 -10527.9443 1301.3156 0.0000 0.0000 1791.3716 -7426.4166 304.8560 -9217.7883 -7437.7072 304.7479 -920.2425 -844.0703 30231.2220 -198.2952 -112.0807
ENERGY: 1200000 1.5667 11.6519 3.8409 0.0000 -10505.7293 1313.1088 0.0000 0.0000 1791.5668 -7383.9943 304.8892 -9175.5611 -7440.7519 303.2876 -962.0509 -906.0444 30797.2577 -266.8267 -185.7226
ENERGY: 1500000 3.1500 9.3520 2.6631 0.0000 -10720.9340 1390.1355 0.0000 0.0000 1792.4599 -7523.1735 305.0412 -9315.6334 -7456.7898 302.8551 -543.8655 -454.7142 30193.3351 -256.4719 -172.3371
TCL: Running FEP window  17: Lambda1 0.19999999999999968 Lambda2 0.1499999999999997 [dLambda -0.04999999999999999]
TCL: Setting parameter firsttimestep to 0
TCL: Setting parameter alchLambda to 0.19999999999999968
Info: NONBONDED TABLE R-SQUARED SPACING: 0.0625
Info: NONBONDED TABLE SIZE: 705 POINTS
TCL: Setting parameter alchLambda2 to 0.1499999999999997
Info: NONBONDED TABLE R-SQUARED SPACING: 0.0625
Info: NONBONDED TABLE SIZE: 705 POINTS
TCL: Running for 1500000 steps
ETITLE: TS BOND ANGLE DIHED IMPRP ELECT VDW BOUNDARY MISC KINETIC TOTAL TEMP POTENTIAL TOTALAVG TEMPAVG PRESSURE GPRESSURE VOLUME PRESSAVG GPRESSAVG
ENERGY: 0 3.1500 9.3520 2.6631 0.0000 -10720.9332 1390.2702 0.0000 0.0000 1791.5999 -7523.8980 304.8949 -9315.4979 -7523.8980 304.8949 -543.1876 -458.7093 30193.3351 -543.1876 -458.7093
ENERGY: 300000 4.7013 11.3884 3.9027 0.0000 -10642.6800 1418.4795 0.0000 0.0000 1761.8832 -7442.3249 299.8377 -9204.2081 -7494.1427 302.9793 -506.9631 -480.4270 30709.6366 -368.3916 -307.5183
ENERGY: 600000 0.4449 5.8822 4.4692 0.0000 -10664.5758 1415.5035 0.0000 0.0000 1763.9659 -7474.3102 300.1921 -9238.2760 -7480.0009 301.3558 -132.0760 -127.6018 30133.7271 -317.4047 -275.7736
ENERGY: 900000 1.8224 8.3717 2.3778 0.0000 -10713.2269 1486.4878 0.0000 0.0000 1789.6747 -7424.4925 304.5672 -9214.1672 -7471.3378 301.8064 688.4727 647.6376 29874.6559 -48.3689 -11.5095
ENERGY: 1200000 1.3872 8.2374 3.4837 0.0000 -10814.1144 1521.6633 0.0000 0.0000 1756.1889 -7523.1538 298.8686 -9279.3428 -7484.0829 300.8804 455.9079 528.0678 30137.3288 -54.5166 -5.6710
ENERGY: 1500000 1.3103 9.2465 3.9232 0.0000 -10896.2034 1499.9695 0.0000 0.0000 1805.6497 -7576.1042 307.2859 -9381.7540 -7495.3323 300.4503 102.9837 141.3945 29928.8910 -76.1543 -23.8727
TCL: Running FEP window  18: Lambda1 0.1499999999999997 Lambda2 0.09999999999999969 [dLambda -0.05 ]
TCL: Setting parameter firsttimestep to 0
TCL: Setting parameter alchLambda to 0.1499999999999997
Info: NONBONDED TABLE R-SQUARED SPACING: 0.0625
Info: NONBONDED TABLE SIZE: 705 POINTS
TCL: Setting parameter alchLambda2 to 0.09999999999999969
Info: NONBONDED TABLE R-SQUARED SPACING: 0.0625
Info: NONBONDED TABLE SIZE: 705 POINTS
TCL: Running for 1500000 steps
ETITLE: TS BOND ANGLE DIHED IMPRP ELECT VDW BOUNDARY MISC KINETIC TOTAL TEMP POTENTIAL TOTALAVG TEMPAVG PRESSURE GPRESSURE VOLUME PRESSAVG GPRESSAVG
ENERGY: 0 1.3103 9.2465 3.9232 0.0000 -10896.2031 1500.3506 0.0000 0.0000 1804.7564 -7576.6162 307.1338 -9381.3726 -7576.6162 307.1338 53.5364 139.0838 29928.8910 53.5364 139.0838
ENERGY: 300000 0.4614 14.8122 2.9887 0.0000 -10767.0741 1503.9042 0.0000 0.0000 1757.9077 -7486.9999 299.1611 -9244.9076 -7541.7476 297.4315 509.6091 541.0202 30151.7155 159.7335 245.6165
ENERGY: 600000 3.0442 7.9643 2.2790 0.0000 -10803.7810 1499.8517 0.0000 0.0000 1749.7954 -7540.8465 297.7806 -9290.6419 -7507.5635 298.4194 256.2016 343.1021 30050.3406 33.8727 110.1474
ENERGY: 900000 1.2033 12.6179 2.5884 0.0000 -10688.1524 1471.5898 0.0000 0.0000 1699.4093 -7500.7437 289.2058 -9200.1530 -7509.1607 298.4648 226.8247 348.3719 30531.5722 -0.2739 81.3445
ENERGY: 1200000 2.3455 8.0901 3.7229 0.0000 -10609.3717 1425.0631 0.0000 0.0000 1703.2705 -7466.8797 289.8629 -9170.1502 -7503.1617 298.1021 -63.9166 -7.0519 30274.4820 -64.2516 16.8911
ENERGY: 1500000 4.6928 6.0941 3.2243 0.0000 -10824.7875 1476.8178 0.0000 0.0000 1754.1029 -7579.8556 298.5136 -9333.9585 -7493.9101 298.7219 -182.8073 -147.8668 30384.5824 -7.9205 65.4441
TCL: Running FEP window  19: Lambda1 0.09999999999999969 Lambda2 0.049999999999999684 [dLambda -0.05 ]
TCL: Setting parameter firsttimestep to 0
TCL: Setting parameter alchLambda to 0.09999999999999969
Info: NONBONDED TABLE R-SQUARED SPACING: 0.0625
Info: NONBONDED TABLE SIZE: 705 POINTS
TCL: Setting parameter alchLambda2 to 0.049999999999999684
Info: NONBONDED TABLE R-SQUARED SPACING: 0.0625
Info: NONBONDED TABLE SIZE: 705 POINTS
TCL: Running for 1500000 steps
ETITLE: TS BOND ANGLE DIHED IMPRP ELECT VDW BOUNDARY MISC KINETIC TOTAL TEMP POTENTIAL TOTALAVG TEMPAVG PRESSURE GPRESSURE VOLUME PRESSAVG GPRESSAVG
ENERGY: 0 4.6928 6.0941 3.2243 0.0000 -10824.7882 1476.3404 0.0000 0.0000 1753.2288 -7581.2078 298.3649 -9334.4366 -7581.2078 298.3649 -223.4783 -152.6164 30384.5824 -223.4783 -152.6164
ENERGY: 300000 2.5405 11.1465 4.4051 0.0000 -10793.1399 1473.0668 0.0000 0.0000 1747.5207 -7554.4602 297.3934 -9301.9809 -7520.3778 296.5147 -155.0566 -73.9376 30108.3212 -292.5257 -221.7292
ENERGY: 600000 0.5728 9.7897 2.6633 0.0000 -10639.3543 1391.3078 0.0000 0.0000 1774.5743 -7460.4465 301.9974 -9235.0208 -7499.4426 298.9914 -700.0395 -632.9388 30977.4372 -135.4858 -59.4630
ENERGY: 900000 2.3354 9.2545 2.6953 0.0000 -10600.2919 1372.8113 0.0000 0.0000 1787.8943 -7425.3011 304.2642 -9213.1955 -7469.1606 300.3778 -759.8007 -619.0138 30540.3838 -188.5844 -113.5004
ENERGY: 1200000 0.9170 12.3972 3.7304 0.0000 -10582.2469 1362.8109 0.0000 0.0000 1752.9812 -7449.4101 298.3227 -9202.3914 -7474.1781 299.2205 -507.2340 -396.4056 30473.1923 -199.5674 -125.0453
ENERGY: 1500000 0.8282 13.0491 3.6404 0.0000 -10742.4836 1461.5945 0.0000 0.0000 1763.9634 -7499.4080 300.1917 -9263.3714 -7479.4368 298.7724 -2.6924 57.3683 30363.2785 -256.5603 -184.0169
TCL: Running FEP window  20: Lambda1 0.049999999999999684 Lambda2 0.0    [dLambda -0.049999999999999684]
TCL: Setting parameter firsttimestep to 0
TCL: Setting parameter alchLambda to 0.049999999999999684
Info: NONBONDED TABLE R-SQUARED SPACING: 0.0625
Info: NONBONDED TABLE SIZE: 705 POINTS
TCL: Setting parameter alchLambda2 to 0.0
Info: NONBONDED TABLE R-SQUARED SPACING: 0.0625
Info: NONBONDED TABLE SIZE: 705 POINTS
TCL: Running for 1500000 steps
ETITLE: TS BOND ANGLE DIHED IMPRP ELECT VDW BOUNDARY MISC KINETIC TOTAL TEMP POTENTIAL TOTALAVG TEMPAVG PRESSURE GPRESSURE VOLUME PRESSAVG GPRESSAVG
ENERGY: 0 0.8282 13.0491 3.6404 0.0000 -10742.4838 1461.4145 0.0000 0.0000 1763.0828 -7500.4688 300.0418 -9263.5516 -7500.4688 300.0418 -22.0506 56.1758 30363.2785 -22.0506 56.1758
ENERGY: 300000 2.3452 8.0117 2.9648 0.0000 -10679.4857 1459.8664 0.0000 0.0000 1761.7605 -7444.5371 299.8168 -9206.2976 -7464.4218 295.7544 192.0941 223.9250 30326.5925 -121.9821 -86.5876
ENERGY: 600000 0.7056 9.0861 3.5861 0.0000 -10771.9748 1535.0330 0.0000 0.0000 1738.0480 -7485.5161 295.7814 -9223.5642 -7492.2081 297.0921 789.9614 869.1297 30018.6277 50.6088 96.9903
ENERGY: 900000 4.0167 9.9230 5.2758 0.0000 -10847.6228 1532.2479 0.0000 0.0000 1776.0433 -7520.1162 302.2474 -9296.1594 -7493.0475 298.1725 538.8389 550.8869 30127.1514 74.2102 116.7730
ENERGY: 1200000 4.7884 10.4705 3.1724 0.0000 -10550.4991 1345.8253 0.0000 0.0000 1724.7995 -7461.4431 293.5267 -9186.2426 -7493.9169 297.8433 -900.4422 -848.3163 30520.1019 27.1442 69.1547
ENERGY: 1500000 3.5483 10.2078 3.9290 0.0000 -10766.6695 1508.4239 0.0000 0.0000 1815.9335 -7424.6270 309.0360 -9240.5605 -7486.8484 299.0152 155.3003 220.9478 30446.7518 36.4501 82.4297
TCL: Exiting due to exit command.
