Info: SIMULATION PARAMETERS:
Info: TIMESTEP               2
Info: NUMBER OF STEPS        0
Info: STEPS PER CYCLE        10
Info: PERIODIC CELL BASIS 1  29.2896 0 0
Info: PERIODIC CELL BASIS 2  0 30.3072 0
Info: PERIODIC CELL BASIS 3  0 0 34.768
Info: PERIODIC CELL CENTER   0 0 0
Info: WRAPPING WATERS AROUND PERIODIC BOUNDARIES ON OUTPUT.
Info: WRAPPING ALL CLUSTERS AROUND PERIODIC BOUNDARIES ON OUTPUT.
Info: FIRST LDB TIMESTEP     50
Info: LAST LDB TIMESTEP     -1
Info: HOM BACKGROUND SCALING 1
Info: PME BACKGROUND SCALING 1
Info: MIN ATOMS PER PATCH    40
Info: EMPTY PATCH LOAD       40 ATOMS
Info: VELOCITY FILE          mobley_5471704_equil.vel
Info: CENTER OF MASS MOVING INITIALLY? NO
Info: DIELECTRIC             1
Info: EXCLUDE                SCALED ONE-FOUR
Info: 1-4 ELECTROSTATICS SCALED BY 0.833333
Info: MODIFIED 1-4 VDW PARAMETERS WILL BE USED
Info: DCD FILENAME           mobley_5471704_prod.dcd
Info: DCD FREQUENCY          100000
Info: DCD FIRST STEP         100000
Info: DCD FILE WILL CONTAIN UNIT CELL DATA
Info: XST FILENAME           mobley_5471704_prod.xst
Info: XST FREQUENCY          100000
Info: NO VELOCITY DCD OUTPUT
Info: NO FORCE DCD OUTPUT
Info: OUTPUT FILENAME        mobley_5471704_prod
Info: BINARY OUTPUT FILES WILL BE USED
Info: RESTART FILENAME       mobley_5471704_prod.restart
Info: RESTART FREQUENCY      100000
Info: BINARY RESTART FILES WILL BE USED
Info: CUTOFF                 9
Info: PAIRLIST DISTANCE      11
Info: PAIRLIST SHRINK RATE   0.01
Info: PAIRLIST GROW RATE     0.01
Info: PAIRLIST TRIGGER       0.3
Info: PAIRLISTS PER CYCLE    2
Info: PAIRLISTS ENABLED
Info: MARGIN                 2
Info: HYDROGEN GROUP CUTOFF  2.5
Info: PATCH DIMENSION        15.5
Info: ENERGY OUTPUT STEPS    100000
Info: ENERGY EVALUATION STEPS    100000
Info: OUTPUT ENERGY PRECISION 4
Info: CROSSTERM ENERGY INCLUDED IN DIHEDRAL
Info: TIMING OUTPUT STEPS    1000000
Info: PRESSURE OUTPUT STEPS  100000
Info: ALCHEMICAL FEP ON
Info: FEP CURRENT LAMBDA VALUE     1
Info: FEP COMPARISON LAMBDA VALUE  0.95
Info: FEP INTRA-ALCHEMICAL NON-BONDED INTERACTIONS WILL BE RETAINED
Info: FEP INTRA-ALCHEMICAL BONDED INTERACTIONS WILL BE RETAINED
Info: FEP VDW SHIFTING COEFFICIENT 5
Info: FEP ELEC. ACTIVE FOR ANNIHILATED PARTICLES BETWEEN LAMBDA = 0 AND LAMBDA = 0.5
Info: FEP ELEC. ACTIVE FOR EXNIHILATED PARTICLES BETWEEN LAMBDA = 0.5 AND LAMBDA = 1
Info: FEP VDW ACTIVE FOR ANNIHILATED PARTICLES BETWEEN LAMBDA = 0 AND LAMBDA = 1
Info: FEP VDW ACTIVE FOR EXNIHILATED PARTICLES BETWEEN LAMBDA = 0 AND LAMBDA = 1
Info: FEP BOND ACTIVE FOR ANNIHILATED PARTICLES BETWEEN LAMBDA = 1 AND LAMBDA = 1
Info: FEP BOND ACTIVE FOR EXNIHILATED PARTICLES BETWEEN LAMBDA = 0 AND LAMBDA = 0
Info: LANGEVIN DYNAMICS ACTIVE
Info: LANGEVIN TEMPERATURE   300
Info: LANGEVIN USING BBK INTEGRATOR
Info: LANGEVIN DAMPING COEFFICIENT IS 1 INVERSE PS
Info: LANGEVIN DYNAMICS APPLIED TO HYDROGENS
Info: LANGEVIN PISTON PRESSURE CONTROL ACTIVE
Info:        TARGET PRESSURE IS 1.01325 BAR
Info:     OSCILLATION PERIOD IS 50 FS
Info:             DECAY TIME IS 25 FS
Info:     PISTON TEMPERATURE IS 300 K
Info:       PRESSURE CONTROL IS GROUP-BASED
Info:    INITIAL STRAIN RATE IS -0.000233279 -0.000233279 -0.000233279
Info:       CELL FLUCTUATION IS ISOTROPIC
Info: PARTICLE MESH EWALD (PME) ACTIVE
Info: PME TOLERANCE               1e-06
Info: PME EWALD COEFFICIENT       0.348832
Info: PME INTERPOLATION ORDER     4
Info: PME GRID DIMENSIONS         32 32 36
Info: PME MAXIMUM GRID SPACING    1
Info: PME CALCULATION WILL BE PERFORMED ON GPU
Info: FULL ELECTROSTATIC EVALUATION FREQUENCY      2
Info: USING VERLET I (r-RESPA) MTS SCHEME.
Info: C1 SPLITTING OF LONG RANGE ELECTROSTATICS
Info: PLACING ATOMS IN PATCHES BY HYDROGEN GROUPS
Info: RIGID BONDS TO HYDROGEN : ALL
Info:         ERROR TOLERANCE : 1e-08
Info:          MAX ITERATIONS : 100
Info: RIGID WATER USING SETTLE ALGORITHM
Info: RANDOM NUMBER SEED     1743940260
Info: USE HYDROGEN BONDS?    NO
Info: Using AMBER format force field!
Info: AMBER PARM FILE        mobley_5471704.prmtop
Info: COORDINATE PDB         mobley_5471704.pdb
Info: Exclusions will be read from PARM file!
Info: SCNB (VDW SCALING)     2
Info: USING ARITHMETIC MEAN TO COMBINE L-J SIGMA PARAMETERS
Info: BINARY COORDINATES     mobley_5471704_equil.coor
Info: SUMMARY OF PARAMETERS:
Info: 9 BONDS
Info: 12 ANGLES
Info:   12 HARMONIC
Info:   0 COSINE-BASED
Info: 20 DIHEDRAL
Info: 0 IMPROPER
Info: 0 CROSSTERM
Info: 0 VDW
Info: 36 VDW_PAIRS
Info: 0 NBTHOLE_PAIRS
Info: To read alchdata from file: mobley_5471704.pdb
Info: To read alchflag data from column: 5
Info: STRUCTURE SUMMARY:
Info: 2981 ATOMS
Info: 2980 BONDS
Info: 40 ANGLES
Info: 64 DIHEDRALS
Info: 0 IMPROPERS
Info: 0 CROSSTERMS
Info: 3067 EXCLUSIONS
Info: 2972 RIGID BONDS
Info: ALCH: 0 ATOMS TO DISAPPEAR IN FINAL STATE
Info: ALCH: 23 ATOMS TO APPEAR IN FINAL STATE
Info: 5971 DEGREES OF FREEDOM
Info: 995 HYDROGEN GROUPS
Info: 4 ATOMS IN LARGEST HYDROGEN GROUP
Info: 995 MIGRATION GROUPS
Info: 4 ATOMS IN LARGEST MIGRATION GROUP
Info: TOTAL MASS = 17894 amu
Info: TOTAL CHARGE = -9.99458e-05 e
Info: MASS DENSITY = 0.962779 g/cm^3
Info: ATOM DENSITY = 0.0965879 atoms/A^3
Info: ADDED 0 IMPLICIT EXCLUSIONS
Info: NONBONDED TABLE R-SQUARED SPACING: 0.0625
Info: NONBONDED TABLE SIZE: 705 POINTS
Info: REMOVING COM VELOCITY 0.0906783 0.0022868 0.141759
Info: Use 3D box decompostion in PME FFT.
Info: Updated CUDA force table with 4096 elements.
Info: Updated CUDA LJ table with 8 x 8 elements.
Info: Found 26 unique exclusion lists needing 84 bytes
TCL: Running for 1500000 steps
ETITLE: TS BOND ANGLE DIHED IMPRP ELECT VDW BOUNDARY MISC KINETIC TOTAL TEMP POTENTIAL TOTALAVG TEMPAVG PRESSURE GPRESSURE VOLUME PRESSAVG GPRESSAVG
ENERGY: 0 2.5333 10.7068 5.9733 0.0000 -10721.1942 1409.0721 0.0000 0.0000 1819.4073 -7473.5015 306.6714 -9292.9087 -7473.5015 306.6714 -226.6178 -153.8326 30863.0767 -226.6178 -153.8326
ENERGY: 300000 2.0740 7.7241 7.1103 0.0000 -10850.5343 1481.0975 0.0000 0.0000 1771.6678 -7580.8607 298.6246 -9352.5285 -7553.4980 303.0535 467.7405 494.3770 30422.6593 151.1635 213.6896
ENERGY: 600000 1.2386 6.9942 7.6046 0.0000 -10893.0910 1529.6526 0.0000 0.0000 1734.9554 -7612.6456 292.4365 -9347.6010 -7564.6220 303.0590 684.7358 760.8228 30358.5433 264.9671 326.2327
ENERGY: 900000 3.0230 7.3077 10.4542 0.0000 -10718.0490 1310.8168 0.0000 0.0000 1734.3560 -7652.0913 292.3355 -9386.4474 -7577.9026 301.6090 -1362.5038 -1269.0935 30773.5987 -45.9454 20.6473
ENERGY: 1200000 2.2744 10.9289 8.2082 0.0000 -10864.0311 1469.1339 0.0000 0.0000 1743.9950 -7629.4907 293.9602 -9373.4857 -7584.9050 300.7504 144.4190 152.8934 30637.8604 -83.1384 -15.5014
ENERGY: 1500000 2.3468 8.4385 10.1318 0.0000 -10704.9075 1416.0396 0.0000 0.0000 1797.8383 -7470.1125 303.0358 -9267.9508 -7564.4329 302.2300 -97.5553 -71.8938 30613.3553 1.5090 64.2227
TCL: Running FEP window   2: Lambda1 0.95   Lambda2 0.8999999999999999 [dLambda -0.050000000000000044]
TCL: Setting parameter firsttimestep to 0
TCL: Setting parameter alchLambda to 0.95
Info: NONBONDED TABLE R-SQUARED SPACING: 0.0625
Info: NONBONDED TABLE SIZE: 705 POINTS
TCL: Setting parameter alchLambda2 to 0.8999999999999999
Info: NONBONDED TABLE R-SQUARED SPACING: 0.0625
Info: NONBONDED TABLE SIZE: 705 POINTS
TCL: Running for 1500000 steps
ETITLE: TS BOND ANGLE DIHED IMPRP ELECT VDW BOUNDARY MISC KINETIC TOTAL TEMP POTENTIAL TOTALAVG TEMPAVG PRESSURE GPRESSURE VOLUME PRESSAVG GPRESSAVG
ENERGY: 0 2.3468 8.4385 10.1318 0.0000 -10703.7379 1416.2834 0.0000 0.0000 1796.9460 -7469.5915 302.8854 -9266.5374 -7469.5915 302.8854 -183.4397 -83.4309 30613.3553 -183.4397 -83.4309
ENERGY: 300000 3.8407 10.0172 7.2995 0.0000 -10727.5699 1398.6887 0.0000 0.0000 1769.9245 -7537.7995 298.3308 -9307.7240 -7530.3764 298.1841 -332.9109 -270.1955 30605.9588 18.8941 72.6839
ENERGY: 600000 1.7841 10.2824 7.2713 0.0000 -10963.8583 1541.9579 0.0000 0.0000 1789.9593 -7612.6033 301.7078 -9402.5627 -7547.9724 296.8634 611.1192 639.0627 30619.8166 183.6178 246.3242
ENERGY: 900000 1.7754 10.9380 5.9074 0.0000 -10750.4000 1420.8556 0.0000 0.0000 1791.1248 -7519.7989 301.9042 -9310.9237 -7537.6906 298.9065 189.6353 233.3898 30496.6907 87.6576 152.8608
ENERGY: 1200000 4.7679 10.4645 6.6537 0.0000 -10883.4992 1507.2404 0.0000 0.0000 1773.0410 -7581.3318 298.8561 -9354.3728 -7537.3489 299.8189 684.2427 792.0921 30252.1201 146.3059 216.8458
ENERGY: 1500000 5.3535 8.9379 7.0701 0.0000 -10662.4339 1332.1107 0.0000 0.0000 1768.8863 -7540.0754 298.1558 -9308.9618 -7540.0974 299.3866 -997.7908 -1010.3322 30944.5907 81.3572 148.1530
TCL: Running FEP window   3: Lambda1 0.8999999999999999 Lambda2 0.8499999999999999 [dLambda -0.050000000000000044]
TCL: Setting parameter firsttimestep to 0
TCL: Setting parameter alchLambda to 0.8999999999999999
Info: NONBONDED TABLE R-SQUARED SPACING: 0.0625
Info: NONBONDED TABLE SIZE: 705 POINTS
TCL: Setting parameter alchLambda2 to 0.8499999999999999
Info: NONBONDED TABLE R-SQUARED SPACING: 0.0625
Info: NONBONDED TABLE SIZE: 705 POINTS
TCL: Running for 1500000 steps
ETITLE: TS BOND ANGLE DIHED IMPRP ELECT VDW BOUNDARY MISC KINETIC TOTAL TEMP POTENTIAL TOTALAVG TEMPAVG PRESSURE GPRESSURE VOLUME PRESSAVG GPRESSAVG
ENERGY: 0 5.3535 8.9379 7.0701 0.0000 -10661.3297 1332.1846 0.0000 0.0000 1767.9766 -7539.8071 298.0024 -9307.7837 -7539.8071 298.0024 -1099.4402 -1023.2402 30944.5907 -1099.4402 -1023.2402
ENERGY: 300000 2.8169 11.1977 8.4018 0.0000 -10823.5083 1453.9828 0.0000 0.0000 1799.2673 -7547.8419 303.2767 -9347.1092 -7541.5852 301.2950 146.6163 158.0358 30352.2513 -440.7445 -395.3725
ENERGY: 600000 3.0261 7.6168 7.6614 0.0000 -10870.8543 1471.6365 0.0000 0.0000 1823.2432 -7557.6702 307.3179 -9380.9135 -7557.2693 300.7518 56.4008 165.3854 30727.3767 -254.2409 -204.3387
ENERGY: 900000 0.9495 8.9304 6.5522 0.0000 -10812.4299 1449.1151 0.0000 0.0000 1820.2529 -7526.6298 306.8139 -9346.8827 -7539.6922 302.4305 26.5515 39.0569 30958.8889 -90.7079 -33.3877
ENERGY: 1200000 1.1985 12.6591 6.7989 0.0000 -10949.1379 1518.2130 0.0000 0.0000 1836.8548 -7573.4137 309.6122 -9410.2685 -7539.6080 303.0395 408.3501 472.1077 30433.1673 -37.0738 20.9268
ENERGY: 1500000 2.3655 9.9684 8.5757 0.0000 -10888.0808 1449.8101 0.0000 0.0000 1809.6944 -7607.6667 305.0342 -9417.3611 -7550.8691 303.0548 -145.6306 -110.0471 30518.9884 -22.0559 32.6460
TCL: Running FEP window   4: Lambda1 0.8499999999999999 Lambda2 0.7999999999999998 [dLambda -0.050000000000000044]
TCL: Setting parameter firsttimestep to 0
TCL: Setting parameter alchLambda to 0.8499999999999999
Info: NONBONDED TABLE R-SQUARED SPACING: 0.0625
Info: NONBONDED TABLE SIZE: 705 POINTS
TCL: Setting parameter alchLambda2 to 0.7999999999999998
Info: NONBONDED TABLE R-SQUARED SPACING: 0.0625
Info: NONBONDED TABLE SIZE: 705 POINTS
TCL: Running for 1500000 steps
ETITLE: TS BOND ANGLE DIHED IMPRP ELECT VDW BOUNDARY MISC KINETIC TOTAL TEMP POTENTIAL TOTALAVG TEMPAVG PRESSURE GPRESSURE VOLUME PRESSAVG GPRESSAVG
ENERGY: 0 2.3655 9.9684 8.5757 0.0000 -10887.4396 1449.7918 0.0000 0.0000 1808.7963 -7607.9420 304.8828 -9416.7383 -7607.9420 304.8828 -208.5501 -127.2468 30518.9884 -208.5501 -127.2468
ENERGY: 300000 3.9225 10.0710 8.1174 0.0000 -10794.3512 1451.0472 0.0000 0.0000 1765.0340 -7556.1590 297.5064 -9321.1930 -7569.9835 299.3079 255.9979 288.3513 30353.5548 -215.5935 -149.7500
ENERGY: 600000 2.5436 9.2125 7.0779 0.0000 -10902.4139 1467.8662 0.0000 0.0000 1775.9335 -7639.7803 299.3436 -9415.7137 -7597.4906 297.6042 -118.1467 -27.9436 30716.3832 -229.6426 -167.8684
ENERGY: 900000 4.1602 10.0148 7.4101 0.0000 -10739.7474 1423.3055 0.0000 0.0000 1788.8989 -7505.9579 301.5290 -9294.8568 -7596.7793 296.9940 -231.1477 -187.4587 30788.6215 -234.8415 -183.4003
ENERGY: 1200000 0.8843 17.7435 6.7062 0.0000 -10797.5937 1433.1403 0.0000 0.0000 1754.9195 -7584.1998 295.8016 -9339.1193 -7583.5384 297.5542 -215.9167 -127.2173 30703.4664 -130.1334 -75.6858
ENERGY: 1500000 2.0560 12.8760 7.5336 0.0000 -10766.3247 1390.7887 0.0000 0.0000 1804.5627 -7548.5077 304.1692 -9353.0704 -7568.9787 299.0922 -351.3629 -249.6034 30612.1929 -153.2256 -98.4962
TCL: Running FEP window   5: Lambda1 0.7999999999999998 Lambda2 0.7499999999999998 [dLambda -0.050000000000000044]
TCL: Setting parameter firsttimestep to 0
TCL: Setting parameter alchLambda to 0.7999999999999998
Info: NONBONDED TABLE R-SQUARED SPACING: 0.0625
Info: NONBONDED TABLE SIZE: 705 POINTS
TCL: Setting parameter alchLambda2 to 0.7499999999999998
Info: NONBONDED TABLE R-SQUARED SPACING: 0.0625
Info: NONBONDED TABLE SIZE: 705 POINTS
TCL: Running for 1500000 steps
ETITLE: TS BOND ANGLE DIHED IMPRP ELECT VDW BOUNDARY MISC KINETIC TOTAL TEMP POTENTIAL TOTALAVG TEMPAVG PRESSURE GPRESSURE VOLUME PRESSAVG GPRESSAVG
ENERGY: 0 2.0560 12.8760 7.5336 0.0000 -10764.9849 1391.0531 0.0000 0.0000 1803.6612 -7547.8049 304.0173 -9351.4661 -7547.8049 304.0173 -345.0517 -256.7331 30612.1929 -345.0517 -256.7331
ENERGY: 300000 5.3061 9.1920 10.6193 0.0000 -10770.8647 1372.0843 0.0000 0.0000 1744.0457 -7629.6173 293.9688 -9373.6630 -7589.2463 301.0657 -474.0965 -373.5624 30142.6708 -306.3135 -220.5322
ENERGY: 600000 2.9373 12.2287 8.2073 0.0000 -10828.6913 1470.9048 0.0000 0.0000 1791.8557 -7542.5574 302.0274 -9334.4132 -7565.5819 301.9488 96.3508 212.7429 30983.3632 -239.3731 -154.6132
ENERGY: 900000 2.7857 10.0163 6.4473 0.0000 -10843.6499 1525.8197 0.0000 0.0000 1760.6354 -7537.9454 296.7651 -9298.5809 -7547.1007 303.3551 460.5995 509.0424 30899.6154 -171.4289 -102.4126
ENERGY: 1200000 4.6353 6.8987 8.0202 0.0000 -10918.9120 1499.8928 0.0000 0.0000 1763.8741 -7635.5909 297.3109 -9399.4650 -7539.4538 303.2369 220.7739 309.6427 30716.7500 -100.8663 -27.9891
ENERGY: 1500000 1.5596 6.4422 8.9507 0.0000 -10738.2564 1471.5010 0.0000 0.0000 1731.2169 -7518.5861 291.8064 -9249.8030 -7538.9622 302.9389 424.2454 474.9425 30797.6845 -27.0969 40.4809
TCL: Running FEP window   6: Lambda1 0.7499999999999998 Lambda2 0.6999999999999997 [dLambda -0.050000000000000044]
TCL: Setting parameter firsttimestep to 0
TCL: Setting parameter alchLambda to 0.7499999999999998
Info: NONBONDED TABLE R-SQUARED SPACING: 0.0625
Info: NONBONDED TABLE SIZE: 705 POINTS
TCL: Setting parameter alchLambda2 to 0.6999999999999997
Info: NONBONDED TABLE R-SQUARED SPACING: 0.0625
Info: NONBONDED TABLE SIZE: 705 POINTS
TCL: Running for 1500000 steps
ETITLE: TS BOND ANGLE DIHED IMPRP ELECT VDW BOUNDARY MISC KINETIC TOTAL TEMP POTENTIAL TOTALAVG TEMPAVG PRESSURE GPRESSURE VOLUME PRESSAVG GPRESSAVG
ENERGY: 0 1.5596 6.4422 8.9507 0.0000 -10737.7614 1471.2835 0.0000 0.0000 1730.3215 -7519.2039 291.6555 -9249.5254 -7519.2039 291.6555 388.8860 461.4362 30797.6845 388.8860 461.4362
ENERGY: 300000 2.7209 11.1040 7.2109 0.0000 -10674.7985 1341.6187 0.0000 0.0000 1740.5918 -7571.5522 293.3866 -9312.1440 -7568.6915 292.7665 -619.9869 -589.9227 30495.3967 -126.6709 -74.3106
ENERGY: 600000 1.0811 13.2479 10.7177 0.0000 -10926.5014 1529.9330 0.0000 0.0000 1837.3788 -7534.1427 309.7006 -9371.5216 -7544.8323 296.6668 696.1679 781.1147 30539.3815 87.0219 149.0765
ENERGY: 900000 2.9736 7.8211 6.9350 0.0000 -10816.5857 1447.4685 0.0000 0.0000 1782.0537 -7569.3338 300.3752 -9351.3875 -7541.3331 298.9730 -24.9804 62.2975 30424.4418 101.9845 171.4781
ENERGY: 1200000 2.3372 9.4901 7.2404 0.0000 -10794.7897 1407.7311 0.0000 0.0000 1743.9225 -7624.0684 293.9480 -9367.9909 -7544.3301 299.0942 -499.7026 -397.9411 30554.4439 37.6966 106.6728
ENERGY: 1500000 6.0091 7.7300 7.2965 0.0000 -10810.9180 1425.8090 0.0000 0.0000 1792.4508 -7571.6227 302.1277 -9364.0735 -7546.6923 299.0774 -118.4470 -119.5685 30608.0986 4.6001 64.7282
TCL: Running FEP window   7: Lambda1 0.6999999999999997 Lambda2 0.6499999999999997 [dLambda -0.050000000000000044]
TCL: Setting parameter firsttimestep to 0
TCL: Setting parameter alchLambda to 0.6999999999999997
Info: NONBONDED TABLE R-SQUARED SPACING: 0.0625
Info: NONBONDED TABLE SIZE: 705 POINTS
TCL: Setting parameter alchLambda2 to 0.6499999999999997
Info: NONBONDED TABLE R-SQUARED SPACING: 0.0625
Info: NONBONDED TABLE SIZE: 705 POINTS
TCL: Running for 1500000 steps
ETITLE: TS BOND ANGLE DIHED IMPRP ELECT VDW BOUNDARY MISC KINETIC TOTAL TEMP POTENTIAL TOTALAVG TEMPAVG PRESSURE GPRESSURE VOLUME PRESSAVG GPRESSAVG
ENERGY: 0 6.0091 7.7300 7.2965 0.0000 -10809.8328 1425.9281 0.0000 0.0000 1791.5335 -7571.3358 301.9731 -9362.8692 -7571.3358 301.9731 -203.7057 -127.9480 30608.0986 -203.7057 -127.9480
ENERGY: 300000 2.6744 11.8357 6.5093 0.0000 -10779.1869 1451.9697 0.0000 0.0000 1798.6237 -7507.5740 303.1682 -9306.1977 -7548.0414 301.0808 13.7456 -19.1898 31037.5799 -85.1108 -36.5951
ENERGY: 600000 1.2857 16.1705 9.1947 0.0000 -10678.1617 1376.7224 0.0000 0.0000 1788.8933 -7485.8951 301.5281 -9274.7885 -7540.9488 300.4783 -235.6633 -224.7309 30336.8672 45.5741 86.7178
ENERGY: 900000 1.0841 12.5408 6.7546 0.0000 -10733.4707 1427.8252 0.0000 0.0000 1772.9692 -7512.2969 298.8440 -9285.2661 -7543.7934 300.1434 9.6563 31.1069 30901.3891 148.8823 189.7872
ENERGY: 1200000 2.0283 11.4128 6.3269 0.0000 -10855.8378 1506.6151 0.0000 0.0000 1799.3764 -7530.0783 303.2951 -9329.4548 -7549.4348 299.2642 489.3424 547.1229 30721.9853 116.3320 163.3764
ENERGY: 1500000 2.8034 15.1915 6.8027 0.0000 -10844.4264 1480.2140 0.0000 0.0000 1742.6718 -7596.7429 293.7372 -9339.4148 -7550.3692 299.0522 571.3536 612.7697 30510.5081 113.3453 165.8315
TCL: Running FEP window   8: Lambda1 0.6499999999999997 Lambda2 0.5999999999999996 [dLambda -0.050000000000000044]
TCL: Setting parameter firsttimestep to 0
TCL: Setting parameter alchLambda to 0.6499999999999997
Info: NONBONDED TABLE R-SQUARED SPACING: 0.0625
Info: NONBONDED TABLE SIZE: 705 POINTS
TCL: Setting parameter alchLambda2 to 0.5999999999999996
Info: NONBONDED TABLE R-SQUARED SPACING: 0.0625
Info: NONBONDED TABLE SIZE: 705 POINTS
TCL: Running for 1500000 steps
ETITLE: TS BOND ANGLE DIHED IMPRP ELECT VDW BOUNDARY MISC KINETIC TOTAL TEMP POTENTIAL TOTALAVG TEMPAVG PRESSURE GPRESSURE VOLUME PRESSAVG GPRESSAVG
ENERGY: 0 2.8034 15.1915 6.8027 0.0000 -10843.4571 1480.5082 0.0000 0.0000 1741.7855 -7596.3658 293.5878 -9338.1513 -7596.3658 293.5878 529.6758 604.8210 30510.5081 529.6758 604.8210
ENERGY: 300000 1.5665 16.6708 6.1532 0.0000 -10741.5574 1483.6677 0.0000 0.0000 1780.7016 -7452.7975 300.1473 -9233.4991 -7555.4823 297.1015 272.3632 388.8532 30830.4221 238.9506 308.8300
ENERGY: 600000 3.2857 10.4875 5.5492 0.0000 -10755.6810 1423.4955 0.0000 0.0000 1759.0451 -7553.8180 296.4970 -9312.8631 -7557.9049 299.8997 -252.5381 -249.1212 30723.5788 36.3859 95.6568
ENERGY: 900000 2.1586 13.2046 8.5458 0.0000 -10836.3213 1531.0366 0.0000 0.0000 1780.5607 -7500.8151 300.1236 -9281.3758 -7555.3093 299.5131 307.2547 417.9661 31394.8683 12.1744 69.7467
ENERGY: 1200000 1.4764 8.1250 7.2670 0.0000 -10797.2008 1456.4970 0.0000 0.0000 1801.2482 -7522.5872 303.6106 -9323.8354 -7558.6554 299.1231 30.9505 162.8388 30995.9569 15.0482 80.0871
ENERGY: 1500000 0.6136 9.8311 5.8997 0.0000 -10826.4097 1437.2028 0.0000 0.0000 1744.1768 -7628.6857 293.9908 -9372.8625 -7560.1901 299.1785 -606.8525 -526.6563 31045.6074 12.4478 78.5767
TCL: Running FEP window   9: Lambda1 0.5999999999999996 Lambda2 0.5499999999999996 [dLambda -0.050000000000000044]
TCL: Setting parameter firsttimestep to 0
TCL: Setting parameter alchLambda to 0.5999999999999996
Info: NONBONDED TABLE R-SQUARED SPACING: 0.0625
Info: NONBONDED TABLE SIZE: 705 POINTS
TCL: Setting parameter alchLambda2 to 0.5499999999999996
Info: NONBONDED TABLE R-SQUARED SPACING: 0.0625
Info: NONBONDED TABLE SIZE: 705 POINTS
TCL: Running for 1500000 steps
ETITLE: TS BOND ANGLE DIHED IMPRP ELECT VDW BOUNDARY MISC KINETIC TOTAL TEMP POTENTIAL TOTALAVG TEMPAVG PRESSURE GPRESSURE VOLUME PRESSAVG GPRESSAVG
ENERGY: 0 0.6136 9.8311 5.8997 0.0000 -10825.6713 1437.0748 0.0000 0.0000 1743.2983 -7628.9537 293.8428 -9372.2520 -7628.9537 293.8428 -622.5761 -539.6082 31045.6074 -622.5761 -539.6082
ENERGY: 300000 4.1403 10.0712 7.0455 0.0000 -10878.6151 1474.2572 0.0000 0.0000 1794.3572 -7588.7437 302.4491 -9383.1009 -7589.9947 295.3944 179.9353 207.8050 30330.9722 -401.3760 -368.4049
ENERGY: 600000 3.1838 8.4425 8.3711 0.0000 -10830.0149 1422.3527 0.0000 0.0000 1781.9454 -7605.7194 300.3570 -9387.6648 -7568.0474 297.7089 -132.3543 -100.0381 30312.7218 -150.7148 -108.5491
ENERGY: 900000 4.6264 12.7602 7.2508 0.0000 -10644.1189 1328.0711 0.0000 0.0000 1777.6859 -7513.7244 299.6390 -9291.4104 -7543.9212 299.5783 -1087.9950 -1016.7555 30934.1169 -155.2306 -106.9855
ENERGY: 1200000 2.5250 5.2392 8.3004 0.0000 -10794.1837 1395.3611 0.0000 0.0000 1798.4509 -7584.3070 303.1391 -9382.7579 -7551.4545 299.7531 -372.3259 -302.6088 30388.3317 -148.3562 -99.9992
ENERGY: 1500000 5.2228 8.4564 8.1056 0.0000 -10715.8151 1363.9408 0.0000 0.0000 1741.5187 -7588.5709 293.5428 -9330.0896 -7555.7704 298.7301 -998.0827 -933.7376 30983.5983 -177.7369 -126.6736
TCL: Running FEP window  10: Lambda1 0.5499999999999996 Lambda2 0.4999999999999996 [dLambda -0.04999999999999999]
TCL: Setting parameter firsttimestep to 0
TCL: Setting parameter alchLambda to 0.5499999999999996
Info: NONBONDED TABLE R-SQUARED SPACING: 0.0625
Info: NONBONDED TABLE SIZE: 705 POINTS
TCL: Setting parameter alchLambda2 to 0.4999999999999996
Info: NONBONDED TABLE R-SQUARED SPACING: 0.0625
Info: NONBONDED TABLE SIZE: 705 POINTS
TCL: Running for 1500000 steps
ETITLE: TS BOND ANGLE DIHED IMPRP ELECT VDW BOUNDARY MISC KINETIC TOTAL TEMP POTENTIAL TOTALAVG TEMPAVG PRESSURE GPRESSURE VOLUME PRESSAVG GPRESSAVG
ENERGY: 0 5.2228 8.4564 8.1056 0.0000 -10715.3926 1364.1281 0.0000 0.0000 1740.6087 -7588.8709 293.3894 -9329.4797 -7588.8709 293.3894 -1021.6117 -941.2226 30983.5983 -1021.6117 -941.2226
ENERGY: 300000 1.7922 9.3974 6.9306 0.0000 -10632.1445 1350.7597 0.0000 0.0000 1739.8288 -7523.4359 293.2580 -9263.2647 -7555.1691 296.8232 -812.9859 -745.5870 30892.1265 -547.9551 -474.9125
ENERGY: 600000 1.7845 10.7034 8.8863 0.0000 -10818.8876 1436.5904 0.0000 0.0000 1783.0750 -7577.8480 300.5474 -9360.9230 -7550.7038 298.1494 -202.0247 -146.7838 30629.3011 -344.7992 -279.2674
ENERGY: 900000 2.2361 9.5877 8.4536 0.0000 -10892.2732 1486.0933 0.0000 0.0000 1788.7569 -7597.1458 301.5051 -9385.9027 -7550.2345 300.1408 123.6948 153.2356 30576.3106 -185.4559 -127.8676
ENERGY: 1200000 2.6401 11.1064 6.2877 0.0000 -10711.8032 1437.4089 0.0000 0.0000 1836.8407 -7417.5194 309.6099 -9254.3600 -7541.3999 300.9448 138.9330 208.1843 30385.2394 -114.8112 -47.1767
ENERGY: 1500000 3.1455 11.3668 6.9915 0.0000 -10713.7049 1427.1344 0.0000 0.0000 1792.6446 -7472.4220 302.1604 -9265.0666 -7535.3326 300.7244 87.0370 41.2261 30402.4755 -172.4441 -107.1923
TCL: Running FEP window  11: Lambda1 0.4999999999999996 Lambda2 0.4499999999999996 [dLambda -0.04999999999999999]
TCL: Setting parameter firsttimestep to 0
TCL: Setting parameter alchLambda to 0.4999999999999996
Info: NONBONDED TABLE R-SQUARED SPACING: 0.0625
Info: NONBONDED TABLE SIZE: 705 POINTS
TCL: Setting parameter alchLambda2 to 0.4499999999999996
Info: NONBONDED TABLE R-SQUARED SPACING: 0.0625
Info: NONBONDED TABLE SIZE: 705 POINTS
TCL: Running for 1500000 steps
ETITLE: TS BOND ANGLE DIHED IMPRP ELECT VDW BOUNDARY MISC KINETIC TOTAL TEMP POTENTIAL TOTALAVG TEMPAVG PRESSURE GPRESSURE VOLUME PRESSAVG GPRESSAVG
ENERGY: 0 3.1455 11.3668 6.9915 0.0000 -10712.5971 1426.8884 0.0000 0.0000 1791.7807 -7472.4241 302.0148 -9264.2048 -7472.4241 302.0148 -59.8100 32.8216 30402.4755 -59.8100 32.8216
ENERGY: 300000 3.3856 11.9015 6.5487 0.0000 -10837.8223 1439.4402 0.0000 0.0000 1834.9661 -7541.5802 309.2939 -9376.5463 -7543.1827 303.2563 -122.4459 -35.1718 30530.1062 -204.7685 -115.7946
ENERGY: 600000 2.2321 6.9950 7.4587 0.0000 -10777.7226 1425.4529 0.0000 0.0000 1816.8349 -7518.7490 306.2378 -9335.5839 -7542.8876 303.2069 -26.0345 36.4363 30184.5918 -37.6725 40.1259
ENERGY: 900000 3.2474 7.6548 8.3162 0.0000 -10798.3194 1506.3270 0.0000 0.0000 1835.4221 -7437.3519 309.3708 -9272.7740 -7532.6584 302.8350 619.1500 621.2565 30599.8700 -18.0660 47.8410
ENERGY: 1200000 1.1798 12.6439 5.3079 0.0000 -10826.8366 1484.0326 0.0000 0.0000 1775.9815 -7547.6909 299.3517 -9323.6724 -7538.5277 301.8083 340.7979 419.2495 30408.1923 2.1438 70.9239
ENERGY: 1500000 2.6578 9.8399 8.2343 0.0000 -10712.3797 1404.7146 0.0000 0.0000 1782.8361 -7504.0970 300.5071 -9286.9331 -7541.8066 300.6701 -207.3424 -144.0617 30465.9813 -30.7436 36.3137
TCL: Running FEP window  12: Lambda1 0.4499999999999996 Lambda2 0.39999999999999963 [dLambda -0.04999999999999999]
TCL: Setting parameter firsttimestep to 0
TCL: Setting parameter alchLambda to 0.4499999999999996
Info: NONBONDED TABLE R-SQUARED SPACING: 0.0625
Info: NONBONDED TABLE SIZE: 705 POINTS
TCL: Setting parameter alchLambda2 to 0.39999999999999963
Info: NONBONDED TABLE R-SQUARED SPACING: 0.0625
Info: NONBONDED TABLE SIZE: 705 POINTS
TCL: Running for 1500000 steps
ETITLE: TS BOND ANGLE DIHED IMPRP ELECT VDW BOUNDARY MISC KINETIC TOTAL TEMP POTENTIAL TOTALAVG TEMPAVG PRESSURE GPRESSURE VOLUME PRESSAVG GPRESSAVG
ENERGY: 0 2.6578 9.8399 8.2343 0.0000 -10712.3804 1405.4988 0.0000 0.0000 1781.9771 -7504.1726 300.3623 -9286.1496 -7504.1726 300.3623 -227.5726 -142.5869 30465.9813 -227.5726 -142.5869
ENERGY: 300000 4.3061 10.0083 5.9244 0.0000 -10619.7669 1353.7331 0.0000 0.0000 1772.6963 -7473.0987 298.7980 -9245.7950 -7552.1909 298.7571 -615.0677 -608.7488 30781.2666 -376.4987 -297.2402
ENERGY: 600000 1.4362 12.7915 9.0319 0.0000 -10729.3538 1441.1797 0.0000 0.0000 1794.5180 -7470.3965 302.4761 -9264.9145 -7520.9267 301.2987 9.6922 46.3882 30784.4409 -99.1734 -21.5808
ENERGY: 900000 2.8718 9.5565 7.0946 0.0000 -10822.0464 1412.8495 0.0000 0.0000 1751.0874 -7638.5865 295.1557 -9389.6740 -7542.6258 300.0358 -467.4286 -361.2964 30516.6934 4.7662 79.7109
ENERGY: 1200000 7.3516 13.3246 7.3182 0.0000 -10775.5157 1489.3388 0.0000 0.0000 1806.6839 -7451.4986 304.5268 -9258.1826 -7533.3275 301.2078 278.4964 331.8577 30999.1406 -11.2950 58.7071
ENERGY: 1500000 2.5722 7.8395 8.3036 0.0000 -10822.9472 1429.6564 0.0000 0.0000 1733.0896 -7641.4859 292.1221 -9374.5755 -7534.6864 301.1535 -435.2039 -376.3074 30697.7557 -67.5582 -0.9644
TCL: Running FEP window  13: Lambda1 0.39999999999999963 Lambda2 0.34999999999999964 [dLambda -0.04999999999999999]
TCL: Setting parameter firsttimestep to 0
TCL: Setting parameter alchLambda to 0.39999999999999963
Info: NONBONDED TABLE R-SQUARED SPACING: 0.0625
Info: NONBONDED TABLE SIZE: 705 POINTS
TCL: Setting parameter alchLambda2 to 0.34999999999999964
Info: NONBONDED TABLE R-SQUARED SPACING: 0.0625
Info: NONBONDED TABLE SIZE: 705 POINTS
TCL: Running for 1500000 steps
ETITLE: TS BOND ANGLE DIHED IMPRP ELECT VDW BOUNDARY MISC KINETIC TOTAL TEMP POTENTIAL TOTALAVG TEMPAVG PRESSURE GPRESSURE VOLUME PRESSAVG GPRESSAVG
ENERGY: 0 2.5722 7.8395 8.3036 0.0000 -10822.9473 1429.2474 0.0000 0.0000 1732.2048 -7642.7798 291.9729 -9374.9846 -7642.7798 291.9729 -464.9918 -385.9374 30697.7557 -464.9918 -385.9374
ENERGY: 300000 2.9962 7.5614 7.9450 0.0000 -10755.9998 1359.1914 0.0000 0.0000 1740.1247 -7638.1811 293.3079 -9378.3059 -7539.8685 299.2351 -743.4737 -709.1757 30604.8007 -434.4029 -375.5474
ENERGY: 600000 4.9342 10.2704 9.2069 0.0000 -10739.1348 1331.6510 0.0000 0.0000 1780.6039 -7602.4684 300.1308 -9383.0723 -7532.5906 300.2287 -1170.8910 -1142.3566 30584.9254 -404.8408 -344.6804
ENERGY: 900000 2.2065 10.5440 6.6181 0.0000 -10846.2961 1497.8180 0.0000 0.0000 1813.0733 -7516.0362 305.6037 -9329.1095 -7543.4667 300.1350 414.8648 450.6602 30378.0362 -369.1984 -301.4445
ENERGY: 1200000 2.3272 7.8756 7.4437 0.0000 -10734.0217 1431.8049 0.0000 0.0000 1844.3508 -7440.2195 310.8758 -9284.5703 -7525.4471 301.0765 -67.7082 -56.3017 31075.3453 -338.3169 -278.7397
ENERGY: 1500000 3.0938 11.4551 6.1929 0.0000 -10669.5191 1408.4338 0.0000 0.0000 1776.9050 -7463.4384 299.5074 -9240.3434 -7527.5754 300.7788 -311.5921 -229.7725 31096.2192 -330.8325 -272.9023
TCL: Running FEP window  14: Lambda1 0.34999999999999964 Lambda2 0.29999999999999966 [dLambda -0.04999999999999999]
TCL: Setting parameter firsttimestep to 0
TCL: Setting parameter alchLambda to 0.34999999999999964
Info: NONBONDED TABLE R-SQUARED SPACING: 0.0625
Info: NONBONDED TABLE SIZE: 705 POINTS
TCL: Setting parameter alchLambda2 to 0.29999999999999966
Info: NONBONDED TABLE R-SQUARED SPACING: 0.0625
Info: NONBONDED TABLE SIZE: 705 POINTS
TCL: Running for 1500000 steps
ETITLE: TS BOND ANGLE DIHED IMPRP ELECT VDW BOUNDARY MISC KINETIC TOTAL TEMP POTENTIAL TOTALAVG TEMPAVG PRESSURE GPRESSURE VOLUME PRESSAVG GPRESSAVG
ENERGY: 0 3.0938 11.4551 6.1929 0.0000 -10669.5192 1409.0131 0.0000 0.0000 1776.0259 -7463.7383 299.3592 -9239.7642 -7463.7383 299.3592 -322.0664 -231.2481 31096.2192 -322.0664 -231.2481
ENERGY: 300000 4.0005 13.7692 11.4364 0.0000 -10796.6913 1483.5711 0.0000 0.0000 1755.2827 -7528.6314 295.8628 -9283.9141 -7553.8383 301.0548 289.6271 347.5093 30245.5837 41.1992 97.1134
ENERGY: 600000 2.0748 8.8880 6.1119 0.0000 -10725.1779 1447.7651 0.0000 0.0000 1793.9973 -7466.3410 302.3884 -9260.3382 -7557.9985 299.7460 -84.4260 -41.8005 31051.2198 -26.6258 15.5576
ENERGY: 900000 1.8469 13.0048 7.8267 0.0000 -10674.4198 1414.3216 0.0000 0.0000 1768.7928 -7468.6270 298.1400 -9237.4197 -7537.3610 299.6904 -260.3222 -195.2584 31094.3692 -24.2207 20.3852
ENERGY: 1200000 0.8976 9.4224 9.2358 0.0000 -10847.1328 1492.6176 0.0000 0.0000 1773.8238 -7561.1356 298.9880 -9334.9594 -7541.3018 300.1470 168.2017 291.3264 30732.6850 -41.0266 12.1931
ENERGY: 1500000 4.7135 10.9094 6.9423 0.0000 -10727.2178 1439.4773 0.0000 0.0000 1815.6662 -7449.5093 306.0408 -9265.1754 -7550.1356 299.5406 75.4309 189.3701 30662.5839 6.2737 63.0991
TCL: Running FEP window  15: Lambda1 0.29999999999999966 Lambda2 0.24999999999999967 [dLambda -0.04999999999999999]
TCL: Setting parameter firsttimestep to 0
TCL: Setting parameter alchLambda to 0.29999999999999966
Info: NONBONDED TABLE R-SQUARED SPACING: 0.0625
Info: NONBONDED TABLE SIZE: 705 POINTS
TCL: Setting parameter alchLambda2 to 0.24999999999999967
Info: NONBONDED TABLE R-SQUARED SPACING: 0.0625
Info: NONBONDED TABLE SIZE: 705 POINTS
TCL: Running for 1500000 steps
ETITLE: TS BOND ANGLE DIHED IMPRP ELECT VDW BOUNDARY MISC KINETIC TOTAL TEMP POTENTIAL TOTALAVG TEMPAVG PRESSURE GPRESSURE VOLUME PRESSAVG GPRESSAVG
ENERGY: 0 4.7135 10.9094 6.9423 0.0000 -10727.2180 1439.4503 0.0000 0.0000 1814.7357 -7450.4669 305.8839 -9265.2026 -7450.4669 305.8839 97.5470 184.7678 30662.5839 97.5470 184.7678
ENERGY: 300000 4.8419 15.7512 6.5580 0.0000 -10778.0684 1446.9761 0.0000 0.0000 1800.3058 -7503.6354 303.4517 -9303.9413 -7512.1772 302.4024 -302.2233 -251.5529 31240.1204 581.1640 643.6460
ENERGY: 600000 1.6799 9.2199 6.8252 0.0000 -10859.0166 1515.5115 0.0000 0.0000 1757.9851 -7567.7950 296.3183 -9325.7801 -7537.3935 301.0236 224.7256 246.6237 30758.7132 410.8520 450.2195
ENERGY: 900000 1.3525 15.1570 6.3157 0.0000 -10799.9862 1482.0270 0.0000 0.0000 1717.0390 -7578.0950 289.4166 -9295.1340 -7547.5157 299.3116 499.1747 523.3451 30256.3069 385.1897 435.9275
ENERGY: 1200000 2.0811 15.1951 7.3503 0.0000 -10760.6816 1457.1563 0.0000 0.0000 1701.2538 -7577.6451 286.7559 -9278.8988 -7540.2348 298.1842 88.6174 115.0148 30537.2846 331.5641 383.6939
ENERGY: 1500000 1.6474 11.2018 7.4536 0.0000 -10717.2071 1364.7706 0.0000 0.0000 1702.4486 -7629.6851 286.9573 -9332.1336 -7546.6837 297.4656 -1119.9418 -1049.3932 31382.0191 165.4828 220.6665
TCL: Running FEP window  16: Lambda1 0.24999999999999967 Lambda2 0.19999999999999968 [dLambda -0.04999999999999999]
TCL: Setting parameter firsttimestep to 0
TCL: Setting parameter alchLambda to 0.24999999999999967
Info: NONBONDED TABLE R-SQUARED SPACING: 0.0625
Info: NONBONDED TABLE SIZE: 705 POINTS
TCL: Setting parameter alchLambda2 to 0.19999999999999968
Info: NONBONDED TABLE R-SQUARED SPACING: 0.0625
Info: NONBONDED TABLE SIZE: 705 POINTS
TCL: Running for 1500000 steps
ETITLE: TS BOND ANGLE DIHED IMPRP ELECT VDW BOUNDARY MISC KINETIC TOTAL TEMP POTENTIAL TOTALAVG TEMPAVG PRESSURE GPRESSURE VOLUME PRESSAVG GPRESSAVG
ENERGY: 0 1.6474 11.2018 7.4536 0.0000 -10717.2061 1365.3638 0.0000 0.0000 1701.5688 -7629.9707 286.8090 -9331.5395 -7629.9707 286.8090 -1123.3079 -1050.5123 31382.0191 -1123.3079 -1050.5123
ENERGY: 300000 7.7081 12.4774 7.7479 0.0000 -10629.0982 1370.1770 0.0000 0.0000 1722.7522 -7508.2355 290.3796 -9230.9877 -7552.1632 293.9373 -462.5419 -463.7048 30609.1379 -357.2727 -320.0973
ENERGY: 600000 2.6129 12.2912 8.3196 0.0000 -10700.5744 1388.8635 0.0000 0.0000 1777.4747 -7511.0124 299.6034 -9288.4871 -7553.2461 294.8761 -400.3656 -349.0475 30732.4919 -280.3015 -236.7125
ENERGY: 900000 5.0423 12.7003 10.8352 0.0000 -10817.2209 1438.8811 0.0000 0.0000 1717.9811 -7631.7808 289.5754 -9349.7620 -7559.6690 295.0664 -509.9902 -425.9740 30724.4268 -338.8288 -291.8335
ENERGY: 1200000 1.3613 7.7297 6.1082 0.0000 -10761.4126 1453.4620 0.0000 0.0000 1768.1037 -7524.6478 298.0239 -9292.7514 -7560.9119 295.6883 80.7988 124.9715 30812.6641 -348.1854 -300.8321
ENERGY: 1500000 2.9915 12.1322 5.8972 0.0000 -10795.6125 1438.9258 0.0000 0.0000 1771.1497 -7564.5161 298.5373 -9335.6658 -7555.7470 296.8213 -143.5540 -91.7437 30346.8732 -240.0501 -186.3480
TCL: Running FEP window  17: Lambda1 0.19999999999999968 Lambda2 0.1499999999999997 [dLambda -0.04999999999999999]
TCL: Setting parameter firsttimestep to 0
TCL: Setting parameter alchLambda to 0.19999999999999968
Info: NONBONDED TABLE R-SQUARED SPACING: 0.0625
Info: NONBONDED TABLE SIZE: 705 POINTS
TCL: Setting parameter alchLambda2 to 0.1499999999999997
Info: NONBONDED TABLE R-SQUARED SPACING: 0.0625
Info: NONBONDED TABLE SIZE: 705 POINTS
TCL: Running for 1500000 steps
ETITLE: TS BOND ANGLE DIHED IMPRP ELECT VDW BOUNDARY MISC KINETIC TOTAL TEMP POTENTIAL TOTALAVG TEMPAVG PRESSURE GPRESSURE VOLUME PRESSAVG GPRESSAVG
ENERGY: 0 2.9915 12.1322 5.8972 0.0000 -10795.6129 1438.4341 0.0000 0.0000 1770.2638 -7565.8940 298.3880 -9336.1578 -7565.8940 298.3880 -175.5136 -99.2297 30346.8732 -175.5136 -99.2297
ENERGY: 300000 2.8970 10.2065 6.3325 0.0000 -10934.6483 1537.0812 0.0000 0.0000 1721.8822 -7656.2490 290.2330 -9378.1312 -7569.6252 300.0758 615.2293 687.4527 30228.0672 476.0834 554.3225
ENERGY: 600000 2.7623 8.8266 7.5090 0.0000 -10747.6163 1447.8713 0.0000 0.0000 1839.9956 -7440.6515 310.1417 -9280.6471 -7533.4721 302.4723 -67.5789 -8.1689 30857.1376 212.3464 287.9147
ENERGY: 900000 1.8677 10.1171 5.6076 0.0000 -10825.0858 1458.1991 0.0000 0.0000 1786.2119 -7563.0824 301.0761 -9349.2943 -7540.6834 303.1241 -8.0884 84.2842 30556.8078 107.0255 185.7556
ENERGY: 1200000 2.3906 10.1222 8.8425 0.0000 -10781.2275 1541.0720 0.0000 0.0000 1794.7475 -7424.0526 302.5148 -9218.8001 -7536.4871 302.1635 776.7211 762.8101 31379.2897 65.2994 135.4365
ENERGY: 1500000 2.8641 9.1951 4.4895 0.0000 -10719.7191 1444.3633 0.0000 0.0000 1789.9459 -7468.8611 301.7055 -9258.8070 -7534.8828 302.4373 -203.6380 -126.9855 31099.5271 96.1171 159.8927
TCL: Running FEP window  18: Lambda1 0.1499999999999997 Lambda2 0.09999999999999969 [dLambda -0.05 ]
TCL: Setting parameter firsttimestep to 0
TCL: Setting parameter alchLambda to 0.1499999999999997
Info: NONBONDED TABLE R-SQUARED SPACING: 0.0625
Info: NONBONDED TABLE SIZE: 705 POINTS
TCL: Setting parameter alchLambda2 to 0.09999999999999969
Info: NONBONDED TABLE R-SQUARED SPACING: 0.0625
Info: NONBONDED TABLE SIZE: 705 POINTS
TCL: Running for 1500000 steps
ETITLE: TS BOND ANGLE DIHED IMPRP ELECT VDW BOUNDARY MISC KINETIC TOTAL TEMP POTENTIAL TOTALAVG TEMPAVG PRESSURE GPRESSURE VOLUME PRESSAVG GPRESSAVG
ENERGY: 0 2.8641 9.1951 4.4895 0.0000 -10719.7192 1444.5074 0.0000 0.0000 1789.0760 -7469.5870 301.5589 -9258.6630 -7469.5870 301.5589 -204.7857 -128.6288 31099.5271 -204.7857 -128.6288
ENERGY: 300000 3.8645 11.8030 7.2822 0.0000 -10847.9979 1480.0353 0.0000 0.0000 1754.4893 -7590.5236 295.7291 -9345.0130 -7550.5916 295.7783 25.6674 55.9223 30507.6161 149.9301 226.6987
ENERGY: 600000 3.2669 8.0677 6.0414 0.0000 -10813.0478 1531.2139 0.0000 0.0000 1796.6087 -7467.8493 302.8285 -9264.4580 -7532.8267 299.7670 888.4830 1001.6506 30281.6667 229.1701 308.8539
ENERGY: 900000 1.0994 9.3714 6.9131 0.0000 -10766.9351 1460.5572 0.0000 0.0000 1811.8511 -7477.1430 305.3977 -9288.9941 -7538.5430 300.9438 343.1322 449.2749 30284.4440 195.1947 271.6626
ENERGY: 1200000 1.8024 7.9659 7.4728 0.0000 -10651.4425 1350.3567 0.0000 0.0000 1780.4046 -7503.4401 300.0973 -9283.8448 -7532.0337 300.9787 -837.1446 -763.9048 30708.8303 30.3106 105.9305
ENERGY: 1500000 2.7052 8.0025 6.6112 0.0000 -10769.5311 1501.8180 0.0000 0.0000 1772.0694 -7478.3249 298.6923 -9250.3943 -7528.0469 300.7166 500.9129 623.9965 30841.2392 -32.9243 44.7788
TCL: Running FEP window  19: Lambda1 0.09999999999999969 Lambda2 0.049999999999999684 [dLambda -0.05 ]
TCL: Setting parameter firsttimestep to 0
TCL: Setting parameter alchLambda to 0.09999999999999969
Info: NONBONDED TABLE R-SQUARED SPACING: 0.0625
Info: NONBONDED TABLE SIZE: 705 POINTS
TCL: Setting parameter alchLambda2 to 0.049999999999999684
Info: NONBONDED TABLE R-SQUARED SPACING: 0.0625
Info: NONBONDED TABLE SIZE: 705 POINTS
TCL: Running for 1500000 steps
ETITLE: TS BOND ANGLE DIHED IMPRP ELECT VDW BOUNDARY MISC KINETIC TOTAL TEMP POTENTIAL TOTALAVG TEMPAVG PRESSURE GPRESSURE VOLUME PRESSAVG GPRESSAVG
ENERGY: 0 2.7052 8.0025 6.6112 0.0000 -10769.5298 1501.6302 0.0000 0.0000 1771.1557 -7479.4251 298.5383 -9250.5808 -7479.4251 298.5383 527.3585 618.3863 30841.2392 527.3585 618.3863
ENERGY: 300000 5.4516 11.0078 9.5466 0.0000 -10735.0128 1395.0288 0.0000 0.0000 1764.0579 -7549.9202 297.3419 -9313.9781 -7542.2643 294.2272 -741.3600 -667.8078 30712.6434 7.6039 68.8425
ENERGY: 600000 1.9785 13.4646 7.6517 0.0000 -10733.7732 1464.8682 0.0000 0.0000 1772.5626 -7473.2476 298.7754 -9245.8102 -7532.0117 297.5926 467.6871 475.8124 30286.0102 162.3782 206.6303
ENERGY: 900000 3.1038 11.2746 6.1015 0.0000 -10649.7227 1370.4835 0.0000 0.0000 1761.5384 -7497.2210 296.9172 -9258.7593 -7531.6427 298.5018 -986.4444 -873.4444 31283.2462 61.0321 113.8246
ENERGY: 1200000 4.2281 13.6703 7.1468 0.0000 -10808.8346 1476.8055 0.0000 0.0000 1802.8682 -7504.1156 303.8836 -9306.9838 -7529.3289 299.8695 36.8871 108.0439 30740.8187 92.5846 148.9336
ENERGY: 1500000 4.4319 11.7369 8.8987 0.0000 -10691.8028 1422.3832 0.0000 0.0000 1802.2035 -7442.1487 303.7716 -9244.3522 -7525.3633 301.0851 8.7800 63.5234 30439.5096 49.8618 102.2669
TCL: Running FEP window  20: Lambda1 0.049999999999999684 Lambda2 0.0    [dLambda -0.049999999999999684]
TCL: Setting parameter firsttimestep to 0
TCL: Setting parameter alchLambda to 0.049999999999999684
Info: NONBONDED TABLE R-SQUARED SPACING: 0.0625
Info: NONBONDED TABLE SIZE: 705 POINTS
TCL: Setting parameter alchLambda2 to 0.0
Info: NONBONDED TABLE R-SQUARED SPACING: 0.0625
Info: NONBONDED TABLE SIZE: 705 POINTS
TCL: Running for 1500000 steps
ETITLE: TS BOND ANGLE DIHED IMPRP ELECT VDW BOUNDARY MISC KINETIC TOTAL TEMP POTENTIAL TOTALAVG TEMPAVG PRESSURE GPRESSURE VOLUME PRESSAVG GPRESSAVG
ENERGY: 0 4.4319 11.7369 8.8987 0.0000 -10691.8034 1421.9908 0.0000 0.0000 1801.3021 -7443.4430 303.6197 -9244.7452 -7443.4430 303.6197 -24.8869 57.8500 30439.5096 -24.8869 57.8500
ENERGY: 300000 1.9861 8.0481 9.4900 0.0000 -10754.6537 1421.3193 0.0000 0.0000 1731.1955 -7582.6147 291.8028 -9313.8102 -7487.0742 300.7212 -222.4594 -210.5508 30282.4251 63.2709 87.3057
ENERGY: 600000 2.3638 8.9058 7.0219 0.0000 -10800.2676 1501.7691 0.0000 0.0000 1739.7538 -7540.4532 293.2453 -9280.2071 -7529.5949 298.0544 428.1506 563.6510 30288.5858 173.9625 209.1150
ENERGY: 900000 1.9401 7.5676 8.7998 0.0000 -10741.2235 1412.1559 0.0000 0.0000 1776.9741 -7533.7860 299.5190 -9310.7600 -7522.8939 299.1546 -146.5888 -62.4447 30228.4873 62.3661 105.2218
ENERGY: 1200000 4.0993 10.9325 9.1435 0.0000 -10870.3182 1528.8141 0.0000 0.0000 1770.0543 -7547.2745 298.3527 -9317.3288 -7521.2903 300.9082 351.0703 349.9138 30854.9169 56.8674 102.9032
ENERGY: 1500000 2.3071 9.7851 6.3731 0.0000 -10930.1419 1566.2435 0.0000 0.0000 1787.7713 -7557.6617 301.3390 -9345.4330 -7537.0657 300.2564 617.5159 682.4786 30717.9323 48.8894 99.1643
TCL: Exiting due to exit command.
