Info: SIMULATION PARAMETERS:
Info: TIMESTEP               2
Info: NUMBER OF STEPS        0
Info: STEPS PER CYCLE        10
Info: PERIODIC CELL BASIS 1  31.9649 0 0
Info: PERIODIC CELL BASIS 2  0 29.9278 0
Info: PERIODIC CELL BASIS 3  0 0 31.6216
Info: PERIODIC CELL CENTER   0 0 0
Info: WRAPPING WATERS AROUND PERIODIC BOUNDARIES ON OUTPUT.
Info: WRAPPING ALL CLUSTERS AROUND PERIODIC BOUNDARIES ON OUTPUT.
Info: FIRST LDB TIMESTEP     50
Info: LAST LDB TIMESTEP     -1
Info: HOM BACKGROUND SCALING 1
Info: PME BACKGROUND SCALING 1
Info: MIN ATOMS PER PATCH    40
Info: EMPTY PATCH LOAD       40 ATOMS
Info: VELOCITY FILE          mobley_6055410_equil.vel
Info: CENTER OF MASS MOVING INITIALLY? NO
Info: DIELECTRIC             1
Info: EXCLUDE                SCALED ONE-FOUR
Info: 1-4 ELECTROSTATICS SCALED BY 0.833333
Info: MODIFIED 1-4 VDW PARAMETERS WILL BE USED
Info: DCD FILENAME           mobley_6055410_prod.dcd
Info: DCD FREQUENCY          100000
Info: DCD FIRST STEP         100000
Info: DCD FILE WILL CONTAIN UNIT CELL DATA
Info: XST FILENAME           mobley_6055410_prod.xst
Info: XST FREQUENCY          100000
Info: NO VELOCITY DCD OUTPUT
Info: NO FORCE DCD OUTPUT
Info: OUTPUT FILENAME        mobley_6055410_prod
Info: BINARY OUTPUT FILES WILL BE USED
Info: RESTART FILENAME       mobley_6055410_prod.restart
Info: RESTART FREQUENCY      100000
Info: BINARY RESTART FILES WILL BE USED
Info: CUTOFF                 9
Info: PAIRLIST DISTANCE      11
Info: PAIRLIST SHRINK RATE   0.01
Info: PAIRLIST GROW RATE     0.01
Info: PAIRLIST TRIGGER       0.3
Info: PAIRLISTS PER CYCLE    2
Info: PAIRLISTS ENABLED
Info: MARGIN                 2
Info: HYDROGEN GROUP CUTOFF  2.5
Info: PATCH DIMENSION        15.5
Info: ENERGY OUTPUT STEPS    100000
Info: ENERGY EVALUATION STEPS    100000
Info: OUTPUT ENERGY PRECISION 4
Info: CROSSTERM ENERGY INCLUDED IN DIHEDRAL
Info: TIMING OUTPUT STEPS    1000000
Info: PRESSURE OUTPUT STEPS  100000
Info: ALCHEMICAL FEP ON
Info: FEP CURRENT LAMBDA VALUE     1
Info: FEP COMPARISON LAMBDA VALUE  0.95
Info: FEP INTRA-ALCHEMICAL NON-BONDED INTERACTIONS WILL BE RETAINED
Info: FEP INTRA-ALCHEMICAL BONDED INTERACTIONS WILL BE RETAINED
Info: FEP VDW SHIFTING COEFFICIENT 5
Info: FEP ELEC. ACTIVE FOR ANNIHILATED PARTICLES BETWEEN LAMBDA = 0 AND LAMBDA = 0.5
Info: FEP ELEC. ACTIVE FOR EXNIHILATED PARTICLES BETWEEN LAMBDA = 0.5 AND LAMBDA = 1
Info: FEP VDW ACTIVE FOR ANNIHILATED PARTICLES BETWEEN LAMBDA = 0 AND LAMBDA = 1
Info: FEP VDW ACTIVE FOR EXNIHILATED PARTICLES BETWEEN LAMBDA = 0 AND LAMBDA = 1
Info: FEP BOND ACTIVE FOR ANNIHILATED PARTICLES BETWEEN LAMBDA = 1 AND LAMBDA = 1
Info: FEP BOND ACTIVE FOR EXNIHILATED PARTICLES BETWEEN LAMBDA = 0 AND LAMBDA = 0
Info: LANGEVIN DYNAMICS ACTIVE
Info: LANGEVIN TEMPERATURE   300
Info: LANGEVIN USING BBK INTEGRATOR
Info: LANGEVIN DAMPING COEFFICIENT IS 1 INVERSE PS
Info: LANGEVIN DYNAMICS APPLIED TO HYDROGENS
Info: LANGEVIN PISTON PRESSURE CONTROL ACTIVE
Info:        TARGET PRESSURE IS 1.01325 BAR
Info:     OSCILLATION PERIOD IS 50 FS
Info:             DECAY TIME IS 25 FS
Info:     PISTON TEMPERATURE IS 300 K
Info:       PRESSURE CONTROL IS GROUP-BASED
Info:    INITIAL STRAIN RATE IS -9.34649e-05 -9.34649e-05 -9.34649e-05
Info:       CELL FLUCTUATION IS ISOTROPIC
Info: PARTICLE MESH EWALD (PME) ACTIVE
Info: PME TOLERANCE               1e-06
Info: PME EWALD COEFFICIENT       0.348832
Info: PME INTERPOLATION ORDER     4
Info: PME GRID DIMENSIONS         32 32 32
Info: PME MAXIMUM GRID SPACING    1
Info: PME CALCULATION WILL BE PERFORMED ON GPU
Info: FULL ELECTROSTATIC EVALUATION FREQUENCY      2
Info: USING VERLET I (r-RESPA) MTS SCHEME.
Info: C1 SPLITTING OF LONG RANGE ELECTROSTATICS
Info: PLACING ATOMS IN PATCHES BY HYDROGEN GROUPS
Info: RIGID BONDS TO HYDROGEN : ALL
Info:         ERROR TOLERANCE : 1e-08
Info:          MAX ITERATIONS : 100
Info: RIGID WATER USING SETTLE ALGORITHM
Info: RANDOM NUMBER SEED     1743893890
Info: USE HYDROGEN BONDS?    NO
Info: Using AMBER format force field!
Info: AMBER PARM FILE        mobley_6055410.prmtop
Info: COORDINATE PDB         mobley_6055410.pdb
Info: Exclusions will be read from PARM file!
Info: SCNB (VDW SCALING)     2
Info: USING ARITHMETIC MEAN TO COMBINE L-J SIGMA PARAMETERS
Info: BINARY COORDINATES     mobley_6055410_equil.coor
Info: SUMMARY OF PARAMETERS:
Info: 12 BONDS
Info: 15 ANGLES
Info:   15 HARMONIC
Info:   0 COSINE-BASED
Info: 6 DIHEDRAL
Info: 0 IMPROPER
Info: 0 CROSSTERM
Info: 0 VDW
Info: 28 VDW_PAIRS
Info: 0 NBTHOLE_PAIRS
Info: To read alchdata from file: mobley_6055410.pdb
Info: To read alchflag data from column: 5
Info: STRUCTURE SUMMARY:
Info: 2975 ATOMS
Info: 2976 BONDS
Info: 41 ANGLES
Info: 74 DIHEDRALS
Info: 0 IMPROPERS
Info: 0 CROSSTERMS
Info: 3071 EXCLUSIONS
Info: 2957 RIGID BONDS
Info: ALCH: 0 ATOMS TO DISAPPEAR IN FINAL STATE
Info: ALCH: 26 ATOMS TO APPEAR IN FINAL STATE
Info: 5968 DEGREES OF FREEDOM
Info: 1001 HYDROGEN GROUPS
Info: 3 ATOMS IN LARGEST HYDROGEN GROUP
Info: 1001 MIGRATION GROUPS
Info: 3 ATOMS IN LARGEST MIGRATION GROUP
Info: TOTAL MASS = 17959.9 amu
Info: TOTAL CHARGE = -0.000200089 e
Info: MASS DENSITY = 0.985898 g/cm^3
Info: ATOM DENSITY = 0.0983457 atoms/A^3
Info: ADDED 0 IMPLICIT EXCLUSIONS
Info: NONBONDED TABLE R-SQUARED SPACING: 0.0625
Info: NONBONDED TABLE SIZE: 705 POINTS
Info: REMOVING COM VELOCITY -0.106499 0.04121 -0.0212623
Info: Use 3D box decompostion in PME FFT.
Info: Updated CUDA force table with 4096 elements.
Info: Updated CUDA LJ table with 7 x 7 elements.
Info: Found 28 unique exclusion lists needing 100 bytes
TCL: Running for 1500000 steps
ETITLE: TS BOND ANGLE DIHED IMPRP ELECT VDW BOUNDARY MISC KINETIC TOTAL TEMP POTENTIAL TOTALAVG TEMPAVG PRESSURE GPRESSURE VOLUME PRESSAVG GPRESSAVG
ENERGY: 0 7.0108 13.3428 16.1890 0.0000 -10764.9627 1376.9123 0.0000 0.0000 1786.8082 -7564.6996 301.3280 -9351.5078 -7564.6996 301.3280 -56.8330 32.1136 30250.4365 -56.8330 32.1136
ENERGY: 300000 7.7290 6.2477 18.3769 0.0000 -10842.4253 1473.6602 0.0000 0.0000 1813.2321 -7523.1794 305.7842 -9336.4116 -7533.3468 302.5954 214.6603 271.1769 30894.3108 284.0943 340.0233
ENERGY: 600000 7.1842 4.7050 11.4465 0.0000 -10802.4780 1427.3277 0.0000 0.0000 1732.8892 -7618.9255 292.2351 -9351.8146 -7551.0811 300.6274 -369.6148 -336.9003 30897.2368 83.8114 126.5534
ENERGY: 900000 8.6499 16.2777 21.4629 0.0000 -10731.6290 1429.6010 0.0000 0.0000 1824.4372 -7431.2002 307.6738 -9255.6374 -7545.5074 300.6517 30.5770 22.2698 30813.5331 45.1401 82.6216
ENERGY: 1200000 9.0996 9.2457 17.0457 0.0000 -10794.7467 1464.1649 0.0000 0.0000 1810.3550 -7484.8358 305.2990 -9295.1907 -7548.3453 299.7138 573.3708 597.8889 30651.0317 42.6391 82.5940
ENERGY: 1500000 7.1124 7.8941 14.8070 0.0000 -10858.2613 1445.9117 0.0000 0.0000 1755.2931 -7627.2429 296.0133 -9382.5359 -7550.3274 299.5408 -60.1433 7.8684 30864.7386 11.5719 57.0183
TCL: Running FEP window   2: Lambda1 0.95   Lambda2 0.8999999999999999 [dLambda -0.050000000000000044]
TCL: Setting parameter firsttimestep to 0
TCL: Setting parameter alchLambda to 0.95
Info: NONBONDED TABLE R-SQUARED SPACING: 0.0625
Info: NONBONDED TABLE SIZE: 705 POINTS
TCL: Setting parameter alchLambda2 to 0.8999999999999999
Info: NONBONDED TABLE R-SQUARED SPACING: 0.0625
Info: NONBONDED TABLE SIZE: 705 POINTS
TCL: Running for 1500000 steps
ETITLE: TS BOND ANGLE DIHED IMPRP ELECT VDW BOUNDARY MISC KINETIC TOTAL TEMP POTENTIAL TOTALAVG TEMPAVG PRESSURE GPRESSURE VOLUME PRESSAVG GPRESSAVG
ENERGY: 0 7.1124 7.8941 14.8070 0.0000 -10854.7195 1444.7271 0.0000 0.0000 1754.3917 -7625.7871 295.8613 -9380.1788 -7625.7871 295.8613 -91.6586 -19.7984 30864.7386 -91.6586 -19.7984
ENERGY: 300000 6.4842 7.1008 11.2175 0.0000 -10754.9302 1359.0100 0.0000 0.0000 1747.6000 -7623.5178 294.7159 -9371.1177 -7601.9956 295.3115 -584.5425 -540.2040 30589.8293 -174.9165 -112.8598
ENERGY: 600000 3.0508 12.7784 13.9188 0.0000 -10863.9638 1477.3851 0.0000 0.0000 1720.4461 -7636.3847 290.1367 -9356.8308 -7597.3806 295.2256 12.5355 93.1094 30985.0671 -109.0157 -47.4224
ENERGY: 900000 5.9132 4.4435 14.1327 0.0000 -10693.0909 1372.5734 0.0000 0.0000 1779.4088 -7516.6193 300.0802 -9296.0281 -7578.0835 296.7319 -280.8745 -244.3303 30264.4387 -136.5867 -85.2142
ENERGY: 1200000 6.4857 8.3469 16.2140 0.0000 -10719.1093 1439.3747 0.0000 0.0000 1712.8879 -7535.8000 288.8621 -9248.6879 -7562.4842 297.0832 -17.3022 42.9028 30924.4235 -187.9924 -134.5036
ENERGY: 1500000 4.4045 10.9210 12.8750 0.0000 -10647.1237 1356.3879 0.0000 0.0000 1804.3194 -7458.2159 304.2811 -9262.5353 -7555.2480 298.3572 -380.6706 -260.1416 30918.7945 -215.8384 -155.9916
TCL: Running FEP window   3: Lambda1 0.8999999999999999 Lambda2 0.8499999999999999 [dLambda -0.050000000000000044]
TCL: Setting parameter firsttimestep to 0
TCL: Setting parameter alchLambda to 0.8999999999999999
Info: NONBONDED TABLE R-SQUARED SPACING: 0.0625
Info: NONBONDED TABLE SIZE: 705 POINTS
TCL: Setting parameter alchLambda2 to 0.8499999999999999
Info: NONBONDED TABLE R-SQUARED SPACING: 0.0625
Info: NONBONDED TABLE SIZE: 705 POINTS
TCL: Running for 1500000 steps
ETITLE: TS BOND ANGLE DIHED IMPRP ELECT VDW BOUNDARY MISC KINETIC TOTAL TEMP POTENTIAL TOTALAVG TEMPAVG PRESSURE GPRESSURE VOLUME PRESSAVG GPRESSAVG
ENERGY: 0 4.4045 10.9210 12.8750 0.0000 -10646.2448 1356.9695 0.0000 0.0000 1803.4589 -7457.6158 304.1360 -9261.0747 -7457.6158 304.1360 -373.2643 -267.8688 30918.7945 -373.2643 -267.8688
ENERGY: 300000 9.5510 11.1135 12.8455 0.0000 -10984.4971 1551.3364 0.0000 0.0000 1753.9221 -7645.7286 295.7821 -9399.6507 -7525.9720 299.5533 270.8864 334.0282 30856.0169 227.4816 321.9962
ENERGY: 600000 8.7046 6.8142 15.1421 0.0000 -10754.0962 1381.4734 0.0000 0.0000 1790.9419 -7551.0201 302.0251 -9341.9620 -7541.0353 302.4736 -748.8123 -680.5347 30847.8752 -89.4651 -15.1469
ENERGY: 900000 4.0487 11.8779 17.7920 0.0000 -10736.5146 1393.3600 0.0000 0.0000 1768.3741 -7541.0619 298.2193 -9309.4360 -7545.0617 301.3820 -261.7036 -208.7833 30716.4020 -83.9348 -13.1903
ENERGY: 1200000 2.7298 8.3603 15.3101 0.0000 -10882.4887 1493.7916 0.0000 0.0000 1790.3339 -7571.9630 301.9226 -9362.2969 -7539.3593 301.0589 642.7817 664.7341 30343.4458 -43.3173 28.6067
ENERGY: 1500000 8.1209 9.0551 14.5854 0.0000 -10847.8358 1431.0250 0.0000 0.0000 1766.5526 -7618.4967 297.9121 -9385.0494 -7543.5500 300.9150 -513.3166 -439.1223 30752.5828 -126.0811 -53.4176
TCL: Running FEP window   4: Lambda1 0.8499999999999999 Lambda2 0.7999999999999998 [dLambda -0.050000000000000044]
TCL: Setting parameter firsttimestep to 0
TCL: Setting parameter alchLambda to 0.8499999999999999
Info: NONBONDED TABLE R-SQUARED SPACING: 0.0625
Info: NONBONDED TABLE SIZE: 705 POINTS
TCL: Setting parameter alchLambda2 to 0.7999999999999998
Info: NONBONDED TABLE R-SQUARED SPACING: 0.0625
Info: NONBONDED TABLE SIZE: 705 POINTS
TCL: Running for 1500000 steps
ETITLE: TS BOND ANGLE DIHED IMPRP ELECT VDW BOUNDARY MISC KINETIC TOTAL TEMP POTENTIAL TOTALAVG TEMPAVG PRESSURE GPRESSURE VOLUME PRESSAVG GPRESSAVG
ENERGY: 0 8.1209 9.0551 14.5854 0.0000 -10845.2829 1430.6196 0.0000 0.0000 1765.6719 -7617.2300 297.7636 -9382.9019 -7617.2300 297.7636 -536.7261 -453.0568 30752.5828 -536.7261 -453.0568
ENERGY: 300000 6.5357 10.5301 14.9640 0.0000 -10812.1131 1409.5760 0.0000 0.0000 1857.5676 -7512.9397 313.2609 -9370.5074 -7564.9195 303.5490 -399.0460 -298.1805 30607.4299 -40.5166 40.0510
ENERGY: 600000 7.3366 5.6621 17.4017 0.0000 -10766.7132 1379.3323 0.0000 0.0000 1754.7705 -7602.2100 295.9252 -9356.9805 -7577.8002 301.2575 -618.7958 -527.6606 30891.5899 -163.9746 -93.2177
ENERGY: 900000 4.7304 14.6409 17.4491 0.0000 -10782.6696 1450.6810 0.0000 0.0000 1771.9909 -7523.1772 298.8292 -9295.1681 -7559.5365 301.1510 412.0908 436.6713 30602.1495 -117.6557 -49.8834
ENERGY: 1200000 8.6418 13.2070 16.5981 0.0000 -10739.1711 1472.3500 0.0000 0.0000 1773.3622 -7455.0120 299.0605 -9228.3742 -7547.9047 301.5124 372.2942 448.1177 30811.6600 -113.4597 -45.7433
ENERGY: 1500000 7.9714 4.9955 9.8710 0.0000 -10858.4666 1437.3031 0.0000 0.0000 1789.3415 -7608.9842 301.7552 -9398.3257 -7546.5522 301.7907 -174.0603 -97.0098 30557.2786 -113.4559 -44.0369
TCL: Running FEP window   5: Lambda1 0.7999999999999998 Lambda2 0.7499999999999998 [dLambda -0.050000000000000044]
TCL: Setting parameter firsttimestep to 0
TCL: Setting parameter alchLambda to 0.7999999999999998
Info: NONBONDED TABLE R-SQUARED SPACING: 0.0625
Info: NONBONDED TABLE SIZE: 705 POINTS
TCL: Setting parameter alchLambda2 to 0.7499999999999998
Info: NONBONDED TABLE R-SQUARED SPACING: 0.0625
Info: NONBONDED TABLE SIZE: 705 POINTS
TCL: Running for 1500000 steps
ETITLE: TS BOND ANGLE DIHED IMPRP ELECT VDW BOUNDARY MISC KINETIC TOTAL TEMP POTENTIAL TOTALAVG TEMPAVG PRESSURE GPRESSURE VOLUME PRESSAVG GPRESSAVG
ENERGY: 0 7.9714 4.9955 9.8710 0.0000 -10856.8234 1437.3901 0.0000 0.0000 1788.5036 -7608.0918 301.6139 -9396.5954 -7608.0918 301.6139 -178.0954 -107.3022 30557.2786 -178.0954 -107.3022
ENERGY: 300000 3.9390 11.3481 11.4872 0.0000 -10758.6631 1381.8400 0.0000 0.0000 1772.0496 -7577.9992 298.8391 -9350.0488 -7584.8607 298.8470 -591.0389 -582.7572 30707.5832 -192.8221 -135.1270
ENERGY: 600000 6.8478 8.5134 17.1177 0.0000 -10771.5292 1450.3121 0.0000 0.0000 1766.0928 -7522.6453 297.8346 -9288.7381 -7561.2334 299.1225 -140.1772 -98.1962 31315.7044 -39.4384 19.2787
ENERGY: 900000 7.9843 9.8413 13.2837 0.0000 -10975.6530 1516.7153 0.0000 0.0000 1769.5440 -7658.2844 298.4166 -9427.8284 -7568.7437 299.3203 222.6333 302.7960 30441.7680 -1.6935 56.3071
ENERGY: 1200000 4.8471 9.1144 16.7723 0.0000 -10749.8570 1410.4800 0.0000 0.0000 1784.5273 -7524.1158 300.9434 -9308.6431 -7560.9193 298.9002 -318.4967 -253.2695 30625.1329 -20.9590 39.8638
ENERGY: 1500000 6.1244 9.8182 14.1215 0.0000 -10755.7120 1381.3955 0.0000 0.0000 1748.7802 -7595.4722 294.9150 -9344.2524 -7557.4359 298.6364 -518.7805 -496.6861 31079.5030 -41.5718 22.4181
TCL: Running FEP window   6: Lambda1 0.7499999999999998 Lambda2 0.6999999999999997 [dLambda -0.050000000000000044]
TCL: Setting parameter firsttimestep to 0
TCL: Setting parameter alchLambda to 0.7499999999999998
Info: NONBONDED TABLE R-SQUARED SPACING: 0.0625
Info: NONBONDED TABLE SIZE: 705 POINTS
TCL: Setting parameter alchLambda2 to 0.6999999999999997
Info: NONBONDED TABLE R-SQUARED SPACING: 0.0625
Info: NONBONDED TABLE SIZE: 705 POINTS
TCL: Running for 1500000 steps
ETITLE: TS BOND ANGLE DIHED IMPRP ELECT VDW BOUNDARY MISC KINETIC TOTAL TEMP POTENTIAL TOTALAVG TEMPAVG PRESSURE GPRESSURE VOLUME PRESSAVG GPRESSAVG
ENERGY: 0 6.1244 9.8182 14.1215 0.0000 -10753.5799 1381.2039 0.0000 0.0000 1747.8764 -7594.4355 294.7625 -9342.3119 -7594.4355 294.7625 -594.3277 -509.0780 31079.5030 -594.3277 -509.0780
ENERGY: 300000 6.7450 8.0772 15.7974 0.0000 -10911.6076 1487.2768 0.0000 0.0000 1827.4039 -7566.3074 308.1741 -9393.7112 -7562.3954 301.6977 118.4878 176.8019 30627.2986 -142.3876 -66.8767
ENERGY: 600000 8.8610 12.4741 10.9743 0.0000 -10855.1021 1483.0246 0.0000 0.0000 1824.2519 -7515.5162 307.6425 -9339.7681 -7550.0184 303.3982 9.2396 65.8351 30733.0718 37.9705 111.3379
ENERGY: 900000 7.0268 12.4028 13.8848 0.0000 -10772.6960 1434.4546 0.0000 0.0000 1805.9232 -7499.0039 304.5516 -9304.9271 -7537.9628 303.1540 -40.3752 32.4093 30476.4296 114.1122 177.9248
ENERGY: 1200000 6.0413 9.4429 16.0683 0.0000 -10817.5085 1353.8062 0.0000 0.0000 1820.5125 -7611.6373 307.0119 -9432.1499 -7543.5561 303.9931 -998.8546 -940.0709 30709.3854 15.1144 73.4943
ENERGY: 1500000 4.5859 8.7627 15.5119 0.0000 -10812.4356 1468.0128 0.0000 0.0000 1748.5659 -7566.9965 294.8788 -9315.5624 -7552.9424 302.5790 475.3412 466.3826 30420.6526 60.3737 116.3585
TCL: Running FEP window   7: Lambda1 0.6999999999999997 Lambda2 0.6499999999999997 [dLambda -0.050000000000000044]
TCL: Setting parameter firsttimestep to 0
TCL: Setting parameter alchLambda to 0.6999999999999997
Info: NONBONDED TABLE R-SQUARED SPACING: 0.0625
Info: NONBONDED TABLE SIZE: 705 POINTS
TCL: Setting parameter alchLambda2 to 0.6499999999999997
Info: NONBONDED TABLE R-SQUARED SPACING: 0.0625
Info: NONBONDED TABLE SIZE: 705 POINTS
TCL: Running for 1500000 steps
ETITLE: TS BOND ANGLE DIHED IMPRP ELECT VDW BOUNDARY MISC KINETIC TOTAL TEMP POTENTIAL TOTALAVG TEMPAVG PRESSURE GPRESSURE VOLUME PRESSAVG GPRESSAVG
ENERGY: 0 4.5859 8.7627 15.5119 0.0000 -10810.8572 1468.3933 0.0000 0.0000 1747.7024 -7565.9010 294.7332 -9313.6034 -7565.9010 294.7332 391.3034 464.9304 30420.6526 391.3034 464.9304
ENERGY: 300000 6.1936 6.7822 11.7047 0.0000 -10856.1744 1455.0094 0.0000 0.0000 1796.4293 -7580.0552 302.9505 -9376.4845 -7515.9231 301.7535 34.8188 115.4465 30405.5451 106.7210 188.2611
ENERGY: 600000 10.0778 6.2787 13.6749 0.0000 -10839.4545 1437.5460 0.0000 0.0000 1768.7703 -7603.1067 298.2861 -9371.8771 -7526.5005 302.2672 -120.3887 -128.2865 30591.9382 14.6161 72.3117
ENERGY: 900000 8.3803 12.6286 15.4827 0.0000 -10854.1449 1531.1581 0.0000 0.0000 1761.4502 -7525.0450 297.0516 -9286.4952 -7524.0444 302.1193 1132.3694 1140.2383 30112.3514 131.8266 190.5425
ENERGY: 1200000 7.7451 8.5915 14.1582 0.0000 -10818.5649 1440.6400 0.0000 0.0000 1749.1579 -7598.2723 294.9787 -9347.4302 -7537.9300 301.0450 -174.5442 -59.9411 30445.0574 20.8637 77.9120
ENERGY: 1500000 3.3208 6.6844 13.8323 0.0000 -10774.9944 1408.0789 0.0000 0.0000 1787.6538 -7555.4243 301.4706 -9343.0780 -7543.3067 301.4652 -484.5135 -466.5375 30792.1393 -6.3975 48.6211
TCL: Running FEP window   8: Lambda1 0.6499999999999997 Lambda2 0.5999999999999996 [dLambda -0.050000000000000044]
TCL: Setting parameter firsttimestep to 0
TCL: Setting parameter alchLambda to 0.6499999999999997
Info: NONBONDED TABLE R-SQUARED SPACING: 0.0625
Info: NONBONDED TABLE SIZE: 705 POINTS
TCL: Setting parameter alchLambda2 to 0.5999999999999996
Info: NONBONDED TABLE R-SQUARED SPACING: 0.0625
Info: NONBONDED TABLE SIZE: 705 POINTS
TCL: Running for 1500000 steps
ETITLE: TS BOND ANGLE DIHED IMPRP ELECT VDW BOUNDARY MISC KINETIC TOTAL TEMP POTENTIAL TOTALAVG TEMPAVG PRESSURE GPRESSURE VOLUME PRESSAVG GPRESSAVG
ENERGY: 0 3.3208 6.6844 13.8323 0.0000 -10772.7524 1407.0161 0.0000 0.0000 1786.7583 -7555.1404 301.3196 -9341.8988 -7555.1404 301.3196 -577.8507 -484.9336 30792.1393 -577.8507 -484.9336
ENERGY: 300000 2.9143 8.3010 12.7742 0.0000 -10781.5306 1459.1611 0.0000 0.0000 1786.6679 -7511.7121 301.3043 -9298.3799 -7529.7234 302.6008 338.6303 368.4347 30407.2562 -121.1893 -50.2279
ENERGY: 600000 4.8567 6.7311 17.9497 0.0000 -10830.4197 1489.8958 0.0000 0.0000 1779.7682 -7531.2182 300.1408 -9310.9864 -7536.9839 300.9333 65.1327 146.2310 31233.3102 -255.8545 -186.3367
ENERGY: 900000 7.1925 8.4911 10.9071 0.0000 -10883.4059 1470.8921 0.0000 0.0000 1746.9929 -7638.9303 294.6135 -9385.9232 -7548.2967 300.3222 -64.3411 -38.9478 30378.8032 -373.6226 -310.6396
ENERGY: 1200000 6.7889 13.0298 17.9740 0.0000 -10741.4086 1392.7444 0.0000 0.0000 1785.4654 -7525.4061 301.1016 -9310.8715 -7540.2927 300.6222 -367.1956 -268.0628 30557.3070 -344.2931 -278.2895
ENERGY: 1500000 8.6524 8.7445 13.4434 0.0000 -10815.4683 1466.9311 0.0000 0.0000 1752.5464 -7565.1505 295.5501 -9317.6969 -7541.1841 300.3944 53.8244 41.6099 30521.6221 -311.3856 -248.8855
TCL: Running FEP window   9: Lambda1 0.5999999999999996 Lambda2 0.5499999999999996 [dLambda -0.050000000000000044]
TCL: Setting parameter firsttimestep to 0
TCL: Setting parameter alchLambda to 0.5999999999999996
Info: NONBONDED TABLE R-SQUARED SPACING: 0.0625
Info: NONBONDED TABLE SIZE: 705 POINTS
TCL: Setting parameter alchLambda2 to 0.5499999999999996
Info: NONBONDED TABLE R-SQUARED SPACING: 0.0625
Info: NONBONDED TABLE SIZE: 705 POINTS
TCL: Running for 1500000 steps
ETITLE: TS BOND ANGLE DIHED IMPRP ELECT VDW BOUNDARY MISC KINETIC TOTAL TEMP POTENTIAL TOTALAVG TEMPAVG PRESSURE GPRESSURE VOLUME PRESSAVG GPRESSAVG
ENERGY: 0 8.6524 8.7445 13.4434 0.0000 -10814.3126 1467.7488 0.0000 0.0000 1751.6784 -7564.0452 295.4037 -9315.7236 -7564.0452 295.4037 -49.3294 38.4272 30521.6221 -49.3294 38.4272
ENERGY: 300000 6.7563 10.1832 14.4785 0.0000 -10744.1831 1470.0461 0.0000 0.0000 1789.1702 -7453.5488 301.7263 -9242.7190 -7512.1706 300.0496 340.6370 391.6149 30834.5706 30.0822 81.2571
ENERGY: 600000 10.2450 8.1905 9.1838 0.0000 -10720.3831 1369.7745 0.0000 0.0000 1758.0573 -7564.9320 296.4795 -9322.9893 -7515.8278 301.2960 -692.6077 -664.2903 30901.7784 -22.0484 28.7265
ENERGY: 900000 9.8166 8.2746 15.5950 0.0000 -10650.7916 1321.9643 0.0000 0.0000 1802.8727 -7492.2684 304.0371 -9295.1411 -7525.9273 302.1070 -1063.0198 -963.3978 30613.7619 -199.6386 -139.9687
ENERGY: 1200000 11.2130 7.8043 15.3067 0.0000 -10717.8788 1364.0326 0.0000 0.0000 1795.0849 -7524.4372 302.7238 -9319.5221 -7541.0464 301.3824 -486.4996 -411.7146 30626.5545 -219.0321 -169.0331
ENERGY: 1500000 6.5946 10.1394 10.5919 0.0000 -10730.6639 1355.9548 0.0000 0.0000 1769.8885 -7577.4947 298.4747 -9347.3833 -7547.2349 300.1690 -742.7819 -725.0719 30643.3000 -289.5968 -242.4033
TCL: Running FEP window  10: Lambda1 0.5499999999999996 Lambda2 0.4999999999999996 [dLambda -0.04999999999999999]
TCL: Setting parameter firsttimestep to 0
TCL: Setting parameter alchLambda to 0.5499999999999996
Info: NONBONDED TABLE R-SQUARED SPACING: 0.0625
Info: NONBONDED TABLE SIZE: 705 POINTS
TCL: Setting parameter alchLambda2 to 0.4999999999999996
Info: NONBONDED TABLE R-SQUARED SPACING: 0.0625
Info: NONBONDED TABLE SIZE: 705 POINTS
TCL: Running for 1500000 steps
ETITLE: TS BOND ANGLE DIHED IMPRP ELECT VDW BOUNDARY MISC KINETIC TOTAL TEMP POTENTIAL TOTALAVG TEMPAVG PRESSURE GPRESSURE VOLUME PRESSAVG GPRESSAVG
ENERGY: 0 6.5946 10.1394 10.5919 0.0000 -10730.0099 1355.1125 0.0000 0.0000 1769.0328 -7578.5386 298.3304 -9347.5715 -7578.5386 298.3304 -822.3555 -744.1362 30643.3000 -822.3555 -744.1362
ENERGY: 300000 7.3257 9.0608 13.6502 0.0000 -10792.0067 1369.9687 0.0000 0.0000 1744.9499 -7647.0514 294.2690 -9392.0013 -7571.6974 300.1965 -1187.3053 -1112.7193 30932.6752 -629.4807 -560.7325
ENERGY: 600000 4.9288 10.5300 19.8192 0.0000 -10929.9082 1498.3997 0.0000 0.0000 1869.6423 -7526.5882 315.2972 -9396.2304 -7553.3471 302.5957 391.7481 440.4309 30249.3813 -294.3160 -219.1918
ENERGY: 900000 7.3228 11.4060 14.8005 0.0000 -10802.2526 1454.5948 0.0000 0.0000 1800.7459 -7513.3827 303.6785 -9314.1285 -7535.6341 303.9209 197.8631 204.6983 30618.2627 -256.3654 -198.3094
ENERGY: 1200000 5.1964 9.6037 15.2838 0.0000 -10758.8454 1386.9994 0.0000 0.0000 1720.7610 -7621.0012 290.1898 -9341.7622 -7547.0410 302.3473 -568.2979 -481.5702 30357.3706 -249.6262 -188.3921
ENERGY: 1500000 5.7951 6.0554 13.8093 0.0000 -10729.8599 1397.5976 0.0000 0.0000 1782.3739 -7524.2286 300.5802 -9306.6025 -7549.9702 301.7949 -552.1196 -471.2594 31130.7384 -205.9799 -148.9523
TCL: Running FEP window  11: Lambda1 0.4999999999999996 Lambda2 0.4499999999999996 [dLambda -0.04999999999999999]
TCL: Setting parameter firsttimestep to 0
TCL: Setting parameter alchLambda to 0.4999999999999996
Info: NONBONDED TABLE R-SQUARED SPACING: 0.0625
Info: NONBONDED TABLE SIZE: 705 POINTS
TCL: Setting parameter alchLambda2 to 0.4499999999999996
Info: NONBONDED TABLE R-SQUARED SPACING: 0.0625
Info: NONBONDED TABLE SIZE: 705 POINTS
TCL: Running for 1500000 steps
ETITLE: TS BOND ANGLE DIHED IMPRP ELECT VDW BOUNDARY MISC KINETIC TOTAL TEMP POTENTIAL TOTALAVG TEMPAVG PRESSURE GPRESSURE VOLUME PRESSAVG GPRESSAVG
ENERGY: 0 5.7951 6.0554 13.8093 0.0000 -10729.2756 1398.1818 0.0000 0.0000 1781.5182 -7523.9158 300.4359 -9305.4340 -7523.9158 300.4359 -558.3996 -476.6694 31130.7384 -558.3996 -476.6694
ENERGY: 300000 4.7436 6.9927 14.5432 0.0000 -10782.9873 1448.4210 0.0000 0.0000 1827.2790 -7481.0079 308.1530 -9308.2868 -7519.8522 303.3495 177.8987 281.5383 30421.3638 20.7675 100.5039
ENERGY: 600000 5.2005 5.2382 18.3743 0.0000 -10902.4299 1553.3204 0.0000 0.0000 1768.2102 -7552.0862 298.1916 -9320.2964 -7515.5624 304.0915 747.6018 828.5913 30863.1766 -14.8080 56.0162
ENERGY: 900000 6.5443 13.0415 13.1280 0.0000 -10922.1366 1463.9526 0.0000 0.0000 1802.4956 -7622.9747 303.9735 -9425.4702 -7535.2427 302.1297 -112.6562 -53.1860 30279.0115 98.9659 162.3854
ENERGY: 1200000 5.2959 10.7569 15.9502 0.0000 -10732.7888 1355.3925 0.0000 0.0000 1735.0263 -7610.3670 292.5955 -9345.3933 -7545.7084 301.5284 -913.7442 -868.0425 30810.1737 66.9584 129.2882
ENERGY: 1500000 4.5678 7.0292 13.5111 0.0000 -10737.4614 1444.3489 0.0000 0.0000 1721.1751 -7546.8293 290.2596 -9268.0043 -7555.9269 300.7493 16.5287 85.4198 30656.1766 85.4452 146.0701
TCL: Running FEP window  12: Lambda1 0.4499999999999996 Lambda2 0.39999999999999963 [dLambda -0.04999999999999999]
TCL: Setting parameter firsttimestep to 0
TCL: Setting parameter alchLambda to 0.4499999999999996
Info: NONBONDED TABLE R-SQUARED SPACING: 0.0625
Info: NONBONDED TABLE SIZE: 705 POINTS
TCL: Setting parameter alchLambda2 to 0.39999999999999963
Info: NONBONDED TABLE R-SQUARED SPACING: 0.0625
Info: NONBONDED TABLE SIZE: 705 POINTS
TCL: Running for 1500000 steps
ETITLE: TS BOND ANGLE DIHED IMPRP ELECT VDW BOUNDARY MISC KINETIC TOTAL TEMP POTENTIAL TOTALAVG TEMPAVG PRESSURE GPRESSURE VOLUME PRESSAVG GPRESSAVG
ENERGY: 0 4.5678 7.0292 13.5111 0.0000 -10737.4611 1445.2479 0.0000 0.0000 1720.2806 -7546.8246 290.1088 -9267.1052 -7546.8246 290.1088 3.1679 81.2364 30656.1766 3.1679 81.2364
ENERGY: 300000 5.3178 11.0294 16.0129 0.0000 -10757.8292 1427.6420 0.0000 0.0000 1739.4044 -7558.4226 293.3338 -9297.8270 -7522.0100 294.1664 -55.8831 -16.8489 30405.8990 12.8994 77.4960
ENERGY: 600000 6.8095 10.1507 17.7707 0.0000 -10693.4898 1323.9975 0.0000 0.0000 1748.5091 -7586.2522 294.8692 -9334.7613 -7551.9219 296.2991 -1121.8570 -1088.7346 30353.0285 -394.9459 -337.1932
ENERGY: 900000 6.1970 10.9167 15.3552 0.0000 -10706.7062 1427.7455 0.0000 0.0000 1740.1511 -7506.3407 293.4597 -9246.4918 -7541.5314 297.8684 -301.8635 -336.9342 31310.0288 -175.1908 -129.6974
ENERGY: 1200000 5.6183 6.9969 13.8657 0.0000 -10669.1544 1347.2711 0.0000 0.0000 1749.3321 -7546.0702 295.0080 -9295.4023 -7545.8451 297.8327 -902.5108 -913.2087 30931.7580 -177.3708 -126.8726
ENERGY: 1500000 7.8375 8.6631 16.7124 0.0000 -10677.3626 1405.0280 0.0000 0.0000 1831.9640 -7407.1576 308.9431 -9239.1215 -7536.5074 299.1085 -156.3859 -21.5227 30513.1558 -182.8684 -120.1240
TCL: Running FEP window  13: Lambda1 0.39999999999999963 Lambda2 0.34999999999999964 [dLambda -0.04999999999999999]
TCL: Setting parameter firsttimestep to 0
TCL: Setting parameter alchLambda to 0.39999999999999963
Info: NONBONDED TABLE R-SQUARED SPACING: 0.0625
Info: NONBONDED TABLE SIZE: 705 POINTS
TCL: Setting parameter alchLambda2 to 0.34999999999999964
Info: NONBONDED TABLE R-SQUARED SPACING: 0.0625
Info: NONBONDED TABLE SIZE: 705 POINTS
TCL: Running for 1500000 steps
ETITLE: TS BOND ANGLE DIHED IMPRP ELECT VDW BOUNDARY MISC KINETIC TOTAL TEMP POTENTIAL TOTALAVG TEMPAVG PRESSURE GPRESSURE VOLUME PRESSAVG GPRESSAVG
ENERGY: 0 7.8375 8.6631 16.7124 0.0000 -10677.3628 1404.9970 0.0000 0.0000 1831.0709 -7408.0819 308.7925 -9239.1528 -7408.0819 308.7925 -111.9035 -31.0870 30513.1558 -111.9035 -31.0870
ENERGY: 300000 8.0597 7.7277 10.4331 0.0000 -10708.5072 1427.8335 0.0000 0.0000 1699.4548 -7554.9983 286.5967 -9254.4532 -7522.9691 296.6428 -492.7528 -396.6860 30671.6113 -147.5957 -90.5688
ENERGY: 600000 6.9020 11.0419 11.9599 0.0000 -10765.8031 1418.7214 0.0000 0.0000 1732.7743 -7584.4036 292.2157 -9317.1779 -7543.7455 295.8612 -280.8686 -238.0200 30393.5293 -104.8575 -57.5345
ENERGY: 900000 7.2398 8.5233 17.6083 0.0000 -10715.5016 1363.9084 0.0000 0.0000 1756.0106 -7562.2112 296.1343 -9318.2218 -7546.7111 296.8153 -749.2883 -688.7772 30504.3347 -192.7021 -141.9629
ENERGY: 1200000 5.5228 6.6634 13.2400 0.0000 -10841.1955 1486.4642 0.0000 0.0000 1819.9483 -7509.3568 306.9168 -9329.3051 -7549.9023 297.5326 476.6040 560.6980 30354.5155 -95.9985 -43.2136
ENERGY: 1500000 3.2649 9.4052 16.1015 0.0000 -10825.5106 1492.5490 0.0000 0.0000 1756.9171 -7547.2729 296.2872 -9304.1900 -7552.7284 297.8207 487.2892 556.6365 30398.7544 -88.4347 -38.4016
TCL: Running FEP window  14: Lambda1 0.34999999999999964 Lambda2 0.29999999999999966 [dLambda -0.04999999999999999]
TCL: Setting parameter firsttimestep to 0
TCL: Setting parameter alchLambda to 0.34999999999999964
Info: NONBONDED TABLE R-SQUARED SPACING: 0.0625
Info: NONBONDED TABLE SIZE: 705 POINTS
TCL: Setting parameter alchLambda2 to 0.29999999999999966
Info: NONBONDED TABLE R-SQUARED SPACING: 0.0625
Info: NONBONDED TABLE SIZE: 705 POINTS
TCL: Running for 1500000 steps
ETITLE: TS BOND ANGLE DIHED IMPRP ELECT VDW BOUNDARY MISC KINETIC TOTAL TEMP POTENTIAL TOTALAVG TEMPAVG PRESSURE GPRESSURE VOLUME PRESSAVG GPRESSAVG
ENERGY: 0 3.2649 9.4052 16.1015 0.0000 -10825.5119 1492.4976 0.0000 0.0000 1756.0312 -7548.2114 296.1378 -9304.2427 -7548.2114 296.1378 452.1876 549.3148 30398.7544 452.1876 549.3148
ENERGY: 300000 5.0369 10.3600 10.3238 0.0000 -10804.7881 1433.6245 0.0000 0.0000 1788.5689 -7556.8739 301.6249 -9345.4428 -7526.8025 302.4860 -176.4238 -77.2455 30561.0700 33.0826 110.1908
ENERGY: 600000 10.5832 8.6856 11.9806 0.0000 -10698.2247 1381.8265 0.0000 0.0000 1756.2228 -7528.9259 296.1701 -9285.1488 -7546.2778 301.0184 -440.8974 -400.7517 30781.0351 -177.4907 -109.5419
ENERGY: 900000 5.4201 10.4965 11.9624 0.0000 -10596.0553 1298.5122 0.0000 0.0000 1782.5261 -7487.1380 300.6059 -9269.6640 -7519.5719 302.0018 -1288.3874 -1200.6129 30997.0699 -335.4985 -263.2754
ENERGY: 1200000 4.0742 3.6026 14.3896 0.0000 -10819.7641 1463.4213 0.0000 0.0000 1823.5126 -7510.7639 307.5179 -9334.2765 -7514.3173 302.2944 -94.5543 -43.7136 30950.2633 -214.9745 -143.1592
ENERGY: 1500000 3.9203 4.1505 15.7575 0.0000 -10735.2684 1446.0756 0.0000 0.0000 1777.5483 -7487.8162 299.7664 -9265.3645 -7513.1148 301.9498 441.7531 449.6249 30191.6935 -128.0627 -63.8080
TCL: Running FEP window  15: Lambda1 0.29999999999999966 Lambda2 0.24999999999999967 [dLambda -0.04999999999999999]
TCL: Setting parameter firsttimestep to 0
TCL: Setting parameter alchLambda to 0.29999999999999966
Info: NONBONDED TABLE R-SQUARED SPACING: 0.0625
Info: NONBONDED TABLE SIZE: 705 POINTS
TCL: Setting parameter alchLambda2 to 0.24999999999999967
Info: NONBONDED TABLE R-SQUARED SPACING: 0.0625
Info: NONBONDED TABLE SIZE: 705 POINTS
TCL: Running for 1500000 steps
ETITLE: TS BOND ANGLE DIHED IMPRP ELECT VDW BOUNDARY MISC KINETIC TOTAL TEMP POTENTIAL TOTALAVG TEMPAVG PRESSURE GPRESSURE VOLUME PRESSAVG GPRESSAVG
ENERGY: 0 3.9203 4.1505 15.7575 0.0000 -10735.2674 1447.1054 0.0000 0.0000 1776.6521 -7487.6817 299.6153 -9264.3338 -7487.6817 299.6153 357.7926 447.8586 30191.6935 357.7926 447.8586
ENERGY: 300000 6.4628 7.7259 13.3248 0.0000 -10765.2475 1422.1365 0.0000 0.0000 1721.5161 -7594.0813 290.3171 -9315.5974 -7563.8668 295.6944 -454.9517 -477.4679 31192.9613 -185.5740 -156.7129
ENERGY: 600000 8.7560 13.1651 11.3940 0.0000 -10800.3585 1426.3924 0.0000 0.0000 1815.8198 -7524.8312 306.2205 -9340.6510 -7540.5479 297.7543 -295.6603 -193.8819 30529.0581 -87.5659 -44.9417
ENERGY: 900000 7.6996 6.8810 12.6123 0.0000 -10842.7629 1487.0031 0.0000 0.0000 1836.4990 -7492.0677 309.7079 -9328.5668 -7528.0247 298.8355 131.7410 246.8349 30344.8149 82.8552 132.9058
ENERGY: 1200000 6.5534 9.3595 11.9439 0.0000 -10833.7527 1479.5764 0.0000 0.0000 1784.2765 -7542.0430 300.9011 -9326.3194 -7531.5973 299.7143 25.2054 79.7595 30830.6161 -6.4649 44.4786
ENERGY: 1500000 6.2547 8.2861 10.7040 0.0000 -10684.5866 1323.2545 0.0000 0.0000 1784.8128 -7551.2745 300.9915 -9336.0874 -7533.3917 298.7120 -1020.7635 -946.6439 30629.1434 -127.3512 -66.4629
TCL: Running FEP window  16: Lambda1 0.24999999999999967 Lambda2 0.19999999999999968 [dLambda -0.04999999999999999]
TCL: Setting parameter firsttimestep to 0
TCL: Setting parameter alchLambda to 0.24999999999999967
Info: NONBONDED TABLE R-SQUARED SPACING: 0.0625
Info: NONBONDED TABLE SIZE: 705 POINTS
TCL: Setting parameter alchLambda2 to 0.19999999999999968
Info: NONBONDED TABLE R-SQUARED SPACING: 0.0625
Info: NONBONDED TABLE SIZE: 705 POINTS
TCL: Running for 1500000 steps
ETITLE: TS BOND ANGLE DIHED IMPRP ELECT VDW BOUNDARY MISC KINETIC TOTAL TEMP POTENTIAL TOTALAVG TEMPAVG PRESSURE GPRESSURE VOLUME PRESSAVG GPRESSAVG
ENERGY: 0 6.2547 8.2861 10.7040 0.0000 -10684.5855 1323.2994 0.0000 0.0000 1783.9160 -7552.1252 300.8403 -9336.0413 -7552.1252 300.8403 -1048.3227 -952.6017 30629.1434 -1048.3227 -952.6017
ENERGY: 300000 9.7833 6.7023 11.3006 0.0000 -10789.6233 1445.6688 0.0000 0.0000 1741.1706 -7574.9977 293.6317 -9316.1683 -7545.2392 297.5804 -352.8248 -227.4384 30735.3719 -541.8549 -465.3802
ENERGY: 600000 4.4595 10.8141 13.1038 0.0000 -10974.5107 1532.9687 0.0000 0.0000 1801.4482 -7611.7165 303.7969 -9413.1647 -7571.7585 298.0447 710.1265 747.7839 29865.7952 -66.0688 0.5623
ENERGY: 900000 3.5699 9.2231 14.7228 0.0000 -10929.9075 1579.7964 0.0000 0.0000 1844.8554 -7477.7399 311.1171 -9322.5953 -7544.2475 300.3907 1102.3320 1193.2844 30313.9223 -26.7950 38.9338
ENERGY: 1200000 6.8673 12.5864 15.5267 0.0000 -10952.4842 1540.8035 0.0000 0.0000 1803.0156 -7573.6846 304.0612 -9376.7002 -7552.3246 299.5759 495.7243 516.1752 30558.4486 16.8939 80.0360
ENERGY: 1500000 3.3186 7.5837 15.7157 0.0000 -10799.9593 1451.9107 0.0000 0.0000 1778.2793 -7543.1513 299.8897 -9321.4306 -7559.5992 299.5441 59.0965 47.4961 30573.9035 65.8971 122.3774
TCL: Running FEP window  17: Lambda1 0.19999999999999968 Lambda2 0.1499999999999997 [dLambda -0.04999999999999999]
TCL: Setting parameter firsttimestep to 0
TCL: Setting parameter alchLambda to 0.19999999999999968
Info: NONBONDED TABLE R-SQUARED SPACING: 0.0625
Info: NONBONDED TABLE SIZE: 705 POINTS
TCL: Setting parameter alchLambda2 to 0.1499999999999997
Info: NONBONDED TABLE R-SQUARED SPACING: 0.0625
Info: NONBONDED TABLE SIZE: 705 POINTS
TCL: Running for 1500000 steps
ETITLE: TS BOND ANGLE DIHED IMPRP ELECT VDW BOUNDARY MISC KINETIC TOTAL TEMP POTENTIAL TOTALAVG TEMPAVG PRESSURE GPRESSURE VOLUME PRESSAVG GPRESSAVG
ENERGY: 0 3.3186 7.5837 15.7157 0.0000 -10799.9593 1452.1796 0.0000 0.0000 1777.4111 -7543.7506 299.7433 -9321.1616 -7543.7506 299.7433 -33.2051 42.9006 30573.9035 -33.2051 42.9006
ENERGY: 300000 4.1681 16.2213 17.8470 0.0000 -10808.2991 1478.1885 0.0000 0.0000 1777.6410 -7514.2332 299.7821 -9291.8742 -7548.7872 301.2848 600.8218 646.2472 30400.6834 -98.3234 -33.7268
ENERGY: 600000 11.7050 11.8448 17.8486 0.0000 -11018.9893 1516.3959 0.0000 0.0000 1735.0182 -7726.1768 292.5941 -9461.1950 -7582.0798 300.2837 495.4401 575.0582 29596.1985 -0.0999 58.1997
ENERGY: 900000 9.3421 12.7848 11.4814 0.0000 -10808.4539 1469.1984 0.0000 0.0000 1808.2049 -7497.4423 304.9364 -9305.6472 -7582.1962 299.1253 154.8104 220.7466 30276.7378 -67.6827 -13.5492
ENERGY: 1200000 4.5606 9.2716 16.9926 0.0000 -10919.7174 1460.5702 0.0000 0.0000 1770.5702 -7657.7522 298.5896 -9428.3224 -7578.0450 299.5730 -135.4213 -87.2372 30179.6533 -16.9790 42.5133
ENERGY: 1500000 7.9606 6.5043 12.1287 0.0000 -10870.9436 1507.0595 0.0000 0.0000 1741.8531 -7595.4375 293.7468 -9337.2906 -7565.2149 299.4561 483.0061 539.6448 30497.5378 62.0426 126.5760
TCL: Running FEP window  18: Lambda1 0.1499999999999997 Lambda2 0.09999999999999969 [dLambda -0.05 ]
TCL: Setting parameter firsttimestep to 0
TCL: Setting parameter alchLambda to 0.1499999999999997
Info: NONBONDED TABLE R-SQUARED SPACING: 0.0625
Info: NONBONDED TABLE SIZE: 705 POINTS
TCL: Setting parameter alchLambda2 to 0.09999999999999969
Info: NONBONDED TABLE R-SQUARED SPACING: 0.0625
Info: NONBONDED TABLE SIZE: 705 POINTS
TCL: Running for 1500000 steps
ETITLE: TS BOND ANGLE DIHED IMPRP ELECT VDW BOUNDARY MISC KINETIC TOTAL TEMP POTENTIAL TOTALAVG TEMPAVG PRESSURE GPRESSURE VOLUME PRESSAVG GPRESSAVG
ENERGY: 0 7.9606 6.5043 12.1287 0.0000 -10870.9424 1506.8575 0.0000 0.0000 1740.9727 -7596.5186 293.5983 -9337.4914 -7596.5186 293.5983 452.6390 532.0030 30497.5378 452.6390 532.0030
ENERGY: 300000 6.5798 11.3746 8.4594 0.0000 -10879.2199 1512.9761 0.0000 0.0000 1749.6755 -7590.1545 295.0659 -9339.8300 -7632.7012 291.6429 393.5016 460.0653 30161.0041 462.0892 521.9190
ENERGY: 600000 8.2850 9.6163 16.2119 0.0000 -10784.2271 1432.5456 0.0000 0.0000 1785.4692 -7532.0991 301.1022 -9317.5682 -7587.8099 294.3942 -174.7456 -111.9550 30355.6173 317.3845 370.0823
ENERGY: 900000 7.9170 9.8177 10.8831 0.0000 -10730.6712 1388.5036 0.0000 0.0000 1722.2013 -7591.3486 290.4327 -9313.5499 -7580.2481 295.8568 -776.9398 -724.7549 30662.5103 195.7873 238.5068
ENERGY: 1200000 4.8080 11.0566 13.4620 0.0000 -10776.8951 1418.7716 0.0000 0.0000 1799.2253 -7529.5717 303.4220 -9328.7970 -7578.2079 297.1803 -74.3542 6.2445 30160.7289 126.3620 169.8046
ENERGY: 1500000 3.8775 10.4545 15.3560 0.0000 -10889.0118 1534.1523 0.0000 0.0000 1800.9039 -7524.2676 303.7051 -9325.1715 -7576.9198 297.9466 615.8357 678.4129 30434.0296 92.3136 138.0172
TCL: Running FEP window  19: Lambda1 0.09999999999999969 Lambda2 0.049999999999999684 [dLambda -0.05 ]
TCL: Setting parameter firsttimestep to 0
TCL: Setting parameter alchLambda to 0.09999999999999969
Info: NONBONDED TABLE R-SQUARED SPACING: 0.0625
Info: NONBONDED TABLE SIZE: 705 POINTS
TCL: Setting parameter alchLambda2 to 0.049999999999999684
Info: NONBONDED TABLE R-SQUARED SPACING: 0.0625
Info: NONBONDED TABLE SIZE: 705 POINTS
TCL: Running for 1500000 steps
ETITLE: TS BOND ANGLE DIHED IMPRP ELECT VDW BOUNDARY MISC KINETIC TOTAL TEMP POTENTIAL TOTALAVG TEMPAVG PRESSURE GPRESSURE VOLUME PRESSAVG GPRESSAVG
ENERGY: 0 3.8775 10.4545 15.3560 0.0000 -10889.0110 1531.7050 0.0000 0.0000 1800.0439 -7527.5741 303.5601 -9327.6180 -7527.5741 303.5601 573.1333 661.7061 30434.0296 573.1333 661.7061
ENERGY: 300000 5.6879 15.9959 14.7143 0.0000 -10808.9068 1422.2770 0.0000 0.0000 1846.3904 -7503.8413 311.3760 -9350.2317 -7497.6583 306.9619 -557.2636 -415.1249 30713.1377 350.4465 433.0280
ENERGY: 600000 7.6696 7.4642 13.2018 0.0000 -10873.5297 1476.1066 0.0000 0.0000 1762.5231 -7606.5644 297.2326 -9369.0874 -7519.3706 303.8573 -65.9087 -11.6938 30577.0809 207.8775 293.1745
ENERGY: 900000 6.3446 10.8009 15.5502 0.0000 -10747.8728 1425.3280 0.0000 0.0000 1806.6386 -7483.2105 304.6722 -9289.8491 -7523.5720 303.6150 -270.0111 -174.9414 30763.7591 173.0226 253.4333
ENERGY: 1200000 6.5757 9.9201 14.9673 0.0000 -10744.4059 1416.9160 0.0000 0.0000 1799.2725 -7496.7542 303.4300 -9296.0267 -7522.9849 303.3919 -329.6833 -327.5853 30444.1973 125.1132 191.4095
ENERGY: 1500000 10.7507 13.4167 13.6594 0.0000 -10717.5945 1405.2548 0.0000 0.0000 1794.4518 -7480.0611 302.6170 -9274.5129 -7530.7844 302.6522 -57.4798 2.5872 30524.8945 46.8437 105.1595
TCL: Running FEP window  20: Lambda1 0.049999999999999684 Lambda2 0.0    [dLambda -0.049999999999999684]
TCL: Setting parameter firsttimestep to 0
TCL: Setting parameter alchLambda to 0.049999999999999684
Info: NONBONDED TABLE R-SQUARED SPACING: 0.0625
Info: NONBONDED TABLE SIZE: 705 POINTS
TCL: Setting parameter alchLambda2 to 0.0
Info: NONBONDED TABLE R-SQUARED SPACING: 0.0625
Info: NONBONDED TABLE SIZE: 705 POINTS
TCL: Running for 1500000 steps
ETITLE: TS BOND ANGLE DIHED IMPRP ELECT VDW BOUNDARY MISC KINETIC TOTAL TEMP POTENTIAL TOTALAVG TEMPAVG PRESSURE GPRESSURE VOLUME PRESSAVG GPRESSAVG
ENERGY: 0 10.7507 13.4167 13.6594 0.0000 -10717.5946 1402.6659 0.0000 0.0000 1793.5653 -7483.5366 302.4675 -9277.1019 -7483.5366 302.4675 -98.4278 -9.5727 30524.8945 -98.4278 -9.5727
ENERGY: 300000 3.8542 10.2280 17.5939 0.0000 -10808.2140 1507.1081 0.0000 0.0000 1772.0694 -7497.3604 298.8424 -9269.4298 -7542.6794 301.1741 679.8833 784.5251 30623.6038 -44.6622 11.7433
ENERGY: 600000 8.3989 14.1875 16.9083 0.0000 -10881.8497 1511.1144 0.0000 0.0000 1771.7982 -7559.4424 298.7967 -9331.2406 -7559.3395 299.9156 414.4174 502.3323 30177.2827 42.8431 111.7336
ENERGY: 900000 6.6790 8.9462 15.4344 0.0000 -10783.1300 1379.9745 0.0000 0.0000 1789.7704 -7582.3255 301.8276 -9372.0959 -7560.0246 300.9368 -936.4000 -869.1769 30629.9957 16.4038 83.3506
ENERGY: 1200000 6.7007 8.8312 19.2113 0.0000 -10822.6707 1410.4027 0.0000 0.0000 1786.2333 -7591.2914 301.2311 -9377.5247 -7557.2546 301.8039 -497.9742 -442.7122 30200.2046 8.2753 71.9113
ENERGY: 1500000 6.6626 13.2965 15.6799 0.0000 -10967.4342 1537.8968 0.0000 0.0000 1823.7394 -7570.1590 307.5561 -9393.8984 -7564.0884 301.2614 306.6274 396.3919 30091.8581 68.8282 129.7287
TCL: Exiting due to exit command.
