Info: SIMULATION PARAMETERS:
Info: TIMESTEP               2
Info: NUMBER OF STEPS        0
Info: STEPS PER CYCLE        10
Info: PERIODIC CELL BASIS 1  30.2805 0 0
Info: PERIODIC CELL BASIS 2  0 29.5696 0
Info: PERIODIC CELL BASIS 3  0 0 33.4371
Info: PERIODIC CELL CENTER   0 0 0
Info: WRAPPING WATERS AROUND PERIODIC BOUNDARIES ON OUTPUT.
Info: WRAPPING ALL CLUSTERS AROUND PERIODIC BOUNDARIES ON OUTPUT.
Info: FIRST LDB TIMESTEP     50
Info: LAST LDB TIMESTEP     -1
Info: HOM BACKGROUND SCALING 1
Info: PME BACKGROUND SCALING 1
Info: MIN ATOMS PER PATCH    40
Info: EMPTY PATCH LOAD       40 ATOMS
Info: VELOCITY FILE          mobley_8809190_equil.vel
Info: CENTER OF MASS MOVING INITIALLY? NO
Info: DIELECTRIC             1
Info: EXCLUDE                SCALED ONE-FOUR
Info: 1-4 ELECTROSTATICS SCALED BY 0.833333
Info: MODIFIED 1-4 VDW PARAMETERS WILL BE USED
Info: DCD FILENAME           mobley_8809190_prod.dcd
Info: DCD FREQUENCY          100000
Info: DCD FIRST STEP         100000
Info: DCD FILE WILL CONTAIN UNIT CELL DATA
Info: XST FILENAME           mobley_8809190_prod.xst
Info: XST FREQUENCY          100000
Info: NO VELOCITY DCD OUTPUT
Info: NO FORCE DCD OUTPUT
Info: OUTPUT FILENAME        mobley_8809190_prod
Info: BINARY OUTPUT FILES WILL BE USED
Info: RESTART FILENAME       mobley_8809190_prod.restart
Info: RESTART FREQUENCY      100000
Info: BINARY RESTART FILES WILL BE USED
Info: CUTOFF                 9
Info: PAIRLIST DISTANCE      11
Info: PAIRLIST SHRINK RATE   0.01
Info: PAIRLIST GROW RATE     0.01
Info: PAIRLIST TRIGGER       0.3
Info: PAIRLISTS PER CYCLE    2
Info: PAIRLISTS ENABLED
Info: MARGIN                 2
Info: HYDROGEN GROUP CUTOFF  2.5
Info: PATCH DIMENSION        15.5
Info: ENERGY OUTPUT STEPS    100000
Info: ENERGY EVALUATION STEPS    100000
Info: OUTPUT ENERGY PRECISION 4
Info: CROSSTERM ENERGY INCLUDED IN DIHEDRAL
Info: TIMING OUTPUT STEPS    1000000
Info: PRESSURE OUTPUT STEPS  100000
Info: ALCHEMICAL FEP ON
Info: FEP CURRENT LAMBDA VALUE     0
Info: FEP COMPARISON LAMBDA VALUE  0.05
Info: FEP INTRA-ALCHEMICAL NON-BONDED INTERACTIONS WILL BE RETAINED
Info: FEP INTRA-ALCHEMICAL BONDED INTERACTIONS WILL BE RETAINED
Info: FEP VDW SHIFTING COEFFICIENT 5
Info: FEP ELEC. ACTIVE FOR ANNIHILATED PARTICLES BETWEEN LAMBDA = 0 AND LAMBDA = 0.5
Info: FEP ELEC. ACTIVE FOR EXNIHILATED PARTICLES BETWEEN LAMBDA = 0.5 AND LAMBDA = 1
Info: FEP VDW ACTIVE FOR ANNIHILATED PARTICLES BETWEEN LAMBDA = 0 AND LAMBDA = 1
Info: FEP VDW ACTIVE FOR EXNIHILATED PARTICLES BETWEEN LAMBDA = 0 AND LAMBDA = 1
Info: FEP BOND ACTIVE FOR ANNIHILATED PARTICLES BETWEEN LAMBDA = 1 AND LAMBDA = 1
Info: FEP BOND ACTIVE FOR EXNIHILATED PARTICLES BETWEEN LAMBDA = 0 AND LAMBDA = 0
Info: LANGEVIN DYNAMICS ACTIVE
Info: LANGEVIN TEMPERATURE   300
Info: LANGEVIN USING BBK INTEGRATOR
Info: LANGEVIN DAMPING COEFFICIENT IS 1 INVERSE PS
Info: LANGEVIN DYNAMICS APPLIED TO HYDROGENS
Info: LANGEVIN PISTON PRESSURE CONTROL ACTIVE
Info:        TARGET PRESSURE IS 1.01325 BAR
Info:     OSCILLATION PERIOD IS 50 FS
Info:             DECAY TIME IS 25 FS
Info:     PISTON TEMPERATURE IS 300 K
Info:       PRESSURE CONTROL IS GROUP-BASED
Info:    INITIAL STRAIN RATE IS 0.000479198 0.000479198 0.000479198
Info:       CELL FLUCTUATION IS ISOTROPIC
Info: PARTICLE MESH EWALD (PME) ACTIVE
Info: PME TOLERANCE               1e-06
Info: PME EWALD COEFFICIENT       0.348832
Info: PME INTERPOLATION ORDER     4
Info: PME GRID DIMENSIONS         32 32 36
Info: PME MAXIMUM GRID SPACING    1
Info: PME CALCULATION WILL BE PERFORMED ON GPU
Info: FULL ELECTROSTATIC EVALUATION FREQUENCY      2
Info: USING VERLET I (r-RESPA) MTS SCHEME.
Info: C1 SPLITTING OF LONG RANGE ELECTROSTATICS
Info: PLACING ATOMS IN PATCHES BY HYDROGEN GROUPS
Info: RIGID BONDS TO HYDROGEN : ALL
Info:         ERROR TOLERANCE : 1e-08
Info:          MAX ITERATIONS : 100
Info: RIGID WATER USING SETTLE ALGORITHM
Info: RANDOM NUMBER SEED     1743944084
Info: USE HYDROGEN BONDS?    NO
Info: Using AMBER format force field!
Info: AMBER PARM FILE        mobley_8809190.prmtop
Info: COORDINATE PDB         mobley_8809190.pdb
Info: Exclusions will be read from PARM file!
Info: SCNB (VDW SCALING)     2
Info: USING ARITHMETIC MEAN TO COMBINE L-J SIGMA PARAMETERS
Info: BINARY COORDINATES     mobley_8809190_equil.coor
Info: SUMMARY OF PARAMETERS:
Info: 7 BONDS
Info: 8 ANGLES
Info:   8 HARMONIC
Info:   0 COSINE-BASED
Info: 9 DIHEDRAL
Info: 0 IMPROPER
Info: 0 CROSSTERM
Info: 0 VDW
Info: 21 VDW_PAIRS
Info: 0 NBTHOLE_PAIRS
Info: To read alchdata from file: mobley_8809190.pdb
Info: To read alchflag data from column: 5
Info: STRUCTURE SUMMARY:
Info: 2937 ATOMS
Info: 2937 BONDS
Info: 42 ANGLES
Info: 65 DIHEDRALS
Info: 0 IMPROPERS
Info: 0 CROSSTERMS
Info: 3033 EXCLUSIONS
Info: 2927 RIGID BONDS
Info: ALCH: 0 ATOMS TO DISAPPEAR IN FINAL STATE
Info: ALCH: 24 ATOMS TO APPEAR IN FINAL STATE
Info: 5884 DEGREES OF FREEDOM
Info: 981 HYDROGEN GROUPS
Info: 4 ATOMS IN LARGEST HYDROGEN GROUP
Info: 981 MIGRATION GROUPS
Info: 4 ATOMS IN LARGEST MIGRATION GROUP
Info: TOTAL MASS = 17627.7 amu
Info: TOTAL CHARGE = -9.99793e-05 e
Info: MASS DENSITY = 0.977728 g/cm^3
Info: ATOM DENSITY = 0.0980993 atoms/A^3
Info: ADDED 0 IMPLICIT EXCLUSIONS
Info: NONBONDED TABLE R-SQUARED SPACING: 0.0625
Info: NONBONDED TABLE SIZE: 705 POINTS
Info: REMOVING COM VELOCITY 0.126776 0.0379393 -0.243169
Info: Use 3D box decompostion in PME FFT.
Info: Updated CUDA force table with 4096 elements.
Info: Updated CUDA LJ table with 6 x 6 elements.
Info: Found 23 unique exclusion lists needing 80 bytes
TCL: Running for 1500000 steps
ETITLE: TS BOND ANGLE DIHED IMPRP ELECT VDW BOUNDARY MISC KINETIC TOTAL TEMP POTENTIAL TOTALAVG TEMPAVG PRESSURE GPRESSURE VOLUME PRESSAVG GPRESSAVG
ENERGY: 0 2.5338 7.6159 2.8521 0.0000 -10724.2883 1477.4186 0.0000 0.0000 1759.3570 -7474.5110 300.9343 -9233.8680 -7474.5110 300.9343 312.9898 390.3989 29939.0471 312.9898 390.3989
ENERGY: 300000 5.8441 7.7865 4.1631 0.0000 -10709.7045 1525.1337 0.0000 0.0000 1752.8168 -7413.9603 299.8156 -9166.7771 -7435.8897 300.3182 559.3789 628.8529 29940.2364 276.3933 343.4916
ENERGY: 600000 2.8193 4.8659 5.6410 0.0000 -10580.4825 1362.0929 0.0000 0.0000 1770.8403 -7434.2231 302.8985 -9205.0634 -7433.7827 299.4367 -1045.5823 -1002.1298 30624.0533 -5.7323 49.2834
ENERGY: 900000 1.6158 7.1245 4.5036 0.0000 -10555.3473 1393.5665 0.0000 0.0000 1799.8148 -7348.7221 307.8545 -9148.5369 -7403.1307 301.4822 -484.8504 -370.2512 30359.6236 -52.7857 20.0123
ENERGY: 1200000 0.8958 5.5525 3.1420 0.0000 -10555.3471 1401.6242 0.0000 0.0000 1766.3002 -7377.8324 302.1219 -9144.1326 -7409.8611 301.1323 -54.5362 22.5257 29820.3103 -50.9566 29.1571
ENERGY: 1500000 3.3255 11.4656 3.6934 0.0000 -10533.6042 1403.8772 0.0000 0.0000 1779.7875 -7331.4550 304.4289 -9111.2425 -7408.5436 300.9515 -170.3256 -67.4349 30086.5481 -11.6584 62.5246
TCL: Running FEP window   2: Lambda1 0.05   Lambda2 0.1    [dLambda 0.05  ]
TCL: Setting parameter firsttimestep to 0
TCL: Setting parameter alchLambda to 0.05
Info: NONBONDED TABLE R-SQUARED SPACING: 0.0625
Info: NONBONDED TABLE SIZE: 705 POINTS
TCL: Setting parameter alchLambda2 to 0.1
Info: NONBONDED TABLE R-SQUARED SPACING: 0.0625
Info: NONBONDED TABLE SIZE: 705 POINTS
TCL: Running for 1500000 steps
ETITLE: TS BOND ANGLE DIHED IMPRP ELECT VDW BOUNDARY MISC KINETIC TOTAL TEMP POTENTIAL TOTALAVG TEMPAVG PRESSURE GPRESSURE VOLUME PRESSAVG GPRESSAVG
ENERGY: 0 3.3255 11.4656 3.6934 0.0000 -10533.6065 1406.1162 0.0000 0.0000 1778.9165 -7330.0892 304.2799 -9109.0057 -7330.0892 304.2799 -152.1621 -57.1739 30086.5481 -152.1621 -57.1739
ENERGY: 300000 3.6263 12.5206 5.8581 0.0000 -10524.5617 1334.4206 0.0000 0.0000 1751.0457 -7417.0904 299.5127 -9168.1361 -7387.8798 300.5457 -1017.6278 -945.9788 29842.5862 -387.3495 -306.7744
ENERGY: 600000 4.4523 7.8481 4.4875 0.0000 -10573.2745 1379.1115 0.0000 0.0000 1724.5251 -7452.8501 294.9764 -9177.3752 -7405.1872 299.8445 -980.6498 -900.8012 30872.4435 -419.0442 -350.3453
ENERGY: 900000 2.5072 10.0017 7.1434 0.0000 -10524.3556 1348.9884 0.0000 0.0000 1767.9257 -7387.7893 302.4000 -9155.7150 -7407.0491 299.8840 -552.4097 -504.9921 29909.4009 -419.8301 -352.9357
ENERGY: 1200000 2.7826 8.7445 6.2394 0.0000 -10604.2591 1402.5657 0.0000 0.0000 1778.0022 -7405.9246 304.1235 -9183.9268 -7414.2030 299.1632 -262.5070 -243.6849 29953.2810 -373.3093 -314.9686
ENERGY: 1500000 3.1527 12.3248 6.6547 0.0000 -10655.3947 1458.5366 0.0000 0.0000 1771.4434 -7403.2824 303.0017 -9174.7258 -7408.9357 300.1624 488.4898 545.4702 29632.0018 -277.8043 -222.5376
TCL: Running FEP window   3: Lambda1 0.1    Lambda2 0.15000000000000002 [dLambda 0.05000000000000002]
TCL: Setting parameter firsttimestep to 0
TCL: Setting parameter alchLambda to 0.1
Info: NONBONDED TABLE R-SQUARED SPACING: 0.0625
Info: NONBONDED TABLE SIZE: 705 POINTS
TCL: Setting parameter alchLambda2 to 0.15000000000000002
Info: NONBONDED TABLE R-SQUARED SPACING: 0.0625
Info: NONBONDED TABLE SIZE: 705 POINTS
TCL: Running for 1500000 steps
ETITLE: TS BOND ANGLE DIHED IMPRP ELECT VDW BOUNDARY MISC KINETIC TOTAL TEMP POTENTIAL TOTALAVG TEMPAVG PRESSURE GPRESSURE VOLUME PRESSAVG GPRESSAVG
ENERGY: 0 3.1527 12.3249 6.6547 0.0000 -10655.3948 1459.0546 0.0000 0.0000 1770.5665 -7403.6414 302.8517 -9174.2080 -7403.6414 302.8517 482.0091 551.4223 29632.0018 482.0091 551.4223
ENERGY: 300000 1.7695 8.8318 2.6799 0.0000 -10490.3375 1378.1982 0.0000 0.0000 1731.0791 -7367.7789 296.0974 -9098.8579 -7404.6025 299.0882 -577.4800 -531.0499 30528.0309 -18.6489 49.9089
ENERGY: 600000 2.6139 8.2387 9.3767 0.0000 -10609.3654 1410.9185 0.0000 0.0000 1815.0850 -7363.1326 310.4665 -9178.2176 -7396.4907 301.9670 -112.4694 -64.5736 29760.5599 -47.2772 17.8696
ENERGY: 900000 5.1705 12.5006 4.0605 0.0000 -10711.2732 1551.3525 0.0000 0.0000 1750.9480 -7387.2411 299.4960 -9138.1891 -7395.3104 301.7994 982.4240 955.6977 29856.2471 -32.9515 30.8704
ENERGY: 1200000 3.8640 9.0456 6.0881 0.0000 -10495.1703 1333.5028 0.0000 0.0000 1808.0325 -7334.6372 309.2601 -9142.6697 -7389.2285 302.7578 -444.6720 -389.0950 29902.7347 1.8003 72.2241
ENERGY: 1500000 4.2432 11.8234 2.8790 0.0000 -10666.9778 1465.1725 0.0000 0.0000 1756.6806 -7426.1791 300.4765 -9182.8597 -7395.8646 302.1661 205.4154 177.4276 30159.9703 -8.7443 52.1442
TCL: Running FEP window   4: Lambda1 0.15000000000000002 Lambda2 0.2    [dLambda 0.04999999999999999]
TCL: Setting parameter firsttimestep to 0
TCL: Setting parameter alchLambda to 0.15000000000000002
Info: NONBONDED TABLE R-SQUARED SPACING: 0.0625
Info: NONBONDED TABLE SIZE: 705 POINTS
TCL: Setting parameter alchLambda2 to 0.2
Info: NONBONDED TABLE R-SQUARED SPACING: 0.0625
Info: NONBONDED TABLE SIZE: 705 POINTS
TCL: Running for 1500000 steps
ETITLE: TS BOND ANGLE DIHED IMPRP ELECT VDW BOUNDARY MISC KINETIC TOTAL TEMP POTENTIAL TOTALAVG TEMPAVG PRESSURE GPRESSURE VOLUME PRESSAVG GPRESSAVG
ENERGY: 0 4.2432 11.8234 2.8790 0.0000 -10666.9774 1465.9515 0.0000 0.0000 1755.8309 -7426.2493 300.3312 -9182.0803 -7426.2493 300.3312 108.7892 182.6509 30159.9703 108.7892 182.6509
ENERGY: 300000 1.7900 10.8305 3.0405 0.0000 -10609.3371 1422.7084 0.0000 0.0000 1760.2350 -7410.7327 301.0845 -9170.9677 -7376.3141 302.7095 -70.5441 -21.7195 30052.8336 135.1300 195.4379
ENERGY: 600000 4.8349 11.6229 5.4075 0.0000 -10693.7898 1479.0545 0.0000 0.0000 1718.1676 -7474.7023 293.8889 -9192.8699 -7383.1006 301.4876 41.4900 75.3522 30211.6815 50.7707 101.0842
ENERGY: 900000 2.2488 8.6454 4.5534 0.0000 -10659.2862 1447.9424 0.0000 0.0000 1760.4620 -7435.4342 301.1233 -9195.8962 -7390.2949 301.7427 -171.5713 -130.7478 30479.1274 36.8000 93.0041
ENERGY: 1200000 3.9771 8.4647 3.5721 0.0000 -10773.1459 1502.4487 0.0000 0.0000 1760.1597 -7494.5236 301.0716 -9254.6833 -7393.7300 301.2960 141.7205 206.0305 30132.9849 -6.5352 52.8106
ENERGY: 1500000 1.8350 6.4593 3.7968 0.0000 -10509.9947 1306.6553 0.0000 0.0000 1772.2741 -7418.9742 303.1437 -9191.2483 -7396.9400 300.8663 -1174.2017 -1046.0840 29997.7147 -148.8380 -84.9203
TCL: Running FEP window   5: Lambda1 0.2    Lambda2 0.25   [dLambda 0.04999999999999999]
TCL: Setting parameter firsttimestep to 0
TCL: Setting parameter alchLambda to 0.2
Info: NONBONDED TABLE R-SQUARED SPACING: 0.0625
Info: NONBONDED TABLE SIZE: 705 POINTS
TCL: Setting parameter alchLambda2 to 0.25
Info: NONBONDED TABLE R-SQUARED SPACING: 0.0625
Info: NONBONDED TABLE SIZE: 705 POINTS
TCL: Running for 1500000 steps
ETITLE: TS BOND ANGLE DIHED IMPRP ELECT VDW BOUNDARY MISC KINETIC TOTAL TEMP POTENTIAL TOTALAVG TEMPAVG PRESSURE GPRESSURE VOLUME PRESSAVG GPRESSAVG
ENERGY: 0 1.8350 6.4593 3.7968 0.0000 -10509.9934 1307.5100 0.0000 0.0000 1771.4067 -7418.9856 302.9954 -9190.3923 -7418.9856 302.9954 -1140.0223 -1039.0352 29997.7147 -1140.0223 -1039.0352
ENERGY: 300000 1.3961 9.8144 2.1374 0.0000 -10467.5756 1325.6494 0.0000 0.0000 1754.9713 -7373.6069 300.1841 -9128.5782 -7387.6786 300.0816 -854.3777 -739.3129 30394.8133 -472.4983 -394.7889
ENERGY: 600000 3.6593 7.7980 4.4618 0.0000 -10528.2323 1364.2958 0.0000 0.0000 1749.0822 -7398.9352 299.1768 -9148.0174 -7393.6028 299.0685 -614.4415 -553.9031 29844.9802 -488.1827 -424.0044
ENERGY: 900000 8.4551 8.6466 4.1470 0.0000 -10563.9591 1432.2798 0.0000 0.0000 1741.1831 -7369.2474 297.8257 -9110.4305 -7399.1285 297.7499 -374.9869 -273.2289 30843.3046 -388.6999 -321.0492
ENERGY: 1200000 3.4516 12.5332 4.4089 0.0000 -10621.7560 1424.7784 0.0000 0.0000 1759.9608 -7416.6232 301.0376 -9176.5839 -7402.4218 298.3783 55.0844 84.4115 30168.9579 -338.0392 -276.9191
ENERGY: 1500000 3.5729 4.2437 2.8177 0.0000 -10582.8943 1438.6394 0.0000 0.0000 1728.4034 -7405.2173 295.6398 -9133.6207 -7406.9634 298.4730 152.9366 132.4333 30141.0212 -301.0233 -245.4338
TCL: Running FEP window   6: Lambda1 0.25   Lambda2 0.3    [dLambda 0.04999999999999999]
TCL: Setting parameter firsttimestep to 0
TCL: Setting parameter alchLambda to 0.25
Info: NONBONDED TABLE R-SQUARED SPACING: 0.0625
Info: NONBONDED TABLE SIZE: 705 POINTS
TCL: Setting parameter alchLambda2 to 0.3
Info: NONBONDED TABLE R-SQUARED SPACING: 0.0625
Info: NONBONDED TABLE SIZE: 705 POINTS
TCL: Running for 1500000 steps
ETITLE: TS BOND ANGLE DIHED IMPRP ELECT VDW BOUNDARY MISC KINETIC TOTAL TEMP POTENTIAL TOTALAVG TEMPAVG PRESSURE GPRESSURE VOLUME PRESSAVG GPRESSAVG
ENERGY: 0 3.5729 4.2437 2.8177 0.0000 -10582.8939 1438.4811 0.0000 0.0000 1727.5392 -7406.2394 295.4919 -9133.7787 -7406.2394 295.4919 48.3135 136.9269 30141.0212 48.3135 136.9269
ENERGY: 300000 4.5839 5.1316 4.3381 0.0000 -10663.6115 1453.0694 0.0000 0.0000 1773.2261 -7423.2625 303.3066 -9196.4886 -7401.8292 302.2458 49.8724 143.6024 30144.6317 238.7178 329.8998
ENERGY: 600000 1.4578 9.5237 5.4724 0.0000 -10708.6790 1524.2976 0.0000 0.0000 1760.8744 -7407.0531 301.1939 -9167.9276 -7410.6484 300.6118 783.0848 830.4059 29894.5700 47.1343 139.0322
ENERGY: 900000 2.0168 7.4332 3.1335 0.0000 -10546.2588 1396.5718 0.0000 0.0000 1772.9829 -7364.1207 303.2650 -9137.1036 -7401.2573 301.8779 -154.3683 -137.3017 30203.1450 88.0825 164.7746
ENERGY: 1200000 2.6202 7.3803 4.7798 0.0000 -10431.3349 1333.3655 0.0000 0.0000 1802.8629 -7280.3263 308.3759 -9083.1892 -7389.6223 302.6992 -681.8541 -614.0576 30287.0496 39.4996 111.0887
ENERGY: 1500000 3.6870 5.9591 3.9540 0.0000 -10607.1998 1442.9489 0.0000 0.0000 1736.0000 -7414.6508 296.9391 -9150.6508 -7386.1083 302.4180 -227.1149 -169.3734 30519.7570 13.6112 80.6328
TCL: Running FEP window   7: Lambda1 0.3    Lambda2 0.35   [dLambda 0.04999999999999999]
TCL: Setting parameter firsttimestep to 0
TCL: Setting parameter alchLambda to 0.3
Info: NONBONDED TABLE R-SQUARED SPACING: 0.0625
Info: NONBONDED TABLE SIZE: 705 POINTS
TCL: Setting parameter alchLambda2 to 0.35
Info: NONBONDED TABLE R-SQUARED SPACING: 0.0625
Info: NONBONDED TABLE SIZE: 705 POINTS
TCL: Running for 1500000 steps
ETITLE: TS BOND ANGLE DIHED IMPRP ELECT VDW BOUNDARY MISC KINETIC TOTAL TEMP POTENTIAL TOTALAVG TEMPAVG PRESSURE GPRESSURE VOLUME PRESSAVG GPRESSAVG
ENERGY: 0 3.6870 5.9591 3.9540 0.0000 -10607.1984 1445.4055 0.0000 0.0000 1735.1233 -7413.0695 296.7892 -9148.1928 -7413.0695 296.7892 -230.3175 -150.6068 30519.7570 -230.3175 -150.6068
ENERGY: 300000 2.6427 8.0525 3.0777 0.0000 -10472.2984 1352.1161 0.0000 0.0000 1709.5499 -7396.8596 292.4149 -9106.4095 -7392.1995 295.4324 -725.3517 -697.7352 30433.2185 -508.5707 -431.1176
ENERGY: 600000 6.3017 10.4732 2.2428 0.0000 -10649.7432 1466.4624 0.0000 0.0000 1751.8304 -7412.4327 299.6469 -9164.2632 -7394.6752 297.1849 134.5017 187.8938 30021.8161 -256.3072 -192.9815
ENERGY: 900000 5.4094 6.6868 6.3296 0.0000 -10482.6957 1379.9664 0.0000 0.0000 1784.6788 -7299.6247 305.2655 -9084.3035 -7392.2315 297.7488 53.3650 108.4217 29639.9551 -281.4409 -216.0092
ENERGY: 1200000 4.8399 8.1285 4.9504 0.0000 -10611.8553 1394.3791 0.0000 0.0000 1714.7014 -7484.8560 293.2961 -9199.5574 -7397.6217 298.4290 -526.0061 -413.9961 30178.7392 -207.7968 -142.2758
ENERGY: 1500000 7.6428 6.9852 2.5602 0.0000 -10522.5891 1405.8229 0.0000 0.0000 1791.7879 -7307.7901 306.4815 -9099.5779 -7382.8525 299.6576 -210.8664 -165.0791 30293.9901 -170.9186 -106.4140
TCL: Running FEP window   8: Lambda1 0.35   Lambda2 0.39999999999999997 [dLambda 0.04999999999999999]
TCL: Setting parameter firsttimestep to 0
TCL: Setting parameter alchLambda to 0.35
Info: NONBONDED TABLE R-SQUARED SPACING: 0.0625
Info: NONBONDED TABLE SIZE: 705 POINTS
TCL: Setting parameter alchLambda2 to 0.39999999999999997
Info: NONBONDED TABLE R-SQUARED SPACING: 0.0625
Info: NONBONDED TABLE SIZE: 705 POINTS
TCL: Running for 1500000 steps
ETITLE: TS BOND ANGLE DIHED IMPRP ELECT VDW BOUNDARY MISC KINETIC TOTAL TEMP POTENTIAL TOTALAVG TEMPAVG PRESSURE GPRESSURE VOLUME PRESSAVG GPRESSAVG
ENERGY: 0 7.6428 6.9852 2.5602 0.0000 -10522.5897 1406.4811 0.0000 0.0000 1790.8940 -7308.0263 306.3286 -9098.9203 -7308.0263 306.3286 -233.9793 -152.6050 30293.9901 -233.9793 -152.6050
ENERGY: 300000 2.2344 7.1553 2.4974 0.0000 -10583.8512 1443.8278 0.0000 0.0000 1749.1331 -7379.0032 299.1855 -9128.1363 -7403.5354 299.4752 224.9515 260.1929 30183.6986 -403.4078 -340.1875
ENERGY: 600000 3.7439 11.9289 4.3392 0.0000 -10541.0839 1368.5119 0.0000 0.0000 1777.7498 -7374.8102 304.0803 -9152.5599 -7404.0952 300.7025 -711.3977 -610.6603 30353.5548 -246.1158 -169.6760
ENERGY: 900000 11.8400 7.5249 4.8262 0.0000 -10535.4337 1384.7589 0.0000 0.0000 1799.6922 -7326.7915 307.8336 -9126.4838 -7375.0350 302.3749 -564.9227 -451.5980 30148.1992 -180.2927 -107.0750
ENERGY: 1200000 1.4577 8.5059 4.1540 0.0000 -10541.6560 1334.4439 0.0000 0.0000 1761.7793 -7431.3152 301.3486 -9193.0945 -7384.1618 302.6516 -887.1958 -815.0335 30363.8254 -123.0625 -58.5522
ENERGY: 1500000 3.2772 11.8300 2.7149 0.0000 -10590.3094 1391.6723 0.0000 0.0000 1736.1249 -7444.6901 296.9605 -9180.8150 -7387.7877 301.6018 -344.9302 -353.6618 30362.5067 -154.1582 -94.1095
TCL: Running FEP window   9: Lambda1 0.39999999999999997 Lambda2 0.44999999999999996 [dLambda 0.04999999999999999]
TCL: Setting parameter firsttimestep to 0
TCL: Setting parameter alchLambda to 0.39999999999999997
Info: NONBONDED TABLE R-SQUARED SPACING: 0.0625
Info: NONBONDED TABLE SIZE: 705 POINTS
TCL: Setting parameter alchLambda2 to 0.44999999999999996
Info: NONBONDED TABLE R-SQUARED SPACING: 0.0625
Info: NONBONDED TABLE SIZE: 705 POINTS
TCL: Running for 1500000 steps
ETITLE: TS BOND ANGLE DIHED IMPRP ELECT VDW BOUNDARY MISC KINETIC TOTAL TEMP POTENTIAL TOTALAVG TEMPAVG PRESSURE GPRESSURE VOLUME PRESSAVG GPRESSAVG
ENERGY: 0 3.2772 11.8300 2.7149 0.0000 -10590.3091 1391.3314 0.0000 0.0000 1735.2630 -7445.8926 296.8131 -9181.1556 -7445.8926 296.8131 -414.2981 -350.9251 30362.5067 -414.2981 -350.9251
ENERGY: 300000 6.6255 12.5825 5.3995 0.0000 -10568.7824 1379.7901 0.0000 0.0000 1703.6103 -7460.7746 291.3989 -9164.3849 -7372.8699 299.6361 -393.8492 -298.4612 29723.3982 263.8737 330.4410
ENERGY: 600000 3.3067 8.3078 6.4807 0.0000 -10797.5825 1593.1880 0.0000 0.0000 1739.2515 -7447.0477 297.4953 -9186.2992 -7412.7346 299.0317 999.8992 1059.1966 30247.3709 113.2565 174.0259
ENERGY: 900000 2.5387 13.1741 2.1092 0.0000 -10702.0263 1509.8614 0.0000 0.0000 1734.3346 -7440.0083 296.6543 -9174.3430 -7414.5037 299.1401 881.8628 942.7310 29694.5464 126.0300 186.7361
ENERGY: 1200000 3.1167 7.9051 5.3748 0.0000 -10618.7283 1409.1332 0.0000 0.0000 1750.5522 -7442.6463 299.4283 -9193.1985 -7429.1065 299.2617 -201.8080 -121.7077 30024.6849 82.5410 143.8815
ENERGY: 1500000 3.9314 7.2043 6.0852 0.0000 -10575.4712 1429.9112 0.0000 0.0000 1726.2564 -7402.0828 295.2725 -9128.3392 -7421.7225 299.8008 -55.5158 29.6545 30215.1002 65.9634 131.4331
TCL: Running FEP window  10: Lambda1 0.44999999999999996 Lambda2 0.49999999999999994 [dLambda 0.04999999999999999]
TCL: Setting parameter firsttimestep to 0
TCL: Setting parameter alchLambda to 0.44999999999999996
Info: NONBONDED TABLE R-SQUARED SPACING: 0.0625
Info: NONBONDED TABLE SIZE: 705 POINTS
TCL: Setting parameter alchLambda2 to 0.49999999999999994
Info: NONBONDED TABLE R-SQUARED SPACING: 0.0625
Info: NONBONDED TABLE SIZE: 705 POINTS
TCL: Running for 1500000 steps
ETITLE: TS BOND ANGLE DIHED IMPRP ELECT VDW BOUNDARY MISC KINETIC TOTAL TEMP POTENTIAL TOTALAVG TEMPAVG PRESSURE GPRESSURE VOLUME PRESSAVG GPRESSAVG
ENERGY: 0 3.9314 7.2043 6.0852 0.0000 -10575.4712 1429.4099 0.0000 0.0000 1725.4038 -7403.4368 295.1267 -9128.8405 -7403.4368 295.1267 -47.7628 31.5407 30215.1002 -47.7628 31.5407
ENERGY: 300000 3.6669 8.4827 3.0925 0.0000 -10618.9537 1367.5585 0.0000 0.0000 1686.1960 -7549.9571 288.4203 -9236.1531 -7462.9638 295.3123 -794.9664 -748.1412 30311.1416 -44.8507 2.0901
ENERGY: 600000 0.6376 11.6573 2.9697 0.0000 -10605.4858 1384.2793 0.0000 0.0000 1750.9809 -7454.9610 299.5016 -9205.9419 -7448.0533 296.1488 -228.5653 -187.2614 29849.5687 20.5704 63.9741
ENERGY: 900000 1.4225 10.1096 3.2742 0.0000 -10637.3927 1447.8114 0.0000 0.0000 1693.5937 -7481.1813 289.6856 -9174.7750 -7435.4845 297.1259 66.6807 118.5119 30075.5418 31.6349 80.4321
ENERGY: 1200000 3.1707 9.4555 3.2776 0.0000 -10655.4641 1445.8640 0.0000 0.0000 1756.5698 -7437.1264 300.4576 -9193.6962 -7429.2787 298.1729 148.3232 158.2402 29828.4115 98.2266 148.3579
ENERGY: 1500000 3.9259 6.3381 3.7965 0.0000 -10699.6966 1476.0467 0.0000 0.0000 1748.7305 -7460.8589 299.1167 -9209.5894 -7421.6446 298.7696 170.0884 255.2702 30199.3050 34.6981 88.3887
TCL: Running FEP window  11: Lambda1 0.49999999999999994 Lambda2 0.5499999999999999 [dLambda 0.04999999999999999]
TCL: Setting parameter firsttimestep to 0
TCL: Setting parameter alchLambda to 0.49999999999999994
Info: NONBONDED TABLE R-SQUARED SPACING: 0.0625
Info: NONBONDED TABLE SIZE: 705 POINTS
TCL: Setting parameter alchLambda2 to 0.5499999999999999
Info: NONBONDED TABLE R-SQUARED SPACING: 0.0625
Info: NONBONDED TABLE SIZE: 705 POINTS
TCL: Running for 1500000 steps
ETITLE: TS BOND ANGLE DIHED IMPRP ELECT VDW BOUNDARY MISC KINETIC TOTAL TEMP POTENTIAL TOTALAVG TEMPAVG PRESSURE GPRESSURE VOLUME PRESSAVG GPRESSAVG
ENERGY: 0 3.9259 6.3381 3.7965 0.0000 -10699.6983 1476.1017 0.0000 0.0000 1747.8366 -7461.6995 298.9638 -9209.5361 -7461.6995 298.9638 181.8555 263.5883 30199.3050 181.8555 263.5883
ENERGY: 300000 2.1018 8.7201 3.3944 0.0000 -10687.2658 1468.7205 0.0000 0.0000 1778.8333 -7425.4957 304.2657 -9204.3290 -7425.6804 298.7915 81.2473 202.1339 30236.1927 280.7067 348.5865
ENERGY: 600000 3.9013 8.4453 4.1056 0.0000 -10706.4544 1460.2017 0.0000 0.0000 1723.2497 -7506.5508 294.7582 -9229.8005 -7432.4366 299.1829 22.1248 108.8689 30188.0347 110.3452 182.0711
ENERGY: 900000 4.8936 9.9374 6.8379 0.0000 -10735.6216 1552.1366 0.0000 0.0000 1763.1810 -7398.6351 301.5884 -9161.8161 -7423.2347 299.3792 985.9517 1057.9535 30074.3708 201.2610 271.7288
ENERGY: 1200000 1.1622 13.3497 3.5773 0.0000 -10737.1498 1528.0207 0.0000 0.0000 1767.5118 -7423.5280 302.3292 -9191.0398 -7426.4355 299.0691 903.0556 936.0047 29930.2360 160.3948 229.1923
ENERGY: 1500000 4.4628 7.6328 4.2126 0.0000 -10613.2573 1384.8950 0.0000 0.0000 1722.8994 -7489.1547 294.6983 -9212.0541 -7422.5185 298.9570 -423.5079 -368.1503 30084.8066 111.2232 177.9245
TCL: Running FEP window  12: Lambda1 0.5499999999999999 Lambda2 0.6    [dLambda 0.050000000000000044]
TCL: Setting parameter firsttimestep to 0
TCL: Setting parameter alchLambda to 0.5499999999999999
Info: NONBONDED TABLE R-SQUARED SPACING: 0.0625
Info: NONBONDED TABLE SIZE: 705 POINTS
TCL: Setting parameter alchLambda2 to 0.6
Info: NONBONDED TABLE R-SQUARED SPACING: 0.0625
Info: NONBONDED TABLE SIZE: 705 POINTS
TCL: Running for 1500000 steps
ETITLE: TS BOND ANGLE DIHED IMPRP ELECT VDW BOUNDARY MISC KINETIC TOTAL TEMP POTENTIAL TOTALAVG TEMPAVG PRESSURE GPRESSURE VOLUME PRESSAVG GPRESSAVG
ENERGY: 0 4.4628 7.6328 4.2126 0.0000 -10613.4986 1385.2238 0.0000 0.0000 1722.0142 -7489.9524 294.5469 -9211.9666 -7489.9524 294.5469 -440.6301 -357.7377 30084.8066 -440.6301 -357.7377
ENERGY: 300000 2.2851 5.8336 4.9016 0.0000 -10512.2818 1324.3430 0.0000 0.0000 1729.9333 -7444.9851 295.9014 -9174.9184 -7431.3243 294.6532 -984.6674 -925.2940 30520.1996 -302.4094 -246.6530
ENERGY: 600000 3.0565 10.2718 5.5406 0.0000 -10646.9417 1440.9045 0.0000 0.0000 1768.0378 -7419.1306 302.4191 -9187.1684 -7415.2593 297.2049 -148.8143 -100.2518 30576.5210 -215.6399 -153.0679
ENERGY: 900000 1.7179 8.8530 4.4186 0.0000 -10588.8729 1387.5272 0.0000 0.0000 1786.7322 -7399.6241 305.6168 -9186.3562 -7429.1556 296.4375 -351.5354 -225.0507 30106.0092 -183.6180 -115.0488
ENERGY: 1200000 2.8152 6.3171 4.8124 0.0000 -10612.1734 1433.9699 0.0000 0.0000 1721.8893 -7442.3694 294.5255 -9164.2587 -7425.9398 295.9118 -522.2705 -395.3166 30818.3102 -271.0463 -198.2899
ENERGY: 1500000 2.4309 13.8753 4.4885 0.0000 -10667.0538 1500.6541 0.0000 0.0000 1717.0299 -7428.5750 293.6943 -9145.6049 -7419.0483 296.4500 622.4349 659.6572 30011.6408 -214.8682 -149.5833
TCL: Running FEP window  13: Lambda1 0.6    Lambda2 0.65   [dLambda 0.050000000000000044]
TCL: Setting parameter firsttimestep to 0
TCL: Setting parameter alchLambda to 0.6
Info: NONBONDED TABLE R-SQUARED SPACING: 0.0625
Info: NONBONDED TABLE SIZE: 705 POINTS
TCL: Setting parameter alchLambda2 to 0.65
Info: NONBONDED TABLE R-SQUARED SPACING: 0.0625
Info: NONBONDED TABLE SIZE: 705 POINTS
TCL: Running for 1500000 steps
ETITLE: TS BOND ANGLE DIHED IMPRP ELECT VDW BOUNDARY MISC KINETIC TOTAL TEMP POTENTIAL TOTALAVG TEMPAVG PRESSURE GPRESSURE VOLUME PRESSAVG GPRESSAVG
ENERGY: 0 2.4310 13.8754 4.4885 0.0000 -10666.9799 1500.4731 0.0000 0.0000 1716.1367 -7429.5754 293.5416 -9145.7121 -7429.5754 293.5416 591.1293 670.8592 30011.6408 591.1293 670.8592
ENERGY: 300000 3.7933 9.4318 3.7402 0.0000 -10600.2577 1393.9094 0.0000 0.0000 1778.7491 -7410.6339 304.2513 -9189.3830 -7417.7344 297.9538 -216.0796 -181.9029 30258.6196 51.5207 121.9117
ENERGY: 600000 3.7103 10.1306 4.9843 0.0000 -10403.9957 1257.5247 0.0000 0.0000 1717.1207 -7410.5251 293.7099 -9127.6458 -7390.2616 298.6476 -1545.7831 -1488.1212 30820.7448 -252.6035 -188.0050
ENERGY: 900000 4.4024 7.7043 4.9362 0.0000 -10519.5929 1354.7849 0.0000 0.0000 1749.5399 -7398.2252 299.2551 -9147.7651 -7400.0167 299.1548 -415.1752 -314.9328 30020.1717 -304.6269 -239.5435
ENERGY: 1200000 5.2004 7.1515 3.0027 0.0000 -10543.7934 1398.1857 0.0000 0.0000 1758.1603 -7372.0928 300.7296 -9130.2532 -7399.2129 300.0263 -142.7611 -114.5301 30274.5402 -344.1468 -285.4182
ENERGY: 1500000 3.6279 10.8875 7.3031 0.0000 -10543.1650 1340.0907 0.0000 0.0000 1727.3062 -7453.9496 295.4521 -9181.2558 -7405.7942 298.9065 -679.1741 -659.9388 30064.0023 -356.6642 -289.5911
TCL: Running FEP window  14: Lambda1 0.65   Lambda2 0.7000000000000001 [dLambda 0.050000000000000044]
TCL: Setting parameter firsttimestep to 0
TCL: Setting parameter alchLambda to 0.65
Info: NONBONDED TABLE R-SQUARED SPACING: 0.0625
Info: NONBONDED TABLE SIZE: 705 POINTS
TCL: Setting parameter alchLambda2 to 0.7000000000000001
Info: NONBONDED TABLE R-SQUARED SPACING: 0.0625
Info: NONBONDED TABLE SIZE: 705 POINTS
TCL: Running for 1500000 steps
ETITLE: TS BOND ANGLE DIHED IMPRP ELECT VDW BOUNDARY MISC KINETIC TOTAL TEMP POTENTIAL TOTALAVG TEMPAVG PRESSURE GPRESSURE VOLUME PRESSAVG GPRESSAVG
ENERGY: 0 3.6278 10.8875 7.3031 0.0000 -10543.6681 1340.9124 0.0000 0.0000 1726.4158 -7454.5214 295.2998 -9180.9372 -7454.5214 295.2998 -734.7978 -640.8311 30064.0023 -734.7978 -640.8311
ENERGY: 300000 4.6802 13.1634 2.6179 0.0000 -10615.6291 1420.5790 0.0000 0.0000 1767.7092 -7406.8793 302.3629 -9174.5885 -7411.5820 303.5236 -150.6077 -37.6945 30244.5239 -333.5017 -234.0579
ENERGY: 600000 3.3361 8.1205 3.5447 0.0000 -10570.4557 1455.0781 0.0000 0.0000 1746.6944 -7353.6819 298.7684 -9100.3763 -7390.1811 304.0841 554.0004 640.4757 29862.7733 -126.6022 -44.5374
ENERGY: 900000 3.1011 8.0377 5.9841 0.0000 -10518.8127 1358.2777 0.0000 0.0000 1790.3263 -7353.0858 306.2315 -9143.4121 -7390.5208 303.8237 -414.7983 -281.3637 29678.2415 35.9295 108.0396
ENERGY: 1200000 1.8535 11.6407 6.6931 0.0000 -10479.2839 1367.7842 0.0000 0.0000 1702.8462 -7388.4662 291.2682 -9091.3124 -7389.9765 302.8740 -379.6464 -295.8043 30482.2498 -24.7336 48.5546
ENERGY: 1500000 2.3616 13.0701 4.2409 0.0000 -10528.5981 1366.5504 0.0000 0.0000 1756.6101 -7385.7651 300.4644 -9142.3752 -7389.2357 302.5596 -376.1013 -341.0315 30185.0235 -41.6751 28.7040
TCL: Running FEP window  15: Lambda1 0.7000000000000001 Lambda2 0.7500000000000001 [dLambda 0.050000000000000044]
TCL: Setting parameter firsttimestep to 0
TCL: Setting parameter alchLambda to 0.7000000000000001
Info: NONBONDED TABLE R-SQUARED SPACING: 0.0625
Info: NONBONDED TABLE SIZE: 705 POINTS
TCL: Setting parameter alchLambda2 to 0.7500000000000001
Info: NONBONDED TABLE R-SQUARED SPACING: 0.0625
Info: NONBONDED TABLE SIZE: 705 POINTS
TCL: Running for 1500000 steps
ETITLE: TS BOND ANGLE DIHED IMPRP ELECT VDW BOUNDARY MISC KINETIC TOTAL TEMP POTENTIAL TOTALAVG TEMPAVG PRESSURE GPRESSURE VOLUME PRESSAVG GPRESSAVG
ENERGY: 0 2.3616 13.0701 4.2409 0.0000 -10528.4736 1366.0642 0.0000 0.0000 1755.7634 -7386.9734 300.3196 -9142.7369 -7386.9734 300.3196 -412.0659 -334.9174 30185.0235 -412.0659 -334.9174
ENERGY: 300000 2.0275 7.7873 5.1709 0.0000 -10472.6216 1381.6910 0.0000 0.0000 1758.1682 -7317.7767 300.7310 -9075.9450 -7367.3752 301.4083 -386.1415 -318.3984 30518.4484 -171.3117 -110.5714
ENERGY: 600000 5.3296 13.6325 4.3023 0.0000 -10529.0043 1354.7630 0.0000 0.0000 1765.2060 -7385.7709 301.9348 -9150.9769 -7376.8773 300.9834 -474.8561 -452.3086 30373.9179 -222.9466 -178.6705
ENERGY: 900000 1.3003 7.8770 6.3270 0.0000 -10589.5850 1458.9806 0.0000 0.0000 1723.7899 -7391.3103 294.8506 -9115.1001 -7384.6480 300.6343 433.7896 557.0596 30195.9624 -135.0034 -85.6649
ENERGY: 1200000 6.6894 7.9789 3.7398 0.0000 -10721.3561 1474.1336 0.0000 0.0000 1745.2706 -7483.5438 298.5248 -9228.8144 -7396.5237 300.4951 182.9801 232.8771 29886.4861 -136.1870 -95.4938
ENERGY: 1500000 2.7471 10.1574 4.0666 0.0000 -10523.2821 1389.8095 0.0000 0.0000 1786.2999 -7330.2014 305.5428 -9116.5013 -7390.6135 301.4107 -403.5258 -327.5619 30444.6000 -206.0794 -163.6864
TCL: Running FEP window  16: Lambda1 0.7500000000000001 Lambda2 0.8000000000000002 [dLambda 0.050000000000000044]
TCL: Setting parameter firsttimestep to 0
TCL: Setting parameter alchLambda to 0.7500000000000001
Info: NONBONDED TABLE R-SQUARED SPACING: 0.0625
Info: NONBONDED TABLE SIZE: 705 POINTS
TCL: Setting parameter alchLambda2 to 0.8000000000000002
Info: NONBONDED TABLE R-SQUARED SPACING: 0.0625
Info: NONBONDED TABLE SIZE: 705 POINTS
TCL: Running for 1500000 steps
ETITLE: TS BOND ANGLE DIHED IMPRP ELECT VDW BOUNDARY MISC KINETIC TOTAL TEMP POTENTIAL TOTALAVG TEMPAVG PRESSURE GPRESSURE VOLUME PRESSAVG GPRESSAVG
ENERGY: 0 2.7471 10.1575 4.0666 0.0000 -10523.3902 1390.2337 0.0000 0.0000 1785.4569 -7330.7285 305.3986 -9116.1854 -7330.7285 305.3986 -387.2232 -309.1820 30444.6000 -387.2232 -309.1820
ENERGY: 300000 5.4284 12.6806 3.7562 0.0000 -10647.6705 1501.0914 0.0000 0.0000 1773.2834 -7351.4305 303.3164 -9124.7139 -7352.1534 305.6107 492.4199 551.8998 30216.8626 -29.5570 36.1446
ENERGY: 600000 4.5174 8.7675 4.6741 0.0000 -10701.3361 1500.3839 0.0000 0.0000 1716.6933 -7466.2999 293.6368 -9182.9932 -7382.9490 302.7457 529.4122 572.6035 29860.1956 109.3794 179.2747
ENERGY: 900000 4.5920 9.0662 2.3177 0.0000 -10541.7601 1428.5784 0.0000 0.0000 1758.5462 -7338.6597 300.7956 -9097.2059 -7376.3431 301.7113 -236.1369 -135.4645 30998.3697 -34.1169 43.3078
ENERGY: 1200000 2.4598 8.0442 6.3534 0.0000 -10730.3888 1451.3397 0.0000 0.0000 1762.0675 -7500.1241 301.3979 -9262.1916 -7379.1805 302.0015 295.6092 329.8474 29611.2541 11.9324 80.6939
ENERGY: 1500000 6.0497 6.1405 2.3725 0.0000 -10538.5592 1361.0871 0.0000 0.0000 1781.1112 -7381.7983 304.6553 -9162.9094 -7368.4145 302.7888 -765.5411 -687.5091 30389.4398 15.0780 80.6569
TCL: Running FEP window  17: Lambda1 0.8000000000000002 Lambda2 0.8500000000000002 [dLambda 0.050000000000000044]
TCL: Setting parameter firsttimestep to 0
TCL: Setting parameter alchLambda to 0.8000000000000002
Info: NONBONDED TABLE R-SQUARED SPACING: 0.0625
Info: NONBONDED TABLE SIZE: 705 POINTS
TCL: Setting parameter alchLambda2 to 0.8500000000000002
Info: NONBONDED TABLE R-SQUARED SPACING: 0.0625
Info: NONBONDED TABLE SIZE: 705 POINTS
TCL: Running for 1500000 steps
ETITLE: TS BOND ANGLE DIHED IMPRP ELECT VDW BOUNDARY MISC KINETIC TOTAL TEMP POTENTIAL TOTALAVG TEMPAVG PRESSURE GPRESSURE VOLUME PRESSAVG GPRESSAVG
ENERGY: 0 6.0498 6.1405 2.3725 0.0000 -10539.2519 1361.3378 0.0000 0.0000 1780.2410 -7383.1104 304.5065 -9163.3514 -7383.1104 304.5065 -764.9536 -673.0271 30389.4398 -764.9536 -673.0271
ENERGY: 300000 1.6391 8.0379 2.9005 0.0000 -10535.9439 1415.4629 0.0000 0.0000 1791.6057 -7316.2978 306.4504 -9107.9035 -7359.1036 302.7086 52.8572 136.9093 30157.7622 -188.3346 -115.3843
ENERGY: 600000 3.8723 9.8177 4.3477 0.0000 -10615.5885 1410.4440 0.0000 0.0000 1763.2760 -7423.8308 301.6046 -9187.1068 -7382.3629 302.7737 -321.0143 -258.6447 30531.9039 -270.2615 -203.4787
ENERGY: 900000 1.7472 5.5588 6.4992 0.0000 -10574.7750 1354.9621 0.0000 0.0000 1754.2987 -7451.7089 300.0691 -9206.0077 -7396.8925 301.3424 -738.5294 -757.3295 30490.7368 -371.6487 -308.0411
ENERGY: 1200000 3.3726 5.5997 2.5302 0.0000 -10532.7921 1380.3207 0.0000 0.0000 1779.4319 -7361.5371 304.3681 -9140.9690 -7389.9695 301.6697 -655.9410 -597.4713 31118.8852 -298.7262 -238.6252
ENERGY: 1500000 3.8550 7.8812 3.6506 0.0000 -10343.1788 1271.9165 0.0000 0.0000 1771.9120 -7283.9635 303.0818 -9055.8755 -7383.1992 301.8410 -991.0587 -893.0030 30608.1056 -341.3699 -277.4392
TCL: Running FEP window  18: Lambda1 0.8500000000000002 Lambda2 0.9000000000000002 [dLambda 0.050000000000000044]
TCL: Setting parameter firsttimestep to 0
TCL: Setting parameter alchLambda to 0.8500000000000002
Info: NONBONDED TABLE R-SQUARED SPACING: 0.0625
Info: NONBONDED TABLE SIZE: 705 POINTS
TCL: Setting parameter alchLambda2 to 0.9000000000000002
Info: NONBONDED TABLE R-SQUARED SPACING: 0.0625
Info: NONBONDED TABLE SIZE: 705 POINTS
TCL: Running for 1500000 steps
ETITLE: TS BOND ANGLE DIHED IMPRP ELECT VDW BOUNDARY MISC KINETIC TOTAL TEMP POTENTIAL TOTALAVG TEMPAVG PRESSURE GPRESSURE VOLUME PRESSAVG GPRESSAVG
ENERGY: 0 3.8550 7.8812 3.6506 0.0000 -10343.9627 1271.8138 0.0000 0.0000 1771.0212 -7285.7409 302.9294 -9056.7621 -7285.7409 302.9294 -959.1928 -881.7059 30608.1056 -959.1928 -881.7059
ENERGY: 300000 1.3524 12.3216 9.3415 0.0000 -10524.1854 1413.0634 0.0000 0.0000 1818.0037 -7270.1027 310.9657 -9088.1064 -7372.1728 303.1740 214.6548 343.8896 30171.3419 -39.4147 29.0821
ENERGY: 600000 3.8016 7.8336 3.1622 0.0000 -10562.8685 1332.9903 0.0000 0.0000 1778.4623 -7436.6185 304.2022 -9215.0808 -7400.5643 303.1162 -927.6154 -922.0054 30071.3038 -232.1929 -185.4355
ENERGY: 900000 2.9453 9.9250 2.9891 0.0000 -10618.7078 1414.2834 0.0000 0.0000 1801.8808 -7386.6842 308.2079 -9188.5650 -7402.6739 301.6219 79.1575 101.3167 30012.0007 -227.4374 -182.0617
ENERGY: 1200000 2.8580 4.5032 3.4062 0.0000 -10602.9288 1376.6266 0.0000 0.0000 1762.9691 -7452.5657 301.5521 -9215.5348 -7402.6021 302.0218 -443.4902 -354.8824 29991.0539 -204.2168 -145.5710
ENERGY: 1500000 5.5528 9.3506 4.0031 0.0000 -10570.9776 1426.1009 0.0000 0.0000 1786.5008 -7339.4695 305.5772 -9125.9703 -7401.4635 301.9754 15.1060 20.8254 30326.1931 -192.9286 -139.2820
TCL: Running FEP window  19: Lambda1 0.9000000000000002 Lambda2 0.9500000000000003 [dLambda 0.050000000000000044]
TCL: Setting parameter firsttimestep to 0
TCL: Setting parameter alchLambda to 0.9000000000000002
Info: NONBONDED TABLE R-SQUARED SPACING: 0.0625
Info: NONBONDED TABLE SIZE: 705 POINTS
TCL: Setting parameter alchLambda2 to 0.9500000000000003
Info: NONBONDED TABLE R-SQUARED SPACING: 0.0625
Info: NONBONDED TABLE SIZE: 705 POINTS
TCL: Running for 1500000 steps
ETITLE: TS BOND ANGLE DIHED IMPRP ELECT VDW BOUNDARY MISC KINETIC TOTAL TEMP POTENTIAL TOTALAVG TEMPAVG PRESSURE GPRESSURE VOLUME PRESSAVG GPRESSAVG
ENERGY: 0 5.5528 9.3506 4.0031 0.0000 -10571.5265 1426.2390 0.0000 0.0000 1785.6311 -7340.7500 305.4284 -9126.3811 -7340.7500 305.4284 -42.2996 33.7474 30326.1931 -42.2996 33.7474
ENERGY: 300000 3.1878 8.2493 3.0584 0.0000 -10663.4407 1483.3921 0.0000 0.0000 1779.7285 -7385.8244 304.4188 -9165.5530 -7371.8621 301.4927 699.4470 789.2321 29678.7451 10.1700 74.4108
ENERGY: 600000 6.8824 6.1445 3.4161 0.0000 -10483.0437 1332.6157 0.0000 0.0000 1792.5951 -7341.3899 306.6196 -9133.9849 -7377.1812 301.5477 -678.5630 -632.1830 30629.7804 106.7806 153.3689
ENERGY: 900000 2.7725 6.0192 4.1022 0.0000 -10635.5412 1411.1178 0.0000 0.0000 1750.7391 -7460.7902 299.4602 -9211.5294 -7390.4684 300.5824 -477.7225 -430.5532 30667.3052 -90.5095 -38.0401
ENERGY: 1200000 4.3216 9.7516 3.8648 0.0000 -10666.1891 1478.2273 0.0000 0.0000 1810.8146 -7359.2092 309.7360 -9170.0238 -7393.6527 300.9247 801.0611 819.3617 29845.4909 19.4730 71.9580
ENERGY: 1500000 4.3798 10.7654 4.8927 0.0000 -10599.6863 1389.3768 0.0000 0.0000 1771.5752 -7418.6965 303.0242 -9190.2717 -7396.7135 300.9047 -290.9825 -240.3774 30002.5915 12.1184 57.7372
TCL: Running FEP window  20: Lambda1 0.9500000000000003 Lambda2 1.0    [dLambda 0.04999999999999971]
TCL: Setting parameter firsttimestep to 0
TCL: Setting parameter alchLambda to 0.9500000000000003
Info: NONBONDED TABLE R-SQUARED SPACING: 0.0625
Info: NONBONDED TABLE SIZE: 705 POINTS
TCL: Setting parameter alchLambda2 to 1.0
Info: NONBONDED TABLE R-SQUARED SPACING: 0.0625
Info: NONBONDED TABLE SIZE: 705 POINTS
TCL: Running for 1500000 steps
ETITLE: TS BOND ANGLE DIHED IMPRP ELECT VDW BOUNDARY MISC KINETIC TOTAL TEMP POTENTIAL TOTALAVG TEMPAVG PRESSURE GPRESSURE VOLUME PRESSAVG GPRESSAVG
ENERGY: 0 4.3798 10.7654 4.8927 0.0000 -10600.4773 1391.8386 0.0000 0.0000 1770.7255 -7417.8754 302.8789 -9188.6009 -7417.8754 302.8789 -272.8087 -197.1944 30002.5915 -272.8087 -197.1944
ENERGY: 300000 3.3119 12.4966 2.7578 0.0000 -10628.1090 1428.2860 0.0000 0.0000 1732.6824 -7448.5743 296.3717 -9181.2567 -7444.0252 297.9116 207.1584 263.9254 29959.0262 -94.9768 -48.3029
ENERGY: 600000 2.3604 9.1556 2.9179 0.0000 -10477.2464 1322.1241 0.0000 0.0000 1759.4222 -7381.2662 300.9455 -9140.6885 -7434.4688 300.2093 -798.6355 -717.2372 30526.8889 -159.5173 -91.1515
ENERGY: 900000 6.0374 9.6300 2.4789 0.0000 -10638.6995 1438.8400 0.0000 0.0000 1743.0275 -7438.6856 298.1412 -9181.7131 -7442.8342 298.7656 210.6604 230.9284 30095.9495 -92.3610 -20.2144
ENERGY: 1200000 3.9963 13.3549 3.8752 0.0000 -10550.1227 1389.1985 0.0000 0.0000 1772.8326 -7366.8652 303.2393 -9139.6978 -7421.4461 300.1088 -182.5296 -103.8475 30250.2145 -78.8542 -12.0951
ENERGY: 1500000 2.7092 10.8652 4.1751 0.0000 -10499.1471 1333.2993 0.0000 0.0000 1784.5600 -7363.5383 305.2452 -9148.0983 -7414.3910 300.9313 -726.0502 -673.4362 30582.5842 -57.2782 5.5100
TCL: Exiting due to exit command.
