Info: SIMULATION PARAMETERS:
Info: TIMESTEP               2
Info: NUMBER OF STEPS        0
Info: STEPS PER CYCLE        10
Info: PERIODIC CELL BASIS 1  30.8255 0 0
Info: PERIODIC CELL BASIS 2  0 31.5242 0
Info: PERIODIC CELL BASIS 3  0 0 31.4052
Info: PERIODIC CELL CENTER   0 0 0
Info: WRAPPING WATERS AROUND PERIODIC BOUNDARIES ON OUTPUT.
Info: WRAPPING ALL CLUSTERS AROUND PERIODIC BOUNDARIES ON OUTPUT.
Info: FIRST LDB TIMESTEP     50
Info: LAST LDB TIMESTEP     -1
Info: HOM BACKGROUND SCALING 1
Info: PME BACKGROUND SCALING 1
Info: MIN ATOMS PER PATCH    40
Info: EMPTY PATCH LOAD       40 ATOMS
Info: VELOCITY FILE          mobley_9733743_equil.vel
Info: CENTER OF MASS MOVING INITIALLY? NO
Info: DIELECTRIC             1
Info: EXCLUDE                SCALED ONE-FOUR
Info: 1-4 ELECTROSTATICS SCALED BY 0.833333
Info: MODIFIED 1-4 VDW PARAMETERS WILL BE USED
Info: DCD FILENAME           mobley_9733743_prod.dcd
Info: DCD FREQUENCY          100000
Info: DCD FIRST STEP         100000
Info: DCD FILE WILL CONTAIN UNIT CELL DATA
Info: XST FILENAME           mobley_9733743_prod.xst
Info: XST FREQUENCY          100000
Info: NO VELOCITY DCD OUTPUT
Info: NO FORCE DCD OUTPUT
Info: OUTPUT FILENAME        mobley_9733743_prod
Info: BINARY OUTPUT FILES WILL BE USED
Info: RESTART FILENAME       mobley_9733743_prod.restart
Info: RESTART FREQUENCY      100000
Info: BINARY RESTART FILES WILL BE USED
Info: CUTOFF                 9
Info: PAIRLIST DISTANCE      11
Info: PAIRLIST SHRINK RATE   0.01
Info: PAIRLIST GROW RATE     0.01
Info: PAIRLIST TRIGGER       0.3
Info: PAIRLISTS PER CYCLE    2
Info: PAIRLISTS ENABLED
Info: MARGIN                 2
Info: HYDROGEN GROUP CUTOFF  2.5
Info: PATCH DIMENSION        15.5
Info: ENERGY OUTPUT STEPS    100000
Info: ENERGY EVALUATION STEPS    100000
Info: OUTPUT ENERGY PRECISION 4
Info: CROSSTERM ENERGY INCLUDED IN DIHEDRAL
Info: TIMING OUTPUT STEPS    1000000
Info: PRESSURE OUTPUT STEPS  100000
Info: ALCHEMICAL FEP ON
Info: FEP CURRENT LAMBDA VALUE     1
Info: FEP COMPARISON LAMBDA VALUE  0.95
Info: FEP INTRA-ALCHEMICAL NON-BONDED INTERACTIONS WILL BE RETAINED
Info: FEP INTRA-ALCHEMICAL BONDED INTERACTIONS WILL BE RETAINED
Info: FEP VDW SHIFTING COEFFICIENT 5
Info: FEP ELEC. ACTIVE FOR ANNIHILATED PARTICLES BETWEEN LAMBDA = 0 AND LAMBDA = 0.5
Info: FEP ELEC. ACTIVE FOR EXNIHILATED PARTICLES BETWEEN LAMBDA = 0.5 AND LAMBDA = 1
Info: FEP VDW ACTIVE FOR ANNIHILATED PARTICLES BETWEEN LAMBDA = 0 AND LAMBDA = 1
Info: FEP VDW ACTIVE FOR EXNIHILATED PARTICLES BETWEEN LAMBDA = 0 AND LAMBDA = 1
Info: FEP BOND ACTIVE FOR ANNIHILATED PARTICLES BETWEEN LAMBDA = 1 AND LAMBDA = 1
Info: FEP BOND ACTIVE FOR EXNIHILATED PARTICLES BETWEEN LAMBDA = 0 AND LAMBDA = 0
Info: LANGEVIN DYNAMICS ACTIVE
Info: LANGEVIN TEMPERATURE   300
Info: LANGEVIN USING BBK INTEGRATOR
Info: LANGEVIN DAMPING COEFFICIENT IS 1 INVERSE PS
Info: LANGEVIN DYNAMICS APPLIED TO HYDROGENS
Info: LANGEVIN PISTON PRESSURE CONTROL ACTIVE
Info:        TARGET PRESSURE IS 1.01325 BAR
Info:     OSCILLATION PERIOD IS 50 FS
Info:             DECAY TIME IS 25 FS
Info:     PISTON TEMPERATURE IS 300 K
Info:       PRESSURE CONTROL IS GROUP-BASED
Info:    INITIAL STRAIN RATE IS -0.000474215 -0.000474215 -0.000474215
Info:       CELL FLUCTUATION IS ISOTROPIC
Info: PARTICLE MESH EWALD (PME) ACTIVE
Info: PME TOLERANCE               1e-06
Info: PME EWALD COEFFICIENT       0.348832
Info: PME INTERPOLATION ORDER     4
Info: PME GRID DIMENSIONS         32 32 32
Info: PME MAXIMUM GRID SPACING    1
Info: PME CALCULATION WILL BE PERFORMED ON GPU
Info: FULL ELECTROSTATIC EVALUATION FREQUENCY      2
Info: USING VERLET I (r-RESPA) MTS SCHEME.
Info: C1 SPLITTING OF LONG RANGE ELECTROSTATICS
Info: PLACING ATOMS IN PATCHES BY HYDROGEN GROUPS
Info: RIGID BONDS TO HYDROGEN : ALL
Info:         ERROR TOLERANCE : 1e-08
Info:          MAX ITERATIONS : 100
Info: RIGID WATER USING SETTLE ALGORITHM
Info: RANDOM NUMBER SEED     1743842813
Info: USE HYDROGEN BONDS?    NO
Info: Using AMBER format force field!
Info: AMBER PARM FILE        mobley_9733743.prmtop
Info: COORDINATE PDB         mobley_9733743.pdb
Info: Exclusions will be read from PARM file!
Info: SCNB (VDW SCALING)     2
Info: USING ARITHMETIC MEAN TO COMBINE L-J SIGMA PARAMETERS
Info: BINARY COORDINATES     mobley_9733743_equil.coor
Info: SUMMARY OF PARAMETERS:
Info: 7 BONDS
Info: 9 ANGLES
Info:   9 HARMONIC
Info:   0 COSINE-BASED
Info: 7 DIHEDRAL
Info: 0 IMPROPER
Info: 0 CROSSTERM
Info: 0 VDW
Info: 28 VDW_PAIRS
Info: 0 NBTHOLE_PAIRS
Info: To read alchdata from file: mobley_9733743.pdb
Info: To read alchflag data from column: 5
Info: STRUCTURE SUMMARY:
Info: 2929 ATOMS
Info: 2928 BONDS
Info: 27 ANGLES
Info: 35 DIHEDRALS
Info: 0 IMPROPERS
Info: 0 CROSSTERMS
Info: 2988 EXCLUSIONS
Info: 2924 RIGID BONDS
Info: ALCH: 0 ATOMS TO DISAPPEAR IN FINAL STATE
Info: ALCH: 16 ATOMS TO APPEAR IN FINAL STATE
Info: 5863 DEGREES OF FREEDOM
Info: 976 HYDROGEN GROUPS
Info: 4 ATOMS IN LARGEST HYDROGEN GROUP
Info: 976 MIGRATION GROUPS
Info: 4 ATOMS IN LARGEST MIGRATION GROUP
Info: TOTAL MASS = 17566.7 amu
Info: TOTAL CHARGE = -0.000200044 e
Info: MASS DENSITY = 0.95586 g/cm^3
Info: ATOM DENSITY = 0.0959765 atoms/A^3
Info: ADDED 0 IMPLICIT EXCLUSIONS
Info: NONBONDED TABLE R-SQUARED SPACING: 0.0625
Info: NONBONDED TABLE SIZE: 705 POINTS
Info: REMOVING COM VELOCITY -0.28872 -0.00834868 -0.00510926
Info: Use 3D box decompostion in PME FFT.
Info: Updated CUDA force table with 4096 elements.
Info: Updated CUDA LJ table with 7 x 7 elements.
Info: Found 19 unique exclusion lists needing 44 bytes
TCL: Running for 1500000 steps
ETITLE: TS BOND ANGLE DIHED IMPRP ELECT VDW BOUNDARY MISC KINETIC TOTAL TEMP POTENTIAL TOTALAVG TEMPAVG PRESSURE GPRESSURE VOLUME PRESSAVG GPRESSAVG
ENERGY: 0 0.2077 6.4473 2.5325 0.0000 -10591.1697 1456.4940 0.0000 0.0000 1740.1037 -7385.3845 298.7071 -9125.4882 -7385.3845 298.7071 341.5019 426.3565 30517.9023 341.5019 426.3565
ENERGY: 300000 1.6313 6.1407 0.7899 0.0000 -10500.3567 1389.9137 0.0000 0.0000 1709.8630 -7392.0181 293.5160 -9101.8811 -7378.4886 301.1879 15.8123 110.5027 30164.8475 -62.7256 12.8460
ENERGY: 600000 2.3348 6.8110 1.5324 0.0000 -10555.2494 1397.7770 0.0000 0.0000 1784.9569 -7361.8373 306.4067 -9146.7942 -7391.2575 301.0060 -8.3018 83.8010 29891.5059 -104.1810 -31.6185
ENERGY: 900000 2.6332 6.1097 1.2584 0.0000 -10509.0601 1386.0178 0.0000 0.0000 1715.2160 -7397.8249 294.4349 -9113.0409 -7390.2383 300.5372 -349.8522 -278.8554 30469.6331 -106.7363 -40.0971
ENERGY: 1200000 0.7734 5.8261 2.3608 0.0000 -10583.0203 1393.1049 0.0000 0.0000 1725.4711 -7455.4840 296.1953 -9180.9552 -7396.1461 300.0809 -492.0290 -402.1727 30355.0522 -166.5003 -100.0213
ENERGY: 1500000 1.6619 4.8070 2.2212 0.0000 -10578.0773 1414.0901 0.0000 0.0000 1768.2064 -7387.0907 303.5313 -9155.2971 -7403.9702 300.2294 158.0661 187.3173 29889.3456 -115.3077 -48.2591
TCL: Running FEP window   2: Lambda1 0.95   Lambda2 0.8999999999999999 [dLambda -0.050000000000000044]
TCL: Setting parameter firsttimestep to 0
TCL: Setting parameter alchLambda to 0.95
Info: NONBONDED TABLE R-SQUARED SPACING: 0.0625
Info: NONBONDED TABLE SIZE: 705 POINTS
TCL: Setting parameter alchLambda2 to 0.8999999999999999
Info: NONBONDED TABLE R-SQUARED SPACING: 0.0625
Info: NONBONDED TABLE SIZE: 705 POINTS
TCL: Running for 1500000 steps
ETITLE: TS BOND ANGLE DIHED IMPRP ELECT VDW BOUNDARY MISC KINETIC TOTAL TEMP POTENTIAL TOTALAVG TEMPAVG PRESSURE GPRESSURE VOLUME PRESSAVG GPRESSAVG
ENERGY: 0 1.6619 4.8070 2.2212 0.0000 -10577.0608 1413.9180 0.0000 0.0000 1767.3120 -7387.1408 303.3778 -9154.4528 -7387.1408 303.3778 89.9600 172.8518 29889.3456 89.9600 172.8518
ENERGY: 300000 1.8291 13.5634 1.4265 0.0000 -10545.1593 1393.6289 0.0000 0.0000 1725.3615 -7409.3498 296.1765 -9134.7113 -7390.7916 301.3077 -403.8136 -333.4776 30723.3559 -241.4190 -170.5404
ENERGY: 600000 3.1289 5.4682 0.7514 0.0000 -10796.1617 1525.7354 0.0000 0.0000 1733.1000 -7527.9778 297.5049 -9261.0778 -7408.8712 299.8180 640.8772 725.3714 29945.8644 -248.9516 -169.4270
ENERGY: 900000 1.3979 4.6610 3.1852 0.0000 -10602.8163 1417.3903 0.0000 0.0000 1770.7510 -7405.4309 303.9681 -9176.1819 -7410.8297 299.6876 22.7507 33.0887 29925.0908 -90.5684 -20.6517
ENERGY: 1200000 1.1347 4.5992 1.0356 0.0000 -10580.0147 1372.7355 0.0000 0.0000 1750.2997 -7450.2101 300.4574 -9200.5098 -7414.3371 299.7106 -286.9384 -227.6733 30021.9647 -93.7797 -22.3762
ENERGY: 1500000 2.5057 14.5925 2.8396 0.0000 -10438.8750 1340.0522 0.0000 0.0000 1774.7036 -7304.1814 304.6466 -9078.8850 -7416.4309 299.9291 -408.9666 -364.6768 30598.8800 -106.3397 -34.3340
TCL: Running FEP window   3: Lambda1 0.8999999999999999 Lambda2 0.8499999999999999 [dLambda -0.050000000000000044]
TCL: Setting parameter firsttimestep to 0
TCL: Setting parameter alchLambda to 0.8999999999999999
Info: NONBONDED TABLE R-SQUARED SPACING: 0.0625
Info: NONBONDED TABLE SIZE: 705 POINTS
TCL: Setting parameter alchLambda2 to 0.8499999999999999
Info: NONBONDED TABLE R-SQUARED SPACING: 0.0625
Info: NONBONDED TABLE SIZE: 705 POINTS
TCL: Running for 1500000 steps
ETITLE: TS BOND ANGLE DIHED IMPRP ELECT VDW BOUNDARY MISC KINETIC TOTAL TEMP POTENTIAL TOTALAVG TEMPAVG PRESSURE GPRESSURE VOLUME PRESSAVG GPRESSAVG
ENERGY: 0 2.5057 14.5925 2.8396 0.0000 -10437.4716 1339.3203 0.0000 0.0000 1773.8101 -7304.4033 304.4932 -9078.2135 -7304.4033 304.4932 -453.3942 -379.6512 30598.8800 -453.3942 -379.6512
ENERGY: 300000 1.5905 10.5662 0.9749 0.0000 -10457.8798 1335.8716 0.0000 0.0000 1800.6540 -7308.2226 309.1012 -9108.8766 -7381.9727 303.3087 -553.5039 -487.4008 30463.3387 -413.1531 -340.7852
ENERGY: 600000 0.7576 7.6961 2.3113 0.0000 -10581.4018 1399.3715 0.0000 0.0000 1733.4525 -7437.8129 297.5654 -9171.2654 -7391.7209 302.8206 -231.0581 -175.9836 30146.0628 -280.9079 -201.7820
ENERGY: 900000 1.7389 4.3701 1.9249 0.0000 -10431.0722 1338.8166 0.0000 0.0000 1735.8811 -7348.3406 297.9823 -9084.2217 -7384.9056 303.0219 -524.9523 -440.7419 30277.6467 -456.1233 -378.2004
ENERGY: 1200000 1.3642 5.6869 1.1402 0.0000 -10558.2198 1370.2278 0.0000 0.0000 1754.2604 -7425.5403 301.1373 -9179.8007 -7385.2621 302.8392 -426.2729 -403.7099 30071.6296 -386.6363 -318.1680
ENERGY: 1500000 1.4026 2.5024 1.1061 0.0000 -10618.5729 1463.6330 0.0000 0.0000 1745.6787 -7404.2501 299.6642 -9149.9287 -7387.3441 302.1229 254.0529 329.9007 30136.1900 -302.2747 -236.2630
TCL: Running FEP window   4: Lambda1 0.8499999999999999 Lambda2 0.7999999999999998 [dLambda -0.050000000000000044]
TCL: Setting parameter firsttimestep to 0
TCL: Setting parameter alchLambda to 0.8499999999999999
Info: NONBONDED TABLE R-SQUARED SPACING: 0.0625
Info: NONBONDED TABLE SIZE: 705 POINTS
TCL: Setting parameter alchLambda2 to 0.7999999999999998
Info: NONBONDED TABLE R-SQUARED SPACING: 0.0625
Info: NONBONDED TABLE SIZE: 705 POINTS
TCL: Running for 1500000 steps
ETITLE: TS BOND ANGLE DIHED IMPRP ELECT VDW BOUNDARY MISC KINETIC TOTAL TEMP POTENTIAL TOTALAVG TEMPAVG PRESSURE GPRESSURE VOLUME PRESSAVG GPRESSAVG
ENERGY: 0 1.4026 2.5024 1.1061 0.0000 -10617.4375 1463.7764 0.0000 0.0000 1744.7892 -7403.8607 299.5115 -9148.6499 -7403.8607 299.5115 240.2705 327.0632 30136.1900 240.2705 327.0632
ENERGY: 300000 0.4774 5.9913 1.8499 0.0000 -10480.9545 1334.2146 0.0000 0.0000 1747.4412 -7390.9800 299.9667 -9138.4213 -7432.0569 300.6454 -552.1634 -499.5136 30101.4182 -14.3703 16.7615
ENERGY: 600000 0.6084 3.3757 0.9248 0.0000 -10756.9579 1543.8115 0.0000 0.0000 1774.7116 -7433.5259 304.6480 -9208.2375 -7427.6687 301.2306 1276.2850 1370.4666 29417.1547 68.8549 120.3543
ENERGY: 900000 1.4652 5.8453 1.0694 0.0000 -10647.5061 1400.1795 0.0000 0.0000 1808.8380 -7430.1088 310.5061 -9238.9468 -7412.6204 303.9892 -543.0273 -468.1089 30697.8440 62.7207 109.0956
ENERGY: 1200000 2.2054 7.8256 1.8996 0.0000 -10575.1684 1386.9484 0.0000 0.0000 1733.6959 -7442.5937 297.6072 -9176.2895 -7416.6130 303.3065 -507.0290 -380.6573 30184.4802 -39.3394 15.0899
ENERGY: 1500000 0.7506 5.1998 1.2375 0.0000 -10622.5172 1463.0080 0.0000 0.0000 1774.2864 -7378.0349 304.5750 -9152.3213 -7423.7545 302.9535 354.4015 422.6665 30219.9629 9.9055 58.1886
TCL: Running FEP window   5: Lambda1 0.7999999999999998 Lambda2 0.7499999999999998 [dLambda -0.050000000000000044]
TCL: Setting parameter firsttimestep to 0
TCL: Setting parameter alchLambda to 0.7999999999999998
Info: NONBONDED TABLE R-SQUARED SPACING: 0.0625
Info: NONBONDED TABLE SIZE: 705 POINTS
TCL: Setting parameter alchLambda2 to 0.7499999999999998
Info: NONBONDED TABLE R-SQUARED SPACING: 0.0625
Info: NONBONDED TABLE SIZE: 705 POINTS
TCL: Running for 1500000 steps
ETITLE: TS BOND ANGLE DIHED IMPRP ELECT VDW BOUNDARY MISC KINETIC TOTAL TEMP POTENTIAL TOTALAVG TEMPAVG PRESSURE GPRESSURE VOLUME PRESSAVG GPRESSAVG
ENERGY: 0 0.7506 5.1998 1.2375 0.0000 -10621.1580 1462.1721 0.0000 0.0000 1773.4028 -7378.3951 304.4233 -9151.7980 -7378.3951 304.4233 332.6247 408.8684 30219.9629 332.6247 408.8684
ENERGY: 300000 1.7257 10.6053 3.9340 0.0000 -10541.7411 1363.8792 0.0000 0.0000 1752.2454 -7409.3515 300.7914 -9161.5969 -7401.2544 301.2778 -716.5656 -565.3626 30505.7242 -186.1493 -87.3012
ENERGY: 600000 2.9652 10.0384 0.9421 0.0000 -10544.3986 1419.8085 0.0000 0.0000 1746.7423 -7363.9023 299.8467 -9110.6445 -7420.0574 300.5233 97.9596 154.9669 30209.1313 -53.2927 28.7522
ENERGY: 900000 0.3801 6.4034 1.2507 0.0000 -10599.3839 1498.7235 0.0000 0.0000 1728.6350 -7363.9913 296.7384 -9092.6263 -7433.7117 298.3454 775.5785 892.8194 30004.2966 88.6188 168.6958
ENERGY: 1200000 1.3701 5.7590 2.2001 0.0000 -10616.2203 1455.1754 0.0000 0.0000 1737.6033 -7414.1124 298.2779 -9151.7157 -7421.2916 299.5072 320.1440 343.0411 29852.3570 11.1259 85.9011
ENERGY: 1500000 1.0186 6.7460 1.4520 0.0000 -10558.6338 1389.3577 0.0000 0.0000 1744.1124 -7415.9471 299.3953 -9160.0595 -7414.0535 300.3872 -152.2749 -106.9429 29849.9677 -25.8102 42.6148
TCL: Running FEP window   6: Lambda1 0.7499999999999998 Lambda2 0.6999999999999997 [dLambda -0.050000000000000044]
TCL: Setting parameter firsttimestep to 0
TCL: Setting parameter alchLambda to 0.7499999999999998
Info: NONBONDED TABLE R-SQUARED SPACING: 0.0625
Info: NONBONDED TABLE SIZE: 705 POINTS
TCL: Setting parameter alchLambda2 to 0.6999999999999997
Info: NONBONDED TABLE R-SQUARED SPACING: 0.0625
Info: NONBONDED TABLE SIZE: 705 POINTS
TCL: Running for 1500000 steps
ETITLE: TS BOND ANGLE DIHED IMPRP ELECT VDW BOUNDARY MISC KINETIC TOTAL TEMP POTENTIAL TOTALAVG TEMPAVG PRESSURE GPRESSURE VOLUME PRESSAVG GPRESSAVG
ENERGY: 0 1.0186 6.7460 1.4520 0.0000 -10557.2155 1389.3672 0.0000 0.0000 1743.2642 -7415.3675 299.2497 -9158.6317 -7415.3675 299.2497 -187.3278 -111.1361 29849.9677 -187.3278 -111.1361
ENERGY: 300000 1.0711 7.1091 0.9575 0.0000 -10559.0903 1347.5701 0.0000 0.0000 1780.6037 -7421.7787 305.6594 -9202.3824 -7437.8252 299.1126 -797.3126 -734.3202 30514.3691 -343.1910 -276.5667
ENERGY: 600000 1.9819 7.5790 2.4562 0.0000 -10695.0433 1435.6721 0.0000 0.0000 1697.5798 -7549.7743 291.4075 -9247.3541 -7464.4983 298.3211 -203.7571 -140.0274 30164.2599 -359.7356 -294.9400
ENERGY: 900000 0.5634 4.1149 0.7312 0.0000 -10833.4574 1565.2179 0.0000 0.0000 1811.8941 -7450.9359 311.0307 -9262.8300 -7457.2004 300.6059 1207.4400 1302.1263 29324.1148 -71.7586 0.6167
ENERGY: 1200000 0.7546 10.1557 1.8805 0.0000 -10591.7822 1424.6288 0.0000 0.0000 1744.9455 -7409.4171 299.5383 -9154.3626 -7455.0188 300.3523 -138.8736 -55.2158 30415.2468 -3.4779 72.4038
ENERGY: 1500000 2.7157 7.9221 0.9672 0.0000 -10593.3877 1400.9212 0.0000 0.0000 1749.8780 -7430.9834 300.3850 -9180.8614 -7451.6614 299.9626 -74.9868 -63.2427 29937.3688 9.3326 78.3071
TCL: Running FEP window   7: Lambda1 0.6999999999999997 Lambda2 0.6499999999999997 [dLambda -0.050000000000000044]
TCL: Setting parameter firsttimestep to 0
TCL: Setting parameter alchLambda to 0.6999999999999997
Info: NONBONDED TABLE R-SQUARED SPACING: 0.0625
Info: NONBONDED TABLE SIZE: 705 POINTS
TCL: Setting parameter alchLambda2 to 0.6499999999999997
Info: NONBONDED TABLE R-SQUARED SPACING: 0.0625
Info: NONBONDED TABLE SIZE: 705 POINTS
TCL: Running for 1500000 steps
ETITLE: TS BOND ANGLE DIHED IMPRP ELECT VDW BOUNDARY MISC KINETIC TOTAL TEMP POTENTIAL TOTALAVG TEMPAVG PRESSURE GPRESSURE VOLUME PRESSAVG GPRESSAVG
ENERGY: 0 2.7157 7.9221 0.9672 0.0000 -10592.0197 1400.3156 0.0000 0.0000 1749.0730 -7431.0261 300.2468 -9180.0991 -7431.0261 300.2468 -153.3857 -73.8545 29937.3688 -153.3857 -73.8545
ENERGY: 300000 0.3748 5.9775 1.3609 0.0000 -10579.8089 1394.3337 0.0000 0.0000 1747.3943 -7430.3675 299.9587 -9177.7619 -7452.8919 299.1017 -118.6212 -48.3807 30047.7870 -171.6111 -120.5395
ENERGY: 600000 1.9554 5.1293 1.2606 0.0000 -10524.7179 1320.5597 0.0000 0.0000 1697.6697 -7498.1432 291.4229 -9195.8129 -7452.5760 299.6194 -747.8499 -733.9165 29906.0947 -182.1461 -131.5678
ENERGY: 900000 1.2836 3.0394 1.1464 0.0000 -10548.6701 1374.4792 0.0000 0.0000 1829.3191 -7339.4024 314.0219 -9168.7215 -7434.9169 301.1758 -218.8224 -141.4516 30050.1643 -201.7401 -144.0170
ENERGY: 1200000 1.1615 7.0416 2.1387 0.0000 -10723.0425 1488.3848 0.0000 0.0000 1707.8778 -7516.4381 293.1752 -9224.3159 -7445.7487 300.5403 252.0498 348.4698 29753.9696 -131.3574 -73.0477
ENERGY: 1500000 0.4062 7.0356 1.1025 0.0000 -10502.5919 1386.2013 0.0000 0.0000 1751.2277 -7356.6186 300.6167 -9107.8463 -7431.7478 300.6048 -168.2095 -112.6525 30332.7599 -143.1191 -83.4932
TCL: Running FEP window   8: Lambda1 0.6499999999999997 Lambda2 0.5999999999999996 [dLambda -0.050000000000000044]
TCL: Setting parameter firsttimestep to 0
TCL: Setting parameter alchLambda to 0.6499999999999997
Info: NONBONDED TABLE R-SQUARED SPACING: 0.0625
Info: NONBONDED TABLE SIZE: 705 POINTS
TCL: Setting parameter alchLambda2 to 0.5999999999999996
Info: NONBONDED TABLE R-SQUARED SPACING: 0.0625
Info: NONBONDED TABLE SIZE: 705 POINTS
TCL: Running for 1500000 steps
ETITLE: TS BOND ANGLE DIHED IMPRP ELECT VDW BOUNDARY MISC KINETIC TOTAL TEMP POTENTIAL TOTALAVG TEMPAVG PRESSURE GPRESSURE VOLUME PRESSAVG GPRESSAVG
ENERGY: 0 0.4062 7.0356 1.1025 0.0000 -10500.9826 1385.2548 0.0000 0.0000 1750.3505 -7356.8331 300.4661 -9107.1835 -7356.8331 300.4661 -214.6938 -123.0412 30332.7599 -214.6938 -123.0412
ENERGY: 300000 0.2962 8.1558 1.1139 0.0000 -10736.2137 1459.0429 0.0000 0.0000 1751.2211 -7516.3838 300.6156 -9267.6049 -7436.9928 301.4859 182.1732 279.1618 29723.1051 -2.7807 68.3261
ENERGY: 600000 0.5248 4.7100 1.0759 0.0000 -10723.9493 1453.9672 0.0000 0.0000 1797.2787 -7466.3927 308.5218 -9263.6714 -7437.8850 300.8544 122.1502 197.2955 29943.1870 -132.1966 -68.3417
ENERGY: 900000 1.1412 8.8660 0.9948 0.0000 -10648.1527 1463.1354 0.0000 0.0000 1775.4352 -7398.5802 304.7722 -9174.0153 -7436.1665 301.5836 388.4893 463.2312 29772.8324 -110.9320 -45.4832
ENERGY: 1200000 0.3192 8.6607 1.7449 0.0000 -10560.2906 1395.5825 0.0000 0.0000 1702.5114 -7451.4718 292.2540 -9153.9832 -7442.9673 299.8291 -132.9511 -103.2709 30211.5216 -62.9731 -0.0806
ENERGY: 1500000 0.7146 6.5558 0.5349 0.0000 -10620.4317 1432.4208 0.0000 0.0000 1736.1825 -7444.0231 298.0340 -9180.2056 -7427.8256 299.4545 -46.7175 9.8339 30226.7881 -108.9466 -46.4088
TCL: Running FEP window   9: Lambda1 0.5999999999999996 Lambda2 0.5499999999999996 [dLambda -0.050000000000000044]
TCL: Setting parameter firsttimestep to 0
TCL: Setting parameter alchLambda to 0.5999999999999996
Info: NONBONDED TABLE R-SQUARED SPACING: 0.0625
Info: NONBONDED TABLE SIZE: 705 POINTS
TCL: Setting parameter alchLambda2 to 0.5499999999999996
Info: NONBONDED TABLE R-SQUARED SPACING: 0.0625
Info: NONBONDED TABLE SIZE: 705 POINTS
TCL: Running for 1500000 steps
ETITLE: TS BOND ANGLE DIHED IMPRP ELECT VDW BOUNDARY MISC KINETIC TOTAL TEMP POTENTIAL TOTALAVG TEMPAVG PRESSURE GPRESSURE VOLUME PRESSAVG GPRESSAVG
ENERGY: 0 0.7146 6.5558 0.5349 0.0000 -10619.9072 1432.1654 0.0000 0.0000 1735.3066 -7444.6299 297.8837 -9179.9365 -7444.6299 297.8837 -89.4125 -0.2682 30226.7881 -89.4125 -0.2682
ENERGY: 300000 6.0593 11.9994 1.4211 0.0000 -10736.4603 1476.0176 0.0000 0.0000 1757.9680 -7482.9949 301.7737 -9240.9629 -7405.3972 298.8118 197.6402 256.9292 30029.0770 78.2221 162.1316
ENERGY: 600000 0.6261 5.6841 0.6564 0.0000 -10479.3856 1344.3120 0.0000 0.0000 1754.7308 -7373.3760 301.2181 -9128.1069 -7400.1332 300.2007 -467.8960 -393.1194 29984.4101 -7.6624 71.6492
ENERGY: 900000 1.5720 8.7221 0.8122 0.0000 -10492.2050 1345.5389 0.0000 0.0000 1729.5759 -7405.9840 296.8999 -9135.5599 -7413.3805 299.7664 -777.3891 -680.2484 30309.0369 -68.5118 4.0363
ENERGY: 1200000 2.5750 6.6325 3.2703 0.0000 -10545.9915 1360.7560 0.0000 0.0000 1745.9299 -7426.8277 299.7073 -9172.7577 -7413.6774 300.1156 -576.9284 -543.0406 30028.1276 -132.6439 -70.7281
ENERGY: 1500000 0.5890 6.0037 1.6452 0.0000 -10499.7843 1333.1516 0.0000 0.0000 1656.2338 -7502.1610 284.3100 -9158.3948 -7425.8641 298.6755 -904.1179 -835.5823 30347.8340 -158.7279 -96.6243
TCL: Running FEP window  10: Lambda1 0.5499999999999996 Lambda2 0.4999999999999996 [dLambda -0.04999999999999999]
TCL: Setting parameter firsttimestep to 0
TCL: Setting parameter alchLambda to 0.5499999999999996
Info: NONBONDED TABLE R-SQUARED SPACING: 0.0625
Info: NONBONDED TABLE SIZE: 705 POINTS
TCL: Setting parameter alchLambda2 to 0.4999999999999996
Info: NONBONDED TABLE R-SQUARED SPACING: 0.0625
Info: NONBONDED TABLE SIZE: 705 POINTS
TCL: Running for 1500000 steps
ETITLE: TS BOND ANGLE DIHED IMPRP ELECT VDW BOUNDARY MISC KINETIC TOTAL TEMP POTENTIAL TOTALAVG TEMPAVG PRESSURE GPRESSURE VOLUME PRESSAVG GPRESSAVG
ENERGY: 0 0.5890 6.0037 1.6452 0.0000 -10499.3708 1333.2878 0.0000 0.0000 1655.3544 -7502.4906 284.1590 -9157.8450 -7502.4906 284.1590 -922.1368 -838.0254 30347.8340 -922.1368 -838.0254
ENERGY: 300000 2.2831 4.6026 0.9107 0.0000 -10653.4057 1446.4422 0.0000 0.0000 1679.2883 -7519.8788 288.2675 -9199.1671 -7426.3092 295.5154 47.9245 175.5203 29683.8055 -289.0903 -198.0317
ENERGY: 600000 0.7157 5.2390 1.6396 0.0000 -10641.3614 1462.1610 0.0000 0.0000 1723.6003 -7448.0058 295.8742 -9171.6061 -7433.9045 297.1983 228.3850 210.8242 30129.6712 -188.4629 -121.4121
ENERGY: 900000 2.5907 11.3709 1.5718 0.0000 -10499.4431 1396.2089 0.0000 0.0000 1757.5678 -7330.1330 301.7050 -9087.7008 -7411.9884 299.1819 -187.0518 -109.8260 30350.9747 -150.8120 -77.0973
ENERGY: 1200000 2.1402 7.7388 1.3439 0.0000 -10543.8109 1422.6561 0.0000 0.0000 1770.1096 -7339.8224 303.8580 -9109.9320 -7407.1949 300.9819 -91.0103 -38.7257 30521.6290 -124.8049 -51.5981
ENERGY: 1500000 0.6824 7.0472 2.1436 0.0000 -10558.5746 1430.9924 0.0000 0.0000 1775.4588 -7342.2502 304.7762 -9117.7090 -7411.5452 301.2011 -107.5108 -51.7055 30664.2537 -79.5207 -7.6565
TCL: Running FEP window  11: Lambda1 0.4999999999999996 Lambda2 0.4499999999999996 [dLambda -0.04999999999999999]
TCL: Setting parameter firsttimestep to 0
TCL: Setting parameter alchLambda to 0.4999999999999996
Info: NONBONDED TABLE R-SQUARED SPACING: 0.0625
Info: NONBONDED TABLE SIZE: 705 POINTS
TCL: Setting parameter alchLambda2 to 0.4499999999999996
Info: NONBONDED TABLE R-SQUARED SPACING: 0.0625
Info: NONBONDED TABLE SIZE: 705 POINTS
TCL: Running for 1500000 steps
ETITLE: TS BOND ANGLE DIHED IMPRP ELECT VDW BOUNDARY MISC KINETIC TOTAL TEMP POTENTIAL TOTALAVG TEMPAVG PRESSURE GPRESSURE VOLUME PRESSAVG GPRESSAVG
ENERGY: 0 0.6824 7.0472 2.1436 0.0000 -10558.3726 1431.0136 0.0000 0.0000 1774.5822 -7342.9035 304.6257 -9117.4857 -7342.9035 304.6257 -129.6606 -54.5742 30664.2537 -129.6606 -54.5742
ENERGY: 300000 2.0933 8.9693 1.7072 0.0000 -10543.3193 1308.9498 0.0000 0.0000 1770.7196 -7450.8800 303.9627 -9221.5996 -7376.9310 304.0994 -931.1074 -860.2081 29956.6419 -294.8749 -211.6893
ENERGY: 600000 4.5381 9.6528 2.0410 0.0000 -10663.7083 1463.2490 0.0000 0.0000 1738.2875 -7445.9399 298.3954 -9184.2274 -7415.1779 300.8799 143.0576 212.4266 30091.6229 -346.7186 -266.4968
ENERGY: 900000 0.9057 7.8763 1.2625 0.0000 -10726.0875 1443.8971 0.0000 0.0000 1715.5480 -7556.5980 294.4919 -9272.1460 -7432.0001 300.2775 141.1741 204.8061 29619.3228 -225.6191 -152.9110
ENERGY: 1200000 2.6099 8.1801 0.8520 0.0000 -10550.4386 1384.5783 0.0000 0.0000 1760.2595 -7393.9588 302.1671 -9154.2183 -7423.2358 301.5693 -281.3951 -212.0649 30269.1675 -245.6542 -166.6365
ENERGY: 1500000 1.1270 5.3650 1.5247 0.0000 -10561.5712 1395.7444 0.0000 0.0000 1756.3395 -7401.4707 301.4942 -9157.8101 -7430.6389 300.3768 -126.5501 31.7980 29946.4184 -235.6968 -158.5796
TCL: Running FEP window  12: Lambda1 0.4499999999999996 Lambda2 0.39999999999999963 [dLambda -0.04999999999999999]
TCL: Setting parameter firsttimestep to 0
TCL: Setting parameter alchLambda to 0.4499999999999996
Info: NONBONDED TABLE R-SQUARED SPACING: 0.0625
Info: NONBONDED TABLE SIZE: 705 POINTS
TCL: Setting parameter alchLambda2 to 0.39999999999999963
Info: NONBONDED TABLE R-SQUARED SPACING: 0.0625
Info: NONBONDED TABLE SIZE: 705 POINTS
TCL: Running for 1500000 steps
ETITLE: TS BOND ANGLE DIHED IMPRP ELECT VDW BOUNDARY MISC KINETIC TOTAL TEMP POTENTIAL TOTALAVG TEMPAVG PRESSURE GPRESSURE VOLUME PRESSAVG GPRESSAVG
ENERGY: 0 1.1270 5.3650 1.5247 0.0000 -10561.5714 1395.7102 0.0000 0.0000 1755.4384 -7402.4061 301.3395 -9157.8445 -7402.4061 301.3395 -38.4510 29.2363 29946.4184 -38.4510 29.2363
ENERGY: 300000 0.9748 5.1101 2.2498 0.0000 -10442.1219 1356.7201 0.0000 0.0000 1708.1708 -7368.8964 293.2255 -9077.0671 -7371.9365 304.7425 -440.4015 -385.5296 30284.1085 -130.4350 -88.7865
ENERGY: 600000 1.1455 9.9003 1.9020 0.0000 -10611.1768 1392.4278 0.0000 0.0000 1768.6455 -7437.1558 303.6066 -9205.8013 -7397.0106 304.4108 -364.1871 -294.8323 30048.2543 -252.5806 -193.6383
ENERGY: 900000 0.8505 3.9270 1.3164 0.0000 -10602.0990 1396.7324 0.0000 0.0000 1711.2210 -7488.0516 293.7491 -9199.2726 -7403.9115 304.5324 -380.6517 -324.8437 30162.9149 -232.7187 -173.2643
ENERGY: 1200000 0.8648 6.6841 3.1453 0.0000 -10551.5628 1358.0745 0.0000 0.0000 1783.2465 -7399.5476 306.1131 -9182.7941 -7401.9766 303.7230 -621.5721 -561.4726 30005.2197 -283.7348 -223.1905
ENERGY: 1500000 1.2272 7.3188 2.1105 0.0000 -10546.7065 1393.1458 0.0000 0.0000 1751.9214 -7390.9829 300.7358 -9142.9042 -7402.5234 303.1396 -399.3592 -242.0241 30124.8884 -288.9557 -230.2469
TCL: Running FEP window  13: Lambda1 0.39999999999999963 Lambda2 0.34999999999999964 [dLambda -0.04999999999999999]
TCL: Setting parameter firsttimestep to 0
TCL: Setting parameter alchLambda to 0.39999999999999963
Info: NONBONDED TABLE R-SQUARED SPACING: 0.0625
Info: NONBONDED TABLE SIZE: 705 POINTS
TCL: Setting parameter alchLambda2 to 0.34999999999999964
Info: NONBONDED TABLE R-SQUARED SPACING: 0.0625
Info: NONBONDED TABLE SIZE: 705 POINTS
TCL: Running for 1500000 steps
ETITLE: TS BOND ANGLE DIHED IMPRP ELECT VDW BOUNDARY MISC KINETIC TOTAL TEMP POTENTIAL TOTALAVG TEMPAVG PRESSURE GPRESSURE VOLUME PRESSAVG GPRESSAVG
ENERGY: 0 1.2272 7.3188 2.1105 0.0000 -10546.7089 1393.1702 0.0000 0.0000 1751.0327 -7391.8496 300.5832 -9142.8823 -7391.8496 300.5832 -344.8609 -245.6485 30124.8884 -344.8609 -245.6485
ENERGY: 300000 1.8691 5.6612 1.1102 0.0000 -10475.5265 1326.6248 0.0000 0.0000 1744.2664 -7395.9948 299.4217 -9140.2612 -7387.6341 298.5874 -713.6139 -630.3067 30177.7182 -299.6558 -206.9196
ENERGY: 600000 1.7914 5.4671 2.3502 0.0000 -10464.6415 1392.9462 0.0000 0.0000 1711.4772 -7350.6094 293.7931 -9062.0865 -7406.0353 297.9852 -126.3177 -48.6459 30342.0478 -310.2601 -218.1141
ENERGY: 900000 0.2144 5.0757 3.2806 0.0000 -10668.9009 1510.2460 0.0000 0.0000 1766.7041 -7383.3801 303.2734 -9150.0842 -7414.7054 297.9869 525.3748 516.6735 30508.3967 -192.0631 -118.4650
ENERGY: 1200000 2.1743 5.1116 1.7014 0.0000 -10566.5830 1422.2537 0.0000 0.0000 1790.0838 -7345.2582 307.2868 -9135.3420 -7406.2111 299.2336 263.2670 329.7065 29922.5230 -75.8731 -8.8393
ENERGY: 1500000 2.5634 5.8523 1.8811 0.0000 -10608.8336 1423.7845 0.0000 0.0000 1729.8327 -7444.9195 296.9440 -9174.7522 -7418.1395 298.9846 -13.5114 52.8468 29661.8900 -36.1729 26.0385
TCL: Running FEP window  14: Lambda1 0.34999999999999964 Lambda2 0.29999999999999966 [dLambda -0.04999999999999999]
TCL: Setting parameter firsttimestep to 0
TCL: Setting parameter alchLambda to 0.34999999999999964
Info: NONBONDED TABLE R-SQUARED SPACING: 0.0625
Info: NONBONDED TABLE SIZE: 705 POINTS
TCL: Setting parameter alchLambda2 to 0.29999999999999966
Info: NONBONDED TABLE R-SQUARED SPACING: 0.0625
Info: NONBONDED TABLE SIZE: 705 POINTS
TCL: Running for 1500000 steps
ETITLE: TS BOND ANGLE DIHED IMPRP ELECT VDW BOUNDARY MISC KINETIC TOTAL TEMP POTENTIAL TOTALAVG TEMPAVG PRESSURE GPRESSURE VOLUME PRESSAVG GPRESSAVG
ENERGY: 0 2.5634 5.8523 1.8811 0.0000 -10608.8354 1423.5943 0.0000 0.0000 1728.9571 -7445.9871 296.7937 -9174.9442 -7445.9871 296.7937 -22.1281 46.7648 29661.8900 -22.1281 46.7648
ENERGY: 300000 0.8406 6.1197 3.8153 0.0000 -10651.6053 1455.9570 0.0000 0.0000 1747.8825 -7436.9902 300.0425 -9184.8728 -7452.7615 294.4241 143.6727 135.1810 30206.2117 11.7573 60.7336
ENERGY: 600000 0.2005 7.2621 3.2563 0.0000 -10586.7328 1389.2300 0.0000 0.0000 1721.3562 -7465.4276 295.4890 -9186.7838 -7414.9784 298.9046 -638.9524 -532.7535 30750.9193 -42.4314 24.6473
ENERGY: 900000 1.2369 8.9837 1.0749 0.0000 -10643.8161 1457.9442 0.0000 0.0000 1724.4435 -7450.1330 296.0189 -9174.5765 -7430.2985 298.3349 249.3705 310.2650 30129.0150 -21.1609 42.1006
ENERGY: 1200000 0.4946 7.8844 2.5718 0.0000 -10552.4702 1388.9273 0.0000 0.0000 1732.5859 -7420.0063 297.4166 -9152.5922 -7421.0474 298.5758 -516.3917 -428.3290 30540.1340 -35.4305 29.5503
ENERGY: 1500000 1.6537 7.9626 0.7985 0.0000 -10483.5531 1406.6964 0.0000 0.0000 1781.6594 -7284.7825 305.8406 -9066.4420 -7413.9641 298.7957 -18.2815 116.6822 30046.5334 -95.1335 -28.0909
TCL: Running FEP window  15: Lambda1 0.29999999999999966 Lambda2 0.24999999999999967 [dLambda -0.04999999999999999]
TCL: Setting parameter firsttimestep to 0
TCL: Setting parameter alchLambda to 0.29999999999999966
Info: NONBONDED TABLE R-SQUARED SPACING: 0.0625
Info: NONBONDED TABLE SIZE: 705 POINTS
TCL: Setting parameter alchLambda2 to 0.24999999999999967
Info: NONBONDED TABLE R-SQUARED SPACING: 0.0625
Info: NONBONDED TABLE SIZE: 705 POINTS
TCL: Running for 1500000 steps
ETITLE: TS BOND ANGLE DIHED IMPRP ELECT VDW BOUNDARY MISC KINETIC TOTAL TEMP POTENTIAL TOTALAVG TEMPAVG PRESSURE GPRESSURE VOLUME PRESSAVG GPRESSAVG
ENERGY: 0 1.6537 7.9626 0.7985 0.0000 -10483.5523 1406.7977 0.0000 0.0000 1780.7629 -7285.5769 305.6867 -9066.3398 -7285.5769 305.6867 40.9999 113.5737 30046.5334 40.9999 113.5737
ENERGY: 300000 0.5081 6.3507 2.5682 0.0000 -10541.6425 1344.6222 0.0000 0.0000 1741.7249 -7445.8685 298.9854 -9187.5933 -7375.2087 302.0054 -787.7304 -665.3558 29989.8952 -288.4709 -227.9966
ENERGY: 600000 2.0161 8.4419 1.5176 0.0000 -10638.5140 1445.2343 0.0000 0.0000 1729.1695 -7452.1345 296.8302 -9181.3041 -7402.7441 300.7498 23.3098 51.5423 29934.7594 -110.9873 -52.8174
ENERGY: 900000 0.6308 10.0243 2.5910 0.0000 -10572.3142 1388.9659 0.0000 0.0000 1747.6890 -7422.4132 300.0093 -9170.1022 -7412.5320 300.8011 -485.6891 -494.2787 30447.9282 -43.3415 11.8332
ENERGY: 1200000 0.2149 7.5573 2.6389 0.0000 -10695.8257 1501.4945 0.0000 0.0000 1718.4429 -7465.4772 294.9889 -9183.9201 -7418.9049 300.2950 477.5547 499.9574 30174.8868 -66.6600 -12.0838
ENERGY: 1500000 0.8558 10.0744 1.6491 0.0000 -10607.3812 1428.0923 0.0000 0.0000 1774.8938 -7391.8158 304.6792 -9166.7096 -7417.3248 300.8554 141.3669 283.0062 29610.9674 -14.5210 43.0072
TCL: Running FEP window  16: Lambda1 0.24999999999999967 Lambda2 0.19999999999999968 [dLambda -0.04999999999999999]
TCL: Setting parameter firsttimestep to 0
TCL: Setting parameter alchLambda to 0.24999999999999967
Info: NONBONDED TABLE R-SQUARED SPACING: 0.0625
Info: NONBONDED TABLE SIZE: 705 POINTS
TCL: Setting parameter alchLambda2 to 0.19999999999999968
Info: NONBONDED TABLE R-SQUARED SPACING: 0.0625
Info: NONBONDED TABLE SIZE: 705 POINTS
TCL: Running for 1500000 steps
ETITLE: TS BOND ANGLE DIHED IMPRP ELECT VDW BOUNDARY MISC KINETIC TOTAL TEMP POTENTIAL TOTALAVG TEMPAVG PRESSURE GPRESSURE VOLUME PRESSAVG GPRESSAVG
ENERGY: 0 0.8558 10.0744 1.6491 0.0000 -10607.3818 1427.3717 0.0000 0.0000 1774.0057 -7393.4251 304.5268 -9167.4308 -7393.4251 304.5268 188.5563 273.9945 29610.9674 188.5563 273.9945
ENERGY: 300000 0.7155 7.7836 0.8972 0.0000 -10660.9452 1440.7128 0.0000 0.0000 1820.2106 -7390.6255 312.4583 -9210.8361 -7450.8129 306.7687 40.8889 108.5901 29952.8495 -21.2492 45.2893
ENERGY: 600000 0.8097 7.9441 2.4345 0.0000 -10641.5665 1496.1214 0.0000 0.0000 1696.4762 -7437.7806 291.2180 -9134.2569 -7419.3560 303.6796 693.0001 674.2853 29960.9897 41.0473 93.9615
ENERGY: 900000 1.5173 4.4986 0.9923 0.0000 -10598.7133 1494.5866 0.0000 0.0000 1689.1126 -7408.0059 289.9540 -9097.1185 -7405.4901 301.6277 631.7620 645.1171 29943.3910 -31.8730 23.0129
ENERGY: 1200000 1.0063 5.7621 5.0110 0.0000 -10729.9577 1512.7159 0.0000 0.0000 1743.6849 -7461.7775 299.3219 -9205.4624 -7401.9606 302.3313 490.8314 578.7358 29866.6814 15.5631 78.8579
ENERGY: 1500000 1.8602 7.7547 1.6627 0.0000 -10454.2011 1352.7523 0.0000 0.0000 1702.1446 -7388.0265 292.1911 -9090.1712 -7405.9422 300.7949 -385.3002 -297.4983 30346.4551 30.2115 92.2910
TCL: Running FEP window  17: Lambda1 0.19999999999999968 Lambda2 0.1499999999999997 [dLambda -0.04999999999999999]
TCL: Setting parameter firsttimestep to 0
TCL: Setting parameter alchLambda to 0.19999999999999968
Info: NONBONDED TABLE R-SQUARED SPACING: 0.0625
Info: NONBONDED TABLE SIZE: 705 POINTS
TCL: Setting parameter alchLambda2 to 0.1499999999999997
Info: NONBONDED TABLE R-SQUARED SPACING: 0.0625
Info: NONBONDED TABLE SIZE: 705 POINTS
TCL: Running for 1500000 steps
ETITLE: TS BOND ANGLE DIHED IMPRP ELECT VDW BOUNDARY MISC KINETIC TOTAL TEMP POTENTIAL TOTALAVG TEMPAVG PRESSURE GPRESSURE VOLUME PRESSAVG GPRESSAVG
ENERGY: 0 1.8602 7.7547 1.6627 0.0000 -10454.1999 1352.9056 0.0000 0.0000 1701.2408 -7388.7759 292.0359 -9090.0167 -7388.7759 292.0359 -395.8181 -301.7921 30346.4551 -395.8181 -301.7921
ENERGY: 300000 2.1337 10.2932 1.9576 0.0000 -10607.4631 1416.5957 0.0000 0.0000 1736.6695 -7439.8135 298.1176 -9176.4830 -7430.7009 296.8305 69.6516 144.7057 29680.0874 -77.9011 -34.7582
ENERGY: 600000 0.5029 8.4699 1.6871 0.0000 -10573.3181 1399.6579 0.0000 0.0000 1742.4561 -7420.5444 299.1110 -9163.0005 -7418.2704 297.8086 -293.1417 -265.3137 30176.9704 141.1977 179.4266
ENERGY: 900000 1.2033 9.9051 1.2484 0.0000 -10633.2429 1416.6982 0.0000 0.0000 1773.9254 -7430.2624 304.5130 -9204.1878 -7424.5503 299.2266 -20.6154 6.5946 29678.1344 3.0664 44.3691
ENERGY: 1200000 2.1966 5.1354 2.6266 0.0000 -10529.5942 1392.1757 0.0000 0.0000 1705.4600 -7422.0000 292.7602 -9127.4600 -7411.2578 300.2503 -265.2661 -210.1739 30136.2737 36.9931 87.6142
ENERGY: 1500000 0.2508 7.6244 1.6679 0.0000 -10633.2615 1420.3270 0.0000 0.0000 1734.5757 -7468.8156 297.7582 -9203.3914 -7421.6302 299.4820 -112.3559 -97.2216 30141.2326 -6.5869 45.3886
TCL: Running FEP window  18: Lambda1 0.1499999999999997 Lambda2 0.09999999999999969 [dLambda -0.05 ]
TCL: Setting parameter firsttimestep to 0
TCL: Setting parameter alchLambda to 0.1499999999999997
Info: NONBONDED TABLE R-SQUARED SPACING: 0.0625
Info: NONBONDED TABLE SIZE: 705 POINTS
TCL: Setting parameter alchLambda2 to 0.09999999999999969
Info: NONBONDED TABLE R-SQUARED SPACING: 0.0625
Info: NONBONDED TABLE SIZE: 705 POINTS
TCL: Running for 1500000 steps
ETITLE: TS BOND ANGLE DIHED IMPRP ELECT VDW BOUNDARY MISC KINETIC TOTAL TEMP POTENTIAL TOTALAVG TEMPAVG PRESSURE GPRESSURE VOLUME PRESSAVG GPRESSAVG
ENERGY: 0 0.2508 7.6244 1.6679 0.0000 -10633.2621 1420.2927 0.0000 0.0000 1733.6833 -7469.7429 297.6050 -9203.4262 -7469.7429 297.6050 -177.7546 -101.8640 30141.2326 -177.7546 -101.8640
ENERGY: 300000 0.8270 8.1484 2.8875 0.0000 -10747.9071 1546.0286 0.0000 0.0000 1791.2896 -7398.7259 307.4937 -9190.0155 -7405.7768 303.7868 1032.6652 1073.2890 29825.4839 217.8998 291.8429
ENERGY: 600000 1.3699 6.5772 2.6024 0.0000 -10721.5495 1435.1166 0.0000 0.0000 1781.3138 -7494.5695 305.7813 -9275.8834 -7423.2152 303.1279 -323.4140 -304.8976 30141.5759 -47.6611 22.4484
ENERGY: 900000 0.7134 8.9814 1.6668 0.0000 -10488.9207 1436.7035 0.0000 0.0000 1777.4314 -7263.4241 305.1148 -9040.8555 -7411.1141 303.9590 352.8000 370.0143 30189.7944 8.0006 76.2821
ENERGY: 1200000 0.3650 6.5594 2.2344 0.0000 -10645.2996 1437.4325 0.0000 0.0000 1741.2736 -7457.4347 298.9080 -9198.7083 -7417.6853 302.6339 24.0041 83.2009 29730.1046 -144.5146 -81.5640
ENERGY: 1500000 2.9835 9.8483 2.5472 0.0000 -10652.2583 1439.4545 0.0000 0.0000 1711.5601 -7485.8647 293.8073 -9197.4248 -7421.3156 301.8777 -132.0894 -19.7453 30140.6856 -169.1984 -96.6207
TCL: Running FEP window  19: Lambda1 0.09999999999999969 Lambda2 0.049999999999999684 [dLambda -0.05 ]
TCL: Setting parameter firsttimestep to 0
TCL: Setting parameter alchLambda to 0.09999999999999969
Info: NONBONDED TABLE R-SQUARED SPACING: 0.0625
Info: NONBONDED TABLE SIZE: 705 POINTS
TCL: Setting parameter alchLambda2 to 0.049999999999999684
Info: NONBONDED TABLE R-SQUARED SPACING: 0.0625
Info: NONBONDED TABLE SIZE: 705 POINTS
TCL: Running for 1500000 steps
ETITLE: TS BOND ANGLE DIHED IMPRP ELECT VDW BOUNDARY MISC KINETIC TOTAL TEMP POTENTIAL TOTALAVG TEMPAVG PRESSURE GPRESSURE VOLUME PRESSAVG GPRESSAVG
ENERGY: 0 2.9835 9.8483 2.5472 0.0000 -10652.2574 1439.5150 0.0000 0.0000 1710.6985 -7486.6648 293.6594 -9197.3633 -7486.6648 293.6594 -97.0474 -23.2117 30140.6856 -97.0474 -23.2117
ENERGY: 300000 2.3877 6.9965 0.9688 0.0000 -10521.5580 1342.6216 0.0000 0.0000 1795.4947 -7373.0887 308.2156 -9168.5834 -7418.1076 300.3339 -428.1704 -378.2543 29691.8955 -246.2090 -175.1276
ENERGY: 600000 1.0215 7.6352 2.8262 0.0000 -10503.7312 1371.5424 0.0000 0.0000 1732.5473 -7388.1587 297.4100 -9120.7060 -7414.0932 302.0590 -248.9483 -211.7885 29679.8068 42.1171 116.8481
ENERGY: 900000 1.3976 6.0471 0.9196 0.0000 -10708.9271 1488.2716 0.0000 0.0000 1760.7581 -7451.5332 302.2527 -9212.2913 -7422.8507 300.5503 320.9293 387.3382 29943.6187 83.3119 153.9077
ENERGY: 1200000 0.4023 5.2327 0.7824 0.0000 -10578.4201 1364.9742 0.0000 0.0000 1735.1692 -7471.8594 297.8601 -9207.0286 -7410.8700 301.0515 -745.7448 -666.1669 30304.2313 78.7488 147.6290
ENERGY: 1500000 0.5261 6.8658 1.9881 0.0000 -10584.9147 1437.8106 0.0000 0.0000 1736.7798 -7400.9443 298.1366 -9137.7241 -7410.3787 300.3702 372.3326 370.1506 29728.8663 126.1225 185.6810
TCL: Running FEP window  20: Lambda1 0.049999999999999684 Lambda2 0.0    [dLambda -0.049999999999999684]
TCL: Setting parameter firsttimestep to 0
TCL: Setting parameter alchLambda to 0.049999999999999684
Info: NONBONDED TABLE R-SQUARED SPACING: 0.0625
Info: NONBONDED TABLE SIZE: 705 POINTS
TCL: Setting parameter alchLambda2 to 0.0
Info: NONBONDED TABLE R-SQUARED SPACING: 0.0625
Info: NONBONDED TABLE SIZE: 705 POINTS
TCL: Running for 1500000 steps
ETITLE: TS BOND ANGLE DIHED IMPRP ELECT VDW BOUNDARY MISC KINETIC TOTAL TEMP POTENTIAL TOTALAVG TEMPAVG PRESSURE GPRESSURE VOLUME PRESSAVG GPRESSAVG
ENERGY: 0 0.5261 6.8658 1.9881 0.0000 -10584.9155 1438.1062 0.0000 0.0000 1735.8870 -7401.5422 297.9833 -9137.4293 -7401.5422 297.9833 298.8123 370.7484 29728.8663 298.8123 370.7484
ENERGY: 300000 0.4712 8.2594 0.7388 0.0000 -10628.6370 1469.2262 0.0000 0.0000 1758.8701 -7391.0712 301.9286 -9149.9413 -7405.9869 300.6268 303.1498 381.7269 30311.3313 307.6196 395.6282
ENERGY: 600000 2.6254 7.3930 0.9019 0.0000 -10563.8051 1435.2661 0.0000 0.0000 1717.9365 -7399.6822 294.9019 -9117.6187 -7424.0908 297.8720 -30.5661 7.2593 30507.9249 -52.8967 22.3016
ENERGY: 900000 1.0388 4.6715 2.3516 0.0000 -10438.7190 1384.7931 0.0000 0.0000 1765.6092 -7280.2548 303.0854 -9045.8640 -7426.0193 298.2431 -136.6647 -37.4022 30439.4808 27.7617 93.1588
ENERGY: 1200000 2.2887 9.7130 2.7326 0.0000 -10459.4725 1379.2703 0.0000 0.0000 1723.7886 -7341.6794 295.9065 -9065.4680 -7409.1848 299.0741 -96.3254 7.6743 29839.7316 4.3530 71.4643
ENERGY: 1500000 2.2976 8.5369 2.2071 0.0000 -10570.2985 1371.1622 0.0000 0.0000 1693.3249 -7492.7698 290.6771 -9186.0947 -7414.4076 298.7570 -884.3645 -843.9360 30575.7161 -81.7963 -18.5097
TCL: Exiting due to exit command.
