Info: SIMULATION PARAMETERS:
Info: TIMESTEP               2
Info: NUMBER OF STEPS        0
Info: STEPS PER CYCLE        10
Info: PERIODIC CELL BASIS 1  34.1852 0 0
Info: PERIODIC CELL BASIS 2  0 29.997 0
Info: PERIODIC CELL BASIS 3  0 0 29.9178
Info: PERIODIC CELL CENTER   0 0 0
Info: WRAPPING WATERS AROUND PERIODIC BOUNDARIES ON OUTPUT.
Info: WRAPPING ALL CLUSTERS AROUND PERIODIC BOUNDARIES ON OUTPUT.
Info: FIRST LDB TIMESTEP     50
Info: LAST LDB TIMESTEP     -1
Info: HOM BACKGROUND SCALING 1
Info: PME BACKGROUND SCALING 1
Info: MIN ATOMS PER PATCH    40
Info: EMPTY PATCH LOAD       40 ATOMS
Info: VELOCITY FILE          mobley_7142697_equil.vel
Info: CENTER OF MASS MOVING INITIALLY? NO
Info: DIELECTRIC             1
Info: EXCLUDE                SCALED ONE-FOUR
Info: 1-4 ELECTROSTATICS SCALED BY 0.833333
Info: MODIFIED 1-4 VDW PARAMETERS WILL BE USED
Info: DCD FILENAME           mobley_7142697_prod.dcd
Info: DCD FREQUENCY          100000
Info: DCD FIRST STEP         100000
Info: DCD FILE WILL CONTAIN UNIT CELL DATA
Info: XST FILENAME           mobley_7142697_prod.xst
Info: XST FREQUENCY          100000
Info: NO VELOCITY DCD OUTPUT
Info: NO FORCE DCD OUTPUT
Info: OUTPUT FILENAME        mobley_7142697_prod
Info: BINARY OUTPUT FILES WILL BE USED
Info: RESTART FILENAME       mobley_7142697_prod.restart
Info: RESTART FREQUENCY      100000
Info: BINARY RESTART FILES WILL BE USED
Info: CUTOFF                 9
Info: PAIRLIST DISTANCE      11
Info: PAIRLIST SHRINK RATE   0.01
Info: PAIRLIST GROW RATE     0.01
Info: PAIRLIST TRIGGER       0.3
Info: PAIRLISTS PER CYCLE    2
Info: PAIRLISTS ENABLED
Info: MARGIN                 2
Info: HYDROGEN GROUP CUTOFF  2.5
Info: PATCH DIMENSION        15.5
Info: ENERGY OUTPUT STEPS    100000
Info: ENERGY EVALUATION STEPS    100000
Info: OUTPUT ENERGY PRECISION 4
Info: CROSSTERM ENERGY INCLUDED IN DIHEDRAL
Info: TIMING OUTPUT STEPS    1000000
Info: PRESSURE OUTPUT STEPS  100000
Info: ALCHEMICAL FEP ON
Info: FEP CURRENT LAMBDA VALUE     0
Info: FEP COMPARISON LAMBDA VALUE  0.05
Info: FEP INTRA-ALCHEMICAL NON-BONDED INTERACTIONS WILL BE RETAINED
Info: FEP INTRA-ALCHEMICAL BONDED INTERACTIONS WILL BE RETAINED
Info: FEP VDW SHIFTING COEFFICIENT 5
Info: FEP ELEC. ACTIVE FOR ANNIHILATED PARTICLES BETWEEN LAMBDA = 0 AND LAMBDA = 0.5
Info: FEP ELEC. ACTIVE FOR EXNIHILATED PARTICLES BETWEEN LAMBDA = 0.5 AND LAMBDA = 1
Info: FEP VDW ACTIVE FOR ANNIHILATED PARTICLES BETWEEN LAMBDA = 0 AND LAMBDA = 1
Info: FEP VDW ACTIVE FOR EXNIHILATED PARTICLES BETWEEN LAMBDA = 0 AND LAMBDA = 1
Info: FEP BOND ACTIVE FOR ANNIHILATED PARTICLES BETWEEN LAMBDA = 1 AND LAMBDA = 1
Info: FEP BOND ACTIVE FOR EXNIHILATED PARTICLES BETWEEN LAMBDA = 0 AND LAMBDA = 0
Info: LANGEVIN DYNAMICS ACTIVE
Info: LANGEVIN TEMPERATURE   300
Info: LANGEVIN USING BBK INTEGRATOR
Info: LANGEVIN DAMPING COEFFICIENT IS 1 INVERSE PS
Info: LANGEVIN DYNAMICS APPLIED TO HYDROGENS
Info: LANGEVIN PISTON PRESSURE CONTROL ACTIVE
Info:        TARGET PRESSURE IS 1.01325 BAR
Info:     OSCILLATION PERIOD IS 50 FS
Info:             DECAY TIME IS 25 FS
Info:     PISTON TEMPERATURE IS 300 K
Info:       PRESSURE CONTROL IS GROUP-BASED
Info:    INITIAL STRAIN RATE IS -0.000112123 -0.000112123 -0.000112123
Info:       CELL FLUCTUATION IS ISOTROPIC
Info: PARTICLE MESH EWALD (PME) ACTIVE
Info: PME TOLERANCE               1e-06
Info: PME EWALD COEFFICIENT       0.348832
Info: PME INTERPOLATION ORDER     4
Info: PME GRID DIMENSIONS         36 32 32
Info: PME MAXIMUM GRID SPACING    1
Info: PME CALCULATION WILL BE PERFORMED ON GPU
Info: FULL ELECTROSTATIC EVALUATION FREQUENCY      2
Info: USING VERLET I (r-RESPA) MTS SCHEME.
Info: C1 SPLITTING OF LONG RANGE ELECTROSTATICS
Info: PLACING ATOMS IN PATCHES BY HYDROGEN GROUPS
Info: RIGID BONDS TO HYDROGEN : ALL
Info:         ERROR TOLERANCE : 1e-08
Info:          MAX ITERATIONS : 100
Info: RIGID WATER USING SETTLE ALGORITHM
Info: RANDOM NUMBER SEED     1743919855
Info: USE HYDROGEN BONDS?    NO
Info: Using AMBER format force field!
Info: AMBER PARM FILE        mobley_7142697.prmtop
Info: COORDINATE PDB         mobley_7142697.pdb
Info: Exclusions will be read from PARM file!
Info: SCNB (VDW SCALING)     2
Info: USING ARITHMETIC MEAN TO COMBINE L-J SIGMA PARAMETERS
Info: BINARY COORDINATES     mobley_7142697_equil.coor
Info: SUMMARY OF PARAMETERS:
Info: 7 BONDS
Info: 9 ANGLES
Info:   9 HARMONIC
Info:   0 COSINE-BASED
Info: 7 DIHEDRAL
Info: 0 IMPROPER
Info: 0 CROSSTERM
Info: 0 VDW
Info: 28 VDW_PAIRS
Info: 0 NBTHOLE_PAIRS
Info: To read alchdata from file: mobley_7142697.pdb
Info: To read alchflag data from column: 5
Info: STRUCTURE SUMMARY:
Info: 2998 ATOMS
Info: 2997 BONDS
Info: 33 ANGLES
Info: 46 DIHEDRALS
Info: 0 IMPROPERS
Info: 0 CROSSTERMS
Info: 3072 EXCLUSIONS
Info: 2992 RIGID BONDS
Info: ALCH: 0 ATOMS TO DISAPPEAR IN FINAL STATE
Info: ALCH: 19 ATOMS TO APPEAR IN FINAL STATE
Info: 6002 DEGREES OF FREEDOM
Info: 999 HYDROGEN GROUPS
Info: 4 ATOMS IN LARGEST HYDROGEN GROUP
Info: 999 MIGRATION GROUPS
Info: 4 ATOMS IN LARGEST MIGRATION GROUP
Info: TOTAL MASS = 17977.1 amu
Info: TOTAL CHARGE = -0.000300042 e
Info: MASS DENSITY = 0.973043 g/cm^3
Info: ATOM DENSITY = 0.0977206 atoms/A^3
Info: ADDED 0 IMPLICIT EXCLUSIONS
Info: NONBONDED TABLE R-SQUARED SPACING: 0.0625
Info: NONBONDED TABLE SIZE: 705 POINTS
Info: REMOVING COM VELOCITY -0.0341765 0.196784 -0.0728255
Info: Use 3D box decompostion in PME FFT.
Info: Updated CUDA force table with 4096 elements.
Info: Updated CUDA LJ table with 7 x 7 elements.
Info: Found 22 unique exclusion lists needing 60 bytes
TCL: Running for 1500000 steps
ETITLE: TS BOND ANGLE DIHED IMPRP ELECT VDW BOUNDARY MISC KINETIC TOTAL TEMP POTENTIAL TOTALAVG TEMPAVG PRESSURE GPRESSURE VOLUME PRESSAVG GPRESSAVG
ENERGY: 0 2.1693 11.0188 3.3097 0.0000 -10885.0234 1469.4367 0.0000 0.0000 1774.0917 -7624.9972 297.4887 -9399.0889 -7624.9972 297.4887 101.0306 172.9530 30679.3113 101.0306 172.9530
ENERGY: 300000 1.8684 10.4536 2.1662 0.0000 -10813.6800 1430.5722 0.0000 0.0000 1830.2852 -7538.3344 306.9115 -9368.6196 -7581.7810 301.2818 -146.2004 -41.2080 30721.1503 -35.0059 59.9887
ENERGY: 600000 4.5915 8.8426 3.0662 0.0000 -10839.7985 1467.3051 0.0000 0.0000 1778.2776 -7577.7155 298.1906 -9355.9931 -7582.7480 300.7904 -60.0759 4.1457 30771.2986 198.3404 276.8489
ENERGY: 900000 0.5720 12.3530 3.7714 0.0000 -10789.8199 1336.4971 0.0000 0.0000 1861.2573 -7575.3691 312.1051 -9436.6264 -7577.9119 302.4022 -1125.8491 -1128.6693 30872.0792 80.1623 141.1426
ENERGY: 1200000 1.2888 6.6179 3.3100 0.0000 -10808.9161 1381.5154 0.0000 0.0000 1751.6908 -7664.4932 293.7324 -9416.1840 -7583.7379 301.7937 -864.1077 -775.2613 30455.8643 -25.1087 34.9139
ENERGY: 1500000 0.7677 8.5080 1.5544 0.0000 -10870.9221 1456.7605 0.0000 0.0000 1762.6570 -7640.6746 295.5713 -9403.3316 -7593.6039 300.8086 -79.3430 -19.4235 30576.8082 12.7633 77.2495
TCL: Running FEP window   2: Lambda1 0.05   Lambda2 0.1    [dLambda 0.05  ]
TCL: Setting parameter firsttimestep to 0
TCL: Setting parameter alchLambda to 0.05
Info: NONBONDED TABLE R-SQUARED SPACING: 0.0625
Info: NONBONDED TABLE SIZE: 705 POINTS
TCL: Setting parameter alchLambda2 to 0.1
Info: NONBONDED TABLE R-SQUARED SPACING: 0.0625
Info: NONBONDED TABLE SIZE: 705 POINTS
TCL: Running for 1500000 steps
ETITLE: TS BOND ANGLE DIHED IMPRP ELECT VDW BOUNDARY MISC KINETIC TOTAL TEMP POTENTIAL TOTALAVG TEMPAVG PRESSURE GPRESSURE VOLUME PRESSAVG GPRESSAVG
ENERGY: 0 0.7677 8.5080 1.5544 0.0000 -10870.9228 1458.8063 0.0000 0.0000 1761.7622 -7639.5243 295.4212 -9401.2865 -7639.5243 295.4212 -91.2847 -11.8849 30576.8082 -91.2847 -11.8849
ENERGY: 300000 2.3882 4.9510 4.1483 0.0000 -10876.5236 1534.1580 0.0000 0.0000 1797.0240 -7533.8540 301.3341 -9330.8780 -7550.6914 299.1947 388.6103 461.6429 31177.2199 13.0378 73.5508
ENERGY: 600000 2.6565 12.3312 1.9326 0.0000 -10782.4491 1420.6805 0.0000 0.0000 1723.7767 -7621.0715 289.0516 -9344.8482 -7556.6580 297.6121 -450.1935 -415.6245 31233.5874 -79.0030 -22.6873
ENERGY: 900000 0.4140 9.4023 3.3306 0.0000 -10795.9579 1420.4259 0.0000 0.0000 1823.9959 -7538.3892 305.8569 -9362.3851 -7558.4751 298.9942 -521.3431 -440.9068 31233.2402 -194.8915 -132.8024
ENERGY: 1200000 2.5931 10.8246 2.9155 0.0000 -10855.1979 1460.1380 0.0000 0.0000 1757.7854 -7620.9414 294.7544 -9378.7267 -7567.3944 298.6720 129.6661 171.3184 30435.4478 -202.3619 -143.7062
ENERGY: 1500000 1.8091 11.7660 2.4614 0.0000 -10911.5478 1513.9974 0.0000 0.0000 1822.0346 -7559.4793 305.5280 -9381.5139 -7564.0197 299.3349 377.9075 410.5552 30677.1899 -178.9213 -125.0737
TCL: Running FEP window   3: Lambda1 0.1    Lambda2 0.15000000000000002 [dLambda 0.05000000000000002]
TCL: Setting parameter firsttimestep to 0
TCL: Setting parameter alchLambda to 0.1
Info: NONBONDED TABLE R-SQUARED SPACING: 0.0625
Info: NONBONDED TABLE SIZE: 705 POINTS
TCL: Setting parameter alchLambda2 to 0.15000000000000002
Info: NONBONDED TABLE R-SQUARED SPACING: 0.0625
Info: NONBONDED TABLE SIZE: 705 POINTS
TCL: Running for 1500000 steps
ETITLE: TS BOND ANGLE DIHED IMPRP ELECT VDW BOUNDARY MISC KINETIC TOTAL TEMP POTENTIAL TOTALAVG TEMPAVG PRESSURE GPRESSURE VOLUME PRESSAVG GPRESSAVG
ENERGY: 0 1.8091 11.7660 2.4614 0.0000 -10911.5488 1513.8562 0.0000 0.0000 1821.1879 -7560.4682 305.3860 -9381.6561 -7560.4682 305.3860 330.4657 408.9439 30677.1899 330.4657 408.9439
ENERGY: 300000 1.4897 8.1149 2.5295 0.0000 -10854.1277 1436.8649 0.0000 0.0000 1829.9878 -7575.1409 306.8616 -9405.1287 -7554.4712 303.8150 -226.6365 -162.4078 30736.9133 130.3864 194.5277
ENERGY: 600000 1.2404 8.7968 4.8917 0.0000 -10807.5158 1425.1372 0.0000 0.0000 1750.8000 -7616.6497 293.5830 -9367.4497 -7564.6288 301.8271 -554.1014 -434.1311 30966.7332 -16.9234 60.8701
ENERGY: 900000 1.3551 14.1232 1.5458 0.0000 -10800.1746 1450.3796 0.0000 0.0000 1857.9274 -7474.8435 311.5467 -9332.7709 -7575.4510 300.5421 35.2100 27.6384 30989.7750 -134.9112 -67.6725
ENERGY: 1200000 0.6241 12.0003 2.7445 0.0000 -10924.2707 1471.3005 0.0000 0.0000 1767.0445 -7670.5568 296.3070 -9437.6013 -7579.0845 300.8597 -150.2046 -40.2141 30437.7412 -249.1587 -181.8286
ENERGY: 1500000 1.3289 7.0493 1.5967 0.0000 -10850.0623 1509.8420 0.0000 0.0000 1807.9992 -7522.2463 303.1745 -9330.2455 -7570.0547 301.2549 450.7406 565.8629 30830.7256 -179.7101 -113.4807
TCL: Running FEP window   4: Lambda1 0.15000000000000002 Lambda2 0.2    [dLambda 0.04999999999999999]
TCL: Setting parameter firsttimestep to 0
TCL: Setting parameter alchLambda to 0.15000000000000002
Info: NONBONDED TABLE R-SQUARED SPACING: 0.0625
Info: NONBONDED TABLE SIZE: 705 POINTS
TCL: Setting parameter alchLambda2 to 0.2
Info: NONBONDED TABLE R-SQUARED SPACING: 0.0625
Info: NONBONDED TABLE SIZE: 705 POINTS
TCL: Running for 1500000 steps
ETITLE: TS BOND ANGLE DIHED IMPRP ELECT VDW BOUNDARY MISC KINETIC TOTAL TEMP POTENTIAL TOTALAVG TEMPAVG PRESSURE GPRESSURE VOLUME PRESSAVG GPRESSAVG
ENERGY: 0 1.3289 7.0493 1.5967 0.0000 -10850.0639 1510.7994 0.0000 0.0000 1807.1036 -7522.1861 303.0243 -9329.2897 -7522.1861 303.0243 473.7205 573.4445 30830.7256 473.7205 573.4445
ENERGY: 300000 2.3497 8.3673 2.3278 0.0000 -10970.6851 1505.0478 0.0000 0.0000 1812.7325 -7639.8600 303.9682 -9452.5925 -7530.0507 304.7369 239.4686 314.5975 30422.2725 241.3591 310.2158
ENERGY: 600000 2.0386 6.6705 1.9865 0.0000 -10940.5555 1528.1260 0.0000 0.0000 1837.3822 -7564.3516 308.1016 -9401.7338 -7546.1990 304.3949 465.7035 574.8432 30423.1796 272.1987 343.8536
ENERGY: 900000 3.2125 10.1755 5.6174 0.0000 -10861.9339 1460.5198 0.0000 0.0000 1801.8362 -7580.5726 302.1410 -9382.4088 -7558.5749 302.8027 27.9774 45.2308 30729.6329 124.3440 188.5633
ENERGY: 1200000 2.5421 7.2836 1.8152 0.0000 -10796.1464 1455.0576 0.0000 0.0000 1799.7011 -7529.7467 301.7830 -9329.4479 -7564.3707 301.8615 26.0570 107.9930 30427.1571 31.9508 104.3736
ENERGY: 1500000 0.5978 6.9245 1.9349 0.0000 -10819.3416 1386.1254 0.0000 0.0000 1771.8739 -7651.8851 297.1168 -9423.7590 -7579.3494 300.3884 -579.9293 -471.5514 30426.4725 -86.6972 -10.9612
TCL: Running FEP window   5: Lambda1 0.2    Lambda2 0.25   [dLambda 0.04999999999999999]
TCL: Setting parameter firsttimestep to 0
TCL: Setting parameter alchLambda to 0.2
Info: NONBONDED TABLE R-SQUARED SPACING: 0.0625
Info: NONBONDED TABLE SIZE: 705 POINTS
TCL: Setting parameter alchLambda2 to 0.25
Info: NONBONDED TABLE R-SQUARED SPACING: 0.0625
Info: NONBONDED TABLE SIZE: 705 POINTS
TCL: Running for 1500000 steps
ETITLE: TS BOND ANGLE DIHED IMPRP ELECT VDW BOUNDARY MISC KINETIC TOTAL TEMP POTENTIAL TOTALAVG TEMPAVG PRESSURE GPRESSURE VOLUME PRESSAVG GPRESSAVG
ENERGY: 0 0.5978 6.9245 1.9349 0.0000 -10819.3426 1386.7647 0.0000 0.0000 1770.9639 -7652.1568 296.9642 -9423.1207 -7652.1568 296.9642 -552.3100 -463.1048 30426.4725 -552.3100 -463.1048
ENERGY: 300000 1.5881 12.3646 2.2147 0.0000 -10969.7042 1520.0703 0.0000 0.0000 1753.2001 -7680.2664 293.9855 -9433.4665 -7628.3273 296.6426 304.7832 391.9191 30502.0978 -74.6232 -4.6426
ENERGY: 600000 1.7559 6.6717 1.9373 0.0000 -10806.1655 1404.4826 0.0000 0.0000 1822.4676 -7568.8504 305.6006 -9391.3180 -7602.1796 298.8615 -527.1967 -439.4149 30711.0761 -240.7257 -175.3871
ENERGY: 900000 1.7611 6.7335 3.4997 0.0000 -10855.5725 1475.6260 0.0000 0.0000 1824.9502 -7543.0019 306.0169 -9367.9522 -7593.7576 300.7271 164.4776 245.3127 30481.0679 -160.6129 -99.6629
ENERGY: 1200000 0.1638 10.6749 3.1822 0.0000 -10833.7175 1444.1975 0.0000 0.0000 1790.5281 -7584.9710 300.2448 -9375.4991 -7584.8727 300.3138 -92.0855 -78.8609 30692.7611 -127.1867 -72.3334
ENERGY: 1500000 4.9517 9.3677 2.4495 0.0000 -10906.6021 1486.5350 0.0000 0.0000 1782.8948 -7620.4034 298.9648 -9403.2982 -7578.1403 301.5685 158.6251 207.5549 30650.3006 -149.1447 -95.3658
TCL: Running FEP window   6: Lambda1 0.25   Lambda2 0.3    [dLambda 0.04999999999999999]
TCL: Setting parameter firsttimestep to 0
TCL: Setting parameter alchLambda to 0.25
Info: NONBONDED TABLE R-SQUARED SPACING: 0.0625
Info: NONBONDED TABLE SIZE: 705 POINTS
TCL: Setting parameter alchLambda2 to 0.3
Info: NONBONDED TABLE R-SQUARED SPACING: 0.0625
Info: NONBONDED TABLE SIZE: 705 POINTS
TCL: Running for 1500000 steps
ETITLE: TS BOND ANGLE DIHED IMPRP ELECT VDW BOUNDARY MISC KINETIC TOTAL TEMP POTENTIAL TOTALAVG TEMPAVG PRESSURE GPRESSURE VOLUME PRESSAVG GPRESSAVG
ENERGY: 0 4.9517 9.3677 2.4495 0.0000 -10906.6038 1486.2880 0.0000 0.0000 1782.0217 -7621.5252 298.8184 -9403.5470 -7621.5252 298.8184 126.9350 209.7472 30650.3006 126.9350 209.7472
ENERGY: 300000 0.9741 9.5299 2.4583 0.0000 -10717.7797 1388.5385 0.0000 0.0000 1795.3539 -7520.9250 301.0540 -9316.2789 -7583.8087 300.4941 -655.9090 -549.0495 31480.6580 -63.4235 36.7737
ENERGY: 600000 1.5351 9.4492 5.7031 0.0000 -10784.4726 1455.2185 0.0000 0.0000 1850.6679 -7461.8987 310.3294 -9312.5666 -7557.4636 300.3082 33.0676 135.7648 30856.9627 -159.4172 -64.9819
ENERGY: 900000 0.2760 6.4264 2.9805 0.0000 -10806.6436 1450.5345 0.0000 0.0000 1805.1529 -7541.2733 302.6972 -9346.4262 -7560.7865 299.5675 -148.7147 -19.3968 31001.8594 -145.6247 -48.1889
ENERGY: 1200000 0.9260 8.3120 1.7844 0.0000 -10951.5708 1539.2542 0.0000 0.0000 1784.7444 -7616.5498 299.2750 -9401.2942 -7572.0587 299.8924 772.6190 845.9077 30346.0193 -73.5213 22.4768
ENERGY: 1500000 0.8857 6.4477 2.5765 0.0000 -10826.7189 1471.1200 0.0000 0.0000 1788.4533 -7557.2357 299.8969 -9345.6891 -7572.4731 300.2553 -13.9170 22.6038 31090.4801 -79.8106 10.0308
TCL: Running FEP window   7: Lambda1 0.3    Lambda2 0.35   [dLambda 0.04999999999999999]
TCL: Setting parameter firsttimestep to 0
TCL: Setting parameter alchLambda to 0.3
Info: NONBONDED TABLE R-SQUARED SPACING: 0.0625
Info: NONBONDED TABLE SIZE: 705 POINTS
TCL: Setting parameter alchLambda2 to 0.35
Info: NONBONDED TABLE R-SQUARED SPACING: 0.0625
Info: NONBONDED TABLE SIZE: 705 POINTS
TCL: Running for 1500000 steps
ETITLE: TS BOND ANGLE DIHED IMPRP ELECT VDW BOUNDARY MISC KINETIC TOTAL TEMP POTENTIAL TOTALAVG TEMPAVG PRESSURE GPRESSURE VOLUME PRESSAVG GPRESSAVG
ENERGY: 0 0.8857 6.4477 2.5765 0.0000 -10826.7196 1471.2637 0.0000 0.0000 1787.6027 -7557.9433 299.7543 -9345.5460 -7557.9433 299.7543 -59.9426 28.9325 31090.4801 -59.9426 28.9325
ENERGY: 300000 1.6388 5.6767 1.3632 0.0000 -10960.8269 1610.8629 0.0000 0.0000 1777.3253 -7563.9599 298.0309 -9341.2853 -7578.1227 300.1447 1266.9803 1364.5043 30410.5640 267.8272 366.9946
ENERGY: 600000 3.7894 11.9863 3.3115 0.0000 -11025.5994 1584.3536 0.0000 0.0000 1775.9235 -7646.2351 297.7958 -9422.1586 -7585.5779 299.6273 629.9967 720.1183 30637.4702 149.3336 230.9830
ENERGY: 900000 3.6697 5.2441 1.7237 0.0000 -11058.2668 1609.4746 0.0000 0.0000 1801.1129 -7637.0418 302.0197 -9438.1547 -7590.9218 300.3987 1095.2260 1193.5402 29992.4621 293.5970 369.1027
ENERGY: 1200000 2.2528 10.2498 2.6337 0.0000 -10833.2933 1497.2183 0.0000 0.0000 1789.6637 -7531.2748 300.0999 -9320.9386 -7577.8993 301.5051 438.3252 502.4540 30549.3445 225.0242 300.9032
ENERGY: 1500000 0.0832 9.9614 2.4847 0.0000 -10959.1565 1561.5366 0.0000 0.0000 1855.0367 -7530.0539 311.0620 -9385.0906 -7568.8843 302.9150 829.9151 855.4353 30756.0713 150.5964 217.3415
TCL: Running FEP window   8: Lambda1 0.35   Lambda2 0.39999999999999997 [dLambda 0.04999999999999999]
TCL: Setting parameter firsttimestep to 0
TCL: Setting parameter alchLambda to 0.35
Info: NONBONDED TABLE R-SQUARED SPACING: 0.0625
Info: NONBONDED TABLE SIZE: 705 POINTS
TCL: Setting parameter alchLambda2 to 0.39999999999999997
Info: NONBONDED TABLE R-SQUARED SPACING: 0.0625
Info: NONBONDED TABLE SIZE: 705 POINTS
TCL: Running for 1500000 steps
ETITLE: TS BOND ANGLE DIHED IMPRP ELECT VDW BOUNDARY MISC KINETIC TOTAL TEMP POTENTIAL TOTALAVG TEMPAVG PRESSURE GPRESSURE VOLUME PRESSAVG GPRESSAVG
ENERGY: 0 0.0832 9.9614 2.4847 0.0000 -10959.1558 1561.2668 0.0000 0.0000 1854.1435 -7531.2161 310.9122 -9385.3596 -7531.2161 310.9122 771.6001 856.0969 30756.0713 771.6001 856.0969
ENERGY: 300000 4.1692 3.7874 2.0390 0.0000 -10832.0961 1448.4748 0.0000 0.0000 1820.5909 -7553.0346 305.2859 -9373.6256 -7555.3990 303.9679 70.8257 88.2967 30625.5910 351.5689 426.5314
ENERGY: 600000 2.9890 9.0716 1.9733 0.0000 -10879.5530 1475.5541 0.0000 0.0000 1808.4135 -7581.5515 303.2439 -9389.9650 -7559.7898 304.6057 -48.3127 7.6450 31062.5350 174.5728 253.8717
ENERGY: 900000 0.3484 11.7273 1.5797 0.0000 -10894.3705 1490.9609 0.0000 0.0000 1795.0885 -7594.6658 301.0095 -9389.7542 -7559.5028 304.1141 394.0987 434.0637 30324.0462 136.4473 209.6708
ENERGY: 1200000 2.2014 10.4278 1.6295 0.0000 -10769.9339 1412.3162 0.0000 0.0000 1844.7061 -7498.6529 309.3297 -9343.3590 -7570.3614 302.7664 -128.7241 -2.1449 30357.3257 72.7323 157.4733
ENERGY: 1500000 0.9239 6.8149 3.8060 0.0000 -10873.2521 1515.4778 0.0000 0.0000 1793.0507 -7553.1788 300.6678 -9346.2295 -7571.0394 302.8549 497.4083 568.0658 30759.9492 140.0850 219.0683
TCL: Running FEP window   9: Lambda1 0.39999999999999997 Lambda2 0.44999999999999996 [dLambda 0.04999999999999999]
TCL: Setting parameter firsttimestep to 0
TCL: Setting parameter alchLambda to 0.39999999999999997
Info: NONBONDED TABLE R-SQUARED SPACING: 0.0625
Info: NONBONDED TABLE SIZE: 705 POINTS
TCL: Setting parameter alchLambda2 to 0.44999999999999996
Info: NONBONDED TABLE R-SQUARED SPACING: 0.0625
Info: NONBONDED TABLE SIZE: 705 POINTS
TCL: Running for 1500000 steps
ETITLE: TS BOND ANGLE DIHED IMPRP ELECT VDW BOUNDARY MISC KINETIC TOTAL TEMP POTENTIAL TOTALAVG TEMPAVG PRESSURE GPRESSURE VOLUME PRESSAVG GPRESSAVG
ENERGY: 0 0.9239 6.8149 3.8060 0.0000 -10873.2511 1515.5136 0.0000 0.0000 1792.1382 -7554.0546 300.5148 -9346.1928 -7554.0546 300.5148 496.0014 573.9662 30759.9492 496.0014 573.9662
ENERGY: 300000 1.1504 6.8516 1.8564 0.0000 -10828.8763 1521.5270 0.0000 0.0000 1805.8412 -7491.6497 302.8126 -9297.4909 -7583.2570 299.8613 574.7373 613.2406 30775.4645 339.3580 378.2288
ENERGY: 600000 1.6312 6.5316 5.4086 0.0000 -10741.3372 1419.2631 0.0000 0.0000 1828.9907 -7479.5120 306.6944 -9308.5027 -7579.2839 300.0697 -281.0679 -201.0502 30954.6205 -37.3397 14.4799
ENERGY: 900000 0.1121 8.3202 3.3388 0.0000 -10884.0382 1497.1657 0.0000 0.0000 1742.1719 -7632.9296 292.1362 -9375.1015 -7591.7677 299.9896 324.4029 416.4389 30551.5071 -77.7099 -28.3695
ENERGY: 1200000 1.9748 7.8045 2.0609 0.0000 -10971.6615 1518.0925 0.0000 0.0000 1849.7894 -7591.9393 310.1821 -9441.7288 -7606.8304 299.5234 294.4190 321.3782 30755.7146 -60.1026 -11.1286
ENERGY: 1500000 3.2292 8.1738 1.7525 0.0000 -10758.6855 1425.5903 0.0000 0.0000 1781.2771 -7538.6626 298.6936 -9319.9397 -7588.4255 299.5721 -54.4101 0.6308 30793.8354 -65.9612 -8.8006
TCL: Running FEP window  10: Lambda1 0.44999999999999996 Lambda2 0.49999999999999994 [dLambda 0.04999999999999999]
TCL: Setting parameter firsttimestep to 0
TCL: Setting parameter alchLambda to 0.44999999999999996
Info: NONBONDED TABLE R-SQUARED SPACING: 0.0625
Info: NONBONDED TABLE SIZE: 705 POINTS
TCL: Setting parameter alchLambda2 to 0.49999999999999994
Info: NONBONDED TABLE R-SQUARED SPACING: 0.0625
Info: NONBONDED TABLE SIZE: 705 POINTS
TCL: Running for 1500000 steps
ETITLE: TS BOND ANGLE DIHED IMPRP ELECT VDW BOUNDARY MISC KINETIC TOTAL TEMP POTENTIAL TOTALAVG TEMPAVG PRESSURE GPRESSURE VOLUME PRESSAVG GPRESSAVG
ENERGY: 0 3.2292 8.1738 1.7525 0.0000 -10758.6855 1425.7866 0.0000 0.0000 1780.3513 -7539.3922 298.5383 -9319.7435 -7539.3922 298.5383 -76.2662 5.4676 30793.8354 -76.2662 5.4676
ENERGY: 300000 0.4166 11.7032 3.1269 0.0000 -10916.6812 1436.1671 0.0000 0.0000 1788.8336 -7676.4338 299.9607 -9465.2674 -7569.0494 303.2221 -413.3425 -296.5358 30601.7329 -134.2511 -35.6957
ENERGY: 600000 1.0805 10.4494 2.6233 0.0000 -10990.9532 1512.9480 0.0000 0.0000 1784.4004 -7679.4516 299.2173 -9463.8520 -7562.8438 303.1572 449.2608 539.0246 30123.5327 -146.7330 -55.2035
ENERGY: 900000 0.5721 13.5156 2.6363 0.0000 -10788.6338 1414.7890 0.0000 0.0000 1725.7338 -7631.3870 289.3798 -9357.1208 -7568.3120 301.1195 -392.2744 -389.0034 30812.4757 -222.6845 -142.1612
ENERGY: 1200000 3.1582 9.0834 2.4996 0.0000 -10834.1045 1471.6549 0.0000 0.0000 1796.9522 -7550.7562 301.3221 -9347.7085 -7556.7791 301.9268 -180.1458 -116.4420 31171.2554 -229.0776 -145.5097
ENERGY: 1500000 1.8846 14.2087 2.4199 0.0000 -10795.7608 1429.4741 0.0000 0.0000 1743.6682 -7604.1053 292.3871 -9347.7735 -7563.6014 301.6964 -308.3513 -232.3004 31019.6036 -268.1438 -188.1578
TCL: Running FEP window  11: Lambda1 0.49999999999999994 Lambda2 0.5499999999999999 [dLambda 0.04999999999999999]
TCL: Setting parameter firsttimestep to 0
TCL: Setting parameter alchLambda to 0.49999999999999994
Info: NONBONDED TABLE R-SQUARED SPACING: 0.0625
Info: NONBONDED TABLE SIZE: 705 POINTS
TCL: Setting parameter alchLambda2 to 0.5499999999999999
Info: NONBONDED TABLE R-SQUARED SPACING: 0.0625
Info: NONBONDED TABLE SIZE: 705 POINTS
TCL: Running for 1500000 steps
ETITLE: TS BOND ANGLE DIHED IMPRP ELECT VDW BOUNDARY MISC KINETIC TOTAL TEMP POTENTIAL TOTALAVG TEMPAVG PRESSURE GPRESSURE VOLUME PRESSAVG GPRESSAVG
ENERGY: 0 1.8846 14.2087 2.4199 0.0000 -10795.7630 1429.0164 0.0000 0.0000 1742.7533 -7605.4801 292.2337 -9348.2334 -7605.4801 292.2337 -318.2605 -231.7857 31019.6036 -318.2605 -231.7857
ENERGY: 300000 2.9519 8.9984 4.0324 0.0000 -10958.9705 1500.5827 0.0000 0.0000 1785.9947 -7656.4104 299.4846 -9442.4051 -7603.3941 300.7920 0.9283 86.2583 30724.9278 -130.2688 -4.5058
ENERGY: 600000 1.7474 5.1600 2.0891 0.0000 -10872.3871 1451.5937 0.0000 0.0000 1807.4007 -7604.3963 303.0741 -9411.7969 -7603.8142 301.1120 -240.5379 -214.7690 30819.5793 -77.2035 5.7180
ENERGY: 900000 2.3396 5.8074 2.6217 0.0000 -10783.8433 1441.8565 0.0000 0.0000 1732.5549 -7598.6632 290.5236 -9331.2181 -7595.1973 299.9384 -305.9514 -246.8501 30888.0341 -106.6801 -31.8538
ENERGY: 1200000 4.3892 10.4304 3.8328 0.0000 -10777.2547 1420.9965 0.0000 0.0000 1801.2966 -7536.3091 302.0505 -9337.6057 -7578.8132 299.5623 -231.1937 -121.8330 30529.3183 -72.5533 1.3676
ENERGY: 1500000 1.6537 8.9549 2.5685 0.0000 -10956.2417 1501.1272 0.0000 0.0000 1748.8416 -7693.0958 293.2546 -9441.9374 -7588.2119 298.9891 499.6443 533.4016 30233.1088 -78.4886 -8.5204
TCL: Running FEP window  12: Lambda1 0.5499999999999999 Lambda2 0.6    [dLambda 0.050000000000000044]
TCL: Setting parameter firsttimestep to 0
TCL: Setting parameter alchLambda to 0.5499999999999999
Info: NONBONDED TABLE R-SQUARED SPACING: 0.0625
Info: NONBONDED TABLE SIZE: 705 POINTS
TCL: Setting parameter alchLambda2 to 0.6
Info: NONBONDED TABLE R-SQUARED SPACING: 0.0625
Info: NONBONDED TABLE SIZE: 705 POINTS
TCL: Running for 1500000 steps
ETITLE: TS BOND ANGLE DIHED IMPRP ELECT VDW BOUNDARY MISC KINETIC TOTAL TEMP POTENTIAL TOTALAVG TEMPAVG PRESSURE GPRESSURE VOLUME PRESSAVG GPRESSAVG
ENERGY: 0 1.6537 8.9549 2.5685 0.0000 -10956.4011 1501.5799 0.0000 0.0000 1747.9169 -7693.7272 293.0996 -9441.6441 -7693.7272 293.0996 454.6086 544.2200 30233.1088 454.6086 544.2200
ENERGY: 300000 1.8216 7.2468 2.1673 0.0000 -10827.2990 1442.9796 0.0000 0.0000 1834.9012 -7538.1826 307.6855 -9373.0838 -7617.5420 300.6551 -17.9966 71.6201 30620.7011 -59.1857 34.3928
ENERGY: 600000 1.7015 6.2222 2.5577 0.0000 -10809.0595 1409.6976 0.0000 0.0000 1802.3113 -7586.5691 302.2207 -9388.8804 -7596.5649 299.3129 -532.9046 -452.6051 30846.9148 5.9276 92.0912
ENERGY: 900000 1.3325 6.9669 2.5874 0.0000 -10812.2851 1433.5671 0.0000 0.0000 1797.8500 -7569.9812 301.4726 -9367.8312 -7601.3623 297.9613 -359.8720 -319.4235 31252.5914 -61.7086 12.6991
ENERGY: 1200000 1.0183 8.9824 2.6426 0.0000 -10783.6586 1389.8460 0.0000 0.0000 1776.1898 -7604.9796 297.8405 -9381.1694 -7604.3736 297.9309 -743.4099 -675.9040 31220.0694 -57.2330 14.1697
ENERGY: 1500000 2.7817 14.2588 1.7794 0.0000 -10812.6817 1449.3732 0.0000 0.0000 1786.4201 -7558.0686 299.5560 -9344.4887 -7603.6336 297.9257 219.9907 239.0486 30724.9145 -0.6057 68.3975
TCL: Running FEP window  13: Lambda1 0.6    Lambda2 0.65   [dLambda 0.050000000000000044]
TCL: Setting parameter firsttimestep to 0
TCL: Setting parameter alchLambda to 0.6
Info: NONBONDED TABLE R-SQUARED SPACING: 0.0625
Info: NONBONDED TABLE SIZE: 705 POINTS
TCL: Setting parameter alchLambda2 to 0.65
Info: NONBONDED TABLE R-SQUARED SPACING: 0.0625
Info: NONBONDED TABLE SIZE: 705 POINTS
TCL: Running for 1500000 steps
ETITLE: TS BOND ANGLE DIHED IMPRP ELECT VDW BOUNDARY MISC KINETIC TOTAL TEMP POTENTIAL TOTALAVG TEMPAVG PRESSURE GPRESSURE VOLUME PRESSAVG GPRESSAVG
ENERGY: 0 2.7817 14.2588 1.7794 0.0000 -10812.7017 1449.1481 0.0000 0.0000 1785.5222 -7559.2115 299.4054 -9344.7337 -7559.2115 299.4054 163.8752 243.4503 30724.9145 163.8752 243.4503
ENERGY: 300000 2.2596 12.5718 2.8582 0.0000 -10872.2070 1514.9951 0.0000 0.0000 1814.0661 -7525.4562 304.1918 -9339.5223 -7521.0837 303.2229 562.1073 578.6045 30851.3689 264.9459 321.3344
ENERGY: 600000 3.1514 5.0845 4.4229 0.0000 -10778.4255 1431.3670 0.0000 0.0000 1793.3380 -7541.0616 300.7160 -9334.3997 -7550.8354 300.7262 -192.8930 -122.1249 30680.3251 210.4220 284.6081
ENERGY: 900000 1.6009 8.1632 2.2350 0.0000 -10770.5658 1432.3386 0.0000 0.0000 1834.2265 -7492.0015 307.5724 -9326.2281 -7556.5291 301.7040 -216.2279 -167.0917 30942.1468 92.6176 170.7690
ENERGY: 1200000 2.7055 7.6298 1.8494 0.0000 -10770.0769 1369.4462 0.0000 0.0000 1778.6187 -7609.8273 298.2478 -9388.4460 -7560.3865 301.3214 -882.0756 -846.9027 31202.8820 -32.9407 33.8817
ENERGY: 1500000 2.0958 8.5601 2.0751 0.0000 -10868.9906 1524.4186 0.0000 0.0000 1799.3877 -7532.4534 301.7304 -9331.8411 -7564.4339 301.3529 370.9958 404.9961 31159.1722 32.4484 101.9340
TCL: Running FEP window  14: Lambda1 0.65   Lambda2 0.7000000000000001 [dLambda 0.050000000000000044]
TCL: Setting parameter firsttimestep to 0
TCL: Setting parameter alchLambda to 0.65
Info: NONBONDED TABLE R-SQUARED SPACING: 0.0625
Info: NONBONDED TABLE SIZE: 705 POINTS
TCL: Setting parameter alchLambda2 to 0.7000000000000001
Info: NONBONDED TABLE R-SQUARED SPACING: 0.0625
Info: NONBONDED TABLE SIZE: 705 POINTS
TCL: Running for 1500000 steps
ETITLE: TS BOND ANGLE DIHED IMPRP ELECT VDW BOUNDARY MISC KINETIC TOTAL TEMP POTENTIAL TOTALAVG TEMPAVG PRESSURE GPRESSURE VOLUME PRESSAVG GPRESSAVG
ENERGY: 0 2.0958 8.5601 2.0751 0.0000 -10868.8402 1526.3338 0.0000 0.0000 1798.5030 -7531.2725 301.5821 -9329.7754 -7531.2725 301.5821 352.0081 435.3470 31159.1722 352.0081 435.3470
ENERGY: 300000 2.3396 12.1466 3.7423 0.0000 -10813.3583 1390.0462 0.0000 0.0000 1796.7585 -7608.3251 301.2896 -9405.0837 -7596.0682 300.3346 -583.5054 -483.1893 30555.1960 -195.4226 -145.4482
ENERGY: 600000 1.2334 9.7273 2.3802 0.0000 -10807.9095 1431.9121 0.0000 0.0000 1788.6570 -7573.9995 299.9311 -9362.6566 -7557.8809 302.8047 -42.0425 59.9291 30330.3196 -286.3899 -218.7221
ENERGY: 900000 1.3825 5.8383 4.2770 0.0000 -10852.4330 1463.1091 0.0000 0.0000 1789.9625 -7587.8636 300.1500 -9377.8261 -7565.3047 302.6074 133.7216 170.5871 30479.8089 -139.5260 -70.9438
ENERGY: 1200000 1.7888 6.7641 1.7319 0.0000 -10819.4648 1420.1495 0.0000 0.0000 1797.2877 -7591.7429 301.3783 -9389.0306 -7559.3333 302.4456 -310.0563 -197.1637 30668.7736 -207.3353 -140.9705
ENERGY: 1500000 0.8925 10.6424 4.8460 0.0000 -10685.4555 1372.7913 0.0000 0.0000 1751.9015 -7544.3817 293.7677 -9296.2832 -7557.8727 302.0213 -366.6582 -327.4616 30665.8181 -171.1602 -107.6695
TCL: Running FEP window  15: Lambda1 0.7000000000000001 Lambda2 0.7500000000000001 [dLambda 0.050000000000000044]
TCL: Setting parameter firsttimestep to 0
TCL: Setting parameter alchLambda to 0.7000000000000001
Info: NONBONDED TABLE R-SQUARED SPACING: 0.0625
Info: NONBONDED TABLE SIZE: 705 POINTS
TCL: Setting parameter alchLambda2 to 0.7500000000000001
Info: NONBONDED TABLE R-SQUARED SPACING: 0.0625
Info: NONBONDED TABLE SIZE: 705 POINTS
TCL: Running for 1500000 steps
ETITLE: TS BOND ANGLE DIHED IMPRP ELECT VDW BOUNDARY MISC KINETIC TOTAL TEMP POTENTIAL TOTALAVG TEMPAVG PRESSURE GPRESSURE VOLUME PRESSAVG GPRESSAVG
ENERGY: 0 0.8925 10.6424 4.8460 0.0000 -10686.0098 1373.4180 0.0000 0.0000 1750.9961 -7545.2148 293.6159 -9296.2109 -7545.2148 293.6159 -398.7348 -312.8092 30665.8181 -398.7348 -312.8092
ENERGY: 300000 0.8969 5.2234 2.2821 0.0000 -10831.5406 1464.7567 0.0000 0.0000 1804.1070 -7554.2745 302.5218 -9358.3815 -7530.4356 301.4657 158.4257 179.8754 30759.3677 59.9239 131.6084
ENERGY: 600000 1.2078 9.3445 2.0077 0.0000 -10651.1865 1326.2290 0.0000 0.0000 1799.8140 -7512.5835 301.8019 -9312.3975 -7553.4035 301.1426 -760.4047 -728.6737 30887.9349 47.1884 129.0815
ENERGY: 900000 2.4619 7.6216 1.4705 0.0000 -10803.0157 1414.0386 0.0000 0.0000 1784.1616 -7593.2616 299.1773 -9377.4232 -7563.9466 300.4491 -289.0455 -233.8042 30810.0361 16.0074 99.7821
ENERGY: 1200000 0.7482 8.5720 2.4005 0.0000 -10772.0079 1392.2864 0.0000 0.0000 1757.9686 -7610.0321 294.7851 -9368.0007 -7566.1553 301.1931 -635.6420 -543.1442 31021.9803 -26.8354 50.3906
ENERGY: 1500000 1.0417 5.6154 1.8707 0.0000 -10904.3896 1488.0629 0.0000 0.0000 1815.5649 -7592.2341 304.4431 -9407.7989 -7567.1961 301.1907 98.9887 134.5541 30969.2185 -16.7154 53.4687
TCL: Running FEP window  16: Lambda1 0.7500000000000001 Lambda2 0.8000000000000002 [dLambda 0.050000000000000044]
TCL: Setting parameter firsttimestep to 0
TCL: Setting parameter alchLambda to 0.7500000000000001
Info: NONBONDED TABLE R-SQUARED SPACING: 0.0625
Info: NONBONDED TABLE SIZE: 705 POINTS
TCL: Setting parameter alchLambda2 to 0.8000000000000002
Info: NONBONDED TABLE R-SQUARED SPACING: 0.0625
Info: NONBONDED TABLE SIZE: 705 POINTS
TCL: Running for 1500000 steps
ETITLE: TS BOND ANGLE DIHED IMPRP ELECT VDW BOUNDARY MISC KINETIC TOTAL TEMP POTENTIAL TOTALAVG TEMPAVG PRESSURE GPRESSURE VOLUME PRESSAVG GPRESSAVG
ENERGY: 0 1.0417 5.6154 1.8707 0.0000 -10906.5369 1490.3481 0.0000 0.0000 1814.6730 -7592.9881 304.2936 -9407.6611 -7592.9881 304.2936 79.5795 164.3866 30969.2185 79.5795 164.3866
ENERGY: 300000 2.0680 6.2197 3.7124 0.0000 -10909.0007 1450.2509 0.0000 0.0000 1802.8578 -7643.8920 302.3123 -9446.7498 -7608.9558 299.5727 -137.4114 -130.9926 30754.5709 -49.0873 6.8514
ENERGY: 600000 3.2679 10.8069 3.9767 0.0000 -10932.2080 1511.4773 0.0000 0.0000 1783.2778 -7619.4015 299.0291 -9402.6793 -7593.1636 300.1404 561.6870 564.4864 30389.7946 245.0682 288.0993
ENERGY: 900000 0.8536 10.3849 2.2741 0.0000 -10786.4765 1413.4286 0.0000 0.0000 1809.0763 -7550.4589 303.3551 -9359.5352 -7594.5960 299.3460 -306.3992 -178.4964 30822.0365 174.6909 233.5368
ENERGY: 1200000 1.0030 4.6012 2.2297 0.0000 -10856.3318 1463.7047 0.0000 0.0000 1751.8063 -7632.9869 293.7518 -9384.7933 -7600.3298 299.1931 -2.5172 13.8506 30829.9252 76.8838 134.9663
ENERGY: 1500000 3.2681 11.7798 2.6013 0.0000 -10935.4003 1512.8801 0.0000 0.0000 1792.5357 -7612.3352 300.5815 -9404.8710 -7610.9024 297.9779 400.5968 531.2669 30458.4544 71.1893 138.1308
TCL: Running FEP window  17: Lambda1 0.8000000000000002 Lambda2 0.8500000000000002 [dLambda 0.050000000000000044]
TCL: Setting parameter firsttimestep to 0
TCL: Setting parameter alchLambda to 0.8000000000000002
Info: NONBONDED TABLE R-SQUARED SPACING: 0.0625
Info: NONBONDED TABLE SIZE: 705 POINTS
TCL: Setting parameter alchLambda2 to 0.8500000000000002
Info: NONBONDED TABLE R-SQUARED SPACING: 0.0625
Info: NONBONDED TABLE SIZE: 705 POINTS
TCL: Running for 1500000 steps
ETITLE: TS BOND ANGLE DIHED IMPRP ELECT VDW BOUNDARY MISC KINETIC TOTAL TEMP POTENTIAL TOTALAVG TEMPAVG PRESSURE GPRESSURE VOLUME PRESSAVG GPRESSAVG
ENERGY: 0 3.2681 11.7798 2.6013 0.0000 -10936.1689 1512.4191 0.0000 0.0000 1791.6221 -7614.4784 300.4283 -9406.1005 -7614.4784 300.4283 433.6134 532.2637 30458.4544 433.6134 532.2637
ENERGY: 300000 0.5812 6.6756 2.5821 0.0000 -10862.8915 1454.6566 0.0000 0.0000 1799.7995 -7598.5965 301.7995 -9398.3960 -7597.9592 301.5443 -143.4227 -108.2668 30888.7496 -293.6427 -230.5052
ENERGY: 600000 0.3983 5.4256 4.8215 0.0000 -10740.7899 1375.0299 0.0000 0.0000 1763.6739 -7591.4407 295.7418 -9355.1146 -7586.0497 300.4742 -550.2215 -451.7136 30590.7644 -177.0213 -107.7325
ENERGY: 900000 0.7821 8.0116 1.8489 0.0000 -10755.7165 1372.1539 0.0000 0.0000 1765.2323 -7607.6877 296.0031 -9372.9200 -7579.5958 300.4575 -728.3603 -640.4631 30957.5239 -221.0510 -158.5252
ENERGY: 1200000 1.4063 6.4577 2.6366 0.0000 -10849.7737 1459.1977 0.0000 0.0000 1768.3616 -7611.7138 296.5278 -9380.0754 -7583.7224 300.0367 -52.3952 21.1032 31039.8975 -153.9953 -88.7677
ENERGY: 1500000 2.1045 8.7043 2.6925 0.0000 -10776.4978 1377.0474 0.0000 0.0000 1761.8637 -7624.0852 295.4382 -9385.9489 -7593.7540 299.1775 -796.6698 -760.1001 31037.2818 -160.3771 -98.6955
TCL: Running FEP window  18: Lambda1 0.8500000000000002 Lambda2 0.9000000000000002 [dLambda 0.050000000000000044]
TCL: Setting parameter firsttimestep to 0
TCL: Setting parameter alchLambda to 0.8500000000000002
Info: NONBONDED TABLE R-SQUARED SPACING: 0.0625
Info: NONBONDED TABLE SIZE: 705 POINTS
TCL: Setting parameter alchLambda2 to 0.9000000000000002
Info: NONBONDED TABLE R-SQUARED SPACING: 0.0625
Info: NONBONDED TABLE SIZE: 705 POINTS
TCL: Running for 1500000 steps
ETITLE: TS BOND ANGLE DIHED IMPRP ELECT VDW BOUNDARY MISC KINETIC TOTAL TEMP POTENTIAL TOTALAVG TEMPAVG PRESSURE GPRESSURE VOLUME PRESSAVG GPRESSAVG
ENERGY: 0 2.1045 8.7043 2.6925 0.0000 -10777.7899 1377.1632 0.0000 0.0000 1761.0068 -7626.1185 295.2945 -9387.1253 -7626.1185 295.2945 -831.4662 -753.2636 31037.2818 -831.4662 -753.2636
ENERGY: 300000 1.0897 8.6345 1.7497 0.0000 -10867.4995 1455.8459 0.0000 0.0000 1745.3977 -7654.7819 292.6771 -9400.1797 -7585.1650 300.4692 279.8222 336.3770 30309.8229 -248.4680 -176.4427
ENERGY: 600000 0.8223 10.2265 3.7670 0.0000 -10785.1340 1392.3625 0.0000 0.0000 1776.5133 -7601.4424 297.8948 -9377.9557 -7572.7039 298.2865 -834.6184 -695.8195 31386.0440 -466.7143 -380.1984
ENERGY: 900000 2.2442 9.5802 1.3958 0.0000 -10994.5162 1562.0083 0.0000 0.0000 1784.6976 -7634.5903 299.2671 -9419.2878 -7587.1169 297.8203 674.5780 695.2291 30708.6193 -269.6349 -200.1992
ENERGY: 1200000 0.6820 6.6393 1.7158 0.0000 -10851.7052 1485.7051 0.0000 0.0000 1822.8589 -7534.1041 305.6662 -9356.9630 -7583.8129 297.7765 461.3732 533.0827 30650.0220 -228.9739 -155.8161
ENERGY: 1500000 0.8473 6.7346 2.2379 0.0000 -10904.6868 1459.4210 0.0000 0.0000 1804.0388 -7631.4073 302.5104 -9435.4460 -7576.9377 298.2449 -194.7243 -152.8548 30988.3571 -222.8010 -146.2737
TCL: Running FEP window  19: Lambda1 0.9000000000000002 Lambda2 0.9500000000000003 [dLambda 0.050000000000000044]
TCL: Setting parameter firsttimestep to 0
TCL: Setting parameter alchLambda to 0.9000000000000002
Info: NONBONDED TABLE R-SQUARED SPACING: 0.0625
Info: NONBONDED TABLE SIZE: 705 POINTS
TCL: Setting parameter alchLambda2 to 0.9500000000000003
Info: NONBONDED TABLE R-SQUARED SPACING: 0.0625
Info: NONBONDED TABLE SIZE: 705 POINTS
TCL: Running for 1500000 steps
ETITLE: TS BOND ANGLE DIHED IMPRP ELECT VDW BOUNDARY MISC KINETIC TOTAL TEMP POTENTIAL TOTALAVG TEMPAVG PRESSURE GPRESSURE VOLUME PRESSAVG GPRESSAVG
ENERGY: 0 0.8473 6.7346 2.2379 0.0000 -10905.7569 1459.4912 0.0000 0.0000 1803.1365 -7633.3093 302.3591 -9436.4458 -7633.3093 302.3591 -224.3760 -143.7188 30988.3571 -224.3760 -143.7188
ENERGY: 300000 1.3264 8.1419 1.9480 0.0000 -10876.0185 1427.9954 0.0000 0.0000 1784.5688 -7652.0380 299.2455 -9436.6068 -7606.1969 298.5639 -498.0483 -452.8463 31088.8625 -316.8646 -254.2328
ENERGY: 600000 0.4135 12.1144 2.6347 0.0000 -10768.7674 1409.5463 0.0000 0.0000 1821.9463 -7522.1122 305.5132 -9344.0585 -7591.5413 299.7137 -318.1158 -310.7493 31012.8147 -418.7789 -360.9593
ENERGY: 900000 0.8361 6.5562 1.7809 0.0000 -11095.3339 1570.1965 0.0000 0.0000 1832.0972 -7683.8671 307.2153 -9515.9643 -7598.7127 300.2711 840.3302 786.4918 30408.8608 -230.1075 -183.1939
ENERGY: 1200000 0.7315 7.8940 2.3932 0.0000 -10873.0417 1455.2667 0.0000 0.0000 1824.2516 -7582.5047 305.8998 -9406.7563 -7595.0109 300.4999 -77.5657 44.9691 30835.4900 -204.1952 -148.2937
ENERGY: 1500000 3.4754 9.6229 2.7511 0.0000 -10986.3531 1500.1489 0.0000 0.0000 1806.6485 -7663.7063 302.9480 -9470.3548 -7598.8527 301.0134 340.5462 407.0876 30358.0856 -104.3405 -49.7873
TCL: Running FEP window  20: Lambda1 0.9500000000000003 Lambda2 1.0    [dLambda 0.04999999999999971]
TCL: Setting parameter firsttimestep to 0
TCL: Setting parameter alchLambda to 0.9500000000000003
Info: NONBONDED TABLE R-SQUARED SPACING: 0.0625
Info: NONBONDED TABLE SIZE: 705 POINTS
TCL: Setting parameter alchLambda2 to 1.0
Info: NONBONDED TABLE R-SQUARED SPACING: 0.0625
Info: NONBONDED TABLE SIZE: 705 POINTS
TCL: Running for 1500000 steps
ETITLE: TS BOND ANGLE DIHED IMPRP ELECT VDW BOUNDARY MISC KINETIC TOTAL TEMP POTENTIAL TOTALAVG TEMPAVG PRESSURE GPRESSURE VOLUME PRESSAVG GPRESSAVG
ENERGY: 0 3.4754 9.6229 2.7511 0.0000 -10988.5338 1501.6374 0.0000 0.0000 1805.7186 -7665.3283 302.7920 -9471.0469 -7665.3283 302.7920 349.4655 428.8292 30358.0856 349.4655 428.8292
ENERGY: 300000 2.0904 5.7558 2.8334 0.0000 -10784.6901 1391.6949 0.0000 0.0000 1725.4536 -7656.8620 289.3328 -9382.3156 -7630.4381 296.9347 -734.3435 -656.7300 31006.2437 -212.2866 -110.7344
ENERGY: 600000 1.5627 8.6141 3.4036 0.0000 -10744.3357 1377.0109 0.0000 0.0000 1770.1445 -7583.5999 296.8268 -9353.7444 -7601.6057 298.2942 -518.5029 -447.0038 30595.1023 -240.2196 -163.5024
ENERGY: 900000 1.8500 8.7641 5.9014 0.0000 -10718.7507 1432.3946 0.0000 0.0000 1800.2775 -7469.5632 301.8797 -9269.8407 -7589.2645 299.2276 24.7813 96.9373 30923.0691 -140.7665 -56.1442
ENERGY: 1200000 0.6975 8.4861 1.6761 0.0000 -10902.7045 1420.7377 0.0000 0.0000 1792.8476 -7678.2595 300.6338 -9471.1071 -7596.0054 299.9158 -338.7791 -284.0363 30617.4331 -159.0173 -77.5393
ENERGY: 1500000 1.0182 10.3804 3.2308 0.0000 -10848.1931 1405.6375 0.0000 0.0000 1727.1928 -7700.7335 289.6244 -9427.9262 -7600.3493 299.3265 -374.6222 -338.1948 30703.8467 -181.2369 -106.7059
TCL: Exiting due to exit command.
