Info: SIMULATION PARAMETERS:
Info: TIMESTEP               2
Info: NUMBER OF STEPS        0
Info: STEPS PER CYCLE        10
Info: PERIODIC CELL BASIS 1  29.9921 0 0
Info: PERIODIC CELL BASIS 2  0 32.2323 0
Info: PERIODIC CELL BASIS 3  0 0 30.6471
Info: PERIODIC CELL CENTER   0 0 0
Info: WRAPPING WATERS AROUND PERIODIC BOUNDARIES ON OUTPUT.
Info: WRAPPING ALL CLUSTERS AROUND PERIODIC BOUNDARIES ON OUTPUT.
Info: FIRST LDB TIMESTEP     50
Info: LAST LDB TIMESTEP     -1
Info: HOM BACKGROUND SCALING 1
Info: PME BACKGROUND SCALING 1
Info: MIN ATOMS PER PATCH    40
Info: EMPTY PATCH LOAD       40 ATOMS
Info: VELOCITY FILE          mobley_9974966_equil.vel
Info: CENTER OF MASS MOVING INITIALLY? NO
Info: DIELECTRIC             1
Info: EXCLUDE                SCALED ONE-FOUR
Info: 1-4 ELECTROSTATICS SCALED BY 0.833333
Info: MODIFIED 1-4 VDW PARAMETERS WILL BE USED
Info: DCD FILENAME           mobley_9974966_prod.dcd
Info: DCD FREQUENCY          100000
Info: DCD FIRST STEP         100000
Info: DCD FILE WILL CONTAIN UNIT CELL DATA
Info: XST FILENAME           mobley_9974966_prod.xst
Info: XST FREQUENCY          100000
Info: NO VELOCITY DCD OUTPUT
Info: NO FORCE DCD OUTPUT
Info: OUTPUT FILENAME        mobley_9974966_prod
Info: BINARY OUTPUT FILES WILL BE USED
Info: RESTART FILENAME       mobley_9974966_prod.restart
Info: RESTART FREQUENCY      100000
Info: BINARY RESTART FILES WILL BE USED
Info: CUTOFF                 9
Info: PAIRLIST DISTANCE      11
Info: PAIRLIST SHRINK RATE   0.01
Info: PAIRLIST GROW RATE     0.01
Info: PAIRLIST TRIGGER       0.3
Info: PAIRLISTS PER CYCLE    2
Info: PAIRLISTS ENABLED
Info: MARGIN                 2
Info: HYDROGEN GROUP CUTOFF  2.5
Info: PATCH DIMENSION        15.5
Info: ENERGY OUTPUT STEPS    100000
Info: ENERGY EVALUATION STEPS    100000
Info: OUTPUT ENERGY PRECISION 4
Info: CROSSTERM ENERGY INCLUDED IN DIHEDRAL
Info: TIMING OUTPUT STEPS    1000000
Info: PRESSURE OUTPUT STEPS  100000
Info: ALCHEMICAL FEP ON
Info: FEP CURRENT LAMBDA VALUE     0
Info: FEP COMPARISON LAMBDA VALUE  0.05
Info: FEP INTRA-ALCHEMICAL NON-BONDED INTERACTIONS WILL BE RETAINED
Info: FEP INTRA-ALCHEMICAL BONDED INTERACTIONS WILL BE RETAINED
Info: FEP VDW SHIFTING COEFFICIENT 5
Info: FEP ELEC. ACTIVE FOR ANNIHILATED PARTICLES BETWEEN LAMBDA = 0 AND LAMBDA = 0.5
Info: FEP ELEC. ACTIVE FOR EXNIHILATED PARTICLES BETWEEN LAMBDA = 0.5 AND LAMBDA = 1
Info: FEP VDW ACTIVE FOR ANNIHILATED PARTICLES BETWEEN LAMBDA = 0 AND LAMBDA = 1
Info: FEP VDW ACTIVE FOR EXNIHILATED PARTICLES BETWEEN LAMBDA = 0 AND LAMBDA = 1
Info: FEP BOND ACTIVE FOR ANNIHILATED PARTICLES BETWEEN LAMBDA = 1 AND LAMBDA = 1
Info: FEP BOND ACTIVE FOR EXNIHILATED PARTICLES BETWEEN LAMBDA = 0 AND LAMBDA = 0
Info: LANGEVIN DYNAMICS ACTIVE
Info: LANGEVIN TEMPERATURE   300
Info: LANGEVIN USING BBK INTEGRATOR
Info: LANGEVIN DAMPING COEFFICIENT IS 1 INVERSE PS
Info: LANGEVIN DYNAMICS APPLIED TO HYDROGENS
Info: LANGEVIN PISTON PRESSURE CONTROL ACTIVE
Info:        TARGET PRESSURE IS 1.01325 BAR
Info:     OSCILLATION PERIOD IS 50 FS
Info:             DECAY TIME IS 25 FS
Info:     PISTON TEMPERATURE IS 300 K
Info:       PRESSURE CONTROL IS GROUP-BASED
Info:    INITIAL STRAIN RATE IS 0.000258261 0.000258261 0.000258261
Info:       CELL FLUCTUATION IS ISOTROPIC
Info: PARTICLE MESH EWALD (PME) ACTIVE
Info: PME TOLERANCE               1e-06
Info: PME EWALD COEFFICIENT       0.348832
Info: PME INTERPOLATION ORDER     4
Info: PME GRID DIMENSIONS         32 36 32
Info: PME MAXIMUM GRID SPACING    1
Info: PME CALCULATION WILL BE PERFORMED ON GPU
Info: FULL ELECTROSTATIC EVALUATION FREQUENCY      2
Info: USING VERLET I (r-RESPA) MTS SCHEME.
Info: C1 SPLITTING OF LONG RANGE ELECTROSTATICS
Info: PLACING ATOMS IN PATCHES BY HYDROGEN GROUPS
Info: RIGID BONDS TO HYDROGEN : ALL
Info:         ERROR TOLERANCE : 1e-08
Info:          MAX ITERATIONS : 100
Info: RIGID WATER USING SETTLE ALGORITHM
Info: RANDOM NUMBER SEED     1743875931
Info: USE HYDROGEN BONDS?    NO
Info: Using AMBER format force field!
Info: AMBER PARM FILE        mobley_9974966.prmtop
Info: COORDINATE PDB         mobley_9974966.pdb
Info: Exclusions will be read from PARM file!
Info: SCNB (VDW SCALING)     2
Info: USING ARITHMETIC MEAN TO COMBINE L-J SIGMA PARAMETERS
Info: BINARY COORDINATES     mobley_9974966_equil.coor
Info: SUMMARY OF PARAMETERS:
Info: 6 BONDS
Info: 7 ANGLES
Info:   7 HARMONIC
Info:   0 COSINE-BASED
Info: 3 DIHEDRAL
Info: 0 IMPROPER
Info: 0 CROSSTERM
Info: 0 VDW
Info: 21 VDW_PAIRS
Info: 0 NBTHOLE_PAIRS
Info: To read alchdata from file: mobley_9974966.pdb
Info: To read alchflag data from column: 5
Info: STRUCTURE SUMMARY:
Info: 2901 ATOMS
Info: 2900 BONDS
Info: 37 ANGLES
Info: 42 DIHEDRALS
Info: 0 IMPROPERS
Info: 0 CROSSTERMS
Info: 2979 EXCLUSIONS
Info: 2894 RIGID BONDS
Info: ALCH: 0 ATOMS TO DISAPPEAR IN FINAL STATE
Info: ALCH: 21 ATOMS TO APPEAR IN FINAL STATE
Info: 5809 DEGREES OF FREEDOM
Info: 967 HYDROGEN GROUPS
Info: 4 ATOMS IN LARGEST HYDROGEN GROUP
Info: 967 MIGRATION GROUPS
Info: 4 ATOMS IN LARGEST MIGRATION GROUP
Info: TOTAL MASS = 17413.6 amu
Info: TOTAL CHARGE = 0.000399999 e
Info: MASS DENSITY = 0.976021 g/cm^3
Info: ATOM DENSITY = 0.0979173 atoms/A^3
Info: ADDED 0 IMPLICIT EXCLUSIONS
Info: NONBONDED TABLE R-SQUARED SPACING: 0.0625
Info: NONBONDED TABLE SIZE: 705 POINTS
Info: REMOVING COM VELOCITY 0.0357845 0.201759 0.119529
Info: Use 3D box decompostion in PME FFT.
Info: Updated CUDA force table with 4096 elements.
Info: Updated CUDA LJ table with 6 x 6 elements.
Info: Found 24 unique exclusion lists needing 68 bytes
TCL: Running for 1500000 steps
ETITLE: TS BOND ANGLE DIHED IMPRP ELECT VDW BOUNDARY MISC KINETIC TOTAL TEMP POTENTIAL TOTALAVG TEMPAVG PRESSURE GPRESSURE VOLUME PRESSAVG GPRESSAVG
ENERGY: 0 0.5132 12.0986 1.8711 0.0000 -10594.9295 1479.1618 0.0000 0.0000 1743.9429 -7357.3419 302.1491 -9101.2847 -7357.3419 302.1491 411.4721 508.5443 29627.0503 411.4721 508.5443
ENERGY: 300000 0.7303 7.6691 2.2948 0.0000 -10536.9513 1420.2404 0.0000 0.0000 1729.1328 -7376.8840 299.5831 -9106.0168 -7342.5548 302.2797 282.7697 352.4008 29245.7604 -150.7440 -59.9792
ENERGY: 600000 1.5581 12.5747 0.6982 0.0000 -10582.0271 1453.9563 0.0000 0.0000 1680.6375 -7432.6023 291.1810 -9113.2398 -7344.5781 300.7682 286.6781 321.2562 29664.7612 66.8007 134.5953
ENERGY: 900000 3.8871 10.7488 3.3742 0.0000 -10534.1144 1424.1907 0.0000 0.0000 1700.1610 -7391.7526 294.5636 -9091.9136 -7346.2716 300.7174 -295.1028 -203.5954 29942.9851 -217.7368 -149.7888
ENERGY: 1200000 1.0839 8.1624 2.0340 0.0000 -10460.4445 1374.7709 0.0000 0.0000 1711.6778 -7362.7155 296.5590 -9074.3934 -7347.1473 302.0795 -167.8901 -146.3128 29516.7955 -149.7927 -78.4143
ENERGY: 1500000 2.1617 15.2375 1.6665 0.0000 -10524.6514 1440.7727 0.0000 0.0000 1715.3468 -7349.4663 297.1946 -9064.8131 -7351.2742 300.7627 57.1336 173.2092 29807.1911 -85.8096 -20.0670
TCL: Running FEP window   2: Lambda1 0.05   Lambda2 0.1    [dLambda 0.05  ]
TCL: Setting parameter firsttimestep to 0
TCL: Setting parameter alchLambda to 0.05
Info: NONBONDED TABLE R-SQUARED SPACING: 0.0625
Info: NONBONDED TABLE SIZE: 705 POINTS
TCL: Setting parameter alchLambda2 to 0.1
Info: NONBONDED TABLE R-SQUARED SPACING: 0.0625
Info: NONBONDED TABLE SIZE: 705 POINTS
TCL: Running for 1500000 steps
ETITLE: TS BOND ANGLE DIHED IMPRP ELECT VDW BOUNDARY MISC KINETIC TOTAL TEMP POTENTIAL TOTALAVG TEMPAVG PRESSURE GPRESSURE VOLUME PRESSAVG GPRESSAVG
ENERGY: 0 2.1617 15.2375 1.6665 0.0000 -10524.6517 1444.1994 0.0000 0.0000 1714.4614 -7346.9252 297.0412 -9061.3866 -7346.9252 297.0412 94.2871 179.3767 29807.1911 94.2871 179.3767
ENERGY: 300000 1.8213 9.6409 1.4302 0.0000 -10607.4215 1471.4949 0.0000 0.0000 1709.9954 -7413.0387 296.2675 -9123.0341 -7364.1381 298.6593 404.4061 485.7593 29197.0255 160.5045 238.1042
ENERGY: 600000 1.4084 6.6653 3.5856 0.0000 -10407.8321 1321.7580 0.0000 0.0000 1760.6423 -7313.7725 305.0424 -9074.4148 -7345.2519 301.3253 -638.1592 -556.0205 29628.1301 12.3347 76.5969
ENERGY: 900000 1.2741 13.5481 3.4171 0.0000 -10567.5967 1440.7948 0.0000 0.0000 1736.9662 -7371.5964 300.9403 -9108.5625 -7347.8757 300.9469 465.0817 475.8283 29177.3646 31.3715 85.1447
ENERGY: 1200000 3.0742 10.0962 2.0464 0.0000 -10405.4597 1338.7686 0.0000 0.0000 1798.0111 -7253.4632 311.5167 -9051.4743 -7333.9986 302.4926 -597.6846 -488.6109 30138.4851 13.3329 72.6028
ENERGY: 1500000 1.9204 5.5064 1.8897 0.0000 -10374.1817 1373.8517 0.0000 0.0000 1733.9509 -7257.0627 300.4179 -8991.0136 -7325.5309 302.4225 -265.6870 -151.7913 29796.4441 1.7975 66.9802
TCL: Running FEP window   3: Lambda1 0.1    Lambda2 0.15000000000000002 [dLambda 0.05000000000000002]
TCL: Setting parameter firsttimestep to 0
TCL: Setting parameter alchLambda to 0.1
Info: NONBONDED TABLE R-SQUARED SPACING: 0.0625
Info: NONBONDED TABLE SIZE: 705 POINTS
TCL: Setting parameter alchLambda2 to 0.15000000000000002
Info: NONBONDED TABLE R-SQUARED SPACING: 0.0625
Info: NONBONDED TABLE SIZE: 705 POINTS
TCL: Running for 1500000 steps
ETITLE: TS BOND ANGLE DIHED IMPRP ELECT VDW BOUNDARY MISC KINETIC TOTAL TEMP POTENTIAL TOTALAVG TEMPAVG PRESSURE GPRESSURE VOLUME PRESSAVG GPRESSAVG
ENERGY: 0 1.9204 5.5064 1.8897 0.0000 -10374.1815 1374.5385 0.0000 0.0000 1733.0657 -7257.2608 300.2645 -8990.3266 -7257.2608 300.2645 -237.3044 -149.9912 29796.4441 -237.3044 -149.9912
ENERGY: 300000 0.7896 7.0246 1.5197 0.0000 -10506.1575 1369.8833 0.0000 0.0000 1777.5817 -7349.3587 307.9772 -9126.9403 -7322.8373 304.3518 -611.4745 -552.8661 29895.6499 -278.6944 -219.4530
ENERGY: 600000 0.5051 10.8463 0.7935 0.0000 -10596.5844 1473.9841 0.0000 0.0000 1662.0061 -7448.4493 287.9530 -9110.4554 -7342.7170 301.1553 153.2619 244.2326 29765.8679 -187.5534 -128.3498
ENERGY: 900000 1.4715 6.7371 1.0458 0.0000 -10336.7027 1321.4535 0.0000 0.0000 1689.3697 -7316.6250 292.6939 -9005.9948 -7335.4095 299.7463 -831.6555 -731.2939 30331.1162 -357.1181 -291.0868
ENERGY: 1200000 2.1939 10.5093 1.1298 0.0000 -10390.4353 1346.4254 0.0000 0.0000 1728.4179 -7301.7591 299.4593 -9030.1770 -7331.5707 299.4074 -456.6834 -435.6869 29540.6039 -351.0913 -296.9005
ENERGY: 1500000 2.7204 15.7663 1.9729 0.0000 -10463.7349 1419.9542 0.0000 0.0000 1702.7891 -7320.5319 295.0189 -9023.3210 -7325.8218 300.1065 -51.6411 -7.3602 29835.4595 -331.8389 -275.9631
TCL: Running FEP window   4: Lambda1 0.15000000000000002 Lambda2 0.2    [dLambda 0.04999999999999999]
TCL: Setting parameter firsttimestep to 0
TCL: Setting parameter alchLambda to 0.15000000000000002
Info: NONBONDED TABLE R-SQUARED SPACING: 0.0625
Info: NONBONDED TABLE SIZE: 705 POINTS
TCL: Setting parameter alchLambda2 to 0.2
Info: NONBONDED TABLE R-SQUARED SPACING: 0.0625
Info: NONBONDED TABLE SIZE: 705 POINTS
TCL: Running for 1500000 steps
ETITLE: TS BOND ANGLE DIHED IMPRP ELECT VDW BOUNDARY MISC KINETIC TOTAL TEMP POTENTIAL TOTALAVG TEMPAVG PRESSURE GPRESSURE VOLUME PRESSAVG GPRESSAVG
ENERGY: 0 2.7204 15.7663 1.9729 0.0000 -10463.7345 1422.2097 0.0000 0.0000 1701.9152 -7319.1499 294.8675 -9021.0650 -7319.1499 294.8675 -93.5543 4.5555 29835.4595 -93.5543 4.5555
ENERGY: 300000 0.6768 7.0528 2.7992 0.0000 -10465.3765 1411.7649 0.0000 0.0000 1646.1319 -7396.9510 285.2027 -9043.0828 -7348.7675 295.5784 -327.3308 -220.8989 29969.3670 56.1204 146.7168
ENERGY: 600000 0.9102 15.8820 3.2250 0.0000 -10487.0016 1415.5077 0.0000 0.0000 1761.8300 -7289.6466 305.2481 -9051.4766 -7364.3062 297.1194 104.9349 115.7421 29756.9554 -131.3137 -61.4083
ENERGY: 900000 3.2029 10.8476 1.3020 0.0000 -10529.1579 1421.4794 0.0000 0.0000 1765.3421 -7326.9839 305.8566 -9092.3260 -7347.8713 298.3382 2.4359 58.2033 29846.6561 -67.6239 -2.0763
ENERGY: 1200000 1.8487 11.8596 3.2836 0.0000 -10619.3313 1507.6787 0.0000 0.0000 1712.9124 -7381.7483 296.7728 -9094.6607 -7338.7198 299.2663 876.7736 955.8799 29158.2170 -93.0574 -28.7355
ENERGY: 1500000 2.5227 12.4623 0.9926 0.0000 -10340.5420 1294.6720 0.0000 0.0000 1763.3044 -7266.5880 305.5036 -9029.8925 -7325.6153 299.8292 -614.4549 -616.2140 29455.7325 -128.0527 -65.8514
TCL: Running FEP window   5: Lambda1 0.2    Lambda2 0.25   [dLambda 0.04999999999999999]
TCL: Setting parameter firsttimestep to 0
TCL: Setting parameter alchLambda to 0.2
Info: NONBONDED TABLE R-SQUARED SPACING: 0.0625
Info: NONBONDED TABLE SIZE: 705 POINTS
TCL: Setting parameter alchLambda2 to 0.25
Info: NONBONDED TABLE R-SQUARED SPACING: 0.0625
Info: NONBONDED TABLE SIZE: 705 POINTS
TCL: Running for 1500000 steps
ETITLE: TS BOND ANGLE DIHED IMPRP ELECT VDW BOUNDARY MISC KINETIC TOTAL TEMP POTENTIAL TOTALAVG TEMPAVG PRESSURE GPRESSURE VOLUME PRESSAVG GPRESSAVG
ENERGY: 0 2.5227 12.4623 0.9926 0.0000 -10340.5421 1294.9109 0.0000 0.0000 1762.4501 -7267.2035 305.3556 -9029.6536 -7267.2035 305.3556 -699.6449 -613.4298 29455.7325 -699.6449 -613.4298
ENERGY: 300000 2.4957 8.3914 4.1745 0.0000 -10397.2723 1355.7160 0.0000 0.0000 1789.8719 -7236.6228 310.1066 -9026.4947 -7285.1067 305.1940 -248.1874 -208.4474 29740.4451 -320.6036 -250.3546
ENERGY: 600000 1.9330 9.3419 3.8422 0.0000 -10405.8949 1353.2210 0.0000 0.0000 1782.9861 -7254.5707 308.9135 -9037.5568 -7283.6099 303.9780 -442.1081 -329.4434 29738.6833 -239.1646 -183.1786
ENERGY: 900000 1.1075 7.9656 2.0701 0.0000 -10470.9617 1364.1022 0.0000 0.0000 1776.0813 -7319.6350 307.7173 -9095.7162 -7297.7768 302.0807 -560.6783 -470.0474 29734.0479 -320.5181 -266.9709
ENERGY: 1200000 2.2776 7.8103 1.3109 0.0000 -10519.5280 1450.9562 0.0000 0.0000 1738.7925 -7318.3805 301.2567 -9057.1730 -7302.6112 302.2229 539.6545 681.2988 29276.7668 -162.5702 -103.3125
ENERGY: 1500000 1.3392 9.4347 4.4660 0.0000 -10652.8810 1523.3270 0.0000 0.0000 1740.9963 -7373.3178 301.6386 -9114.3141 -7317.8225 300.9719 796.3918 767.2667 29781.0132 -114.0344 -59.3527
TCL: Running FEP window   6: Lambda1 0.25   Lambda2 0.3    [dLambda 0.04999999999999999]
TCL: Setting parameter firsttimestep to 0
TCL: Setting parameter alchLambda to 0.25
Info: NONBONDED TABLE R-SQUARED SPACING: 0.0625
Info: NONBONDED TABLE SIZE: 705 POINTS
TCL: Setting parameter alchLambda2 to 0.3
Info: NONBONDED TABLE R-SQUARED SPACING: 0.0625
Info: NONBONDED TABLE SIZE: 705 POINTS
TCL: Running for 1500000 steps
ETITLE: TS BOND ANGLE DIHED IMPRP ELECT VDW BOUNDARY MISC KINETIC TOTAL TEMP POTENTIAL TOTALAVG TEMPAVG PRESSURE GPRESSURE VOLUME PRESSAVG GPRESSAVG
ENERGY: 0 1.3392 9.4347 4.4660 0.0000 -10652.8808 1525.6925 0.0000 0.0000 1740.1554 -7371.7930 301.4929 -9111.9484 -7371.7930 301.4929 704.9094 781.4074 29781.0132 704.9094 781.4074
ENERGY: 300000 1.4899 9.7228 1.3909 0.0000 -10494.7140 1399.7995 0.0000 0.0000 1732.0873 -7350.2236 300.0950 -9082.3110 -7306.3621 304.3462 -203.0785 -196.5744 30065.3096 233.6950 272.2399
ENERGY: 600000 1.4425 10.0154 1.2292 0.0000 -10440.1932 1384.1074 0.0000 0.0000 1705.1480 -7338.2508 295.4276 -9043.3988 -7325.0373 301.8061 -410.2604 -325.7885 30141.1531 211.6330 254.1116
ENERGY: 900000 2.7211 7.2063 2.0923 0.0000 -10530.1557 1432.4668 0.0000 0.0000 1698.4714 -7387.1978 294.2708 -9085.6691 -7337.8231 300.1852 37.8411 126.3773 29865.4561 121.0409 166.4056
ENERGY: 1200000 1.8467 8.4200 0.9976 0.0000 -10634.8131 1468.0354 0.0000 0.0000 1717.1612 -7438.3522 297.5090 -9155.5134 -7347.3831 299.9384 -2.0110 73.5643 29999.2685 68.0517 118.5755
ENERGY: 1500000 1.4678 7.1646 4.0881 0.0000 -10591.8961 1504.3877 0.0000 0.0000 1748.7299 -7326.0581 302.9785 -9074.7880 -7354.3682 299.4251 761.8906 814.6878 29755.1029 167.0535 222.0445
TCL: Running FEP window   7: Lambda1 0.3    Lambda2 0.35   [dLambda 0.04999999999999999]
TCL: Setting parameter firsttimestep to 0
TCL: Setting parameter alchLambda to 0.3
Info: NONBONDED TABLE R-SQUARED SPACING: 0.0625
Info: NONBONDED TABLE SIZE: 705 POINTS
TCL: Setting parameter alchLambda2 to 0.35
Info: NONBONDED TABLE R-SQUARED SPACING: 0.0625
Info: NONBONDED TABLE SIZE: 705 POINTS
TCL: Running for 1500000 steps
ETITLE: TS BOND ANGLE DIHED IMPRP ELECT VDW BOUNDARY MISC KINETIC TOTAL TEMP POTENTIAL TOTALAVG TEMPAVG PRESSURE GPRESSURE VOLUME PRESSAVG GPRESSAVG
ENERGY: 0 1.4678 7.1645 4.0881 0.0000 -10591.8971 1504.7168 0.0000 0.0000 1747.8826 -7326.5773 302.8316 -9074.4599 -7326.5773 302.8316 727.1281 822.2046 29755.1029 727.1281 822.2046
ENERGY: 300000 1.5227 10.1590 3.6542 0.0000 -10476.5880 1404.7626 0.0000 0.0000 1738.4492 -7318.0404 301.1973 -9056.4896 -7332.2549 302.6446 -45.0353 72.6832 29789.3917 174.5456 247.6915
ENERGY: 600000 2.2145 10.4657 2.4950 0.0000 -10402.4728 1387.3033 0.0000 0.0000 1732.8039 -7267.1904 300.2192 -8999.9943 -7316.2755 301.9346 -64.5126 -33.5036 29893.0922 6.8800 72.2907
ENERGY: 900000 2.5802 9.5528 0.4468 0.0000 -10359.4543 1328.6109 0.0000 0.0000 1782.2422 -7236.0215 308.7847 -9018.2637 -7309.0923 301.5508 -620.8457 -558.5491 29980.8156 -81.3143 -13.0791
ENERGY: 1200000 1.8563 4.3471 1.3178 0.0000 -10451.8914 1391.8985 0.0000 0.0000 1742.3142 -7310.1574 301.8669 -9052.4716 -7305.9912 301.4406 -42.1150 20.6071 29663.5887 -79.9361 -18.8776
ENERGY: 1500000 1.3542 9.6509 1.7032 0.0000 -10684.0232 1505.1103 0.0000 0.0000 1742.5676 -7423.6369 301.9108 -9166.2045 -7318.4085 301.5137 546.7578 568.1655 29745.5173 -80.1356 -23.6432
TCL: Running FEP window   8: Lambda1 0.35   Lambda2 0.39999999999999997 [dLambda 0.04999999999999999]
TCL: Setting parameter firsttimestep to 0
TCL: Setting parameter alchLambda to 0.35
Info: NONBONDED TABLE R-SQUARED SPACING: 0.0625
Info: NONBONDED TABLE SIZE: 705 POINTS
TCL: Setting parameter alchLambda2 to 0.39999999999999997
Info: NONBONDED TABLE R-SQUARED SPACING: 0.0625
Info: NONBONDED TABLE SIZE: 705 POINTS
TCL: Running for 1500000 steps
ETITLE: TS BOND ANGLE DIHED IMPRP ELECT VDW BOUNDARY MISC KINETIC TOTAL TEMP POTENTIAL TOTALAVG TEMPAVG PRESSURE GPRESSURE VOLUME PRESSAVG GPRESSAVG
ENERGY: 0 1.3542 9.6509 1.7032 0.0000 -10684.0223 1505.5218 0.0000 0.0000 1741.6976 -7424.0944 301.7601 -9165.7921 -7424.0944 301.7601 514.5921 580.0613 29745.5173 514.5921 580.0613
ENERGY: 300000 2.2352 12.1920 0.6610 0.0000 -10445.6803 1327.2232 0.0000 0.0000 1786.2667 -7317.1022 309.4819 -9103.3688 -7371.9229 302.2112 -679.5779 -648.6647 29657.1095 231.3001 325.8353
ENERGY: 600000 0.9975 13.7441 1.4734 0.0000 -10720.4494 1507.0354 0.0000 0.0000 1765.2989 -7431.9001 305.8491 -9197.1990 -7376.3716 302.1613 446.2220 501.6262 29522.2096 135.9539 212.4812
ENERGY: 900000 0.5406 9.0410 5.0713 0.0000 -10484.7227 1429.3407 0.0000 0.0000 1756.8050 -7283.9241 304.3775 -9040.7291 -7354.7117 302.4398 100.0293 190.9826 29902.7620 120.3251 201.2193
ENERGY: 1200000 1.3710 10.4236 0.9797 0.0000 -10477.3575 1422.8122 0.0000 0.0000 1696.2245 -7345.5465 293.8816 -9041.7710 -7358.0545 300.8687 220.6415 269.9991 29671.7953 113.4281 189.8210
ENERGY: 1500000 0.8063 9.5228 4.3183 0.0000 -10477.8186 1380.3263 0.0000 0.0000 1713.2118 -7369.6331 296.8247 -9082.8449 -7357.0899 300.5805 -375.6881 -304.9186 29873.8298 87.3931 160.1864
TCL: Running FEP window   9: Lambda1 0.39999999999999997 Lambda2 0.44999999999999996 [dLambda 0.04999999999999999]
TCL: Setting parameter firsttimestep to 0
TCL: Setting parameter alchLambda to 0.39999999999999997
Info: NONBONDED TABLE R-SQUARED SPACING: 0.0625
Info: NONBONDED TABLE SIZE: 705 POINTS
TCL: Setting parameter alchLambda2 to 0.44999999999999996
Info: NONBONDED TABLE R-SQUARED SPACING: 0.0625
Info: NONBONDED TABLE SIZE: 705 POINTS
TCL: Running for 1500000 steps
ETITLE: TS BOND ANGLE DIHED IMPRP ELECT VDW BOUNDARY MISC KINETIC TOTAL TEMP POTENTIAL TOTALAVG TEMPAVG PRESSURE GPRESSURE VOLUME PRESSAVG GPRESSAVG
ENERGY: 0 0.8063 9.5228 4.3183 0.0000 -10477.8183 1380.1546 0.0000 0.0000 1712.3664 -7370.6500 296.6782 -9083.0164 -7370.6500 296.6782 -398.8108 -298.0588 29873.8298 -398.8108 -298.0588
ENERGY: 300000 0.5614 7.9483 1.2450 0.0000 -10444.2140 1405.3016 0.0000 0.0000 1679.0691 -7350.0885 290.9093 -9029.1576 -7373.5387 295.4573 176.2262 187.3686 29916.9039 -114.9812 -55.8535
ENERGY: 600000 1.9316 11.2222 2.9899 0.0000 -10423.8323 1381.6878 0.0000 0.0000 1749.7755 -7276.2252 303.1596 -9026.0007 -7355.5533 297.5810 46.0960 31.5748 29956.4786 177.6144 227.0700
ENERGY: 900000 1.1826 12.3336 3.5826 0.0000 -10566.6912 1436.3007 0.0000 0.0000 1701.1522 -7412.1395 294.7353 -9113.2917 -7353.0039 297.7810 187.3521 206.0746 29539.4365 125.9620 181.9756
ENERGY: 1200000 2.4600 8.9660 3.4531 0.0000 -10455.7789 1405.6793 0.0000 0.0000 1707.6839 -7327.5365 295.8670 -9035.2204 -7341.2969 297.8165 175.6593 156.1942 29320.0212 126.4598 173.6013
ENERGY: 1500000 0.5062 10.9648 0.9219 0.0000 -10396.1495 1357.4302 0.0000 0.0000 1712.7736 -7313.5528 296.7488 -9026.3265 -7339.6813 298.3438 -221.2442 -205.4343 29998.6785 68.1481 110.5276
TCL: Running FEP window  10: Lambda1 0.44999999999999996 Lambda2 0.49999999999999994 [dLambda 0.04999999999999999]
TCL: Setting parameter firsttimestep to 0
TCL: Setting parameter alchLambda to 0.44999999999999996
Info: NONBONDED TABLE R-SQUARED SPACING: 0.0625
Info: NONBONDED TABLE SIZE: 705 POINTS
TCL: Setting parameter alchLambda2 to 0.49999999999999994
Info: NONBONDED TABLE R-SQUARED SPACING: 0.0625
Info: NONBONDED TABLE SIZE: 705 POINTS
TCL: Running for 1500000 steps
ETITLE: TS BOND ANGLE DIHED IMPRP ELECT VDW BOUNDARY MISC KINETIC TOTAL TEMP POTENTIAL TOTALAVG TEMPAVG PRESSURE GPRESSURE VOLUME PRESSAVG GPRESSAVG
ENERGY: 0 0.5062 10.9648 0.9219 0.0000 -10396.1496 1358.0819 0.0000 0.0000 1711.9188 -7313.7559 296.6007 -9025.6747 -7313.7559 296.6007 -265.8249 -191.2148 29998.6785 -265.8249 -191.2148
ENERGY: 300000 2.4327 15.7675 1.4114 0.0000 -10455.0946 1359.0162 0.0000 0.0000 1784.6875 -7291.7793 309.2083 -9076.4668 -7314.3870 303.3126 -544.5468 -423.9090 29758.7179 -413.1537 -324.2133
ENERGY: 600000 3.7436 9.8977 2.2633 0.0000 -10460.8678 1452.5320 0.0000 0.0000 1743.4698 -7248.9613 302.0671 -8992.4312 -7312.5888 301.0232 252.5429 310.8599 30422.0710 -150.3426 -61.7466
ENERGY: 900000 2.5922 5.2575 2.1888 0.0000 -10393.7055 1327.0145 0.0000 0.0000 1750.5877 -7306.0647 303.3003 -9056.6524 -7308.6135 299.8206 -661.2012 -542.1461 29716.6015 -62.3800 32.8140
ENERGY: 1200000 1.3584 15.2323 1.8531 0.0000 -10545.0434 1462.2972 0.0000 0.0000 1724.0835 -7340.2190 298.7083 -9064.3024 -7319.2086 300.0837 449.1297 538.7632 29516.9896 -5.2127 89.1266
ENERGY: 1500000 0.9595 10.8369 2.5152 0.0000 -10379.6827 1316.2870 0.0000 0.0000 1645.9212 -7403.1627 285.1662 -9049.0840 -7325.4071 299.2705 -726.2800 -625.5630 29777.0533 -66.1638 24.3730
TCL: Running FEP window  11: Lambda1 0.49999999999999994 Lambda2 0.5499999999999999 [dLambda 0.04999999999999999]
TCL: Setting parameter firsttimestep to 0
TCL: Setting parameter alchLambda to 0.49999999999999994
Info: NONBONDED TABLE R-SQUARED SPACING: 0.0625
Info: NONBONDED TABLE SIZE: 705 POINTS
TCL: Setting parameter alchLambda2 to 0.5499999999999999
Info: NONBONDED TABLE R-SQUARED SPACING: 0.0625
Info: NONBONDED TABLE SIZE: 705 POINTS
TCL: Running for 1500000 steps
ETITLE: TS BOND ANGLE DIHED IMPRP ELECT VDW BOUNDARY MISC KINETIC TOTAL TEMP POTENTIAL TOTALAVG TEMPAVG PRESSURE GPRESSURE VOLUME PRESSAVG GPRESSAVG
ENERGY: 0 0.9596 10.8369 2.5152 0.0000 -10379.6845 1316.0151 0.0000 0.0000 1645.0311 -7404.3266 285.0120 -9049.3577 -7404.3266 285.0120 -708.3976 -620.7493 29777.0533 -708.3976 -620.7493
ENERGY: 300000 1.2141 5.8265 3.4248 0.0000 -10488.1181 1390.6108 0.0000 0.0000 1715.5651 -7371.4767 297.2325 -9087.0419 -7333.8949 298.3665 -178.7489 -40.4610 29693.5103 -411.5774 -334.1803
ENERGY: 600000 1.6585 10.0139 0.8203 0.0000 -10585.8789 1451.5650 0.0000 0.0000 1735.4990 -7386.3221 300.6861 -9121.8212 -7337.6315 299.2731 -14.6520 22.4428 30332.8437 -329.7499 -250.2622
ENERGY: 900000 1.3760 10.9602 3.9706 0.0000 -10340.1583 1250.6413 0.0000 0.0000 1751.7030 -7321.5072 303.4936 -9073.2102 -7331.5934 300.8922 -1238.5129 -1182.1508 29798.2227 -165.5776 -89.4583
ENERGY: 1200000 2.9909 9.6236 1.5581 0.0000 -10611.1467 1419.4116 0.0000 0.0000 1766.6646 -7410.8979 306.0857 -9177.5625 -7336.5952 301.8421 -518.2451 -433.5797 30048.3092 -151.3375 -72.8319
ENERGY: 1500000 0.7660 13.6310 2.5565 0.0000 -10421.0811 1402.2197 0.0000 0.0000 1699.7754 -7302.1326 294.4968 -9001.9079 -7335.1402 300.9618 163.1848 210.8637 29834.8230 -61.1947 12.9878
TCL: Running FEP window  12: Lambda1 0.5499999999999999 Lambda2 0.6    [dLambda 0.050000000000000044]
TCL: Setting parameter firsttimestep to 0
TCL: Setting parameter alchLambda to 0.5499999999999999
Info: NONBONDED TABLE R-SQUARED SPACING: 0.0625
Info: NONBONDED TABLE SIZE: 705 POINTS
TCL: Setting parameter alchLambda2 to 0.6
Info: NONBONDED TABLE R-SQUARED SPACING: 0.0625
Info: NONBONDED TABLE SIZE: 705 POINTS
TCL: Running for 1500000 steps
ETITLE: TS BOND ANGLE DIHED IMPRP ELECT VDW BOUNDARY MISC KINETIC TOTAL TEMP POTENTIAL TOTALAVG TEMPAVG PRESSURE GPRESSURE VOLUME PRESSAVG GPRESSAVG
ENERGY: 0 0.7660 13.6310 2.5565 0.0000 -10421.0137 1401.6755 0.0000 0.0000 1698.9161 -7303.4686 294.3479 -9002.3847 -7303.4686 294.3479 133.5056 213.5509 29834.8230 133.5056 213.5509
ENERGY: 300000 0.6624 7.6681 2.9382 0.0000 -10638.8056 1470.1765 0.0000 0.0000 1733.8415 -7423.5190 300.3989 -9157.3605 -7325.2525 300.8400 286.2583 336.7432 29531.5026 446.1655 516.3968
ENERGY: 600000 0.5946 11.2298 4.3084 0.0000 -10652.2262 1461.6435 0.0000 0.0000 1757.3079 -7417.1420 304.4646 -9174.4499 -7322.0625 302.3710 84.0889 140.5459 29887.2439 296.8914 360.8974
ENERGY: 900000 1.3113 10.5856 3.0161 0.0000 -10584.1261 1468.8108 0.0000 0.0000 1709.8503 -7390.5520 296.2423 -9100.4023 -7333.9530 300.2179 434.9175 598.7543 29376.9320 296.0983 379.6495
ENERGY: 1200000 0.5202 13.6423 3.1817 0.0000 -10461.4467 1441.8719 0.0000 0.0000 1691.9008 -7310.3297 293.1325 -9002.2305 -7340.3687 299.1317 389.0213 446.3668 29930.7083 252.1608 334.2914
ENERGY: 1500000 2.0505 7.1670 0.8127 0.0000 -10405.9354 1334.2725 0.0000 0.0000 1652.3897 -7409.2431 286.2869 -9061.6328 -7339.8564 298.3202 -730.4870 -723.0800 30114.3913 145.3462 225.7934
TCL: Running FEP window  13: Lambda1 0.6    Lambda2 0.65   [dLambda 0.050000000000000044]
TCL: Setting parameter firsttimestep to 0
TCL: Setting parameter alchLambda to 0.6
Info: NONBONDED TABLE R-SQUARED SPACING: 0.0625
Info: NONBONDED TABLE SIZE: 705 POINTS
TCL: Setting parameter alchLambda2 to 0.65
Info: NONBONDED TABLE R-SQUARED SPACING: 0.0625
Info: NONBONDED TABLE SIZE: 705 POINTS
TCL: Running for 1500000 steps
ETITLE: TS BOND ANGLE DIHED IMPRP ELECT VDW BOUNDARY MISC KINETIC TOTAL TEMP POTENTIAL TOTALAVG TEMPAVG PRESSURE GPRESSURE VOLUME PRESSAVG GPRESSAVG
ENERGY: 0 2.0505 7.1670 0.8127 0.0000 -10405.8114 1334.1428 0.0000 0.0000 1651.5424 -7410.0959 286.1401 -9061.6383 -7410.0959 286.1401 -789.5930 -714.6803 30114.3913 -789.5930 -714.6803
ENERGY: 300000 2.8383 8.9509 3.3003 0.0000 -10421.9542 1391.6437 0.0000 0.0000 1713.5493 -7301.6717 296.8832 -9015.2210 -7370.1587 292.6349 -60.4888 -14.7577 29760.4308 -419.6674 -386.9631
ENERGY: 600000 2.9269 8.7221 2.0528 0.0000 -10508.3612 1424.9840 0.0000 0.0000 1743.3112 -7326.3642 302.0396 -9069.6754 -7362.8597 293.6288 179.9537 246.6679 29748.1315 -194.2939 -143.5450
ENERGY: 900000 3.6662 11.6333 1.2560 0.0000 -10229.2542 1236.6032 0.0000 0.0000 1732.2055 -7243.8900 300.1155 -8976.0955 -7356.3518 293.7795 -1378.7404 -1294.2827 30470.4319 -251.1774 -197.1194
ENERGY: 1200000 2.1483 8.3380 1.1062 0.0000 -10510.8608 1425.6897 0.0000 0.0000 1680.9555 -7392.6230 291.2361 -9073.5785 -7355.0118 294.0864 6.9234 61.9651 29888.2478 -216.9193 -163.5041
ENERGY: 1500000 2.3896 9.6664 2.0758 0.0000 -10604.8639 1429.0697 0.0000 0.0000 1721.7983 -7439.8642 298.3124 -9161.6624 -7357.2558 294.9615 206.6080 240.1028 29304.8697 -158.4280 -103.8389
TCL: Running FEP window  14: Lambda1 0.65   Lambda2 0.7000000000000001 [dLambda 0.050000000000000044]
TCL: Setting parameter firsttimestep to 0
TCL: Setting parameter alchLambda to 0.65
Info: NONBONDED TABLE R-SQUARED SPACING: 0.0625
Info: NONBONDED TABLE SIZE: 705 POINTS
TCL: Setting parameter alchLambda2 to 0.7000000000000001
Info: NONBONDED TABLE R-SQUARED SPACING: 0.0625
Info: NONBONDED TABLE SIZE: 705 POINTS
TCL: Running for 1500000 steps
ETITLE: TS BOND ANGLE DIHED IMPRP ELECT VDW BOUNDARY MISC KINETIC TOTAL TEMP POTENTIAL TOTALAVG TEMPAVG PRESSURE GPRESSURE VOLUME PRESSAVG GPRESSAVG
ENERGY: 0 2.3896 9.6664 2.0758 0.0000 -10605.5913 1429.5841 0.0000 0.0000 1720.9000 -7440.9754 298.1568 -9161.8754 -7440.9754 298.1568 160.8881 251.6780 29304.8697 160.8881 251.6780
ENERGY: 300000 2.3892 11.0747 1.2267 0.0000 -10587.0336 1428.6338 0.0000 0.0000 1735.6164 -7408.0928 300.7065 -9143.7093 -7361.2028 299.8085 -113.2511 -19.7901 29686.6831 104.8802 201.2383
ENERGY: 600000 2.3545 8.9266 2.6558 0.0000 -10560.1345 1431.1157 0.0000 0.0000 1690.1559 -7424.9261 292.8301 -9115.0820 -7378.6235 296.4261 246.8376 329.6645 29646.1612 14.0330 96.1031
ENERGY: 900000 1.4868 11.4405 1.8364 0.0000 -10372.4696 1310.4092 0.0000 0.0000 1774.7005 -7272.5962 307.4780 -9047.2967 -7360.7136 297.5770 -502.2973 -469.4159 29673.5746 -166.4447 -95.1709
ENERGY: 1200000 0.7218 9.7697 2.3564 0.0000 -10399.8422 1350.0228 0.0000 0.0000 1693.3632 -7343.6085 293.3858 -9036.9716 -7355.7354 297.5674 -74.1658 -38.6315 29486.7997 -68.8727 -0.2324
ENERGY: 1500000 2.2765 10.4344 1.6750 0.0000 -10430.5585 1324.4947 0.0000 0.0000 1700.5489 -7391.1291 294.6308 -9091.6780 -7360.7877 296.9457 -698.3555 -650.0992 29683.7194 -78.6872 -11.9100
TCL: Running FEP window  15: Lambda1 0.7000000000000001 Lambda2 0.7500000000000001 [dLambda 0.050000000000000044]
TCL: Setting parameter firsttimestep to 0
TCL: Setting parameter alchLambda to 0.7000000000000001
Info: NONBONDED TABLE R-SQUARED SPACING: 0.0625
Info: NONBONDED TABLE SIZE: 705 POINTS
TCL: Setting parameter alchLambda2 to 0.7500000000000001
Info: NONBONDED TABLE R-SQUARED SPACING: 0.0625
Info: NONBONDED TABLE SIZE: 705 POINTS
TCL: Running for 1500000 steps
ETITLE: TS BOND ANGLE DIHED IMPRP ELECT VDW BOUNDARY MISC KINETIC TOTAL TEMP POTENTIAL TOTALAVG TEMPAVG PRESSURE GPRESSURE VOLUME PRESSAVG GPRESSAVG
ENERGY: 0 2.2765 10.4344 1.6750 0.0000 -10431.1238 1324.2190 0.0000 0.0000 1699.7018 -7392.8172 294.4840 -9092.5190 -7392.8172 294.4840 -733.9834 -643.4481 29683.7194 -733.9834 -643.4481
ENERGY: 300000 2.9225 8.9612 1.6800 0.0000 -10516.6316 1361.1665 0.0000 0.0000 1747.3609 -7394.5405 302.7413 -9141.9014 -7361.3159 302.1617 -566.0488 -534.9021 29890.3792 -117.5056 -35.6842
ENERGY: 600000 3.6556 10.4826 2.4782 0.0000 -10501.4547 1408.9300 0.0000 0.0000 1750.6617 -7325.2467 303.3131 -9075.9083 -7338.9326 301.8430 79.8060 87.9973 29519.0199 -17.4109 44.1915
ENERGY: 900000 1.5710 8.8759 1.6521 0.0000 -10514.3204 1413.7968 0.0000 0.0000 1762.0380 -7326.3867 305.2842 -9088.4246 -7332.8221 301.2861 -48.9647 39.4799 29921.9315 16.0687 75.7234
ENERGY: 1200000 1.6567 11.0899 3.5439 0.0000 -10450.9983 1386.5364 0.0000 0.0000 1758.1042 -7290.0672 304.6026 -9048.1714 -7344.4498 300.6375 1.3394 70.3409 29882.9445 -11.0502 49.2079
ENERGY: 1500000 3.2052 12.3014 2.7313 0.0000 -10410.3936 1362.1892 0.0000 0.0000 1712.1745 -7317.7921 296.6450 -9029.9666 -7349.6412 300.3549 -390.4786 -412.4049 30194.5639 46.6572 100.2419
TCL: Running FEP window  16: Lambda1 0.7500000000000001 Lambda2 0.8000000000000002 [dLambda 0.050000000000000044]
TCL: Setting parameter firsttimestep to 0
TCL: Setting parameter alchLambda to 0.7500000000000001
Info: NONBONDED TABLE R-SQUARED SPACING: 0.0625
Info: NONBONDED TABLE SIZE: 705 POINTS
TCL: Setting parameter alchLambda2 to 0.8000000000000002
Info: NONBONDED TABLE R-SQUARED SPACING: 0.0625
Info: NONBONDED TABLE SIZE: 705 POINTS
TCL: Running for 1500000 steps
ETITLE: TS BOND ANGLE DIHED IMPRP ELECT VDW BOUNDARY MISC KINETIC TOTAL TEMP POTENTIAL TOTALAVG TEMPAVG PRESSURE GPRESSURE VOLUME PRESSAVG GPRESSAVG
ENERGY: 0 3.2052 12.3014 2.7313 0.0000 -10410.3721 1362.4269 0.0000 0.0000 1711.3146 -7318.3927 296.4960 -9029.7073 -7318.3927 296.4960 -477.1715 -397.9346 30194.5639 -477.1715 -397.9346
ENERGY: 300000 4.0555 8.4343 3.0440 0.0000 -10461.7584 1381.3239 0.0000 0.0000 1728.4458 -7336.4549 299.4641 -9064.9008 -7306.2241 301.5189 -104.4073 -84.3072 29711.8057 -225.3086 -194.9724
ENERGY: 600000 3.2472 8.5514 6.9450 0.0000 -10474.7603 1335.3089 0.0000 0.0000 1830.4377 -7290.2700 317.1348 -9120.7077 -7316.5958 302.7089 -677.8724 -586.7862 29770.3761 -135.0826 -82.5773
ENERGY: 900000 1.1262 8.0586 2.3964 0.0000 -10368.1336 1368.7471 0.0000 0.0000 1775.0138 -7212.7915 307.5323 -8987.8053 -7310.7987 304.0339 -90.6750 -6.5600 29933.8893 -153.6578 -92.9752
ENERGY: 1200000 0.9632 10.8753 2.5603 0.0000 -10462.1904 1394.0623 0.0000 0.0000 1727.5134 -7326.2159 299.3026 -9053.7293 -7315.6808 302.7134 -217.1021 -168.3988 29968.4916 -128.5917 -77.1364
ENERGY: 1500000 1.7312 10.6345 4.5599 0.0000 -10502.3062 1437.1001 0.0000 0.0000 1789.6202 -7258.6602 310.0630 -9048.2805 -7312.8752 302.8811 97.8829 211.2618 30031.9056 -103.5101 -54.0775
TCL: Running FEP window  17: Lambda1 0.8000000000000002 Lambda2 0.8500000000000002 [dLambda 0.050000000000000044]
TCL: Setting parameter firsttimestep to 0
TCL: Setting parameter alchLambda to 0.8000000000000002
Info: NONBONDED TABLE R-SQUARED SPACING: 0.0625
Info: NONBONDED TABLE SIZE: 705 POINTS
TCL: Setting parameter alchLambda2 to 0.8500000000000002
Info: NONBONDED TABLE R-SQUARED SPACING: 0.0625
Info: NONBONDED TABLE SIZE: 705 POINTS
TCL: Running for 1500000 steps
ETITLE: TS BOND ANGLE DIHED IMPRP ELECT VDW BOUNDARY MISC KINETIC TOTAL TEMP POTENTIAL TOTALAVG TEMPAVG PRESSURE GPRESSURE VOLUME PRESSAVG GPRESSAVG
ENERGY: 0 1.7312 10.6345 4.5599 0.0000 -10502.7939 1437.6267 0.0000 0.0000 1788.7427 -7259.4989 309.9109 -9048.2416 -7259.4989 309.9109 148.1550 227.5819 30031.9056 148.1550 227.5819
ENERGY: 300000 2.1870 7.0522 0.8010 0.0000 -10554.3576 1491.0632 0.0000 0.0000 1710.2049 -7343.0493 296.3038 -9053.2542 -7264.4172 303.8315 708.0771 783.6721 29943.9967 -225.2314 -159.9779
ENERGY: 600000 1.7134 9.5379 2.3798 0.0000 -10635.6160 1435.7413 0.0000 0.0000 1749.5896 -7436.6540 303.1274 -9186.2436 -7307.8628 302.7323 59.4000 101.3822 29551.8899 -200.2799 -131.7982
ENERGY: 900000 1.1813 12.3934 1.2358 0.0000 -10535.8728 1490.9298 0.0000 0.0000 1684.1747 -7345.9576 291.7939 -9030.1323 -7337.3182 300.2378 793.7669 843.8184 29714.6013 0.5315 59.2324
ENERGY: 1200000 0.9923 7.6026 2.3936 0.0000 -10434.8459 1368.3578 0.0000 0.0000 1703.4775 -7352.0221 295.1382 -9055.4996 -7348.2597 299.5062 -58.5454 -36.3709 29823.9623 -87.3649 -27.7593
ENERGY: 1500000 2.4438 12.3950 2.2680 0.0000 -10405.1375 1375.5382 0.0000 0.0000 1751.6320 -7260.8605 303.4813 -9012.4925 -7357.5855 298.7254 -393.3057 -380.4584 30569.9739 -98.1036 -49.1897
TCL: Running FEP window  18: Lambda1 0.8500000000000002 Lambda2 0.9000000000000002 [dLambda 0.050000000000000044]
TCL: Setting parameter firsttimestep to 0
TCL: Setting parameter alchLambda to 0.8500000000000002
Info: NONBONDED TABLE R-SQUARED SPACING: 0.0625
Info: NONBONDED TABLE SIZE: 705 POINTS
TCL: Setting parameter alchLambda2 to 0.9000000000000002
Info: NONBONDED TABLE R-SQUARED SPACING: 0.0625
Info: NONBONDED TABLE SIZE: 705 POINTS
TCL: Running for 1500000 steps
ETITLE: TS BOND ANGLE DIHED IMPRP ELECT VDW BOUNDARY MISC KINETIC TOTAL TEMP POTENTIAL TOTALAVG TEMPAVG PRESSURE GPRESSURE VOLUME PRESSAVG GPRESSAVG
ENERGY: 0 2.4438 12.3950 2.2680 0.0000 -10405.5849 1375.1645 0.0000 0.0000 1750.8061 -7262.5074 303.3382 -9013.3135 -7262.5074 303.3382 -453.5686 -377.4499 30569.9739 -453.5686 -377.4499
ENERGY: 300000 2.4518 13.5631 4.0856 0.0000 -10488.2902 1418.6633 0.0000 0.0000 1752.0044 -7297.5221 303.5458 -9049.5265 -7304.5106 300.7867 61.1460 115.0330 29654.4731 98.5794 146.3533
ENERGY: 600000 2.1736 8.2860 1.6871 0.0000 -10417.5800 1315.2961 0.0000 0.0000 1656.0156 -7434.1216 286.9151 -9090.1372 -7333.6532 297.8034 -862.5978 -784.9650 30031.3674 30.2193 84.7059
ENERGY: 900000 1.3649 7.3463 2.6862 0.0000 -10419.4047 1380.9035 0.0000 0.0000 1763.8119 -7263.2920 305.5915 -9027.1039 -7316.9021 299.7577 -45.8739 43.4412 30049.7882 110.9303 171.2745
ENERGY: 1200000 1.1742 7.6990 0.7445 0.0000 -10467.1399 1350.7464 0.0000 0.0000 1730.2304 -7376.5454 299.7733 -9106.7758 -7324.9054 300.3931 -649.5004 -556.6569 29837.4837 42.8954 111.4231
ENERGY: 1500000 2.5466 11.3772 1.9607 0.0000 -10503.4797 1406.6039 0.0000 0.0000 1681.4993 -7399.4921 291.3303 -9080.9914 -7331.7938 299.6898 -222.9508 -126.0894 30033.2502 -1.4135 66.0014
TCL: Running FEP window  19: Lambda1 0.9000000000000002 Lambda2 0.9500000000000003 [dLambda 0.050000000000000044]
TCL: Setting parameter firsttimestep to 0
TCL: Setting parameter alchLambda to 0.9000000000000002
Info: NONBONDED TABLE R-SQUARED SPACING: 0.0625
Info: NONBONDED TABLE SIZE: 705 POINTS
TCL: Setting parameter alchLambda2 to 0.9500000000000003
Info: NONBONDED TABLE R-SQUARED SPACING: 0.0625
Info: NONBONDED TABLE SIZE: 705 POINTS
TCL: Running for 1500000 steps
ETITLE: TS BOND ANGLE DIHED IMPRP ELECT VDW BOUNDARY MISC KINETIC TOTAL TEMP POTENTIAL TOTALAVG TEMPAVG PRESSURE GPRESSURE VOLUME PRESSAVG GPRESSAVG
ENERGY: 0 2.5466 11.3772 1.9607 0.0000 -10503.5608 1406.8986 0.0000 0.0000 1680.5903 -7400.1874 291.1728 -9080.7778 -7400.1874 291.1728 -201.8447 -108.6127 30033.2502 -201.8447 -108.6127
ENERGY: 300000 2.3751 11.2535 2.2086 0.0000 -10630.1727 1465.4022 0.0000 0.0000 1732.0108 -7416.9226 300.0818 -9148.9334 -7373.2021 296.0783 13.3377 114.7125 29737.5900 -149.1693 -73.3399
ENERGY: 600000 1.7539 10.3884 1.8877 0.0000 -10590.3447 1388.3687 0.0000 0.0000 1705.8935 -7482.0526 295.5568 -9187.9461 -7369.8627 299.0616 -613.5389 -588.0527 29877.6786 -209.0221 -141.2854
ENERGY: 900000 1.1644 10.0127 3.1290 0.0000 -10381.6475 1403.3325 0.0000 0.0000 1720.3085 -7243.7005 298.0543 -8964.0090 -7347.8334 300.1985 210.4289 252.7269 30261.9309 -45.6828 18.6154
ENERGY: 1200000 1.0969 10.8093 2.1147 0.0000 -10497.5367 1403.6198 0.0000 0.0000 1763.9716 -7315.9245 305.6192 -9079.8960 -7351.2073 300.4307 8.6696 71.8844 29784.3191 35.5007 96.5695
ENERGY: 1500000 1.3062 9.9773 1.5585 0.0000 -10465.1877 1432.4371 0.0000 0.0000 1781.9866 -7237.9220 308.7404 -9019.9086 -7349.7797 300.4193 320.5862 356.0533 30163.5514 55.4284 111.4570
TCL: Running FEP window  20: Lambda1 0.9500000000000003 Lambda2 1.0    [dLambda 0.04999999999999971]
TCL: Setting parameter firsttimestep to 0
TCL: Setting parameter alchLambda to 0.9500000000000003
Info: NONBONDED TABLE R-SQUARED SPACING: 0.0625
Info: NONBONDED TABLE SIZE: 705 POINTS
TCL: Setting parameter alchLambda2 to 1.0
Info: NONBONDED TABLE R-SQUARED SPACING: 0.0625
Info: NONBONDED TABLE SIZE: 705 POINTS
TCL: Running for 1500000 steps
ETITLE: TS BOND ANGLE DIHED IMPRP ELECT VDW BOUNDARY MISC KINETIC TOTAL TEMP POTENTIAL TOTALAVG TEMPAVG PRESSURE GPRESSURE VOLUME PRESSAVG GPRESSAVG
ENERGY: 0 1.3062 9.9773 1.5585 0.0000 -10465.5985 1432.0841 0.0000 0.0000 1781.0586 -7239.6138 308.5796 -9020.6724 -7239.6138 308.5796 282.2906 363.6391 30163.5514 282.2906 363.6391
ENERGY: 300000 1.5794 14.2719 2.5763 0.0000 -10462.5315 1351.7846 0.0000 0.0000 1690.9985 -7401.3208 292.9761 -9092.3194 -7322.2209 301.7083 -358.8183 -330.7546 29740.1182 -17.7874 47.5004
ENERGY: 600000 1.2434 13.9810 1.7027 0.0000 -10532.7423 1437.2582 0.0000 0.0000 1667.5268 -7411.0302 288.9095 -9078.5570 -7358.8944 297.8237 364.3068 387.0792 29821.3052 41.1827 101.5553
ENERGY: 900000 0.7402 7.8149 2.6345 0.0000 -10604.6502 1387.4851 0.0000 0.0000 1725.9414 -7480.0342 299.0302 -9205.9756 -7374.0067 297.8681 -450.0093 -357.4104 29579.1898 38.5673 103.0452
ENERGY: 1200000 3.0869 11.0153 2.5965 0.0000 -10440.8715 1376.8955 0.0000 0.0000 1774.4861 -7272.7912 307.4409 -9047.2773 -7365.9864 298.3228 -220.0732 -157.7305 29838.8841 -70.7487 -4.7468
ENERGY: 1500000 0.8444 8.6156 1.1916 0.0000 -10495.9185 1381.1784 0.0000 0.0000 1791.7065 -7312.3819 310.4244 -9104.0884 -7357.3046 299.4570 -504.8987 -458.2543 30479.9508 -120.9870 -64.9917
TCL: Exiting due to exit command.
