Info: SIMULATION PARAMETERS:
Info: TIMESTEP               2
Info: NUMBER OF STEPS        0
Info: STEPS PER CYCLE        10
Info: PERIODIC CELL BASIS 1  31.4899 0 0
Info: PERIODIC CELL BASIS 2  0 29.9193 0
Info: PERIODIC CELL BASIS 3  0 0 31.761
Info: PERIODIC CELL CENTER   0 0 0
Info: WRAPPING WATERS AROUND PERIODIC BOUNDARIES ON OUTPUT.
Info: WRAPPING ALL CLUSTERS AROUND PERIODIC BOUNDARIES ON OUTPUT.
Info: FIRST LDB TIMESTEP     50
Info: LAST LDB TIMESTEP     -1
Info: HOM BACKGROUND SCALING 1
Info: PME BACKGROUND SCALING 1
Info: MIN ATOMS PER PATCH    40
Info: EMPTY PATCH LOAD       40 ATOMS
Info: VELOCITY FILE          mobley_5747188_equil.vel
Info: CENTER OF MASS MOVING INITIALLY? NO
Info: DIELECTRIC             1
Info: EXCLUDE                SCALED ONE-FOUR
Info: 1-4 ELECTROSTATICS SCALED BY 0.833333
Info: MODIFIED 1-4 VDW PARAMETERS WILL BE USED
Info: DCD FILENAME           mobley_5747188_prod.dcd
Info: DCD FREQUENCY          100000
Info: DCD FIRST STEP         100000
Info: DCD FILE WILL CONTAIN UNIT CELL DATA
Info: XST FILENAME           mobley_5747188_prod.xst
Info: XST FREQUENCY          100000
Info: NO VELOCITY DCD OUTPUT
Info: NO FORCE DCD OUTPUT
Info: OUTPUT FILENAME        mobley_5747188_prod
Info: BINARY OUTPUT FILES WILL BE USED
Info: RESTART FILENAME       mobley_5747188_prod.restart
Info: RESTART FREQUENCY      100000
Info: BINARY RESTART FILES WILL BE USED
Info: CUTOFF                 9
Info: PAIRLIST DISTANCE      11
Info: PAIRLIST SHRINK RATE   0.01
Info: PAIRLIST GROW RATE     0.01
Info: PAIRLIST TRIGGER       0.3
Info: PAIRLISTS PER CYCLE    2
Info: PAIRLISTS ENABLED
Info: MARGIN                 2
Info: HYDROGEN GROUP CUTOFF  2.5
Info: PATCH DIMENSION        15.5
Info: ENERGY OUTPUT STEPS    100000
Info: ENERGY EVALUATION STEPS    100000
Info: OUTPUT ENERGY PRECISION 4
Info: CROSSTERM ENERGY INCLUDED IN DIHEDRAL
Info: TIMING OUTPUT STEPS    1000000
Info: PRESSURE OUTPUT STEPS  100000
Info: ALCHEMICAL FEP ON
Info: FEP CURRENT LAMBDA VALUE     0
Info: FEP COMPARISON LAMBDA VALUE  0.05
Info: FEP INTRA-ALCHEMICAL NON-BONDED INTERACTIONS WILL BE RETAINED
Info: FEP INTRA-ALCHEMICAL BONDED INTERACTIONS WILL BE RETAINED
Info: FEP VDW SHIFTING COEFFICIENT 5
Info: FEP ELEC. ACTIVE FOR ANNIHILATED PARTICLES BETWEEN LAMBDA = 0 AND LAMBDA = 0.5
Info: FEP ELEC. ACTIVE FOR EXNIHILATED PARTICLES BETWEEN LAMBDA = 0.5 AND LAMBDA = 1
Info: FEP VDW ACTIVE FOR ANNIHILATED PARTICLES BETWEEN LAMBDA = 0 AND LAMBDA = 1
Info: FEP VDW ACTIVE FOR EXNIHILATED PARTICLES BETWEEN LAMBDA = 0 AND LAMBDA = 1
Info: FEP BOND ACTIVE FOR ANNIHILATED PARTICLES BETWEEN LAMBDA = 1 AND LAMBDA = 1
Info: FEP BOND ACTIVE FOR EXNIHILATED PARTICLES BETWEEN LAMBDA = 0 AND LAMBDA = 0
Info: LANGEVIN DYNAMICS ACTIVE
Info: LANGEVIN TEMPERATURE   300
Info: LANGEVIN USING BBK INTEGRATOR
Info: LANGEVIN DAMPING COEFFICIENT IS 1 INVERSE PS
Info: LANGEVIN DYNAMICS APPLIED TO HYDROGENS
Info: LANGEVIN PISTON PRESSURE CONTROL ACTIVE
Info:        TARGET PRESSURE IS 1.01325 BAR
Info:     OSCILLATION PERIOD IS 50 FS
Info:             DECAY TIME IS 25 FS
Info:     PISTON TEMPERATURE IS 300 K
Info:       PRESSURE CONTROL IS GROUP-BASED
Info:    INITIAL STRAIN RATE IS 0.000400276 0.000400276 0.000400276
Info:       CELL FLUCTUATION IS ISOTROPIC
Info: PARTICLE MESH EWALD (PME) ACTIVE
Info: PME TOLERANCE               1e-06
Info: PME EWALD COEFFICIENT       0.348832
Info: PME INTERPOLATION ORDER     4
Info: PME GRID DIMENSIONS         32 32 32
Info: PME MAXIMUM GRID SPACING    1
Info: PME CALCULATION WILL BE PERFORMED ON GPU
Info: FULL ELECTROSTATIC EVALUATION FREQUENCY      2
Info: USING VERLET I (r-RESPA) MTS SCHEME.
Info: C1 SPLITTING OF LONG RANGE ELECTROSTATICS
Info: PLACING ATOMS IN PATCHES BY HYDROGEN GROUPS
Info: RIGID BONDS TO HYDROGEN : ALL
Info:         ERROR TOLERANCE : 1e-08
Info:          MAX ITERATIONS : 100
Info: RIGID WATER USING SETTLE ALGORITHM
Info: RANDOM NUMBER SEED     1743767484
Info: USE HYDROGEN BONDS?    NO
Info: Using AMBER format force field!
Info: AMBER PARM FILE        mobley_5747188.prmtop
Info: COORDINATE PDB         mobley_5747188.pdb
Info: Exclusions will be read from PARM file!
Info: SCNB (VDW SCALING)     2
Info: USING ARITHMETIC MEAN TO COMBINE L-J SIGMA PARAMETERS
Info: BINARY COORDINATES     mobley_5747188_equil.coor
Info: SUMMARY OF PARAMETERS:
Info: 8 BONDS
Info: 8 ANGLES
Info:   8 HARMONIC
Info:   0 COSINE-BASED
Info: 4 DIHEDRAL
Info: 0 IMPROPER
Info: 0 CROSSTERM
Info: 0 VDW
Info: 36 VDW_PAIRS
Info: 0 NBTHOLE_PAIRS
Info: To read alchdata from file: mobley_5747188.pdb
Info: To read alchflag data from column: 5
Info: STRUCTURE SUMMARY:
Info: 2921 ATOMS
Info: 2921 BONDS
Info: 27 ANGLES
Info: 40 DIHEDRALS
Info: 0 IMPROPERS
Info: 0 CROSSTERMS
Info: 2979 EXCLUSIONS
Info: 2911 RIGID BONDS
Info: ALCH: 0 ATOMS TO DISAPPEAR IN FINAL STATE
Info: ALCH: 17 ATOMS TO APPEAR IN FINAL STATE
Info: 5852 DEGREES OF FREEDOM
Info: 978 HYDROGEN GROUPS
Info: 4 ATOMS IN LARGEST HYDROGEN GROUP
Info: 978 MIGRATION GROUPS
Info: 4 ATOMS IN LARGEST MIGRATION GROUP
Info: TOTAL MASS = 17576.6 amu
Info: TOTAL CHARGE = 0.000100022 e
Info: MASS DENSITY = 0.975388 g/cm^3
Info: ATOM DENSITY = 0.0976144 atoms/A^3
Info: ADDED 0 IMPLICIT EXCLUSIONS
Info: NONBONDED TABLE R-SQUARED SPACING: 0.0625
Info: NONBONDED TABLE SIZE: 705 POINTS
Info: REMOVING COM VELOCITY -0.0454443 0.051164 0.0189578
Info: Use 3D box decompostion in PME FFT.
Info: Updated CUDA force table with 4096 elements.
Info: Updated CUDA LJ table with 8 x 8 elements.
Info: Found 16 unique exclusion lists needing 36 bytes
TCL: Running for 1500000 steps
ETITLE: TS BOND ANGLE DIHED IMPRP ELECT VDW BOUNDARY MISC KINETIC TOTAL TEMP POTENTIAL TOTALAVG TEMPAVG PRESSURE GPRESSURE VOLUME PRESSAVG GPRESSAVG
ENERGY: 0 0.6300 3.4938 6.3907 0.0000 -10501.0968 1334.6141 0.0000 0.0000 1741.2730 -7414.6951 299.4697 -9155.9681 -7414.6951 299.4697 -601.3950 -509.4623 29923.8523 -601.3950 -509.4623
ENERGY: 300000 1.1486 5.9028 5.2907 0.0000 -10597.3286 1390.1831 0.0000 0.0000 1748.3194 -7446.4840 300.6816 -9194.8034 -7443.9069 294.4052 -795.2525 -772.7567 30544.5467 -443.1157 -368.2237
ENERGY: 600000 2.4730 3.0385 6.0762 0.0000 -10606.9422 1390.6965 0.0000 0.0000 1799.2076 -7405.4505 309.4335 -9204.6581 -7416.2432 298.3847 -371.6112 -283.1235 29675.9190 -264.8207 -191.6338
ENERGY: 900000 2.6894 3.4864 4.9157 0.0000 -10743.5987 1532.6153 0.0000 0.0000 1743.0065 -7456.8853 299.7679 -9199.8918 -7410.2708 298.8574 520.9763 550.7093 30052.4524 -83.7232 -9.8944
ENERGY: 1200000 8.6710 3.3576 4.2629 0.0000 -10523.0049 1316.7753 0.0000 0.0000 1739.0046 -7450.9335 299.0796 -9189.9381 -7414.3815 298.6459 -1570.1857 -1497.0305 30189.9423 -171.1616 -97.6622
ENERGY: 1500000 8.0383 4.1902 7.3561 0.0000 -10511.6716 1376.4521 0.0000 0.0000 1705.9621 -7409.6727 293.3968 -9115.6348 -7410.6905 298.5166 -556.4569 -560.2548 29969.4017 -220.6785 -157.9853
TCL: Running FEP window   2: Lambda1 0.05   Lambda2 0.1    [dLambda 0.05  ]
TCL: Setting parameter firsttimestep to 0
TCL: Setting parameter alchLambda to 0.05
Info: NONBONDED TABLE R-SQUARED SPACING: 0.0625
Info: NONBONDED TABLE SIZE: 705 POINTS
TCL: Setting parameter alchLambda2 to 0.1
Info: NONBONDED TABLE R-SQUARED SPACING: 0.0625
Info: NONBONDED TABLE SIZE: 705 POINTS
TCL: Running for 1500000 steps
ETITLE: TS BOND ANGLE DIHED IMPRP ELECT VDW BOUNDARY MISC KINETIC TOTAL TEMP POTENTIAL TOTALAVG TEMPAVG PRESSURE GPRESSURE VOLUME PRESSAVG GPRESSAVG
ENERGY: 0 8.0383 4.1902 7.3561 0.0000 -10511.6704 1381.7672 0.0000 0.0000 1705.1449 -7405.1736 293.2563 -9110.3185 -7405.1736 293.2563 -622.7137 -549.3290 29969.4017 -622.7137 -549.3290
ENERGY: 300000 3.9807 5.6869 7.6756 0.0000 -10601.9942 1406.5458 0.0000 0.0000 1713.4146 -7464.6906 294.6785 -9178.1052 -7413.5871 294.5086 -440.3491 -331.0351 29873.4893 -484.2473 -402.6792
ENERGY: 600000 4.3347 4.5941 4.8289 0.0000 -10603.8566 1495.8649 0.0000 0.0000 1732.2615 -7361.9725 297.9199 -9094.2340 -7395.8185 297.3760 706.1278 798.6803 29681.3074 -88.3086 1.5137
ENERGY: 900000 2.5833 4.8802 7.8031 0.0000 -10547.5781 1357.8250 0.0000 0.0000 1722.1352 -7452.3514 296.1784 -9174.4866 -7400.6054 297.7639 -699.0728 -599.1420 29636.2077 -196.3763 -110.2114
ENERGY: 1200000 5.2528 3.4857 5.9512 0.0000 -10495.4974 1466.8606 0.0000 0.0000 1796.5628 -7217.3844 308.9786 -9013.9472 -7390.4924 298.6293 458.9270 498.4709 30556.8777 -108.1053 -24.2010
ENERGY: 1500000 4.4798 4.3627 6.3423 0.0000 -10581.6639 1423.8100 0.0000 0.0000 1715.8116 -7426.8576 295.0908 -9142.6692 -7388.5848 298.9823 -13.8797 31.8111 29792.2593 -110.2914 -26.2203
TCL: Running FEP window   3: Lambda1 0.1    Lambda2 0.15000000000000002 [dLambda 0.05000000000000002]
TCL: Setting parameter firsttimestep to 0
TCL: Setting parameter alchLambda to 0.1
Info: NONBONDED TABLE R-SQUARED SPACING: 0.0625
Info: NONBONDED TABLE SIZE: 705 POINTS
TCL: Setting parameter alchLambda2 to 0.15000000000000002
Info: NONBONDED TABLE R-SQUARED SPACING: 0.0625
Info: NONBONDED TABLE SIZE: 705 POINTS
TCL: Running for 1500000 steps
ETITLE: TS BOND ANGLE DIHED IMPRP ELECT VDW BOUNDARY MISC KINETIC TOTAL TEMP POTENTIAL TOTALAVG TEMPAVG PRESSURE GPRESSURE VOLUME PRESSAVG GPRESSAVG
ENERGY: 0 4.4798 4.3626 6.3423 0.0000 -10581.6627 1425.1419 0.0000 0.0000 1714.9499 -7426.3863 294.9426 -9141.3362 -7426.3863 294.9426 -37.5606 37.9519 29792.2593 -37.5606 37.9519
ENERGY: 300000 1.2298 4.3488 7.0812 0.0000 -10742.6996 1587.5285 0.0000 0.0000 1752.8751 -7389.6361 301.4651 -9142.5112 -7372.3854 296.9894 1044.1279 1188.0110 29793.9876 -14.6975 72.8002
ENERGY: 600000 4.4384 4.3538 5.7979 0.0000 -10689.7540 1532.1875 0.0000 0.0000 1773.8178 -7369.1586 305.0669 -9142.9764 -7379.4385 299.3449 531.8050 545.2943 29797.9991 -52.3198 21.1944
ENERGY: 900000 4.0159 6.3417 6.9439 0.0000 -10495.8642 1333.5030 0.0000 0.0000 1723.1542 -7421.9054 296.3536 -9145.0596 -7390.6300 299.3418 -685.2613 -621.6983 29897.2667 -109.1928 -40.9913
ENERGY: 1200000 3.5282 3.2108 6.1393 0.0000 -10696.3481 1499.7370 0.0000 0.0000 1779.8343 -7403.8984 306.1016 -9183.7328 -7391.1612 299.9883 388.7737 459.9531 30022.1810 -32.3299 29.8846
ENERGY: 1500000 4.0957 3.4899 5.1725 0.0000 -10555.6007 1463.6164 0.0000 0.0000 1725.4219 -7353.8044 296.7436 -9079.2263 -7377.1565 300.6890 259.4436 297.9573 30700.0274 12.1047 75.1997
TCL: Running FEP window   4: Lambda1 0.15000000000000002 Lambda2 0.2    [dLambda 0.04999999999999999]
TCL: Setting parameter firsttimestep to 0
TCL: Setting parameter alchLambda to 0.15000000000000002
Info: NONBONDED TABLE R-SQUARED SPACING: 0.0625
Info: NONBONDED TABLE SIZE: 705 POINTS
TCL: Setting parameter alchLambda2 to 0.2
Info: NONBONDED TABLE R-SQUARED SPACING: 0.0625
Info: NONBONDED TABLE SIZE: 705 POINTS
TCL: Running for 1500000 steps
ETITLE: TS BOND ANGLE DIHED IMPRP ELECT VDW BOUNDARY MISC KINETIC TOTAL TEMP POTENTIAL TOTALAVG TEMPAVG PRESSURE GPRESSURE VOLUME PRESSAVG GPRESSAVG
ENERGY: 0 4.0957 3.4899 5.1725 0.0000 -10555.6022 1464.3132 0.0000 0.0000 1724.5427 -7353.9883 296.5924 -9078.5309 -7353.9883 296.5924 232.1641 305.1358 30700.0274 232.1641 305.1358
ENERGY: 300000 2.4594 4.1946 10.4153 0.0000 -10502.6229 1353.6135 0.0000 0.0000 1823.0336 -7308.9065 313.5312 -9131.9402 -7379.4054 302.5138 -536.3812 -493.9597 29967.0632 159.8114 210.2791
ENERGY: 600000 3.3173 7.9466 5.2800 0.0000 -10686.4272 1514.1385 0.0000 0.0000 1740.2701 -7415.4748 299.2972 -9155.7449 -7415.0155 300.7961 490.1033 571.2278 30113.9687 261.0922 316.8063
ENERGY: 900000 5.5864 4.9273 8.6627 0.0000 -10470.9139 1355.9626 0.0000 0.0000 1783.9890 -7311.7859 306.8162 -9095.7749 -7393.3193 301.2946 -572.3020 -551.6831 29840.3530 94.8461 139.6607
ENERGY: 1200000 4.3739 7.0452 5.6867 0.0000 -10649.6176 1433.4435 0.0000 0.0000 1706.8550 -7492.2132 293.5504 -9199.0682 -7398.9878 300.4107 -379.4773 -322.2153 30141.6780 87.5144 133.6868
ENERGY: 1500000 4.4629 3.3558 4.9944 0.0000 -10487.6646 1455.9379 0.0000 0.0000 1763.7558 -7255.1579 303.3364 -9018.9137 -7391.2237 299.8951 743.5788 829.6428 29734.1389 90.3079 139.8666
TCL: Running FEP window   5: Lambda1 0.2    Lambda2 0.25   [dLambda 0.04999999999999999]
TCL: Setting parameter firsttimestep to 0
TCL: Setting parameter alchLambda to 0.2
Info: NONBONDED TABLE R-SQUARED SPACING: 0.0625
Info: NONBONDED TABLE SIZE: 705 POINTS
TCL: Setting parameter alchLambda2 to 0.25
Info: NONBONDED TABLE R-SQUARED SPACING: 0.0625
Info: NONBONDED TABLE SIZE: 705 POINTS
TCL: Running for 1500000 steps
ETITLE: TS BOND ANGLE DIHED IMPRP ELECT VDW BOUNDARY MISC KINETIC TOTAL TEMP POTENTIAL TOTALAVG TEMPAVG PRESSURE GPRESSURE VOLUME PRESSAVG GPRESSAVG
ENERGY: 0 4.4629 3.3558 4.9944 0.0000 -10487.6647 1456.9799 0.0000 0.0000 1762.9193 -7254.9525 303.1925 -9017.8718 -7254.9525 303.1925 732.7244 834.9232 29734.1389 732.7244 834.9232
ENERGY: 300000 1.6131 4.7627 4.6510 0.0000 -10572.0760 1403.9646 0.0000 0.0000 1717.1189 -7439.9656 295.3156 -9157.0845 -7387.1768 297.4048 -186.5071 -88.8927 30038.3732 96.4324 180.3622
ENERGY: 600000 4.6847 4.7029 8.2866 0.0000 -10444.1836 1374.4466 0.0000 0.0000 1737.5431 -7314.5197 298.8283 -9052.0628 -7364.1503 298.7684 -74.3540 -13.1671 30135.6722 272.4494 344.9007
ENERGY: 900000 2.4361 11.4460 6.1278 0.0000 -10532.6840 1362.4812 0.0000 0.0000 1720.8065 -7429.3865 295.9498 -9150.1930 -7382.3495 298.4094 -304.5768 -296.2280 29564.5470 114.5541 187.4704
ENERGY: 1200000 4.1903 6.5067 9.0048 0.0000 -10558.9229 1473.8602 0.0000 0.0000 1761.5697 -7303.7912 302.9604 -9065.3609 -7381.2971 299.4853 780.5343 793.7460 29487.4326 202.5673 260.5865
ENERGY: 1500000 3.5075 4.9043 8.1644 0.0000 -10377.5424 1306.8876 0.0000 0.0000 1764.9146 -7289.1640 303.5357 -9054.0786 -7380.5681 299.0765 -919.6567 -880.8600 30263.3940 65.4065 121.5959
TCL: Running FEP window   6: Lambda1 0.25   Lambda2 0.3    [dLambda 0.04999999999999999]
TCL: Setting parameter firsttimestep to 0
TCL: Setting parameter alchLambda to 0.25
Info: NONBONDED TABLE R-SQUARED SPACING: 0.0625
Info: NONBONDED TABLE SIZE: 705 POINTS
TCL: Setting parameter alchLambda2 to 0.3
Info: NONBONDED TABLE R-SQUARED SPACING: 0.0625
Info: NONBONDED TABLE SIZE: 705 POINTS
TCL: Running for 1500000 steps
ETITLE: TS BOND ANGLE DIHED IMPRP ELECT VDW BOUNDARY MISC KINETIC TOTAL TEMP POTENTIAL TOTALAVG TEMPAVG PRESSURE GPRESSURE VOLUME PRESSAVG GPRESSAVG
ENERGY: 0 3.5075 4.9043 8.1644 0.0000 -10377.5400 1306.5535 0.0000 0.0000 1764.0685 -7290.3417 303.3902 -9054.4102 -7290.3417 303.3902 -948.4916 -877.4506 30263.3940 -948.4916 -877.4506
ENERGY: 300000 4.3784 6.0305 6.9048 0.0000 -10634.2799 1454.5011 0.0000 0.0000 1739.8873 -7422.5780 299.2314 -9162.4652 -7368.6059 303.0091 -27.7130 107.6457 30212.4594 -317.7341 -247.6710
ENERGY: 600000 0.8216 6.7309 3.7095 0.0000 -10307.5494 1286.2747 0.0000 0.0000 1755.6917 -7254.3209 301.9495 -9010.0127 -7381.8385 300.4652 -705.1128 -622.9125 30113.9133 -232.9802 -157.7486
ENERGY: 900000 3.4044 5.1755 8.6825 0.0000 -10476.9539 1346.9963 0.0000 0.0000 1742.6753 -7370.0199 299.7109 -9112.6952 -7373.4197 300.8402 -449.8432 -376.7369 29810.8544 -242.8408 -170.9464
ENERGY: 1200000 5.2206 2.7061 4.6706 0.0000 -10640.0811 1456.5133 0.0000 0.0000 1718.8532 -7452.1174 295.6139 -9170.9706 -7380.8622 300.7092 -245.0344 -165.0010 30201.1863 -221.2430 -151.1440
ENERGY: 1500000 4.9460 6.7541 6.6196 0.0000 -10547.3944 1463.3862 0.0000 0.0000 1765.7078 -7299.9807 303.6721 -9065.6885 -7377.2171 300.7910 88.6187 183.2746 30462.5951 -201.5155 -129.6938
TCL: Running FEP window   7: Lambda1 0.3    Lambda2 0.35   [dLambda 0.04999999999999999]
TCL: Setting parameter firsttimestep to 0
TCL: Setting parameter alchLambda to 0.3
Info: NONBONDED TABLE R-SQUARED SPACING: 0.0625
Info: NONBONDED TABLE SIZE: 705 POINTS
TCL: Setting parameter alchLambda2 to 0.35
Info: NONBONDED TABLE R-SQUARED SPACING: 0.0625
Info: NONBONDED TABLE SIZE: 705 POINTS
TCL: Running for 1500000 steps
ETITLE: TS BOND ANGLE DIHED IMPRP ELECT VDW BOUNDARY MISC KINETIC TOTAL TEMP POTENTIAL TOTALAVG TEMPAVG PRESSURE GPRESSURE VOLUME PRESSAVG GPRESSAVG
ENERGY: 0 4.9460 6.7542 6.6196 0.0000 -10547.3950 1463.7071 0.0000 0.0000 1764.8422 -7300.5260 303.5232 -9065.3682 -7300.5260 303.5232 94.6714 186.6111 30462.5951 94.6714 186.6111
ENERGY: 300000 3.2198 5.5920 3.9210 0.0000 -10577.8999 1367.2037 0.0000 0.0000 1774.3017 -7423.6617 305.1501 -9197.9634 -7378.6591 300.6473 -761.7174 -678.5562 30477.1342 -93.9170 -33.1317
ENERGY: 600000 6.5841 6.1242 5.5443 0.0000 -10640.3623 1478.4446 0.0000 0.0000 1758.3767 -7385.2885 302.4113 -9143.6652 -7370.0976 302.6522 469.5385 590.5605 29392.3699 67.0518 125.5836
ENERGY: 900000 6.2050 7.9807 5.7389 0.0000 -10399.9268 1307.3351 0.0000 0.0000 1825.5992 -7247.0681 313.9724 -9072.6672 -7359.8392 304.9102 -993.0826 -956.0771 30637.2817 -70.7062 -8.7182
ENERGY: 1200000 7.5214 3.5231 7.7171 0.0000 -10523.4589 1350.1791 0.0000 0.0000 1795.8109 -7358.7072 308.8493 -9154.5181 -7374.5120 303.8370 -881.3445 -806.7840 30025.8423 -101.3061 -41.8889
ENERGY: 1500000 1.8714 4.7247 10.4619 0.0000 -10437.3513 1310.9421 0.0000 0.0000 1767.0010 -7342.3504 303.8945 -9109.3513 -7371.5926 303.4292 -975.8286 -945.9180 30216.6160 -128.7861 -71.8472
TCL: Running FEP window   8: Lambda1 0.35   Lambda2 0.39999999999999997 [dLambda 0.04999999999999999]
TCL: Setting parameter firsttimestep to 0
TCL: Setting parameter alchLambda to 0.35
Info: NONBONDED TABLE R-SQUARED SPACING: 0.0625
Info: NONBONDED TABLE SIZE: 705 POINTS
TCL: Setting parameter alchLambda2 to 0.39999999999999997
Info: NONBONDED TABLE R-SQUARED SPACING: 0.0625
Info: NONBONDED TABLE SIZE: 705 POINTS
TCL: Running for 1500000 steps
ETITLE: TS BOND ANGLE DIHED IMPRP ELECT VDW BOUNDARY MISC KINETIC TOTAL TEMP POTENTIAL TOTALAVG TEMPAVG PRESSURE GPRESSURE VOLUME PRESSAVG GPRESSAVG
ENERGY: 0 1.8714 4.7247 10.4619 0.0000 -10437.3505 1311.2951 0.0000 0.0000 1766.1269 -7342.8705 303.7442 -9108.9974 -7342.8705 303.7442 -1021.0389 -938.5840 30216.6160 -1021.0389 -938.5840
ENERGY: 300000 3.3395 3.8362 7.5991 0.0000 -10598.6477 1427.5859 0.0000 0.0000 1784.6886 -7371.5982 306.9365 -9156.2869 -7351.9434 299.7844 -276.4130 -182.3945 29969.6657 -583.9431 -514.2722
ENERGY: 600000 3.8524 5.8585 4.4550 0.0000 -10601.2598 1493.9552 0.0000 0.0000 1758.9484 -7334.1903 302.5096 -9093.1387 -7353.6725 301.8097 414.9888 418.2320 30147.2532 -114.1975 -54.0527
ENERGY: 900000 1.3272 5.5502 6.7558 0.0000 -10518.7451 1348.1405 0.0000 0.0000 1732.1708 -7424.8006 297.9043 -9156.9715 -7365.1604 301.1053 -679.0455 -618.8995 29886.6698 -158.5570 -92.7738
ENERGY: 1200000 4.5101 8.2025 4.4934 0.0000 -10422.3018 1346.7068 0.0000 0.0000 1798.3698 -7260.0192 309.2894 -9058.3890 -7352.6558 301.3601 -346.1437 -302.6104 30110.4368 -167.4247 -108.0977
ENERGY: 1500000 2.0763 4.6778 5.9183 0.0000 -10529.5853 1395.6773 0.0000 0.0000 1728.5951 -7392.6405 297.2893 -9121.2357 -7358.5131 300.4660 -361.0248 -237.7500 30121.1697 -194.2205 -132.6261
TCL: Running FEP window   9: Lambda1 0.39999999999999997 Lambda2 0.44999999999999996 [dLambda 0.04999999999999999]
TCL: Setting parameter firsttimestep to 0
TCL: Setting parameter alchLambda to 0.39999999999999997
Info: NONBONDED TABLE R-SQUARED SPACING: 0.0625
Info: NONBONDED TABLE SIZE: 705 POINTS
TCL: Setting parameter alchLambda2 to 0.44999999999999996
Info: NONBONDED TABLE R-SQUARED SPACING: 0.0625
Info: NONBONDED TABLE SIZE: 705 POINTS
TCL: Running for 1500000 steps
ETITLE: TS BOND ANGLE DIHED IMPRP ELECT VDW BOUNDARY MISC KINETIC TOTAL TEMP POTENTIAL TOTALAVG TEMPAVG PRESSURE GPRESSURE VOLUME PRESSAVG GPRESSAVG
ENERGY: 0 2.0763 4.6778 5.9183 0.0000 -10529.5847 1396.5433 0.0000 0.0000 1727.7562 -7392.6129 297.1451 -9120.3691 -7392.6129 297.1451 -296.3101 -224.7101 30121.1697 -296.3101 -224.7101
ENERGY: 300000 2.0470 6.3166 6.5437 0.0000 -10560.6948 1410.0500 0.0000 0.0000 1713.1967 -7422.5409 294.6411 -9135.7375 -7364.8255 302.8830 80.9074 -6.2927 29821.1550 118.7048 140.7155
ENERGY: 600000 4.1362 4.9886 5.4361 0.0000 -10629.8973 1410.4847 0.0000 0.0000 1771.4682 -7433.3835 304.6628 -9204.8517 -7387.4359 301.6951 -467.6757 -337.3568 29906.3383 -94.0825 -58.7028
ENERGY: 900000 3.3974 4.0066 7.9714 0.0000 -10542.9883 1408.2838 0.0000 0.0000 1766.0728 -7353.2563 303.7349 -9119.3291 -7379.3373 301.7232 78.8393 106.1513 29849.0278 -93.1670 -52.0900
ENERGY: 1200000 1.6008 6.9727 2.5704 0.0000 -10580.5777 1430.0715 0.0000 0.0000 1775.3565 -7364.0057 305.3315 -9139.3623 -7376.5983 301.6179 -38.0234 25.7147 30222.7432 -59.2210 -13.8563
ENERGY: 1500000 7.9093 4.0107 4.9136 0.0000 -10550.0905 1431.4836 0.0000 0.0000 1749.7071 -7352.0663 300.9203 -9101.7734 -7373.9096 302.2816 -3.4641 77.3109 30292.5989 16.9890 72.6265
TCL: Running FEP window  10: Lambda1 0.44999999999999996 Lambda2 0.49999999999999994 [dLambda 0.04999999999999999]
TCL: Setting parameter firsttimestep to 0
TCL: Setting parameter alchLambda to 0.44999999999999996
Info: NONBONDED TABLE R-SQUARED SPACING: 0.0625
Info: NONBONDED TABLE SIZE: 705 POINTS
TCL: Setting parameter alchLambda2 to 0.49999999999999994
Info: NONBONDED TABLE R-SQUARED SPACING: 0.0625
Info: NONBONDED TABLE SIZE: 705 POINTS
TCL: Running for 1500000 steps
ETITLE: TS BOND ANGLE DIHED IMPRP ELECT VDW BOUNDARY MISC KINETIC TOTAL TEMP POTENTIAL TOTALAVG TEMPAVG PRESSURE GPRESSURE VOLUME PRESSAVG GPRESSAVG
ENERGY: 0 7.9093 4.0106 4.9135 0.0000 -10550.0914 1432.0413 0.0000 0.0000 1748.8728 -7352.3438 300.7768 -9101.2166 -7352.3438 300.7768 4.4450 86.3994 30292.5989 4.4450 86.3994
ENERGY: 300000 4.0294 7.5356 3.2489 0.0000 -10461.8951 1314.5477 0.0000 0.0000 1757.8535 -7374.6800 302.3213 -9132.5335 -7376.3976 297.1851 -974.0589 -899.0812 30114.9775 -219.5825 -164.6119
ENERGY: 600000 2.4763 6.3672 7.5353 0.0000 -10587.3024 1397.9905 0.0000 0.0000 1708.6629 -7464.2702 293.8613 -9172.9331 -7417.2252 298.0279 -180.1009 -157.8012 29809.4139 -120.4065 -67.6353
ENERGY: 900000 1.7961 3.2875 5.1062 0.0000 -10570.4839 1499.5482 0.0000 0.0000 1748.2853 -7312.4607 300.6757 -9060.7460 -7404.5015 298.5147 1010.9462 1090.1065 29943.9719 -82.9948 -40.4793
ENERGY: 1200000 2.2470 3.0231 7.8905 0.0000 -10559.6994 1395.9949 0.0000 0.0000 1698.8825 -7451.6614 292.1793 -9150.5439 -7411.1524 297.8783 -386.0495 -339.3340 30209.1054 -94.4779 -46.1567
ENERGY: 1500000 3.4969 5.8913 5.8932 0.0000 -10506.0644 1452.2630 0.0000 0.0000 1732.7562 -7305.7637 298.0050 -9038.5199 -7397.3266 298.6812 125.6705 182.6612 30418.2789 -122.6379 -73.0895
TCL: Running FEP window  11: Lambda1 0.49999999999999994 Lambda2 0.5499999999999999 [dLambda 0.04999999999999999]
TCL: Setting parameter firsttimestep to 0
TCL: Setting parameter alchLambda to 0.49999999999999994
Info: NONBONDED TABLE R-SQUARED SPACING: 0.0625
Info: NONBONDED TABLE SIZE: 705 POINTS
TCL: Setting parameter alchLambda2 to 0.5499999999999999
Info: NONBONDED TABLE R-SQUARED SPACING: 0.0625
Info: NONBONDED TABLE SIZE: 705 POINTS
TCL: Running for 1500000 steps
ETITLE: TS BOND ANGLE DIHED IMPRP ELECT VDW BOUNDARY MISC KINETIC TOTAL TEMP POTENTIAL TOTALAVG TEMPAVG PRESSURE GPRESSURE VOLUME PRESSAVG GPRESSAVG
ENERGY: 0 3.4969 5.8913 5.8932 0.0000 -10506.0639 1452.0633 0.0000 0.0000 1731.8907 -7306.8284 297.8561 -9038.7191 -7306.8284 297.8561 110.0509 188.5377 30418.2789 110.0509 188.5377
ENERGY: 300000 5.4252 8.4807 7.4812 0.0000 -10556.9409 1370.2075 0.0000 0.0000 1700.7811 -7464.5652 292.5058 -9165.3463 -7410.2678 294.3872 -664.2432 -597.7634 30057.9568 -214.2237 -138.3986
ENERGY: 600000 2.5027 5.5095 10.5650 0.0000 -10591.9273 1461.9248 0.0000 0.0000 1775.3263 -7336.0991 305.3263 -9111.4253 -7387.6721 299.8588 252.6509 378.4015 30163.9326 -39.4641 48.1168
ENERGY: 900000 4.8689 6.2874 6.7828 0.0000 -10523.9012 1364.1744 0.0000 0.0000 1804.3056 -7337.4821 310.3103 -9141.7877 -7375.2412 301.7846 -763.6812 -619.4483 30367.1271 -41.6603 34.9881
ENERGY: 1200000 1.9488 2.5922 6.3888 0.0000 -10492.0314 1426.7380 0.0000 0.0000 1705.9736 -7348.3901 293.3988 -9054.3637 -7377.2570 299.9586 305.3767 382.7903 30064.5310 8.8553 78.6886
ENERGY: 1500000 4.4055 4.3879 5.2849 0.0000 -10530.5646 1368.8644 0.0000 0.0000 1784.0303 -7363.5917 306.8233 -9147.6219 -7380.3366 300.5586 -682.9762 -616.5976 30199.5321 -85.2906 -16.6839
TCL: Running FEP window  12: Lambda1 0.5499999999999999 Lambda2 0.6    [dLambda 0.050000000000000044]
TCL: Setting parameter firsttimestep to 0
TCL: Setting parameter alchLambda to 0.5499999999999999
Info: NONBONDED TABLE R-SQUARED SPACING: 0.0625
Info: NONBONDED TABLE SIZE: 705 POINTS
TCL: Setting parameter alchLambda2 to 0.6
Info: NONBONDED TABLE R-SQUARED SPACING: 0.0625
Info: NONBONDED TABLE SIZE: 705 POINTS
TCL: Running for 1500000 steps
ETITLE: TS BOND ANGLE DIHED IMPRP ELECT VDW BOUNDARY MISC KINETIC TOTAL TEMP POTENTIAL TOTALAVG TEMPAVG PRESSURE GPRESSURE VOLUME PRESSAVG GPRESSAVG
ENERGY: 0 4.4055 4.3879 5.2849 0.0000 -10530.3461 1369.3932 0.0000 0.0000 1783.1956 -7363.6790 306.6797 -9146.8746 -7363.6790 306.6797 -696.8683 -606.0907 30199.5321 -696.8683 -606.0907
ENERGY: 300000 3.4186 5.1220 6.0159 0.0000 -10523.3518 1349.1677 0.0000 0.0000 1774.0315 -7385.5962 305.1036 -9159.6277 -7363.6239 303.5586 -570.7412 -520.3211 29722.1266 -576.9275 -484.1393
ENERGY: 600000 1.6438 8.7286 7.3996 0.0000 -10503.7388 1379.2619 0.0000 0.0000 1771.1414 -7335.5634 304.6066 -9106.7048 -7383.0136 302.0229 -59.6041 -85.3050 30155.4451 -311.6099 -229.0281
ENERGY: 900000 4.1784 6.5774 5.8310 0.0000 -10549.5799 1404.7198 0.0000 0.0000 1731.9991 -7396.2740 297.8748 -9128.2732 -7381.0429 302.0956 -79.3830 -54.4934 29825.7600 -365.7385 -300.3780
ENERGY: 1200000 3.3175 8.6103 3.7792 0.0000 -10659.6547 1503.0911 0.0000 0.0000 1710.4287 -7430.4279 294.1650 -9140.8566 -7389.9789 301.0364 725.6672 827.7564 29397.4277 -197.5927 -135.6647
ENERGY: 1500000 2.8814 4.2930 5.6779 0.0000 -10608.4867 1479.3776 0.0000 0.0000 1759.7540 -7356.5027 302.6482 -9116.2567 -7387.1276 301.1232 431.9637 502.6878 30051.8924 -106.0630 -48.7939
TCL: Running FEP window  13: Lambda1 0.6    Lambda2 0.65   [dLambda 0.050000000000000044]
TCL: Setting parameter firsttimestep to 0
TCL: Setting parameter alchLambda to 0.6
Info: NONBONDED TABLE R-SQUARED SPACING: 0.0625
Info: NONBONDED TABLE SIZE: 705 POINTS
TCL: Setting parameter alchLambda2 to 0.65
Info: NONBONDED TABLE R-SQUARED SPACING: 0.0625
Info: NONBONDED TABLE SIZE: 705 POINTS
TCL: Running for 1500000 steps
ETITLE: TS BOND ANGLE DIHED IMPRP ELECT VDW BOUNDARY MISC KINETIC TOTAL TEMP POTENTIAL TOTALAVG TEMPAVG PRESSURE GPRESSURE VOLUME PRESSAVG GPRESSAVG
ENERGY: 0 2.8814 4.2930 5.6779 0.0000 -10608.0506 1479.3959 0.0000 0.0000 1758.9356 -7356.8668 302.5074 -9115.8024 -7356.8668 302.5074 423.7445 513.9558 30051.8924 423.7445 513.9558
ENERGY: 300000 1.8775 2.5333 7.8220 0.0000 -10510.2135 1449.3568 0.0000 0.0000 1769.6614 -7278.9625 304.3521 -9048.6239 -7333.0528 302.3339 583.2019 737.3932 29799.8200 488.5736 551.3207
ENERGY: 600000 4.6534 5.9253 6.7100 0.0000 -10628.2777 1517.3057 0.0000 0.0000 1737.4939 -7356.1895 298.8198 -9093.6834 -7371.4457 300.6272 748.4732 835.5475 30185.8836 414.1641 470.3120
ENERGY: 900000 3.1982 6.3460 1.5216 0.0000 -10541.2704 1411.2517 0.0000 0.0000 1774.2213 -7344.7317 305.1363 -9118.9530 -7363.2347 301.4272 -233.3216 -93.9326 30191.9546 243.8912 311.1168
ENERGY: 1200000 3.1758 5.9424 8.2895 0.0000 -10513.2299 1391.5681 0.0000 0.0000 1749.5800 -7354.6741 300.8984 -9104.2541 -7368.3824 301.0132 -319.8500 -260.3607 30126.5980 89.3432 155.3911
ENERGY: 1500000 0.8462 5.7581 6.5408 0.0000 -10657.2199 1516.4049 0.0000 0.0000 1719.1930 -7408.4768 295.6723 -9127.6698 -7371.8029 300.8881 873.2801 995.3719 29754.6769 59.8994 135.0834
TCL: Running FEP window  14: Lambda1 0.65   Lambda2 0.7000000000000001 [dLambda 0.050000000000000044]
TCL: Setting parameter firsttimestep to 0
TCL: Setting parameter alchLambda to 0.65
Info: NONBONDED TABLE R-SQUARED SPACING: 0.0625
Info: NONBONDED TABLE SIZE: 705 POINTS
TCL: Setting parameter alchLambda2 to 0.7000000000000001
Info: NONBONDED TABLE R-SQUARED SPACING: 0.0625
Info: NONBONDED TABLE SIZE: 705 POINTS
TCL: Running for 1500000 steps
ETITLE: TS BOND ANGLE DIHED IMPRP ELECT VDW BOUNDARY MISC KINETIC TOTAL TEMP POTENTIAL TOTALAVG TEMPAVG PRESSURE GPRESSURE VOLUME PRESSAVG GPRESSAVG
ENERGY: 0 0.8462 5.7581 6.5408 0.0000 -10657.6095 1516.4233 0.0000 0.0000 1718.3531 -7409.6879 295.5279 -9128.0411 -7409.6879 295.5279 920.6677 1001.2327 29754.6769 920.6677 1001.2327
ENERGY: 300000 6.4761 3.6658 5.4370 0.0000 -10424.0058 1371.2030 0.0000 0.0000 1689.7691 -7347.4547 290.6119 -9037.2238 -7390.5572 296.0146 -289.1786 -261.4584 30417.3960 157.2774 234.1883
ENERGY: 600000 2.8060 3.4630 3.0385 0.0000 -10633.6489 1442.5765 0.0000 0.0000 1742.9602 -7438.8048 299.7599 -9181.7650 -7405.3010 298.4312 -288.2278 -180.4140 30232.3418 134.4048 213.8547
ENERGY: 900000 1.5240 6.7151 6.2457 0.0000 -10506.2200 1374.3311 0.0000 0.0000 1737.4078 -7379.9963 298.8050 -9117.4041 -7408.3705 300.6197 -472.4894 -381.9704 30305.8336 143.4411 226.7739
ENERGY: 1200000 2.6183 4.6120 8.0627 0.0000 -10459.5588 1318.9690 0.0000 0.0000 1782.1047 -7343.1921 306.4921 -9125.2968 -7396.4773 301.3391 -829.1273 -764.0018 30373.8744 108.4872 188.4106
ENERGY: 1500000 4.4716 6.1813 5.2482 0.0000 -10590.9800 1435.8412 0.0000 0.0000 1737.4963 -7401.7415 298.8202 -9139.2378 -7393.8531 301.5410 26.6296 99.4970 30042.3751 73.9089 145.3087
TCL: Running FEP window  15: Lambda1 0.7000000000000001 Lambda2 0.7500000000000001 [dLambda 0.050000000000000044]
TCL: Setting parameter firsttimestep to 0
TCL: Setting parameter alchLambda to 0.7000000000000001
Info: NONBONDED TABLE R-SQUARED SPACING: 0.0625
Info: NONBONDED TABLE SIZE: 705 POINTS
TCL: Setting parameter alchLambda2 to 0.7500000000000001
Info: NONBONDED TABLE R-SQUARED SPACING: 0.0625
Info: NONBONDED TABLE SIZE: 705 POINTS
TCL: Running for 1500000 steps
ETITLE: TS BOND ANGLE DIHED IMPRP ELECT VDW BOUNDARY MISC KINETIC TOTAL TEMP POTENTIAL TOTALAVG TEMPAVG PRESSURE GPRESSURE VOLUME PRESSAVG GPRESSAVG
ENERGY: 0 4.4716 6.1813 5.2482 0.0000 -10591.0682 1435.1517 0.0000 0.0000 1736.6233 -7403.3921 298.6701 -9140.0154 -7403.3921 298.6701 15.7567 101.4592 30042.3751 15.7567 101.4592
ENERGY: 300000 3.6478 2.7042 7.1024 0.0000 -10629.3193 1456.9984 0.0000 0.0000 1736.8518 -7422.0147 298.7094 -9158.8665 -7388.1346 297.0401 81.5591 100.6575 30042.7168 139.3245 172.0380
ENERGY: 600000 4.3854 5.2849 5.8469 0.0000 -10511.6966 1446.9437 0.0000 0.0000 1735.7188 -7313.5168 298.5145 -9049.2356 -7367.9367 297.4471 533.9984 625.4154 29698.2515 295.4600 337.5782
ENERGY: 900000 0.7732 3.6644 6.9920 0.0000 -10498.9530 1362.5381 0.0000 0.0000 1755.4176 -7369.5676 301.9024 -9124.9852 -7361.2242 299.2243 -467.1233 -394.3066 30191.9207 246.8504 295.6507
ENERGY: 1200000 4.2994 7.1273 8.0506 0.0000 -10571.2261 1418.6924 0.0000 0.0000 1774.1220 -7358.9344 305.1192 -9133.0564 -7370.3003 299.0596 52.2068 118.3840 29965.2001 171.4480 230.0371
ENERGY: 1500000 1.5535 7.3513 5.5111 0.0000 -10616.5844 1455.0453 0.0000 0.0000 1763.7540 -7383.3690 303.3361 -9147.1230 -7368.2199 299.6382 315.8276 351.2574 29923.8857 122.0619 180.1990
TCL: Running FEP window  16: Lambda1 0.7500000000000001 Lambda2 0.8000000000000002 [dLambda 0.050000000000000044]
TCL: Setting parameter firsttimestep to 0
TCL: Setting parameter alchLambda to 0.7500000000000001
Info: NONBONDED TABLE R-SQUARED SPACING: 0.0625
Info: NONBONDED TABLE SIZE: 705 POINTS
TCL: Setting parameter alchLambda2 to 0.8000000000000002
Info: NONBONDED TABLE R-SQUARED SPACING: 0.0625
Info: NONBONDED TABLE SIZE: 705 POINTS
TCL: Running for 1500000 steps
ETITLE: TS BOND ANGLE DIHED IMPRP ELECT VDW BOUNDARY MISC KINETIC TOTAL TEMP POTENTIAL TOTALAVG TEMPAVG PRESSURE GPRESSURE VOLUME PRESSAVG GPRESSAVG
ENERGY: 0 1.5535 7.3513 5.5111 0.0000 -10617.0729 1455.6666 0.0000 0.0000 1762.8992 -7384.0911 303.1891 -9146.9903 -7384.0911 303.1891 267.4934 371.9809 29923.8857 267.4934 371.9809
ENERGY: 300000 3.8428 3.5033 7.2811 0.0000 -10423.2306 1286.4355 0.0000 0.0000 1784.6208 -7337.5469 306.9248 -9122.1677 -7350.2027 304.7126 -974.9203 -944.6524 30194.2047 -59.3835 -2.7113
ENERGY: 600000 1.1517 4.7860 5.2161 0.0000 -10670.2061 1420.2110 0.0000 0.0000 1743.2463 -7495.5949 299.8091 -9238.8412 -7404.3344 300.2431 -110.2228 -12.6148 29413.6477 -32.8076 32.8243
ENERGY: 900000 2.6028 9.4140 7.3350 0.0000 -10362.3489 1258.0714 0.0000 0.0000 1739.8129 -7345.1128 299.2186 -9084.9257 -7386.6251 300.9273 -1239.8173 -1127.9053 30061.8404 -79.0477 -3.6867
ENERGY: 1200000 1.6862 4.5719 6.4210 0.0000 -10496.5485 1383.0582 0.0000 0.0000 1766.7053 -7334.1060 303.8437 -9100.8113 -7390.0605 301.4295 -271.2281 -157.0499 29835.0991 -44.1753 33.5721
ENERGY: 1500000 3.3589 6.4299 4.7055 0.0000 -10407.4918 1322.4122 0.0000 0.0000 1750.9125 -7319.6729 301.1276 -9070.5854 -7380.2229 302.3776 -754.9111 -712.4375 30534.2967 -48.6925 26.6651
TCL: Running FEP window  17: Lambda1 0.8000000000000002 Lambda2 0.8500000000000002 [dLambda 0.050000000000000044]
TCL: Setting parameter firsttimestep to 0
TCL: Setting parameter alchLambda to 0.8000000000000002
Info: NONBONDED TABLE R-SQUARED SPACING: 0.0625
Info: NONBONDED TABLE SIZE: 705 POINTS
TCL: Setting parameter alchLambda2 to 0.8500000000000002
Info: NONBONDED TABLE R-SQUARED SPACING: 0.0625
Info: NONBONDED TABLE SIZE: 705 POINTS
TCL: Running for 1500000 steps
ETITLE: TS BOND ANGLE DIHED IMPRP ELECT VDW BOUNDARY MISC KINETIC TOTAL TEMP POTENTIAL TOTALAVG TEMPAVG PRESSURE GPRESSURE VOLUME PRESSAVG GPRESSAVG
ENERGY: 0 3.3589 6.4299 4.7055 0.0000 -10408.2474 1323.1702 0.0000 0.0000 1750.0086 -7320.5744 300.9721 -9070.5831 -7320.5744 300.9721 -772.1660 -695.9938 30534.2967 -772.1660 -695.9938
ENERGY: 300000 2.5049 5.4019 5.4219 0.0000 -10516.0358 1378.8047 0.0000 0.0000 1729.4819 -7394.4205 297.4419 -9123.9024 -7361.0615 299.1104 -570.6895 -480.5367 30613.1796 -499.0388 -414.6583
ENERGY: 600000 4.1535 8.2722 5.9601 0.0000 -10610.9295 1409.4985 0.0000 0.0000 1786.0260 -7397.0193 307.1665 -9183.0453 -7375.4488 300.5000 -359.5690 -294.7659 30432.3033 -486.0055 -390.2315
ENERGY: 900000 2.2547 6.3725 6.9152 0.0000 -10676.5742 1463.3559 0.0000 0.0000 1789.6396 -7408.0364 307.7880 -9197.6760 -7384.9534 299.8658 113.4626 189.3630 30000.5893 -435.3186 -348.2238
ENERGY: 1200000 4.3528 3.6963 8.3449 0.0000 -10538.6324 1418.1989 0.0000 0.0000 1717.1907 -7386.8488 295.3280 -9104.0395 -7379.6425 299.7476 -17.8255 -6.0627 30230.0009 -354.8307 -272.1880
ENERGY: 1500000 1.9374 4.3965 6.4700 0.0000 -10571.7008 1497.2692 0.0000 0.0000 1762.5012 -7299.1265 303.1206 -9061.6277 -7366.7800 300.7181 553.1413 678.8309 30336.8418 -391.4018 -305.6992
TCL: Running FEP window  18: Lambda1 0.8500000000000002 Lambda2 0.9000000000000002 [dLambda 0.050000000000000044]
TCL: Setting parameter firsttimestep to 0
TCL: Setting parameter alchLambda to 0.8500000000000002
Info: NONBONDED TABLE R-SQUARED SPACING: 0.0625
Info: NONBONDED TABLE SIZE: 705 POINTS
TCL: Setting parameter alchLambda2 to 0.9000000000000002
Info: NONBONDED TABLE R-SQUARED SPACING: 0.0625
Info: NONBONDED TABLE SIZE: 705 POINTS
TCL: Running for 1500000 steps
ETITLE: TS BOND ANGLE DIHED IMPRP ELECT VDW BOUNDARY MISC KINETIC TOTAL TEMP POTENTIAL TOTALAVG TEMPAVG PRESSURE GPRESSURE VOLUME PRESSAVG GPRESSAVG
ENERGY: 0 1.9374 4.3965 6.4700 0.0000 -10572.3830 1497.6791 0.0000 0.0000 1761.6522 -7300.2478 302.9746 -9061.9001 -7300.2478 302.9746 623.6441 695.9459 30336.8418 623.6441 695.9459
ENERGY: 300000 5.2593 5.8491 5.9367 0.0000 -10505.9392 1465.9707 0.0000 0.0000 1707.8276 -7315.0958 293.7177 -9022.9235 -7333.4024 301.3325 610.1809 625.5199 30348.9080 507.6883 544.5833
ENERGY: 600000 3.4576 3.0061 5.1891 0.0000 -10683.9167 1499.2668 0.0000 0.0000 1758.8063 -7414.1907 302.4852 -9172.9970 -7380.6517 299.4888 611.3005 758.8734 29914.4435 374.5292 444.1822
ENERGY: 900000 2.2157 3.3202 6.5101 0.0000 -10556.7692 1407.1438 0.0000 0.0000 1783.1356 -7354.4437 306.6694 -9137.5793 -7373.4260 302.0748 -98.1859 -82.5881 30088.3131 314.2154 374.8909
ENERGY: 1200000 2.8522 6.0011 5.2005 0.0000 -10570.8286 1445.4217 0.0000 0.0000 1783.7505 -7327.6027 306.7752 -9111.3532 -7373.9570 302.0499 495.1263 529.0799 29938.4008 319.4906 368.4110
ENERGY: 1500000 4.3719 5.9546 7.5368 0.0000 -10447.5298 1313.9736 0.0000 0.0000 1784.2322 -7331.4607 306.8580 -9115.6929 -7371.8177 302.1399 -1065.9469 -1022.4693 30552.2932 151.7962 201.5745
TCL: Running FEP window  19: Lambda1 0.9000000000000002 Lambda2 0.9500000000000003 [dLambda 0.050000000000000044]
TCL: Setting parameter firsttimestep to 0
TCL: Setting parameter alchLambda to 0.9000000000000002
Info: NONBONDED TABLE R-SQUARED SPACING: 0.0625
Info: NONBONDED TABLE SIZE: 705 POINTS
TCL: Setting parameter alchLambda2 to 0.9500000000000003
Info: NONBONDED TABLE R-SQUARED SPACING: 0.0625
Info: NONBONDED TABLE SIZE: 705 POINTS
TCL: Running for 1500000 steps
ETITLE: TS BOND ANGLE DIHED IMPRP ELECT VDW BOUNDARY MISC KINETIC TOTAL TEMP POTENTIAL TOTALAVG TEMPAVG PRESSURE GPRESSURE VOLUME PRESSAVG GPRESSAVG
ENERGY: 0 4.3719 5.9546 7.5368 0.0000 -10447.7626 1313.7384 0.0000 0.0000 1783.3577 -7332.8033 306.7076 -9116.1610 -7332.8033 306.7076 -1094.7290 -1013.0834 30552.2932 -1094.7290 -1013.0834
ENERGY: 300000 1.5809 4.6536 5.2484 0.0000 -10585.9191 1376.8695 0.0000 0.0000 1768.4499 -7429.1167 304.1437 -9197.5666 -7369.9449 305.2924 -397.4094 -372.3250 29996.9659 -574.4626 -528.9076
ENERGY: 600000 2.2377 5.8592 7.3064 0.0000 -10573.7983 1436.7420 0.0000 0.0000 1699.2112 -7422.4419 292.2358 -9121.6531 -7395.0768 301.3000 298.1373 325.0338 29930.0486 -339.5936 -291.8240
ENERGY: 900000 3.4415 3.9162 6.5470 0.0000 -10558.2566 1332.6516 0.0000 0.0000 1769.8912 -7441.8091 304.3916 -9211.7003 -7401.2561 300.4774 -909.1728 -860.2781 29999.3902 -278.3439 -230.4853
ENERGY: 1200000 4.2967 6.3728 8.5939 0.0000 -10523.2546 1345.0268 0.0000 0.0000 1678.3200 -7480.6444 288.6429 -9158.9644 -7409.4134 299.0524 -898.2548 -873.5505 30484.3749 -330.4555 -276.2775
ENERGY: 1500000 3.5246 5.7442 7.8267 0.0000 -10610.8430 1436.9866 0.0000 0.0000 1751.2859 -7405.4750 301.1918 -9156.7609 -7402.0815 299.6945 34.5390 71.1879 29885.6841 -266.6116 -210.1296
TCL: Running FEP window  20: Lambda1 0.9500000000000003 Lambda2 1.0    [dLambda 0.04999999999999971]
TCL: Setting parameter firsttimestep to 0
TCL: Setting parameter alchLambda to 0.9500000000000003
Info: NONBONDED TABLE R-SQUARED SPACING: 0.0625
Info: NONBONDED TABLE SIZE: 705 POINTS
TCL: Setting parameter alchLambda2 to 1.0
Info: NONBONDED TABLE R-SQUARED SPACING: 0.0625
Info: NONBONDED TABLE SIZE: 705 POINTS
TCL: Running for 1500000 steps
ETITLE: TS BOND ANGLE DIHED IMPRP ELECT VDW BOUNDARY MISC KINETIC TOTAL TEMP POTENTIAL TOTALAVG TEMPAVG PRESSURE GPRESSURE VOLUME PRESSAVG GPRESSAVG
ENERGY: 0 3.5246 5.7442 7.8267 0.0000 -10611.2774 1436.4541 0.0000 0.0000 1750.4189 -7407.3088 301.0427 -9157.7277 -7407.3088 301.0427 2.6918 75.5850 29885.6841 2.6918 75.5850
ENERGY: 300000 4.8427 3.0633 5.0153 0.0000 -10747.1037 1509.0314 0.0000 0.0000 1758.9778 -7466.1731 302.5147 -9225.1510 -7408.3183 301.3322 250.3584 300.8843 29986.5709 -133.3445 -81.7091
ENERGY: 600000 6.0595 4.2895 5.8668 0.0000 -10432.4855 1406.7146 0.0000 0.0000 1766.4437 -7243.1114 303.7987 -9009.5551 -7380.7231 302.0553 88.7065 122.2863 30410.5435 -147.2896 -92.0889
ENERGY: 900000 3.0321 7.8915 3.0560 0.0000 -10663.0543 1476.0787 0.0000 0.0000 1726.7223 -7446.2736 296.9673 -9172.9959 -7395.7181 300.6461 318.9957 358.6994 30105.1398 -30.3688 37.1661
ENERGY: 1200000 5.1429 3.5904 6.8011 0.0000 -10371.2596 1306.2532 0.0000 0.0000 1725.3007 -7324.1713 296.7228 -9049.4720 -7380.9057 300.9375 -741.5527 -626.8660 29880.1143 -76.0787 -7.7349
ENERGY: 1500000 6.4881 9.8356 9.2820 0.0000 -10481.5107 1327.5485 0.0000 0.0000 1761.0137 -7367.3428 302.8648 -9128.3566 -7378.3934 301.6429 -641.1518 -602.1268 29937.3946 -92.4059 -24.4032
TCL: Exiting due to exit command.
