Info: SIMULATION PARAMETERS:
Info: TIMESTEP               2
Info: NUMBER OF STEPS        0
Info: STEPS PER CYCLE        10
Info: PERIODIC CELL BASIS 1  32.381 0 0
Info: PERIODIC CELL BASIS 2  0 30.1758 0
Info: PERIODIC CELL BASIS 3  0 0 31.7297
Info: PERIODIC CELL CENTER   0 0 0
Info: WRAPPING WATERS AROUND PERIODIC BOUNDARIES ON OUTPUT.
Info: WRAPPING ALL CLUSTERS AROUND PERIODIC BOUNDARIES ON OUTPUT.
Info: FIRST LDB TIMESTEP     50
Info: LAST LDB TIMESTEP     -1
Info: HOM BACKGROUND SCALING 1
Info: PME BACKGROUND SCALING 1
Info: MIN ATOMS PER PATCH    40
Info: EMPTY PATCH LOAD       40 ATOMS
Info: VELOCITY FILE          mobley_8208692_equil.vel
Info: CENTER OF MASS MOVING INITIALLY? NO
Info: DIELECTRIC             1
Info: EXCLUDE                SCALED ONE-FOUR
Info: 1-4 ELECTROSTATICS SCALED BY 0.833333
Info: MODIFIED 1-4 VDW PARAMETERS WILL BE USED
Info: DCD FILENAME           mobley_8208692_prod.dcd
Info: DCD FREQUENCY          100000
Info: DCD FIRST STEP         100000
Info: DCD FILE WILL CONTAIN UNIT CELL DATA
Info: XST FILENAME           mobley_8208692_prod.xst
Info: XST FREQUENCY          100000
Info: NO VELOCITY DCD OUTPUT
Info: NO FORCE DCD OUTPUT
Info: OUTPUT FILENAME        mobley_8208692_prod
Info: BINARY OUTPUT FILES WILL BE USED
Info: RESTART FILENAME       mobley_8208692_prod.restart
Info: RESTART FREQUENCY      100000
Info: BINARY RESTART FILES WILL BE USED
Info: CUTOFF                 9
Info: PAIRLIST DISTANCE      11
Info: PAIRLIST SHRINK RATE   0.01
Info: PAIRLIST GROW RATE     0.01
Info: PAIRLIST TRIGGER       0.3
Info: PAIRLISTS PER CYCLE    2
Info: PAIRLISTS ENABLED
Info: MARGIN                 2
Info: HYDROGEN GROUP CUTOFF  2.5
Info: PATCH DIMENSION        15.5
Info: ENERGY OUTPUT STEPS    100000
Info: ENERGY EVALUATION STEPS    100000
Info: OUTPUT ENERGY PRECISION 4
Info: CROSSTERM ENERGY INCLUDED IN DIHEDRAL
Info: TIMING OUTPUT STEPS    1000000
Info: PRESSURE OUTPUT STEPS  100000
Info: ALCHEMICAL FEP ON
Info: FEP CURRENT LAMBDA VALUE     1
Info: FEP COMPARISON LAMBDA VALUE  0.95
Info: FEP INTRA-ALCHEMICAL NON-BONDED INTERACTIONS WILL BE RETAINED
Info: FEP INTRA-ALCHEMICAL BONDED INTERACTIONS WILL BE RETAINED
Info: FEP VDW SHIFTING COEFFICIENT 5
Info: FEP ELEC. ACTIVE FOR ANNIHILATED PARTICLES BETWEEN LAMBDA = 0 AND LAMBDA = 0.5
Info: FEP ELEC. ACTIVE FOR EXNIHILATED PARTICLES BETWEEN LAMBDA = 0.5 AND LAMBDA = 1
Info: FEP VDW ACTIVE FOR ANNIHILATED PARTICLES BETWEEN LAMBDA = 0 AND LAMBDA = 1
Info: FEP VDW ACTIVE FOR EXNIHILATED PARTICLES BETWEEN LAMBDA = 0 AND LAMBDA = 1
Info: FEP BOND ACTIVE FOR ANNIHILATED PARTICLES BETWEEN LAMBDA = 1 AND LAMBDA = 1
Info: FEP BOND ACTIVE FOR EXNIHILATED PARTICLES BETWEEN LAMBDA = 0 AND LAMBDA = 0
Info: LANGEVIN DYNAMICS ACTIVE
Info: LANGEVIN TEMPERATURE   300
Info: LANGEVIN USING BBK INTEGRATOR
Info: LANGEVIN DAMPING COEFFICIENT IS 1 INVERSE PS
Info: LANGEVIN DYNAMICS APPLIED TO HYDROGENS
Info: LANGEVIN PISTON PRESSURE CONTROL ACTIVE
Info:        TARGET PRESSURE IS 1.01325 BAR
Info:     OSCILLATION PERIOD IS 50 FS
Info:             DECAY TIME IS 25 FS
Info:     PISTON TEMPERATURE IS 300 K
Info:       PRESSURE CONTROL IS GROUP-BASED
Info:    INITIAL STRAIN RATE IS -2.82753e-05 -2.82753e-05 -2.82753e-05
Info:       CELL FLUCTUATION IS ISOTROPIC
Info: PARTICLE MESH EWALD (PME) ACTIVE
Info: PME TOLERANCE               1e-06
Info: PME EWALD COEFFICIENT       0.348832
Info: PME INTERPOLATION ORDER     4
Info: PME GRID DIMENSIONS         36 32 32
Info: PME MAXIMUM GRID SPACING    1
Info: PME CALCULATION WILL BE PERFORMED ON GPU
Info: FULL ELECTROSTATIC EVALUATION FREQUENCY      2
Info: USING VERLET I (r-RESPA) MTS SCHEME.
Info: C1 SPLITTING OF LONG RANGE ELECTROSTATICS
Info: PLACING ATOMS IN PATCHES BY HYDROGEN GROUPS
Info: RIGID BONDS TO HYDROGEN : ALL
Info:         ERROR TOLERANCE : 1e-08
Info:          MAX ITERATIONS : 100
Info: RIGID WATER USING SETTLE ALGORITHM
Info: RANDOM NUMBER SEED     1743815729
Info: USE HYDROGEN BONDS?    NO
Info: Using AMBER format force field!
Info: AMBER PARM FILE        mobley_8208692.prmtop
Info: COORDINATE PDB         mobley_8208692.pdb
Info: Exclusions will be read from PARM file!
Info: SCNB (VDW SCALING)     2
Info: USING ARITHMETIC MEAN TO COMBINE L-J SIGMA PARAMETERS
Info: BINARY COORDINATES     mobley_8208692_equil.coor
Info: SUMMARY OF PARAMETERS:
Info: 7 BONDS
Info: 8 ANGLES
Info:   8 HARMONIC
Info:   0 COSINE-BASED
Info: 3 DIHEDRAL
Info: 0 IMPROPER
Info: 0 CROSSTERM
Info: 0 VDW
Info: 15 VDW_PAIRS
Info: 0 NBTHOLE_PAIRS
Info: To read alchdata from file: mobley_8208692.pdb
Info: To read alchflag data from column: 5
Info: STRUCTURE SUMMARY:
Info: 2965 ATOMS
Info: 2966 BONDS
Info: 36 ANGLES
Info: 64 DIHEDRALS
Info: 0 IMPROPERS
Info: 0 CROSSTERMS
Info: 3048 EXCLUSIONS
Info: 2945 RIGID BONDS
Info: ALCH: 0 ATOMS TO DISAPPEAR IN FINAL STATE
Info: ALCH: 22 ATOMS TO APPEAR IN FINAL STATE
Info: 5950 DEGREES OF FREEDOM
Info: 1001 HYDROGEN GROUPS
Info: 3 ATOMS IN LARGEST HYDROGEN GROUP
Info: 1001 MIGRATION GROUPS
Info: 3 ATOMS IN LARGEST MIGRATION GROUP
Info: TOTAL MASS = 18103.4 amu
Info: TOTAL CHARGE = 0.000100007 e
Info: MASS DENSITY = 0.969625 g/cm^3
Info: ATOM DENSITY = 0.0956331 atoms/A^3
Info: ADDED 0 IMPLICIT EXCLUSIONS
Info: NONBONDED TABLE R-SQUARED SPACING: 0.0625
Info: NONBONDED TABLE SIZE: 705 POINTS
Info: REMOVING COM VELOCITY -0.0652594 0.0141758 0.163771
Info: Use 3D box decompostion in PME FFT.
Info: Updated CUDA force table with 4096 elements.
Info: Updated CUDA LJ table with 5 x 5 elements.
Info: Found 21 unique exclusion lists needing 52 bytes
TCL: Running for 1500000 steps
ETITLE: TS BOND ANGLE DIHED IMPRP ELECT VDW BOUNDARY MISC KINETIC TOTAL TEMP POTENTIAL TOTALAVG TEMPAVG PRESSURE GPRESSURE VOLUME PRESSAVG GPRESSAVG
ENERGY: 0 9.0130 1.7110 11.6233 0.0000 -10567.2400 1366.9365 0.0000 0.0000 1735.4810 -7442.4752 293.5576 -9177.9562 -7442.4752 293.5576 -396.2993 -296.4558 31003.9096 -396.2993 -296.4558
ENERGY: 300000 4.4617 8.0509 11.5912 0.0000 -10622.3007 1385.7091 0.0000 0.0000 1750.4390 -7462.0488 296.0877 -9212.4878 -7433.2449 298.8427 -70.8166 43.8780 30355.9753 -95.5871 -2.3403
ENERGY: 600000 1.9913 5.3658 11.6270 0.0000 -10734.0130 1472.6686 0.0000 0.0000 1727.9783 -7514.3821 292.2885 -9242.3604 -7458.7357 298.9402 427.7299 490.6161 30796.9759 -3.9470 78.5937
ENERGY: 900000 6.6998 7.2672 15.1078 0.0000 -10797.2380 1482.3766 0.0000 0.0000 1808.1854 -7477.6013 305.8556 -9285.7867 -7459.0021 299.6111 337.8389 441.9093 30633.6253 62.6397 145.3129
ENERGY: 1200000 3.7537 5.0241 13.4164 0.0000 -10893.4832 1542.2466 0.0000 0.0000 1756.1522 -7572.8902 297.0541 -9329.0425 -7468.3855 299.1028 946.3932 969.9856 30383.9346 128.7010 205.3439
ENERGY: 1500000 6.9527 3.8329 11.8006 0.0000 -10695.1009 1428.1563 0.0000 0.0000 1796.3888 -7447.9696 303.8602 -9244.3584 -7474.5154 299.1800 270.4842 362.5059 30531.5078 113.4503 187.2148
TCL: Running FEP window   2: Lambda1 0.95   Lambda2 0.8999999999999999 [dLambda -0.050000000000000044]
TCL: Setting parameter firsttimestep to 0
TCL: Setting parameter alchLambda to 0.95
Info: NONBONDED TABLE R-SQUARED SPACING: 0.0625
Info: NONBONDED TABLE SIZE: 705 POINTS
TCL: Setting parameter alchLambda2 to 0.8999999999999999
Info: NONBONDED TABLE R-SQUARED SPACING: 0.0625
Info: NONBONDED TABLE SIZE: 705 POINTS
TCL: Running for 1500000 steps
ETITLE: TS BOND ANGLE DIHED IMPRP ELECT VDW BOUNDARY MISC KINETIC TOTAL TEMP POTENTIAL TOTALAVG TEMPAVG PRESSURE GPRESSURE VOLUME PRESSAVG GPRESSAVG
ENERGY: 0 6.9527 3.8329 11.8006 0.0000 -10694.7367 1428.3409 0.0000 0.0000 1795.4943 -7448.3154 303.7088 -9243.8096 -7448.3154 303.7088 244.0386 336.1560 30531.5078 244.0386 336.1560
ENERGY: 300000 3.9206 3.9140 12.6894 0.0000 -10689.0878 1393.9849 0.0000 0.0000 1785.9827 -7488.5962 302.1000 -9274.5789 -7443.1444 303.6602 -239.1759 -163.4257 30541.2499 -32.8796 34.3156
ENERGY: 600000 9.6874 8.1808 10.1239 0.0000 -10708.1038 1471.0739 0.0000 0.0000 1740.3838 -7468.6540 294.3869 -9209.0378 -7451.4283 301.7148 -58.8831 -1.9921 31036.2659 -18.4589 41.5838
ENERGY: 900000 6.2822 3.0241 13.5144 0.0000 -10659.7701 1437.9870 0.0000 0.0000 1759.5144 -7439.4480 297.6228 -9198.9623 -7460.2376 300.7799 380.3419 437.6587 30797.8477 45.7877 108.6113
ENERGY: 1200000 6.3277 4.9715 10.4829 0.0000 -10586.8434 1423.5138 0.0000 0.0000 1819.0580 -7322.4895 307.6947 -9141.5474 -7459.3573 300.9068 405.7074 500.0102 30508.0298 101.9026 164.8150
ENERGY: 1500000 8.5281 4.5583 13.0169 0.0000 -10682.1747 1409.3610 0.0000 0.0000 1755.1170 -7491.5934 296.8790 -9246.7103 -7464.7690 300.1860 -273.5672 -196.0419 30867.2009 -3.8262 58.8800
TCL: Running FEP window   3: Lambda1 0.8999999999999999 Lambda2 0.8499999999999999 [dLambda -0.050000000000000044]
TCL: Setting parameter firsttimestep to 0
TCL: Setting parameter alchLambda to 0.8999999999999999
Info: NONBONDED TABLE R-SQUARED SPACING: 0.0625
Info: NONBONDED TABLE SIZE: 705 POINTS
TCL: Setting parameter alchLambda2 to 0.8499999999999999
Info: NONBONDED TABLE R-SQUARED SPACING: 0.0625
Info: NONBONDED TABLE SIZE: 705 POINTS
TCL: Running for 1500000 steps
ETITLE: TS BOND ANGLE DIHED IMPRP ELECT VDW BOUNDARY MISC KINETIC TOTAL TEMP POTENTIAL TOTALAVG TEMPAVG PRESSURE GPRESSURE VOLUME PRESSAVG GPRESSAVG
ENERGY: 0 8.5281 4.5583 13.0169 0.0000 -10682.0066 1410.2460 0.0000 0.0000 1754.2350 -7491.4223 296.7298 -9245.6572 -7491.4223 296.7298 -280.9667 -206.2864 30867.2009 -280.9667 -206.2864
ENERGY: 300000 3.5420 5.5307 10.9486 0.0000 -10874.0943 1519.5442 0.0000 0.0000 1755.0207 -7579.5082 296.8627 -9334.5288 -7504.7387 298.4628 842.5977 881.4533 30094.1745 266.0598 327.1366
ENERGY: 600000 9.2126 3.5034 12.9939 0.0000 -10756.1977 1431.5774 0.0000 0.0000 1754.9311 -7543.9793 296.8476 -9298.9104 -7488.3806 299.8216 -26.2256 -41.3384 30928.6114 197.7868 249.0242
ENERGY: 900000 6.4449 5.7679 13.1916 0.0000 -10639.2975 1356.9871 0.0000 0.0000 1810.6736 -7446.2324 306.2764 -9256.9060 -7464.8845 301.6983 -355.1395 -292.0898 30752.1918 66.7967 120.8600
ENERGY: 1200000 6.3593 4.3393 14.0686 0.0000 -10707.1542 1441.6934 0.0000 0.0000 1770.3473 -7470.3462 299.4552 -9240.6935 -7459.8039 301.3161 226.0789 294.7299 30733.5107 35.1038 87.5464
ENERGY: 1500000 6.2577 4.6937 12.3797 0.0000 -10694.3098 1465.5777 0.0000 0.0000 1757.1968 -7448.2042 297.2308 -9205.4009 -7456.6310 300.7258 339.0152 381.4643 31079.4333 18.6781 77.2180
TCL: Running FEP window   4: Lambda1 0.8499999999999999 Lambda2 0.7999999999999998 [dLambda -0.050000000000000044]
TCL: Setting parameter firsttimestep to 0
TCL: Setting parameter alchLambda to 0.8499999999999999
Info: NONBONDED TABLE R-SQUARED SPACING: 0.0625
Info: NONBONDED TABLE SIZE: 705 POINTS
TCL: Setting parameter alchLambda2 to 0.7999999999999998
Info: NONBONDED TABLE R-SQUARED SPACING: 0.0625
Info: NONBONDED TABLE SIZE: 705 POINTS
TCL: Running for 1500000 steps
ETITLE: TS BOND ANGLE DIHED IMPRP ELECT VDW BOUNDARY MISC KINETIC TOTAL TEMP POTENTIAL TOTALAVG TEMPAVG PRESSURE GPRESSURE VOLUME PRESSAVG GPRESSAVG
ENERGY: 0 6.2577 4.6937 12.3797 0.0000 -10693.8486 1466.3545 0.0000 0.0000 1756.3088 -7447.8542 297.0806 -9204.1630 -7447.8542 297.0806 304.0873 370.2939 31079.4333 304.0873 370.2939
ENERGY: 300000 9.4178 5.3430 12.3040 0.0000 -10690.3651 1417.5717 0.0000 0.0000 1764.4226 -7481.3060 298.4531 -9245.7286 -7447.1013 301.1459 -216.2518 -212.4941 30798.3783 -76.4237 -19.5540
ENERGY: 600000 3.2153 5.2855 14.6834 0.0000 -10645.6416 1385.6295 0.0000 0.0000 1781.1857 -7455.6422 301.2885 -9236.8279 -7452.1030 301.0441 -392.8896 -333.7414 30885.5641 -117.8391 -58.3662
ENERGY: 900000 9.3874 5.0836 16.7953 0.0000 -10776.8578 1530.0966 0.0000 0.0000 1717.5519 -7497.9429 290.5249 -9215.4948 -7462.6717 299.3412 638.0768 667.3412 30899.4771 -27.6620 29.7080
ENERGY: 1200000 5.1559 3.0165 14.0462 0.0000 -10666.9151 1417.7964 0.0000 0.0000 1771.3923 -7455.5078 299.6320 -9226.9001 -7463.9564 299.5048 -88.9493 20.0352 31189.0454 -9.5416 50.3029
ENERGY: 1500000 8.0826 3.4995 16.7798 0.0000 -10765.6477 1391.8126 0.0000 0.0000 1783.3494 -7562.1238 301.6545 -9345.4733 -7467.0455 299.9211 -355.7274 -285.1669 30154.5739 -76.1136 -19.3247
TCL: Running FEP window   5: Lambda1 0.7999999999999998 Lambda2 0.7499999999999998 [dLambda -0.050000000000000044]
TCL: Setting parameter firsttimestep to 0
TCL: Setting parameter alchLambda to 0.7999999999999998
Info: NONBONDED TABLE R-SQUARED SPACING: 0.0625
Info: NONBONDED TABLE SIZE: 705 POINTS
TCL: Setting parameter alchLambda2 to 0.7499999999999998
Info: NONBONDED TABLE R-SQUARED SPACING: 0.0625
Info: NONBONDED TABLE SIZE: 705 POINTS
TCL: Running for 1500000 steps
ETITLE: TS BOND ANGLE DIHED IMPRP ELECT VDW BOUNDARY MISC KINETIC TOTAL TEMP POTENTIAL TOTALAVG TEMPAVG PRESSURE GPRESSURE VOLUME PRESSAVG GPRESSAVG
ENERGY: 0 8.0827 3.4995 16.7798 0.0000 -10765.4774 1392.9191 0.0000 0.0000 1782.5099 -7561.6864 301.5125 -9344.1963 -7561.6864 301.5125 -360.0502 -293.7412 30154.5739 -360.0502 -293.7412
ENERGY: 300000 11.8651 5.5593 11.3767 0.0000 -10722.5533 1411.0901 0.0000 0.0000 1765.1239 -7517.5382 298.5717 -9282.6621 -7514.4628 302.6243 -244.3478 -177.1424 30436.7007 -253.1255 -192.7707
ENERGY: 600000 9.3883 4.1914 10.1573 0.0000 -10638.5260 1378.1541 0.0000 0.0000 1777.4391 -7459.1959 300.6548 -9236.6350 -7506.4567 300.2880 -630.2962 -585.5210 30778.1582 -237.8687 -185.0001
ENERGY: 900000 3.7310 7.0173 10.4308 0.0000 -10788.8065 1444.4157 0.0000 0.0000 1746.2203 -7576.9914 295.3741 -9323.2117 -7501.5464 298.9519 59.0732 72.8404 30839.4181 -49.8796 -0.4540
ENERGY: 1200000 7.9517 4.1140 12.1350 0.0000 -10689.7775 1463.0366 0.0000 0.0000 1762.9229 -7439.6172 298.1994 -9202.5401 -7490.9237 297.7891 35.9906 94.3163 30901.6405 20.4573 63.9640
ENERGY: 1500000 5.9534 5.9550 12.2941 0.0000 -10727.7647 1460.0102 0.0000 0.0000 1808.4903 -7435.0616 305.9071 -9243.5519 -7485.5210 298.8367 658.7022 742.0259 30133.9652 -11.3670 33.6720
TCL: Running FEP window   6: Lambda1 0.7499999999999998 Lambda2 0.6999999999999997 [dLambda -0.050000000000000044]
TCL: Setting parameter firsttimestep to 0
TCL: Setting parameter alchLambda to 0.7499999999999998
Info: NONBONDED TABLE R-SQUARED SPACING: 0.0625
Info: NONBONDED TABLE SIZE: 705 POINTS
TCL: Setting parameter alchLambda2 to 0.6999999999999997
Info: NONBONDED TABLE R-SQUARED SPACING: 0.0625
Info: NONBONDED TABLE SIZE: 705 POINTS
TCL: Running for 1500000 steps
ETITLE: TS BOND ANGLE DIHED IMPRP ELECT VDW BOUNDARY MISC KINETIC TOTAL TEMP POTENTIAL TOTALAVG TEMPAVG PRESSURE GPRESSURE VOLUME PRESSAVG GPRESSAVG
ENERGY: 0 5.9534 5.9550 12.2941 0.0000 -10727.6076 1460.7371 0.0000 0.0000 1807.6303 -7435.0377 305.7617 -9242.6680 -7435.0377 305.7617 646.4018 731.1801 30133.9652 646.4018 731.1801
ENERGY: 300000 7.3418 7.5872 13.8696 0.0000 -10637.0750 1418.2865 0.0000 0.0000 1775.8399 -7414.1499 300.3843 -9189.9898 -7448.8488 300.6316 86.8028 110.1420 30806.4653 440.4386 500.9359
ENERGY: 600000 8.3463 3.8825 13.6229 0.0000 -10720.9515 1473.7633 0.0000 0.0000 1808.2121 -7413.1243 305.8601 -9221.3364 -7452.3896 301.8150 484.6526 526.9796 30799.9901 403.2158 461.1575
ENERGY: 900000 5.0630 7.9618 15.7400 0.0000 -10826.5508 1447.3679 0.0000 0.0000 1776.1737 -7574.2443 300.4408 -9350.4181 -7478.5068 301.7234 -56.7674 -82.9492 30696.5326 465.6013 514.4418
ENERGY: 1200000 3.5794 7.9828 13.2175 0.0000 -10837.9949 1504.5639 0.0000 0.0000 1775.5521 -7533.0993 300.3356 -9308.6514 -7482.6119 301.4163 306.6203 312.6585 30602.9002 388.2978 437.6108
ENERGY: 1500000 6.3021 2.6298 14.6541 0.0000 -10670.1254 1402.1964 0.0000 0.0000 1745.8177 -7498.5253 295.3060 -9244.3430 -7485.5288 300.6464 -336.3952 -242.2114 31130.5280 335.5543 388.3358
TCL: Running FEP window   7: Lambda1 0.6999999999999997 Lambda2 0.6499999999999997 [dLambda -0.050000000000000044]
TCL: Setting parameter firsttimestep to 0
TCL: Setting parameter alchLambda to 0.6999999999999997
Info: NONBONDED TABLE R-SQUARED SPACING: 0.0625
Info: NONBONDED TABLE SIZE: 705 POINTS
TCL: Setting parameter alchLambda2 to 0.6499999999999997
Info: NONBONDED TABLE R-SQUARED SPACING: 0.0625
Info: NONBONDED TABLE SIZE: 705 POINTS
TCL: Running for 1500000 steps
ETITLE: TS BOND ANGLE DIHED IMPRP ELECT VDW BOUNDARY MISC KINETIC TOTAL TEMP POTENTIAL TOTALAVG TEMPAVG PRESSURE GPRESSURE VOLUME PRESSAVG GPRESSAVG
ENERGY: 0 6.3021 2.6298 14.6541 0.0000 -10669.7778 1402.1639 0.0000 0.0000 1744.9595 -7499.0684 295.1609 -9244.0279 -7499.0684 295.1609 -349.8590 -255.4864 31130.5280 -349.8590 -255.4864
ENERGY: 300000 6.6215 4.2874 15.2847 0.0000 -10688.5724 1436.2838 0.0000 0.0000 1771.0245 -7455.0705 299.5698 -9226.0950 -7464.6036 298.4601 160.1712 179.1971 30797.7682 252.4458 285.7026
ENERGY: 600000 4.3812 3.9107 11.4397 0.0000 -10602.7834 1375.6814 0.0000 0.0000 1733.0150 -7474.3553 293.1404 -9207.3703 -7471.3997 298.3619 -484.3358 -465.2324 30934.4809 27.7154 71.6607
ENERGY: 900000 6.7038 8.3982 12.6204 0.0000 -10661.2309 1378.1094 0.0000 0.0000 1847.7038 -7407.6953 312.5401 -9255.3991 -7461.3774 301.0253 -262.6525 -254.1567 30498.5854 -99.0308 -46.4175
ENERGY: 1200000 3.6327 5.9552 15.0932 0.0000 -10661.7528 1407.9118 0.0000 0.0000 1752.1103 -7477.0495 296.3704 -9229.1598 -7475.1009 300.2176 -276.0622 -231.5560 30762.5030 -116.4098 -64.3003
ENERGY: 1500000 11.3591 4.2565 11.2030 0.0000 -10649.6962 1449.8883 0.0000 0.0000 1801.0365 -7371.9529 304.6463 -9172.9894 -7467.6721 300.5252 17.8019 80.4766 31158.8439 -97.7566 -47.3927
TCL: Running FEP window   8: Lambda1 0.6499999999999997 Lambda2 0.5999999999999996 [dLambda -0.050000000000000044]
TCL: Setting parameter firsttimestep to 0
TCL: Setting parameter alchLambda to 0.6499999999999997
Info: NONBONDED TABLE R-SQUARED SPACING: 0.0625
Info: NONBONDED TABLE SIZE: 705 POINTS
TCL: Setting parameter alchLambda2 to 0.5999999999999996
Info: NONBONDED TABLE R-SQUARED SPACING: 0.0625
Info: NONBONDED TABLE SIZE: 705 POINTS
TCL: Running for 1500000 steps
ETITLE: TS BOND ANGLE DIHED IMPRP ELECT VDW BOUNDARY MISC KINETIC TOTAL TEMP POTENTIAL TOTALAVG TEMPAVG PRESSURE GPRESSURE VOLUME PRESSAVG GPRESSAVG
ENERGY: 0 11.3591 4.2565 11.2030 0.0000 -10649.7280 1450.1149 0.0000 0.0000 1800.1358 -7372.6586 304.4940 -9172.7945 -7372.6586 304.4940 -15.3654 68.2433 31158.8439 -15.3654 68.2433
ENERGY: 300000 6.0618 5.8306 12.4274 0.0000 -10785.6929 1451.4675 0.0000 0.0000 1817.9764 -7491.9291 307.5117 -9309.9056 -7447.0429 302.3653 -145.6566 -50.8378 30388.8323 -33.3096 52.8989
ENERGY: 600000 8.8678 3.3104 11.8567 0.0000 -10862.1618 1570.6553 0.0000 0.0000 1834.6539 -7432.8175 310.3327 -9267.4715 -7451.2620 305.1321 883.1731 947.0583 30752.9591 131.0970 209.2175
ENERGY: 900000 11.2450 5.1912 13.6082 0.0000 -10607.0318 1415.0972 0.0000 0.0000 1785.1246 -7376.7656 301.9548 -9161.8902 -7440.0532 304.6198 -345.9657 -211.2415 30783.3345 -49.3692 35.0379
ENERGY: 1200000 6.8472 2.5580 13.4634 0.0000 -10808.5958 1465.0079 0.0000 0.0000 1777.2870 -7543.4323 300.6291 -9320.7193 -7452.4426 303.7694 119.0687 192.0405 30496.4671 48.2839 123.8918
ENERGY: 1500000 2.3492 5.1422 18.2515 0.0000 -10581.6639 1299.6735 0.0000 0.0000 1730.8106 -7525.4369 292.7676 -9256.2476 -7454.0260 302.8123 -1100.6489 -1048.4571 30563.9740 -7.4820 62.6788
TCL: Running FEP window   9: Lambda1 0.5999999999999996 Lambda2 0.5499999999999996 [dLambda -0.050000000000000044]
TCL: Setting parameter firsttimestep to 0
TCL: Setting parameter alchLambda to 0.5999999999999996
Info: NONBONDED TABLE R-SQUARED SPACING: 0.0625
Info: NONBONDED TABLE SIZE: 705 POINTS
TCL: Setting parameter alchLambda2 to 0.5499999999999996
Info: NONBONDED TABLE R-SQUARED SPACING: 0.0625
Info: NONBONDED TABLE SIZE: 705 POINTS
TCL: Running for 1500000 steps
ETITLE: TS BOND ANGLE DIHED IMPRP ELECT VDW BOUNDARY MISC KINETIC TOTAL TEMP POTENTIAL TOTALAVG TEMPAVG PRESSURE GPRESSURE VOLUME PRESSAVG GPRESSAVG
ENERGY: 0 2.3492 5.1422 18.2515 0.0000 -10581.6069 1300.3341 0.0000 0.0000 1729.9439 -7525.5860 292.6210 -9255.5299 -7525.5860 292.6210 -1134.5270 -1057.5098 30563.9740 -1134.5270 -1057.5098
ENERGY: 300000 8.1725 5.2831 14.6688 0.0000 -10639.0980 1414.9256 0.0000 0.0000 1754.7336 -7441.3144 296.8142 -9196.0480 -7509.1396 293.4150 -7.8086 24.0447 30403.3896 -233.9834 -190.5531
ENERGY: 600000 6.0859 4.2149 14.3247 0.0000 -10699.8045 1396.1993 0.0000 0.0000 1824.2351 -7454.7446 308.5704 -9278.9797 -7486.2939 296.7577 -229.2089 -183.0253 30658.9746 -182.7543 -137.7190
ENERGY: 900000 6.9747 5.5858 12.6935 0.0000 -10672.6536 1370.1860 0.0000 0.0000 1739.0210 -7538.1927 294.1564 -9277.2136 -7484.8375 298.1484 -801.5774 -731.9013 30694.0976 -322.0437 -273.6926
ENERGY: 1200000 9.0495 4.2719 12.1810 0.0000 -10762.6597 1498.7378 0.0000 0.0000 1829.7163 -7408.7032 309.4975 -9238.4195 -7470.0859 299.8204 535.9913 654.1196 30333.5306 -99.1119 -47.1031
ENERGY: 1500000 8.6244 6.2525 14.7477 0.0000 -10596.9356 1343.2702 0.0000 0.0000 1814.7418 -7409.2990 306.9646 -9224.0408 -7470.1832 299.3154 -848.0830 -778.9471 30752.5718 -145.6226 -88.6780
TCL: Running FEP window  10: Lambda1 0.5499999999999996 Lambda2 0.4999999999999996 [dLambda -0.04999999999999999]
TCL: Setting parameter firsttimestep to 0
TCL: Setting parameter alchLambda to 0.5499999999999996
Info: NONBONDED TABLE R-SQUARED SPACING: 0.0625
Info: NONBONDED TABLE SIZE: 705 POINTS
TCL: Setting parameter alchLambda2 to 0.4999999999999996
Info: NONBONDED TABLE R-SQUARED SPACING: 0.0625
Info: NONBONDED TABLE SIZE: 705 POINTS
TCL: Running for 1500000 steps
ETITLE: TS BOND ANGLE DIHED IMPRP ELECT VDW BOUNDARY MISC KINETIC TOTAL TEMP POTENTIAL TOTALAVG TEMPAVG PRESSURE GPRESSURE VOLUME PRESSAVG GPRESSAVG
ENERGY: 0 8.6244 6.2525 14.7477 0.0000 -10596.9068 1343.9351 0.0000 0.0000 1813.8434 -7409.5037 306.8126 -9223.3471 -7409.5037 306.8126 -872.1298 -787.4568 30752.5718 -872.1298 -787.4568
ENERGY: 300000 7.9923 4.7534 12.0598 0.0000 -10688.1499 1429.1052 0.0000 0.0000 1749.9717 -7484.2674 296.0087 -9234.2391 -7453.9561 302.6096 -189.4270 -101.3451 30539.2981 -230.6264 -176.7554
ENERGY: 600000 9.5484 3.4739 15.4849 0.0000 -10603.8002 1417.5803 0.0000 0.0000 1737.4062 -7420.3064 293.8832 -9157.7127 -7467.1074 299.3211 -74.0806 -12.2815 30850.3728 -150.7816 -100.4670
ENERGY: 900000 5.9037 3.6298 10.9611 0.0000 -10601.6111 1353.2881 0.0000 0.0000 1734.9821 -7492.8462 293.4732 -9227.8283 -7482.1701 297.5530 -902.2912 -836.5037 30908.9178 -257.6164 -197.4348
ENERGY: 1200000 6.6682 2.5003 12.8233 0.0000 -10926.4534 1591.5094 0.0000 0.0000 1731.4475 -7581.5047 292.8753 -9312.9522 -7501.5699 296.6859 1447.3465 1467.0989 30068.9098 -61.0117 2.3491
ENERGY: 1500000 11.1014 3.0371 16.9020 0.0000 -10737.2895 1462.0506 0.0000 0.0000 1776.0074 -7468.1911 300.4126 -9244.1984 -7494.4908 297.1048 -84.6410 -60.3526 30730.0983 -26.3678 29.9044
TCL: Running FEP window  11: Lambda1 0.4999999999999996 Lambda2 0.4499999999999996 [dLambda -0.04999999999999999]
TCL: Setting parameter firsttimestep to 0
TCL: Setting parameter alchLambda to 0.4999999999999996
Info: NONBONDED TABLE R-SQUARED SPACING: 0.0625
Info: NONBONDED TABLE SIZE: 705 POINTS
TCL: Setting parameter alchLambda2 to 0.4499999999999996
Info: NONBONDED TABLE R-SQUARED SPACING: 0.0625
Info: NONBONDED TABLE SIZE: 705 POINTS
TCL: Running for 1500000 steps
ETITLE: TS BOND ANGLE DIHED IMPRP ELECT VDW BOUNDARY MISC KINETIC TOTAL TEMP POTENTIAL TOTALAVG TEMPAVG PRESSURE GPRESSURE VOLUME PRESSAVG GPRESSAVG
ENERGY: 0 11.1014 3.0371 16.9020 0.0000 -10737.0306 1462.0025 0.0000 0.0000 1775.1417 -7468.8460 300.2662 -9243.9877 -7468.8460 300.2662 -157.3721 -74.6833 30730.0983 -157.3721 -74.6833
ENERGY: 300000 7.9240 6.8039 14.8575 0.0000 -10782.8136 1511.5393 0.0000 0.0000 1809.3712 -7432.3177 306.0561 -9241.6889 -7479.1860 301.0170 290.0554 431.1963 30791.7766 -2.0905 92.7316
ENERGY: 600000 6.2938 3.4962 11.8923 0.0000 -10581.8240 1351.6345 0.0000 0.0000 1754.7330 -7453.7743 296.8141 -9208.5073 -7466.5384 301.3056 -703.3044 -601.5501 30833.2534 -71.2778 16.6745
ENERGY: 900000 6.2651 2.9607 14.3112 0.0000 -10630.3111 1432.2260 0.0000 0.0000 1806.3999 -7368.1482 305.5535 -9174.5480 -7467.2740 301.5559 13.3970 14.6345 31165.2726 -95.9338 -21.8363
ENERGY: 1200000 3.9986 6.3044 12.0338 0.0000 -10809.5371 1523.2759 0.0000 0.0000 1784.8056 -7479.1189 301.9008 -9263.9245 -7477.6271 300.6656 551.3386 581.6154 30277.2467 -40.4074 34.2870
ENERGY: 1500000 4.6067 3.2821 12.0098 0.0000 -10619.4493 1448.1540 0.0000 0.0000 1744.0054 -7407.3913 294.9995 -9151.3967 -7464.7465 300.5286 279.7014 313.1137 30820.5143 17.5437 91.5481
TCL: Running FEP window  12: Lambda1 0.4499999999999996 Lambda2 0.39999999999999963 [dLambda -0.04999999999999999]
TCL: Setting parameter firsttimestep to 0
TCL: Setting parameter alchLambda to 0.4499999999999996
Info: NONBONDED TABLE R-SQUARED SPACING: 0.0625
Info: NONBONDED TABLE SIZE: 705 POINTS
TCL: Setting parameter alchLambda2 to 0.39999999999999963
Info: NONBONDED TABLE R-SQUARED SPACING: 0.0625
Info: NONBONDED TABLE SIZE: 705 POINTS
TCL: Running for 1500000 steps
ETITLE: TS BOND ANGLE DIHED IMPRP ELECT VDW BOUNDARY MISC KINETIC TOTAL TEMP POTENTIAL TOTALAVG TEMPAVG PRESSURE GPRESSURE VOLUME PRESSAVG GPRESSAVG
ENERGY: 0 4.6067 3.2821 12.0098 0.0000 -10619.4493 1448.7967 0.0000 0.0000 1743.0869 -7407.6672 294.8441 -9150.7540 -7407.6672 294.8441 236.7495 305.7139 30820.5143 236.7495 305.7139
ENERGY: 300000 7.8200 4.3574 14.2269 0.0000 -10728.6120 1430.6073 0.0000 0.0000 1783.0470 -7488.5535 301.6034 -9271.6005 -7447.8615 297.4493 37.6726 74.6639 30747.1584 -270.4736 -188.8037
ENERGY: 600000 10.7897 3.4252 14.4537 0.0000 -10680.7329 1408.2567 0.0000 0.0000 1757.1745 -7486.6331 297.2270 -9243.8076 -7480.1388 298.7163 -556.5254 -509.2519 31048.7415 -402.0906 -327.3209
ENERGY: 900000 11.4245 7.4632 13.3871 0.0000 -10684.1083 1396.8168 0.0000 0.0000 1726.6065 -7528.4102 292.0564 -9255.0167 -7467.4712 298.6747 -877.2813 -903.2648 31099.0430 -408.2228 -345.5105
ENERGY: 1200000 8.8799 5.3044 12.2482 0.0000 -10949.4682 1615.4240 0.0000 0.0000 1727.3615 -7580.2502 292.1842 -9307.6117 -7483.5583 297.8414 1124.1557 1207.7328 30562.1396 -229.9665 -164.8914
ENERGY: 1500000 8.4701 4.5906 14.3265 0.0000 -10702.7277 1492.9863 0.0000 0.0000 1732.4404 -7449.9138 293.0432 -9182.3542 -7473.6335 297.9096 359.5099 457.8230 30741.7817 -243.8332 -179.4660
TCL: Running FEP window  13: Lambda1 0.39999999999999963 Lambda2 0.34999999999999964 [dLambda -0.04999999999999999]
TCL: Setting parameter firsttimestep to 0
TCL: Setting parameter alchLambda to 0.39999999999999963
Info: NONBONDED TABLE R-SQUARED SPACING: 0.0625
Info: NONBONDED TABLE SIZE: 705 POINTS
TCL: Setting parameter alchLambda2 to 0.34999999999999964
Info: NONBONDED TABLE R-SQUARED SPACING: 0.0625
Info: NONBONDED TABLE SIZE: 705 POINTS
TCL: Running for 1500000 steps
ETITLE: TS BOND ANGLE DIHED IMPRP ELECT VDW BOUNDARY MISC KINETIC TOTAL TEMP POTENTIAL TOTALAVG TEMPAVG PRESSURE GPRESSURE VOLUME PRESSAVG GPRESSAVG
ENERGY: 0 8.4701 4.5906 14.3265 0.0000 -10702.7286 1493.6302 0.0000 0.0000 1731.5763 -7450.1349 292.8971 -9181.7112 -7450.1349 292.8971 364.5316 447.7979 30741.7817 364.5316 447.7979
ENERGY: 300000 7.9481 6.9963 13.9838 0.0000 -10691.7530 1453.5435 0.0000 0.0000 1805.3271 -7403.9543 305.3721 -9209.2814 -7446.5537 298.2990 106.1704 225.1764 30726.7327 -45.9760 47.8922
ENERGY: 600000 7.6606 4.1388 11.3661 0.0000 -10783.9904 1496.4018 0.0000 0.0000 1760.4065 -7504.0167 297.7737 -9264.4232 -7446.9534 298.5532 538.1660 563.1044 30496.0483 -121.8097 -41.2955
ENERGY: 900000 10.1563 7.1719 14.2661 0.0000 -10479.2658 1369.9382 0.0000 0.0000 1726.4641 -7351.2693 292.0324 -9077.7333 -7434.2008 298.1320 6.4840 97.4212 30735.4446 -140.5990 -68.3275
ENERGY: 1200000 5.1460 5.6115 12.2249 0.0000 -10697.3861 1436.3363 0.0000 0.0000 1768.8518 -7469.2156 299.2023 -9238.0674 -7439.5763 298.4982 -138.1013 -24.1057 30279.1977 -73.7103 -1.0655
ENERGY: 1500000 6.8858 2.7412 12.3174 0.0000 -10725.1029 1453.0324 0.0000 0.0000 1758.7581 -7491.3680 297.4949 -9250.1261 -7446.4492 298.1132 -159.6294 -84.4164 30773.5646 -82.1562 -16.5724
TCL: Running FEP window  14: Lambda1 0.34999999999999964 Lambda2 0.29999999999999966 [dLambda -0.04999999999999999]
TCL: Setting parameter firsttimestep to 0
TCL: Setting parameter alchLambda to 0.34999999999999964
Info: NONBONDED TABLE R-SQUARED SPACING: 0.0625
Info: NONBONDED TABLE SIZE: 705 POINTS
TCL: Setting parameter alchLambda2 to 0.29999999999999966
Info: NONBONDED TABLE R-SQUARED SPACING: 0.0625
Info: NONBONDED TABLE SIZE: 705 POINTS
TCL: Running for 1500000 steps
ETITLE: TS BOND ANGLE DIHED IMPRP ELECT VDW BOUNDARY MISC KINETIC TOTAL TEMP POTENTIAL TOTALAVG TEMPAVG PRESSURE GPRESSURE VOLUME PRESSAVG GPRESSAVG
ENERGY: 0 6.8858 2.7412 12.3174 0.0000 -10725.1024 1452.9184 0.0000 0.0000 1757.9144 -7492.3253 297.3522 -9250.2396 -7492.3253 297.3522 -195.6145 -97.6432 30773.5646 -195.6145 -97.6432
ENERGY: 300000 5.9927 4.6372 14.1999 0.0000 -10720.7836 1441.4685 0.0000 0.0000 1789.0314 -7465.4539 302.6156 -9254.4853 -7463.1607 300.2920 -236.9079 -146.7878 30620.1963 -406.2631 -342.1676
ENERGY: 600000 13.7684 6.6500 14.6112 0.0000 -10672.9787 1423.9894 0.0000 0.0000 1767.9478 -7446.0121 299.0493 -9213.9598 -7465.5511 299.9217 2.9939 62.6191 30313.6700 -220.1335 -156.5968
ENERGY: 900000 6.2068 5.9025 12.0452 0.0000 -10733.4981 1428.9238 0.0000 0.0000 1837.5440 -7442.8758 310.8216 -9280.4198 -7458.3779 300.3397 -253.3937 -245.6736 30548.2330 -73.2643 -21.2123
ENERGY: 1200000 5.8655 2.6313 11.3061 0.0000 -10610.9231 1342.6616 0.0000 0.0000 1762.8390 -7485.6196 298.1852 -9248.4586 -7447.3735 300.3634 -640.8873 -588.7846 30388.4823 -129.9420 -79.4156
ENERGY: 1500000 5.1849 7.7906 11.8711 0.0000 -10777.2101 1467.8016 0.0000 0.0000 1755.7625 -7528.7993 296.9882 -9284.5619 -7445.0694 300.5493 149.9623 198.6235 30421.1959 -56.6645 -2.1709
TCL: Running FEP window  15: Lambda1 0.29999999999999966 Lambda2 0.24999999999999967 [dLambda -0.04999999999999999]
TCL: Setting parameter firsttimestep to 0
TCL: Setting parameter alchLambda to 0.29999999999999966
Info: NONBONDED TABLE R-SQUARED SPACING: 0.0625
Info: NONBONDED TABLE SIZE: 705 POINTS
TCL: Setting parameter alchLambda2 to 0.24999999999999967
Info: NONBONDED TABLE R-SQUARED SPACING: 0.0625
Info: NONBONDED TABLE SIZE: 705 POINTS
TCL: Running for 1500000 steps
ETITLE: TS BOND ANGLE DIHED IMPRP ELECT VDW BOUNDARY MISC KINETIC TOTAL TEMP POTENTIAL TOTALAVG TEMPAVG PRESSURE GPRESSURE VOLUME PRESSAVG GPRESSAVG
ENERGY: 0 5.1849 7.7906 11.8711 0.0000 -10777.2089 1468.0206 0.0000 0.0000 1754.9070 -7529.4347 296.8435 -9284.3418 -7529.4347 296.8435 92.3939 188.6701 30421.1959 92.3939 188.6701
ENERGY: 300000 6.7333 3.6909 10.0918 0.0000 -10567.4630 1475.3658 0.0000 0.0000 1779.2165 -7292.3647 300.9555 -9071.5812 -7436.0611 298.6297 634.6305 694.1406 30709.5425 -104.8708 -27.9853
ENERGY: 600000 10.0351 3.7940 12.8539 0.0000 -10659.6601 1401.3945 0.0000 0.0000 1769.9126 -7461.6700 299.3817 -9231.5827 -7444.1796 299.8592 -762.9003 -754.4478 30857.4234 -158.5803 -87.7977
ENERGY: 900000 6.8115 6.1706 10.5210 0.0000 -10693.8759 1445.0336 0.0000 0.0000 1802.7135 -7422.6256 304.9300 -9225.3392 -7447.5920 300.9882 -24.9944 -3.4423 30710.8405 -45.3688 28.6124
ENERGY: 1200000 4.2605 4.9217 12.7698 0.0000 -10774.0535 1480.8008 0.0000 0.0000 1806.1606 -7465.1402 305.5131 -9271.3008 -7448.3310 302.1066 307.4358 356.2725 30096.6524 18.5843 83.1561
ENERGY: 1500000 7.9480 7.2072 10.8430 0.0000 -10652.1226 1377.1088 0.0000 0.0000 1757.2472 -7491.7684 297.2393 -9249.0156 -7452.2384 300.6057 -715.2228 -640.7196 30991.1319 -61.2581 -2.6819
TCL: Running FEP window  16: Lambda1 0.24999999999999967 Lambda2 0.19999999999999968 [dLambda -0.04999999999999999]
TCL: Setting parameter firsttimestep to 0
TCL: Setting parameter alchLambda to 0.24999999999999967
Info: NONBONDED TABLE R-SQUARED SPACING: 0.0625
Info: NONBONDED TABLE SIZE: 705 POINTS
TCL: Setting parameter alchLambda2 to 0.19999999999999968
Info: NONBONDED TABLE R-SQUARED SPACING: 0.0625
Info: NONBONDED TABLE SIZE: 705 POINTS
TCL: Running for 1500000 steps
ETITLE: TS BOND ANGLE DIHED IMPRP ELECT VDW BOUNDARY MISC KINETIC TOTAL TEMP POTENTIAL TOTALAVG TEMPAVG PRESSURE GPRESSURE VOLUME PRESSAVG GPRESSAVG
ENERGY: 0 7.9480 7.2072 10.8430 0.0000 -10652.1220 1377.4759 0.0000 0.0000 1756.3746 -7492.2734 297.0917 -9248.6480 -7492.2734 297.0917 -720.0649 -644.4416 30991.1319 -720.0649 -644.4416
ENERGY: 300000 5.9766 2.6039 11.4073 0.0000 -10632.0804 1400.8275 0.0000 0.0000 1824.5058 -7386.7593 308.6162 -9211.2651 -7467.5951 299.9437 -201.8231 -173.6262 30566.9638 -251.5418 -203.0789
ENERGY: 600000 5.8581 5.0910 12.9113 0.0000 -10702.1098 1456.6106 0.0000 0.0000 1767.3017 -7454.3371 298.9401 -9221.6388 -7448.7849 300.8586 453.2789 568.7398 29881.4965 -107.7080 -42.9956
ENERGY: 900000 6.3352 5.1512 14.0499 0.0000 -10695.9572 1431.9985 0.0000 0.0000 1755.4615 -7482.9609 296.9373 -9238.4224 -7460.3925 299.3761 -264.1014 -207.6307 30646.1031 -175.1597 -99.2094
ENERGY: 1200000 5.2456 4.4685 10.5954 0.0000 -10762.6798 1502.3465 0.0000 0.0000 1808.9468 -7431.0770 305.9843 -9240.0238 -7458.8178 299.7809 266.9514 273.8002 30809.1616 -183.4257 -113.9119
ENERGY: 1500000 11.3580 3.9904 10.1892 0.0000 -10592.5666 1370.6346 0.0000 0.0000 1777.2456 -7419.1489 300.6221 -9196.3945 -7458.6299 300.2280 -939.4564 -945.9459 31213.0929 -188.7940 -125.0086
TCL: Running FEP window  17: Lambda1 0.19999999999999968 Lambda2 0.1499999999999997 [dLambda -0.04999999999999999]
TCL: Setting parameter firsttimestep to 0
TCL: Setting parameter alchLambda to 0.19999999999999968
Info: NONBONDED TABLE R-SQUARED SPACING: 0.0625
Info: NONBONDED TABLE SIZE: 705 POINTS
TCL: Setting parameter alchLambda2 to 0.1499999999999997
Info: NONBONDED TABLE R-SQUARED SPACING: 0.0625
Info: NONBONDED TABLE SIZE: 705 POINTS
TCL: Running for 1500000 steps
ETITLE: TS BOND ANGLE DIHED IMPRP ELECT VDW BOUNDARY MISC KINETIC TOTAL TEMP POTENTIAL TOTALAVG TEMPAVG PRESSURE GPRESSURE VOLUME PRESSAVG GPRESSAVG
ENERGY: 0 11.3580 3.9904 10.1892 0.0000 -10592.5671 1371.0284 0.0000 0.0000 1776.3362 -7419.6649 300.4682 -9196.0011 -7419.6649 300.4682 -1029.9165 -952.9457 31213.0929 -1029.9165 -952.9457
ENERGY: 300000 7.6592 3.8083 19.1009 0.0000 -10792.8032 1534.7513 0.0000 0.0000 1753.4703 -7474.0132 296.6005 -9227.4835 -7429.8629 300.5296 636.8651 739.5795 30342.7398 -363.8219 -291.8447
ENERGY: 600000 5.1338 4.5087 16.6329 0.0000 -10553.0591 1414.4013 0.0000 0.0000 1771.2088 -7341.1736 299.6009 -9112.3825 -7409.8017 301.5387 147.7426 237.8628 30347.3538 -89.7436 -14.1335
ENERGY: 900000 6.3024 3.8616 12.3970 0.0000 -10664.5914 1422.0936 0.0000 0.0000 1796.7370 -7423.1997 303.9191 -9219.9367 -7412.2596 302.3128 -136.1338 -154.8036 30264.5395 -77.5573 -13.6667
ENERGY: 1200000 7.5768 3.0087 14.9952 0.0000 -10677.0161 1388.3767 0.0000 0.0000 1808.2626 -7454.7961 305.8686 -9263.0586 -7430.3098 301.7091 -715.3021 -682.2658 31019.3016 -98.3802 -42.4479
ENERGY: 1500000 8.8659 6.8839 16.1266 0.0000 -10748.2826 1485.4623 0.0000 0.0000 1785.4589 -7445.4850 302.0114 -9230.9440 -7447.1538 301.5477 465.3631 493.9362 30224.8468 -56.4148 -2.1842
TCL: Running FEP window  18: Lambda1 0.1499999999999997 Lambda2 0.09999999999999969 [dLambda -0.05 ]
TCL: Setting parameter firsttimestep to 0
TCL: Setting parameter alchLambda to 0.1499999999999997
Info: NONBONDED TABLE R-SQUARED SPACING: 0.0625
Info: NONBONDED TABLE SIZE: 705 POINTS
TCL: Setting parameter alchLambda2 to 0.09999999999999969
Info: NONBONDED TABLE R-SQUARED SPACING: 0.0625
Info: NONBONDED TABLE SIZE: 705 POINTS
TCL: Running for 1500000 steps
ETITLE: TS BOND ANGLE DIHED IMPRP ELECT VDW BOUNDARY MISC KINETIC TOTAL TEMP POTENTIAL TOTALAVG TEMPAVG PRESSURE GPRESSURE VOLUME PRESSAVG GPRESSAVG
ENERGY: 0 8.8659 6.8839 16.1266 0.0000 -10748.2815 1486.3853 0.0000 0.0000 1784.5517 -7445.4682 301.8579 -9230.0199 -7445.4682 301.8579 398.9741 493.2416 30224.8468 398.9741 493.2416
ENERGY: 300000 7.7260 4.7605 18.5214 0.0000 -10625.5724 1413.9998 0.0000 0.0000 1734.3519 -7446.2127 293.3666 -9180.5647 -7478.0098 296.2326 -430.9803 -378.9878 31084.3826 -230.1565 -154.5312
ENERGY: 600000 7.6311 2.3232 14.0430 0.0000 -10570.9477 1297.9569 0.0000 0.0000 1772.3116 -7476.6819 299.7875 -9248.9935 -7473.7231 298.6166 -1488.4950 -1382.3837 30839.6781 -309.9824 -238.2751
ENERGY: 900000 4.7865 3.3489 13.4468 0.0000 -10767.2849 1462.6255 0.0000 0.0000 1739.2927 -7543.7847 294.2023 -9283.0774 -7468.0672 299.9191 -149.4866 -61.3791 30772.6233 -240.8915 -178.8277
ENERGY: 1200000 9.8382 3.8381 12.1431 0.0000 -10699.8568 1487.1624 0.0000 0.0000 1761.8662 -7425.0089 298.0206 -9186.8751 -7457.3233 300.2820 302.6935 337.9715 30384.7653 -175.7090 -111.2044
ENERGY: 1500000 13.3238 7.1346 12.5279 0.0000 -10621.5324 1339.7659 0.0000 0.0000 1795.2800 -7453.5002 303.6726 -9248.7802 -7450.0403 300.5610 -648.7135 -598.8227 30024.9514 -158.1698 -98.0250
TCL: Running FEP window  19: Lambda1 0.09999999999999969 Lambda2 0.049999999999999684 [dLambda -0.05 ]
TCL: Setting parameter firsttimestep to 0
TCL: Setting parameter alchLambda to 0.09999999999999969
Info: NONBONDED TABLE R-SQUARED SPACING: 0.0625
Info: NONBONDED TABLE SIZE: 705 POINTS
TCL: Setting parameter alchLambda2 to 0.049999999999999684
Info: NONBONDED TABLE R-SQUARED SPACING: 0.0625
Info: NONBONDED TABLE SIZE: 705 POINTS
TCL: Running for 1500000 steps
ETITLE: TS BOND ANGLE DIHED IMPRP ELECT VDW BOUNDARY MISC KINETIC TOTAL TEMP POTENTIAL TOTALAVG TEMPAVG PRESSURE GPRESSURE VOLUME PRESSAVG GPRESSAVG
ENERGY: 0 13.3238 7.1346 12.5279 0.0000 -10621.5315 1339.7991 0.0000 0.0000 1794.4233 -7454.3229 303.5277 -9248.7462 -7454.3229 303.5277 -686.7016 -606.7785 30024.9514 -686.7016 -606.7785
ENERGY: 300000 8.5067 6.0884 12.7737 0.0000 -10523.3879 1302.3198 0.0000 0.0000 1800.9611 -7392.7382 304.6336 -9193.6993 -7464.2551 299.4525 -1224.5380 -1090.0536 30509.1288 -331.3603 -244.7884
ENERGY: 600000 3.2633 5.8767 13.5064 0.0000 -10811.9697 1484.6837 0.0000 0.0000 1716.4014 -7588.2382 290.3303 -9304.6397 -7487.9426 298.1826 -80.0607 16.4700 30332.8080 -198.6573 -127.6330
ENERGY: 900000 8.1513 5.7423 11.2623 0.0000 -10742.1344 1439.7550 0.0000 0.0000 1719.3753 -7557.8481 290.8333 -9277.2235 -7494.7319 299.2908 -553.6555 -400.8381 30650.2051 -251.5334 -169.8392
ENERGY: 1200000 8.6100 4.4831 12.5932 0.0000 -10638.3347 1390.2275 0.0000 0.0000 1809.0256 -7413.3953 305.9977 -9222.4209 -7474.6842 299.4514 -138.8670 -68.5401 29894.3946 -210.5280 -132.1850
ENERGY: 1500000 6.4092 7.6464 9.6770 0.0000 -10665.6545 1446.8313 0.0000 0.0000 1778.4740 -7416.6166 300.8299 -9195.0906 -7478.5251 299.2725 76.4217 105.1550 30527.4765 -140.1874 -64.4886
TCL: Running FEP window  20: Lambda1 0.049999999999999684 Lambda2 0.0    [dLambda -0.049999999999999684]
TCL: Setting parameter firsttimestep to 0
TCL: Setting parameter alchLambda to 0.049999999999999684
Info: NONBONDED TABLE R-SQUARED SPACING: 0.0625
Info: NONBONDED TABLE SIZE: 705 POINTS
TCL: Setting parameter alchLambda2 to 0.0
Info: NONBONDED TABLE R-SQUARED SPACING: 0.0625
Info: NONBONDED TABLE SIZE: 705 POINTS
TCL: Running for 1500000 steps
ETITLE: TS BOND ANGLE DIHED IMPRP ELECT VDW BOUNDARY MISC KINETIC TOTAL TEMP POTENTIAL TOTALAVG TEMPAVG PRESSURE GPRESSURE VOLUME PRESSAVG GPRESSAVG
ENERGY: 0 6.4092 7.6464 9.6770 0.0000 -10665.6556 1445.7949 0.0000 0.0000 1777.5746 -7418.5535 300.6777 -9196.1281 -7418.5535 300.6777 12.2419 94.0709 30527.4765 12.2419 94.0709
ENERGY: 300000 11.0294 3.6921 12.4508 0.0000 -10668.1426 1417.9835 0.0000 0.0000 1798.4910 -7424.4958 304.2158 -9222.9868 -7439.0562 301.5287 -420.0601 -345.3331 30130.9767 -272.6407 -185.2441
ENERGY: 600000 4.9418 5.6836 15.1019 0.0000 -10673.5102 1457.4152 0.0000 0.0000 1755.2549 -7435.1127 296.9023 -9190.3676 -7457.8200 299.0833 237.3421 348.7536 30130.3698 -302.7686 -216.8351
ENERGY: 900000 5.7252 6.6783 12.2584 0.0000 -10783.6724 1460.6246 0.0000 0.0000 1806.2188 -7492.1671 305.5229 -9298.3859 -7467.9215 299.2997 -223.2233 -132.9331 30361.2510 -296.7426 -215.3709
ENERGY: 1200000 10.5509 3.8499 13.6321 0.0000 -10687.1627 1386.3475 0.0000 0.0000 1731.9025 -7540.8797 292.9523 -9272.7823 -7476.6934 299.1806 -1002.9304 -895.3648 30472.9372 -317.1512 -238.4935
ENERGY: 1500000 6.2154 5.1802 15.9779 0.0000 -10689.2008 1395.3935 0.0000 0.0000 1763.3218 -7503.1120 298.2669 -9266.4338 -7480.1544 298.6681 -624.2522 -546.4151 30199.8424 -274.3615 -200.0072
TCL: Exiting due to exit command.
