Info: SIMULATION PARAMETERS:
Info: TIMESTEP               2
Info: NUMBER OF STEPS        0
Info: STEPS PER CYCLE        10
Info: PERIODIC CELL BASIS 1  30.2069 0 0
Info: PERIODIC CELL BASIS 2  0 32.4632 0
Info: PERIODIC CELL BASIS 3  0 0 31.5457
Info: PERIODIC CELL CENTER   0 0 0
Info: WRAPPING WATERS AROUND PERIODIC BOUNDARIES ON OUTPUT.
Info: WRAPPING ALL CLUSTERS AROUND PERIODIC BOUNDARIES ON OUTPUT.
Info: FIRST LDB TIMESTEP     50
Info: LAST LDB TIMESTEP     -1
Info: HOM BACKGROUND SCALING 1
Info: PME BACKGROUND SCALING 1
Info: MIN ATOMS PER PATCH    40
Info: EMPTY PATCH LOAD       40 ATOMS
Info: VELOCITY FILE          mobley_6917738_equil.vel
Info: CENTER OF MASS MOVING INITIALLY? NO
Info: DIELECTRIC             1
Info: EXCLUDE                SCALED ONE-FOUR
Info: 1-4 ELECTROSTATICS SCALED BY 0.833333
Info: MODIFIED 1-4 VDW PARAMETERS WILL BE USED
Info: DCD FILENAME           mobley_6917738_prod.dcd
Info: DCD FREQUENCY          100000
Info: DCD FIRST STEP         100000
Info: DCD FILE WILL CONTAIN UNIT CELL DATA
Info: XST FILENAME           mobley_6917738_prod.xst
Info: XST FREQUENCY          100000
Info: NO VELOCITY DCD OUTPUT
Info: NO FORCE DCD OUTPUT
Info: OUTPUT FILENAME        mobley_6917738_prod
Info: BINARY OUTPUT FILES WILL BE USED
Info: RESTART FILENAME       mobley_6917738_prod.restart
Info: RESTART FREQUENCY      100000
Info: BINARY RESTART FILES WILL BE USED
Info: CUTOFF                 9
Info: PAIRLIST DISTANCE      11
Info: PAIRLIST SHRINK RATE   0.01
Info: PAIRLIST GROW RATE     0.01
Info: PAIRLIST TRIGGER       0.3
Info: PAIRLISTS PER CYCLE    2
Info: PAIRLISTS ENABLED
Info: MARGIN                 2
Info: HYDROGEN GROUP CUTOFF  2.5
Info: PATCH DIMENSION        15.5
Info: ENERGY OUTPUT STEPS    100000
Info: ENERGY EVALUATION STEPS    100000
Info: OUTPUT ENERGY PRECISION 4
Info: CROSSTERM ENERGY INCLUDED IN DIHEDRAL
Info: TIMING OUTPUT STEPS    1000000
Info: PRESSURE OUTPUT STEPS  100000
Info: ALCHEMICAL FEP ON
Info: FEP CURRENT LAMBDA VALUE     1
Info: FEP COMPARISON LAMBDA VALUE  0.95
Info: FEP INTRA-ALCHEMICAL NON-BONDED INTERACTIONS WILL BE RETAINED
Info: FEP INTRA-ALCHEMICAL BONDED INTERACTIONS WILL BE RETAINED
Info: FEP VDW SHIFTING COEFFICIENT 5
Info: FEP ELEC. ACTIVE FOR ANNIHILATED PARTICLES BETWEEN LAMBDA = 0 AND LAMBDA = 0.5
Info: FEP ELEC. ACTIVE FOR EXNIHILATED PARTICLES BETWEEN LAMBDA = 0.5 AND LAMBDA = 1
Info: FEP VDW ACTIVE FOR ANNIHILATED PARTICLES BETWEEN LAMBDA = 0 AND LAMBDA = 1
Info: FEP VDW ACTIVE FOR EXNIHILATED PARTICLES BETWEEN LAMBDA = 0 AND LAMBDA = 1
Info: FEP BOND ACTIVE FOR ANNIHILATED PARTICLES BETWEEN LAMBDA = 1 AND LAMBDA = 1
Info: FEP BOND ACTIVE FOR EXNIHILATED PARTICLES BETWEEN LAMBDA = 0 AND LAMBDA = 0
Info: LANGEVIN DYNAMICS ACTIVE
Info: LANGEVIN TEMPERATURE   300
Info: LANGEVIN USING BBK INTEGRATOR
Info: LANGEVIN DAMPING COEFFICIENT IS 1 INVERSE PS
Info: LANGEVIN DYNAMICS APPLIED TO HYDROGENS
Info: LANGEVIN PISTON PRESSURE CONTROL ACTIVE
Info:        TARGET PRESSURE IS 1.01325 BAR
Info:     OSCILLATION PERIOD IS 50 FS
Info:             DECAY TIME IS 25 FS
Info:     PISTON TEMPERATURE IS 300 K
Info:       PRESSURE CONTROL IS GROUP-BASED
Info:    INITIAL STRAIN RATE IS 0.000538862 0.000538862 0.000538862
Info:       CELL FLUCTUATION IS ISOTROPIC
Info: PARTICLE MESH EWALD (PME) ACTIVE
Info: PME TOLERANCE               1e-06
Info: PME EWALD COEFFICIENT       0.348832
Info: PME INTERPOLATION ORDER     4
Info: PME GRID DIMENSIONS         32 36 32
Info: PME MAXIMUM GRID SPACING    1
Info: PME CALCULATION WILL BE PERFORMED ON GPU
Info: FULL ELECTROSTATIC EVALUATION FREQUENCY      2
Info: USING VERLET I (r-RESPA) MTS SCHEME.
Info: C1 SPLITTING OF LONG RANGE ELECTROSTATICS
Info: PLACING ATOMS IN PATCHES BY HYDROGEN GROUPS
Info: RIGID BONDS TO HYDROGEN : ALL
Info:         ERROR TOLERANCE : 1e-08
Info:          MAX ITERATIONS : 100
Info: RIGID WATER USING SETTLE ALGORITHM
Info: RANDOM NUMBER SEED     1743830906
Info: USE HYDROGEN BONDS?    NO
Info: Using AMBER format force field!
Info: AMBER PARM FILE        mobley_6917738.prmtop
Info: COORDINATE PDB         mobley_6917738.pdb
Info: Exclusions will be read from PARM file!
Info: SCNB (VDW SCALING)     2
Info: USING ARITHMETIC MEAN TO COMBINE L-J SIGMA PARAMETERS
Info: BINARY COORDINATES     mobley_6917738_equil.coor
Info: SUMMARY OF PARAMETERS:
Info: 7 BONDS
Info: 9 ANGLES
Info:   9 HARMONIC
Info:   0 COSINE-BASED
Info: 7 DIHEDRAL
Info: 0 IMPROPER
Info: 0 CROSSTERM
Info: 0 VDW
Info: 28 VDW_PAIRS
Info: 0 NBTHOLE_PAIRS
Info: To read alchdata from file: mobley_6917738.pdb
Info: To read alchflag data from column: 5
Info: STRUCTURE SUMMARY:
Info: 2984 ATOMS
Info: 2983 BONDS
Info: 22 ANGLES
Info: 24 DIHEDRALS
Info: 0 IMPROPERS
Info: 0 CROSSTERMS
Info: 3026 EXCLUSIONS
Info: 2979 RIGID BONDS
Info: ALCH: 0 ATOMS TO DISAPPEAR IN FINAL STATE
Info: ALCH: 14 ATOMS TO APPEAR IN FINAL STATE
Info: 5973 DEGREES OF FREEDOM
Info: 995 HYDROGEN GROUPS
Info: 4 ATOMS IN LARGEST HYDROGEN GROUP
Info: 995 MIGRATION GROUPS
Info: 4 ATOMS IN LARGEST MIGRATION GROUP
Info: TOTAL MASS = 17911 amu
Info: TOTAL CHARGE = 0.000300065 e
Info: MASS DENSITY = 0.961481 g/cm^3
Info: ATOM DENSITY = 0.0964632 atoms/A^3
Info: ADDED 0 IMPLICIT EXCLUSIONS
Info: NONBONDED TABLE R-SQUARED SPACING: 0.0625
Info: NONBONDED TABLE SIZE: 705 POINTS
Info: REMOVING COM VELOCITY -0.213964 0.105084 0.0101691
Info: Use 3D box decompostion in PME FFT.
Info: Updated CUDA force table with 4096 elements.
Info: Updated CUDA LJ table with 7 x 7 elements.
Info: Found 17 unique exclusion lists needing 32 bytes
TCL: Running for 1500000 steps
ETITLE: TS BOND ANGLE DIHED IMPRP ELECT VDW BOUNDARY MISC KINETIC TOTAL TEMP POTENTIAL TOTALAVG TEMPAVG PRESSURE GPRESSURE VOLUME PRESSAVG GPRESSAVG
ENERGY: 0 1.6507 5.1458 2.6223 0.0000 -10817.8232 1498.8993 0.0000 0.0000 1827.4171 -7482.0880 307.9183 -9309.5051 -7482.0880 307.9183 287.4797 356.9161 30934.0825 287.4797 356.9161
ENERGY: 300000 2.7856 4.6520 1.0649 0.0000 -10694.8213 1378.6675 0.0000 0.0000 1750.1147 -7557.5366 294.8929 -9307.6513 -7529.4659 304.3452 -640.0015 -595.2746 30910.7392 -127.7950 -75.8216
ENERGY: 600000 2.6706 9.5388 1.0629 0.0000 -10765.8145 1427.2395 0.0000 0.0000 1759.2510 -7566.0515 296.4324 -9325.3026 -7550.9372 302.5412 -186.3356 -73.5491 30515.9512 -346.8152 -282.2551
ENERGY: 900000 0.8623 5.1068 1.4425 0.0000 -10839.1151 1469.1959 0.0000 0.0000 1818.1005 -7544.4070 306.3485 -9362.5076 -7553.9225 303.0343 24.4204 48.8626 30992.2672 -221.7047 -164.7189
ENERGY: 1200000 0.9388 5.0250 1.5254 0.0000 -10846.2681 1473.0169 0.0000 0.0000 1775.2505 -7590.5115 299.1283 -9365.7620 -7558.4508 302.8291 220.5903 245.0070 30506.5126 -147.5532 -93.7075
ENERGY: 1500000 1.3849 3.4866 3.1895 0.0000 -10894.1328 1441.3041 0.0000 0.0000 1801.0386 -7643.7291 303.4736 -9444.7677 -7564.5776 302.4549 -279.0707 -199.4214 30434.2176 -154.4805 -96.8707
TCL: Running FEP window   2: Lambda1 0.95   Lambda2 0.8999999999999999 [dLambda -0.050000000000000044]
TCL: Setting parameter firsttimestep to 0
TCL: Setting parameter alchLambda to 0.95
Info: NONBONDED TABLE R-SQUARED SPACING: 0.0625
Info: NONBONDED TABLE SIZE: 705 POINTS
TCL: Setting parameter alchLambda2 to 0.8999999999999999
Info: NONBONDED TABLE R-SQUARED SPACING: 0.0625
Info: NONBONDED TABLE SIZE: 705 POINTS
TCL: Running for 1500000 steps
ETITLE: TS BOND ANGLE DIHED IMPRP ELECT VDW BOUNDARY MISC KINETIC TOTAL TEMP POTENTIAL TOTALAVG TEMPAVG PRESSURE GPRESSURE VOLUME PRESSAVG GPRESSAVG
ENERGY: 0 1.3849 3.4866 3.1895 0.0000 -10892.6960 1441.2412 0.0000 0.0000 1800.1350 -7643.2587 303.3213 -9443.3937 -7643.2587 303.3213 -300.9665 -209.5268 30434.2176 -300.9665 -209.5268
ENERGY: 300000 0.5867 9.1360 5.1650 0.0000 -10714.2289 1443.7939 0.0000 0.0000 1804.5209 -7451.0264 304.0603 -9255.5473 -7572.3312 298.9654 -40.2597 24.1024 31334.6933 7.1679 65.1027
ENERGY: 600000 0.4539 6.5031 1.5263 0.0000 -10710.1840 1410.6642 0.0000 0.0000 1786.3938 -7504.6426 301.0060 -9291.0364 -7552.3220 299.7219 -465.3206 -353.1597 31044.1906 -170.2352 -103.0138
ENERGY: 900000 1.0273 5.9747 2.7714 0.0000 -10647.3387 1374.6048 0.0000 0.0000 1835.2059 -7427.7547 309.2307 -9262.9606 -7535.5905 300.4241 -326.1084 -236.1869 31071.8687 -218.8174 -146.7880
ENERGY: 1200000 1.3059 4.7655 3.9413 0.0000 -10784.3516 1476.7648 0.0000 0.0000 1782.9124 -7514.6617 300.4193 -9297.5741 -7537.3950 300.2405 71.7550 165.9343 30739.5091 -219.1627 -151.9243
ENERGY: 1500000 0.7636 5.2813 3.3914 0.0000 -10655.2704 1415.8828 0.0000 0.0000 1856.3529 -7373.5984 312.7940 -9229.9513 -7527.1716 300.5844 -184.5311 -94.9663 31043.5749 -283.9960 -215.5282
TCL: Running FEP window   3: Lambda1 0.8999999999999999 Lambda2 0.8499999999999999 [dLambda -0.050000000000000044]
TCL: Setting parameter firsttimestep to 0
TCL: Setting parameter alchLambda to 0.8999999999999999
Info: NONBONDED TABLE R-SQUARED SPACING: 0.0625
Info: NONBONDED TABLE SIZE: 705 POINTS
TCL: Setting parameter alchLambda2 to 0.8499999999999999
Info: NONBONDED TABLE R-SQUARED SPACING: 0.0625
Info: NONBONDED TABLE SIZE: 705 POINTS
TCL: Running for 1500000 steps
ETITLE: TS BOND ANGLE DIHED IMPRP ELECT VDW BOUNDARY MISC KINETIC TOTAL TEMP POTENTIAL TOTALAVG TEMPAVG PRESSURE GPRESSURE VOLUME PRESSAVG GPRESSAVG
ENERGY: 0 0.7636 5.2813 3.3914 0.0000 -10653.4750 1415.2870 0.0000 0.0000 1855.4809 -7373.2708 312.6471 -9228.7516 -7373.2708 312.6471 -191.5313 -106.2434 31043.5749 -191.5313 -106.2434
ENERGY: 300000 1.4116 8.0948 0.8737 0.0000 -10756.6346 1417.3717 0.0000 0.0000 1769.3193 -7559.5636 298.1289 -9328.8828 -7554.4164 301.2083 -15.0389 80.5269 30214.4692 -185.3581 -103.1900
ENERGY: 600000 1.9169 7.1342 1.5013 0.0000 -10881.6160 1526.3919 0.0000 0.0000 1739.4059 -7605.2658 293.0885 -9344.6717 -7536.6488 302.7708 766.1979 795.7893 30324.5584 -185.5410 -112.3803
ENERGY: 900000 2.4360 10.7371 1.2819 0.0000 -10770.4379 1445.7165 0.0000 0.0000 1766.8455 -7543.4210 297.7121 -9310.2665 -7549.6161 301.2862 -623.6300 -585.3543 31796.6136 -184.2239 -118.1631
ENERGY: 1200000 0.8811 5.3969 2.6707 0.0000 -10832.4554 1470.4561 0.0000 0.0000 1801.1090 -7551.9416 303.4854 -9353.0506 -7567.3946 301.0611 380.9556 355.1616 30354.0515 -80.3008 -24.6477
ENERGY: 1500000 0.6578 2.9799 0.9416 0.0000 -10847.5118 1427.8702 0.0000 0.0000 1737.7965 -7677.2659 292.8173 -9415.0624 -7571.3664 299.9147 -528.2218 -407.9381 30690.4723 -128.6586 -72.9306
TCL: Running FEP window   4: Lambda1 0.8499999999999999 Lambda2 0.7999999999999998 [dLambda -0.050000000000000044]
TCL: Setting parameter firsttimestep to 0
TCL: Setting parameter alchLambda to 0.8499999999999999
Info: NONBONDED TABLE R-SQUARED SPACING: 0.0625
Info: NONBONDED TABLE SIZE: 705 POINTS
TCL: Setting parameter alchLambda2 to 0.7999999999999998
Info: NONBONDED TABLE R-SQUARED SPACING: 0.0625
Info: NONBONDED TABLE SIZE: 705 POINTS
TCL: Running for 1500000 steps
ETITLE: TS BOND ANGLE DIHED IMPRP ELECT VDW BOUNDARY MISC KINETIC TOTAL TEMP POTENTIAL TOTALAVG TEMPAVG PRESSURE GPRESSURE VOLUME PRESSAVG GPRESSAVG
ENERGY: 0 0.6578 2.9799 0.9416 0.0000 -10846.1022 1427.0288 0.0000 0.0000 1736.9002 -7677.5939 292.6663 -9414.4941 -7677.5939 292.6663 -500.7904 -424.4320 30690.4723 -500.7904 -424.4320
ENERGY: 300000 0.8823 7.6497 0.7886 0.0000 -10879.3895 1475.7553 0.0000 0.0000 1811.1891 -7583.1244 305.1839 -9394.3135 -7607.6434 296.2577 131.3675 89.5858 30633.0888 -140.9756 -118.0790
ENERGY: 600000 2.6018 4.7804 2.2085 0.0000 -10807.0995 1497.6224 0.0000 0.0000 1805.0641 -7494.8223 304.1519 -9299.8864 -7571.6157 298.0818 50.2323 77.3567 31370.0575 -369.1168 -339.7053
ENERGY: 900000 2.4130 4.5780 1.5456 0.0000 -10918.5175 1481.7811 0.0000 0.0000 1750.5901 -7677.6096 294.9731 -9428.1998 -7581.8907 297.5306 165.7838 182.5905 30185.6092 -264.3359 -226.5635
ENERGY: 1200000 0.5043 7.5941 2.4364 0.0000 -10792.0917 1443.8644 0.0000 0.0000 1777.0117 -7560.6808 299.4251 -9337.6925 -7565.5742 298.5439 -313.8846 -236.6301 31098.6174 -321.3060 -280.1584
ENERGY: 1500000 2.0577 5.6112 1.2612 0.0000 -10895.5204 1542.8245 0.0000 0.0000 1755.3520 -7588.4137 295.7754 -9343.7657 -7570.6363 298.3236 416.3649 504.7414 30958.5635 -245.7872 -201.5280
TCL: Running FEP window   5: Lambda1 0.7999999999999998 Lambda2 0.7499999999999998 [dLambda -0.050000000000000044]
TCL: Setting parameter firsttimestep to 0
TCL: Setting parameter alchLambda to 0.7999999999999998
Info: NONBONDED TABLE R-SQUARED SPACING: 0.0625
Info: NONBONDED TABLE SIZE: 705 POINTS
TCL: Setting parameter alchLambda2 to 0.7499999999999998
Info: NONBONDED TABLE R-SQUARED SPACING: 0.0625
Info: NONBONDED TABLE SIZE: 705 POINTS
TCL: Running for 1500000 steps
ETITLE: TS BOND ANGLE DIHED IMPRP ELECT VDW BOUNDARY MISC KINETIC TOTAL TEMP POTENTIAL TOTALAVG TEMPAVG PRESSURE GPRESSURE VOLUME PRESSAVG GPRESSAVG
ENERGY: 0 2.0577 5.6112 1.2612 0.0000 -10894.3977 1542.3507 0.0000 0.0000 1754.4699 -7588.6468 295.6268 -9343.1167 -7588.6468 295.6268 413.0676 497.4722 30958.5635 413.0676 497.4722
ENERGY: 300000 0.7769 4.5190 1.4927 0.0000 -10878.8374 1498.7134 0.0000 0.0000 1738.6919 -7634.6435 292.9682 -9373.3354 -7613.9190 295.4673 179.5658 253.2698 30846.7650 188.3022 264.8858
ENERGY: 600000 1.3299 6.9429 1.3630 0.0000 -10872.9506 1511.4323 0.0000 0.0000 1833.7830 -7518.0995 308.9910 -9351.8825 -7587.1760 298.8832 722.1309 704.8143 30175.4669 199.5796 250.0993
ENERGY: 900000 1.7800 7.7468 1.4390 0.0000 -10804.0615 1425.7179 0.0000 0.0000 1739.7702 -7627.6076 293.1499 -9367.3778 -7573.8147 299.3887 -450.0355 -283.0868 30842.9344 146.6379 219.3368
ENERGY: 1200000 4.2381 5.0949 3.9380 0.0000 -10858.9094 1488.3799 0.0000 0.0000 1769.1485 -7588.1098 298.1001 -9357.2583 -7572.0475 299.9962 -56.1507 54.2567 30850.5044 218.5857 291.0515
ENERGY: 1500000 4.0042 4.7713 0.9578 0.0000 -10738.8035 1436.3519 0.0000 0.0000 1781.6153 -7511.1029 300.2008 -9292.7182 -7567.6198 300.8853 10.4012 82.5848 30675.3646 188.2712 260.4375
TCL: Running FEP window   6: Lambda1 0.7499999999999998 Lambda2 0.6999999999999997 [dLambda -0.050000000000000044]
TCL: Setting parameter firsttimestep to 0
TCL: Setting parameter alchLambda to 0.7499999999999998
Info: NONBONDED TABLE R-SQUARED SPACING: 0.0625
Info: NONBONDED TABLE SIZE: 705 POINTS
TCL: Setting parameter alchLambda2 to 0.6999999999999997
Info: NONBONDED TABLE R-SQUARED SPACING: 0.0625
Info: NONBONDED TABLE SIZE: 705 POINTS
TCL: Running for 1500000 steps
ETITLE: TS BOND ANGLE DIHED IMPRP ELECT VDW BOUNDARY MISC KINETIC TOTAL TEMP POTENTIAL TOTALAVG TEMPAVG PRESSURE GPRESSURE VOLUME PRESSAVG GPRESSAVG
ENERGY: 0 4.0042 4.7713 0.9578 0.0000 -10737.2153 1436.0370 0.0000 0.0000 1780.7380 -7510.7069 300.0529 -9291.4449 -7510.7069 300.0529 -12.5022 74.1993 30675.3646 -12.5022 74.1993
ENERGY: 300000 1.0342 7.1445 0.9725 0.0000 -10786.2039 1428.3131 0.0000 0.0000 1785.3944 -7563.3452 300.8375 -9348.7396 -7550.9371 300.9482 -248.4397 -164.7946 30671.2560 -68.0598 -6.4319
ENERGY: 600000 0.6797 3.8284 1.1283 0.0000 -10707.3368 1415.6906 0.0000 0.0000 1737.6215 -7548.3882 292.7879 -9286.0097 -7548.6030 298.9760 -487.7132 -360.4260 31192.7808 24.7670 100.1948
ENERGY: 900000 0.4455 4.6153 0.9123 0.0000 -10680.7903 1356.2929 0.0000 0.0000 1759.2582 -7559.2661 296.4336 -9318.5243 -7557.0847 298.1870 -636.9045 -593.0494 30799.4466 -136.5663 -73.0327
ENERGY: 1200000 0.6540 9.4679 0.8807 0.0000 -10829.0949 1464.5825 0.0000 0.0000 1761.2280 -7592.2818 296.7655 -9353.5098 -7555.3627 298.5698 302.8494 322.4713 30198.8937 -84.7116 -22.9372
ENERGY: 1500000 0.9551 7.8148 1.0668 0.0000 -10779.0757 1463.0819 0.0000 0.0000 1711.6859 -7594.4711 288.4177 -9306.1570 -7553.4566 298.4410 68.4885 81.2222 30730.7438 -46.0352 10.7593
TCL: Running FEP window   7: Lambda1 0.6999999999999997 Lambda2 0.6499999999999997 [dLambda -0.050000000000000044]
TCL: Setting parameter firsttimestep to 0
TCL: Setting parameter alchLambda to 0.6999999999999997
Info: NONBONDED TABLE R-SQUARED SPACING: 0.0625
Info: NONBONDED TABLE SIZE: 705 POINTS
TCL: Setting parameter alchLambda2 to 0.6499999999999997
Info: NONBONDED TABLE R-SQUARED SPACING: 0.0625
Info: NONBONDED TABLE SIZE: 705 POINTS
TCL: Running for 1500000 steps
ETITLE: TS BOND ANGLE DIHED IMPRP ELECT VDW BOUNDARY MISC KINETIC TOTAL TEMP POTENTIAL TOTALAVG TEMPAVG PRESSURE GPRESSURE VOLUME PRESSAVG GPRESSAVG
ENERGY: 0 0.9551 7.8148 1.0668 0.0000 -10777.1191 1462.7588 0.0000 0.0000 1710.8172 -7593.7063 288.2714 -9304.5235 -7593.7063 288.2714 -4.6567 79.9659 30730.7438 -4.6567 79.9659
ENERGY: 300000 1.0285 6.8951 1.2159 0.0000 -10978.2934 1532.6291 0.0000 0.0000 1802.6463 -7633.8785 303.7445 -9436.5248 -7593.4762 300.1473 290.9245 341.7902 30675.9491 -95.5910 -36.5479
ENERGY: 600000 0.7908 7.2909 4.2970 0.0000 -10820.3163 1501.4608 0.0000 0.0000 1753.8220 -7552.6547 295.5176 -9306.4768 -7573.2042 299.7000 55.8329 111.3876 31287.2019 -182.4676 -125.5335
ENERGY: 900000 0.9432 2.8114 1.4400 0.0000 -10711.5847 1451.1442 0.0000 0.0000 1797.4721 -7457.7738 302.8726 -9255.2459 -7569.3602 300.7838 109.9805 187.5713 30868.7174 -95.8821 -28.7063
ENERGY: 1200000 0.3342 5.0607 1.1085 0.0000 -10903.8562 1482.4137 0.0000 0.0000 1815.2554 -7599.6838 305.8691 -9414.9391 -7577.4524 300.4489 235.4621 261.5571 30315.0494 -25.2710 36.7706
ENERGY: 1500000 2.0459 11.0913 2.5086 0.0000 -10742.8495 1398.0925 0.0000 0.0000 1851.2479 -7477.8634 311.9338 -9329.1112 -7578.0287 300.5486 -421.7060 -430.5559 30828.7511 -32.2324 24.0716
TCL: Running FEP window   8: Lambda1 0.6499999999999997 Lambda2 0.5999999999999996 [dLambda -0.050000000000000044]
TCL: Setting parameter firsttimestep to 0
TCL: Setting parameter alchLambda to 0.6499999999999997
Info: NONBONDED TABLE R-SQUARED SPACING: 0.0625
Info: NONBONDED TABLE SIZE: 705 POINTS
TCL: Setting parameter alchLambda2 to 0.5999999999999996
Info: NONBONDED TABLE R-SQUARED SPACING: 0.0625
Info: NONBONDED TABLE SIZE: 705 POINTS
TCL: Running for 1500000 steps
ETITLE: TS BOND ANGLE DIHED IMPRP ELECT VDW BOUNDARY MISC KINETIC TOTAL TEMP POTENTIAL TOTALAVG TEMPAVG PRESSURE GPRESSURE VOLUME PRESSAVG GPRESSAVG
ENERGY: 0 2.0459 11.0913 2.5086 0.0000 -10741.6599 1397.8019 0.0000 0.0000 1850.3643 -7477.8479 311.7849 -9328.2122 -7477.8479 311.7849 -518.0336 -440.7551 30828.7511 -518.0336 -440.7551
ENERGY: 300000 1.1931 3.7786 3.3682 0.0000 -10770.3789 1414.3650 0.0000 0.0000 1758.2992 -7589.3748 296.2720 -9347.6740 -7593.6553 302.0559 -283.5427 -236.2732 30385.9321 -37.8768 -15.2303
ENERGY: 600000 0.5069 7.1823 1.8597 0.0000 -10856.0950 1453.7411 0.0000 0.0000 1790.7330 -7602.0720 301.7371 -9392.8050 -7568.6368 303.6445 -131.3167 -85.7493 30631.0208 -79.8012 -46.4064
ENERGY: 900000 0.9843 3.8365 1.3796 0.0000 -10799.5260 1413.4341 0.0000 0.0000 1764.2217 -7615.6698 297.2700 -9379.8915 -7557.0597 303.7231 -102.0122 -58.9456 30038.7087 -58.3737 -13.0712
ENERGY: 1200000 1.7365 6.2922 1.6610 0.0000 -10580.7193 1332.5640 0.0000 0.0000 1748.8311 -7489.6346 294.6767 -9238.4656 -7549.0849 302.6659 -995.7100 -914.2131 31238.0825 -112.4022 -60.5929
ENERGY: 1500000 1.9392 5.4063 2.0758 0.0000 -10859.7421 1511.3493 0.0000 0.0000 1710.6198 -7628.3517 288.2381 -9338.9714 -7554.9900 301.9259 587.8012 648.4230 30563.0665 -42.8896 13.5198
TCL: Running FEP window   9: Lambda1 0.5999999999999996 Lambda2 0.5499999999999996 [dLambda -0.050000000000000044]
TCL: Setting parameter firsttimestep to 0
TCL: Setting parameter alchLambda to 0.5999999999999996
Info: NONBONDED TABLE R-SQUARED SPACING: 0.0625
Info: NONBONDED TABLE SIZE: 705 POINTS
TCL: Setting parameter alchLambda2 to 0.5499999999999996
Info: NONBONDED TABLE R-SQUARED SPACING: 0.0625
Info: NONBONDED TABLE SIZE: 705 POINTS
TCL: Running for 1500000 steps
ETITLE: TS BOND ANGLE DIHED IMPRP ELECT VDW BOUNDARY MISC KINETIC TOTAL TEMP POTENTIAL TOTALAVG TEMPAVG PRESSURE GPRESSURE VOLUME PRESSAVG GPRESSAVG
ENERGY: 0 1.9392 5.4063 2.0758 0.0000 -10859.0608 1511.6959 0.0000 0.0000 1709.7275 -7628.2161 288.0877 -9337.9435 -7628.2161 288.0877 567.2724 646.9789 30563.0665 567.2724 646.9789
ENERGY: 300000 1.9464 9.3622 5.0220 0.0000 -10651.6115 1334.8236 0.0000 0.0000 1777.9345 -7522.5227 299.5806 -9300.4572 -7592.5883 295.0479 -1038.6115 -913.2264 30881.8014 -191.5680 -108.0819
ENERGY: 600000 1.8679 7.7750 2.3257 0.0000 -10675.6593 1339.8766 0.0000 0.0000 1731.5782 -7592.2358 291.7696 -9323.8141 -7575.3536 295.3351 -783.7048 -747.2100 30831.4607 -156.5208 -96.3088
ENERGY: 900000 1.2647 7.6847 1.5868 0.0000 -10809.0022 1471.1182 0.0000 0.0000 1727.0057 -7600.3420 290.9991 -9327.3477 -7564.1001 296.2958 243.3053 236.7701 30618.0628 -207.4809 -148.8886
ENERGY: 1200000 0.4006 9.8959 1.5989 0.0000 -10780.0200 1501.5126 0.0000 0.0000 1798.9355 -7467.6765 303.1192 -9266.6119 -7561.2044 297.7962 309.1304 400.8192 31105.4862 -131.1372 -61.5317
ENERGY: 1500000 1.5308 5.6118 1.7339 0.0000 -10644.6011 1353.4551 0.0000 0.0000 1762.3723 -7519.8972 296.9583 -9282.2695 -7552.2500 297.1936 -1081.9579 -1069.9554 31698.7645 -165.2295 -97.0909
TCL: Running FEP window  10: Lambda1 0.5499999999999996 Lambda2 0.4999999999999996 [dLambda -0.04999999999999999]
TCL: Setting parameter firsttimestep to 0
TCL: Setting parameter alchLambda to 0.5499999999999996
Info: NONBONDED TABLE R-SQUARED SPACING: 0.0625
Info: NONBONDED TABLE SIZE: 705 POINTS
TCL: Setting parameter alchLambda2 to 0.4999999999999996
Info: NONBONDED TABLE R-SQUARED SPACING: 0.0625
Info: NONBONDED TABLE SIZE: 705 POINTS
TCL: Running for 1500000 steps
ETITLE: TS BOND ANGLE DIHED IMPRP ELECT VDW BOUNDARY MISC KINETIC TOTAL TEMP POTENTIAL TOTALAVG TEMPAVG PRESSURE GPRESSURE VOLUME PRESSAVG GPRESSAVG
ENERGY: 0 1.5308 5.6118 1.7339 0.0000 -10643.3209 1353.1782 0.0000 0.0000 1761.4602 -7519.8062 296.8046 -9281.2663 -7519.8062 296.8046 -1145.3513 -1072.4032 31698.7645 -1145.3513 -1072.4032
ENERGY: 300000 0.8122 4.7772 3.6061 0.0000 -10729.7934 1425.7740 0.0000 0.0000 1765.4604 -7529.3634 297.4787 -9294.8239 -7534.5599 299.0989 -31.9953 -11.3277 30804.2298 -177.2736 -147.1777
ENERGY: 600000 2.1541 5.0510 1.1969 0.0000 -10729.9982 1426.7017 0.0000 0.0000 1743.5672 -7551.3273 293.7897 -9294.8945 -7557.9648 297.9727 -526.1673 -480.5576 31153.7167 -258.2207 -211.2558
ENERGY: 900000 1.0426 5.4343 1.6995 0.0000 -10734.3364 1358.5074 0.0000 0.0000 1758.0381 -7609.6146 296.2280 -9367.6527 -7565.6847 298.3648 -700.8529 -580.1257 30279.2053 -247.0152 -197.9729
ENERGY: 1200000 6.7976 7.5864 1.1983 0.0000 -10676.7984 1311.4321 0.0000 0.0000 1801.0051 -7548.7789 303.4679 -9349.7840 -7558.6464 299.5559 -1312.8218 -1195.6051 30637.4232 -253.9949 -199.7118
ENERGY: 1500000 0.1073 8.1675 1.2093 0.0000 -10816.9719 1481.1896 0.0000 0.0000 1758.5838 -7567.7144 296.3200 -9326.2982 -7547.9875 300.5945 233.3021 286.1943 30660.2760 -151.3506 -91.1141
TCL: Running FEP window  11: Lambda1 0.4999999999999996 Lambda2 0.4499999999999996 [dLambda -0.04999999999999999]
TCL: Setting parameter firsttimestep to 0
TCL: Setting parameter alchLambda to 0.4999999999999996
Info: NONBONDED TABLE R-SQUARED SPACING: 0.0625
Info: NONBONDED TABLE SIZE: 705 POINTS
TCL: Setting parameter alchLambda2 to 0.4499999999999996
Info: NONBONDED TABLE R-SQUARED SPACING: 0.0625
Info: NONBONDED TABLE SIZE: 705 POINTS
TCL: Running for 1500000 steps
ETITLE: TS BOND ANGLE DIHED IMPRP ELECT VDW BOUNDARY MISC KINETIC TOTAL TEMP POTENTIAL TOTALAVG TEMPAVG PRESSURE GPRESSURE VOLUME PRESSAVG GPRESSAVG
ENERGY: 0 0.1073 8.1675 1.2093 0.0000 -10816.3320 1481.2485 0.0000 0.0000 1757.6840 -7567.9154 296.1684 -9325.5994 -7567.9154 296.1684 211.9569 281.7855 30660.2760 211.9569 281.7855
ENERGY: 300000 0.5903 4.7910 1.6709 0.0000 -10650.4591 1376.2010 0.0000 0.0000 1781.3681 -7485.8379 300.1591 -9267.2060 -7540.1557 298.2431 -296.0344 -253.8651 30502.9855 -83.2652 -36.5688
ENERGY: 600000 0.3034 2.9245 2.4497 0.0000 -10690.9599 1444.9529 0.0000 0.0000 1835.9469 -7404.3826 309.3556 -9240.3295 -7535.7896 300.0578 331.3707 456.3766 30609.4396 -93.8063 -30.0646
ENERGY: 900000 2.0738 12.5578 1.7730 0.0000 -10934.1954 1524.1016 0.0000 0.0000 1888.0974 -7505.5919 318.1429 -9393.6893 -7541.6636 301.1221 270.4773 322.3359 31006.6714 2.2594 66.7986
ENERGY: 1200000 1.8331 9.2430 1.5043 0.0000 -10717.2790 1477.6300 0.0000 0.0000 1759.1074 -7467.9612 296.4082 -9227.0686 -7533.4312 300.7683 280.7941 378.4681 31068.8792 -66.1019 3.2080
ENERGY: 1500000 1.0720 3.6718 1.6185 0.0000 -10831.2794 1460.3173 0.0000 0.0000 1738.2639 -7626.3359 292.8961 -9364.5998 -7546.0847 299.8482 -65.3003 -16.4004 30809.7324 -153.5172 -84.7475
TCL: Running FEP window  12: Lambda1 0.4499999999999996 Lambda2 0.39999999999999963 [dLambda -0.04999999999999999]
TCL: Setting parameter firsttimestep to 0
TCL: Setting parameter alchLambda to 0.4499999999999996
Info: NONBONDED TABLE R-SQUARED SPACING: 0.0625
Info: NONBONDED TABLE SIZE: 705 POINTS
TCL: Setting parameter alchLambda2 to 0.39999999999999963
Info: NONBONDED TABLE R-SQUARED SPACING: 0.0625
Info: NONBONDED TABLE SIZE: 705 POINTS
TCL: Running for 1500000 steps
ETITLE: TS BOND ANGLE DIHED IMPRP ELECT VDW BOUNDARY MISC KINETIC TOTAL TEMP POTENTIAL TOTALAVG TEMPAVG PRESSURE GPRESSURE VOLUME PRESSAVG GPRESSAVG
ENERGY: 0 1.0720 3.6718 1.6185 0.0000 -10831.2793 1460.3839 0.0000 0.0000 1737.4095 -7627.1236 292.7521 -9364.5331 -7627.1236 292.7521 -105.0558 -21.0399 30809.7324 -105.0558 -21.0399
ENERGY: 300000 1.9987 7.8845 2.7981 0.0000 -10693.9649 1398.8804 0.0000 0.0000 1729.7823 -7552.6209 291.4669 -9282.4032 -7535.4832 300.0097 -289.8175 -182.9981 30595.6904 -59.0332 37.0341
ENERGY: 600000 0.4479 6.3783 2.7728 0.0000 -10960.4235 1525.2919 0.0000 0.0000 1758.5410 -7666.9915 296.3128 -9425.5326 -7557.8375 297.9257 330.9788 410.7448 30438.9955 -51.1694 42.3259
ENERGY: 900000 0.7076 5.2882 0.5972 0.0000 -10793.7314 1459.0690 0.0000 0.0000 1735.8072 -7592.2623 292.4821 -9328.0695 -7556.1346 298.6723 -234.6694 -119.2814 31000.5260 43.5450 139.3005
ENERGY: 1200000 1.0181 6.2209 0.9082 0.0000 -10780.1090 1485.8569 0.0000 0.0000 1801.1838 -7484.9210 303.4980 -9286.1048 -7544.5685 298.7834 406.1881 467.0420 30958.1398 23.0580 114.4400
ENERGY: 1500000 0.6950 6.1504 1.9421 0.0000 -10809.5991 1479.1957 0.0000 0.0000 1804.7989 -7516.8169 304.1072 -9321.6158 -7535.3805 299.0868 217.4760 272.8302 30710.1083 49.3446 135.9781
TCL: Running FEP window  13: Lambda1 0.39999999999999963 Lambda2 0.34999999999999964 [dLambda -0.04999999999999999]
TCL: Setting parameter firsttimestep to 0
TCL: Setting parameter alchLambda to 0.39999999999999963
Info: NONBONDED TABLE R-SQUARED SPACING: 0.0625
Info: NONBONDED TABLE SIZE: 705 POINTS
TCL: Setting parameter alchLambda2 to 0.34999999999999964
Info: NONBONDED TABLE R-SQUARED SPACING: 0.0625
Info: NONBONDED TABLE SIZE: 705 POINTS
TCL: Running for 1500000 steps
ETITLE: TS BOND ANGLE DIHED IMPRP ELECT VDW BOUNDARY MISC KINETIC TOTAL TEMP POTENTIAL TOTALAVG TEMPAVG PRESSURE GPRESSURE VOLUME PRESSAVG GPRESSAVG
ENERGY: 0 0.6950 6.1504 1.9421 0.0000 -10809.5976 1479.2705 0.0000 0.0000 1803.8989 -7517.6407 303.9555 -9321.5396 -7517.6407 303.9555 192.1346 272.1305 30710.1083 192.1346 272.1305
ENERGY: 300000 0.8985 4.2585 1.6874 0.0000 -10832.2692 1447.8969 0.0000 0.0000 1761.7623 -7615.7657 296.8555 -9377.5280 -7553.9047 301.2569 -197.1015 -113.3150 30679.4183 19.0279 104.6103
ENERGY: 600000 0.9334 3.9485 0.6400 0.0000 -10732.3410 1470.1906 0.0000 0.0000 1795.6815 -7460.9470 302.5709 -9256.6285 -7532.0823 301.0281 114.4651 135.9645 31035.1105 -27.7407 32.3310
ENERGY: 900000 1.7434 8.4407 3.5530 0.0000 -10827.5790 1433.2573 0.0000 0.0000 1725.0803 -7655.5043 290.6747 -9380.5846 -7551.5756 299.7216 -454.3971 -375.6761 30630.1781 -121.8144 -61.2268
ENERGY: 1200000 3.0834 10.1852 1.0927 0.0000 -10634.5138 1318.1797 0.0000 0.0000 1760.9448 -7541.0279 296.7178 -9301.9728 -7556.2309 299.6004 -1185.4291 -1090.3675 31012.9850 -232.3606 -170.9403
ENERGY: 1500000 1.7802 12.1841 2.9593 0.0000 -10834.3197 1521.1966 0.0000 0.0000 1777.8544 -7518.3451 299.5671 -9296.1995 -7556.0394 299.7947 610.7509 690.6097 30471.6035 -175.8157 -118.1425
TCL: Running FEP window  14: Lambda1 0.34999999999999964 Lambda2 0.29999999999999966 [dLambda -0.04999999999999999]
TCL: Setting parameter firsttimestep to 0
TCL: Setting parameter alchLambda to 0.34999999999999964
Info: NONBONDED TABLE R-SQUARED SPACING: 0.0625
Info: NONBONDED TABLE SIZE: 705 POINTS
TCL: Setting parameter alchLambda2 to 0.29999999999999966
Info: NONBONDED TABLE R-SQUARED SPACING: 0.0625
Info: NONBONDED TABLE SIZE: 705 POINTS
TCL: Running for 1500000 steps
ETITLE: TS BOND ANGLE DIHED IMPRP ELECT VDW BOUNDARY MISC KINETIC TOTAL TEMP POTENTIAL TOTALAVG TEMPAVG PRESSURE GPRESSURE VOLUME PRESSAVG GPRESSAVG
ENERGY: 0 1.7802 12.1841 2.9593 0.0000 -10834.3182 1521.5800 0.0000 0.0000 1777.0205 -7518.7942 299.4265 -9295.8146 -7518.7942 299.4265 604.9659 691.5474 30471.6035 604.9659 691.5474
ENERGY: 300000 1.0766 8.2395 1.3464 0.0000 -10847.7149 1450.2677 0.0000 0.0000 1726.7321 -7660.0525 290.9530 -9386.7846 -7523.8373 299.7501 -483.3680 -387.6851 30512.4856 324.1687 418.4526
ENERGY: 600000 2.0646 7.9481 2.0179 0.0000 -10587.9190 1300.9574 0.0000 0.0000 1772.8565 -7502.0745 298.7249 -9274.9310 -7526.2356 300.4501 -1323.6003 -1254.2854 31099.7974 27.4257 123.8789
ENERGY: 900000 4.1640 6.7459 2.2597 0.0000 -10744.6480 1372.5860 0.0000 0.0000 1757.5842 -7601.3082 296.1516 -9358.8925 -7527.2873 300.0142 -691.9791 -625.9440 30266.8044 -145.5656 -68.6489
ENERGY: 1200000 0.9706 4.7375 2.1758 0.0000 -10770.0859 1438.5091 0.0000 0.0000 1850.0063 -7473.6866 311.7246 -9323.6929 -7521.9276 302.0284 48.8574 156.2133 30447.5534 -89.2580 -13.2336
ENERGY: 1500000 0.5643 9.5352 2.4894 0.0000 -10746.5951 1430.1076 0.0000 0.0000 1793.4676 -7510.4309 302.1979 -9303.8985 -7522.1058 302.1724 29.4001 53.9583 30675.5635 -110.5905 -34.5644
TCL: Running FEP window  15: Lambda1 0.29999999999999966 Lambda2 0.24999999999999967 [dLambda -0.04999999999999999]
TCL: Setting parameter firsttimestep to 0
TCL: Setting parameter alchLambda to 0.29999999999999966
Info: NONBONDED TABLE R-SQUARED SPACING: 0.0625
Info: NONBONDED TABLE SIZE: 705 POINTS
TCL: Setting parameter alchLambda2 to 0.24999999999999967
Info: NONBONDED TABLE R-SQUARED SPACING: 0.0625
Info: NONBONDED TABLE SIZE: 705 POINTS
TCL: Running for 1500000 steps
ETITLE: TS BOND ANGLE DIHED IMPRP ELECT VDW BOUNDARY MISC KINETIC TOTAL TEMP POTENTIAL TOTALAVG TEMPAVG PRESSURE GPRESSURE VOLUME PRESSAVG GPRESSAVG
ENERGY: 0 0.5643 9.5352 2.4894 0.0000 -10746.5952 1430.4014 0.0000 0.0000 1792.5902 -7511.0147 302.0500 -9303.6048 -7511.0147 302.0500 -32.1967 52.0294 30675.5635 -32.1967 52.0294
ENERGY: 300000 1.1380 6.7831 3.0628 0.0000 -10834.3535 1518.2215 0.0000 0.0000 1782.4033 -7522.7448 300.3336 -9305.1481 -7524.9269 298.8746 561.2291 558.1802 30717.8507 62.0418 77.9725
ENERGY: 600000 1.7535 4.7397 1.3434 0.0000 -10742.0740 1372.6317 0.0000 0.0000 1778.2968 -7583.3088 299.6416 -9361.6057 -7523.3030 300.8017 -658.6648 -560.6235 30282.3904 2.4721 36.0138
ENERGY: 900000 2.2645 3.4328 0.6500 0.0000 -10770.7677 1462.2740 0.0000 0.0000 1788.4291 -7513.7173 301.3489 -9302.1464 -7537.1252 301.0555 -19.2849 103.3791 30661.6125 90.6998 138.6170
ENERGY: 1200000 0.2125 4.0698 1.3656 0.0000 -10790.4235 1399.6893 0.0000 0.0000 1798.2493 -7586.8370 303.0036 -9385.0863 -7554.8702 299.9668 -550.4364 -473.7411 30592.1831 12.1929 62.4118
ENERGY: 1500000 2.3645 6.0518 0.5655 0.0000 -10810.0927 1442.2564 0.0000 0.0000 1761.5674 -7597.2870 296.8227 -9358.8545 -7559.1085 299.2922 -270.4750 -265.6239 30785.7630 -41.4070 6.0334
TCL: Running FEP window  16: Lambda1 0.24999999999999967 Lambda2 0.19999999999999968 [dLambda -0.04999999999999999]
TCL: Setting parameter firsttimestep to 0
TCL: Setting parameter alchLambda to 0.24999999999999967
Info: NONBONDED TABLE R-SQUARED SPACING: 0.0625
Info: NONBONDED TABLE SIZE: 705 POINTS
TCL: Setting parameter alchLambda2 to 0.19999999999999968
Info: NONBONDED TABLE R-SQUARED SPACING: 0.0625
Info: NONBONDED TABLE SIZE: 705 POINTS
TCL: Running for 1500000 steps
ETITLE: TS BOND ANGLE DIHED IMPRP ELECT VDW BOUNDARY MISC KINETIC TOTAL TEMP POTENTIAL TOTALAVG TEMPAVG PRESSURE GPRESSURE VOLUME PRESSAVG GPRESSAVG
ENERGY: 0 2.3645 6.0518 0.5655 0.0000 -10810.0915 1442.5754 0.0000 0.0000 1760.7010 -7597.8333 296.6767 -9358.5343 -7597.8333 296.6767 -354.9212 -267.0565 30785.7630 -354.9212 -267.0565
ENERGY: 300000 0.9688 3.8980 1.0175 0.0000 -10926.4421 1560.0181 0.0000 0.0000 1768.0408 -7592.4989 297.9135 -9360.5398 -7520.4847 302.2142 532.4896 620.9353 30662.2493 -112.0677 -60.4784
ENERGY: 600000 0.7223 9.7463 0.9797 0.0000 -10688.5394 1398.6062 0.0000 0.0000 1772.6470 -7505.8380 298.6896 -9278.4850 -7533.6254 300.0101 -370.8866 -254.4333 30704.2185 -328.3832 -261.7333
ENERGY: 900000 0.6056 8.1918 1.4828 0.0000 -10770.6739 1454.9920 0.0000 0.0000 1810.3902 -7495.0114 305.0493 -9305.4016 -7548.2921 299.6432 156.9285 195.1724 30580.3756 -238.4274 -176.5039
ENERGY: 1200000 1.3394 10.4168 2.2899 0.0000 -10690.2666 1364.2350 0.0000 0.0000 1798.8721 -7513.1135 303.1085 -9311.9855 -7545.1845 300.3450 -990.6841 -827.2839 31169.3365 -227.7088 -156.3757
ENERGY: 1500000 0.0721 8.0976 3.0435 0.0000 -10716.3751 1426.6986 0.0000 0.0000 1768.1943 -7510.2690 297.9393 -9278.4633 -7549.7006 299.7715 40.8769 40.8375 30416.3377 -151.6626 -82.3617
TCL: Running FEP window  17: Lambda1 0.19999999999999968 Lambda2 0.1499999999999997 [dLambda -0.04999999999999999]
TCL: Setting parameter firsttimestep to 0
TCL: Setting parameter alchLambda to 0.19999999999999968
Info: NONBONDED TABLE R-SQUARED SPACING: 0.0625
Info: NONBONDED TABLE SIZE: 705 POINTS
TCL: Setting parameter alchLambda2 to 0.1499999999999997
Info: NONBONDED TABLE R-SQUARED SPACING: 0.0625
Info: NONBONDED TABLE SIZE: 705 POINTS
TCL: Running for 1500000 steps
ETITLE: TS BOND ANGLE DIHED IMPRP ELECT VDW BOUNDARY MISC KINETIC TOTAL TEMP POTENTIAL TOTALAVG TEMPAVG PRESSURE GPRESSURE VOLUME PRESSAVG GPRESSAVG
ENERGY: 0 0.0721 8.0976 3.0435 0.0000 -10716.3754 1427.0248 0.0000 0.0000 1767.3216 -7510.8157 297.7923 -9278.1373 -7510.8157 297.7923 -54.2310 37.3157 30416.3377 -54.2310 37.3157
ENERGY: 300000 4.6405 8.0471 2.1271 0.0000 -10884.2285 1559.7519 0.0000 0.0000 1763.6556 -7546.0063 297.1746 -9309.6620 -7526.6006 298.4947 1033.7954 1052.0905 30324.6602 341.1597 412.1234
ENERGY: 600000 1.2560 4.1029 0.6169 0.0000 -10677.5710 1402.3090 0.0000 0.0000 1796.9403 -7472.3460 302.7830 -9269.2863 -7517.4550 301.5813 -11.9108 -3.2458 30372.9577 279.0091 333.0414
ENERGY: 900000 0.2492 6.9818 0.8121 0.0000 -10762.5340 1492.5048 0.0000 0.0000 1811.9871 -7449.9991 305.3184 -9261.9862 -7508.2031 300.9873 506.0575 492.5703 30886.8811 150.1177 197.1382
ENERGY: 1200000 0.8657 3.8692 1.8412 0.0000 -10870.2296 1471.8498 0.0000 0.0000 1756.0182 -7635.7855 295.8877 -9391.8037 -7516.7070 301.4637 6.9907 88.7196 30446.2945 254.2355 305.6958
ENERGY: 1500000 0.7028 5.8721 1.6708 0.0000 -10677.6012 1399.3454 0.0000 0.0000 1806.0667 -7463.9435 304.3208 -9270.0102 -7520.8381 300.8607 -79.6400 -40.5935 30568.7796 197.2499 247.5816
TCL: Running FEP window  18: Lambda1 0.1499999999999997 Lambda2 0.09999999999999969 [dLambda -0.05 ]
TCL: Setting parameter firsttimestep to 0
TCL: Setting parameter alchLambda to 0.1499999999999997
Info: NONBONDED TABLE R-SQUARED SPACING: 0.0625
Info: NONBONDED TABLE SIZE: 705 POINTS
TCL: Setting parameter alchLambda2 to 0.09999999999999969
Info: NONBONDED TABLE R-SQUARED SPACING: 0.0625
Info: NONBONDED TABLE SIZE: 705 POINTS
TCL: Running for 1500000 steps
ETITLE: TS BOND ANGLE DIHED IMPRP ELECT VDW BOUNDARY MISC KINETIC TOTAL TEMP POTENTIAL TOTALAVG TEMPAVG PRESSURE GPRESSURE VOLUME PRESSAVG GPRESSAVG
ENERGY: 0 0.7028 5.8721 1.6708 0.0000 -10677.5994 1399.4770 0.0000 0.0000 1805.1796 -7464.6972 304.1713 -9269.8768 -7464.6972 304.1713 -114.7436 -42.1538 30568.7796 -114.7436 -42.1538
ENERGY: 300000 1.2550 4.8030 3.4251 0.0000 -10857.5957 1455.1878 0.0000 0.0000 1772.7799 -7620.1448 298.7120 -9392.9247 -7574.7327 300.1824 -297.6775 -189.1320 30652.6192 -263.1970 -174.2276
ENERGY: 600000 3.3936 3.7624 1.4873 0.0000 -10864.0485 1465.5664 0.0000 0.0000 1766.8520 -7622.9868 297.7132 -9389.8389 -7569.3840 298.8096 0.5477 -15.5825 30363.8615 -145.6889 -101.8896
ENERGY: 900000 2.7748 9.2439 3.3346 0.0000 -10800.8077 1486.1930 0.0000 0.0000 1766.1794 -7533.0820 297.5998 -9299.2615 -7552.4784 299.8496 127.8531 212.3831 30725.2245 -117.7388 -68.5361
ENERGY: 1200000 1.7198 5.5213 2.4547 0.0000 -10936.4090 1545.5500 0.0000 0.0000 1737.2064 -7643.9568 292.7179 -9381.1632 -7550.4344 299.1895 548.7682 626.5083 30511.9729 -9.1074 41.1096
ENERGY: 1500000 2.4583 6.9467 4.1185 0.0000 -10675.0131 1376.2029 0.0000 0.0000 1804.2292 -7481.0575 304.0112 -9285.2867 -7538.4706 299.8475 -535.2083 -458.6253 30562.2447 -61.3875 -3.9081
TCL: Running FEP window  19: Lambda1 0.09999999999999969 Lambda2 0.049999999999999684 [dLambda -0.05 ]
TCL: Setting parameter firsttimestep to 0
TCL: Setting parameter alchLambda to 0.09999999999999969
Info: NONBONDED TABLE R-SQUARED SPACING: 0.0625
Info: NONBONDED TABLE SIZE: 705 POINTS
TCL: Setting parameter alchLambda2 to 0.049999999999999684
Info: NONBONDED TABLE R-SQUARED SPACING: 0.0625
Info: NONBONDED TABLE SIZE: 705 POINTS
TCL: Running for 1500000 steps
ETITLE: TS BOND ANGLE DIHED IMPRP ELECT VDW BOUNDARY MISC KINETIC TOTAL TEMP POTENTIAL TOTALAVG TEMPAVG PRESSURE GPRESSURE VOLUME PRESSAVG GPRESSAVG
ENERGY: 0 2.4583 6.9467 4.1185 0.0000 -10675.0132 1375.4752 0.0000 0.0000 1803.3830 -7482.6316 303.8686 -9286.0145 -7482.6316 303.8686 -558.5835 -461.1505 30562.2447 -558.5835 -461.1505
ENERGY: 300000 1.5734 8.5889 0.7306 0.0000 -10752.5853 1410.6191 0.0000 0.0000 1718.6378 -7612.4355 289.5891 -9331.0733 -7550.1994 299.3611 -341.8925 -304.1122 30617.6781 -298.0957 -243.9149
ENERGY: 600000 0.4032 4.7734 0.8660 0.0000 -10707.2274 1400.2394 0.0000 0.0000 1789.1142 -7511.8312 301.4643 -9300.9454 -7543.7681 299.4856 -338.5406 -319.2281 30829.7274 -192.7329 -141.9757
ENERGY: 900000 1.8807 7.3482 1.3450 0.0000 -10730.9405 1437.7292 0.0000 0.0000 1818.8210 -7463.8163 306.4699 -9282.6374 -7524.6157 301.3675 -42.7006 -70.8194 30857.7167 -75.3041 -33.3902
ENERGY: 1200000 2.2386 7.7040 0.8037 0.0000 -10763.2060 1432.8169 0.0000 0.0000 1780.2419 -7539.4008 299.9694 -9319.6427 -7539.0354 300.1005 10.5875 110.4033 30239.0283 -94.6928 -41.1512
ENERGY: 1500000 3.7893 4.4806 3.3730 0.0000 -10610.2698 1317.9230 0.0000 0.0000 1757.6392 -7523.0647 296.1608 -9280.7040 -7541.6057 299.6727 -1273.0018 -1181.6107 30860.9323 -158.8093 -104.6108
TCL: Running FEP window  20: Lambda1 0.049999999999999684 Lambda2 0.0    [dLambda -0.049999999999999684]
TCL: Setting parameter firsttimestep to 0
TCL: Setting parameter alchLambda to 0.049999999999999684
Info: NONBONDED TABLE R-SQUARED SPACING: 0.0625
Info: NONBONDED TABLE SIZE: 705 POINTS
TCL: Setting parameter alchLambda2 to 0.0
Info: NONBONDED TABLE R-SQUARED SPACING: 0.0625
Info: NONBONDED TABLE SIZE: 705 POINTS
TCL: Running for 1500000 steps
ETITLE: TS BOND ANGLE DIHED IMPRP ELECT VDW BOUNDARY MISC KINETIC TOTAL TEMP POTENTIAL TOTALAVG TEMPAVG PRESSURE GPRESSURE VOLUME PRESSAVG GPRESSAVG
ENERGY: 0 3.7893 4.4806 3.3730 0.0000 -10610.2697 1317.0187 0.0000 0.0000 1756.7588 -7524.8493 296.0125 -9281.6081 -7524.8493 296.0125 -1278.1890 -1186.1878 30860.9323 -1278.1890 -1186.1878
ENERGY: 300000 0.7914 3.8581 2.7321 0.0000 -10765.7073 1371.1986 0.0000 0.0000 1773.5357 -7613.5914 298.8394 -9387.1271 -7602.1170 297.9233 -786.7423 -693.9164 30500.0911 -404.7827 -332.2958
ENERGY: 600000 1.0397 6.5468 0.7949 0.0000 -10901.2194 1548.9781 0.0000 0.0000 1769.6572 -7574.2027 298.1858 -9343.8599 -7580.8914 299.0384 590.3583 697.2643 30639.7863 -195.1459 -104.5849
ENERGY: 900000 1.5355 8.4954 0.8269 0.0000 -10794.6328 1440.7965 0.0000 0.0000 1761.6740 -7581.3044 296.8407 -9342.9784 -7564.7773 298.8826 -278.3580 -224.6337 30832.2089 -126.5746 -51.8271
ENERGY: 1200000 0.8468 4.7974 2.9940 0.0000 -10740.4676 1400.0832 0.0000 0.0000 1779.5152 -7552.2309 299.8469 -9331.7461 -7564.4074 299.0138 -476.8847 -360.7779 30495.6772 -179.2031 -101.0473
ENERGY: 1500000 1.5017 7.4439 2.7995 0.0000 -10968.6962 1559.2803 0.0000 0.0000 1811.7835 -7585.8873 305.2841 -9397.6708 -7571.8507 298.5688 690.7885 756.2418 30333.5812 -63.5780 11.8317
TCL: Exiting due to exit command.
