Info: SIMULATION PARAMETERS:
Info: TIMESTEP               2
Info: NUMBER OF STEPS        0
Info: STEPS PER CYCLE        10
Info: PERIODIC CELL BASIS 1  31.8841 0 0
Info: PERIODIC CELL BASIS 2  0 32.9332 0
Info: PERIODIC CELL BASIS 3  0 0 28.831
Info: PERIODIC CELL CENTER   0 0 0
Info: WRAPPING WATERS AROUND PERIODIC BOUNDARIES ON OUTPUT.
Info: WRAPPING ALL CLUSTERS AROUND PERIODIC BOUNDARIES ON OUTPUT.
Info: FIRST LDB TIMESTEP     50
Info: LAST LDB TIMESTEP     -1
Info: HOM BACKGROUND SCALING 1
Info: PME BACKGROUND SCALING 1
Info: MIN ATOMS PER PATCH    40
Info: EMPTY PATCH LOAD       40 ATOMS
Info: VELOCITY FILE          mobley_5890803_equil.vel
Info: CENTER OF MASS MOVING INITIALLY? NO
Info: DIELECTRIC             1
Info: EXCLUDE                SCALED ONE-FOUR
Info: 1-4 ELECTROSTATICS SCALED BY 0.833333
Info: MODIFIED 1-4 VDW PARAMETERS WILL BE USED
Info: DCD FILENAME           mobley_5890803_prod.dcd
Info: DCD FREQUENCY          100000
Info: DCD FIRST STEP         100000
Info: DCD FILE WILL CONTAIN UNIT CELL DATA
Info: XST FILENAME           mobley_5890803_prod.xst
Info: XST FREQUENCY          100000
Info: NO VELOCITY DCD OUTPUT
Info: NO FORCE DCD OUTPUT
Info: OUTPUT FILENAME        mobley_5890803_prod
Info: BINARY OUTPUT FILES WILL BE USED
Info: RESTART FILENAME       mobley_5890803_prod.restart
Info: RESTART FREQUENCY      100000
Info: BINARY RESTART FILES WILL BE USED
Info: CUTOFF                 9
Info: PAIRLIST DISTANCE      11
Info: PAIRLIST SHRINK RATE   0.01
Info: PAIRLIST GROW RATE     0.01
Info: PAIRLIST TRIGGER       0.3
Info: PAIRLISTS PER CYCLE    2
Info: PAIRLISTS ENABLED
Info: MARGIN                 2
Info: HYDROGEN GROUP CUTOFF  2.5
Info: PATCH DIMENSION        15.5
Info: ENERGY OUTPUT STEPS    100000
Info: ENERGY EVALUATION STEPS    100000
Info: OUTPUT ENERGY PRECISION 4
Info: CROSSTERM ENERGY INCLUDED IN DIHEDRAL
Info: TIMING OUTPUT STEPS    1000000
Info: PRESSURE OUTPUT STEPS  100000
Info: ALCHEMICAL FEP ON
Info: FEP CURRENT LAMBDA VALUE     1
Info: FEP COMPARISON LAMBDA VALUE  0.95
Info: FEP INTRA-ALCHEMICAL NON-BONDED INTERACTIONS WILL BE RETAINED
Info: FEP INTRA-ALCHEMICAL BONDED INTERACTIONS WILL BE RETAINED
Info: FEP VDW SHIFTING COEFFICIENT 5
Info: FEP ELEC. ACTIVE FOR ANNIHILATED PARTICLES BETWEEN LAMBDA = 0 AND LAMBDA = 0.5
Info: FEP ELEC. ACTIVE FOR EXNIHILATED PARTICLES BETWEEN LAMBDA = 0.5 AND LAMBDA = 1
Info: FEP VDW ACTIVE FOR ANNIHILATED PARTICLES BETWEEN LAMBDA = 0 AND LAMBDA = 1
Info: FEP VDW ACTIVE FOR EXNIHILATED PARTICLES BETWEEN LAMBDA = 0 AND LAMBDA = 1
Info: FEP BOND ACTIVE FOR ANNIHILATED PARTICLES BETWEEN LAMBDA = 1 AND LAMBDA = 1
Info: FEP BOND ACTIVE FOR EXNIHILATED PARTICLES BETWEEN LAMBDA = 0 AND LAMBDA = 0
Info: LANGEVIN DYNAMICS ACTIVE
Info: LANGEVIN TEMPERATURE   300
Info: LANGEVIN USING BBK INTEGRATOR
Info: LANGEVIN DAMPING COEFFICIENT IS 1 INVERSE PS
Info: LANGEVIN DYNAMICS APPLIED TO HYDROGENS
Info: LANGEVIN PISTON PRESSURE CONTROL ACTIVE
Info:        TARGET PRESSURE IS 1.01325 BAR
Info:     OSCILLATION PERIOD IS 50 FS
Info:             DECAY TIME IS 25 FS
Info:     PISTON TEMPERATURE IS 300 K
Info:       PRESSURE CONTROL IS GROUP-BASED
Info:    INITIAL STRAIN RATE IS -0.00070634 -0.00070634 -0.00070634
Info:       CELL FLUCTUATION IS ISOTROPIC
Info: PARTICLE MESH EWALD (PME) ACTIVE
Info: PME TOLERANCE               1e-06
Info: PME EWALD COEFFICIENT       0.348832
Info: PME INTERPOLATION ORDER     4
Info: PME GRID DIMENSIONS         32 36 32
Info: PME MAXIMUM GRID SPACING    1
Info: PME CALCULATION WILL BE PERFORMED ON GPU
Info: FULL ELECTROSTATIC EVALUATION FREQUENCY      2
Info: USING VERLET I (r-RESPA) MTS SCHEME.
Info: C1 SPLITTING OF LONG RANGE ELECTROSTATICS
Info: PLACING ATOMS IN PATCHES BY HYDROGEN GROUPS
Info: RIGID BONDS TO HYDROGEN : ALL
Info:         ERROR TOLERANCE : 1e-08
Info:          MAX ITERATIONS : 100
Info: RIGID WATER USING SETTLE ALGORITHM
Info: RANDOM NUMBER SEED     1743987235
Info: USE HYDROGEN BONDS?    NO
Info: Using AMBER format force field!
Info: AMBER PARM FILE        mobley_5890803.prmtop
Info: COORDINATE PDB         mobley_5890803.pdb
Info: Exclusions will be read from PARM file!
Info: SCNB (VDW SCALING)     2
Info: USING ARITHMETIC MEAN TO COMBINE L-J SIGMA PARAMETERS
Info: BINARY COORDINATES     mobley_5890803_equil.coor
Info: SUMMARY OF PARAMETERS:
Info: 9 BONDS
Info: 13 ANGLES
Info:   13 HARMONIC
Info:   0 COSINE-BASED
Info: 17 DIHEDRAL
Info: 0 IMPROPER
Info: 0 CROSSTERM
Info: 0 VDW
Info: 36 VDW_PAIRS
Info: 0 NBTHOLE_PAIRS
Info: To read alchdata from file: mobley_5890803.pdb
Info: To read alchflag data from column: 5
Info: STRUCTURE SUMMARY:
Info: 2945 ATOMS
Info: 2944 BONDS
Info: 34 ANGLES
Info: 49 DIHEDRALS
Info: 0 IMPROPERS
Info: 0 CROSSTERMS
Info: 3016 EXCLUSIONS
Info: 2937 RIGID BONDS
Info: ALCH: 0 ATOMS TO DISAPPEAR IN FINAL STATE
Info: ALCH: 20 ATOMS TO APPEAR IN FINAL STATE
Info: 5898 DEGREES OF FREEDOM
Info: 983 HYDROGEN GROUPS
Info: 4 ATOMS IN LARGEST HYDROGEN GROUP
Info: 983 MIGRATION GROUPS
Info: 4 ATOMS IN LARGEST MIGRATION GROUP
Info: TOTAL MASS = 17681.8 amu
Info: TOTAL CHARGE = 0.000100039 e
Info: MASS DENSITY = 0.969876 g/cm^3
Info: ATOM DENSITY = 0.0972785 atoms/A^3
Info: ADDED 0 IMPLICIT EXCLUSIONS
Info: NONBONDED TABLE R-SQUARED SPACING: 0.0625
Info: NONBONDED TABLE SIZE: 705 POINTS
Info: REDUCING NUMBER OF PATCHES TO IMPROVE LOAD BALANCE
Info: REMOVING COM VELOCITY -0.00590077 -0.00903804 0.110381
Info: Use 3D box decompostion in PME FFT.
Info: Updated CUDA force table with 4096 elements.
Info: Updated CUDA LJ table with 8 x 8 elements.
Info: Found 23 unique exclusion lists needing 60 bytes
TCL: Running for 1500000 steps
ETITLE: TS BOND ANGLE DIHED IMPRP ELECT VDW BOUNDARY MISC KINETIC TOTAL TEMP POTENTIAL TOTALAVG TEMPAVG PRESSURE GPRESSURE VOLUME PRESSAVG GPRESSAVG
ENERGY: 0 3.2351 8.1466 5.0837 0.0000 -10779.2427 1486.3954 0.0000 0.0000 1786.9079 -7489.4740 304.9213 -9276.3819 -7489.4740 304.9213 293.2402 362.5891 30273.9008 293.2402 362.5891
ENERGY: 300000 3.5462 9.2126 5.1107 0.0000 -10763.6747 1480.1675 0.0000 0.0000 1737.2437 -7528.3940 296.4465 -9265.6377 -7531.9410 298.7827 414.3688 494.0856 30365.8445 -36.3314 46.9456
ENERGY: 600000 4.5937 8.1581 4.2420 0.0000 -10719.6340 1424.5070 0.0000 0.0000 1770.6479 -7507.4853 302.1467 -9278.1331 -7501.9398 299.0549 152.5474 126.2134 29969.9361 -53.3582 7.0503
ENERGY: 900000 2.5297 6.4590 5.4164 0.0000 -10582.9559 1384.2110 0.0000 0.0000 1766.6260 -7417.7138 301.4604 -9184.3398 -7486.1878 300.6349 -276.3295 -191.9809 30292.6789 -55.5565 13.8315
ENERGY: 1200000 1.1944 6.9481 5.9366 0.0000 -10822.8382 1525.3712 0.0000 0.0000 1796.3065 -7487.0812 306.5251 -9283.3878 -7481.8016 301.1816 258.1256 380.6438 30787.7167 6.5554 82.2677
ENERGY: 1500000 2.9192 7.6963 6.6690 0.0000 -10553.7196 1341.0782 0.0000 0.0000 1746.2766 -7449.0804 297.9879 -9195.3570 -7477.2128 301.1668 -646.9847 -583.3041 30358.0290 10.0418 79.4184
TCL: Running FEP window   2: Lambda1 0.95   Lambda2 0.8999999999999999 [dLambda -0.050000000000000044]
TCL: Setting parameter firsttimestep to 0
TCL: Setting parameter alchLambda to 0.95
Info: NONBONDED TABLE R-SQUARED SPACING: 0.0625
Info: NONBONDED TABLE SIZE: 705 POINTS
TCL: Setting parameter alchLambda2 to 0.8999999999999999
Info: NONBONDED TABLE R-SQUARED SPACING: 0.0625
Info: NONBONDED TABLE SIZE: 705 POINTS
TCL: Running for 1500000 steps
ETITLE: TS BOND ANGLE DIHED IMPRP ELECT VDW BOUNDARY MISC KINETIC TOTAL TEMP POTENTIAL TOTALAVG TEMPAVG PRESSURE GPRESSURE VOLUME PRESSAVG GPRESSAVG
ENERGY: 0 2.9192 7.6962 6.6690 0.0000 -10552.3049 1341.1806 0.0000 0.0000 1745.4318 -7448.4081 297.8438 -9193.8399 -7448.4081 297.8438 -675.1435 -592.0314 30358.0290 -675.1435 -592.0314
ENERGY: 300000 0.3495 8.7213 5.0796 0.0000 -10701.6489 1450.7858 0.0000 0.0000 1792.2900 -7444.4228 305.8397 -9236.7127 -7440.3760 302.9714 295.7674 288.4828 30186.3966 -156.6318 -84.3527
ENERGY: 600000 3.3072 5.2013 3.7519 0.0000 -10772.3801 1448.4908 0.0000 0.0000 1769.5936 -7542.0353 301.9668 -9311.6289 -7467.0458 302.1938 -208.7592 -165.4521 30333.8417 -69.8776 -16.3613
ENERGY: 900000 3.4511 9.7076 6.0333 0.0000 -10749.0223 1434.5462 0.0000 0.0000 1730.9616 -7564.3224 295.3745 -9295.2841 -7495.2641 299.9960 -77.1741 -16.4995 30029.0508 -186.9500 -131.3168
ENERGY: 1200000 1.6909 9.7247 7.1298 0.0000 -10652.0857 1421.9779 0.0000 0.0000 1749.7256 -7461.8368 298.5765 -9211.5624 -7489.9359 298.7661 -39.5674 71.1724 30261.0395 -221.4201 -154.2570
ENERGY: 1500000 3.0346 9.2722 3.5709 0.0000 -10678.7807 1453.8828 0.0000 0.0000 1766.5335 -7442.4867 301.4446 -9209.0202 -7486.0848 299.1016 52.7507 50.7426 30775.5994 -256.3047 -189.6060
TCL: Running FEP window   3: Lambda1 0.8999999999999999 Lambda2 0.8499999999999999 [dLambda -0.050000000000000044]
TCL: Setting parameter firsttimestep to 0
TCL: Setting parameter alchLambda to 0.8999999999999999
Info: NONBONDED TABLE R-SQUARED SPACING: 0.0625
Info: NONBONDED TABLE SIZE: 705 POINTS
TCL: Setting parameter alchLambda2 to 0.8499999999999999
Info: NONBONDED TABLE R-SQUARED SPACING: 0.0625
Info: NONBONDED TABLE SIZE: 705 POINTS
TCL: Running for 1500000 steps
ETITLE: TS BOND ANGLE DIHED IMPRP ELECT VDW BOUNDARY MISC KINETIC TOTAL TEMP POTENTIAL TOTALAVG TEMPAVG PRESSURE GPRESSURE VOLUME PRESSAVG GPRESSAVG
ENERGY: 0 3.0346 9.2722 3.5709 0.0000 -10677.5216 1453.4423 0.0000 0.0000 1765.6610 -7442.5405 301.2957 -9208.2015 -7442.5405 301.2957 -34.1756 35.5269 30775.5994 -34.1756 35.5269
ENERGY: 300000 1.6683 12.5211 4.3960 0.0000 -10673.4353 1431.4238 0.0000 0.0000 1696.9940 -7526.4321 289.5782 -9223.4262 -7464.2107 299.3064 119.9596 204.1943 30044.3609 190.2720 232.3929
ENERGY: 600000 0.8117 12.1017 4.7934 0.0000 -10548.3554 1397.8671 0.0000 0.0000 1721.3299 -7411.4515 293.7310 -9132.7815 -7472.8793 296.4186 158.8988 215.9489 30074.8709 -0.1610 52.5151
ENERGY: 900000 3.5632 11.4729 6.8190 0.0000 -10712.2093 1451.0621 0.0000 0.0000 1778.3071 -7460.9850 303.4537 -9239.2920 -7470.5254 297.9524 218.1750 288.5921 30205.0279 -27.6887 31.5151
ENERGY: 1200000 1.4606 6.1247 5.3772 0.0000 -10682.7068 1499.4696 0.0000 0.0000 1776.7783 -7393.4963 303.1928 -9170.2746 -7457.6380 299.5540 462.2206 549.1185 30628.5063 42.2405 95.3367
ENERGY: 1500000 2.4889 11.4132 3.7706 0.0000 -10603.3088 1434.5262 0.0000 0.0000 1800.1336 -7350.9761 307.1782 -9151.1097 -7447.5391 300.1762 174.6109 266.8374 30655.2742 -7.1438 55.9264
TCL: Running FEP window   4: Lambda1 0.8499999999999999 Lambda2 0.7999999999999998 [dLambda -0.050000000000000044]
TCL: Setting parameter firsttimestep to 0
TCL: Setting parameter alchLambda to 0.8499999999999999
Info: NONBONDED TABLE R-SQUARED SPACING: 0.0625
Info: NONBONDED TABLE SIZE: 705 POINTS
TCL: Setting parameter alchLambda2 to 0.7999999999999998
Info: NONBONDED TABLE R-SQUARED SPACING: 0.0625
Info: NONBONDED TABLE SIZE: 705 POINTS
TCL: Running for 1500000 steps
ETITLE: TS BOND ANGLE DIHED IMPRP ELECT VDW BOUNDARY MISC KINETIC TOTAL TEMP POTENTIAL TOTALAVG TEMPAVG PRESSURE GPRESSURE VOLUME PRESSAVG GPRESSAVG
ENERGY: 0 2.4889 11.4132 3.7706 0.0000 -10602.4069 1434.4953 0.0000 0.0000 1799.2587 -7350.9801 307.0289 -9150.2388 -7350.9801 307.0289 171.9527 254.5963 30655.2742 171.9527 254.5963
ENERGY: 300000 0.8715 7.5386 4.0317 0.0000 -10626.4494 1431.2802 0.0000 0.0000 1684.7424 -7497.9850 287.4876 -9182.7274 -7486.9935 296.1642 -202.6480 -65.5837 30800.9405 14.5306 107.2956
ENERGY: 600000 1.2204 7.8618 4.0399 0.0000 -10608.7718 1429.2581 0.0000 0.0000 1733.0681 -7433.3235 295.7340 -9166.3916 -7473.9033 297.5591 -60.6984 45.1148 30442.9849 -71.6603 18.9597
ENERGY: 900000 0.3893 8.2392 5.2310 0.0000 -10798.5733 1483.5039 0.0000 0.0000 1837.0518 -7464.1581 313.4780 -9301.2099 -7471.2516 300.5475 298.9291 336.7120 30429.7630 -85.3059 -8.9694
ENERGY: 1200000 3.4924 9.9186 4.7101 0.0000 -10766.5949 1461.2252 0.0000 0.0000 1761.5126 -7525.7360 300.5878 -9287.2485 -7480.5429 299.9476 -162.4773 -110.6296 30280.4489 -29.3439 45.2402
ENERGY: 1500000 1.5201 9.4106 4.7334 0.0000 -10612.8275 1393.9902 0.0000 0.0000 1738.9100 -7464.2633 296.7309 -9203.1733 -7478.1743 299.9070 -290.6196 -274.3142 30744.8029 -78.1451 -4.6240
TCL: Running FEP window   5: Lambda1 0.7999999999999998 Lambda2 0.7499999999999998 [dLambda -0.050000000000000044]
TCL: Setting parameter firsttimestep to 0
TCL: Setting parameter alchLambda to 0.7999999999999998
Info: NONBONDED TABLE R-SQUARED SPACING: 0.0625
Info: NONBONDED TABLE SIZE: 705 POINTS
TCL: Setting parameter alchLambda2 to 0.7499999999999998
Info: NONBONDED TABLE R-SQUARED SPACING: 0.0625
Info: NONBONDED TABLE SIZE: 705 POINTS
TCL: Running for 1500000 steps
ETITLE: TS BOND ANGLE DIHED IMPRP ELECT VDW BOUNDARY MISC KINETIC TOTAL TEMP POTENTIAL TOTALAVG TEMPAVG PRESSURE GPRESSURE VOLUME PRESSAVG GPRESSAVG
ENERGY: 0 1.5200 9.4105 4.7334 0.0000 -10611.7662 1393.1625 0.0000 0.0000 1738.0602 -7464.8796 296.5859 -9202.9398 -7464.8796 296.5859 -364.4934 -293.4790 30744.8029 -364.4934 -293.4790
ENERGY: 300000 4.8841 9.6258 4.1028 0.0000 -10800.1197 1519.7730 0.0000 0.0000 1762.9051 -7498.8288 300.8254 -9261.7339 -7486.9635 298.6773 543.5365 568.6319 30295.3178 -385.7940 -328.8653
ENERGY: 600000 1.8440 6.4994 4.7243 0.0000 -10750.2859 1495.9680 0.0000 0.0000 1808.3258 -7432.9244 308.5761 -9241.2502 -7486.1794 299.1488 412.6637 483.2620 30404.8934 -257.0018 -187.8380
ENERGY: 900000 1.8340 7.1367 5.4568 0.0000 -10691.0111 1437.2115 0.0000 0.0000 1745.8392 -7493.5329 297.9133 -9239.3721 -7472.5396 300.0094 -262.5403 -197.2288 30806.4667 -136.1478 -70.6278
ENERGY: 1200000 1.1153 10.6717 5.9298 0.0000 -10613.9482 1356.3719 0.0000 0.0000 1693.9814 -7545.8780 289.0642 -9239.8595 -7477.8410 298.8221 -781.5140 -721.2144 30551.6824 -175.3721 -109.9006
ENERGY: 1500000 1.1777 14.1317 7.2245 0.0000 -10759.1288 1468.9798 0.0000 0.0000 1797.9115 -7469.7036 306.7990 -9267.6151 -7472.7561 299.4395 443.5808 508.9229 29844.1899 -74.4842 -9.9690
TCL: Running FEP window   6: Lambda1 0.7499999999999998 Lambda2 0.6999999999999997 [dLambda -0.050000000000000044]
TCL: Setting parameter firsttimestep to 0
TCL: Setting parameter alchLambda to 0.7499999999999998
Info: NONBONDED TABLE R-SQUARED SPACING: 0.0625
Info: NONBONDED TABLE SIZE: 705 POINTS
TCL: Setting parameter alchLambda2 to 0.6999999999999997
Info: NONBONDED TABLE R-SQUARED SPACING: 0.0625
Info: NONBONDED TABLE SIZE: 705 POINTS
TCL: Running for 1500000 steps
ETITLE: TS BOND ANGLE DIHED IMPRP ELECT VDW BOUNDARY MISC KINETIC TOTAL TEMP POTENTIAL TOTALAVG TEMPAVG PRESSURE GPRESSURE VOLUME PRESSAVG GPRESSAVG
ENERGY: 0 1.1777 14.1317 7.2245 0.0000 -10757.8545 1468.9989 0.0000 0.0000 1797.0019 -7469.3198 306.6438 -9266.3217 -7469.3198 306.6438 415.8245 498.8276 29844.1899 415.8245 498.8276
ENERGY: 300000 1.5209 10.2425 5.0190 0.0000 -10619.0487 1417.0164 0.0000 0.0000 1766.1733 -7419.0766 301.3831 -9185.2500 -7463.0801 299.1840 -116.4227 -62.8826 30630.6756 277.3938 333.8474
ENERGY: 600000 1.4415 9.3702 5.6131 0.0000 -10515.8736 1353.2351 0.0000 0.0000 1760.3580 -7385.8558 300.3908 -9146.2138 -7456.1938 300.0566 -415.4702 -394.2218 30376.7643 22.4033 74.9647
ENERGY: 900000 1.5581 6.6812 3.5121 0.0000 -10571.7546 1341.6306 0.0000 0.0000 1756.9078 -7461.4648 299.8020 -9218.3726 -7461.5059 299.6300 -428.6078 -404.8323 29960.4839 -33.3112 13.3431
ENERGY: 1200000 1.3253 6.5329 6.0101 0.0000 -10705.1859 1428.8706 0.0000 0.0000 1823.9806 -7438.4664 311.2475 -9262.4470 -7456.7942 299.8541 37.0317 89.5668 29942.9599 -25.9671 28.9819
ENERGY: 1500000 1.9486 9.9925 5.3846 0.0000 -10704.1690 1439.1136 0.0000 0.0000 1718.2979 -7529.4318 293.2136 -9247.7297 -7462.8082 298.9474 145.6900 171.4151 29733.3521 8.0048 63.6576
TCL: Running FEP window   7: Lambda1 0.6999999999999997 Lambda2 0.6499999999999997 [dLambda -0.050000000000000044]
TCL: Setting parameter firsttimestep to 0
TCL: Setting parameter alchLambda to 0.6999999999999997
Info: NONBONDED TABLE R-SQUARED SPACING: 0.0625
Info: NONBONDED TABLE SIZE: 705 POINTS
TCL: Setting parameter alchLambda2 to 0.6499999999999997
Info: NONBONDED TABLE R-SQUARED SPACING: 0.0625
Info: NONBONDED TABLE SIZE: 705 POINTS
TCL: Running for 1500000 steps
ETITLE: TS BOND ANGLE DIHED IMPRP ELECT VDW BOUNDARY MISC KINETIC TOTAL TEMP POTENTIAL TOTALAVG TEMPAVG PRESSURE GPRESSURE VOLUME PRESSAVG GPRESSAVG
ENERGY: 0 1.9486 9.9925 5.3846 0.0000 -10703.1564 1438.6071 0.0000 0.0000 1717.4225 -7529.8011 293.0642 -9247.2235 -7529.8011 293.0642 55.6238 155.8712 29733.3521 55.6238 155.8712
ENERGY: 300000 2.2198 9.1606 5.5355 0.0000 -10816.2367 1583.2111 0.0000 0.0000 1691.5418 -7524.5679 288.6479 -9216.1097 -7483.4709 294.0265 1401.5117 1467.2893 29817.2562 565.0441 639.4016
ENERGY: 600000 1.3436 8.5841 6.2154 0.0000 -10621.0128 1439.9818 0.0000 0.0000 1807.2306 -7357.6574 308.3892 -9164.8879 -7452.8952 298.6218 47.8131 128.8400 30752.1159 349.8143 409.7966
ENERGY: 900000 1.3211 6.5264 4.9702 0.0000 -10719.8269 1467.7765 0.0000 0.0000 1724.6885 -7514.5441 294.3041 -9239.2326 -7460.3369 297.8558 69.4352 59.3578 30498.4361 284.1646 339.0625
ENERGY: 1200000 2.5169 5.7398 3.8685 0.0000 -10630.5920 1332.9854 0.0000 0.0000 1793.8877 -7491.5938 306.1124 -9285.4815 -7456.3989 300.1477 -1074.3432 -1018.2088 30449.5594 188.7703 242.8915
ENERGY: 1500000 1.4685 10.5797 3.3436 0.0000 -10695.2821 1461.8069 0.0000 0.0000 1773.1486 -7444.9349 302.5734 -9218.0835 -7453.3555 300.8279 -3.8140 35.8208 30799.8320 163.1365 220.7384
TCL: Running FEP window   8: Lambda1 0.6499999999999997 Lambda2 0.5999999999999996 [dLambda -0.050000000000000044]
TCL: Setting parameter firsttimestep to 0
TCL: Setting parameter alchLambda to 0.6499999999999997
Info: NONBONDED TABLE R-SQUARED SPACING: 0.0625
Info: NONBONDED TABLE SIZE: 705 POINTS
TCL: Setting parameter alchLambda2 to 0.5999999999999996
Info: NONBONDED TABLE R-SQUARED SPACING: 0.0625
Info: NONBONDED TABLE SIZE: 705 POINTS
TCL: Running for 1500000 steps
ETITLE: TS BOND ANGLE DIHED IMPRP ELECT VDW BOUNDARY MISC KINETIC TOTAL TEMP POTENTIAL TOTALAVG TEMPAVG PRESSURE GPRESSURE VOLUME PRESSAVG GPRESSAVG
ENERGY: 0 1.4685 10.5797 3.3436 0.0000 -10694.2118 1461.5155 0.0000 0.0000 1772.2490 -7445.0555 302.4199 -9217.3045 -7445.0555 302.4199 -60.3778 25.5048 30799.8320 -60.3778 25.5048
ENERGY: 300000 0.3120 9.2448 3.2903 0.0000 -10630.3301 1371.5460 0.0000 0.0000 1729.5653 -7516.3717 295.1363 -9245.9370 -7479.0432 298.1083 -682.3890 -648.4437 30640.2189 -188.7875 -137.2083
ENERGY: 600000 1.8763 9.0290 4.8062 0.0000 -10635.5647 1441.0887 0.0000 0.0000 1771.7519 -7407.0126 302.3351 -9178.7645 -7475.4460 298.3717 62.3812 122.1870 30854.2106 42.9729 101.1551
ENERGY: 900000 0.2517 8.1421 6.1264 0.0000 -10705.0056 1502.4858 0.0000 0.0000 1788.1466 -7399.8531 305.1327 -9187.9996 -7464.6272 299.2161 912.3198 998.6108 29891.5705 87.0745 145.1099
ENERGY: 1200000 0.2815 9.6951 3.8740 0.0000 -10646.7330 1489.1632 0.0000 0.0000 1765.5169 -7378.2024 301.2711 -9143.7193 -7459.6537 298.8740 548.8173 644.9591 30481.0145 102.7019 170.8479
ENERGY: 1500000 1.9073 11.6614 3.8044 0.0000 -10610.6799 1359.0828 0.0000 0.0000 1784.1202 -7450.1038 304.4456 -9234.2240 -7458.6166 299.1008 -900.1563 -815.7744 30523.4275 -13.7377 46.3924
TCL: Running FEP window   9: Lambda1 0.5999999999999996 Lambda2 0.5499999999999996 [dLambda -0.050000000000000044]
TCL: Setting parameter firsttimestep to 0
TCL: Setting parameter alchLambda to 0.5999999999999996
Info: NONBONDED TABLE R-SQUARED SPACING: 0.0625
Info: NONBONDED TABLE SIZE: 705 POINTS
TCL: Setting parameter alchLambda2 to 0.5499999999999996
Info: NONBONDED TABLE R-SQUARED SPACING: 0.0625
Info: NONBONDED TABLE SIZE: 705 POINTS
TCL: Running for 1500000 steps
ETITLE: TS BOND ANGLE DIHED IMPRP ELECT VDW BOUNDARY MISC KINETIC TOTAL TEMP POTENTIAL TOTALAVG TEMPAVG PRESSURE GPRESSURE VOLUME PRESSAVG GPRESSAVG
ENERGY: 0 1.9073 11.6614 3.8044 0.0000 -10610.3757 1359.0042 0.0000 0.0000 1783.2489 -7450.7495 304.2969 -9233.9984 -7450.7495 304.2969 -901.7723 -825.9327 30523.4275 -901.7723 -825.9327
ENERGY: 300000 1.5407 9.4243 4.8875 0.0000 -10708.8641 1430.8729 0.0000 0.0000 1813.5443 -7448.5942 309.4666 -9262.1386 -7457.7011 301.1917 40.9464 97.8920 30120.8086 -406.1444 -334.8374
ENERGY: 600000 3.2127 11.8736 3.0952 0.0000 -10774.6218 1462.1107 0.0000 0.0000 1832.7660 -7461.5636 312.7466 -9294.3296 -7447.7412 303.0558 101.6286 171.1855 30313.0191 -431.5727 -355.1857
ENERGY: 900000 1.2624 5.9941 4.5985 0.0000 -10662.0636 1374.3666 0.0000 0.0000 1770.9086 -7504.9335 302.1912 -9275.8420 -7477.7308 302.0197 -564.9185 -487.0091 30154.6060 -275.2280 -200.2826
ENERGY: 1200000 1.8128 7.6382 7.4995 0.0000 -10816.7120 1502.6905 0.0000 0.0000 1747.2186 -7549.8525 298.1487 -9297.0711 -7478.0919 301.6817 578.8346 649.4578 29393.8264 -184.1811 -115.8533
ENERGY: 1500000 4.3549 4.9876 3.9158 0.0000 -10725.6748 1454.1783 0.0000 0.0000 1791.1763 -7467.0619 305.6497 -9258.2382 -7461.6592 302.1503 -17.9022 106.7006 30460.1057 -252.3224 -180.2205
TCL: Running FEP window  10: Lambda1 0.5499999999999996 Lambda2 0.4999999999999996 [dLambda -0.04999999999999999]
TCL: Setting parameter firsttimestep to 0
TCL: Setting parameter alchLambda to 0.5499999999999996
Info: NONBONDED TABLE R-SQUARED SPACING: 0.0625
Info: NONBONDED TABLE SIZE: 705 POINTS
TCL: Setting parameter alchLambda2 to 0.4999999999999996
Info: NONBONDED TABLE R-SQUARED SPACING: 0.0625
Info: NONBONDED TABLE SIZE: 705 POINTS
TCL: Running for 1500000 steps
ETITLE: TS BOND ANGLE DIHED IMPRP ELECT VDW BOUNDARY MISC KINETIC TOTAL TEMP POTENTIAL TOTALAVG TEMPAVG PRESSURE GPRESSURE VOLUME PRESSAVG GPRESSAVG
ENERGY: 0 4.3549 4.9876 3.9158 0.0000 -10725.5755 1454.5724 0.0000 0.0000 1790.3095 -7467.4353 305.5018 -9257.7448 -7467.4353 305.5018 27.4017 103.4201 30460.1057 27.4017 103.4201
ENERGY: 300000 1.8821 10.1397 5.2781 0.0000 -10714.4517 1491.3147 0.0000 0.0000 1741.6262 -7464.2109 297.1944 -9205.8372 -7458.4736 301.9696 252.8568 351.2615 30256.2156 122.2704 204.8687
ENERGY: 600000 1.5548 5.7118 5.0758 0.0000 -10613.4909 1379.6413 0.0000 0.0000 1714.1973 -7507.3100 292.5138 -9221.5072 -7468.8825 299.8828 -507.1103 -420.4900 30354.9472 80.4237 143.4805
ENERGY: 900000 2.9851 11.5037 5.8513 0.0000 -10608.6592 1347.3531 0.0000 0.0000 1773.5972 -7467.3688 302.6500 -9240.9660 -7468.2344 300.0043 -802.6469 -728.2188 30404.8068 6.9132 76.9509
ENERGY: 1200000 0.9668 12.0136 5.1527 0.0000 -10689.3774 1391.2505 0.0000 0.0000 1775.9850 -7504.0088 303.0574 -9279.9938 -7473.4764 300.1204 -707.9645 -652.0544 30527.9438 -71.0398 3.4103
ENERGY: 1500000 4.5393 10.9605 5.9729 0.0000 -10724.8387 1453.6183 0.0000 0.0000 1810.7158 -7439.0318 308.9839 -9249.7477 -7473.9665 300.8275 -31.5958 42.2016 30332.9427 -87.2785 -15.0876
TCL: Running FEP window  11: Lambda1 0.4999999999999996 Lambda2 0.4499999999999996 [dLambda -0.04999999999999999]
TCL: Setting parameter firsttimestep to 0
TCL: Setting parameter alchLambda to 0.4999999999999996
Info: NONBONDED TABLE R-SQUARED SPACING: 0.0625
Info: NONBONDED TABLE SIZE: 705 POINTS
TCL: Setting parameter alchLambda2 to 0.4499999999999996
Info: NONBONDED TABLE R-SQUARED SPACING: 0.0625
Info: NONBONDED TABLE SIZE: 705 POINTS
TCL: Running for 1500000 steps
ETITLE: TS BOND ANGLE DIHED IMPRP ELECT VDW BOUNDARY MISC KINETIC TOTAL TEMP POTENTIAL TOTALAVG TEMPAVG PRESSURE GPRESSURE VOLUME PRESSAVG GPRESSAVG
ENERGY: 0 4.5393 10.9605 5.9729 0.0000 -10724.9631 1453.8495 0.0000 0.0000 1809.8352 -7439.8057 308.8337 -9249.6409 -7439.8057 308.8337 -57.6643 32.6997 30332.9427 -57.6643 32.6997
ENERGY: 300000 1.0674 6.8469 5.5130 0.0000 -10695.2201 1431.5406 0.0000 0.0000 1762.0818 -7488.1704 300.6849 -9250.2522 -7456.3440 303.8529 -143.9436 -78.5902 30116.8509 -179.9559 -92.1118
ENERGY: 600000 2.1319 6.2098 8.1110 0.0000 -10647.3112 1435.6207 0.0000 0.0000 1806.2047 -7389.0332 308.2141 -9195.2379 -7435.8899 305.7593 304.8278 286.1560 30155.5072 14.3988 81.2204
ENERGY: 900000 3.3226 9.0928 4.0799 0.0000 -10734.7161 1463.5960 0.0000 0.0000 1748.8508 -7505.7740 298.4272 -9254.6248 -7453.1095 303.1906 399.9299 433.5926 29829.8967 52.5734 111.9329
ENERGY: 1200000 3.4961 7.2880 5.7172 0.0000 -10624.5254 1418.1047 0.0000 0.0000 1838.8594 -7351.0601 313.7864 -9189.9195 -7452.1206 303.1079 122.6002 205.5307 30178.9227 60.9318 126.5673
ENERGY: 1500000 2.4192 8.6979 3.9767 0.0000 -10618.3607 1444.3147 0.0000 0.0000 1749.0128 -7409.9394 298.4548 -9158.9521 -7449.3664 302.4483 189.3930 260.2412 30494.7551 11.6946 78.9005
TCL: Running FEP window  12: Lambda1 0.4499999999999996 Lambda2 0.39999999999999963 [dLambda -0.04999999999999999]
TCL: Setting parameter firsttimestep to 0
TCL: Setting parameter alchLambda to 0.4499999999999996
Info: NONBONDED TABLE R-SQUARED SPACING: 0.0625
Info: NONBONDED TABLE SIZE: 705 POINTS
TCL: Setting parameter alchLambda2 to 0.39999999999999963
Info: NONBONDED TABLE R-SQUARED SPACING: 0.0625
Info: NONBONDED TABLE SIZE: 705 POINTS
TCL: Running for 1500000 steps
ETITLE: TS BOND ANGLE DIHED IMPRP ELECT VDW BOUNDARY MISC KINETIC TOTAL TEMP POTENTIAL TOTALAVG TEMPAVG PRESSURE GPRESSURE VOLUME PRESSAVG GPRESSAVG
ENERGY: 0 2.4192 8.6979 3.9767 0.0000 -10618.3597 1443.7369 0.0000 0.0000 1748.1169 -7411.4120 298.3020 -9159.5289 -7411.4120 298.3020 168.3587 249.8912 30494.7551 168.3587 249.8912
ENERGY: 300000 4.0160 7.0078 4.2890 0.0000 -10628.6694 1418.2355 0.0000 0.0000 1757.4510 -7437.6700 299.8947 -9195.1210 -7425.9276 301.3017 -173.9879 -129.7635 30470.3392 -157.7189 -100.1392
ENERGY: 600000 1.5594 6.3819 5.5535 0.0000 -10735.9013 1493.8139 0.0000 0.0000 1769.0764 -7459.5164 301.8785 -9228.5928 -7421.3898 302.1741 554.0280 594.7117 30053.2665 60.5012 118.3208
ENERGY: 900000 2.7519 11.9086 4.1055 0.0000 -10612.3130 1470.2858 0.0000 0.0000 1795.2162 -7328.0451 306.3391 -9123.2613 -7410.6290 303.2764 790.5031 869.1342 30045.6140 140.1862 203.7346
ENERGY: 1200000 3.9586 9.9777 3.1468 0.0000 -10877.9015 1593.6983 0.0000 0.0000 1715.4906 -7551.6295 292.7345 -9267.1201 -7427.4392 302.2060 1355.2882 1421.5479 29740.3073 216.5517 282.3963
ENERGY: 1500000 2.2687 7.0167 4.4834 0.0000 -10680.4610 1446.8298 0.0000 0.0000 1757.7405 -7462.1218 299.9441 -9219.8623 -7437.4061 301.8648 162.2327 185.6156 30307.0992 173.5335 241.2089
TCL: Running FEP window  13: Lambda1 0.39999999999999963 Lambda2 0.34999999999999964 [dLambda -0.04999999999999999]
TCL: Setting parameter firsttimestep to 0
TCL: Setting parameter alchLambda to 0.39999999999999963
Info: NONBONDED TABLE R-SQUARED SPACING: 0.0625
Info: NONBONDED TABLE SIZE: 705 POINTS
TCL: Setting parameter alchLambda2 to 0.34999999999999964
Info: NONBONDED TABLE R-SQUARED SPACING: 0.0625
Info: NONBONDED TABLE SIZE: 705 POINTS
TCL: Running for 1500000 steps
ETITLE: TS BOND ANGLE DIHED IMPRP ELECT VDW BOUNDARY MISC KINETIC TOTAL TEMP POTENTIAL TOTALAVG TEMPAVG PRESSURE GPRESSURE VOLUME PRESSAVG GPRESSAVG
ENERGY: 0 2.2687 7.0167 4.4834 0.0000 -10680.4607 1447.4337 0.0000 0.0000 1756.9159 -7462.3423 299.8034 -9219.2582 -7462.3423 299.8034 112.7321 186.7008 30307.0992 112.7321 186.7008
ENERGY: 300000 7.6219 9.7376 2.6627 0.0000 -10700.1259 1420.2452 0.0000 0.0000 1808.5599 -7451.2986 308.6161 -9259.8585 -7452.7116 301.0018 -379.2655 -351.5213 30440.9663 -257.8226 -210.3413
ENERGY: 600000 1.4137 10.6609 5.8903 0.0000 -10549.6848 1338.2588 0.0000 0.0000 1764.2579 -7429.2031 301.0563 -9193.4611 -7446.0700 299.9051 -625.3772 -590.5883 29867.0669 -438.1561 -387.5113
ENERGY: 900000 6.1004 12.9025 4.2631 0.0000 -10622.1341 1429.3595 0.0000 0.0000 1743.1758 -7426.3327 297.4588 -9169.5085 -7451.2325 299.4202 -143.6398 -43.4063 30634.9879 -344.8293 -283.2211
ENERGY: 1200000 5.8885 7.2607 4.8823 0.0000 -10518.5116 1315.1200 0.0000 0.0000 1701.6629 -7483.6973 290.3749 -9185.3601 -7463.4905 297.2048 -1113.0123 -1037.6065 30606.8144 -458.0876 -403.2034
ENERGY: 1500000 0.5215 6.6642 6.8810 0.0000 -10645.5632 1443.2784 0.0000 0.0000 1738.8437 -7449.3745 296.7195 -9188.2181 -7456.7893 297.3390 176.0739 237.7917 30295.3996 -305.8208 -252.8260
TCL: Running FEP window  14: Lambda1 0.34999999999999964 Lambda2 0.29999999999999966 [dLambda -0.04999999999999999]
TCL: Setting parameter firsttimestep to 0
TCL: Setting parameter alchLambda to 0.34999999999999964
Info: NONBONDED TABLE R-SQUARED SPACING: 0.0625
Info: NONBONDED TABLE SIZE: 705 POINTS
TCL: Setting parameter alchLambda2 to 0.29999999999999966
Info: NONBONDED TABLE R-SQUARED SPACING: 0.0625
Info: NONBONDED TABLE SIZE: 705 POINTS
TCL: Running for 1500000 steps
ETITLE: TS BOND ANGLE DIHED IMPRP ELECT VDW BOUNDARY MISC KINETIC TOTAL TEMP POTENTIAL TOTALAVG TEMPAVG PRESSURE GPRESSURE VOLUME PRESSAVG GPRESSAVG
ENERGY: 0 0.5215 6.6642 6.8810 0.0000 -10645.5654 1443.6897 0.0000 0.0000 1737.9788 -7449.8302 296.5720 -9187.8090 -7449.8302 296.5720 148.1840 234.0912 30295.3996 148.1840 234.0912
ENERGY: 300000 3.9240 8.9047 3.8297 0.0000 -10544.6911 1409.0828 0.0000 0.0000 1830.8277 -7288.1221 312.4159 -9118.9498 -7399.7247 302.8618 -26.2877 56.6357 30432.5023 102.2320 184.6841
ENERGY: 600000 2.9047 9.0054 4.8152 0.0000 -10661.9267 1394.1605 0.0000 0.0000 1800.3146 -7450.7264 307.2091 -9251.0410 -7423.1799 302.0709 -405.9619 -345.4073 30361.5348 14.3857 88.5319
ENERGY: 900000 2.5558 8.5368 3.4884 0.0000 -10890.2966 1544.2311 0.0000 0.0000 1760.1359 -7571.3486 300.3529 -9331.4845 -7447.1676 300.3538 588.5580 643.2870 29956.3964 67.7784 138.2743
ENERGY: 1200000 3.7531 10.1727 4.1961 0.0000 -10668.3829 1441.4283 0.0000 0.0000 1756.0626 -7452.7701 299.6578 -9208.8327 -7455.0734 301.0768 -265.0218 -164.3088 30591.7164 61.0816 133.6417
ENERGY: 1500000 2.3450 7.7365 5.7310 0.0000 -10681.4069 1408.3796 0.0000 0.0000 1737.4183 -7519.7964 296.4763 -9257.2147 -7463.6494 301.1078 -369.5935 -282.7916 30159.6643 115.9012 190.7237
TCL: Running FEP window  15: Lambda1 0.29999999999999966 Lambda2 0.24999999999999967 [dLambda -0.04999999999999999]
TCL: Setting parameter firsttimestep to 0
TCL: Setting parameter alchLambda to 0.29999999999999966
Info: NONBONDED TABLE R-SQUARED SPACING: 0.0625
Info: NONBONDED TABLE SIZE: 705 POINTS
TCL: Setting parameter alchLambda2 to 0.24999999999999967
Info: NONBONDED TABLE R-SQUARED SPACING: 0.0625
Info: NONBONDED TABLE SIZE: 705 POINTS
TCL: Running for 1500000 steps
ETITLE: TS BOND ANGLE DIHED IMPRP ELECT VDW BOUNDARY MISC KINETIC TOTAL TEMP POTENTIAL TOTALAVG TEMPAVG PRESSURE GPRESSURE VOLUME PRESSAVG GPRESSAVG
ENERGY: 0 2.3450 7.7365 5.7310 0.0000 -10681.4060 1408.6481 0.0000 0.0000 1736.5843 -7520.3610 296.3340 -9256.9453 -7520.3610 296.3340 -366.4336 -285.3722 30159.6643 -366.4336 -285.3722
ENERGY: 300000 5.1626 5.8043 4.3544 0.0000 -10492.4619 1308.6905 0.0000 0.0000 1786.8052 -7381.6449 304.9038 -9168.4501 -7462.5904 296.9591 -836.0220 -861.0998 30310.5799 -102.8996 -60.1999
ENERGY: 600000 2.6031 12.5590 5.5441 0.0000 -10677.6197 1446.0065 0.0000 0.0000 1739.0921 -7471.8150 296.7619 -9210.9070 -7453.6153 298.9121 -48.2504 0.1274 30280.3751 -214.8253 -153.7354
ENERGY: 900000 3.0970 11.5723 5.3581 0.0000 -10693.0590 1424.3398 0.0000 0.0000 1827.4367 -7421.2552 311.8372 -9248.6919 -7442.5667 301.3996 -2.7084 31.8608 29797.4543 -372.0030 -313.4894
ENERGY: 1200000 4.0130 8.5102 3.7230 0.0000 -10742.1518 1509.8410 0.0000 0.0000 1798.7586 -7417.3059 306.9435 -9216.0646 -7443.8051 302.0554 661.0158 686.1246 30220.0730 -225.4063 -168.6052
ENERGY: 1500000 2.1048 9.4580 5.4413 0.0000 -10761.6456 1481.8549 0.0000 0.0000 1760.6795 -7502.1071 300.4457 -9262.7866 -7441.3339 302.4489 487.4454 594.9848 29910.1161 -211.4964 -151.0632
TCL: Running FEP window  16: Lambda1 0.24999999999999967 Lambda2 0.19999999999999968 [dLambda -0.04999999999999999]
TCL: Setting parameter firsttimestep to 0
TCL: Setting parameter alchLambda to 0.24999999999999967
Info: NONBONDED TABLE R-SQUARED SPACING: 0.0625
Info: NONBONDED TABLE SIZE: 705 POINTS
TCL: Setting parameter alchLambda2 to 0.19999999999999968
Info: NONBONDED TABLE R-SQUARED SPACING: 0.0625
Info: NONBONDED TABLE SIZE: 705 POINTS
TCL: Running for 1500000 steps
ETITLE: TS BOND ANGLE DIHED IMPRP ELECT VDW BOUNDARY MISC KINETIC TOTAL TEMP POTENTIAL TOTALAVG TEMPAVG PRESSURE GPRESSURE VOLUME PRESSAVG GPRESSAVG
ENERGY: 0 2.1048 9.4580 5.4413 0.0000 -10761.6446 1482.1845 0.0000 0.0000 1759.8006 -7502.6554 300.2957 -9262.4560 -7502.6554 300.2957 503.2287 594.4954 29910.1161 503.2287 594.4954
ENERGY: 300000 2.7720 7.2403 4.7056 0.0000 -10666.9579 1484.1137 0.0000 0.0000 1726.4626 -7441.6636 294.6068 -9168.1262 -7438.2113 300.0672 335.5323 419.1732 30364.0308 130.6509 210.3707
ENERGY: 600000 1.8275 8.8143 3.5579 0.0000 -10581.3470 1401.2587 0.0000 0.0000 1690.2271 -7475.6615 288.4235 -9165.8886 -7435.7658 299.6018 -548.1611 -479.5147 30665.4732 -126.6524 -44.6223
ENERGY: 900000 1.8827 5.9809 5.6510 0.0000 -10572.0646 1373.3378 0.0000 0.0000 1720.3738 -7464.8384 293.5678 -9185.2122 -7442.4019 299.0942 -533.8480 -468.4491 30227.2119 37.2635 113.5044
ENERGY: 1200000 2.7882 5.9413 7.4607 0.0000 -10700.6939 1412.5523 0.0000 0.0000 1766.1478 -7505.8036 301.3788 -9271.9515 -7448.0299 299.8157 -281.4574 -247.4150 29903.2025 96.2108 161.7438
ENERGY: 1500000 2.3516 7.4826 4.1464 0.0000 -10758.8937 1457.5214 0.0000 0.0000 1768.1857 -7519.2060 301.7265 -9287.3917 -7449.6521 300.2962 18.9620 85.1691 30066.4092 71.2974 134.1623
TCL: Running FEP window  17: Lambda1 0.19999999999999968 Lambda2 0.1499999999999997 [dLambda -0.04999999999999999]
TCL: Setting parameter firsttimestep to 0
TCL: Setting parameter alchLambda to 0.19999999999999968
Info: NONBONDED TABLE R-SQUARED SPACING: 0.0625
Info: NONBONDED TABLE SIZE: 705 POINTS
TCL: Setting parameter alchLambda2 to 0.1499999999999997
Info: NONBONDED TABLE R-SQUARED SPACING: 0.0625
Info: NONBONDED TABLE SIZE: 705 POINTS
TCL: Running for 1500000 steps
ETITLE: TS BOND ANGLE DIHED IMPRP ELECT VDW BOUNDARY MISC KINETIC TOTAL TEMP POTENTIAL TOTALAVG TEMPAVG PRESSURE GPRESSURE VOLUME PRESSAVG GPRESSAVG
ENERGY: 0 2.3516 7.4826 4.1464 0.0000 -10758.8931 1458.1502 0.0000 0.0000 1767.3072 -7519.4551 301.5766 -9286.7623 -7519.4551 301.5766 -3.6555 84.0346 30066.4092 -3.6555 84.0346
ENERGY: 300000 2.0651 7.2748 4.2789 0.0000 -10563.8371 1386.6850 0.0000 0.0000 1800.5258 -7363.0074 307.2451 -9163.5332 -7444.9535 299.8596 -399.9241 -299.8361 30423.0569 -163.6552 -91.5167
ENERGY: 600000 3.2188 7.0120 4.6110 0.0000 -10681.8927 1421.6972 0.0000 0.0000 1740.9960 -7504.3577 297.0868 -9245.3537 -7444.0425 299.6933 -108.3132 -143.3505 30046.3849 -216.0188 -165.3047
ENERGY: 900000 2.3781 6.5416 5.7726 0.0000 -10694.7740 1408.8952 0.0000 0.0000 1839.9504 -7431.2360 313.9726 -9271.1864 -7447.5875 301.0335 -591.3406 -539.5665 30558.0848 -132.3601 -78.1252
ENERGY: 1200000 3.1803 9.4701 3.4886 0.0000 -10535.2404 1379.4440 0.0000 0.0000 1808.9700 -7330.6873 308.6860 -9139.6573 -7446.7017 301.3269 -268.2729 -229.5997 30289.0662 -190.1047 -136.4972
ENERGY: 1500000 1.3909 9.0290 2.8170 0.0000 -10727.8105 1526.4210 0.0000 0.0000 1778.7038 -7409.4488 303.5213 -9188.1525 -7449.3863 300.7948 758.6744 838.9394 29955.7964 -45.5023 6.8075
TCL: Running FEP window  18: Lambda1 0.1499999999999997 Lambda2 0.09999999999999969 [dLambda -0.05 ]
TCL: Setting parameter firsttimestep to 0
TCL: Setting parameter alchLambda to 0.1499999999999997
Info: NONBONDED TABLE R-SQUARED SPACING: 0.0625
Info: NONBONDED TABLE SIZE: 705 POINTS
TCL: Setting parameter alchLambda2 to 0.09999999999999969
Info: NONBONDED TABLE R-SQUARED SPACING: 0.0625
Info: NONBONDED TABLE SIZE: 705 POINTS
TCL: Running for 1500000 steps
ETITLE: TS BOND ANGLE DIHED IMPRP ELECT VDW BOUNDARY MISC KINETIC TOTAL TEMP POTENTIAL TOTALAVG TEMPAVG PRESSURE GPRESSURE VOLUME PRESSAVG GPRESSAVG
ENERGY: 0 1.3909 9.0290 2.8170 0.0000 -10727.8091 1525.5109 0.0000 0.0000 1777.8356 -7411.2257 303.3732 -9189.0613 -7411.2257 303.3732 739.1892 830.5316 29955.7964 739.1892 830.5316
ENERGY: 300000 0.7033 6.4382 4.5839 0.0000 -10689.3071 1450.4471 0.0000 0.0000 1754.7748 -7472.3598 299.4381 -9227.1346 -7429.8157 300.1678 107.6003 173.0835 30096.2290 306.7452 380.6418
ENERGY: 600000 2.5942 9.9010 5.2916 0.0000 -10718.0686 1449.8197 0.0000 0.0000 1752.7559 -7497.7061 299.0936 -9250.4621 -7445.0238 300.6805 45.5768 149.2565 29779.5126 52.0573 124.9406
ENERGY: 900000 1.0342 16.2733 5.7670 0.0000 -10634.1223 1428.3542 0.0000 0.0000 1757.3323 -7425.3613 299.8745 -9182.6936 -7442.2284 300.2250 -61.0604 17.4752 30193.0447 -62.8547 12.5564
ENERGY: 1200000 1.1712 11.5366 3.7035 0.0000 -10743.1539 1456.0926 0.0000 0.0000 1726.3762 -7544.2739 294.5921 -9270.6501 -7444.4860 299.9640 78.8952 178.4786 30185.6252 12.1017 85.0976
ENERGY: 1500000 2.0417 7.4436 4.1807 0.0000 -10713.5702 1419.9645 0.0000 0.0000 1743.3458 -7536.5938 297.4878 -9279.9396 -7448.5896 300.6683 -283.4834 -246.5055 30019.4452 105.9403 172.9408
TCL: Running FEP window  19: Lambda1 0.09999999999999969 Lambda2 0.049999999999999684 [dLambda -0.05 ]
TCL: Setting parameter firsttimestep to 0
TCL: Setting parameter alchLambda to 0.09999999999999969
Info: NONBONDED TABLE R-SQUARED SPACING: 0.0625
Info: NONBONDED TABLE SIZE: 705 POINTS
TCL: Setting parameter alchLambda2 to 0.049999999999999684
Info: NONBONDED TABLE R-SQUARED SPACING: 0.0625
Info: NONBONDED TABLE SIZE: 705 POINTS
TCL: Running for 1500000 steps
ETITLE: TS BOND ANGLE DIHED IMPRP ELECT VDW BOUNDARY MISC KINETIC TOTAL TEMP POTENTIAL TOTALAVG TEMPAVG PRESSURE GPRESSURE VOLUME PRESSAVG GPRESSAVG
ENERGY: 0 2.0417 7.4436 4.1807 0.0000 -10713.5706 1420.1968 0.0000 0.0000 1742.4822 -7537.2257 297.3404 -9279.7078 -7537.2257 297.3404 -335.4208 -247.4932 30019.4452 -335.4208 -247.4932
ENERGY: 300000 2.3930 9.8148 3.9301 0.0000 -10552.4927 1404.5229 0.0000 0.0000 1750.4892 -7381.3428 298.7068 -9131.8320 -7435.9632 298.5762 68.6152 66.2432 30281.4606 182.3967 236.1691
ENERGY: 600000 1.7284 8.6742 6.1468 0.0000 -10617.4011 1395.3569 0.0000 0.0000 1741.3149 -7464.1798 297.1412 -9205.4947 -7455.3636 297.8593 -315.3616 -250.8652 30151.5007 63.4493 114.6772
ENERGY: 900000 1.3799 9.8498 7.3720 0.0000 -10698.0962 1488.8722 0.0000 0.0000 1785.2546 -7405.3677 304.6392 -9190.6222 -7439.2517 300.1605 737.4966 773.8467 29731.8408 149.1215 197.6459
ENERGY: 1200000 1.3590 7.6739 3.0492 0.0000 -10811.4819 1520.8141 0.0000 0.0000 1762.8012 -7515.7846 300.8077 -9278.5858 -7445.4489 299.9879 773.2921 876.2080 29538.5418 189.4527 244.6469
ENERGY: 1500000 3.0547 8.9972 3.2698 0.0000 -10643.0946 1442.6173 0.0000 0.0000 1745.9782 -7439.1774 297.9370 -9185.1556 -7442.5965 299.6473 -74.7142 21.5017 30430.0252 131.5124 182.0121
TCL: Running FEP window  20: Lambda1 0.049999999999999684 Lambda2 0.0    [dLambda -0.049999999999999684]
TCL: Setting parameter firsttimestep to 0
TCL: Setting parameter alchLambda to 0.049999999999999684
Info: NONBONDED TABLE R-SQUARED SPACING: 0.0625
Info: NONBONDED TABLE SIZE: 705 POINTS
TCL: Setting parameter alchLambda2 to 0.0
Info: NONBONDED TABLE R-SQUARED SPACING: 0.0625
Info: NONBONDED TABLE SIZE: 705 POINTS
TCL: Running for 1500000 steps
ETITLE: TS BOND ANGLE DIHED IMPRP ELECT VDW BOUNDARY MISC KINETIC TOTAL TEMP POTENTIAL TOTALAVG TEMPAVG PRESSURE GPRESSURE VOLUME PRESSAVG GPRESSAVG
ENERGY: 0 3.0547 8.9972 3.2698 0.0000 -10643.0935 1441.8515 0.0000 0.0000 1745.0983 -7440.8220 297.7869 -9185.9204 -7440.8220 297.7869 -68.9029 17.6571 30430.0252 -68.9029 17.6571
ENERGY: 300000 0.7210 7.0404 4.4077 0.0000 -10768.8162 1489.2442 0.0000 0.0000 1797.7934 -7469.6095 306.7788 -9267.4029 -7439.9208 300.8419 323.5061 328.1036 30139.2016 -39.5814 6.3161
ENERGY: 600000 3.4168 7.3518 2.5131 0.0000 -10686.0636 1435.6215 0.0000 0.0000 1705.4342 -7531.7262 291.0185 -9237.1604 -7446.6137 299.1800 25.5266 88.8819 29824.3632 -19.0614 26.6986
ENERGY: 900000 0.7557 7.4686 4.6920 0.0000 -10788.3888 1506.6041 0.0000 0.0000 1730.0025 -7538.8659 295.2109 -9268.8685 -7454.7406 299.1392 567.2176 736.3904 29597.5280 -105.6419 -44.5135
ENERGY: 1200000 2.0719 12.6442 3.9913 0.0000 -10767.9309 1500.0308 0.0000 0.0000 1773.6794 -7475.5133 302.6640 -9249.1927 -7456.7006 299.7895 514.8213 557.0167 29946.2704 -18.8494 33.3129
ENERGY: 1500000 3.0683 10.0398 4.6428 0.0000 -10724.4334 1462.1139 0.0000 0.0000 1727.8505 -7516.7181 294.8437 -9244.5687 -7459.6698 299.6652 280.9411 300.5197 29962.9576 -17.5576 32.4274
TCL: Exiting due to exit command.
