Info: SIMULATION PARAMETERS:
Info: TIMESTEP               2
Info: NUMBER OF STEPS        0
Info: STEPS PER CYCLE        10
Info: PERIODIC CELL BASIS 1  31.0475 0 0
Info: PERIODIC CELL BASIS 2  0 30.4033 0
Info: PERIODIC CELL BASIS 3  0 0 32.4648
Info: PERIODIC CELL CENTER   0 0 0
Info: WRAPPING WATERS AROUND PERIODIC BOUNDARIES ON OUTPUT.
Info: WRAPPING ALL CLUSTERS AROUND PERIODIC BOUNDARIES ON OUTPUT.
Info: FIRST LDB TIMESTEP     50
Info: LAST LDB TIMESTEP     -1
Info: HOM BACKGROUND SCALING 1
Info: PME BACKGROUND SCALING 1
Info: MIN ATOMS PER PATCH    40
Info: EMPTY PATCH LOAD       40 ATOMS
Info: VELOCITY FILE          mobley_1075836_equil.vel
Info: CENTER OF MASS MOVING INITIALLY? NO
Info: DIELECTRIC             1
Info: EXCLUDE                SCALED ONE-FOUR
Info: 1-4 ELECTROSTATICS SCALED BY 0.833333
Info: MODIFIED 1-4 VDW PARAMETERS WILL BE USED
Info: DCD FILENAME           mobley_1075836_prod.dcd
Info: DCD FREQUENCY          100000
Info: DCD FIRST STEP         100000
Info: DCD FILE WILL CONTAIN UNIT CELL DATA
Info: XST FILENAME           mobley_1075836_prod.xst
Info: XST FREQUENCY          100000
Info: NO VELOCITY DCD OUTPUT
Info: NO FORCE DCD OUTPUT
Info: OUTPUT FILENAME        mobley_1075836_prod
Info: BINARY OUTPUT FILES WILL BE USED
Info: RESTART FILENAME       mobley_1075836_prod.restart
Info: RESTART FREQUENCY      100000
Info: BINARY RESTART FILES WILL BE USED
Info: CUTOFF                 9
Info: PAIRLIST DISTANCE      11
Info: PAIRLIST SHRINK RATE   0.01
Info: PAIRLIST GROW RATE     0.01
Info: PAIRLIST TRIGGER       0.3
Info: PAIRLISTS PER CYCLE    2
Info: PAIRLISTS ENABLED
Info: MARGIN                 2
Info: HYDROGEN GROUP CUTOFF  2.5
Info: PATCH DIMENSION        15.5
Info: ENERGY OUTPUT STEPS    100000
Info: ENERGY EVALUATION STEPS    100000
Info: OUTPUT ENERGY PRECISION 4
Info: CROSSTERM ENERGY INCLUDED IN DIHEDRAL
Info: TIMING OUTPUT STEPS    1000000
Info: PRESSURE OUTPUT STEPS  100000
Info: ALCHEMICAL FEP ON
Info: FEP CURRENT LAMBDA VALUE     1
Info: FEP COMPARISON LAMBDA VALUE  0.95
Info: FEP INTRA-ALCHEMICAL NON-BONDED INTERACTIONS WILL BE RETAINED
Info: FEP INTRA-ALCHEMICAL BONDED INTERACTIONS WILL BE RETAINED
Info: FEP VDW SHIFTING COEFFICIENT 5
Info: FEP ELEC. ACTIVE FOR ANNIHILATED PARTICLES BETWEEN LAMBDA = 0 AND LAMBDA = 0.5
Info: FEP ELEC. ACTIVE FOR EXNIHILATED PARTICLES BETWEEN LAMBDA = 0.5 AND LAMBDA = 1
Info: FEP VDW ACTIVE FOR ANNIHILATED PARTICLES BETWEEN LAMBDA = 0 AND LAMBDA = 1
Info: FEP VDW ACTIVE FOR EXNIHILATED PARTICLES BETWEEN LAMBDA = 0 AND LAMBDA = 1
Info: FEP BOND ACTIVE FOR ANNIHILATED PARTICLES BETWEEN LAMBDA = 1 AND LAMBDA = 1
Info: FEP BOND ACTIVE FOR EXNIHILATED PARTICLES BETWEEN LAMBDA = 0 AND LAMBDA = 0
Info: LANGEVIN DYNAMICS ACTIVE
Info: LANGEVIN TEMPERATURE   300
Info: LANGEVIN USING BBK INTEGRATOR
Info: LANGEVIN DAMPING COEFFICIENT IS 1 INVERSE PS
Info: LANGEVIN DYNAMICS APPLIED TO HYDROGENS
Info: LANGEVIN PISTON PRESSURE CONTROL ACTIVE
Info:        TARGET PRESSURE IS 1.01325 BAR
Info:     OSCILLATION PERIOD IS 50 FS
Info:             DECAY TIME IS 25 FS
Info:     PISTON TEMPERATURE IS 300 K
Info:       PRESSURE CONTROL IS GROUP-BASED
Info:    INITIAL STRAIN RATE IS -0.000178387 -0.000178387 -0.000178387
Info:       CELL FLUCTUATION IS ISOTROPIC
Info: PARTICLE MESH EWALD (PME) ACTIVE
Info: PME TOLERANCE               1e-06
Info: PME EWALD COEFFICIENT       0.348832
Info: PME INTERPOLATION ORDER     4
Info: PME GRID DIMENSIONS         32 32 36
Info: PME MAXIMUM GRID SPACING    1
Info: PME CALCULATION WILL BE PERFORMED ON GPU
Info: FULL ELECTROSTATIC EVALUATION FREQUENCY      2
Info: USING VERLET I (r-RESPA) MTS SCHEME.
Info: C1 SPLITTING OF LONG RANGE ELECTROSTATICS
Info: PLACING ATOMS IN PATCHES BY HYDROGEN GROUPS
Info: RIGID BONDS TO HYDROGEN : ALL
Info:         ERROR TOLERANCE : 1e-08
Info:          MAX ITERATIONS : 100
Info: RIGID WATER USING SETTLE ALGORITHM
Info: RANDOM NUMBER SEED     1743738491
Info: USE HYDROGEN BONDS?    NO
Info: Using AMBER format force field!
Info: AMBER PARM FILE        mobley_1075836.prmtop
Info: COORDINATE PDB         mobley_1075836.pdb
Info: Exclusions will be read from PARM file!
Info: SCNB (VDW SCALING)     2
Info: USING ARITHMETIC MEAN TO COMBINE L-J SIGMA PARAMETERS
Info: BINARY COORDINATES     mobley_1075836_equil.coor
Info: SUMMARY OF PARAMETERS:
Info: 9 BONDS
Info: 10 ANGLES
Info:   10 HARMONIC
Info:   0 COSINE-BASED
Info: 12 DIHEDRAL
Info: 0 IMPROPER
Info: 0 CROSSTERM
Info: 0 VDW
Info: 36 VDW_PAIRS
Info: 0 NBTHOLE_PAIRS
Info: To read alchdata from file: mobley_1075836.pdb
Info: To read alchflag data from column: 5
Info: STRUCTURE SUMMARY:
Info: 2969 ATOMS
Info: 2968 BONDS
Info: 22 ANGLES
Info: 28 DIHEDRALS
Info: 0 IMPROPERS
Info: 0 CROSSTERMS
Info: 3010 EXCLUSIONS
Info: 2963 RIGID BONDS
Info: ALCH: 0 ATOMS TO DISAPPEAR IN FINAL STATE
Info: ALCH: 14 ATOMS TO APPEAR IN FINAL STATE
Info: 5944 DEGREES OF FREEDOM
Info: 991 HYDROGEN GROUPS
Info: 4 ATOMS IN LARGEST HYDROGEN GROUP
Info: 991 MIGRATION GROUPS
Info: 4 ATOMS IN LARGEST MIGRATION GROUP
Info: TOTAL MASS = 17833.9 amu
Info: TOTAL CHARGE = -0.000100046 e
Info: MASS DENSITY = 0.966373 g/cm^3
Info: ATOM DENSITY = 0.0968836 atoms/A^3
Info: ADDED 0 IMPLICIT EXCLUSIONS
Info: NONBONDED TABLE R-SQUARED SPACING: 0.0625
Info: NONBONDED TABLE SIZE: 705 POINTS
Info: REMOVING COM VELOCITY -0.157091 0.129039 -0.212498
Info: Use 3D box decompostion in PME FFT.
Info: Updated CUDA force table with 4096 elements.
Info: Updated CUDA LJ table with 8 x 8 elements.
Info: Found 17 unique exclusion lists needing 32 bytes
TCL: Running for 1500000 steps
ETITLE: TS BOND ANGLE DIHED IMPRP ELECT VDW BOUNDARY MISC KINETIC TOTAL TEMP POTENTIAL TOTALAVG TEMPAVG PRESSURE GPRESSURE VOLUME PRESSAVG GPRESSAVG
ENERGY: 0 1.6686 3.8363 3.5091 0.0000 -10713.4277 1467.5360 0.0000 0.0000 1844.5541 -7392.3237 312.3223 -9236.8778 -7392.3237 312.3223 371.0609 453.0432 30645.0198 371.0609 453.0432
ENERGY: 300000 1.2960 7.2379 0.9465 0.0000 -10748.1311 1435.9818 0.0000 0.0000 1806.7966 -7495.8724 305.9291 -9302.6690 -7513.1565 302.7894 153.3901 191.0141 30606.1637 73.3724 140.7844
ENERGY: 600000 1.6884 5.3726 4.5237 0.0000 -10887.4260 1506.8186 0.0000 0.0000 1746.4371 -7622.5857 295.7090 -9369.0228 -7552.1034 300.1960 307.6011 399.5770 30608.9881 209.8454 279.9540
ENERGY: 900000 0.6380 6.4293 1.1382 0.0000 -10747.8426 1387.7535 0.0000 0.0000 1815.4847 -7536.3988 307.4002 -9351.8835 -7521.1798 301.9255 -317.3143 -200.1818 30298.7978 111.2390 182.7273
ENERGY: 1200000 0.7202 5.5402 2.2258 0.0000 -10756.3129 1428.6029 0.0000 0.0000 1793.7037 -7525.5200 303.7122 -9319.2237 -7521.7115 301.6668 -184.1178 -51.3982 30593.0832 71.4978 143.3051
ENERGY: 1500000 0.6774 5.4338 3.7902 0.0000 -10750.2255 1389.4177 0.0000 0.0000 1845.3090 -7505.5974 312.4501 -9350.9064 -7535.3193 301.0174 -280.9572 -181.0575 30284.6354 -40.2407 25.1709
TCL: Running FEP window   2: Lambda1 0.95   Lambda2 0.8999999999999999 [dLambda -0.050000000000000044]
TCL: Setting parameter firsttimestep to 0
TCL: Setting parameter alchLambda to 0.95
Info: NONBONDED TABLE R-SQUARED SPACING: 0.0625
Info: NONBONDED TABLE SIZE: 705 POINTS
TCL: Setting parameter alchLambda2 to 0.8999999999999999
Info: NONBONDED TABLE R-SQUARED SPACING: 0.0625
Info: NONBONDED TABLE SIZE: 705 POINTS
TCL: Running for 1500000 steps
ETITLE: TS BOND ANGLE DIHED IMPRP ELECT VDW BOUNDARY MISC KINETIC TOTAL TEMP POTENTIAL TOTALAVG TEMPAVG PRESSURE GPRESSURE VOLUME PRESSAVG GPRESSAVG
ENERGY: 0 0.6775 5.4338 3.7902 0.0000 -10749.0873 1389.5492 0.0000 0.0000 1844.4277 -7505.2089 312.3009 -9349.6366 -7505.2089 312.3009 -292.1334 -190.4728 30284.6354 -292.1334 -190.4728
ENERGY: 300000 0.8563 4.1782 1.8559 0.0000 -10828.7238 1496.2990 0.0000 0.0000 1763.9647 -7561.5697 298.6768 -9325.5345 -7541.4759 305.8858 299.1538 347.3994 30574.7322 -87.4056 -28.7883
ENERGY: 600000 0.2764 4.7943 1.3525 0.0000 -10719.5557 1385.0477 0.0000 0.0000 1786.1200 -7541.9649 302.4281 -9328.0848 -7540.3646 302.9567 -714.0170 -607.2281 30965.9039 -232.4692 -166.3913
ENERGY: 900000 1.0741 4.4943 1.8891 0.0000 -10645.0297 1347.2986 0.0000 0.0000 1790.9217 -7499.3520 303.2412 -9290.2737 -7552.6835 301.9483 -640.9163 -607.3147 30647.6536 -193.9131 -128.2901
ENERGY: 1200000 2.2555 3.6093 2.0048 0.0000 -10789.7655 1429.6570 0.0000 0.0000 1777.0917 -7575.1471 300.8995 -9352.2388 -7549.0249 301.4517 -356.2396 -277.2539 30783.6699 -163.6510 -98.0230
ENERGY: 1500000 2.4598 4.9290 2.3039 0.0000 -10664.4943 1383.6914 0.0000 0.0000 1786.2106 -7484.8996 302.4435 -9271.1102 -7540.2968 301.4995 -527.2858 -517.7743 31179.0327 -171.9091 -112.0123
TCL: Running FEP window   3: Lambda1 0.8999999999999999 Lambda2 0.8499999999999999 [dLambda -0.050000000000000044]
TCL: Setting parameter firsttimestep to 0
TCL: Setting parameter alchLambda to 0.8999999999999999
Info: NONBONDED TABLE R-SQUARED SPACING: 0.0625
Info: NONBONDED TABLE SIZE: 705 POINTS
TCL: Setting parameter alchLambda2 to 0.8499999999999999
Info: NONBONDED TABLE R-SQUARED SPACING: 0.0625
Info: NONBONDED TABLE SIZE: 705 POINTS
TCL: Running for 1500000 steps
ETITLE: TS BOND ANGLE DIHED IMPRP ELECT VDW BOUNDARY MISC KINETIC TOTAL TEMP POTENTIAL TOTALAVG TEMPAVG PRESSURE GPRESSURE VOLUME PRESSAVG GPRESSAVG
ENERGY: 0 2.4598 4.9290 2.3039 0.0000 -10663.2779 1383.7088 0.0000 0.0000 1785.3085 -7484.5679 302.2907 -9269.8764 -7484.5679 302.2907 -604.1911 -521.7715 31179.0327 -604.1911 -521.7715
ENERGY: 300000 3.4993 8.6623 1.7269 0.0000 -10909.9261 1453.2714 0.0000 0.0000 1780.8959 -7661.8704 301.5436 -9442.7663 -7546.6248 300.7395 -230.5532 -143.2516 29995.3502 -97.2146 -27.2950
ENERGY: 600000 0.7410 5.1799 2.6764 0.0000 -10601.8411 1349.8770 0.0000 0.0000 1721.9137 -7521.4531 291.5567 -9243.3668 -7534.8712 298.1866 -776.0682 -719.9150 31338.1391 -228.6639 -158.4073
ENERGY: 900000 0.5939 7.1726 1.3763 0.0000 -10834.4003 1527.3425 0.0000 0.0000 1800.0362 -7497.8787 304.7845 -9297.9149 -7536.2234 299.4582 710.6320 799.2199 30498.3649 -113.4889 -33.5321
ENERGY: 1200000 1.8177 6.6767 4.1663 0.0000 -10824.7030 1497.1007 0.0000 0.0000 1819.9264 -7495.0152 308.1523 -9314.9416 -7540.6032 299.5029 328.5732 373.6994 30897.2685 -86.4503 -15.7031
ENERGY: 1500000 0.6075 6.7912 2.0767 0.0000 -10838.1416 1480.7174 0.0000 0.0000 1799.0545 -7548.8943 304.6182 -9347.9488 -7540.8885 299.8520 315.3103 324.9544 30529.9054 -54.9632 7.9284
TCL: Running FEP window   4: Lambda1 0.8499999999999999 Lambda2 0.7999999999999998 [dLambda -0.050000000000000044]
TCL: Setting parameter firsttimestep to 0
TCL: Setting parameter alchLambda to 0.8499999999999999
Info: NONBONDED TABLE R-SQUARED SPACING: 0.0625
Info: NONBONDED TABLE SIZE: 705 POINTS
TCL: Setting parameter alchLambda2 to 0.7999999999999998
Info: NONBONDED TABLE R-SQUARED SPACING: 0.0625
Info: NONBONDED TABLE SIZE: 705 POINTS
TCL: Running for 1500000 steps
ETITLE: TS BOND ANGLE DIHED IMPRP ELECT VDW BOUNDARY MISC KINETIC TOTAL TEMP POTENTIAL TOTALAVG TEMPAVG PRESSURE GPRESSURE VOLUME PRESSAVG GPRESSAVG
ENERGY: 0 0.6075 6.7912 2.0767 0.0000 -10836.5071 1480.7058 0.0000 0.0000 1798.1483 -7548.1776 304.4648 -9346.3259 -7548.1776 304.4648 238.9557 316.4266 30529.9054 238.9557 316.4266
ENERGY: 300000 0.9807 6.6327 3.9926 0.0000 -10607.7375 1325.6817 0.0000 0.0000 1730.0088 -7540.4410 292.9273 -9270.4499 -7540.4730 300.7945 -743.0288 -663.8685 30752.6586 -20.9142 55.3985
ENERGY: 600000 1.5379 4.7617 4.9782 0.0000 -10661.8243 1418.8096 0.0000 0.0000 1786.2624 -7445.4746 302.4523 -9231.7370 -7534.1107 300.8116 -218.1086 -121.4913 30970.7127 -132.6660 -59.2730
ENERGY: 900000 2.1335 7.2051 2.7740 0.0000 -10829.8495 1516.4002 0.0000 0.0000 1739.9719 -7561.3648 294.6143 -9301.3367 -7523.1446 301.4368 686.7494 719.9821 30509.1363 -129.2672 -68.0842
ENERGY: 1200000 1.6712 4.1531 1.4074 0.0000 -10731.2839 1421.1388 0.0000 0.0000 1799.3264 -7503.5870 304.6643 -9302.9133 -7525.1248 301.4994 -69.7102 3.4892 30579.4314 -159.9171 -100.1268
ENERGY: 1500000 1.6694 6.8183 2.3376 0.0000 -10643.0809 1317.2657 0.0000 0.0000 1762.9052 -7552.0847 298.4974 -9314.9899 -7529.2218 300.6495 -1217.9256 -1125.8006 30991.0390 -235.0347 -174.9057
TCL: Running FEP window   5: Lambda1 0.7999999999999998 Lambda2 0.7499999999999998 [dLambda -0.050000000000000044]
TCL: Setting parameter firsttimestep to 0
TCL: Setting parameter alchLambda to 0.7999999999999998
Info: NONBONDED TABLE R-SQUARED SPACING: 0.0625
Info: NONBONDED TABLE SIZE: 705 POINTS
TCL: Setting parameter alchLambda2 to 0.7499999999999998
Info: NONBONDED TABLE R-SQUARED SPACING: 0.0625
Info: NONBONDED TABLE SIZE: 705 POINTS
TCL: Running for 1500000 steps
ETITLE: TS BOND ANGLE DIHED IMPRP ELECT VDW BOUNDARY MISC KINETIC TOTAL TEMP POTENTIAL TOTALAVG TEMPAVG PRESSURE GPRESSURE VOLUME PRESSAVG GPRESSAVG
ENERGY: 0 1.6694 6.8183 2.3376 0.0000 -10642.2154 1317.2996 0.0000 0.0000 1761.9757 -7552.1148 298.3400 -9314.0905 -7552.1148 298.3400 -1199.4398 -1134.9678 30991.0390 -1199.4398 -1134.9678
ENERGY: 300000 4.5501 7.7094 3.2288 0.0000 -10625.3920 1269.6375 0.0000 0.0000 1803.1170 -7537.1493 305.3061 -9340.2663 -7558.6904 298.5771 -1656.1370 -1623.3007 30990.9034 -899.9612 -857.5214
ENERGY: 600000 0.9789 9.0227 3.1746 0.0000 -10828.7971 1465.4144 0.0000 0.0000 1771.2219 -7578.9847 299.9056 -9350.2066 -7555.5268 299.0324 -142.6245 -72.5049 30759.4704 -408.7609 -362.6553
ENERGY: 900000 3.2445 3.5760 1.7852 0.0000 -10642.6015 1328.6228 0.0000 0.0000 1744.9504 -7560.4226 295.4573 -9305.3730 -7544.9035 298.8591 -1180.9391 -1100.3047 30945.7362 -375.2339 -320.6699
ENERGY: 1200000 0.3736 8.8776 2.8182 0.0000 -10809.2663 1493.5204 0.0000 0.0000 1838.8676 -7464.8088 311.3595 -9303.6764 -7538.4233 299.7295 434.9927 551.3343 30449.4596 -310.3781 -248.4854
ENERGY: 1500000 3.3767 3.7484 2.1829 0.0000 -10958.8623 1525.6513 0.0000 0.0000 1767.1046 -7656.7985 299.2084 -9423.9030 -7550.2195 299.4638 290.9425 384.3252 30130.8696 -195.2609 -132.3625
TCL: Running FEP window   6: Lambda1 0.7499999999999998 Lambda2 0.6999999999999997 [dLambda -0.050000000000000044]
TCL: Setting parameter firsttimestep to 0
TCL: Setting parameter alchLambda to 0.7499999999999998
Info: NONBONDED TABLE R-SQUARED SPACING: 0.0625
Info: NONBONDED TABLE SIZE: 705 POINTS
TCL: Setting parameter alchLambda2 to 0.6999999999999997
Info: NONBONDED TABLE R-SQUARED SPACING: 0.0625
Info: NONBONDED TABLE SIZE: 705 POINTS
TCL: Running for 1500000 steps
ETITLE: TS BOND ANGLE DIHED IMPRP ELECT VDW BOUNDARY MISC KINETIC TOTAL TEMP POTENTIAL TOTALAVG TEMPAVG PRESSURE GPRESSURE VOLUME PRESSAVG GPRESSAVG
ENERGY: 0 3.3767 3.7484 2.1829 0.0000 -10958.4380 1525.1018 0.0000 0.0000 1766.1872 -7657.8410 299.0531 -9424.0282 -7657.8410 299.0531 282.4528 362.8381 30130.8696 282.4528 362.8381
ENERGY: 300000 1.7942 3.5269 2.0593 0.0000 -10654.2269 1414.2560 0.0000 0.0000 1790.6559 -7441.9347 303.1962 -9232.5906 -7552.8254 300.7917 -166.3095 -65.0192 30858.9265 107.3892 180.9120
ENERGY: 600000 0.6645 4.3015 2.5735 0.0000 -10833.4453 1494.0911 0.0000 0.0000 1794.4436 -7537.3711 303.8375 -9331.8148 -7544.8777 301.2833 615.8343 655.8357 30016.7405 118.1009 188.2471
ENERGY: 900000 1.5795 5.9288 1.9013 0.0000 -10822.8980 1436.9758 0.0000 0.0000 1744.6003 -7631.9124 295.3980 -9376.5127 -7544.3153 300.9059 -63.3532 7.4280 29935.4642 5.1036 70.0193
ENERGY: 1200000 1.2354 3.3280 2.8073 0.0000 -10718.5051 1325.4290 0.0000 0.0000 1771.7532 -7613.9522 299.9955 -9385.7054 -7552.2188 300.7360 -1279.3898 -1188.8786 30691.1782 -114.7031 -50.4900
ENERGY: 1500000 1.4710 3.4577 2.2493 0.0000 -10747.2054 1430.9855 0.0000 0.0000 1758.0105 -7551.0313 297.6686 -9309.0419 -7551.3783 300.4498 -9.4903 -3.1014 30512.7078 4.9862 62.7947
TCL: Running FEP window   7: Lambda1 0.6999999999999997 Lambda2 0.6499999999999997 [dLambda -0.050000000000000044]
TCL: Setting parameter firsttimestep to 0
TCL: Setting parameter alchLambda to 0.6999999999999997
Info: NONBONDED TABLE R-SQUARED SPACING: 0.0625
Info: NONBONDED TABLE SIZE: 705 POINTS
TCL: Setting parameter alchLambda2 to 0.6499999999999997
Info: NONBONDED TABLE R-SQUARED SPACING: 0.0625
Info: NONBONDED TABLE SIZE: 705 POINTS
TCL: Running for 1500000 steps
ETITLE: TS BOND ANGLE DIHED IMPRP ELECT VDW BOUNDARY MISC KINETIC TOTAL TEMP POTENTIAL TOTALAVG TEMPAVG PRESSURE GPRESSURE VOLUME PRESSAVG GPRESSAVG
ENERGY: 0 1.4710 3.4577 2.2493 0.0000 -10746.6726 1431.2614 0.0000 0.0000 1757.1377 -7551.0954 297.5208 -9308.2331 -7551.0954 297.5208 -93.1047 -9.6525 30512.7078 -93.1047 -9.6525
ENERGY: 300000 1.3053 5.0999 2.7030 0.0000 -10665.0355 1397.9353 0.0000 0.0000 1775.0858 -7482.9062 300.5598 -9257.9920 -7553.0134 296.2941 -340.6175 -288.0924 31000.2606 -336.7302 -287.2743
ENERGY: 600000 0.9410 5.1533 3.2498 0.0000 -10733.8262 1401.7204 0.0000 0.0000 1808.5259 -7514.2359 306.2219 -9322.7618 -7544.4881 298.3909 -104.1007 -58.9261 30272.5014 -269.0602 -215.2783
ENERGY: 900000 3.0705 4.1990 2.3294 0.0000 -10879.4028 1507.0631 0.0000 0.0000 1763.7346 -7599.0061 298.6378 -9362.7407 -7551.2694 297.9441 482.5089 535.4074 30330.5401 -159.3247 -105.8783
ENERGY: 1200000 1.6543 6.2248 2.0595 0.0000 -10889.4166 1530.1659 0.0000 0.0000 1742.2465 -7607.0657 294.9994 -9349.3122 -7556.4057 297.2677 645.0706 625.1532 30186.8902 -146.5581 -91.4709
ENERGY: 1500000 1.1821 4.4991 2.2584 0.0000 -10829.2720 1509.0108 0.0000 0.0000 1787.5434 -7524.7782 302.6692 -9312.3216 -7551.4008 298.5612 588.8593 704.9768 30327.1368 -47.3369 19.5573
TCL: Running FEP window   8: Lambda1 0.6499999999999997 Lambda2 0.5999999999999996 [dLambda -0.050000000000000044]
TCL: Setting parameter firsttimestep to 0
TCL: Setting parameter alchLambda to 0.6499999999999997
Info: NONBONDED TABLE R-SQUARED SPACING: 0.0625
Info: NONBONDED TABLE SIZE: 705 POINTS
TCL: Setting parameter alchLambda2 to 0.5999999999999996
Info: NONBONDED TABLE R-SQUARED SPACING: 0.0625
Info: NONBONDED TABLE SIZE: 705 POINTS
TCL: Running for 1500000 steps
ETITLE: TS BOND ANGLE DIHED IMPRP ELECT VDW BOUNDARY MISC KINETIC TOTAL TEMP POTENTIAL TOTALAVG TEMPAVG PRESSURE GPRESSURE VOLUME PRESSAVG GPRESSAVG
ENERGY: 0 1.1821 4.4992 2.2584 0.0000 -10828.1722 1508.9709 0.0000 0.0000 1786.6753 -7524.5865 302.5222 -9311.2617 -7524.5865 302.5222 603.6536 700.0891 30327.1368 603.6536 700.0891
ENERGY: 300000 0.7372 5.8348 2.3500 0.0000 -10678.8885 1403.1157 0.0000 0.0000 1741.4843 -7525.3665 294.8704 -9266.8509 -7523.4706 299.8516 -254.8492 -200.4788 30762.4628 251.3342 309.8131
ENERGY: 600000 1.1494 6.4125 1.3291 0.0000 -10841.0475 1525.8849 0.0000 0.0000 1707.7850 -7598.4867 289.1644 -9306.2717 -7538.8100 300.0089 704.3751 737.5169 30332.8364 347.3496 413.1028
ENERGY: 900000 1.9971 8.1637 4.2502 0.0000 -10994.0192 1612.2258 0.0000 0.0000 1775.7153 -7591.6671 300.6664 -9367.3823 -7546.4463 299.7010 1181.4361 1274.9177 30337.6700 357.3304 423.2251
ENERGY: 1200000 4.7282 4.4527 2.0639 0.0000 -10728.5822 1403.2404 0.0000 0.0000 1770.7414 -7543.3556 299.8242 -9314.0969 -7550.8846 299.7206 -563.8293 -488.5707 30505.8577 94.4187 164.1886
ENERGY: 1500000 0.3038 5.1160 2.2319 0.0000 -10922.9968 1502.4926 0.0000 0.0000 1792.2383 -7620.6142 303.4641 -9412.8524 -7557.5461 299.9272 313.0249 369.8442 30280.4874 54.9137 126.3720
TCL: Running FEP window   9: Lambda1 0.5999999999999996 Lambda2 0.5499999999999996 [dLambda -0.050000000000000044]
TCL: Setting parameter firsttimestep to 0
TCL: Setting parameter alchLambda to 0.5999999999999996
Info: NONBONDED TABLE R-SQUARED SPACING: 0.0625
Info: NONBONDED TABLE SIZE: 705 POINTS
TCL: Setting parameter alchLambda2 to 0.5499999999999996
Info: NONBONDED TABLE R-SQUARED SPACING: 0.0625
Info: NONBONDED TABLE SIZE: 705 POINTS
TCL: Running for 1500000 steps
ETITLE: TS BOND ANGLE DIHED IMPRP ELECT VDW BOUNDARY MISC KINETIC TOTAL TEMP POTENTIAL TOTALAVG TEMPAVG PRESSURE GPRESSURE VOLUME PRESSAVG GPRESSAVG
ENERGY: 0 0.3038 5.1160 2.2319 0.0000 -10922.6801 1502.5857 0.0000 0.0000 1791.3418 -7621.1009 303.3123 -9412.4427 -7621.1009 303.3123 282.6867 363.9801 30280.4874 282.6867 363.9801
ENERGY: 300000 0.8026 7.3375 4.6929 0.0000 -10913.7196 1555.0586 0.0000 0.0000 1797.7532 -7548.0749 304.3979 -9345.8281 -7623.2198 296.9669 571.5337 682.3629 30693.6144 88.9001 165.9845
ENERGY: 600000 0.9208 5.1379 0.9659 0.0000 -10945.1411 1549.6193 0.0000 0.0000 1785.1952 -7603.3019 302.2716 -9388.4971 -7591.1527 298.5143 632.1952 703.5625 30643.9354 177.3390 229.5659
ENERGY: 900000 1.2090 8.9124 3.7869 0.0000 -10737.8975 1443.7914 0.0000 0.0000 1805.6457 -7474.5521 305.7343 -9280.1978 -7563.9872 301.1265 -30.2942 16.0440 30771.6768 98.6339 144.3359
ENERGY: 1200000 1.2476 7.9530 2.5774 0.0000 -10677.2882 1348.2335 0.0000 0.0000 1728.7301 -7588.5466 292.7108 -9317.2767 -7560.3460 300.3744 -1069.3144 -1046.5834 30957.7910 155.7961 198.4363
ENERGY: 1500000 0.9034 4.1763 2.8148 0.0000 -10866.3670 1486.6590 0.0000 0.0000 1796.4990 -7575.3145 304.1855 -9371.8136 -7552.3803 300.4736 202.0196 273.2797 30217.0431 132.2631 176.8166
TCL: Running FEP window  10: Lambda1 0.5499999999999996 Lambda2 0.4999999999999996 [dLambda -0.04999999999999999]
TCL: Setting parameter firsttimestep to 0
TCL: Setting parameter alchLambda to 0.5499999999999996
Info: NONBONDED TABLE R-SQUARED SPACING: 0.0625
Info: NONBONDED TABLE SIZE: 705 POINTS
TCL: Setting parameter alchLambda2 to 0.4999999999999996
Info: NONBONDED TABLE R-SQUARED SPACING: 0.0625
Info: NONBONDED TABLE SIZE: 705 POINTS
TCL: Running for 1500000 steps
ETITLE: TS BOND ANGLE DIHED IMPRP ELECT VDW BOUNDARY MISC KINETIC TOTAL TEMP POTENTIAL TOTALAVG TEMPAVG PRESSURE GPRESSURE VOLUME PRESSAVG GPRESSAVG
ENERGY: 0 0.9034 4.1763 2.8148 0.0000 -10864.8841 1485.7996 0.0000 0.0000 1795.6243 -7575.5657 304.0374 -9371.1900 -7575.5657 304.0374 166.2723 262.4003 30217.0431 166.2723 262.4003
ENERGY: 300000 0.8270 4.6730 2.8398 0.0000 -10823.2965 1533.0427 0.0000 0.0000 1745.2363 -7536.6777 295.5057 -9281.9140 -7543.9616 302.8461 768.3213 806.8886 30545.0708 54.1961 108.8701
ENERGY: 600000 0.5009 3.3011 1.6144 0.0000 -10834.2143 1461.6233 0.0000 0.0000 1805.8882 -7561.2864 305.7753 -9367.1747 -7546.2429 302.9762 -169.9122 -85.0210 30625.6681 209.1000 271.9694
ENERGY: 900000 0.6863 3.1837 1.1357 0.0000 -10614.1774 1366.3008 0.0000 0.0000 1755.3978 -7487.4732 297.2262 -9242.8710 -7532.3385 302.3038 -696.1196 -664.9987 31105.6000 13.7648 61.9605
ENERGY: 1200000 1.0912 5.9784 1.3018 0.0000 -10862.4632 1476.4281 0.0000 0.0000 1767.2284 -7610.4353 299.2294 -9377.6638 -7539.2418 301.2143 129.4510 132.8567 30401.5207 -76.6969 -28.7641
ENERGY: 1500000 1.4463 6.3733 2.5387 0.0000 -10723.1061 1390.3465 0.0000 0.0000 1764.6125 -7557.7890 298.7865 -9322.4014 -7530.7872 301.9778 -452.6472 -414.3886 30449.6731 -111.2218 -60.3979
TCL: Running FEP window  11: Lambda1 0.4999999999999996 Lambda2 0.4499999999999996 [dLambda -0.04999999999999999]
TCL: Setting parameter firsttimestep to 0
TCL: Setting parameter alchLambda to 0.4999999999999996
Info: NONBONDED TABLE R-SQUARED SPACING: 0.0625
Info: NONBONDED TABLE SIZE: 705 POINTS
TCL: Setting parameter alchLambda2 to 0.4499999999999996
Info: NONBONDED TABLE R-SQUARED SPACING: 0.0625
Info: NONBONDED TABLE SIZE: 705 POINTS
TCL: Running for 1500000 steps
ETITLE: TS BOND ANGLE DIHED IMPRP ELECT VDW BOUNDARY MISC KINETIC TOTAL TEMP POTENTIAL TOTALAVG TEMPAVG PRESSURE GPRESSURE VOLUME PRESSAVG GPRESSAVG
ENERGY: 0 1.4463 6.3733 2.5387 0.0000 -10721.5694 1389.5531 0.0000 0.0000 1763.7159 -7557.9422 298.6347 -9321.6581 -7557.9422 298.6347 -498.9291 -422.1523 30449.6731 -498.9291 -422.1523
ENERGY: 300000 1.2854 3.8402 2.3576 0.0000 -10923.7892 1536.6686 0.0000 0.0000 1748.1051 -7631.5323 295.9914 -9379.6375 -7581.0830 296.8510 507.1986 553.0248 30343.4365 16.1171 86.2310
ENERGY: 600000 1.9262 6.9022 3.2838 0.0000 -10680.0185 1416.4242 0.0000 0.0000 1786.2665 -7465.2155 302.4530 -9251.4820 -7553.1288 297.6041 -4.8444 5.0900 30483.2844 61.7036 121.3501
ENERGY: 900000 1.7138 6.7194 1.7928 0.0000 -10812.1272 1510.2337 0.0000 0.0000 1746.4252 -7545.2423 295.7070 -9291.6675 -7554.5927 296.9690 448.8528 526.2598 30654.3488 230.2190 295.4411
ENERGY: 1200000 0.6595 4.0047 3.2915 0.0000 -10796.1319 1480.5698 0.0000 0.0000 1785.8364 -7521.7700 302.3801 -9307.6064 -7549.5133 297.5854 50.8203 167.8335 30903.0041 189.5712 256.4943
ENERGY: 1500000 0.3774 5.2326 1.6683 0.0000 -10866.2258 1489.8113 0.0000 0.0000 1739.2728 -7629.8634 294.4959 -9369.1361 -7562.6039 297.0438 177.1656 178.6489 30512.2339 156.2217 221.3676
TCL: Running FEP window  12: Lambda1 0.4499999999999996 Lambda2 0.39999999999999963 [dLambda -0.04999999999999999]
TCL: Setting parameter firsttimestep to 0
TCL: Setting parameter alchLambda to 0.4499999999999996
Info: NONBONDED TABLE R-SQUARED SPACING: 0.0625
Info: NONBONDED TABLE SIZE: 705 POINTS
TCL: Setting parameter alchLambda2 to 0.39999999999999963
Info: NONBONDED TABLE R-SQUARED SPACING: 0.0625
Info: NONBONDED TABLE SIZE: 705 POINTS
TCL: Running for 1500000 steps
ETITLE: TS BOND ANGLE DIHED IMPRP ELECT VDW BOUNDARY MISC KINETIC TOTAL TEMP POTENTIAL TOTALAVG TEMPAVG PRESSURE GPRESSURE VOLUME PRESSAVG GPRESSAVG
ENERGY: 0 0.3774 5.2326 1.6683 0.0000 -10866.2251 1489.7650 0.0000 0.0000 1738.3738 -7630.8080 294.3437 -9369.1818 -7630.8080 294.3437 106.8907 172.4229 30512.2339 106.8907 172.4229
ENERGY: 300000 1.2446 5.7690 2.2076 0.0000 -10686.3607 1377.1660 0.0000 0.0000 1759.8986 -7540.0748 297.9883 -9299.9734 -7549.9197 297.6371 -590.3336 -566.9079 30802.8814 -127.8599 -64.1114
ENERGY: 600000 2.2289 4.9961 1.7617 0.0000 -10895.2053 1484.2798 0.0000 0.0000 1779.6415 -7622.2972 301.3312 -9401.9387 -7581.6530 297.3708 -108.9169 -33.9128 30760.1839 -212.3671 -140.6917
ENERGY: 900000 4.8478 9.2033 1.8107 0.0000 -10688.9491 1413.6740 0.0000 0.0000 1766.4986 -7492.9146 299.1058 -9259.4132 -7565.0469 296.8876 -342.7109 -267.5890 30882.7202 -244.2014 -183.3852
ENERGY: 1200000 2.3259 7.0442 3.8287 0.0000 -10762.1102 1449.9112 0.0000 0.0000 1754.3014 -7544.6988 297.0406 -9299.0002 -7556.7170 297.8162 299.9638 342.9503 29949.9613 -185.8570 -125.8437
ENERGY: 1500000 1.3093 9.1838 1.1571 0.0000 -10826.7627 1393.3045 0.0000 0.0000 1775.6955 -7646.1125 300.6631 -9421.8081 -7559.7074 298.7243 -754.6434 -652.8970 30546.0176 -210.4413 -142.7453
TCL: Running FEP window  13: Lambda1 0.39999999999999963 Lambda2 0.34999999999999964 [dLambda -0.04999999999999999]
TCL: Setting parameter firsttimestep to 0
TCL: Setting parameter alchLambda to 0.39999999999999963
Info: NONBONDED TABLE R-SQUARED SPACING: 0.0625
Info: NONBONDED TABLE SIZE: 705 POINTS
TCL: Setting parameter alchLambda2 to 0.34999999999999964
Info: NONBONDED TABLE R-SQUARED SPACING: 0.0625
Info: NONBONDED TABLE SIZE: 705 POINTS
TCL: Running for 1500000 steps
ETITLE: TS BOND ANGLE DIHED IMPRP ELECT VDW BOUNDARY MISC KINETIC TOTAL TEMP POTENTIAL TOTALAVG TEMPAVG PRESSURE GPRESSURE VOLUME PRESSAVG GPRESSAVG
ENERGY: 0 1.3093 9.1838 1.1571 0.0000 -10826.7631 1393.5135 0.0000 0.0000 1774.8261 -7646.7732 300.5159 -9421.5994 -7646.7732 300.5159 -729.8571 -656.4746 30546.0176 -729.8571 -656.4746
ENERGY: 300000 0.6217 4.9456 2.5775 0.0000 -10758.0431 1472.9131 0.0000 0.0000 1737.6043 -7539.3810 294.2134 -9276.9853 -7562.1065 300.3891 553.4949 596.0468 29975.5470 -65.0478 -20.1683
ENERGY: 600000 1.3067 10.3066 2.6725 0.0000 -10743.8391 1449.3772 0.0000 0.0000 1822.0865 -7458.0896 308.5180 -9280.1761 -7555.3701 301.3370 212.4633 244.8029 30645.7588 -3.1923 53.3740
ENERGY: 900000 0.5857 3.7783 3.3439 0.0000 -10909.1987 1516.0264 0.0000 0.0000 1754.6197 -7630.8448 297.0945 -9385.4645 -7559.7155 300.8806 346.8668 313.8481 30471.9098 90.6335 142.7428
ENERGY: 1200000 4.0245 3.3150 1.9202 0.0000 -10724.8222 1413.8330 0.0000 0.0000 1779.2126 -7522.5169 301.2586 -9301.7295 -7559.5490 299.9933 -478.8746 -363.3794 30485.3635 -42.3761 18.6530
ENERGY: 1500000 1.6122 5.4183 4.0878 0.0000 -10772.7626 1424.2217 0.0000 0.0000 1730.8247 -7606.5979 293.0655 -9337.4227 -7563.5238 299.8646 -416.3453 -436.7077 30576.9580 -59.2988 -0.4134
TCL: Running FEP window  14: Lambda1 0.34999999999999964 Lambda2 0.29999999999999966 [dLambda -0.04999999999999999]
TCL: Setting parameter firsttimestep to 0
TCL: Setting parameter alchLambda to 0.34999999999999964
Info: NONBONDED TABLE R-SQUARED SPACING: 0.0625
Info: NONBONDED TABLE SIZE: 705 POINTS
TCL: Setting parameter alchLambda2 to 0.29999999999999966
Info: NONBONDED TABLE R-SQUARED SPACING: 0.0625
Info: NONBONDED TABLE SIZE: 705 POINTS
TCL: Running for 1500000 steps
ETITLE: TS BOND ANGLE DIHED IMPRP ELECT VDW BOUNDARY MISC KINETIC TOTAL TEMP POTENTIAL TOTALAVG TEMPAVG PRESSURE GPRESSURE VOLUME PRESSAVG GPRESSAVG
ENERGY: 0 1.6122 5.4183 4.0878 0.0000 -10772.7633 1423.5281 0.0000 0.0000 1729.9642 -7608.1527 292.9198 -9338.1169 -7608.1527 292.9198 -519.7706 -445.2428 30576.9580 -519.7706 -445.2428
ENERGY: 300000 1.5838 5.8282 3.7712 0.0000 -10881.3078 1477.8319 0.0000 0.0000 1746.6377 -7645.6550 295.7430 -9392.2927 -7580.6696 298.3503 -220.9132 -180.7713 30793.7304 -22.0665 33.0881
ENERGY: 600000 0.5604 4.8100 1.0415 0.0000 -10732.9009 1409.9804 0.0000 0.0000 1796.4972 -7520.0114 304.1852 -9316.5087 -7570.4430 298.4852 -405.3770 -291.4608 30433.4514 -182.1377 -114.7634
ENERGY: 900000 0.4858 5.4617 1.9452 0.0000 -10836.7142 1521.6081 0.0000 0.0000 1751.4575 -7555.7559 296.5591 -9307.2134 -7558.0328 297.7576 660.2253 645.4475 30303.5286 -42.2369 18.1893
ENERGY: 1200000 1.8765 7.8749 2.8236 0.0000 -10697.2589 1407.4916 0.0000 0.0000 1774.3498 -7502.8426 300.4352 -9277.1924 -7552.5581 298.3106 -387.6985 -350.4598 30656.2680 17.4173 74.2391
ENERGY: 1500000 1.7540 9.9252 4.7777 0.0000 -10788.1208 1467.5937 0.0000 0.0000 1808.3856 -7495.6845 306.1982 -9304.0701 -7545.3234 299.1359 467.8541 474.1425 30284.4967 31.5135 84.7679
TCL: Running FEP window  15: Lambda1 0.29999999999999966 Lambda2 0.24999999999999967 [dLambda -0.04999999999999999]
TCL: Setting parameter firsttimestep to 0
TCL: Setting parameter alchLambda to 0.29999999999999966
Info: NONBONDED TABLE R-SQUARED SPACING: 0.0625
Info: NONBONDED TABLE SIZE: 705 POINTS
TCL: Setting parameter alchLambda2 to 0.24999999999999967
Info: NONBONDED TABLE R-SQUARED SPACING: 0.0625
Info: NONBONDED TABLE SIZE: 705 POINTS
TCL: Running for 1500000 steps
ETITLE: TS BOND ANGLE DIHED IMPRP ELECT VDW BOUNDARY MISC KINETIC TOTAL TEMP POTENTIAL TOTALAVG TEMPAVG PRESSURE GPRESSURE VOLUME PRESSAVG GPRESSAVG
ENERGY: 0 1.7540 9.9252 4.7777 0.0000 -10788.1195 1467.4293 0.0000 0.0000 1807.4755 -7496.7578 306.0441 -9304.2333 -7496.7578 306.0441 380.4945 468.6117 30284.4967 380.4945 468.6117
ENERGY: 300000 0.7760 3.8886 1.4537 0.0000 -10760.6875 1447.3528 0.0000 0.0000 1755.3615 -7551.8549 297.2201 -9307.2165 -7517.6848 303.6493 -116.5149 -97.8943 30716.5857 -40.9318 4.8811
ENERGY: 600000 1.2219 5.1015 2.8946 0.0000 -10690.9377 1357.1553 0.0000 0.0000 1779.8264 -7544.7380 301.3625 -9324.5644 -7513.8224 302.0553 -517.8221 -504.2580 30315.5678 -52.0191 -15.3156
ENERGY: 900000 3.2531 4.5391 3.2102 0.0000 -10656.9132 1390.4666 0.0000 0.0000 1709.2051 -7546.2390 289.4048 -9255.4442 -7522.4700 299.3400 -624.2411 -601.7410 30838.5028 -215.6921 -178.4324
ENERGY: 1200000 1.1001 5.5354 2.1149 0.0000 -10702.4788 1375.9674 0.0000 0.0000 1748.0126 -7569.7484 295.9758 -9317.7610 -7535.9666 299.0835 -545.6297 -424.6291 30242.8415 -279.6603 -234.3816
ENERGY: 1500000 3.0200 6.2587 2.4923 0.0000 -10734.5616 1331.3732 0.0000 0.0000 1750.2619 -7641.1556 296.3566 -9391.4175 -7547.6985 298.6522 -1134.5913 -1054.9596 30242.8863 -368.9502 -315.2384
TCL: Running FEP window  16: Lambda1 0.24999999999999967 Lambda2 0.19999999999999968 [dLambda -0.04999999999999999]
TCL: Setting parameter firsttimestep to 0
TCL: Setting parameter alchLambda to 0.24999999999999967
Info: NONBONDED TABLE R-SQUARED SPACING: 0.0625
Info: NONBONDED TABLE SIZE: 705 POINTS
TCL: Setting parameter alchLambda2 to 0.19999999999999968
Info: NONBONDED TABLE R-SQUARED SPACING: 0.0625
Info: NONBONDED TABLE SIZE: 705 POINTS
TCL: Running for 1500000 steps
ETITLE: TS BOND ANGLE DIHED IMPRP ELECT VDW BOUNDARY MISC KINETIC TOTAL TEMP POTENTIAL TOTALAVG TEMPAVG PRESSURE GPRESSURE VOLUME PRESSAVG GPRESSAVG
ENERGY: 0 3.0200 6.2587 2.4923 0.0000 -10734.5615 1331.2080 0.0000 0.0000 1749.3938 -7642.1888 296.2096 -9391.5826 -7642.1888 296.2096 -1144.3686 -1061.5390 30242.8863 -1144.3686 -1061.5390
ENERGY: 300000 0.1912 8.2944 2.1846 0.0000 -10824.8727 1486.9404 0.0000 0.0000 1792.8253 -7534.4367 303.5635 -9327.2620 -7542.4259 302.6484 326.9396 415.0207 30257.5743 52.2593 134.9654
ENERGY: 600000 2.6385 5.6842 3.9851 0.0000 -10717.7776 1430.1687 0.0000 0.0000 1730.4179 -7544.8832 292.9966 -9275.3011 -7534.6326 301.8304 -109.3795 -4.3008 30576.4283 -36.2616 45.0947
ENERGY: 900000 0.9018 5.0484 2.0213 0.0000 -10843.5349 1512.5201 0.0000 0.0000 1728.6389 -7594.4044 292.6954 -9323.0433 -7556.6836 300.1707 330.0809 388.3823 30302.9872 71.0476 146.6750
ENERGY: 1200000 1.3588 7.2698 2.2618 0.0000 -10770.8139 1403.9213 0.0000 0.0000 1740.4283 -7615.5738 294.6916 -9356.0021 -7562.0540 298.9063 -241.1668 -171.9353 30091.4866 -30.9387 44.1650
ENERGY: 1500000 1.5570 6.8937 3.4954 0.0000 -10682.7871 1389.4181 0.0000 0.0000 1781.6187 -7499.8042 301.6660 -9281.4229 -7547.7218 299.4033 -595.3465 -571.7822 31022.7623 -76.9375 -11.0747
TCL: Running FEP window  17: Lambda1 0.19999999999999968 Lambda2 0.1499999999999997 [dLambda -0.04999999999999999]
TCL: Setting parameter firsttimestep to 0
TCL: Setting parameter alchLambda to 0.19999999999999968
Info: NONBONDED TABLE R-SQUARED SPACING: 0.0625
Info: NONBONDED TABLE SIZE: 705 POINTS
TCL: Setting parameter alchLambda2 to 0.1499999999999997
Info: NONBONDED TABLE R-SQUARED SPACING: 0.0625
Info: NONBONDED TABLE SIZE: 705 POINTS
TCL: Running for 1500000 steps
ETITLE: TS BOND ANGLE DIHED IMPRP ELECT VDW BOUNDARY MISC KINETIC TOTAL TEMP POTENTIAL TOTALAVG TEMPAVG PRESSURE GPRESSURE VOLUME PRESSAVG GPRESSAVG
ENERGY: 0 1.5570 6.8937 3.4954 0.0000 -10682.7861 1389.7719 0.0000 0.0000 1780.7412 -7500.3268 301.5174 -9281.0681 -7500.3268 301.5174 -657.6987 -572.9323 31022.7623 -657.6987 -572.9323
ENERGY: 300000 1.4286 5.2253 1.9160 0.0000 -10593.8383 1303.6824 0.0000 0.0000 1789.9639 -7491.6221 303.0790 -9281.5860 -7499.3209 302.1580 -1360.1347 -1264.8479 31011.5337 -553.1219 -485.7771
ENERGY: 600000 2.5539 5.8173 2.4472 0.0000 -10709.4227 1469.2885 0.0000 0.0000 1782.0883 -7447.2275 301.7455 -9229.3158 -7511.8722 301.6190 69.7102 142.6179 30971.0054 -246.7891 -205.9859
ENERGY: 900000 2.3779 4.2592 2.2780 0.0000 -10713.7107 1446.8680 0.0000 0.0000 1809.3618 -7448.5658 306.3635 -9257.9276 -7509.9771 301.8688 17.0247 92.6640 30895.9706 -131.4180 -74.7997
ENERGY: 1200000 1.2010 3.7928 3.1249 0.0000 -10588.0729 1350.0802 0.0000 0.0000 1731.5166 -7498.3573 293.1826 -9229.8740 -7505.3271 300.7754 -617.0077 -610.3388 30734.8551 -176.4981 -122.1371
ENERGY: 1500000 2.5179 6.8656 2.1193 0.0000 -10712.3997 1431.2161 0.0000 0.0000 1753.4417 -7516.2391 296.8950 -9269.6808 -7511.5882 300.6838 -273.4670 -182.7670 30919.0498 -117.1559 -58.8394
TCL: Running FEP window  18: Lambda1 0.1499999999999997 Lambda2 0.09999999999999969 [dLambda -0.05 ]
TCL: Setting parameter firsttimestep to 0
TCL: Setting parameter alchLambda to 0.1499999999999997
Info: NONBONDED TABLE R-SQUARED SPACING: 0.0625
Info: NONBONDED TABLE SIZE: 705 POINTS
TCL: Setting parameter alchLambda2 to 0.09999999999999969
Info: NONBONDED TABLE R-SQUARED SPACING: 0.0625
Info: NONBONDED TABLE SIZE: 705 POINTS
TCL: Running for 1500000 steps
ETITLE: TS BOND ANGLE DIHED IMPRP ELECT VDW BOUNDARY MISC KINETIC TOTAL TEMP POTENTIAL TOTALAVG TEMPAVG PRESSURE GPRESSURE VOLUME PRESSAVG GPRESSAVG
ENERGY: 0 2.5179 6.8656 2.1193 0.0000 -10712.3989 1431.0033 0.0000 0.0000 1752.5543 -7517.3384 296.7448 -9269.8928 -7517.3384 296.7448 -270.4652 -186.2449 30919.0498 -270.4652 -186.2449
ENERGY: 300000 4.5187 3.7235 1.7709 0.0000 -10865.9313 1511.3995 0.0000 0.0000 1713.1313 -7631.3872 290.0696 -9344.5186 -7524.7314 300.7331 364.7521 404.4150 30302.5721 -121.9557 -64.6729
ENERGY: 600000 2.9732 3.9588 1.9170 0.0000 -10908.5477 1553.7545 0.0000 0.0000 1761.9944 -7583.9499 298.3432 -9345.9443 -7556.1641 300.7336 829.2726 914.9614 30024.8787 81.9787 145.3134
ENERGY: 900000 1.7351 5.3983 1.0316 0.0000 -10728.0046 1415.2634 0.0000 0.0000 1808.4307 -7496.1456 306.2058 -9304.5763 -7535.3836 302.7061 -334.8228 -330.3573 30747.4517 85.8728 139.2570
ENERGY: 1200000 1.3213 9.7066 2.6810 0.0000 -10709.6946 1410.1220 0.0000 0.0000 1754.5311 -7531.3327 297.0795 -9285.8638 -7530.9582 301.9155 -364.9206 -284.5395 30578.8409 66.3133 117.9749
ENERGY: 1500000 4.2461 5.6329 2.0066 0.0000 -10629.6654 1367.5198 0.0000 0.0000 1770.6494 -7479.6107 299.8086 -9250.2601 -7526.6560 301.7546 -588.1316 -472.2503 30417.4889 32.9350 89.8523
TCL: Running FEP window  19: Lambda1 0.09999999999999969 Lambda2 0.049999999999999684 [dLambda -0.05 ]
TCL: Setting parameter firsttimestep to 0
TCL: Setting parameter alchLambda to 0.09999999999999969
Info: NONBONDED TABLE R-SQUARED SPACING: 0.0625
Info: NONBONDED TABLE SIZE: 705 POINTS
TCL: Setting parameter alchLambda2 to 0.049999999999999684
Info: NONBONDED TABLE R-SQUARED SPACING: 0.0625
Info: NONBONDED TABLE SIZE: 705 POINTS
TCL: Running for 1500000 steps
ETITLE: TS BOND ANGLE DIHED IMPRP ELECT VDW BOUNDARY MISC KINETIC TOTAL TEMP POTENTIAL TOTALAVG TEMPAVG PRESSURE GPRESSURE VOLUME PRESSAVG GPRESSAVG
ENERGY: 0 4.2461 5.6329 2.0066 0.0000 -10629.6664 1366.9210 0.0000 0.0000 1769.8118 -7481.0480 299.6668 -9250.8598 -7481.0480 299.6668 -579.6226 -474.5687 30417.4889 -579.6226 -474.5687
ENERGY: 300000 3.7079 7.3036 2.0203 0.0000 -10776.9641 1470.1047 0.0000 0.0000 1753.5650 -7540.2626 296.9159 -9293.8276 -7487.8571 302.1608 134.9051 181.1819 29989.0752 96.5855 171.5877
ENERGY: 600000 0.2982 4.0681 2.8462 0.0000 -10677.3694 1354.1369 0.0000 0.0000 1742.0870 -7573.9330 294.9724 -9316.0201 -7505.9796 300.4999 -712.9736 -598.2262 30499.0552 -212.1448 -133.4782
ENERGY: 900000 1.1355 5.1001 1.5361 0.0000 -10665.7380 1392.6895 0.0000 0.0000 1822.3784 -7442.8984 308.5675 -9265.2768 -7501.4967 302.3897 -371.3624 -290.9567 30637.3350 -172.8396 -106.2348
ENERGY: 1200000 2.0090 3.8283 2.0145 0.0000 -10778.5726 1438.1320 0.0000 0.0000 1773.8137 -7558.7751 300.3444 -9332.5888 -7504.4153 302.8321 -174.1926 -115.0085 30240.1215 -172.1466 -104.3917
ENERGY: 1500000 2.1200 3.5458 1.2788 0.0000 -10894.5010 1512.9237 0.0000 0.0000 1697.1143 -7677.5184 287.3576 -9374.6328 -7520.1058 301.7273 148.3592 281.4517 30485.9720 -137.1883 -72.1536
TCL: Running FEP window  20: Lambda1 0.049999999999999684 Lambda2 0.0    [dLambda -0.049999999999999684]
TCL: Setting parameter firsttimestep to 0
TCL: Setting parameter alchLambda to 0.049999999999999684
Info: NONBONDED TABLE R-SQUARED SPACING: 0.0625
Info: NONBONDED TABLE SIZE: 705 POINTS
TCL: Setting parameter alchLambda2 to 0.0
Info: NONBONDED TABLE R-SQUARED SPACING: 0.0625
Info: NONBONDED TABLE SIZE: 705 POINTS
TCL: Running for 1500000 steps
ETITLE: TS BOND ANGLE DIHED IMPRP ELECT VDW BOUNDARY MISC KINETIC TOTAL TEMP POTENTIAL TOTALAVG TEMPAVG PRESSURE GPRESSURE VOLUME PRESSAVG GPRESSAVG
ENERGY: 0 2.1200 3.5458 1.2788 0.0000 -10894.4993 1512.6734 0.0000 0.0000 1696.2292 -7678.6522 287.2077 -9374.8814 -7678.6522 287.2077 180.2173 276.6208 30485.9720 180.2173 276.6208
ENERGY: 300000 1.5854 5.6378 1.3387 0.0000 -10721.8666 1441.7087 0.0000 0.0000 1787.1294 -7484.4666 302.5991 -9271.5959 -7527.4065 299.5893 38.7681 166.5509 30161.0835 209.7172 293.1726
ENERGY: 600000 2.6781 7.6147 1.8763 0.0000 -10710.1072 1387.8113 0.0000 0.0000 1815.7948 -7494.3320 307.4527 -9310.1268 -7525.6724 302.1897 -726.7501 -620.7428 30819.1331 40.7155 123.2197
ENERGY: 900000 1.7634 7.4997 2.0076 0.0000 -10742.5380 1415.7993 0.0000 0.0000 1772.5888 -7542.8791 300.1370 -9315.4679 -7528.4859 302.4079 -206.8507 -136.8642 30476.5851 -17.3157 63.3976
ENERGY: 1200000 7.0222 4.2656 2.8636 0.0000 -10644.3938 1333.0945 0.0000 0.0000 1689.6914 -7607.4565 286.1007 -9297.1479 -7547.7931 300.3242 -954.4358 -881.5601 30588.0714 -113.9466 -40.8133
ENERGY: 1500000 1.2247 1.7382 1.3279 0.0000 -10864.7849 1569.1979 0.0000 0.0000 1767.9939 -7523.3024 299.3590 -9291.2962 -7536.5923 300.2806 1202.6754 1258.0729 30301.4787 -52.1223 23.1327
TCL: Exiting due to exit command.
