Info: SIMULATION PARAMETERS:
Info: TIMESTEP               2
Info: NUMBER OF STEPS        0
Info: STEPS PER CYCLE        10
Info: PERIODIC CELL BASIS 1  30.4082 0 0
Info: PERIODIC CELL BASIS 2  0 29.6144 0
Info: PERIODIC CELL BASIS 3  0 0 34.1169
Info: PERIODIC CELL CENTER   0 0 0
Info: WRAPPING WATERS AROUND PERIODIC BOUNDARIES ON OUTPUT.
Info: WRAPPING ALL CLUSTERS AROUND PERIODIC BOUNDARIES ON OUTPUT.
Info: FIRST LDB TIMESTEP     50
Info: LAST LDB TIMESTEP     -1
Info: HOM BACKGROUND SCALING 1
Info: PME BACKGROUND SCALING 1
Info: MIN ATOMS PER PATCH    40
Info: EMPTY PATCH LOAD       40 ATOMS
Info: VELOCITY FILE          mobley_2763835_equil.vel
Info: CENTER OF MASS MOVING INITIALLY? NO
Info: DIELECTRIC             1
Info: EXCLUDE                SCALED ONE-FOUR
Info: 1-4 ELECTROSTATICS SCALED BY 0.833333
Info: MODIFIED 1-4 VDW PARAMETERS WILL BE USED
Info: DCD FILENAME           mobley_2763835_prod.dcd
Info: DCD FREQUENCY          100000
Info: DCD FIRST STEP         100000
Info: DCD FILE WILL CONTAIN UNIT CELL DATA
Info: XST FILENAME           mobley_2763835_prod.xst
Info: XST FREQUENCY          100000
Info: NO VELOCITY DCD OUTPUT
Info: NO FORCE DCD OUTPUT
Info: OUTPUT FILENAME        mobley_2763835_prod
Info: BINARY OUTPUT FILES WILL BE USED
Info: RESTART FILENAME       mobley_2763835_prod.restart
Info: RESTART FREQUENCY      100000
Info: BINARY RESTART FILES WILL BE USED
Info: CUTOFF                 9
Info: PAIRLIST DISTANCE      11
Info: PAIRLIST SHRINK RATE   0.01
Info: PAIRLIST GROW RATE     0.01
Info: PAIRLIST TRIGGER       0.3
Info: PAIRLISTS PER CYCLE    2
Info: PAIRLISTS ENABLED
Info: MARGIN                 2
Info: HYDROGEN GROUP CUTOFF  2.5
Info: PATCH DIMENSION        15.5
Info: ENERGY OUTPUT STEPS    100000
Info: ENERGY EVALUATION STEPS    100000
Info: OUTPUT ENERGY PRECISION 4
Info: CROSSTERM ENERGY INCLUDED IN DIHEDRAL
Info: TIMING OUTPUT STEPS    1000000
Info: PRESSURE OUTPUT STEPS  100000
Info: ALCHEMICAL FEP ON
Info: FEP CURRENT LAMBDA VALUE     1
Info: FEP COMPARISON LAMBDA VALUE  0.95
Info: FEP INTRA-ALCHEMICAL NON-BONDED INTERACTIONS WILL BE RETAINED
Info: FEP INTRA-ALCHEMICAL BONDED INTERACTIONS WILL BE RETAINED
Info: FEP VDW SHIFTING COEFFICIENT 5
Info: FEP ELEC. ACTIVE FOR ANNIHILATED PARTICLES BETWEEN LAMBDA = 0 AND LAMBDA = 0.5
Info: FEP ELEC. ACTIVE FOR EXNIHILATED PARTICLES BETWEEN LAMBDA = 0.5 AND LAMBDA = 1
Info: FEP VDW ACTIVE FOR ANNIHILATED PARTICLES BETWEEN LAMBDA = 0 AND LAMBDA = 1
Info: FEP VDW ACTIVE FOR EXNIHILATED PARTICLES BETWEEN LAMBDA = 0 AND LAMBDA = 1
Info: FEP BOND ACTIVE FOR ANNIHILATED PARTICLES BETWEEN LAMBDA = 1 AND LAMBDA = 1
Info: FEP BOND ACTIVE FOR EXNIHILATED PARTICLES BETWEEN LAMBDA = 0 AND LAMBDA = 0
Info: LANGEVIN DYNAMICS ACTIVE
Info: LANGEVIN TEMPERATURE   300
Info: LANGEVIN USING BBK INTEGRATOR
Info: LANGEVIN DAMPING COEFFICIENT IS 1 INVERSE PS
Info: LANGEVIN DYNAMICS APPLIED TO HYDROGENS
Info: LANGEVIN PISTON PRESSURE CONTROL ACTIVE
Info:        TARGET PRESSURE IS 1.01325 BAR
Info:     OSCILLATION PERIOD IS 50 FS
Info:             DECAY TIME IS 25 FS
Info:     PISTON TEMPERATURE IS 300 K
Info:       PRESSURE CONTROL IS GROUP-BASED
Info:    INITIAL STRAIN RATE IS -0.000181727 -0.000181727 -0.000181727
Info:       CELL FLUCTUATION IS ISOTROPIC
Info: PARTICLE MESH EWALD (PME) ACTIVE
Info: PME TOLERANCE               1e-06
Info: PME EWALD COEFFICIENT       0.348832
Info: PME INTERPOLATION ORDER     4
Info: PME GRID DIMENSIONS         32 32 36
Info: PME MAXIMUM GRID SPACING    1
Info: PME CALCULATION WILL BE PERFORMED ON GPU
Info: FULL ELECTROSTATIC EVALUATION FREQUENCY      2
Info: USING VERLET I (r-RESPA) MTS SCHEME.
Info: C1 SPLITTING OF LONG RANGE ELECTROSTATICS
Info: PLACING ATOMS IN PATCHES BY HYDROGEN GROUPS
Info: RIGID BONDS TO HYDROGEN : ALL
Info:         ERROR TOLERANCE : 1e-08
Info:          MAX ITERATIONS : 100
Info: RIGID WATER USING SETTLE ALGORITHM
Info: RANDOM NUMBER SEED     1743858001
Info: USE HYDROGEN BONDS?    NO
Info: Using AMBER format force field!
Info: AMBER PARM FILE        mobley_2763835.prmtop
Info: COORDINATE PDB         mobley_2763835.pdb
Info: Exclusions will be read from PARM file!
Info: SCNB (VDW SCALING)     2
Info: USING ARITHMETIC MEAN TO COMBINE L-J SIGMA PARAMETERS
Info: BINARY COORDINATES     mobley_2763835_equil.coor
Info: SUMMARY OF PARAMETERS:
Info: 9 BONDS
Info: 10 ANGLES
Info:   10 HARMONIC
Info:   0 COSINE-BASED
Info: 7 DIHEDRAL
Info: 0 IMPROPER
Info: 0 CROSSTERM
Info: 0 VDW
Info: 36 VDW_PAIRS
Info: 0 NBTHOLE_PAIRS
Info: To read alchdata from file: mobley_2763835.pdb
Info: To read alchflag data from column: 5
Info: STRUCTURE SUMMARY:
Info: 2953 ATOMS
Info: 2953 BONDS
Info: 31 ANGLES
Info: 47 DIHEDRALS
Info: 0 IMPROPERS
Info: 0 CROSSTERMS
Info: 3019 EXCLUSIONS
Info: 2944 RIGID BONDS
Info: ALCH: 0 ATOMS TO DISAPPEAR IN FINAL STATE
Info: ALCH: 19 ATOMS TO APPEAR IN FINAL STATE
Info: 5915 DEGREES OF FREEDOM
Info: 987 HYDROGEN GROUPS
Info: 4 ATOMS IN LARGEST HYDROGEN GROUP
Info: 987 MIGRATION GROUPS
Info: 4 ATOMS IN LARGEST MIGRATION GROUP
Info: TOTAL MASS = 17741.8 amu
Info: TOTAL CHARGE = -0.000100017 e
Info: MASS DENSITY = 0.958945 g/cm^3
Info: ATOM DENSITY = 0.096117 atoms/A^3
Info: ADDED 0 IMPLICIT EXCLUSIONS
Info: NONBONDED TABLE R-SQUARED SPACING: 0.0625
Info: NONBONDED TABLE SIZE: 705 POINTS
Info: REMOVING COM VELOCITY 0.0224973 -0.224735 0.0501418
Info: Use 3D box decompostion in PME FFT.
Info: Updated CUDA force table with 4096 elements.
Info: Updated CUDA LJ table with 8 x 8 elements.
Info: Found 18 unique exclusion lists needing 48 bytes
TCL: Running for 1500000 steps
ETITLE: TS BOND ANGLE DIHED IMPRP ELECT VDW BOUNDARY MISC KINETIC TOTAL TEMP POTENTIAL TOTALAVG TEMPAVG PRESSURE GPRESSURE VOLUME PRESSAVG GPRESSAVG
ENERGY: 0 4.7196 5.6511 4.9407 0.0000 -10486.1898 1362.1635 0.0000 0.0000 1763.9138 -7344.8011 300.1325 -9108.7148 -7344.8011 300.1325 -332.7265 -246.4444 30722.9704 -332.7265 -246.4444
ENERGY: 300000 1.5166 6.1964 7.5440 0.0000 -10664.9438 1376.3289 0.0000 0.0000 1776.3379 -7497.0201 302.2465 -9273.3580 -7433.9002 300.5333 -409.6879 -330.9665 30336.3969 119.3288 198.7541
ENERGY: 600000 2.2796 9.2650 5.5754 0.0000 -10648.8556 1492.8577 0.0000 0.0000 1736.0712 -7402.8066 295.3950 -9138.8778 -7455.2965 299.2794 700.6668 768.5491 30652.9003 212.5066 281.0952
ENERGY: 900000 3.3849 3.9779 5.6743 0.0000 -10670.9318 1409.7177 0.0000 0.0000 1772.6835 -7475.4935 301.6247 -9248.1770 -7471.8792 299.0238 -198.4040 -191.7475 30364.6809 5.5931 69.1921
ENERGY: 1200000 2.8184 5.6463 3.4006 0.0000 -10701.1911 1443.4625 0.0000 0.0000 1791.8672 -7453.9961 304.8888 -9245.8632 -7483.2864 298.5699 -1.9511 74.2319 30551.9244 -18.8941 39.6584
ENERGY: 1500000 5.3817 6.7180 9.9598 0.0000 -10730.1087 1495.9727 0.0000 0.0000 1703.5710 -7508.5055 289.8651 -9212.0765 -7482.9941 297.8367 715.6951 757.7888 30248.7087 50.1719 101.6225
TCL: Running FEP window   2: Lambda1 0.95   Lambda2 0.8999999999999999 [dLambda -0.050000000000000044]
TCL: Setting parameter firsttimestep to 0
TCL: Setting parameter alchLambda to 0.95
Info: NONBONDED TABLE R-SQUARED SPACING: 0.0625
Info: NONBONDED TABLE SIZE: 705 POINTS
TCL: Setting parameter alchLambda2 to 0.8999999999999999
Info: NONBONDED TABLE R-SQUARED SPACING: 0.0625
Info: NONBONDED TABLE SIZE: 705 POINTS
TCL: Running for 1500000 steps
ETITLE: TS BOND ANGLE DIHED IMPRP ELECT VDW BOUNDARY MISC KINETIC TOTAL TEMP POTENTIAL TOTALAVG TEMPAVG PRESSURE GPRESSURE VOLUME PRESSAVG GPRESSAVG
ENERGY: 0 5.3817 6.7180 9.9598 0.0000 -10728.9774 1495.8945 0.0000 0.0000 1702.7157 -7508.3076 289.7195 -9211.0233 -7508.3076 289.7195 655.9199 743.5193 30248.7087 655.9199 743.5193
ENERGY: 300000 3.9230 6.3131 6.2723 0.0000 -10736.6300 1431.2083 0.0000 0.0000 1782.1757 -7506.7376 303.2398 -9288.9133 -7501.1602 300.7929 -211.8820 -166.6148 30543.2971 112.7650 188.1439
ENERGY: 600000 3.0017 4.0461 4.6719 0.0000 -10687.9537 1407.2609 0.0000 0.0000 1784.9682 -7484.0048 303.7149 -9268.9730 -7483.1938 301.1545 -194.0737 -156.0742 30365.1872 160.8075 226.0921
ENERGY: 900000 4.6710 5.9104 6.9747 0.0000 -10601.4395 1454.6464 0.0000 0.0000 1825.4223 -7303.8145 310.5982 -9129.2369 -7460.8165 301.3560 117.7389 185.4754 31143.2014 138.6920 204.8827
ENERGY: 1200000 4.1592 5.8027 2.4880 0.0000 -10576.7127 1365.4133 0.0000 0.0000 1773.8944 -7424.9550 301.8307 -9198.8494 -7463.4450 301.4364 -470.6486 -396.7697 30643.7731 118.3315 180.3115
ENERGY: 1500000 2.7077 8.4145 6.7328 0.0000 -10779.6556 1470.7341 0.0000 0.0000 1755.4750 -7535.5915 298.6966 -9291.0665 -7462.7343 301.4503 -96.3599 -4.8113 30455.6183 60.4876 120.6746
TCL: Running FEP window   3: Lambda1 0.8999999999999999 Lambda2 0.8499999999999999 [dLambda -0.050000000000000044]
TCL: Setting parameter firsttimestep to 0
TCL: Setting parameter alchLambda to 0.8999999999999999
Info: NONBONDED TABLE R-SQUARED SPACING: 0.0625
Info: NONBONDED TABLE SIZE: 705 POINTS
TCL: Setting parameter alchLambda2 to 0.8499999999999999
Info: NONBONDED TABLE R-SQUARED SPACING: 0.0625
Info: NONBONDED TABLE SIZE: 705 POINTS
TCL: Running for 1500000 steps
ETITLE: TS BOND ANGLE DIHED IMPRP ELECT VDW BOUNDARY MISC KINETIC TOTAL TEMP POTENTIAL TOTALAVG TEMPAVG PRESSURE GPRESSURE VOLUME PRESSAVG GPRESSAVG
ENERGY: 0 2.7077 8.4145 6.7328 0.0000 -10778.8265 1471.1026 0.0000 0.0000 1754.5848 -7535.2842 298.5451 -9289.8690 -7535.2842 298.5451 -99.3600 -14.0469 30455.6183 -99.3600 -14.0469
ENERGY: 300000 2.9176 9.1396 5.4286 0.0000 -10744.6368 1449.7487 0.0000 0.0000 1817.6039 -7459.7984 309.2679 -9277.4024 -7480.8415 300.7058 83.1252 137.8370 30218.8092 -92.4118 -4.2793
ENERGY: 600000 6.3245 7.1008 10.4664 0.0000 -10662.7781 1437.4582 0.0000 0.0000 1811.2796 -7390.1486 308.1918 -9201.4283 -7461.2465 302.7752 103.4102 178.2540 30090.0501 -28.2612 37.0756
ENERGY: 900000 3.0712 4.8927 6.9245 0.0000 -10608.0980 1379.9644 0.0000 0.0000 1740.6091 -7472.6360 296.1672 -9213.2452 -7458.7286 301.7499 -161.5150 -102.2340 30202.4224 -229.2710 -161.1239
ENERGY: 1200000 4.6941 6.4435 10.6604 0.0000 -10730.6249 1493.5673 0.0000 0.0000 1792.5511 -7422.7085 305.0052 -9215.2596 -7468.9317 302.2156 394.9280 438.1607 30407.7543 -124.3928 -58.0675
ENERGY: 1500000 1.7699 6.2379 4.7363 0.0000 -10623.3258 1430.2191 0.0000 0.0000 1752.4785 -7427.8842 298.1867 -9180.3627 -7464.6301 301.6369 87.2680 129.1250 30434.1449 -163.5386 -96.5564
TCL: Running FEP window   4: Lambda1 0.8499999999999999 Lambda2 0.7999999999999998 [dLambda -0.050000000000000044]
TCL: Setting parameter firsttimestep to 0
TCL: Setting parameter alchLambda to 0.8499999999999999
Info: NONBONDED TABLE R-SQUARED SPACING: 0.0625
Info: NONBONDED TABLE SIZE: 705 POINTS
TCL: Setting parameter alchLambda2 to 0.7999999999999998
Info: NONBONDED TABLE R-SQUARED SPACING: 0.0625
Info: NONBONDED TABLE SIZE: 705 POINTS
TCL: Running for 1500000 steps
ETITLE: TS BOND ANGLE DIHED IMPRP ELECT VDW BOUNDARY MISC KINETIC TOTAL TEMP POTENTIAL TOTALAVG TEMPAVG PRESSURE GPRESSURE VOLUME PRESSAVG GPRESSAVG
ENERGY: 0 1.7699 6.2379 4.7363 0.0000 -10622.2934 1430.5580 0.0000 0.0000 1751.6160 -7427.3754 298.0400 -9178.9914 -7427.3754 298.0400 40.5466 122.6763 30434.1449 40.5466 122.6763
ENERGY: 300000 1.4350 10.3842 3.3119 0.0000 -10546.5780 1360.3461 0.0000 0.0000 1753.8182 -7417.2825 298.4147 -9171.1008 -7480.1513 293.0836 -437.0100 -454.1631 30564.5483 -9.3734 39.8611
ENERGY: 600000 2.7666 9.9852 4.5509 0.0000 -10581.8537 1319.8001 0.0000 0.0000 1802.1271 -7442.6238 306.6345 -9244.7508 -7477.1790 295.8657 -897.0748 -778.2960 30105.7241 -145.9714 -70.8436
ENERGY: 900000 6.8137 6.8099 4.3990 0.0000 -10640.4195 1369.2832 0.0000 0.0000 1809.9491 -7443.1646 307.9655 -9253.1138 -7471.3809 297.5942 -642.0669 -540.3306 30396.3026 -316.0626 -238.6379
ENERGY: 1200000 2.5049 4.4755 4.6009 0.0000 -10812.5376 1530.9781 0.0000 0.0000 1719.7035 -7550.2747 292.6100 -9269.9782 -7477.3837 297.4613 700.7224 657.3770 30135.7509 -177.1656 -106.6173
ENERGY: 1500000 4.4168 4.2096 7.1938 0.0000 -10535.9257 1307.0414 0.0000 0.0000 1726.9581 -7486.1060 293.8444 -9213.0641 -7477.6018 297.7176 -1144.4865 -1114.6365 30532.8600 -223.5105 -156.3233
TCL: Running FEP window   5: Lambda1 0.7999999999999998 Lambda2 0.7499999999999998 [dLambda -0.050000000000000044]
TCL: Setting parameter firsttimestep to 0
TCL: Setting parameter alchLambda to 0.7999999999999998
Info: NONBONDED TABLE R-SQUARED SPACING: 0.0625
Info: NONBONDED TABLE SIZE: 705 POINTS
TCL: Setting parameter alchLambda2 to 0.7499999999999998
Info: NONBONDED TABLE R-SQUARED SPACING: 0.0625
Info: NONBONDED TABLE SIZE: 705 POINTS
TCL: Running for 1500000 steps
ETITLE: TS BOND ANGLE DIHED IMPRP ELECT VDW BOUNDARY MISC KINETIC TOTAL TEMP POTENTIAL TOTALAVG TEMPAVG PRESSURE GPRESSURE VOLUME PRESSAVG GPRESSAVG
ENERGY: 0 4.4168 4.2096 7.1938 0.0000 -10534.8565 1306.7641 0.0000 0.0000 1726.1158 -7486.1563 293.7011 -9212.2722 -7486.1563 293.7011 -1211.7385 -1129.0245 30532.8600 -1211.7385 -1129.0245
ENERGY: 300000 2.1189 4.0562 6.5261 0.0000 -10675.3994 1364.5456 0.0000 0.0000 1802.1638 -7495.9887 306.6408 -9298.1525 -7501.2991 299.8613 -761.0123 -713.0318 30483.1304 -469.9920 -391.6165
ENERGY: 600000 2.6562 4.3273 6.0092 0.0000 -10639.1547 1404.2336 0.0000 0.0000 1767.6851 -7454.2433 300.7742 -9221.9284 -7477.5786 300.2578 -161.1405 -162.5785 30567.9149 -426.4984 -359.0751
ENERGY: 900000 3.6441 7.5717 4.8878 0.0000 -10729.9845 1473.3290 0.0000 0.0000 1757.9069 -7482.6449 299.1104 -9240.5518 -7478.9035 299.3642 258.8232 324.0328 30449.0924 -305.9177 -233.4159
ENERGY: 1200000 2.1302 6.5521 4.7470 0.0000 -10460.4853 1285.5293 0.0000 0.0000 1810.5626 -7350.9641 308.0698 -9161.5267 -7471.5019 300.3935 -1280.5836 -1174.6355 31007.4122 -368.2596 -301.2967
ENERGY: 1500000 3.6433 6.3062 5.1512 0.0000 -10666.4200 1408.7941 0.0000 0.0000 1758.6983 -7483.8269 299.2450 -9242.5252 -7472.9457 299.7688 -82.0257 -44.1686 29854.9063 -275.2498 -212.0083
TCL: Running FEP window   6: Lambda1 0.7499999999999998 Lambda2 0.6999999999999997 [dLambda -0.050000000000000044]
TCL: Setting parameter firsttimestep to 0
TCL: Setting parameter alchLambda to 0.7499999999999998
Info: NONBONDED TABLE R-SQUARED SPACING: 0.0625
Info: NONBONDED TABLE SIZE: 705 POINTS
TCL: Setting parameter alchLambda2 to 0.6999999999999997
Info: NONBONDED TABLE R-SQUARED SPACING: 0.0625
Info: NONBONDED TABLE SIZE: 705 POINTS
TCL: Running for 1500000 steps
ETITLE: TS BOND ANGLE DIHED IMPRP ELECT VDW BOUNDARY MISC KINETIC TOTAL TEMP POTENTIAL TOTALAVG TEMPAVG PRESSURE GPRESSURE VOLUME PRESSAVG GPRESSAVG
ENERGY: 0 3.6433 6.3062 5.1512 0.0000 -10665.6498 1409.0368 0.0000 0.0000 1757.8457 -7483.6665 299.1000 -9241.5122 -7483.6665 299.1000 -151.2493 -50.5186 29854.9063 -151.2493 -50.5186
ENERGY: 300000 2.6585 6.1690 5.4511 0.0000 -10650.8247 1420.1572 0.0000 0.0000 1851.3029 -7365.0861 315.0019 -9216.3890 -7427.8187 305.3817 75.9212 128.7415 30098.3015 162.7950 245.6753
ENERGY: 600000 3.6486 5.5468 1.5030 0.0000 -10805.5274 1502.5498 0.0000 0.0000 1781.7557 -7510.5234 303.1683 -9292.2792 -7441.3717 305.2619 270.0061 326.9791 30554.7375 -13.7339 63.5786
ENERGY: 900000 5.8509 5.7883 4.2930 0.0000 -10661.5676 1444.4452 0.0000 0.0000 1835.3019 -7365.8883 312.2793 -9201.1902 -7444.8410 304.1042 -33.1923 11.1353 30522.2089 -36.7337 35.4072
ENERGY: 1200000 3.1669 8.8026 5.8969 0.0000 -10706.3030 1399.3449 0.0000 0.0000 1777.5733 -7511.5185 302.4567 -9289.0918 -7450.8129 303.8246 -320.4763 -300.3756 30053.6938 -42.0066 24.9639
ENERGY: 1500000 1.4908 4.8724 3.1883 0.0000 -10711.0663 1472.3151 0.0000 0.0000 1775.3613 -7453.8385 302.0803 -9229.1998 -7457.1312 302.9481 344.1340 447.0643 30223.0896 -145.7408 -74.1359
TCL: Running FEP window   7: Lambda1 0.6999999999999997 Lambda2 0.6499999999999997 [dLambda -0.050000000000000044]
TCL: Setting parameter firsttimestep to 0
TCL: Setting parameter alchLambda to 0.6999999999999997
Info: NONBONDED TABLE R-SQUARED SPACING: 0.0625
Info: NONBONDED TABLE SIZE: 705 POINTS
TCL: Setting parameter alchLambda2 to 0.6499999999999997
Info: NONBONDED TABLE R-SQUARED SPACING: 0.0625
Info: NONBONDED TABLE SIZE: 705 POINTS
TCL: Running for 1500000 steps
ETITLE: TS BOND ANGLE DIHED IMPRP ELECT VDW BOUNDARY MISC KINETIC TOTAL TEMP POTENTIAL TOTALAVG TEMPAVG PRESSURE GPRESSURE VOLUME PRESSAVG GPRESSAVG
ENERGY: 0 1.4908 4.8724 3.1883 0.0000 -10711.0871 1472.8633 0.0000 0.0000 1774.4321 -7454.2403 301.9222 -9228.6724 -7454.2403 301.9222 355.8576 444.7477 30223.0896 355.8576 444.7477
ENERGY: 300000 1.7343 5.3383 5.4203 0.0000 -10918.5448 1560.9064 0.0000 0.0000 1814.3391 -7530.8062 308.7124 -9345.1454 -7516.0789 301.0484 507.5529 540.7703 30680.6638 33.6008 87.0509
ENERGY: 600000 1.3599 7.3858 4.8013 0.0000 -10637.1303 1452.6459 0.0000 0.0000 1780.5234 -7390.4139 302.9586 -9170.9373 -7498.8216 299.0391 148.1064 249.8542 30749.5723 -14.0557 45.5871
ENERGY: 900000 3.0916 6.7705 3.4190 0.0000 -10684.3946 1472.0919 0.0000 0.0000 1755.1446 -7443.8769 298.6404 -9199.0216 -7496.9538 298.0726 -129.8424 -80.3449 31223.6549 -12.5605 52.0165
ENERGY: 1200000 3.7964 5.1901 3.4151 0.0000 -10533.0901 1319.7389 0.0000 0.0000 1746.6841 -7454.2654 297.2008 -9200.9496 -7487.8520 298.6217 -560.9673 -500.5142 30248.4613 -91.1200 -28.1520
ENERGY: 1500000 1.4626 4.2382 7.1693 0.0000 -10758.5373 1454.1516 0.0000 0.0000 1772.5710 -7518.9446 301.6055 -9291.5156 -7490.9219 299.2261 175.1085 276.7462 29914.5005 -105.2958 -40.4855
TCL: Running FEP window   8: Lambda1 0.6499999999999997 Lambda2 0.5999999999999996 [dLambda -0.050000000000000044]
TCL: Setting parameter firsttimestep to 0
TCL: Setting parameter alchLambda to 0.6499999999999997
Info: NONBONDED TABLE R-SQUARED SPACING: 0.0625
Info: NONBONDED TABLE SIZE: 705 POINTS
TCL: Setting parameter alchLambda2 to 0.5999999999999996
Info: NONBONDED TABLE R-SQUARED SPACING: 0.0625
Info: NONBONDED TABLE SIZE: 705 POINTS
TCL: Running for 1500000 steps
ETITLE: TS BOND ANGLE DIHED IMPRP ELECT VDW BOUNDARY MISC KINETIC TOTAL TEMP POTENTIAL TOTALAVG TEMPAVG PRESSURE GPRESSURE VOLUME PRESSAVG GPRESSAVG
ENERGY: 0 1.4626 4.2382 7.1693 0.0000 -10758.5706 1454.8478 0.0000 0.0000 1771.6641 -7519.1887 301.4512 -9290.8528 -7519.1887 301.4512 200.4308 273.5164 29914.5005 200.4308 273.5164
ENERGY: 300000 3.7868 4.6557 6.5384 0.0000 -10628.7554 1415.8689 0.0000 0.0000 1777.9389 -7419.9666 302.5189 -9197.9055 -7447.0363 303.7875 -522.4590 -429.5009 31161.8544 -35.3390 44.2018
ENERGY: 600000 1.9469 4.5874 7.0695 0.0000 -10783.4030 1488.0038 0.0000 0.0000 1744.2912 -7537.5043 296.7937 -9281.7954 -7481.2519 301.6148 223.2301 263.6002 30200.5891 -102.6058 -34.5869
ENERGY: 900000 2.4599 6.9856 4.2793 0.0000 -10543.8643 1365.4371 0.0000 0.0000 1745.0706 -7419.6317 296.9263 -9164.7023 -7459.8369 301.7168 -366.8886 -251.8401 30540.8018 -17.1389 53.2543
ENERGY: 1200000 1.6417 9.8020 5.7065 0.0000 -10658.6540 1370.8031 0.0000 0.0000 1765.8625 -7504.8382 300.4641 -9270.7007 -7466.1702 300.7378 -542.6055 -519.7488 30381.2076 -94.3827 -35.4938
ENERGY: 1500000 1.0754 7.8702 4.8336 0.0000 -10792.5247 1486.5729 0.0000 0.0000 1790.5753 -7501.5972 304.6690 -9292.1725 -7464.2579 301.3787 73.8813 99.8694 30521.2618 -107.5381 -52.6927
TCL: Running FEP window   9: Lambda1 0.5999999999999996 Lambda2 0.5499999999999996 [dLambda -0.050000000000000044]
TCL: Setting parameter firsttimestep to 0
TCL: Setting parameter alchLambda to 0.5999999999999996
Info: NONBONDED TABLE R-SQUARED SPACING: 0.0625
Info: NONBONDED TABLE SIZE: 705 POINTS
TCL: Setting parameter alchLambda2 to 0.5499999999999996
Info: NONBONDED TABLE R-SQUARED SPACING: 0.0625
Info: NONBONDED TABLE SIZE: 705 POINTS
TCL: Running for 1500000 steps
ETITLE: TS BOND ANGLE DIHED IMPRP ELECT VDW BOUNDARY MISC KINETIC TOTAL TEMP POTENTIAL TOTALAVG TEMPAVG PRESSURE GPRESSURE VOLUME PRESSAVG GPRESSAVG
ENERGY: 0 1.0754 7.8702 4.8336 0.0000 -10792.7285 1486.8695 0.0000 0.0000 1789.7114 -7502.3683 304.5220 -9292.0798 -7502.3683 304.5220 3.8642 90.5721 30521.2618 3.8642 90.5721
ENERGY: 300000 0.5217 7.1773 4.9259 0.0000 -10707.0720 1437.7760 0.0000 0.0000 1722.4755 -7534.1957 293.0817 -9256.6712 -7500.4951 298.0047 -196.0797 -153.3108 30663.7908 -199.7865 -150.2235
ENERGY: 600000 2.1768 11.2023 5.7154 0.0000 -10789.9602 1473.6438 0.0000 0.0000 1693.4180 -7603.8040 288.1375 -9297.2220 -7509.4093 297.0429 -88.4339 34.5115 30238.7606 -150.8838 -85.0018
ENERGY: 900000 2.6524 5.6782 6.1698 0.0000 -10741.8118 1447.7978 0.0000 0.0000 1765.2896 -7514.2239 300.3666 -9279.5136 -7503.4533 298.9645 38.8571 158.9524 29999.1678 -164.2524 -90.2601
ENERGY: 1200000 1.5401 4.8396 5.8337 0.0000 -10792.3394 1500.8656 0.0000 0.0000 1796.9802 -7482.2802 305.7588 -9279.2605 -7489.2105 299.7534 636.2863 637.5402 29853.7597 -98.5372 -31.3414
ENERGY: 1500000 1.0606 7.5877 2.5867 0.0000 -10705.4159 1430.2634 0.0000 0.0000 1822.5422 -7441.3752 310.1082 -9263.9173 -7482.6384 300.2157 -128.7645 -75.6793 30620.9091 -133.3380 -71.2707
TCL: Running FEP window  10: Lambda1 0.5499999999999996 Lambda2 0.4999999999999996 [dLambda -0.04999999999999999]
TCL: Setting parameter firsttimestep to 0
TCL: Setting parameter alchLambda to 0.5499999999999996
Info: NONBONDED TABLE R-SQUARED SPACING: 0.0625
Info: NONBONDED TABLE SIZE: 705 POINTS
TCL: Setting parameter alchLambda2 to 0.4999999999999996
Info: NONBONDED TABLE R-SQUARED SPACING: 0.0625
Info: NONBONDED TABLE SIZE: 705 POINTS
TCL: Running for 1500000 steps
ETITLE: TS BOND ANGLE DIHED IMPRP ELECT VDW BOUNDARY MISC KINETIC TOTAL TEMP POTENTIAL TOTALAVG TEMPAVG PRESSURE GPRESSURE VOLUME PRESSAVG GPRESSAVG
ENERGY: 0 1.0606 7.5877 2.5867 0.0000 -10704.8523 1430.5329 0.0000 0.0000 1821.6489 -7441.4355 309.9562 -9263.0844 -7441.4355 309.9562 -160.9971 -78.9225 30620.9091 -160.9971 -78.9225
ENERGY: 300000 2.4042 7.8037 8.4271 0.0000 -10839.3066 1529.2704 0.0000 0.0000 1744.8522 -7546.5489 296.8891 -9291.4011 -7507.7734 301.8770 558.8196 594.5296 30183.4915 63.6143 115.9457
ENERGY: 600000 3.9660 3.3485 3.9767 0.0000 -10613.1915 1418.6850 0.0000 0.0000 1735.0452 -7448.1702 295.2204 -9183.2153 -7486.6267 301.1283 125.9849 195.5883 29888.9613 175.9996 230.5250
ENERGY: 900000 2.8073 7.0485 2.9966 0.0000 -10631.5368 1357.7187 0.0000 0.0000 1739.5081 -7521.4576 295.9798 -9260.9657 -7485.5476 301.5924 -604.1994 -512.8712 30018.1946 6.8533 62.1490
ENERGY: 1200000 2.5904 4.5202 4.8187 0.0000 -10843.1776 1482.4131 0.0000 0.0000 1787.6625 -7561.1726 304.1734 -9348.8351 -7491.4579 301.0776 -114.0053 -2.6259 30486.9938 -24.8536 37.8694
ENERGY: 1500000 3.0418 6.6305 7.4623 0.0000 -10708.0980 1416.2442 0.0000 0.0000 1786.1618 -7488.5574 303.9180 -9274.7191 -7488.4378 301.3614 -245.0655 -126.9902 30154.2880 -50.8969 20.5717
TCL: Running FEP window  11: Lambda1 0.4999999999999996 Lambda2 0.4499999999999996 [dLambda -0.04999999999999999]
TCL: Setting parameter firsttimestep to 0
TCL: Setting parameter alchLambda to 0.4999999999999996
Info: NONBONDED TABLE R-SQUARED SPACING: 0.0625
Info: NONBONDED TABLE SIZE: 705 POINTS
TCL: Setting parameter alchLambda2 to 0.4499999999999996
Info: NONBONDED TABLE R-SQUARED SPACING: 0.0625
Info: NONBONDED TABLE SIZE: 705 POINTS
TCL: Running for 1500000 steps
ETITLE: TS BOND ANGLE DIHED IMPRP ELECT VDW BOUNDARY MISC KINETIC TOTAL TEMP POTENTIAL TOTALAVG TEMPAVG PRESSURE GPRESSURE VOLUME PRESSAVG GPRESSAVG
ENERGY: 0 3.0418 6.6305 7.4623 0.0000 -10707.9737 1416.5893 0.0000 0.0000 1785.2719 -7488.9779 303.7666 -9274.2497 -7488.9779 303.7666 -219.4832 -134.2618 30154.2880 -219.4832 -134.2618
ENERGY: 300000 1.9347 6.0932 7.7085 0.0000 -10671.7878 1432.8670 0.0000 0.0000 1739.1611 -7484.0233 295.9208 -9223.1844 -7460.3143 301.3572 269.4133 364.3862 29816.8176 125.3022 204.4450
ENERGY: 600000 5.2070 9.5689 4.6961 0.0000 -10699.0057 1449.4362 0.0000 0.0000 1759.0904 -7471.0071 299.3118 -9230.0974 -7440.7655 302.6886 72.6875 161.1367 30016.4723 -0.2678 69.9023
ENERGY: 900000 2.7509 6.4978 5.9928 0.0000 -10669.4569 1416.9197 0.0000 0.0000 1771.8665 -7465.4292 301.4856 -9237.2957 -7444.0447 301.7402 -412.2726 -301.2090 30539.0471 -108.2830 -37.7827
ENERGY: 1200000 4.3584 7.5472 2.2038 0.0000 -10863.9933 1503.4253 0.0000 0.0000 1744.1293 -7602.3292 296.7661 -9346.4586 -7466.8905 301.0247 323.9367 410.0564 29961.4208 -70.5189 0.3011
ENERGY: 1500000 3.8825 6.9403 6.5351 0.0000 -10723.1852 1400.4515 0.0000 0.0000 1812.2627 -7493.1132 308.3591 -9305.3759 -7469.5788 301.2498 -555.3767 -461.2103 30092.1537 -113.3818 -38.3036
TCL: Running FEP window  12: Lambda1 0.4499999999999996 Lambda2 0.39999999999999963 [dLambda -0.04999999999999999]
TCL: Setting parameter firsttimestep to 0
TCL: Setting parameter alchLambda to 0.4499999999999996
Info: NONBONDED TABLE R-SQUARED SPACING: 0.0625
Info: NONBONDED TABLE SIZE: 705 POINTS
TCL: Setting parameter alchLambda2 to 0.39999999999999963
Info: NONBONDED TABLE R-SQUARED SPACING: 0.0625
Info: NONBONDED TABLE SIZE: 705 POINTS
TCL: Running for 1500000 steps
ETITLE: TS BOND ANGLE DIHED IMPRP ELECT VDW BOUNDARY MISC KINETIC TOTAL TEMP POTENTIAL TOTALAVG TEMPAVG PRESSURE GPRESSURE VOLUME PRESSAVG GPRESSAVG
ENERGY: 0 3.8825 6.9403 6.5351 0.0000 -10723.1871 1401.1289 0.0000 0.0000 1811.3619 -7493.3384 308.2058 -9304.7003 -7493.3384 308.2058 -557.6110 -459.2326 30092.1537 -557.6110 -459.2326
ENERGY: 300000 3.1020 7.2282 8.9140 0.0000 -10657.2971 1448.2705 0.0000 0.0000 1747.3590 -7442.4233 297.3157 -9189.7823 -7474.6183 297.7959 -16.2056 83.3797 30455.8242 -239.6446 -162.2152
ENERGY: 600000 3.9485 7.5895 7.5341 0.0000 -10704.0433 1441.1613 0.0000 0.0000 1780.1715 -7463.6383 302.8987 -9243.8098 -7470.8333 300.0132 -129.7275 -66.7666 30280.3759 -176.9494 -123.3827
ENERGY: 900000 4.5447 3.7376 7.0204 0.0000 -10757.3756 1469.7825 0.0000 0.0000 1737.3319 -7534.9585 295.6095 -9272.2904 -7465.3594 298.7782 -100.4526 -19.7526 30723.4402 -91.1391 -36.6326
ENERGY: 1200000 1.9039 5.9756 9.9351 0.0000 -10695.8251 1433.1828 0.0000 0.0000 1688.7209 -7556.1067 287.3383 -9244.8277 -7463.5751 298.4540 -199.2658 -125.2627 30380.2108 -50.3500 -2.7259
ENERGY: 1500000 4.5048 4.7271 8.8246 0.0000 -10745.0928 1525.8129 0.0000 0.0000 1760.2000 -7441.0234 299.5006 -9201.2234 -7465.2205 298.9483 778.2541 834.4364 30525.4714 -68.1987 -12.4452
TCL: Running FEP window  13: Lambda1 0.39999999999999963 Lambda2 0.34999999999999964 [dLambda -0.04999999999999999]
TCL: Setting parameter firsttimestep to 0
TCL: Setting parameter alchLambda to 0.39999999999999963
Info: NONBONDED TABLE R-SQUARED SPACING: 0.0625
Info: NONBONDED TABLE SIZE: 705 POINTS
TCL: Setting parameter alchLambda2 to 0.34999999999999964
Info: NONBONDED TABLE R-SQUARED SPACING: 0.0625
Info: NONBONDED TABLE SIZE: 705 POINTS
TCL: Running for 1500000 steps
ETITLE: TS BOND ANGLE DIHED IMPRP ELECT VDW BOUNDARY MISC KINETIC TOTAL TEMP POTENTIAL TOTALAVG TEMPAVG PRESSURE GPRESSURE VOLUME PRESSAVG GPRESSAVG
ENERGY: 0 4.5048 4.7271 8.8246 0.0000 -10745.0947 1525.3348 0.0000 0.0000 1759.3339 -7442.3695 299.3532 -9201.7034 -7442.3695 299.3532 742.0761 825.6753 30525.4714 742.0761 825.6753
ENERGY: 300000 6.0352 8.4328 7.5384 0.0000 -10651.5479 1408.8973 0.0000 0.0000 1741.0056 -7479.6385 296.2346 -9220.6442 -7446.8482 299.6053 -237.4762 -103.5997 29944.4468 -32.6238 32.5951
ENERGY: 600000 1.4146 9.6214 4.6547 0.0000 -10539.1548 1333.2875 0.0000 0.0000 1827.9680 -7362.2087 311.0314 -9190.1767 -7446.8046 301.5474 -620.8864 -594.4827 30236.8057 -133.2802 -61.0790
ENERGY: 900000 3.3944 6.9896 5.7356 0.0000 -10712.1296 1419.5191 0.0000 0.0000 1720.1897 -7556.3013 292.6928 -9276.4910 -7464.8978 299.2404 -633.6580 -632.7219 30688.1992 -136.4701 -76.3467
ENERGY: 1200000 4.1267 7.7216 3.6761 0.0000 -10794.0453 1537.2453 0.0000 0.0000 1679.5875 -7561.6881 285.7842 -9241.2756 -7472.0056 298.5118 649.3565 732.4663 30208.1858 -88.5085 -23.9429
ENERGY: 1500000 2.5773 8.8271 3.5969 0.0000 -10619.2402 1340.6606 0.0000 0.0000 1736.4182 -7527.1602 295.4541 -9263.5784 -7469.8554 298.8640 -952.8618 -878.6895 30406.2497 -145.6867 -78.6541
TCL: Running FEP window  14: Lambda1 0.34999999999999964 Lambda2 0.29999999999999966 [dLambda -0.04999999999999999]
TCL: Setting parameter firsttimestep to 0
TCL: Setting parameter alchLambda to 0.34999999999999964
Info: NONBONDED TABLE R-SQUARED SPACING: 0.0625
Info: NONBONDED TABLE SIZE: 705 POINTS
TCL: Setting parameter alchLambda2 to 0.29999999999999966
Info: NONBONDED TABLE R-SQUARED SPACING: 0.0625
Info: NONBONDED TABLE SIZE: 705 POINTS
TCL: Running for 1500000 steps
ETITLE: TS BOND ANGLE DIHED IMPRP ELECT VDW BOUNDARY MISC KINETIC TOTAL TEMP POTENTIAL TOTALAVG TEMPAVG PRESSURE GPRESSURE VOLUME PRESSAVG GPRESSAVG
ENERGY: 0 2.5773 8.8271 3.5969 0.0000 -10619.2404 1341.3090 0.0000 0.0000 1735.5653 -7527.3649 295.3089 -9262.9302 -7527.3649 295.3089 -969.6042 -881.3453 30406.2497 -969.6042 -881.3453
ENERGY: 300000 3.7705 4.3307 8.8285 0.0000 -10741.0859 1451.1634 0.0000 0.0000 1718.3518 -7554.6410 292.3800 -9272.9928 -7522.0871 296.4800 154.4156 212.6952 30039.3945 -12.3353 66.1909
ENERGY: 600000 1.1127 5.6563 4.4755 0.0000 -10828.4206 1508.0317 0.0000 0.0000 1713.1656 -7595.9787 291.4976 -9309.1443 -7521.4937 295.9404 207.0960 189.6008 30376.3211 263.8252 319.3426
ENERGY: 900000 4.1861 10.0365 10.7360 0.0000 -10824.6082 1482.5429 0.0000 0.0000 1777.4320 -7539.6747 302.4326 -9317.1067 -7539.8482 294.9465 -97.4153 -22.1341 30015.1504 59.8960 115.5506
ENERGY: 1200000 3.5301 8.1936 4.4597 0.0000 -10712.3965 1415.0839 0.0000 0.0000 1800.0303 -7481.0989 306.2778 -9281.1292 -7518.0433 296.4137 -171.4001 -148.4404 30135.7237 -35.7503 21.7213
ENERGY: 1500000 3.4589 5.1617 4.0870 0.0000 -10730.5598 1473.4893 0.0000 0.0000 1764.4527 -7479.9101 300.2242 -9244.3628 -7504.3698 297.8010 358.2366 438.6330 30178.8567 2.6580 56.9044
TCL: Running FEP window  15: Lambda1 0.29999999999999966 Lambda2 0.24999999999999967 [dLambda -0.04999999999999999]
TCL: Setting parameter firsttimestep to 0
TCL: Setting parameter alchLambda to 0.29999999999999966
Info: NONBONDED TABLE R-SQUARED SPACING: 0.0625
Info: NONBONDED TABLE SIZE: 705 POINTS
TCL: Setting parameter alchLambda2 to 0.24999999999999967
Info: NONBONDED TABLE R-SQUARED SPACING: 0.0625
Info: NONBONDED TABLE SIZE: 705 POINTS
TCL: Running for 1500000 steps
ETITLE: TS BOND ANGLE DIHED IMPRP ELECT VDW BOUNDARY MISC KINETIC TOTAL TEMP POTENTIAL TOTALAVG TEMPAVG PRESSURE GPRESSURE VOLUME PRESSAVG GPRESSAVG
ENERGY: 0 3.4589 5.1617 4.0870 0.0000 -10730.5594 1473.8852 0.0000 0.0000 1763.5782 -7480.3883 300.0754 -9243.9665 -7480.3883 300.0754 361.2167 434.4104 30178.8567 361.2167 434.4104
ENERGY: 300000 8.0677 7.8543 2.0401 0.0000 -10640.1123 1440.4164 0.0000 0.0000 1732.1601 -7449.5737 294.7295 -9181.7337 -7463.7213 296.9006 159.0743 154.9571 30239.9624 321.7374 396.6011
ENERGY: 600000 3.9454 9.0124 7.5796 0.0000 -10635.5217 1354.3419 0.0000 0.0000 1728.7465 -7531.8959 294.1487 -9260.6424 -7458.2250 299.7462 -674.3267 -645.3018 30158.7893 185.6917 247.7202
ENERGY: 900000 5.7785 7.1382 6.1014 0.0000 -10666.0463 1439.0736 0.0000 0.0000 1705.9764 -7501.9782 290.2743 -9207.9546 -7483.5167 297.4535 -116.7673 -3.6256 30165.8280 117.9396 192.7862
ENERGY: 1200000 1.9829 7.1098 4.4230 0.0000 -10598.7420 1378.4139 0.0000 0.0000 1762.9234 -7443.8890 299.9640 -9206.8124 -7479.7806 298.1918 -518.9018 -565.3748 30774.7566 84.4748 145.4084
ENERGY: 1500000 1.6654 8.0917 3.4061 0.0000 -10676.4411 1411.5056 0.0000 0.0000 1825.7183 -7426.0540 310.6486 -9251.7723 -7477.4912 299.1773 -19.7422 71.6856 29833.3250 -47.1125 17.0446
TCL: Running FEP window  16: Lambda1 0.24999999999999967 Lambda2 0.19999999999999968 [dLambda -0.04999999999999999]
TCL: Setting parameter firsttimestep to 0
TCL: Setting parameter alchLambda to 0.24999999999999967
Info: NONBONDED TABLE R-SQUARED SPACING: 0.0625
Info: NONBONDED TABLE SIZE: 705 POINTS
TCL: Setting parameter alchLambda2 to 0.19999999999999968
Info: NONBONDED TABLE R-SQUARED SPACING: 0.0625
Info: NONBONDED TABLE SIZE: 705 POINTS
TCL: Running for 1500000 steps
ETITLE: TS BOND ANGLE DIHED IMPRP ELECT VDW BOUNDARY MISC KINETIC TOTAL TEMP POTENTIAL TOTALAVG TEMPAVG PRESSURE GPRESSURE VOLUME PRESSAVG GPRESSAVG
ENERGY: 0 1.6654 8.0917 3.4061 0.0000 -10676.4404 1411.7709 0.0000 0.0000 1824.8696 -7426.6367 310.5042 -9251.5063 -7426.6367 310.5042 -17.5563 67.6929 29833.3250 -17.5563 67.6929
ENERGY: 300000 1.9329 3.2541 4.3297 0.0000 -10748.1878 1510.1767 0.0000 0.0000 1758.6029 -7469.8915 299.2288 -9228.4944 -7449.5689 302.3659 789.8376 835.5390 29770.7113 36.5648 89.8883
ENERGY: 600000 2.9890 8.1797 7.9630 0.0000 -10778.0744 1449.8926 0.0000 0.0000 1762.0455 -7547.0046 299.8146 -9309.0501 -7463.7783 303.3042 -230.0013 -188.0214 30125.5991 198.0492 253.2750
ENERGY: 900000 2.5337 4.7881 4.3518 0.0000 -10663.3743 1415.2616 0.0000 0.0000 1772.6316 -7463.8075 301.6158 -9236.4391 -7472.4061 301.4708 -5.9131 120.5942 29793.8609 72.7794 129.3009
ENERGY: 1200000 3.9379 10.9147 3.0075 0.0000 -10764.4097 1486.6630 0.0000 0.0000 1772.5689 -7487.3176 301.6052 -9259.8865 -7464.7073 301.8153 248.7260 275.7890 30275.7424 12.9069 65.2477
ENERGY: 1500000 2.8096 5.5682 4.9600 0.0000 -10701.8080 1520.3801 0.0000 0.0000 1733.5417 -7434.5485 294.9646 -9168.0901 -7456.2945 301.7649 707.2707 736.9406 30722.6741 55.0836 107.7112
TCL: Running FEP window  17: Lambda1 0.19999999999999968 Lambda2 0.1499999999999997 [dLambda -0.04999999999999999]
TCL: Setting parameter firsttimestep to 0
TCL: Setting parameter alchLambda to 0.19999999999999968
Info: NONBONDED TABLE R-SQUARED SPACING: 0.0625
Info: NONBONDED TABLE SIZE: 705 POINTS
TCL: Setting parameter alchLambda2 to 0.1499999999999997
Info: NONBONDED TABLE R-SQUARED SPACING: 0.0625
Info: NONBONDED TABLE SIZE: 705 POINTS
TCL: Running for 1500000 steps
ETITLE: TS BOND ANGLE DIHED IMPRP ELECT VDW BOUNDARY MISC KINETIC TOTAL TEMP POTENTIAL TOTALAVG TEMPAVG PRESSURE GPRESSURE VOLUME PRESSAVG GPRESSAVG
ENERGY: 0 2.8096 5.5682 4.9600 0.0000 -10701.8077 1520.8354 0.0000 0.0000 1732.6469 -7434.9876 294.8124 -9167.6345 -7434.9876 294.8124 662.2944 738.8271 30722.6741 662.2944 738.8271
ENERGY: 300000 3.2973 6.8363 6.3617 0.0000 -10744.1275 1551.9833 0.0000 0.0000 1733.6069 -7442.0421 294.9757 -9175.6490 -7406.4992 301.4053 797.9499 884.8338 30553.8887 316.2218 388.8353
ENERGY: 600000 0.8373 5.8279 10.8680 0.0000 -10589.7354 1371.8639 0.0000 0.0000 1739.6932 -7460.6451 296.0113 -9200.3382 -7431.3157 299.6555 -340.7160 -311.3011 29994.9429 -41.1534 10.8134
ENERGY: 900000 3.9966 4.5613 9.0033 0.0000 -10638.1159 1442.3845 0.0000 0.0000 1742.9552 -7435.2150 296.5663 -9178.1702 -7451.7834 299.3253 -144.8625 -37.5211 30518.0081 6.8994 71.4255
ENERGY: 1200000 3.2798 4.9230 4.2578 0.0000 -10739.9450 1521.7829 0.0000 0.0000 1746.8588 -7458.8428 297.2305 -9205.7016 -7439.4446 299.5256 485.6810 473.1636 30616.1175 99.4760 154.1598
ENERGY: 1500000 5.7992 2.8488 4.8676 0.0000 -10675.6290 1449.9567 0.0000 0.0000 1774.8402 -7437.3165 301.9916 -9212.1567 -7443.5757 299.2904 -54.6993 -90.1903 30482.6682 32.2054 80.5818
TCL: Running FEP window  18: Lambda1 0.1499999999999997 Lambda2 0.09999999999999969 [dLambda -0.05 ]
TCL: Setting parameter firsttimestep to 0
TCL: Setting parameter alchLambda to 0.1499999999999997
Info: NONBONDED TABLE R-SQUARED SPACING: 0.0625
Info: NONBONDED TABLE SIZE: 705 POINTS
TCL: Setting parameter alchLambda2 to 0.09999999999999969
Info: NONBONDED TABLE R-SQUARED SPACING: 0.0625
Info: NONBONDED TABLE SIZE: 705 POINTS
TCL: Running for 1500000 steps
ETITLE: TS BOND ANGLE DIHED IMPRP ELECT VDW BOUNDARY MISC KINETIC TOTAL TEMP POTENTIAL TOTALAVG TEMPAVG PRESSURE GPRESSURE VOLUME PRESSAVG GPRESSAVG
ENERGY: 0 5.7992 2.8488 4.8676 0.0000 -10675.6281 1449.5580 0.0000 0.0000 1773.9934 -7438.5611 301.8475 -9212.5545 -7438.5611 301.8475 -178.4069 -96.8504 30482.6682 -178.4069 -96.8504
ENERGY: 300000 2.7381 6.2485 6.9918 0.0000 -10566.5700 1336.2312 0.0000 0.0000 1760.1041 -7454.2564 299.4842 -9214.3605 -7489.2089 300.1064 -536.3803 -433.5491 30106.3559 -139.1760 -74.8708
ENERGY: 600000 2.1437 5.2695 7.4428 0.0000 -10608.6163 1366.3397 0.0000 0.0000 1670.0949 -7557.3256 284.1691 -9227.4205 -7494.3651 298.9106 -440.1900 -350.9576 29945.2034 -101.3273 -25.5162
ENERGY: 900000 2.1601 6.3615 5.1768 0.0000 -10589.9532 1306.9349 0.0000 0.0000 1741.7144 -7527.6054 296.3552 -9269.3199 -7474.0550 299.1358 -1395.9196 -1302.6404 30554.0427 -192.5891 -117.0089
ENERGY: 1200000 4.8946 13.1033 9.2730 0.0000 -10836.4878 1479.7855 0.0000 0.0000 1751.7292 -7577.7021 298.0593 -9329.4314 -7480.0662 298.9671 -208.6253 -99.1142 30031.5197 -101.9115 -23.4666
ENERGY: 1500000 3.6288 5.8176 6.5327 0.0000 -10600.9496 1415.5139 0.0000 0.0000 1746.4655 -7422.9912 297.1636 -9169.4566 -7473.7541 298.9316 -83.8804 -103.6045 30338.5955 -127.5234 -62.3296
TCL: Running FEP window  19: Lambda1 0.09999999999999969 Lambda2 0.049999999999999684 [dLambda -0.05 ]
TCL: Setting parameter firsttimestep to 0
TCL: Setting parameter alchLambda to 0.09999999999999969
Info: NONBONDED TABLE R-SQUARED SPACING: 0.0625
Info: NONBONDED TABLE SIZE: 705 POINTS
TCL: Setting parameter alchLambda2 to 0.049999999999999684
Info: NONBONDED TABLE R-SQUARED SPACING: 0.0625
Info: NONBONDED TABLE SIZE: 705 POINTS
TCL: Running for 1500000 steps
ETITLE: TS BOND ANGLE DIHED IMPRP ELECT VDW BOUNDARY MISC KINETIC TOTAL TEMP POTENTIAL TOTALAVG TEMPAVG PRESSURE GPRESSURE VOLUME PRESSAVG GPRESSAVG
ENERGY: 0 3.6288 5.8176 6.5327 0.0000 -10600.9501 1414.6408 0.0000 0.0000 1745.5987 -7424.7315 297.0161 -9170.3302 -7424.7315 297.0161 -186.4037 -109.0998 30338.5955 -186.4037 -109.0998
ENERGY: 300000 2.6109 4.3575 4.5564 0.0000 -10692.3378 1429.9999 0.0000 0.0000 1813.1275 -7437.6856 308.5063 -9250.8132 -7434.7329 303.2460 -157.0649 -140.8557 30294.7551 105.3569 151.8481
ENERGY: 600000 4.0763 9.5232 8.6092 0.0000 -10682.0976 1423.8662 0.0000 0.0000 1784.5305 -7451.4923 303.6404 -9236.0229 -7447.0553 302.7180 -396.7688 -357.3284 30696.8709 175.5685 217.3748
ENERGY: 900000 2.0266 4.7986 4.8601 0.0000 -10721.1135 1419.5782 0.0000 0.0000 1814.3568 -7475.4932 308.7154 -9289.8499 -7445.4817 303.2562 -94.3462 -27.5687 29673.4245 -157.4703 -112.2113
ENERGY: 1200000 2.3794 7.5340 7.7662 0.0000 -10590.4962 1404.6165 0.0000 0.0000 1794.6691 -7373.5310 305.3655 -9168.2001 -7439.9912 303.2148 49.8852 193.1521 29897.4458 -236.9011 -174.7295
ENERGY: 1500000 2.4811 5.8281 4.2710 0.0000 -10817.6956 1489.7898 0.0000 0.0000 1734.4935 -7580.8321 295.1266 -9315.3256 -7454.9011 302.6930 104.9382 159.1821 30195.1757 -165.0848 -97.7286
TCL: Running FEP window  20: Lambda1 0.049999999999999684 Lambda2 0.0    [dLambda -0.049999999999999684]
TCL: Setting parameter firsttimestep to 0
TCL: Setting parameter alchLambda to 0.049999999999999684
Info: NONBONDED TABLE R-SQUARED SPACING: 0.0625
Info: NONBONDED TABLE SIZE: 705 POINTS
TCL: Setting parameter alchLambda2 to 0.0
Info: NONBONDED TABLE R-SQUARED SPACING: 0.0625
Info: NONBONDED TABLE SIZE: 705 POINTS
TCL: Running for 1500000 steps
ETITLE: TS BOND ANGLE DIHED IMPRP ELECT VDW BOUNDARY MISC KINETIC TOTAL TEMP POTENTIAL TOTALAVG TEMPAVG PRESSURE GPRESSURE VOLUME PRESSAVG GPRESSAVG
ENERGY: 0 2.4811 5.8281 4.2710 0.0000 -10817.6945 1488.9447 0.0000 0.0000 1733.6576 -7582.5120 294.9843 -9316.1696 -7582.5120 294.9843 71.8509 154.5500 30195.1757 71.8509 154.5500
ENERGY: 300000 2.3371 8.5457 3.8952 0.0000 -10714.5702 1515.7311 0.0000 0.0000 1737.6331 -7446.4280 295.6608 -9184.0611 -7491.6128 296.5018 794.3327 836.9476 30357.5682 409.1518 461.1745
ENERGY: 600000 2.8213 5.5763 4.2523 0.0000 -10633.8833 1432.0382 0.0000 0.0000 1782.0593 -7407.1358 303.2200 -9189.1951 -7486.9454 297.6683 64.0108 86.8082 30530.9015 258.1724 305.0256
ENERGY: 900000 4.5423 5.8880 3.0305 0.0000 -10610.2695 1407.2841 0.0000 0.0000 1780.6470 -7408.8776 302.9797 -9189.5246 -7466.2530 299.2287 -471.9307 -373.8244 30722.6069 87.8127 134.3071
ENERGY: 1200000 3.1526 4.8570 3.0003 0.0000 -10627.5596 1342.9083 0.0000 0.0000 1724.5685 -7549.0729 293.4378 -9273.6414 -7469.3470 299.2430 -1056.1009 -941.6397 30382.0690 -28.6512 23.3040
ENERGY: 1500000 2.4780 7.9063 5.1738 0.0000 -10616.7520 1402.0738 0.0000 0.0000 1785.1511 -7413.9690 303.7460 -9199.1201 -7474.4236 299.5775 -295.5018 -219.7157 30293.7696 -89.9236 -36.7253
TCL: Exiting due to exit command.
