Info: SIMULATION PARAMETERS:
Info: TIMESTEP               2
Info: NUMBER OF STEPS        0
Info: STEPS PER CYCLE        10
Info: PERIODIC CELL BASIS 1  32.3577 0 0
Info: PERIODIC CELL BASIS 2  0 30.2955 0
Info: PERIODIC CELL BASIS 3  0 0 31.5194
Info: PERIODIC CELL CENTER   0 0 0
Info: WRAPPING WATERS AROUND PERIODIC BOUNDARIES ON OUTPUT.
Info: WRAPPING ALL CLUSTERS AROUND PERIODIC BOUNDARIES ON OUTPUT.
Info: FIRST LDB TIMESTEP     50
Info: LAST LDB TIMESTEP     -1
Info: HOM BACKGROUND SCALING 1
Info: PME BACKGROUND SCALING 1
Info: MIN ATOMS PER PATCH    40
Info: EMPTY PATCH LOAD       40 ATOMS
Info: VELOCITY FILE          mobley_3269819_equil.vel
Info: CENTER OF MASS MOVING INITIALLY? NO
Info: DIELECTRIC             1
Info: EXCLUDE                SCALED ONE-FOUR
Info: 1-4 ELECTROSTATICS SCALED BY 0.833333
Info: MODIFIED 1-4 VDW PARAMETERS WILL BE USED
Info: DCD FILENAME           mobley_3269819_prod.dcd
Info: DCD FREQUENCY          100000
Info: DCD FIRST STEP         100000
Info: DCD FILE WILL CONTAIN UNIT CELL DATA
Info: XST FILENAME           mobley_3269819_prod.xst
Info: XST FREQUENCY          100000
Info: NO VELOCITY DCD OUTPUT
Info: NO FORCE DCD OUTPUT
Info: OUTPUT FILENAME        mobley_3269819_prod
Info: BINARY OUTPUT FILES WILL BE USED
Info: RESTART FILENAME       mobley_3269819_prod.restart
Info: RESTART FREQUENCY      100000
Info: BINARY RESTART FILES WILL BE USED
Info: CUTOFF                 9
Info: PAIRLIST DISTANCE      11
Info: PAIRLIST SHRINK RATE   0.01
Info: PAIRLIST GROW RATE     0.01
Info: PAIRLIST TRIGGER       0.3
Info: PAIRLISTS PER CYCLE    2
Info: PAIRLISTS ENABLED
Info: MARGIN                 2
Info: HYDROGEN GROUP CUTOFF  2.5
Info: PATCH DIMENSION        15.5
Info: ENERGY OUTPUT STEPS    100000
Info: ENERGY EVALUATION STEPS    100000
Info: OUTPUT ENERGY PRECISION 4
Info: CROSSTERM ENERGY INCLUDED IN DIHEDRAL
Info: TIMING OUTPUT STEPS    1000000
Info: PRESSURE OUTPUT STEPS  100000
Info: ALCHEMICAL FEP ON
Info: FEP CURRENT LAMBDA VALUE     1
Info: FEP COMPARISON LAMBDA VALUE  0.95
Info: FEP INTRA-ALCHEMICAL NON-BONDED INTERACTIONS WILL BE RETAINED
Info: FEP INTRA-ALCHEMICAL BONDED INTERACTIONS WILL BE RETAINED
Info: FEP VDW SHIFTING COEFFICIENT 5
Info: FEP ELEC. ACTIVE FOR ANNIHILATED PARTICLES BETWEEN LAMBDA = 0 AND LAMBDA = 0.5
Info: FEP ELEC. ACTIVE FOR EXNIHILATED PARTICLES BETWEEN LAMBDA = 0.5 AND LAMBDA = 1
Info: FEP VDW ACTIVE FOR ANNIHILATED PARTICLES BETWEEN LAMBDA = 0 AND LAMBDA = 1
Info: FEP VDW ACTIVE FOR EXNIHILATED PARTICLES BETWEEN LAMBDA = 0 AND LAMBDA = 1
Info: FEP BOND ACTIVE FOR ANNIHILATED PARTICLES BETWEEN LAMBDA = 1 AND LAMBDA = 1
Info: FEP BOND ACTIVE FOR EXNIHILATED PARTICLES BETWEEN LAMBDA = 0 AND LAMBDA = 0
Info: LANGEVIN DYNAMICS ACTIVE
Info: LANGEVIN TEMPERATURE   300
Info: LANGEVIN USING BBK INTEGRATOR
Info: LANGEVIN DAMPING COEFFICIENT IS 1 INVERSE PS
Info: LANGEVIN DYNAMICS APPLIED TO HYDROGENS
Info: LANGEVIN PISTON PRESSURE CONTROL ACTIVE
Info:        TARGET PRESSURE IS 1.01325 BAR
Info:     OSCILLATION PERIOD IS 50 FS
Info:             DECAY TIME IS 25 FS
Info:     PISTON TEMPERATURE IS 300 K
Info:       PRESSURE CONTROL IS GROUP-BASED
Info:    INITIAL STRAIN RATE IS -7.05856e-06 -7.05856e-06 -7.05856e-06
Info:       CELL FLUCTUATION IS ISOTROPIC
Info: PARTICLE MESH EWALD (PME) ACTIVE
Info: PME TOLERANCE               1e-06
Info: PME EWALD COEFFICIENT       0.348832
Info: PME INTERPOLATION ORDER     4
Info: PME GRID DIMENSIONS         36 32 32
Info: PME MAXIMUM GRID SPACING    1
Info: PME CALCULATION WILL BE PERFORMED ON GPU
Info: FULL ELECTROSTATIC EVALUATION FREQUENCY      2
Info: USING VERLET I (r-RESPA) MTS SCHEME.
Info: C1 SPLITTING OF LONG RANGE ELECTROSTATICS
Info: PLACING ATOMS IN PATCHES BY HYDROGEN GROUPS
Info: RIGID BONDS TO HYDROGEN : ALL
Info:         ERROR TOLERANCE : 1e-08
Info:          MAX ITERATIONS : 100
Info: RIGID WATER USING SETTLE ALGORITHM
Info: RANDOM NUMBER SEED     1743803521
Info: USE HYDROGEN BONDS?    NO
Info: Using AMBER format force field!
Info: AMBER PARM FILE        mobley_3269819.prmtop
Info: COORDINATE PDB         mobley_3269819.pdb
Info: Exclusions will be read from PARM file!
Info: SCNB (VDW SCALING)     2
Info: USING ARITHMETIC MEAN TO COMBINE L-J SIGMA PARAMETERS
Info: BINARY COORDINATES     mobley_3269819_equil.coor
Info: SUMMARY OF PARAMETERS:
Info: 7 BONDS
Info: 8 ANGLES
Info:   8 HARMONIC
Info:   0 COSINE-BASED
Info: 3 DIHEDRAL
Info: 0 IMPROPER
Info: 0 CROSSTERM
Info: 0 VDW
Info: 15 VDW_PAIRS
Info: 0 NBTHOLE_PAIRS
Info: To read alchdata from file: mobley_3269819.pdb
Info: To read alchflag data from column: 5
Info: STRUCTURE SUMMARY:
Info: 2932 ATOMS
Info: 2933 BONDS
Info: 36 ANGLES
Info: 64 DIHEDRALS
Info: 0 IMPROPERS
Info: 0 CROSSTERMS
Info: 3015 EXCLUSIONS
Info: 2913 RIGID BONDS
Info: ALCH: 0 ATOMS TO DISAPPEAR IN FINAL STATE
Info: ALCH: 22 ATOMS TO APPEAR IN FINAL STATE
Info: 5883 DEGREES OF FREEDOM
Info: 989 HYDROGEN GROUPS
Info: 3 ATOMS IN LARGEST HYDROGEN GROUP
Info: 989 MIGRATION GROUPS
Info: 3 ATOMS IN LARGEST MIGRATION GROUP
Info: TOTAL MASS = 17870.8 amu
Info: TOTAL CHARGE = 0.000400005 e
Info: MASS DENSITY = 0.96044 g/cm^3
Info: ATOM DENSITY = 0.0948923 atoms/A^3
Info: ADDED 0 IMPLICIT EXCLUSIONS
Info: NONBONDED TABLE R-SQUARED SPACING: 0.0625
Info: NONBONDED TABLE SIZE: 705 POINTS
Info: REMOVING COM VELOCITY 0.183116 -0.104435 -0.0407796
Info: Use 3D box decompostion in PME FFT.
Info: Updated CUDA force table with 4096 elements.
Info: Updated CUDA LJ table with 5 x 5 elements.
Info: Found 21 unique exclusion lists needing 60 bytes
TCL: Running for 1500000 steps
ETITLE: TS BOND ANGLE DIHED IMPRP ELECT VDW BOUNDARY MISC KINETIC TOTAL TEMP POTENTIAL TOTALAVG TEMPAVG PRESSURE GPRESSURE VOLUME PRESSAVG GPRESSAVG
ENERGY: 0 8.6713 5.6288 12.6887 0.0000 -10436.7381 1363.9526 0.0000 0.0000 1782.1547 -7263.6420 304.8856 -9045.7967 -7263.6420 304.8856 -538.6560 -464.6637 30898.1971 -538.6560 -464.6637
ENERGY: 300000 3.9889 6.1811 11.8260 0.0000 -10584.6031 1401.2537 0.0000 0.0000 1705.2281 -7456.1253 291.7252 -9161.3534 -7364.0335 299.4891 -198.8269 -146.8076 30613.2929 -145.3123 -71.9916
ENERGY: 600000 7.0599 2.3021 8.8297 0.0000 -10736.0359 1448.5847 0.0000 0.0000 1775.2103 -7494.0492 303.6976 -9269.2595 -7391.6023 299.2912 217.4493 230.0846 30266.6935 -159.4888 -92.1201
ENERGY: 900000 7.8787 4.0860 10.3325 0.0000 -10588.2578 1339.8315 0.0000 0.0000 1760.4340 -7465.6952 301.1697 -9226.1292 -7392.8621 300.2553 -809.3467 -715.9103 30128.2577 -171.3454 -112.1952
ENERGY: 1200000 4.8892 3.8249 10.0378 0.0000 -10622.1368 1458.1000 0.0000 0.0000 1811.8800 -7333.4048 309.9709 -9145.2848 -7397.0895 301.1005 327.4906 332.0260 30506.8741 -90.3647 -35.9901
ENERGY: 1500000 7.4687 5.0287 13.1548 0.0000 -10485.3559 1305.2035 0.0000 0.0000 1800.8137 -7353.6867 308.0777 -9154.5003 -7398.2234 300.5594 -762.7964 -686.6731 30296.4420 -128.6613 -67.0211
TCL: Running FEP window   2: Lambda1 0.95   Lambda2 0.8999999999999999 [dLambda -0.050000000000000044]
TCL: Setting parameter firsttimestep to 0
TCL: Setting parameter alchLambda to 0.95
Info: NONBONDED TABLE R-SQUARED SPACING: 0.0625
Info: NONBONDED TABLE SIZE: 705 POINTS
TCL: Setting parameter alchLambda2 to 0.8999999999999999
Info: NONBONDED TABLE R-SQUARED SPACING: 0.0625
Info: NONBONDED TABLE SIZE: 705 POINTS
TCL: Running for 1500000 steps
ETITLE: TS BOND ANGLE DIHED IMPRP ELECT VDW BOUNDARY MISC KINETIC TOTAL TEMP POTENTIAL TOTALAVG TEMPAVG PRESSURE GPRESSURE VOLUME PRESSAVG GPRESSAVG
ENERGY: 0 7.4687 5.0287 13.1548 0.0000 -10485.1615 1306.3488 0.0000 0.0000 1799.9526 -7353.2081 307.9304 -9153.1606 -7353.2081 307.9304 -778.9473 -697.2107 30296.4420 -778.9473 -697.2107
ENERGY: 300000 2.9612 6.8726 15.5132 0.0000 -10583.1619 1386.7303 0.0000 0.0000 1756.8024 -7414.2823 300.5484 -9171.0847 -7423.2781 299.0643 -492.7587 -407.2153 30642.9011 -111.1144 -53.3099
ENERGY: 600000 4.6361 10.2246 12.3725 0.0000 -10576.4819 1434.7636 0.0000 0.0000 1772.2677 -7342.2174 303.1942 -9114.4851 -7403.3030 298.9996 240.6987 291.8655 30494.0306 -118.5366 -63.0359
ENERGY: 900000 5.6465 6.2262 9.5958 0.0000 -10589.3493 1361.0639 0.0000 0.0000 1684.4949 -7522.3220 288.1783 -9206.8169 -7398.5131 299.8200 -399.8266 -334.1396 29965.3149 -79.5060 -24.4133
ENERGY: 1200000 4.8971 6.1115 13.6136 0.0000 -10666.5775 1480.8264 0.0000 0.0000 1740.0783 -7421.0506 297.6873 -9161.1289 -7392.4984 298.9627 613.5317 669.3705 30297.1662 -6.2182 54.2062
ENERGY: 1500000 5.1789 3.7721 9.3199 0.0000 -10671.2787 1518.2101 0.0000 0.0000 1750.8421 -7383.9558 299.5287 -9134.7978 -7393.0736 298.9775 1131.6160 1196.7036 30186.3884 31.6224 90.6585
TCL: Running FEP window   3: Lambda1 0.8999999999999999 Lambda2 0.8499999999999999 [dLambda -0.050000000000000044]
TCL: Setting parameter firsttimestep to 0
TCL: Setting parameter alchLambda to 0.8999999999999999
Info: NONBONDED TABLE R-SQUARED SPACING: 0.0625
Info: NONBONDED TABLE SIZE: 705 POINTS
TCL: Setting parameter alchLambda2 to 0.8499999999999999
Info: NONBONDED TABLE R-SQUARED SPACING: 0.0625
Info: NONBONDED TABLE SIZE: 705 POINTS
TCL: Running for 1500000 steps
ETITLE: TS BOND ANGLE DIHED IMPRP ELECT VDW BOUNDARY MISC KINETIC TOTAL TEMP POTENTIAL TOTALAVG TEMPAVG PRESSURE GPRESSURE VOLUME PRESSAVG GPRESSAVG
ENERGY: 0 5.1789 3.7721 9.3199 0.0000 -10671.0907 1518.4402 0.0000 0.0000 1749.9821 -7384.3976 299.3816 -9134.3797 -7384.3976 299.3816 1095.0648 1175.0450 30186.3884 1095.0648 1175.0450
ENERGY: 300000 7.0081 5.6896 8.7481 0.0000 -10811.4807 1539.0380 0.0000 0.0000 1755.3059 -7495.6909 300.2924 -9250.9967 -7412.2344 299.4018 863.8164 909.5045 30300.9132 362.6668 418.7006
ENERGY: 600000 5.0737 6.1891 11.5179 0.0000 -10748.6529 1470.3241 0.0000 0.0000 1777.9604 -7477.5875 304.1681 -9255.5480 -7420.9256 299.9241 236.1966 276.3780 29854.9600 235.0876 291.6748
ENERGY: 900000 6.6640 5.3469 12.9325 0.0000 -10462.6768 1351.7971 0.0000 0.0000 1771.3366 -7314.5998 303.0349 -9085.9364 -7402.3667 301.0304 -467.0854 -425.8049 30774.9744 81.1518 139.3852
ENERGY: 1200000 5.0390 3.8657 15.4522 0.0000 -10673.5294 1467.9197 0.0000 0.0000 1700.9838 -7480.2690 290.9992 -9181.2529 -7399.6076 300.9382 181.5593 197.7997 30271.5464 16.7935 66.7026
ENERGY: 1500000 13.4179 3.7892 11.8042 0.0000 -10656.2066 1425.7576 0.0000 0.0000 1789.8773 -7411.5605 306.2068 -9201.4378 -7396.0520 301.0621 63.8551 67.9732 29977.9942 20.5301 67.7685
TCL: Running FEP window   4: Lambda1 0.8499999999999999 Lambda2 0.7999999999999998 [dLambda -0.050000000000000044]
TCL: Setting parameter firsttimestep to 0
TCL: Setting parameter alchLambda to 0.8499999999999999
Info: NONBONDED TABLE R-SQUARED SPACING: 0.0625
Info: NONBONDED TABLE SIZE: 705 POINTS
TCL: Setting parameter alchLambda2 to 0.7999999999999998
Info: NONBONDED TABLE R-SQUARED SPACING: 0.0625
Info: NONBONDED TABLE SIZE: 705 POINTS
TCL: Running for 1500000 steps
ETITLE: TS BOND ANGLE DIHED IMPRP ELECT VDW BOUNDARY MISC KINETIC TOTAL TEMP POTENTIAL TOTALAVG TEMPAVG PRESSURE GPRESSURE VOLUME PRESSAVG GPRESSAVG
ENERGY: 0 13.4180 3.7892 11.8042 0.0000 -10656.0594 1425.8492 0.0000 0.0000 1789.0066 -7412.1922 306.0578 -9201.1989 -7412.1922 306.0578 -24.5991 46.4735 29977.9942 -24.5991 46.4735
ENERGY: 300000 10.1507 6.8125 8.1328 0.0000 -10467.5196 1341.8991 0.0000 0.0000 1752.3690 -7348.1554 299.7900 -9100.5244 -7417.0948 301.3337 -626.1426 -545.1019 30449.9782 -195.5972 -148.4627
ENERGY: 600000 6.9727 5.5749 11.2085 0.0000 -10576.7395 1439.4209 0.0000 0.0000 1704.8170 -7408.7456 291.6549 -9113.5625 -7431.8357 297.0624 440.0475 479.2394 29930.1403 45.3184 108.4562
ENERGY: 900000 6.2768 4.4693 9.1976 0.0000 -10639.5680 1434.6440 0.0000 0.0000 1768.4643 -7416.5158 302.5435 -9184.9802 -7437.0619 297.7407 178.1967 277.3465 30183.7959 65.6830 125.5858
ENERGY: 1200000 8.5183 5.3612 11.7652 0.0000 -10656.2754 1463.2037 0.0000 0.0000 1762.6631 -7404.7639 301.5511 -9167.4270 -7431.3918 298.0856 33.5882 141.2034 30384.2395 102.2278 163.0191
ENERGY: 1500000 3.5251 6.1722 11.5277 0.0000 -10554.9223 1451.6348 0.0000 0.0000 1805.3749 -7276.6875 308.8581 -9082.0624 -7408.9238 300.0685 589.0977 647.9680 30209.3917 132.1859 192.8070
TCL: Running FEP window   5: Lambda1 0.7999999999999998 Lambda2 0.7499999999999998 [dLambda -0.050000000000000044]
TCL: Setting parameter firsttimestep to 0
TCL: Setting parameter alchLambda to 0.7999999999999998
Info: NONBONDED TABLE R-SQUARED SPACING: 0.0625
Info: NONBONDED TABLE SIZE: 705 POINTS
TCL: Setting parameter alchLambda2 to 0.7499999999999998
Info: NONBONDED TABLE R-SQUARED SPACING: 0.0625
Info: NONBONDED TABLE SIZE: 705 POINTS
TCL: Running for 1500000 steps
ETITLE: TS BOND ANGLE DIHED IMPRP ELECT VDW BOUNDARY MISC KINETIC TOTAL TEMP POTENTIAL TOTALAVG TEMPAVG PRESSURE GPRESSURE VOLUME PRESSAVG GPRESSAVG
ENERGY: 0 3.5251 6.1722 11.5277 0.0000 -10554.7863 1452.3608 0.0000 0.0000 1804.4964 -7276.7040 308.7078 -9081.2005 -7276.7040 308.7078 566.1572 639.3949 30209.3917 566.1572 639.3949
ENERGY: 300000 9.5101 5.1927 9.6799 0.0000 -10607.6007 1470.5983 0.0000 0.0000 1760.9665 -7351.6532 301.2608 -9112.6197 -7393.7905 299.1939 443.3814 565.4573 30385.5721 206.6458 281.0081
ENERGY: 600000 7.4233 3.4770 8.7642 0.0000 -10564.0463 1388.4351 0.0000 0.0000 1781.4949 -7374.4517 304.7727 -9155.9466 -7391.9276 299.6640 -139.1604 -30.7651 30236.0040 74.2506 148.9678
ENERGY: 900000 8.7179 2.2268 11.5287 0.0000 -10559.0620 1393.1198 0.0000 0.0000 1717.7429 -7425.7259 293.8662 -9143.4688 -7387.0753 299.7715 -324.2269 -269.3673 30328.8296 109.9124 185.2785
ENERGY: 1200000 5.8465 4.5254 8.4960 0.0000 -10600.0312 1411.2148 0.0000 0.0000 1756.3635 -7413.5850 300.4733 -9169.9485 -7388.7185 300.3239 -182.7723 -51.8153 30254.8107 116.5148 185.1958
ENERGY: 1500000 3.1246 4.3588 9.7168 0.0000 -10557.9369 1408.1745 0.0000 0.0000 1786.2568 -7346.3053 305.5874 -9132.5621 -7380.6231 300.8727 166.6830 239.5898 30283.7982 99.0459 169.3183
TCL: Running FEP window   6: Lambda1 0.7499999999999998 Lambda2 0.6999999999999997 [dLambda -0.050000000000000044]
TCL: Setting parameter firsttimestep to 0
TCL: Setting parameter alchLambda to 0.7499999999999998
Info: NONBONDED TABLE R-SQUARED SPACING: 0.0625
Info: NONBONDED TABLE SIZE: 705 POINTS
TCL: Setting parameter alchLambda2 to 0.6999999999999997
Info: NONBONDED TABLE R-SQUARED SPACING: 0.0625
Info: NONBONDED TABLE SIZE: 705 POINTS
TCL: Running for 1500000 steps
ETITLE: TS BOND ANGLE DIHED IMPRP ELECT VDW BOUNDARY MISC KINETIC TOTAL TEMP POTENTIAL TOTALAVG TEMPAVG PRESSURE GPRESSURE VOLUME PRESSAVG GPRESSAVG
ENERGY: 0 3.1246 4.3588 9.7168 0.0000 -10557.7870 1409.4694 0.0000 0.0000 1785.4069 -7345.7105 305.4420 -9131.1174 -7345.7105 305.4420 161.9313 236.2565 30283.7982 161.9313 236.2565
ENERGY: 300000 4.1682 3.3739 11.0524 0.0000 -10684.7735 1484.6740 0.0000 0.0000 1767.4306 -7414.0744 302.3667 -9181.5050 -7374.3396 302.5939 544.9692 598.2162 30030.9358 54.4891 84.5661
ENERGY: 600000 5.9196 5.6076 10.3690 0.0000 -10577.5594 1425.3414 0.0000 0.0000 1764.7422 -7365.5795 301.9067 -9130.3217 -7366.9533 301.3048 105.0850 222.5692 30321.3868 52.3631 106.0421
ENERGY: 900000 6.7911 4.4323 11.7040 0.0000 -10733.3130 1555.6850 0.0000 0.0000 1761.4958 -7393.2048 301.3514 -9154.7006 -7378.1148 301.1847 973.0103 1044.1641 30030.1202 146.6055 208.2612
ENERGY: 1200000 5.6558 6.5371 11.9239 0.0000 -10556.3044 1479.2738 0.0000 0.0000 1750.1841 -7302.7298 299.4162 -9052.9139 -7363.1425 301.5725 785.0077 849.2486 30316.7855 257.7113 325.7865
ENERGY: 1500000 4.1598 6.2553 10.6496 0.0000 -10689.2348 1441.6423 0.0000 0.0000 1806.1403 -7420.3876 308.9890 -9226.5278 -7373.6609 301.4484 -131.2620 -88.4340 30173.6872 185.1792 249.2931
TCL: Running FEP window   7: Lambda1 0.6999999999999997 Lambda2 0.6499999999999997 [dLambda -0.050000000000000044]
TCL: Setting parameter firsttimestep to 0
TCL: Setting parameter alchLambda to 0.6999999999999997
Info: NONBONDED TABLE R-SQUARED SPACING: 0.0625
Info: NONBONDED TABLE SIZE: 705 POINTS
TCL: Setting parameter alchLambda2 to 0.6499999999999997
Info: NONBONDED TABLE R-SQUARED SPACING: 0.0625
Info: NONBONDED TABLE SIZE: 705 POINTS
TCL: Running for 1500000 steps
ETITLE: TS BOND ANGLE DIHED IMPRP ELECT VDW BOUNDARY MISC KINETIC TOTAL TEMP POTENTIAL TOTALAVG TEMPAVG PRESSURE GPRESSURE VOLUME PRESSAVG GPRESSAVG
ENERGY: 0 4.1598 6.2553 10.6496 0.0000 -10688.9257 1442.0004 0.0000 0.0000 1805.2898 -7420.5708 308.8435 -9225.8606 -7420.5708 308.8435 -192.4830 -102.5317 30173.6872 -192.4830 -102.5317
ENERGY: 300000 5.2794 5.9847 10.0694 0.0000 -10579.4446 1399.5042 0.0000 0.0000 1745.4144 -7413.1926 298.6002 -9158.6069 -7406.7427 302.2442 -404.7731 -368.2967 30788.8214 -156.3885 -102.8373
ENERGY: 600000 7.2406 3.5037 8.5519 0.0000 -10539.0851 1354.7088 0.0000 0.0000 1820.1719 -7344.9082 311.3895 -9165.0801 -7396.2237 302.0355 -390.7796 -350.8522 30147.0961 -60.3239 -1.8390
ENERGY: 900000 12.2533 5.2126 11.9337 0.0000 -10576.0931 1408.7052 0.0000 0.0000 1779.8617 -7358.1266 304.4933 -9137.9883 -7408.9382 300.8625 -80.1690 -53.5266 30508.8188 -40.9049 20.8256
ENERGY: 1200000 7.8228 6.5616 9.7070 0.0000 -10611.4498 1373.7420 0.0000 0.0000 1741.4136 -7472.2029 297.9158 -9213.6165 -7404.2824 300.8100 -423.2345 -339.3571 30319.9338 -90.9291 -30.8377
ENERGY: 1500000 8.6286 4.7268 10.0711 0.0000 -10644.1464 1508.7830 0.0000 0.0000 1777.0801 -7334.8568 304.0175 -9111.9369 -7400.4201 300.7353 696.0027 812.2348 30460.7262 -34.1293 23.5864
TCL: Running FEP window   8: Lambda1 0.6499999999999997 Lambda2 0.5999999999999996 [dLambda -0.050000000000000044]
TCL: Setting parameter firsttimestep to 0
TCL: Setting parameter alchLambda to 0.6499999999999997
Info: NONBONDED TABLE R-SQUARED SPACING: 0.0625
Info: NONBONDED TABLE SIZE: 705 POINTS
TCL: Setting parameter alchLambda2 to 0.5999999999999996
Info: NONBONDED TABLE R-SQUARED SPACING: 0.0625
Info: NONBONDED TABLE SIZE: 705 POINTS
TCL: Running for 1500000 steps
ETITLE: TS BOND ANGLE DIHED IMPRP ELECT VDW BOUNDARY MISC KINETIC TOTAL TEMP POTENTIAL TOTALAVG TEMPAVG PRESSURE GPRESSURE VOLUME PRESSAVG GPRESSAVG
ENERGY: 0 8.6286 4.7268 10.0711 0.0000 -10643.6195 1509.2330 0.0000 0.0000 1776.2074 -7334.7526 303.8682 -9110.9600 -7334.7526 303.8682 709.2340 798.4507 30460.7262 709.2340 798.4507
ENERGY: 300000 4.7265 5.0053 12.4001 0.0000 -10538.4884 1415.6176 0.0000 0.0000 1824.2380 -7276.5009 312.0851 -9100.7389 -7339.0112 307.6208 130.6480 186.3721 30418.0587 380.8906 448.5196
ENERGY: 600000 3.9938 2.3475 12.2782 0.0000 -10694.7366 1494.5247 0.0000 0.0000 1809.2508 -7372.3416 309.5211 -9181.5924 -7351.9362 305.9378 874.1374 863.3807 29909.6477 303.7821 358.9924
ENERGY: 900000 2.4324 3.8086 11.0733 0.0000 -10634.4937 1443.9051 0.0000 0.0000 1762.5942 -7410.6801 301.5393 -9173.2743 -7370.1047 304.0432 433.0579 488.3167 29788.0629 173.5073 231.5983
ENERGY: 1200000 8.5964 4.7350 10.9944 0.0000 -10569.1754 1433.8860 0.0000 0.0000 1726.2691 -7384.6944 295.3249 -9110.9635 -7374.5051 302.4605 -435.4083 -347.5259 30731.4442 92.8172 149.4205
ENERGY: 1500000 4.7142 4.2560 12.9744 0.0000 -10681.9749 1483.7436 0.0000 0.0000 1793.2747 -7383.0118 306.7880 -9176.2865 -7379.2556 302.4051 134.2238 145.6733 30504.4734 104.1120 161.5863
TCL: Running FEP window   9: Lambda1 0.5999999999999996 Lambda2 0.5499999999999996 [dLambda -0.050000000000000044]
TCL: Setting parameter firsttimestep to 0
TCL: Setting parameter alchLambda to 0.5999999999999996
Info: NONBONDED TABLE R-SQUARED SPACING: 0.0625
Info: NONBONDED TABLE SIZE: 705 POINTS
TCL: Setting parameter alchLambda2 to 0.5499999999999996
Info: NONBONDED TABLE R-SQUARED SPACING: 0.0625
Info: NONBONDED TABLE SIZE: 705 POINTS
TCL: Running for 1500000 steps
ETITLE: TS BOND ANGLE DIHED IMPRP ELECT VDW BOUNDARY MISC KINETIC TOTAL TEMP POTENTIAL TOTALAVG TEMPAVG PRESSURE GPRESSURE VOLUME PRESSAVG GPRESSAVG
ENERGY: 0 4.7142 4.2560 12.9744 0.0000 -10681.8836 1483.9168 0.0000 0.0000 1792.4204 -7383.6017 306.6418 -9176.0220 -7383.6017 306.6418 61.5868 131.7582 30504.4734 61.5868 131.7582
ENERGY: 300000 5.0771 3.2545 9.7311 0.0000 -10604.1073 1456.9810 0.0000 0.0000 1802.6848 -7326.3788 308.3978 -9129.0636 -7349.2734 306.9808 352.6747 392.5982 30535.7466 -78.9554 -17.6202
ENERGY: 600000 6.0318 7.7079 13.9215 0.0000 -10587.2939 1466.7928 0.0000 0.0000 1744.2748 -7348.5650 298.4052 -9092.8398 -7356.1348 303.7678 499.8428 556.9259 30088.3745 -37.5213 20.0778
ENERGY: 900000 7.1269 5.0894 10.8446 0.0000 -10676.1908 1472.1747 0.0000 0.0000 1784.7451 -7396.2101 305.3288 -9180.9552 -7378.6480 303.2588 105.7505 163.1240 30446.4842 -43.1034 23.5193
ENERGY: 1200000 4.7922 9.1085 8.2273 0.0000 -10649.9889 1458.7306 0.0000 0.0000 1771.6545 -7397.4758 303.0893 -9169.1303 -7382.1075 302.2146 207.1842 272.4510 30119.7197 -3.1094 61.5298
ENERGY: 1500000 10.5642 4.3388 10.8396 0.0000 -10590.9704 1348.9367 0.0000 0.0000 1759.4607 -7456.8303 301.0032 -9216.2910 -7381.8125 302.1534 -1013.2938 -979.3091 30127.7090 -68.3933 -5.5284
TCL: Running FEP window  10: Lambda1 0.5499999999999996 Lambda2 0.4999999999999996 [dLambda -0.04999999999999999]
TCL: Setting parameter firsttimestep to 0
TCL: Setting parameter alchLambda to 0.5499999999999996
Info: NONBONDED TABLE R-SQUARED SPACING: 0.0625
Info: NONBONDED TABLE SIZE: 705 POINTS
TCL: Setting parameter alchLambda2 to 0.4999999999999996
Info: NONBONDED TABLE R-SQUARED SPACING: 0.0625
Info: NONBONDED TABLE SIZE: 705 POINTS
TCL: Running for 1500000 steps
ETITLE: TS BOND ANGLE DIHED IMPRP ELECT VDW BOUNDARY MISC KINETIC TOTAL TEMP POTENTIAL TOTALAVG TEMPAVG PRESSURE GPRESSURE VOLUME PRESSAVG GPRESSAVG
ENERGY: 0 10.5642 4.3388 10.8396 0.0000 -10590.7680 1349.7243 0.0000 0.0000 1758.5687 -7456.7323 300.8506 -9215.3010 -7456.7323 300.8506 -1072.4944 -983.8942 30127.7090 -1072.4944 -983.8942
ENERGY: 300000 6.0968 6.1327 15.3135 0.0000 -10649.6033 1500.9099 0.0000 0.0000 1831.6327 -7289.5177 313.3502 -9121.1504 -7380.4191 302.2409 504.0797 549.9995 30761.2617 -199.1956 -129.3979
ENERGY: 600000 6.7470 2.5857 9.2102 0.0000 -10734.3476 1479.6894 0.0000 0.0000 1761.2108 -7474.9044 301.3026 -9236.1152 -7386.5204 301.2882 552.6055 640.6382 29825.9231 77.3589 154.4717
ENERGY: 900000 4.6211 7.6767 10.3278 0.0000 -10465.0621 1413.9974 0.0000 0.0000 1715.5534 -7312.8857 293.4917 -9028.4391 -7381.7153 299.4657 107.1492 127.8104 30894.8641 -62.1417 3.2179
ENERGY: 1200000 7.7612 7.9491 9.9034 0.0000 -10655.9679 1497.9402 0.0000 0.0000 1739.9154 -7392.4985 297.6594 -9132.4139 -7386.1722 298.6757 729.8436 834.8721 29997.9407 62.7630 132.0402
ENERGY: 1500000 6.3616 7.2496 11.8876 0.0000 -10582.2003 1450.7529 0.0000 0.0000 1733.7788 -7372.1696 296.6096 -9105.9485 -7388.7719 298.9432 -46.6816 54.2100 30696.7205 36.3401 101.7292
TCL: Running FEP window  11: Lambda1 0.4999999999999996 Lambda2 0.4499999999999996 [dLambda -0.04999999999999999]
TCL: Setting parameter firsttimestep to 0
TCL: Setting parameter alchLambda to 0.4999999999999996
Info: NONBONDED TABLE R-SQUARED SPACING: 0.0625
Info: NONBONDED TABLE SIZE: 705 POINTS
TCL: Setting parameter alchLambda2 to 0.4499999999999996
Info: NONBONDED TABLE R-SQUARED SPACING: 0.0625
Info: NONBONDED TABLE SIZE: 705 POINTS
TCL: Running for 1500000 steps
ETITLE: TS BOND ANGLE DIHED IMPRP ELECT VDW BOUNDARY MISC KINETIC TOTAL TEMP POTENTIAL TOTALAVG TEMPAVG PRESSURE GPRESSURE VOLUME PRESSAVG GPRESSAVG
ENERGY: 0 6.3616 7.2496 11.8876 0.0000 -10582.1846 1450.9095 0.0000 0.0000 1732.8881 -7372.8881 296.4572 -9105.7762 -7372.8881 296.4572 -50.9326 43.1252 30696.7205 -50.9326 43.1252
ENERGY: 300000 4.5950 3.8934 9.8122 0.0000 -10454.9948 1365.8332 0.0000 0.0000 1762.0468 -7308.8142 301.4456 -9070.8610 -7346.6246 298.8998 -27.1616 6.5505 30025.2485 172.1595 234.9367
ENERGY: 600000 7.2773 5.8835 10.9501 0.0000 -10463.1541 1407.2780 0.0000 0.0000 1784.6603 -7247.1049 305.3143 -9031.7652 -7360.9933 298.8057 146.6552 178.1165 30381.8154 42.7943 100.9585
ENERGY: 900000 3.6981 3.3662 14.8674 0.0000 -10605.0733 1428.7869 0.0000 0.0000 1756.5022 -7397.8524 300.4971 -9154.3547 -7377.3819 298.4677 -168.3614 -85.2639 30443.2071 -42.8639 22.3360
ENERGY: 1200000 10.9614 4.3514 8.9430 0.0000 -10527.9417 1413.1699 0.0000 0.0000 1803.3474 -7287.1687 308.5112 -9090.5160 -7367.1954 299.4680 137.4793 207.6453 30197.6027 -74.3477 -11.7900
ENERGY: 1500000 7.7148 5.4846 10.6555 0.0000 -10686.3075 1497.3691 0.0000 0.0000 1694.5056 -7470.5778 289.8909 -9165.0834 -7373.2402 299.3837 240.1890 342.5195 30071.6117 -69.9824 -15.4882
TCL: Running FEP window  12: Lambda1 0.4499999999999996 Lambda2 0.39999999999999963 [dLambda -0.04999999999999999]
TCL: Setting parameter firsttimestep to 0
TCL: Setting parameter alchLambda to 0.4499999999999996
Info: NONBONDED TABLE R-SQUARED SPACING: 0.0625
Info: NONBONDED TABLE SIZE: 705 POINTS
TCL: Setting parameter alchLambda2 to 0.39999999999999963
Info: NONBONDED TABLE R-SQUARED SPACING: 0.0625
Info: NONBONDED TABLE SIZE: 705 POINTS
TCL: Running for 1500000 steps
ETITLE: TS BOND ANGLE DIHED IMPRP ELECT VDW BOUNDARY MISC KINETIC TOTAL TEMP POTENTIAL TOTALAVG TEMPAVG PRESSURE GPRESSURE VOLUME PRESSAVG GPRESSAVG
ENERGY: 0 7.7148 5.4846 10.6555 0.0000 -10686.3070 1498.6690 0.0000 0.0000 1693.6462 -7470.1368 289.7438 -9163.7830 -7470.1368 289.7438 264.3369 344.2454 30071.6117 264.3369 344.2454
ENERGY: 300000 5.6778 6.7968 10.2645 0.0000 -10849.2956 1638.8297 0.0000 0.0000 1723.8709 -7463.8560 294.9146 -9187.7269 -7439.5438 295.1490 1900.7996 1918.5611 29534.0026 259.1019 278.1276
ENERGY: 600000 8.2815 3.7133 8.5825 0.0000 -10590.2308 1461.7044 0.0000 0.0000 1683.7589 -7424.1902 288.0524 -9107.9491 -7428.0111 294.9816 -8.5667 21.5786 30356.2146 243.9170 268.6297
ENERGY: 900000 6.9082 5.5482 8.0388 0.0000 -10595.0689 1365.0203 0.0000 0.0000 1801.2311 -7408.3223 308.1492 -9209.5535 -7423.3402 296.6957 -880.7113 -812.1540 30332.8205 75.6409 118.0883
ENERGY: 1200000 6.3006 5.1579 13.3453 0.0000 -10458.5844 1394.6276 0.0000 0.0000 1773.7052 -7265.4478 303.4401 -9039.1530 -7404.5083 297.6129 311.9237 325.7195 29875.9914 -38.2494 5.9297
ENERGY: 1500000 6.0219 5.4474 12.1221 0.0000 -10448.2996 1331.9916 0.0000 0.0000 1769.8148 -7322.9019 302.7745 -9092.7167 -7391.9579 298.0851 -637.5773 -606.7849 30331.5706 -67.4554 -22.1420
TCL: Running FEP window  13: Lambda1 0.39999999999999963 Lambda2 0.34999999999999964 [dLambda -0.04999999999999999]
TCL: Setting parameter firsttimestep to 0
TCL: Setting parameter alchLambda to 0.39999999999999963
Info: NONBONDED TABLE R-SQUARED SPACING: 0.0625
Info: NONBONDED TABLE SIZE: 705 POINTS
TCL: Setting parameter alchLambda2 to 0.34999999999999964
Info: NONBONDED TABLE R-SQUARED SPACING: 0.0625
Info: NONBONDED TABLE SIZE: 705 POINTS
TCL: Running for 1500000 steps
ETITLE: TS BOND ANGLE DIHED IMPRP ELECT VDW BOUNDARY MISC KINETIC TOTAL TEMP POTENTIAL TOTALAVG TEMPAVG PRESSURE GPRESSURE VOLUME PRESSAVG GPRESSAVG
ENERGY: 0 6.0219 5.4474 12.1221 0.0000 -10448.2998 1332.4829 0.0000 0.0000 1768.9502 -7323.2753 302.6266 -9092.2255 -7323.2753 302.6266 -698.8496 -615.0104 30331.5706 -698.8496 -615.0104
ENERGY: 300000 5.9259 8.4071 12.0230 0.0000 -10516.8772 1385.2271 0.0000 0.0000 1738.2587 -7367.0353 297.3760 -9105.2940 -7349.1507 300.0044 -205.9364 -172.5153 30488.1648 -453.7754 -396.3361
ENERGY: 600000 5.2908 4.4992 12.3377 0.0000 -10531.9728 1398.6424 0.0000 0.0000 1725.6381 -7385.5646 295.2169 -9111.2027 -7364.9947 300.1092 145.9336 93.3846 30040.3984 -213.2133 -166.4736
ENERGY: 900000 8.6194 5.6274 8.7863 0.0000 -10580.7739 1415.1862 0.0000 0.0000 1788.7346 -7353.8201 306.0113 -9142.5547 -7369.8920 301.0747 -318.2746 -241.3900 30209.9570 -162.2658 -121.4930
ENERGY: 1200000 9.1566 7.6604 8.2470 0.0000 -10404.1649 1320.7979 0.0000 0.0000 1754.4483 -7303.8546 300.1457 -9058.3030 -7362.0996 300.5117 -698.3334 -642.0625 30246.7890 -233.9167 -190.8838
ENERGY: 1500000 6.1778 5.6018 10.4461 0.0000 -10587.7272 1385.9555 0.0000 0.0000 1730.3986 -7449.1475 296.0313 -9179.5460 -7376.3362 299.7167 -500.1911 -461.8912 29934.6931 -164.3605 -117.6385
TCL: Running FEP window  14: Lambda1 0.34999999999999964 Lambda2 0.29999999999999966 [dLambda -0.04999999999999999]
TCL: Setting parameter firsttimestep to 0
TCL: Setting parameter alchLambda to 0.34999999999999964
Info: NONBONDED TABLE R-SQUARED SPACING: 0.0625
Info: NONBONDED TABLE SIZE: 705 POINTS
TCL: Setting parameter alchLambda2 to 0.29999999999999966
Info: NONBONDED TABLE R-SQUARED SPACING: 0.0625
Info: NONBONDED TABLE SIZE: 705 POINTS
TCL: Running for 1500000 steps
ETITLE: TS BOND ANGLE DIHED IMPRP ELECT VDW BOUNDARY MISC KINETIC TOTAL TEMP POTENTIAL TOTALAVG TEMPAVG PRESSURE GPRESSURE VOLUME PRESSAVG GPRESSAVG
ENERGY: 0 6.1778 5.6018 10.4461 0.0000 -10587.7260 1386.2797 0.0000 0.0000 1729.5417 -7449.6789 295.8847 -9179.2206 -7449.6789 295.8847 -557.3466 -472.8829 29934.6931 -557.3466 -472.8829
ENERGY: 300000 5.3859 3.9013 9.0004 0.0000 -10682.1553 1465.9907 0.0000 0.0000 1784.1074 -7413.7696 305.2197 -9197.8770 -7384.9023 304.3419 278.1566 356.5681 30153.4358 73.3944 146.6583
ENERGY: 600000 7.5102 5.7632 12.8382 0.0000 -10804.6713 1563.0333 0.0000 0.0000 1747.6677 -7467.8588 298.9857 -9215.5265 -7392.0365 301.2463 981.7621 1049.6427 29887.9554 81.7096 152.0011
ENERGY: 900000 4.7245 6.1682 12.2536 0.0000 -10464.0997 1376.1697 0.0000 0.0000 1785.0705 -7279.7131 305.3844 -9064.7836 -7368.1835 302.0942 -340.8872 -260.6695 30679.9927 -49.9608 24.3271
ENERGY: 1200000 8.3320 3.8237 8.3910 0.0000 -10612.9120 1460.3686 0.0000 0.0000 1755.7075 -7376.2892 300.3611 -9131.9966 -7373.9772 301.2229 -123.5942 -67.9756 30416.1771 -33.9515 40.2757
ENERGY: 1500000 6.4502 3.3355 7.9396 0.0000 -10567.4975 1419.7441 0.0000 0.0000 1720.3223 -7409.7057 294.3075 -9130.0281 -7373.8814 301.2913 -0.4334 58.5555 30388.7018 -30.3882 42.2980
TCL: Running FEP window  15: Lambda1 0.29999999999999966 Lambda2 0.24999999999999967 [dLambda -0.04999999999999999]
TCL: Setting parameter firsttimestep to 0
TCL: Setting parameter alchLambda to 0.29999999999999966
Info: NONBONDED TABLE R-SQUARED SPACING: 0.0625
Info: NONBONDED TABLE SIZE: 705 POINTS
TCL: Setting parameter alchLambda2 to 0.24999999999999967
Info: NONBONDED TABLE R-SQUARED SPACING: 0.0625
Info: NONBONDED TABLE SIZE: 705 POINTS
TCL: Running for 1500000 steps
ETITLE: TS BOND ANGLE DIHED IMPRP ELECT VDW BOUNDARY MISC KINETIC TOTAL TEMP POTENTIAL TOTALAVG TEMPAVG PRESSURE GPRESSURE VOLUME PRESSAVG GPRESSAVG
ENERGY: 0 6.4502 3.3355 7.9396 0.0000 -10567.4970 1420.4033 0.0000 0.0000 1719.4679 -7409.9005 294.1613 -9129.3684 -7409.9005 294.1613 -32.0115 55.1443 30388.7018 -32.0115 55.1443
ENERGY: 300000 5.3581 6.2945 6.9663 0.0000 -10690.5642 1531.3809 0.0000 0.0000 1789.7933 -7350.7711 306.1924 -9140.5644 -7334.2843 300.1765 868.6752 892.8651 30159.1934 -64.3979 20.7613
ENERGY: 600000 2.4516 6.6210 10.1049 0.0000 -10562.8244 1402.1262 0.0000 0.0000 1803.6085 -7337.9123 308.5559 -9141.5208 -7355.4811 301.6605 -81.0010 26.1028 30107.0093 17.6000 100.3976
ENERGY: 900000 5.7377 5.0080 14.1698 0.0000 -10679.9288 1511.5815 0.0000 0.0000 1781.3336 -7362.0982 304.7451 -9143.4318 -7367.4354 300.5098 533.6758 596.1729 29967.9150 156.5025 230.7703
ENERGY: 1200000 7.3963 4.9668 9.8245 0.0000 -10662.2769 1458.6642 0.0000 0.0000 1746.3790 -7435.0460 298.7652 -9181.4250 -7373.1249 300.0444 273.5452 301.5956 29953.6262 214.8695 288.1361
ENERGY: 1500000 11.4571 6.3154 13.0386 0.0000 -10589.2094 1475.2163 0.0000 0.0000 1764.5590 -7318.6230 301.8754 -9083.1820 -7372.7354 300.0397 -110.1615 -49.3056 30713.3624 187.2595 257.5260
TCL: Running FEP window  16: Lambda1 0.24999999999999967 Lambda2 0.19999999999999968 [dLambda -0.04999999999999999]
TCL: Setting parameter firsttimestep to 0
TCL: Setting parameter alchLambda to 0.24999999999999967
Info: NONBONDED TABLE R-SQUARED SPACING: 0.0625
Info: NONBONDED TABLE SIZE: 705 POINTS
TCL: Setting parameter alchLambda2 to 0.19999999999999968
Info: NONBONDED TABLE R-SQUARED SPACING: 0.0625
Info: NONBONDED TABLE SIZE: 705 POINTS
TCL: Running for 1500000 steps
ETITLE: TS BOND ANGLE DIHED IMPRP ELECT VDW BOUNDARY MISC KINETIC TOTAL TEMP POTENTIAL TOTALAVG TEMPAVG PRESSURE GPRESSURE VOLUME PRESSAVG GPRESSAVG
ENERGY: 0 11.4571 6.3154 13.0386 0.0000 -10589.2094 1475.4804 0.0000 0.0000 1763.7424 -7319.1756 301.7357 -9082.9179 -7319.1756 301.7357 -137.6405 -56.4732 30713.3624 -137.6405 -56.4732
ENERGY: 300000 7.9903 4.0986 9.3256 0.0000 -10602.5806 1458.3349 0.0000 0.0000 1759.4389 -7363.3924 300.9995 -9122.8313 -7355.6597 298.1951 115.1131 112.5086 30059.9868 -201.7720 -168.4148
ENERGY: 600000 5.3050 4.9317 9.9265 0.0000 -10680.6895 1511.2600 0.0000 0.0000 1744.8564 -7404.4099 298.5047 -9149.2663 -7363.5939 299.3485 536.1402 624.4376 29981.3028 -197.2858 -138.9564
ENERGY: 900000 4.8058 5.7377 8.8113 0.0000 -10460.7433 1346.0880 0.0000 0.0000 1746.1952 -7349.1052 298.7338 -9095.3005 -7377.9115 299.2740 -1030.0031 -885.8780 30708.6111 -258.0880 -176.8185
ENERGY: 1200000 3.3382 4.9858 10.1928 0.0000 -10613.5336 1428.7989 0.0000 0.0000 1825.6560 -7340.5619 312.3277 -9166.2179 -7373.7562 300.8732 5.2180 24.9228 30176.4825 -118.9408 -40.1881
ENERGY: 1500000 7.4890 7.6216 7.7110 0.0000 -10653.4626 1468.5857 0.0000 0.0000 1747.2065 -7414.8488 298.9068 -9162.0553 -7371.9304 301.9743 413.5912 463.0725 30096.9446 -29.5594 42.0632
TCL: Running FEP window  17: Lambda1 0.19999999999999968 Lambda2 0.1499999999999997 [dLambda -0.04999999999999999]
TCL: Setting parameter firsttimestep to 0
TCL: Setting parameter alchLambda to 0.19999999999999968
Info: NONBONDED TABLE R-SQUARED SPACING: 0.0625
Info: NONBONDED TABLE SIZE: 705 POINTS
TCL: Setting parameter alchLambda2 to 0.1499999999999997
Info: NONBONDED TABLE R-SQUARED SPACING: 0.0625
Info: NONBONDED TABLE SIZE: 705 POINTS
TCL: Running for 1500000 steps
ETITLE: TS BOND ANGLE DIHED IMPRP ELECT VDW BOUNDARY MISC KINETIC TOTAL TEMP POTENTIAL TOTALAVG TEMPAVG PRESSURE GPRESSURE VOLUME PRESSAVG GPRESSAVG
ENERGY: 0 7.4890 7.6216 7.7110 0.0000 -10653.4624 1469.2258 0.0000 0.0000 1746.3319 -7415.0831 298.7572 -9161.4150 -7415.0831 298.7572 370.3513 462.0310 30096.9446 370.3513 462.0310
ENERGY: 300000 4.8589 6.5506 11.9061 0.0000 -10633.9832 1483.2778 0.0000 0.0000 1723.7269 -7403.6630 294.8900 -9127.3899 -7419.3084 297.8424 40.5997 36.3421 30792.2638 5.4609 36.2952
ENERGY: 600000 4.6933 6.8411 10.1412 0.0000 -10625.0094 1456.6368 0.0000 0.0000 1729.5507 -7417.1464 295.8863 -9146.6971 -7422.1674 295.9498 32.1187 61.4351 30209.3349 136.8544 174.2599
ENERGY: 900000 5.3964 5.2337 13.2001 0.0000 -10643.0929 1447.3660 0.0000 0.0000 1757.3502 -7414.5464 300.6421 -9171.8966 -7413.2308 297.3430 -410.5427 -342.6411 30527.4026 -93.5398 -58.4198
ENERGY: 1200000 6.1357 3.6931 11.2507 0.0000 -10626.0969 1481.6750 0.0000 0.0000 1794.3612 -7328.9812 306.9739 -9123.3424 -7400.6337 298.4900 469.0370 500.9162 30162.9324 -77.2006 -43.3275
ENERGY: 1500000 4.1060 3.5545 13.4358 0.0000 -10443.2633 1300.5520 0.0000 0.0000 1702.3746 -7419.2403 291.2371 -9121.6149 -7390.8753 297.8981 -1137.8662 -1052.7575 30432.5799 -92.3011 -55.2309
TCL: Running FEP window  18: Lambda1 0.1499999999999997 Lambda2 0.09999999999999969 [dLambda -0.05 ]
TCL: Setting parameter firsttimestep to 0
TCL: Setting parameter alchLambda to 0.1499999999999997
Info: NONBONDED TABLE R-SQUARED SPACING: 0.0625
Info: NONBONDED TABLE SIZE: 705 POINTS
TCL: Setting parameter alchLambda2 to 0.09999999999999969
Info: NONBONDED TABLE R-SQUARED SPACING: 0.0625
Info: NONBONDED TABLE SIZE: 705 POINTS
TCL: Running for 1500000 steps
ETITLE: TS BOND ANGLE DIHED IMPRP ELECT VDW BOUNDARY MISC KINETIC TOTAL TEMP POTENTIAL TOTALAVG TEMPAVG PRESSURE GPRESSURE VOLUME PRESSAVG GPRESSAVG
ENERGY: 0 4.1060 3.5545 13.4359 0.0000 -10443.2628 1300.1610 0.0000 0.0000 1701.4926 -7420.5127 291.0862 -9122.0053 -7420.5127 291.0862 -1148.5451 -1061.8159 30432.5799 -1148.5451 -1061.8159
ENERGY: 300000 5.8639 4.3835 10.5449 0.0000 -10524.1715 1436.1656 0.0000 0.0000 1742.3301 -7324.8834 298.0725 -9067.2135 -7374.5916 295.7204 125.9959 207.8940 29867.8449 -13.4374 28.8313
ENERGY: 600000 4.3295 5.0878 9.2466 0.0000 -10761.1582 1517.8163 0.0000 0.0000 1797.7404 -7426.9375 307.5520 -9224.6779 -7398.3330 296.2444 608.8087 672.2070 29504.4539 -52.5948 0.9855
ENERGY: 900000 8.6406 3.8776 9.8441 0.0000 -10631.2202 1451.3474 0.0000 0.0000 1741.2712 -7416.2391 297.8914 -9157.5103 -7403.8767 296.9130 -197.5887 -95.4787 30348.1989 -122.1500 -51.0625
ENERGY: 1200000 7.7100 5.2517 12.4619 0.0000 -10419.1381 1327.3981 0.0000 0.0000 1707.6291 -7358.6873 292.1360 -9066.3164 -7396.8468 295.9626 -842.2636 -697.8698 29946.9350 -188.8527 -114.0298
ENERGY: 1500000 9.7222 5.6499 8.0642 0.0000 -10639.2332 1493.9925 0.0000 0.0000 1788.5112 -7333.2931 305.9731 -9121.8043 -7395.5672 297.3115 127.5008 167.9246 30636.3615 -171.4801 -101.6667
TCL: Running FEP window  19: Lambda1 0.09999999999999969 Lambda2 0.049999999999999684 [dLambda -0.05 ]
TCL: Setting parameter firsttimestep to 0
TCL: Setting parameter alchLambda to 0.09999999999999969
Info: NONBONDED TABLE R-SQUARED SPACING: 0.0625
Info: NONBONDED TABLE SIZE: 705 POINTS
TCL: Setting parameter alchLambda2 to 0.049999999999999684
Info: NONBONDED TABLE R-SQUARED SPACING: 0.0625
Info: NONBONDED TABLE SIZE: 705 POINTS
TCL: Running for 1500000 steps
ETITLE: TS BOND ANGLE DIHED IMPRP ELECT VDW BOUNDARY MISC KINETIC TOTAL TEMP POTENTIAL TOTALAVG TEMPAVG PRESSURE GPRESSURE VOLUME PRESSAVG GPRESSAVG
ENERGY: 0 9.7222 5.6499 8.0642 0.0000 -10639.2333 1494.1477 0.0000 0.0000 1787.6867 -7333.9625 305.8320 -9121.6492 -7333.9625 305.8320 80.4235 164.5442 30636.3615 80.4235 164.5442
ENERGY: 300000 3.4679 5.8987 14.4680 0.0000 -10497.6320 1363.4746 0.0000 0.0000 1695.7848 -7414.5380 290.1097 -9110.3228 -7385.7222 297.5690 -377.6521 -360.2360 30233.2893 -162.4339 -88.5289
ENERGY: 600000 4.2278 4.0446 13.2328 0.0000 -10570.1715 1440.6771 0.0000 0.0000 1707.1104 -7400.8788 292.0473 -9107.9892 -7394.6315 296.7739 -73.8165 26.0799 29910.1131 77.1378 144.3754
ENERGY: 900000 9.1241 5.7584 11.5973 0.0000 -10506.9621 1423.5647 0.0000 0.0000 1760.9162 -7296.0014 301.2522 -9056.9177 -7393.0976 297.9407 -284.4085 -207.3659 30700.5510 144.9809 211.3270
ENERGY: 1200000 8.3815 6.6190 12.1297 0.0000 -10582.9895 1429.9285 0.0000 0.0000 1699.1947 -7426.7360 290.6931 -9125.9307 -7395.1590 297.5915 -111.1450 -73.9260 30222.9135 137.8575 202.1881
ENERGY: 1500000 4.8960 5.9281 8.5439 0.0000 -10561.1884 1404.1516 0.0000 0.0000 1722.9647 -7414.7041 294.7596 -9137.6688 -7394.3086 297.7323 -283.4052 -197.2149 29917.2515 94.9726 161.7716
TCL: Running FEP window  20: Lambda1 0.049999999999999684 Lambda2 0.0    [dLambda -0.049999999999999684]
TCL: Setting parameter firsttimestep to 0
TCL: Setting parameter alchLambda to 0.049999999999999684
Info: NONBONDED TABLE R-SQUARED SPACING: 0.0625
Info: NONBONDED TABLE SIZE: 705 POINTS
TCL: Setting parameter alchLambda2 to 0.0
Info: NONBONDED TABLE R-SQUARED SPACING: 0.0625
Info: NONBONDED TABLE SIZE: 705 POINTS
TCL: Running for 1500000 steps
ETITLE: TS BOND ANGLE DIHED IMPRP ELECT VDW BOUNDARY MISC KINETIC TOTAL TEMP POTENTIAL TOTALAVG TEMPAVG PRESSURE GPRESSURE VOLUME PRESSAVG GPRESSAVG
ENERGY: 0 4.8960 5.9281 8.5439 0.0000 -10561.1888 1403.5589 0.0000 0.0000 1722.0892 -7416.1728 294.6098 -9138.2620 -7416.1728 294.6098 -288.5163 -206.8107 29917.2515 -288.5163 -206.8107
ENERGY: 300000 3.5266 3.6564 8.6790 0.0000 -10600.1239 1495.7980 0.0000 0.0000 1754.0864 -7334.3775 300.0838 -9088.4639 -7379.1482 297.2428 765.2158 848.6870 29983.2858 -106.7822 -52.5901
ENERGY: 600000 4.6501 5.5678 9.9593 0.0000 -10546.6770 1403.7647 0.0000 0.0000 1810.6942 -7312.0408 309.7681 -9122.7350 -7364.3355 301.3208 -415.6551 -341.5439 30405.8043 -83.8585 -17.6146
ENERGY: 900000 6.0770 5.2197 12.1888 0.0000 -10498.8257 1384.4563 0.0000 0.0000 1764.6394 -7326.2445 301.8891 -9090.8839 -7357.9050 301.7986 -377.1150 -313.4134 30150.2599 -180.6359 -118.6973
ENERGY: 1200000 7.2162 6.9217 10.6060 0.0000 -10560.7522 1455.4061 0.0000 0.0000 1772.2020 -7308.4003 303.1829 -9080.6023 -7356.1693 301.9937 164.1880 291.4101 29830.2605 -170.4627 -102.3732
ENERGY: 1500000 5.2971 2.8321 13.2349 0.0000 -10552.4367 1413.3870 0.0000 0.0000 1706.5113 -7411.1744 291.9448 -9117.6857 -7362.6226 300.9549 -299.1700 -242.7907 30105.0061 -112.5719 -48.6741
TCL: Exiting due to exit command.
