Info: SIMULATION PARAMETERS:
Info: TIMESTEP               2
Info: NUMBER OF STEPS        0
Info: STEPS PER CYCLE        10
Info: PERIODIC CELL BASIS 1  30.011 0 0
Info: PERIODIC CELL BASIS 2  0 31.2583 0
Info: PERIODIC CELL BASIS 3  0 0 31.9539
Info: PERIODIC CELL CENTER   0 0 0
Info: WRAPPING WATERS AROUND PERIODIC BOUNDARIES ON OUTPUT.
Info: WRAPPING ALL CLUSTERS AROUND PERIODIC BOUNDARIES ON OUTPUT.
Info: FIRST LDB TIMESTEP     50
Info: LAST LDB TIMESTEP     -1
Info: HOM BACKGROUND SCALING 1
Info: PME BACKGROUND SCALING 1
Info: MIN ATOMS PER PATCH    40
Info: EMPTY PATCH LOAD       40 ATOMS
Info: VELOCITY FILE          mobley_7455579_equil.vel
Info: CENTER OF MASS MOVING INITIALLY? NO
Info: DIELECTRIC             1
Info: EXCLUDE                SCALED ONE-FOUR
Info: 1-4 ELECTROSTATICS SCALED BY 0.833333
Info: MODIFIED 1-4 VDW PARAMETERS WILL BE USED
Info: DCD FILENAME           mobley_7455579_prod.dcd
Info: DCD FREQUENCY          100000
Info: DCD FIRST STEP         100000
Info: DCD FILE WILL CONTAIN UNIT CELL DATA
Info: XST FILENAME           mobley_7455579_prod.xst
Info: XST FREQUENCY          100000
Info: NO VELOCITY DCD OUTPUT
Info: NO FORCE DCD OUTPUT
Info: OUTPUT FILENAME        mobley_7455579_prod
Info: BINARY OUTPUT FILES WILL BE USED
Info: RESTART FILENAME       mobley_7455579_prod.restart
Info: RESTART FREQUENCY      100000
Info: BINARY RESTART FILES WILL BE USED
Info: CUTOFF                 9
Info: PAIRLIST DISTANCE      11
Info: PAIRLIST SHRINK RATE   0.01
Info: PAIRLIST GROW RATE     0.01
Info: PAIRLIST TRIGGER       0.3
Info: PAIRLISTS PER CYCLE    2
Info: PAIRLISTS ENABLED
Info: MARGIN                 2
Info: HYDROGEN GROUP CUTOFF  2.5
Info: PATCH DIMENSION        15.5
Info: ENERGY OUTPUT STEPS    100000
Info: ENERGY EVALUATION STEPS    100000
Info: OUTPUT ENERGY PRECISION 4
Info: CROSSTERM ENERGY INCLUDED IN DIHEDRAL
Info: TIMING OUTPUT STEPS    1000000
Info: PRESSURE OUTPUT STEPS  100000
Info: ALCHEMICAL FEP ON
Info: FEP CURRENT LAMBDA VALUE     1
Info: FEP COMPARISON LAMBDA VALUE  0.95
Info: FEP INTRA-ALCHEMICAL NON-BONDED INTERACTIONS WILL BE RETAINED
Info: FEP INTRA-ALCHEMICAL BONDED INTERACTIONS WILL BE RETAINED
Info: FEP VDW SHIFTING COEFFICIENT 5
Info: FEP ELEC. ACTIVE FOR ANNIHILATED PARTICLES BETWEEN LAMBDA = 0 AND LAMBDA = 0.5
Info: FEP ELEC. ACTIVE FOR EXNIHILATED PARTICLES BETWEEN LAMBDA = 0.5 AND LAMBDA = 1
Info: FEP VDW ACTIVE FOR ANNIHILATED PARTICLES BETWEEN LAMBDA = 0 AND LAMBDA = 1
Info: FEP VDW ACTIVE FOR EXNIHILATED PARTICLES BETWEEN LAMBDA = 0 AND LAMBDA = 1
Info: FEP BOND ACTIVE FOR ANNIHILATED PARTICLES BETWEEN LAMBDA = 1 AND LAMBDA = 1
Info: FEP BOND ACTIVE FOR EXNIHILATED PARTICLES BETWEEN LAMBDA = 0 AND LAMBDA = 0
Info: LANGEVIN DYNAMICS ACTIVE
Info: LANGEVIN TEMPERATURE   300
Info: LANGEVIN USING BBK INTEGRATOR
Info: LANGEVIN DAMPING COEFFICIENT IS 1 INVERSE PS
Info: LANGEVIN DYNAMICS APPLIED TO HYDROGENS
Info: LANGEVIN PISTON PRESSURE CONTROL ACTIVE
Info:        TARGET PRESSURE IS 1.01325 BAR
Info:     OSCILLATION PERIOD IS 50 FS
Info:             DECAY TIME IS 25 FS
Info:     PISTON TEMPERATURE IS 300 K
Info:       PRESSURE CONTROL IS GROUP-BASED
Info:    INITIAL STRAIN RATE IS 0.000191496 0.000191496 0.000191496
Info:       CELL FLUCTUATION IS ISOTROPIC
Info: PARTICLE MESH EWALD (PME) ACTIVE
Info: PME TOLERANCE               1e-06
Info: PME EWALD COEFFICIENT       0.348832
Info: PME INTERPOLATION ORDER     4
Info: PME GRID DIMENSIONS         32 32 32
Info: PME MAXIMUM GRID SPACING    1
Info: PME CALCULATION WILL BE PERFORMED ON GPU
Info: FULL ELECTROSTATIC EVALUATION FREQUENCY      2
Info: USING VERLET I (r-RESPA) MTS SCHEME.
Info: C1 SPLITTING OF LONG RANGE ELECTROSTATICS
Info: PLACING ATOMS IN PATCHES BY HYDROGEN GROUPS
Info: RIGID BONDS TO HYDROGEN : ALL
Info:         ERROR TOLERANCE : 1e-08
Info:          MAX ITERATIONS : 100
Info: RIGID WATER USING SETTLE ALGORITHM
Info: RANDOM NUMBER SEED     1743913302
Info: USE HYDROGEN BONDS?    NO
Info: Using AMBER format force field!
Info: AMBER PARM FILE        mobley_7455579.prmtop
Info: COORDINATE PDB         mobley_7455579.pdb
Info: Exclusions will be read from PARM file!
Info: SCNB (VDW SCALING)     2
Info: USING ARITHMETIC MEAN TO COMBINE L-J SIGMA PARAMETERS
Info: BINARY COORDINATES     mobley_7455579_equil.coor
Info: SUMMARY OF PARAMETERS:
Info: 9 BONDS
Info: 11 ANGLES
Info:   11 HARMONIC
Info:   0 COSINE-BASED
Info: 11 DIHEDRAL
Info: 0 IMPROPER
Info: 0 CROSSTERM
Info: 0 VDW
Info: 45 VDW_PAIRS
Info: 0 NBTHOLE_PAIRS
Info: To read alchdata from file: mobley_7455579.pdb
Info: To read alchflag data from column: 5
Info: STRUCTURE SUMMARY:
Info: 2939 ATOMS
Info: 2938 BONDS
Info: 28 ANGLES
Info: 36 DIHEDRALS
Info: 0 IMPROPERS
Info: 0 CROSSTERMS
Info: 2998 EXCLUSIONS
Info: 2932 RIGID BONDS
Info: ALCH: 0 ATOMS TO DISAPPEAR IN FINAL STATE
Info: ALCH: 17 ATOMS TO APPEAR IN FINAL STATE
Info: 5885 DEGREES OF FREEDOM
Info: 981 HYDROGEN GROUPS
Info: 4 ATOMS IN LARGEST HYDROGEN GROUP
Info: 981 MIGRATION GROUPS
Info: 4 ATOMS IN LARGEST MIGRATION GROUP
Info: TOTAL MASS = 17649.7 amu
Info: TOTAL CHARGE = 0.000199918 e
Info: MASS DENSITY = 0.977745 g/cm^3
Info: ATOM DENSITY = 0.0980456 atoms/A^3
Info: ADDED 0 IMPLICIT EXCLUSIONS
Info: NONBONDED TABLE R-SQUARED SPACING: 0.0625
Info: NONBONDED TABLE SIZE: 705 POINTS
Info: REMOVING COM VELOCITY 0.0564789 0.27162 0.108798
Info: Use 3D box decompostion in PME FFT.
Info: Updated CUDA force table with 4096 elements.
Info: Updated CUDA LJ table with 9 x 9 elements.
Info: Found 20 unique exclusion lists needing 52 bytes
TCL: Running for 1500000 steps
ETITLE: TS BOND ANGLE DIHED IMPRP ELECT VDW BOUNDARY MISC KINETIC TOTAL TEMP POTENTIAL TOTALAVG TEMPAVG PRESSURE GPRESSURE VOLUME PRESSAVG GPRESSAVG
ENERGY: 0 1.4886 6.0582 3.4498 0.0000 -10786.4500 1483.6404 0.0000 0.0000 1754.2405 -7537.5725 300.0082 -9291.8131 -7537.5725 300.0082 313.0487 407.7145 29975.8488 313.0487 407.7145
ENERGY: 300000 3.9404 7.1608 4.3617 0.0000 -10654.6152 1406.9586 0.0000 0.0000 1749.8048 -7482.3889 299.2496 -9232.1937 -7530.4242 298.8269 -43.4629 -77.9404 29887.2433 -79.5517 -46.3225
ENERGY: 600000 1.2755 3.9699 2.6577 0.0000 -10630.6993 1411.7775 0.0000 0.0000 1782.3319 -7428.6868 304.8123 -9211.0187 -7492.7514 298.1304 -72.2171 -36.6958 30277.7811 29.7370 53.3692
ENERGY: 900000 4.7434 7.8005 3.1075 0.0000 -10641.6296 1433.7688 0.0000 0.0000 1767.6849 -7424.5244 302.3074 -9192.2093 -7481.9420 298.1082 99.2835 148.6522 30142.1605 7.8490 49.6763
ENERGY: 1200000 4.8583 7.9637 1.9548 0.0000 -10661.1850 1443.3507 0.0000 0.0000 1745.5672 -7457.4903 298.5248 -9203.0575 -7484.8347 297.6256 64.4451 139.0726 30174.5048 -26.4900 22.9366
ENERGY: 1500000 3.2334 7.2543 1.7799 0.0000 -10576.9642 1393.1063 0.0000 0.0000 1741.7197 -7429.8706 297.8669 -9171.5903 -7469.3508 298.0490 -225.1034 -138.1500 30222.1947 -8.2704 43.6244
TCL: Running FEP window   2: Lambda1 0.95   Lambda2 0.8999999999999999 [dLambda -0.050000000000000044]
TCL: Setting parameter firsttimestep to 0
TCL: Setting parameter alchLambda to 0.95
Info: NONBONDED TABLE R-SQUARED SPACING: 0.0625
Info: NONBONDED TABLE SIZE: 705 POINTS
TCL: Setting parameter alchLambda2 to 0.8999999999999999
Info: NONBONDED TABLE R-SQUARED SPACING: 0.0625
Info: NONBONDED TABLE SIZE: 705 POINTS
TCL: Running for 1500000 steps
ETITLE: TS BOND ANGLE DIHED IMPRP ELECT VDW BOUNDARY MISC KINETIC TOTAL TEMP POTENTIAL TOTALAVG TEMPAVG PRESSURE GPRESSURE VOLUME PRESSAVG GPRESSAVG
ENERGY: 0 3.2334 7.2543 1.7799 0.0000 -10575.3591 1392.7594 0.0000 0.0000 1740.8300 -7429.5020 297.7147 -9170.3320 -7429.5020 297.7147 -238.5342 -150.8069 30222.1947 -238.5342 -150.8069
ENERGY: 300000 2.2525 8.8734 4.6271 0.0000 -10752.4297 1464.7457 0.0000 0.0000 1735.1450 -7536.7860 296.7425 -9271.9310 -7494.2522 299.2657 259.4807 271.9531 29656.1010 69.5396 134.5931
ENERGY: 600000 0.2696 10.5229 2.7334 0.0000 -10658.0987 1397.0250 0.0000 0.0000 1790.9476 -7456.6003 306.2857 -9247.5478 -7480.9056 298.4175 -189.9500 -146.2714 30057.2474 56.6060 116.3661
ENERGY: 900000 1.7905 6.5998 3.3307 0.0000 -10714.0011 1448.5203 0.0000 0.0000 1713.1927 -7540.5671 292.9882 -9253.7598 -7479.7815 299.1888 218.1260 305.0321 29956.5012 -51.7230 6.5703
ENERGY: 1200000 0.9652 6.6696 5.1003 0.0000 -10454.4158 1239.5421 0.0000 0.0000 1739.6842 -7462.4544 297.5187 -9202.1386 -7472.8288 298.8823 -1294.3797 -1253.9181 30253.3264 -132.6516 -82.2496
ENERGY: 1500000 2.8393 6.2827 3.2614 0.0000 -10663.8193 1415.3238 0.0000 0.0000 1737.6120 -7498.5002 297.1644 -9236.1122 -7460.0369 298.8433 -440.2155 -346.2509 30745.1268 -175.0183 -116.6375
TCL: Running FEP window   3: Lambda1 0.8999999999999999 Lambda2 0.8499999999999999 [dLambda -0.050000000000000044]
TCL: Setting parameter firsttimestep to 0
TCL: Setting parameter alchLambda to 0.8999999999999999
Info: NONBONDED TABLE R-SQUARED SPACING: 0.0625
Info: NONBONDED TABLE SIZE: 705 POINTS
TCL: Setting parameter alchLambda2 to 0.8499999999999999
Info: NONBONDED TABLE R-SQUARED SPACING: 0.0625
Info: NONBONDED TABLE SIZE: 705 POINTS
TCL: Running for 1500000 steps
ETITLE: TS BOND ANGLE DIHED IMPRP ELECT VDW BOUNDARY MISC KINETIC TOTAL TEMP POTENTIAL TOTALAVG TEMPAVG PRESSURE GPRESSURE VOLUME PRESSAVG GPRESSAVG
ENERGY: 0 2.8393 6.2827 3.2614 0.0000 -10662.5716 1415.4334 0.0000 0.0000 1736.7494 -7498.0056 297.0168 -9234.7549 -7498.0056 297.0168 -444.7085 -355.3123 30745.1268 -444.7085 -355.3123
ENERGY: 300000 1.1878 13.0942 3.0351 0.0000 -10563.4831 1411.4125 0.0000 0.0000 1762.9559 -7371.7976 301.4986 -9134.7535 -7448.5073 299.2826 -112.1612 -32.8447 30590.0749 -225.5647 -157.3990
ENERGY: 600000 3.3214 5.7840 2.6394 0.0000 -10754.3910 1460.9751 0.0000 0.0000 1761.0973 -7520.5739 301.1808 -9281.6712 -7439.7941 300.5179 1.7056 86.0389 30030.5430 -213.0687 -144.9345
ENERGY: 900000 3.5814 6.3867 1.9276 0.0000 -10603.5890 1386.6334 0.0000 0.0000 1734.3327 -7470.7273 296.6035 -9205.0599 -7438.0417 300.1853 -575.8724 -462.4139 30436.6503 -130.4989 -58.3634
ENERGY: 1200000 1.9099 5.8558 2.6760 0.0000 -10621.8825 1423.4599 0.0000 0.0000 1757.1950 -7430.7859 300.5134 -9187.9809 -7443.1774 300.1232 28.4760 66.3521 30460.8428 -115.4824 -50.1116
ENERGY: 1500000 0.7250 9.4944 4.2259 0.0000 -10464.4060 1321.8164 0.0000 0.0000 1754.1136 -7374.0306 299.9864 -9128.1442 -7425.2201 301.0353 -520.2369 -471.6025 30308.3633 -167.3036 -100.1290
TCL: Running FEP window   4: Lambda1 0.8499999999999999 Lambda2 0.7999999999999998 [dLambda -0.050000000000000044]
TCL: Setting parameter firsttimestep to 0
TCL: Setting parameter alchLambda to 0.8499999999999999
Info: NONBONDED TABLE R-SQUARED SPACING: 0.0625
Info: NONBONDED TABLE SIZE: 705 POINTS
TCL: Setting parameter alchLambda2 to 0.7999999999999998
Info: NONBONDED TABLE R-SQUARED SPACING: 0.0625
Info: NONBONDED TABLE SIZE: 705 POINTS
TCL: Running for 1500000 steps
ETITLE: TS BOND ANGLE DIHED IMPRP ELECT VDW BOUNDARY MISC KINETIC TOTAL TEMP POTENTIAL TOTALAVG TEMPAVG PRESSURE GPRESSURE VOLUME PRESSAVG GPRESSAVG
ENERGY: 0 0.7250 9.4944 4.2259 0.0000 -10462.8776 1321.7176 0.0000 0.0000 1753.2361 -7373.4786 299.8364 -9126.7147 -7373.4786 299.8364 -553.9462 -482.6604 30308.3633 -553.9462 -482.6604
ENERGY: 300000 1.0310 4.8038 2.9348 0.0000 -10606.8809 1376.8095 0.0000 0.0000 1764.3184 -7456.9834 301.7317 -9221.3018 -7436.0297 301.0762 -564.4623 -479.9598 30251.8766 -164.5448 -85.9807
ENERGY: 600000 1.2816 7.0250 4.0170 0.0000 -10647.2932 1442.2053 0.0000 0.0000 1784.7838 -7407.9804 305.2316 -9192.7643 -7451.3613 300.2473 99.7606 117.9756 30454.9693 -161.2836 -98.7383
ENERGY: 900000 0.9973 7.0942 4.1869 0.0000 -10588.0180 1299.8812 0.0000 0.0000 1789.1276 -7486.7308 305.9745 -9275.8583 -7454.6350 299.6731 -924.4730 -893.2329 29863.2775 -239.9976 -177.5471
ENERGY: 1200000 3.6022 5.6510 4.3373 0.0000 -10694.8594 1466.0423 0.0000 0.0000 1740.8545 -7474.3721 297.7189 -9215.2266 -7455.5620 299.4104 241.7470 291.2174 30414.6803 -239.3071 -180.2839
ENERGY: 1500000 1.2391 7.2094 2.9296 0.0000 -10720.3191 1475.6451 0.0000 0.0000 1739.9015 -7493.3944 297.5559 -9233.2959 -7447.7770 299.7087 358.0030 442.4980 30230.0848 -148.0673 -86.3972
TCL: Running FEP window   5: Lambda1 0.7999999999999998 Lambda2 0.7499999999999998 [dLambda -0.050000000000000044]
TCL: Setting parameter firsttimestep to 0
TCL: Setting parameter alchLambda to 0.7999999999999998
Info: NONBONDED TABLE R-SQUARED SPACING: 0.0625
Info: NONBONDED TABLE SIZE: 705 POINTS
TCL: Setting parameter alchLambda2 to 0.7499999999999998
Info: NONBONDED TABLE R-SQUARED SPACING: 0.0625
Info: NONBONDED TABLE SIZE: 705 POINTS
TCL: Running for 1500000 steps
ETITLE: TS BOND ANGLE DIHED IMPRP ELECT VDW BOUNDARY MISC KINETIC TOTAL TEMP POTENTIAL TOTALAVG TEMPAVG PRESSURE GPRESSURE VOLUME PRESSAVG GPRESSAVG
ENERGY: 0 1.2391 7.2094 2.9296 0.0000 -10719.0486 1475.6534 0.0000 0.0000 1739.0764 -7492.9408 297.4148 -9232.0172 -7492.9408 297.4148 352.8110 432.9293 30230.0848 352.8110 432.9293
ENERGY: 300000 3.9025 6.7403 3.7773 0.0000 -10631.9594 1387.4793 0.0000 0.0000 1774.6266 -7455.4335 303.4946 -9230.0601 -7446.6904 299.0557 -469.2690 -376.9568 30228.4188 -70.1084 -0.5190
ENERGY: 600000 2.3303 5.3536 2.9612 0.0000 -10737.9158 1516.1875 0.0000 0.0000 1760.3573 -7450.7259 301.0542 -9211.0832 -7434.3890 301.8336 671.6216 772.1218 30021.9555 -15.0167 40.4455
ENERGY: 900000 2.3459 12.9669 2.6615 0.0000 -10600.7729 1409.8378 0.0000 0.0000 1753.0289 -7419.9319 299.8009 -9172.9607 -7444.2815 300.7155 -214.4187 -132.2813 30226.6433 -132.1698 -69.0667
ENERGY: 1200000 0.7905 6.5455 2.3703 0.0000 -10503.3151 1346.1816 0.0000 0.0000 1728.1605 -7419.2667 295.5480 -9147.4272 -7428.2644 301.3374 -409.1301 -409.7255 29971.8494 -202.8094 -142.4016
ENERGY: 1500000 0.7182 10.6555 3.2159 0.0000 -10638.1642 1422.7575 0.0000 0.0000 1764.9216 -7435.8956 301.8348 -9200.8172 -7426.7765 301.5709 -8.3784 27.2538 30068.3376 -177.8930 -119.3672
TCL: Running FEP window   6: Lambda1 0.7499999999999998 Lambda2 0.6999999999999997 [dLambda -0.050000000000000044]
TCL: Setting parameter firsttimestep to 0
TCL: Setting parameter alchLambda to 0.7499999999999998
Info: NONBONDED TABLE R-SQUARED SPACING: 0.0625
Info: NONBONDED TABLE SIZE: 705 POINTS
TCL: Setting parameter alchLambda2 to 0.6999999999999997
Info: NONBONDED TABLE R-SQUARED SPACING: 0.0625
Info: NONBONDED TABLE SIZE: 705 POINTS
TCL: Running for 1500000 steps
ETITLE: TS BOND ANGLE DIHED IMPRP ELECT VDW BOUNDARY MISC KINETIC TOTAL TEMP POTENTIAL TOTALAVG TEMPAVG PRESSURE GPRESSURE VOLUME PRESSAVG GPRESSAVG
ENERGY: 0 0.7182 10.6555 3.2159 0.0000 -10637.3502 1422.7770 0.0000 0.0000 1764.0447 -7435.9390 301.6849 -9199.9837 -7435.9390 301.6849 -60.5384 20.4691 30068.3376 -60.5384 20.4691
ENERGY: 300000 1.5073 8.5903 2.5045 0.0000 -10660.9905 1494.0188 0.0000 0.0000 1752.2133 -7402.1564 299.6615 -9154.3697 -7430.4950 301.4833 614.3497 778.8979 30129.4888 379.0018 490.3127
ENERGY: 600000 1.6283 7.2646 3.3493 0.0000 -10572.4396 1433.0480 0.0000 0.0000 1730.1824 -7396.9671 295.8938 -9127.1495 -7412.2594 301.2120 85.7225 254.9458 30376.8723 110.5772 219.7384
ENERGY: 900000 3.9490 9.5801 2.8838 0.0000 -10693.6415 1405.3427 0.0000 0.0000 1821.3323 -7450.5536 311.4821 -9271.8859 -7435.8562 301.5119 -354.0800 -290.0513 30036.5790 9.9406 108.1949
ENERGY: 1200000 2.7095 4.0930 3.4004 0.0000 -10603.6097 1456.0086 0.0000 0.0000 1817.8263 -7319.5718 310.8825 -9137.3981 -7430.2031 301.6016 386.9150 442.2301 30407.5190 43.9447 136.7160
ENERGY: 1500000 1.5773 4.7741 1.4508 0.0000 -10662.6312 1426.9171 0.0000 0.0000 1719.3106 -7508.6012 294.0345 -9227.9119 -7441.7030 300.7130 13.5951 58.2102 29909.1897 -7.0128 77.2308
TCL: Running FEP window   7: Lambda1 0.6999999999999997 Lambda2 0.6499999999999997 [dLambda -0.050000000000000044]
TCL: Setting parameter firsttimestep to 0
TCL: Setting parameter alchLambda to 0.6999999999999997
Info: NONBONDED TABLE R-SQUARED SPACING: 0.0625
Info: NONBONDED TABLE SIZE: 705 POINTS
TCL: Setting parameter alchLambda2 to 0.6499999999999997
Info: NONBONDED TABLE R-SQUARED SPACING: 0.0625
Info: NONBONDED TABLE SIZE: 705 POINTS
TCL: Running for 1500000 steps
ETITLE: TS BOND ANGLE DIHED IMPRP ELECT VDW BOUNDARY MISC KINETIC TOTAL TEMP POTENTIAL TOTALAVG TEMPAVG PRESSURE GPRESSURE VOLUME PRESSAVG GPRESSAVG
ENERGY: 0 1.5773 4.7741 1.4508 0.0000 -10662.4509 1426.6526 0.0000 0.0000 1718.4458 -7509.5502 293.8866 -9227.9960 -7509.5502 293.8866 -49.7763 41.6449 29909.1897 -49.7763 41.6449
ENERGY: 300000 3.2236 4.9297 3.0550 0.0000 -10622.1132 1405.6085 0.0000 0.0000 1816.1475 -7389.1488 310.5954 -9205.2963 -7442.4081 303.2773 -264.7442 -324.9958 30692.6254 -268.6249 -210.7755
ENERGY: 600000 6.2239 7.7543 3.5488 0.0000 -10662.0412 1412.2186 0.0000 0.0000 1780.8861 -7451.4094 304.5650 -9232.2955 -7438.9797 301.0229 -363.7835 -183.0422 30102.4084 -147.1787 -80.1193
ENERGY: 900000 2.0649 10.0986 4.6163 0.0000 -10555.8980 1410.0298 0.0000 0.0000 1742.5992 -7386.4892 298.0173 -9129.0884 -7435.1824 300.9652 -160.2055 -133.8469 30254.7227 -71.0608 -15.1793
ENERGY: 1200000 2.3067 7.2632 2.4655 0.0000 -10499.8079 1330.3571 0.0000 0.0000 1775.1339 -7382.2814 303.5813 -9157.4154 -7420.3833 301.5665 -938.8051 -893.7442 30819.6923 -85.2996 -30.6121
ENERGY: 1500000 1.9247 4.8799 3.2575 0.0000 -10548.2932 1356.3345 0.0000 0.0000 1760.6170 -7421.2796 301.0987 -9181.8966 -7419.0812 301.4768 -432.3913 -304.6939 29896.4624 -96.3072 -33.0816
TCL: Running FEP window   8: Lambda1 0.6499999999999997 Lambda2 0.5999999999999996 [dLambda -0.050000000000000044]
TCL: Setting parameter firsttimestep to 0
TCL: Setting parameter alchLambda to 0.6499999999999997
Info: NONBONDED TABLE R-SQUARED SPACING: 0.0625
Info: NONBONDED TABLE SIZE: 705 POINTS
TCL: Setting parameter alchLambda2 to 0.5999999999999996
Info: NONBONDED TABLE R-SQUARED SPACING: 0.0625
Info: NONBONDED TABLE SIZE: 705 POINTS
TCL: Running for 1500000 steps
ETITLE: TS BOND ANGLE DIHED IMPRP ELECT VDW BOUNDARY MISC KINETIC TOTAL TEMP POTENTIAL TOTALAVG TEMPAVG PRESSURE GPRESSURE VOLUME PRESSAVG GPRESSAVG
ENERGY: 0 1.9247 4.8799 3.2575 0.0000 -10548.0065 1356.6075 0.0000 0.0000 1759.6977 -7421.6393 300.9414 -9181.3370 -7421.6393 300.9414 -406.3565 -309.5502 29896.4624 -406.3565 -309.5502
ENERGY: 300000 0.2737 8.3988 4.6783 0.0000 -10662.2241 1453.0880 0.0000 0.0000 1715.3285 -7480.4569 293.3535 -9195.7854 -7418.0271 300.3291 481.8076 561.3458 29514.8914 24.2956 89.3458
ENERGY: 600000 1.9251 7.5831 5.9167 0.0000 -10650.0543 1451.4801 0.0000 0.0000 1752.7209 -7430.4284 299.7483 -9183.1492 -7424.6824 299.3001 95.2592 143.7067 30459.6415 66.5116 131.1242
ENERGY: 900000 2.2821 8.8898 3.6826 0.0000 -10712.5714 1482.4624 0.0000 0.0000 1774.9860 -7440.2685 303.5560 -9215.2545 -7426.9103 301.1709 98.4911 124.1738 30313.8195 -29.1727 29.4824
ENERGY: 1200000 1.3821 4.9845 4.2134 0.0000 -10464.7651 1326.0297 0.0000 0.0000 1833.7223 -7294.4331 313.6010 -9128.1554 -7424.1116 301.1585 -674.2704 -603.8915 30825.6891 -52.5744 19.5402
ENERGY: 1500000 1.2236 8.8822 2.8300 0.0000 -10540.8559 1363.2784 0.0000 0.0000 1712.8904 -7451.7513 292.9365 -9164.6417 -7422.5345 301.1292 -309.2441 -227.4750 29995.5217 -51.0627 16.9614
TCL: Running FEP window   9: Lambda1 0.5999999999999996 Lambda2 0.5499999999999996 [dLambda -0.050000000000000044]
TCL: Setting parameter firsttimestep to 0
TCL: Setting parameter alchLambda to 0.5999999999999996
Info: NONBONDED TABLE R-SQUARED SPACING: 0.0625
Info: NONBONDED TABLE SIZE: 705 POINTS
TCL: Setting parameter alchLambda2 to 0.5499999999999996
Info: NONBONDED TABLE R-SQUARED SPACING: 0.0625
Info: NONBONDED TABLE SIZE: 705 POINTS
TCL: Running for 1500000 steps
ETITLE: TS BOND ANGLE DIHED IMPRP ELECT VDW BOUNDARY MISC KINETIC TOTAL TEMP POTENTIAL TOTALAVG TEMPAVG PRESSURE GPRESSURE VOLUME PRESSAVG GPRESSAVG
ENERGY: 0 1.2236 8.8822 2.8300 0.0000 -10540.3908 1363.5905 0.0000 0.0000 1712.0113 -7451.8533 292.7862 -9163.8646 -7451.8533 292.7862 -312.7632 -231.1113 29995.5217 -312.7632 -231.1113
ENERGY: 300000 3.7309 9.0317 3.4563 0.0000 -10554.6016 1363.8614 0.0000 0.0000 1746.9461 -7427.5751 298.7607 -9174.5212 -7404.9208 299.1321 -534.2876 -494.5062 30241.0777 -189.1354 -116.0241
ENERGY: 600000 1.6931 9.8170 3.8021 0.0000 -10667.3702 1503.1584 0.0000 0.0000 1698.1268 -7450.7728 290.4117 -9148.8996 -7405.5286 296.9207 498.8211 582.0341 30515.1880 -30.2634 39.3451
ENERGY: 900000 3.1499 6.8671 3.5377 0.0000 -10588.1833 1359.0712 0.0000 0.0000 1773.9421 -7441.6152 303.3775 -9215.5574 -7431.4357 297.2277 -691.9422 -687.3429 30406.7212 -93.7385 -30.5790
ENERGY: 1200000 0.8288 4.9414 5.0574 0.0000 -10528.9640 1383.2464 0.0000 0.0000 1699.3741 -7435.5159 290.6250 -9134.8900 -7435.5512 297.6487 -161.4774 -106.2251 29981.7609 -13.1768 46.4203
ENERGY: 1500000 3.2397 7.8841 2.2255 0.0000 -10812.2674 1531.8009 0.0000 0.0000 1691.0386 -7576.0786 289.1994 -9267.1172 -7447.5424 296.8885 408.1809 463.5381 30176.3914 27.3376 84.7960
TCL: Running FEP window  10: Lambda1 0.5499999999999996 Lambda2 0.4999999999999996 [dLambda -0.04999999999999999]
TCL: Setting parameter firsttimestep to 0
TCL: Setting parameter alchLambda to 0.5499999999999996
Info: NONBONDED TABLE R-SQUARED SPACING: 0.0625
Info: NONBONDED TABLE SIZE: 705 POINTS
TCL: Setting parameter alchLambda2 to 0.4999999999999996
Info: NONBONDED TABLE R-SQUARED SPACING: 0.0625
Info: NONBONDED TABLE SIZE: 705 POINTS
TCL: Running for 1500000 steps
ETITLE: TS BOND ANGLE DIHED IMPRP ELECT VDW BOUNDARY MISC KINETIC TOTAL TEMP POTENTIAL TOTALAVG TEMPAVG PRESSURE GPRESSURE VOLUME PRESSAVG GPRESSAVG
ENERGY: 0 3.2397 7.8841 2.2255 0.0000 -10810.7194 1531.6703 0.0000 0.0000 1690.1707 -7575.5292 289.0510 -9265.6998 -7575.5292 289.0510 384.1523 458.1802 30176.3914 384.1523 458.1802
ENERGY: 300000 2.3038 3.6563 2.8718 0.0000 -10668.2299 1480.3488 0.0000 0.0000 1740.8899 -7438.1593 297.7249 -9179.0492 -7489.9178 294.0570 697.9531 797.0735 29493.2474 162.2475 237.2535
ENERGY: 600000 1.4591 5.8670 4.8546 0.0000 -10690.4547 1409.6148 0.0000 0.0000 1699.3830 -7569.2762 290.6265 -9268.6592 -7491.2050 294.4869 -148.3088 -174.8930 29660.9743 168.0129 222.7376
ENERGY: 900000 2.0224 5.1635 2.8539 0.0000 -10607.0495 1433.0184 0.0000 0.0000 1751.6133 -7412.3781 299.5588 -9163.9914 -7486.1246 295.5440 -174.3124 -120.5340 30432.4890 44.6551 110.8634
ENERGY: 1200000 3.3507 6.5954 2.8296 0.0000 -10586.1852 1375.3914 0.0000 0.0000 1754.6728 -7443.3453 300.0821 -9198.0182 -7475.3830 296.5007 -354.2134 -363.3858 29923.5534 -4.6046 48.4974
ENERGY: 1500000 1.2348 8.5350 2.9620 0.0000 -10630.6717 1441.8405 0.0000 0.0000 1804.3526 -7371.7469 308.5783 -9176.0994 -7470.5198 297.6049 382.7292 378.9308 29906.3706 37.3930 88.5741
TCL: Running FEP window  11: Lambda1 0.4999999999999996 Lambda2 0.4499999999999996 [dLambda -0.04999999999999999]
TCL: Setting parameter firsttimestep to 0
TCL: Setting parameter alchLambda to 0.4999999999999996
Info: NONBONDED TABLE R-SQUARED SPACING: 0.0625
Info: NONBONDED TABLE SIZE: 705 POINTS
TCL: Setting parameter alchLambda2 to 0.4499999999999996
Info: NONBONDED TABLE R-SQUARED SPACING: 0.0625
Info: NONBONDED TABLE SIZE: 705 POINTS
TCL: Running for 1500000 steps
ETITLE: TS BOND ANGLE DIHED IMPRP ELECT VDW BOUNDARY MISC KINETIC TOTAL TEMP POTENTIAL TOTALAVG TEMPAVG PRESSURE GPRESSURE VOLUME PRESSAVG GPRESSAVG
ENERGY: 0 1.2348 8.5350 2.9620 0.0000 -10630.8029 1441.9540 0.0000 0.0000 1803.4300 -7372.6871 308.4205 -9176.1172 -7372.6871 308.4205 296.6671 371.4547 29906.3706 296.6671 371.4547
ENERGY: 300000 1.0914 7.2906 2.3655 0.0000 -10478.9334 1328.9628 0.0000 0.0000 1749.2018 -7390.0214 299.1464 -9139.2231 -7416.0126 303.1300 -555.8762 -494.0587 30184.5610 92.0030 131.4031
ENERGY: 600000 1.4649 4.6295 2.4734 0.0000 -10656.3903 1456.7697 0.0000 0.0000 1748.1835 -7442.8693 298.9723 -9191.0527 -7408.4191 303.3026 484.0633 517.6907 29618.8536 186.5028 236.8424
ENERGY: 900000 4.1822 4.3334 2.7866 0.0000 -10687.3045 1491.9769 0.0000 0.0000 1726.3379 -7457.6876 295.2363 -9184.0255 -7411.8988 302.2351 697.5664 692.2440 29888.3850 190.8163 243.5925
ENERGY: 1200000 0.5403 7.5790 3.4264 0.0000 -10514.0924 1409.9587 0.0000 0.0000 1799.0930 -7293.4950 307.6788 -9092.5880 -7405.8642 302.6578 193.2055 241.8375 30463.4500 102.7438 152.0081
ENERGY: 1500000 1.3034 4.7972 5.1148 0.0000 -10541.2287 1414.4174 0.0000 0.0000 1700.5569 -7415.0390 290.8272 -9115.5959 -7415.2551 301.9852 -20.7655 -0.9308 30177.4698 68.3344 112.7367
TCL: Running FEP window  12: Lambda1 0.4499999999999996 Lambda2 0.39999999999999963 [dLambda -0.04999999999999999]
TCL: Setting parameter firsttimestep to 0
TCL: Setting parameter alchLambda to 0.4499999999999996
Info: NONBONDED TABLE R-SQUARED SPACING: 0.0625
Info: NONBONDED TABLE SIZE: 705 POINTS
TCL: Setting parameter alchLambda2 to 0.39999999999999963
Info: NONBONDED TABLE R-SQUARED SPACING: 0.0625
Info: NONBONDED TABLE SIZE: 705 POINTS
TCL: Running for 1500000 steps
ETITLE: TS BOND ANGLE DIHED IMPRP ELECT VDW BOUNDARY MISC KINETIC TOTAL TEMP POTENTIAL TOTALAVG TEMPAVG PRESSURE GPRESSURE VOLUME PRESSAVG GPRESSAVG
ENERGY: 0 1.3034 4.7972 5.1148 0.0000 -10541.2282 1414.8729 0.0000 0.0000 1699.6643 -7415.4756 290.6746 -9115.1399 -7415.4756 290.6746 -91.0788 -4.5581 30177.4698 -91.0788 -4.5581
ENERGY: 300000 1.1405 5.9308 3.1250 0.0000 -10666.8992 1460.8899 0.0000 0.0000 1787.8893 -7407.9236 305.7627 -9195.8129 -7415.3021 299.7622 319.9088 410.9780 30110.2603 307.8726 411.0152
ENERGY: 600000 2.7822 7.1355 2.5942 0.0000 -10593.1184 1408.6523 0.0000 0.0000 1719.8814 -7452.0727 294.1321 -9171.9541 -7436.1669 297.3609 -105.5911 -45.8600 30105.5132 144.8124 233.3115
ENERGY: 900000 2.1070 8.0245 5.3281 0.0000 -10712.2582 1470.3033 0.0000 0.0000 1784.7632 -7441.7321 305.2281 -9226.4953 -7424.7693 299.3962 251.2641 303.9167 29913.9004 -26.2374 59.6557
ENERGY: 1200000 0.5393 9.4763 2.6155 0.0000 -10650.8756 1496.4081 0.0000 0.0000 1730.8630 -7410.9733 296.0102 -9141.8364 -7416.2753 299.5815 755.4840 854.4390 29905.6779 -23.2415 57.0257
ENERGY: 1500000 1.3824 5.5511 4.9033 0.0000 -10667.0584 1451.9419 0.0000 0.0000 1743.3466 -7459.9332 298.1451 -9203.2798 -7420.0865 299.7430 233.7437 282.3283 29936.1234 -25.0883 46.9922
TCL: Running FEP window  13: Lambda1 0.39999999999999963 Lambda2 0.34999999999999964 [dLambda -0.04999999999999999]
TCL: Setting parameter firsttimestep to 0
TCL: Setting parameter alchLambda to 0.39999999999999963
Info: NONBONDED TABLE R-SQUARED SPACING: 0.0625
Info: NONBONDED TABLE SIZE: 705 POINTS
TCL: Setting parameter alchLambda2 to 0.34999999999999964
Info: NONBONDED TABLE R-SQUARED SPACING: 0.0625
Info: NONBONDED TABLE SIZE: 705 POINTS
TCL: Running for 1500000 steps
ETITLE: TS BOND ANGLE DIHED IMPRP ELECT VDW BOUNDARY MISC KINETIC TOTAL TEMP POTENTIAL TOTALAVG TEMPAVG PRESSURE GPRESSURE VOLUME PRESSAVG GPRESSAVG
ENERGY: 0 1.3824 5.5511 4.9033 0.0000 -10667.0595 1451.9507 0.0000 0.0000 1742.5062 -7460.7659 298.0014 -9203.2721 -7460.7659 298.0014 185.7982 275.3308 29936.1234 185.7982 275.3308
ENERGY: 300000 1.6347 4.9283 2.6455 0.0000 -10622.9623 1413.3368 0.0000 0.0000 1742.6046 -7457.8124 298.0182 -9200.4170 -7434.5086 298.9373 55.2636 100.0697 29910.6835 182.0134 240.2195
ENERGY: 600000 2.2532 6.1954 3.2424 0.0000 -10709.3120 1563.2030 0.0000 0.0000 1807.7237 -7326.6943 309.1548 -9134.4180 -7418.6784 302.4760 923.2898 952.8887 30704.9802 329.8652 365.1682
ENERGY: 900000 1.9269 6.8812 2.4171 0.0000 -10527.4584 1352.8126 0.0000 0.0000 1716.3644 -7447.0561 293.5306 -9163.4205 -7429.0206 301.0650 -369.7320 -360.5537 30220.5671 151.1465 187.7148
ENERGY: 1200000 1.3688 8.0243 4.2015 0.0000 -10589.1212 1411.4532 0.0000 0.0000 1767.4487 -7396.6246 302.2670 -9164.0734 -7417.0371 300.9990 176.4058 188.4930 29626.0458 149.1048 185.3591
ENERGY: 1500000 1.6184 10.1203 2.5636 0.0000 -10562.7273 1395.3070 0.0000 0.0000 1729.5911 -7423.5270 295.7926 -9153.1181 -7418.8398 300.7965 -442.9386 -379.4061 30784.6634 83.6980 122.3352
TCL: Running FEP window  14: Lambda1 0.34999999999999964 Lambda2 0.29999999999999966 [dLambda -0.04999999999999999]
TCL: Setting parameter firsttimestep to 0
TCL: Setting parameter alchLambda to 0.34999999999999964
Info: NONBONDED TABLE R-SQUARED SPACING: 0.0625
Info: NONBONDED TABLE SIZE: 705 POINTS
TCL: Setting parameter alchLambda2 to 0.29999999999999966
Info: NONBONDED TABLE R-SQUARED SPACING: 0.0625
Info: NONBONDED TABLE SIZE: 705 POINTS
TCL: Running for 1500000 steps
ETITLE: TS BOND ANGLE DIHED IMPRP ELECT VDW BOUNDARY MISC KINETIC TOTAL TEMP POTENTIAL TOTALAVG TEMPAVG PRESSURE GPRESSURE VOLUME PRESSAVG GPRESSAVG
ENERGY: 0 1.6184 10.1203 2.5636 0.0000 -10562.7270 1395.5302 0.0000 0.0000 1728.7281 -7424.1665 295.6451 -9152.8946 -7424.1665 295.6451 -459.9642 -383.6001 30784.6634 -459.9642 -383.6001
ENERGY: 300000 0.5608 8.2995 3.9392 0.0000 -10567.3278 1448.5533 0.0000 0.0000 1730.1399 -7375.8350 295.8865 -9105.9749 -7420.2360 301.0846 190.6049 249.8650 30538.2055 -241.5003 -151.3822
ENERGY: 600000 0.3124 6.6936 2.9311 0.0000 -10669.1936 1417.1986 0.0000 0.0000 1796.2510 -7445.8069 307.1927 -9242.0579 -7438.4624 301.1187 -124.5409 -97.2413 30056.8584 -104.4293 -42.6090
ENERGY: 900000 1.5231 9.0726 1.9286 0.0000 -10474.8932 1382.0620 0.0000 0.0000 1758.2770 -7322.0299 300.6985 -9080.3069 -7433.1748 299.7419 -230.4919 -140.1635 30516.3424 -85.3084 -18.8569
ENERGY: 1200000 1.7193 8.7883 2.2503 0.0000 -10554.4592 1392.5635 0.0000 0.0000 1775.1809 -7373.9568 303.5894 -9149.1377 -7429.7412 299.9729 127.4539 197.4909 29612.9924 -76.8970 -12.1723
ENERGY: 1500000 4.0083 9.7597 4.1635 0.0000 -10553.9656 1350.1897 0.0000 0.0000 1768.5337 -7417.3108 302.4525 -9185.8444 -7431.6050 300.5097 -736.0987 -643.2735 29968.2548 -97.7829 -29.0061
TCL: Running FEP window  15: Lambda1 0.29999999999999966 Lambda2 0.24999999999999967 [dLambda -0.04999999999999999]
TCL: Setting parameter firsttimestep to 0
TCL: Setting parameter alchLambda to 0.29999999999999966
Info: NONBONDED TABLE R-SQUARED SPACING: 0.0625
Info: NONBONDED TABLE SIZE: 705 POINTS
TCL: Setting parameter alchLambda2 to 0.24999999999999967
Info: NONBONDED TABLE R-SQUARED SPACING: 0.0625
Info: NONBONDED TABLE SIZE: 705 POINTS
TCL: Running for 1500000 steps
ETITLE: TS BOND ANGLE DIHED IMPRP ELECT VDW BOUNDARY MISC KINETIC TOTAL TEMP POTENTIAL TOTALAVG TEMPAVG PRESSURE GPRESSURE VOLUME PRESSAVG GPRESSAVG
ENERGY: 0 4.0083 9.7597 4.1635 0.0000 -10553.9644 1350.8096 0.0000 0.0000 1767.6400 -7417.5833 302.2997 -9185.2233 -7417.5833 302.2997 -704.6059 -641.9944 29968.2548 -704.6059 -641.9944
ENERGY: 300000 1.2093 6.9738 2.8889 0.0000 -10607.8047 1410.1838 0.0000 0.0000 1749.6306 -7436.9184 299.2198 -9186.5489 -7430.2212 302.2433 15.9244 75.0334 29769.0424 -240.5648 -202.2169
ENERGY: 600000 1.5779 7.7426 4.0325 0.0000 -10673.2283 1425.3753 0.0000 0.0000 1729.9861 -7504.5139 295.8602 -9234.5000 -7454.6648 299.5456 -333.2949 -220.9243 30364.7466 -273.8399 -202.8100
ENERGY: 900000 5.9737 7.5212 1.7455 0.0000 -10472.1562 1289.5727 0.0000 0.0000 1741.2992 -7426.0439 297.7949 -9167.3432 -7458.3300 298.5963 -1218.1062 -1199.1471 30534.9019 -322.5112 -263.4464
ENERGY: 1200000 1.0290 6.9700 2.7237 0.0000 -10657.4781 1493.0799 0.0000 0.0000 1746.9384 -7406.7373 298.7593 -9153.6756 -7452.7862 298.4855 699.5462 700.2239 29948.1122 -255.2135 -204.2408
ENERGY: 1500000 1.9524 7.5279 2.1883 0.0000 -10690.2084 1388.5678 0.0000 0.0000 1768.3077 -7521.6643 302.4139 -9289.9720 -7457.8011 298.4332 -773.9143 -656.2682 30329.6409 -215.7662 -159.3594
TCL: Running FEP window  16: Lambda1 0.24999999999999967 Lambda2 0.19999999999999968 [dLambda -0.04999999999999999]
TCL: Setting parameter firsttimestep to 0
TCL: Setting parameter alchLambda to 0.24999999999999967
Info: NONBONDED TABLE R-SQUARED SPACING: 0.0625
Info: NONBONDED TABLE SIZE: 705 POINTS
TCL: Setting parameter alchLambda2 to 0.19999999999999968
Info: NONBONDED TABLE R-SQUARED SPACING: 0.0625
Info: NONBONDED TABLE SIZE: 705 POINTS
TCL: Running for 1500000 steps
ETITLE: TS BOND ANGLE DIHED IMPRP ELECT VDW BOUNDARY MISC KINETIC TOTAL TEMP POTENTIAL TOTALAVG TEMPAVG PRESSURE GPRESSURE VOLUME PRESSAVG GPRESSAVG
ENERGY: 0 1.9524 7.5279 2.1883 0.0000 -10690.2083 1388.7447 0.0000 0.0000 1767.4372 -7522.3578 302.2650 -9289.7949 -7522.3578 302.2650 -754.4835 -660.6452 30329.6409 -754.4835 -660.6452
ENERGY: 300000 0.8866 8.6937 5.2522 0.0000 -10566.1475 1413.8842 0.0000 0.0000 1725.5930 -7411.8378 295.1089 -9137.4308 -7436.6583 300.9213 -70.7230 10.7223 30003.4638 -541.4103 -469.5014
ENERGY: 600000 1.0142 8.5118 4.0226 0.0000 -10745.9566 1519.1822 0.0000 0.0000 1747.5450 -7465.6807 298.8631 -9213.2258 -7458.4896 299.7520 746.2681 810.6883 29562.0160 -228.7175 -164.4712
ENERGY: 900000 1.7427 11.5589 2.1644 0.0000 -10586.4428 1365.0993 0.0000 0.0000 1774.2545 -7431.6230 303.4309 -9205.8775 -7460.5275 299.7984 -437.2345 -400.1621 29860.1621 -220.4934 -161.3504
ENERGY: 1200000 1.2419 4.5796 3.5022 0.0000 -10758.0686 1492.0962 0.0000 0.0000 1756.6411 -7500.0076 300.4187 -9256.6487 -7460.1284 300.1811 173.0902 204.5530 30166.4666 -65.7739 -13.1283
ENERGY: 1500000 2.2267 5.5971 2.9575 0.0000 -10673.1188 1452.9485 0.0000 0.0000 1725.3343 -7484.0548 295.0646 -9209.3890 -7458.3725 299.2711 157.2318 228.8950 30382.8322 -43.3971 5.9414
TCL: Running FEP window  17: Lambda1 0.19999999999999968 Lambda2 0.1499999999999997 [dLambda -0.04999999999999999]
TCL: Setting parameter firsttimestep to 0
TCL: Setting parameter alchLambda to 0.19999999999999968
Info: NONBONDED TABLE R-SQUARED SPACING: 0.0625
Info: NONBONDED TABLE SIZE: 705 POINTS
TCL: Setting parameter alchLambda2 to 0.1499999999999997
Info: NONBONDED TABLE R-SQUARED SPACING: 0.0625
Info: NONBONDED TABLE SIZE: 705 POINTS
TCL: Running for 1500000 steps
ETITLE: TS BOND ANGLE DIHED IMPRP ELECT VDW BOUNDARY MISC KINETIC TOTAL TEMP POTENTIAL TOTALAVG TEMPAVG PRESSURE GPRESSURE VOLUME PRESSAVG GPRESSAVG
ENERGY: 0 2.2267 5.5971 2.9575 0.0000 -10673.1196 1452.4739 0.0000 0.0000 1724.4292 -7485.4351 294.9099 -9209.8643 -7485.4351 294.9099 133.8947 222.2414 30382.8322 133.8947 222.2414
ENERGY: 300000 1.4270 5.4036 3.0888 0.0000 -10673.8985 1446.6281 0.0000 0.0000 1825.6774 -7391.6735 312.2252 -9217.3510 -7455.0246 304.5877 16.9556 157.0863 29960.7866 -113.9929 -12.8347
ENERGY: 600000 3.2179 5.1016 3.6665 0.0000 -10637.4669 1530.3707 0.0000 0.0000 1753.8444 -7341.2659 299.9404 -9095.1103 -7420.9618 302.7296 907.2567 965.2815 30099.9401 26.5493 106.1724
ENERGY: 900000 0.6478 10.4484 5.3894 0.0000 -10743.4790 1478.6878 0.0000 0.0000 1757.2673 -7491.0383 300.5258 -9248.3055 -7427.8246 301.4530 362.2056 389.0683 29874.8030 64.5076 144.7893
ENERGY: 1200000 4.9418 7.3381 2.4192 0.0000 -10611.7013 1401.0471 0.0000 0.0000 1737.9418 -7458.0134 297.2208 -9195.9552 -7428.5180 301.0672 -471.5110 -465.5030 30528.4457 -49.0916 17.5594
ENERGY: 1500000 0.4363 4.8047 2.6536 0.0000 -10617.3627 1437.9747 0.0000 0.0000 1753.1830 -7418.3103 299.8273 -9171.4933 -7427.5493 300.9752 54.9249 120.6145 30361.1347 -56.2909 14.6663
TCL: Running FEP window  18: Lambda1 0.1499999999999997 Lambda2 0.09999999999999969 [dLambda -0.05 ]
TCL: Setting parameter firsttimestep to 0
TCL: Setting parameter alchLambda to 0.1499999999999997
Info: NONBONDED TABLE R-SQUARED SPACING: 0.0625
Info: NONBONDED TABLE SIZE: 705 POINTS
TCL: Setting parameter alchLambda2 to 0.09999999999999969
Info: NONBONDED TABLE R-SQUARED SPACING: 0.0625
Info: NONBONDED TABLE SIZE: 705 POINTS
TCL: Running for 1500000 steps
ETITLE: TS BOND ANGLE DIHED IMPRP ELECT VDW BOUNDARY MISC KINETIC TOTAL TEMP POTENTIAL TOTALAVG TEMPAVG PRESSURE GPRESSURE VOLUME PRESSAVG GPRESSAVG
ENERGY: 0 0.4363 4.8047 2.6536 0.0000 -10617.3627 1437.9694 0.0000 0.0000 1752.3054 -7419.1933 299.6772 -9171.4987 -7419.1933 299.6772 42.0734 118.1355 30361.1347 42.0734 118.1355
ENERGY: 300000 0.9845 7.8671 2.7843 0.0000 -10766.5796 1518.9709 0.0000 0.0000 1637.1036 -7598.8693 279.9755 -9235.9729 -7484.8858 294.5919 548.8052 585.6136 29773.0900 110.3521 158.4718
ENERGY: 600000 2.5179 7.7331 4.8287 0.0000 -10597.2026 1442.0307 0.0000 0.0000 1724.9399 -7415.1523 294.9972 -9140.0921 -7461.8277 297.2862 174.2433 210.2921 30337.6969 290.2318 330.9617
ENERGY: 900000 1.5842 10.8790 6.1535 0.0000 -10629.4097 1388.5835 0.0000 0.0000 1738.2687 -7483.9408 297.2767 -9222.2094 -7475.5697 297.4258 -364.2464 -309.4020 29796.3642 58.7138 106.3477
ENERGY: 1200000 2.5855 5.7227 2.5012 0.0000 -10654.8638 1378.9275 0.0000 0.0000 1800.3499 -7464.7771 307.8937 -9265.1270 -7465.3896 298.6317 -394.3115 -321.5095 29840.7989 48.4339 87.5709
ENERGY: 1500000 3.6047 7.9817 3.9125 0.0000 -10589.4575 1448.7272 0.0000 0.0000 1790.0379 -7335.1936 306.1302 -9125.2315 -7448.6559 299.6681 260.2691 298.0030 30211.9426 11.5552 53.3266
TCL: Running FEP window  19: Lambda1 0.09999999999999969 Lambda2 0.049999999999999684 [dLambda -0.05 ]
TCL: Setting parameter firsttimestep to 0
TCL: Setting parameter alchLambda to 0.09999999999999969
Info: NONBONDED TABLE R-SQUARED SPACING: 0.0625
Info: NONBONDED TABLE SIZE: 705 POINTS
TCL: Setting parameter alchLambda2 to 0.049999999999999684
Info: NONBONDED TABLE R-SQUARED SPACING: 0.0625
Info: NONBONDED TABLE SIZE: 705 POINTS
TCL: Running for 1500000 steps
ETITLE: TS BOND ANGLE DIHED IMPRP ELECT VDW BOUNDARY MISC KINETIC TOTAL TEMP POTENTIAL TOTALAVG TEMPAVG PRESSURE GPRESSURE VOLUME PRESSAVG GPRESSAVG
ENERGY: 0 3.6047 7.9817 3.9125 0.0000 -10589.4567 1448.8203 0.0000 0.0000 1789.1653 -7335.9721 305.9810 -9125.1375 -7335.9721 305.9810 216.8384 294.9055 30211.9426 216.8384 294.9055
ENERGY: 300000 1.5223 4.8528 2.5242 0.0000 -10687.0996 1483.2888 0.0000 0.0000 1771.8583 -7423.0532 303.0211 -9194.9115 -7420.8883 301.3022 429.4055 564.9684 29880.3240 78.8155 162.0091
ENERGY: 600000 1.8060 5.5843 3.0537 0.0000 -10718.2888 1502.7387 0.0000 0.0000 1757.6804 -7447.4256 300.5964 -9205.1060 -7426.7936 300.5107 519.4620 554.9004 30096.2869 77.8949 146.3805
ENERGY: 900000 2.1898 8.4878 2.6744 0.0000 -10684.2799 1416.8770 0.0000 0.0000 1761.4044 -7492.6467 301.2333 -9254.0511 -7435.2814 301.9093 -104.5258 -16.3242 29434.2695 -143.5940 -70.2036
ENERGY: 1200000 3.5359 10.6364 3.7145 0.0000 -10659.0037 1448.1751 0.0000 0.0000 1717.9627 -7474.9792 293.8040 -9192.9419 -7441.4749 300.6268 -0.1355 1.5979 30356.0014 -121.3699 -55.6162
ENERGY: 1500000 2.2355 7.3539 3.7917 0.0000 -10368.6499 1250.1417 0.0000 0.0000 1738.8174 -7366.3097 297.3705 -9105.1271 -7428.2942 300.9996 -1199.1757 -1158.2405 30188.4359 -171.4012 -107.2408
TCL: Running FEP window  20: Lambda1 0.049999999999999684 Lambda2 0.0    [dLambda -0.049999999999999684]
TCL: Setting parameter firsttimestep to 0
TCL: Setting parameter alchLambda to 0.049999999999999684
Info: NONBONDED TABLE R-SQUARED SPACING: 0.0625
Info: NONBONDED TABLE SIZE: 705 POINTS
TCL: Setting parameter alchLambda2 to 0.0
Info: NONBONDED TABLE R-SQUARED SPACING: 0.0625
Info: NONBONDED TABLE SIZE: 705 POINTS
TCL: Running for 1500000 steps
ETITLE: TS BOND ANGLE DIHED IMPRP ELECT VDW BOUNDARY MISC KINETIC TOTAL TEMP POTENTIAL TOTALAVG TEMPAVG PRESSURE GPRESSURE VOLUME PRESSAVG GPRESSAVG
ENERGY: 0 2.2355 7.3539 3.7917 0.0000 -10368.6512 1249.2191 0.0000 0.0000 1737.9634 -7368.0875 297.2245 -9106.0510 -7368.0875 297.2245 -1236.5981 -1165.6699 30188.4359 -1236.5981 -1165.6699
ENERGY: 300000 2.4416 6.3667 5.0604 0.0000 -10589.7810 1471.9678 0.0000 0.0000 1715.5437 -7388.4009 293.3903 -9103.9446 -7428.3267 296.8628 558.1576 581.8640 30218.9799 -434.2319 -370.7273
ENERGY: 600000 1.8244 8.7594 2.2882 0.0000 -10548.0090 1416.4077 0.0000 0.0000 1740.2961 -7378.4331 297.6234 -9118.7292 -7400.7572 297.4851 41.8832 119.0210 30031.8138 -267.8941 -210.5767
ENERGY: 900000 2.7914 10.6602 3.1481 0.0000 -10607.4880 1399.0329 0.0000 0.0000 1789.4794 -7402.3759 306.0347 -9191.8553 -7400.1342 298.7843 -238.8778 -229.1816 30289.2094 -279.9303 -231.9859
ENERGY: 1200000 1.5679 4.5998 3.7170 0.0000 -10640.3306 1424.8877 0.0000 0.0000 1736.9496 -7468.6086 297.0511 -9205.5582 -7409.8447 298.6140 -68.0545 -3.6721 30110.0450 -268.2879 -218.9172
ENERGY: 1500000 2.6296 5.9755 2.9159 0.0000 -10590.1308 1367.5150 0.0000 0.0000 1800.1876 -7410.9073 307.8660 -9211.0949 -7405.2867 299.3000 -743.3059 -630.3895 30172.6188 -320.3194 -260.6283
TCL: Exiting due to exit command.
