Info: SIMULATION PARAMETERS:
Info: TIMESTEP               2
Info: NUMBER OF STEPS        0
Info: STEPS PER CYCLE        10
Info: PERIODIC CELL BASIS 1  31.516 0 0
Info: PERIODIC CELL BASIS 2  0 29.3286 0
Info: PERIODIC CELL BASIS 3  0 0 32.0411
Info: PERIODIC CELL CENTER   0 0 0
Info: WRAPPING WATERS AROUND PERIODIC BOUNDARIES ON OUTPUT.
Info: WRAPPING ALL CLUSTERS AROUND PERIODIC BOUNDARIES ON OUTPUT.
Info: FIRST LDB TIMESTEP     50
Info: LAST LDB TIMESTEP     -1
Info: HOM BACKGROUND SCALING 1
Info: PME BACKGROUND SCALING 1
Info: MIN ATOMS PER PATCH    40
Info: EMPTY PATCH LOAD       40 ATOMS
Info: VELOCITY FILE          mobley_7298388_equil.vel
Info: CENTER OF MASS MOVING INITIALLY? NO
Info: DIELECTRIC             1
Info: EXCLUDE                SCALED ONE-FOUR
Info: 1-4 ELECTROSTATICS SCALED BY 0.833333
Info: MODIFIED 1-4 VDW PARAMETERS WILL BE USED
Info: DCD FILENAME           mobley_7298388_prod.dcd
Info: DCD FREQUENCY          100000
Info: DCD FIRST STEP         100000
Info: DCD FILE WILL CONTAIN UNIT CELL DATA
Info: XST FILENAME           mobley_7298388_prod.xst
Info: XST FREQUENCY          100000
Info: NO VELOCITY DCD OUTPUT
Info: NO FORCE DCD OUTPUT
Info: OUTPUT FILENAME        mobley_7298388_prod
Info: BINARY OUTPUT FILES WILL BE USED
Info: RESTART FILENAME       mobley_7298388_prod.restart
Info: RESTART FREQUENCY      100000
Info: BINARY RESTART FILES WILL BE USED
Info: CUTOFF                 9
Info: PAIRLIST DISTANCE      11
Info: PAIRLIST SHRINK RATE   0.01
Info: PAIRLIST GROW RATE     0.01
Info: PAIRLIST TRIGGER       0.3
Info: PAIRLISTS PER CYCLE    2
Info: PAIRLISTS ENABLED
Info: MARGIN                 2
Info: HYDROGEN GROUP CUTOFF  2.5
Info: PATCH DIMENSION        15.5
Info: ENERGY OUTPUT STEPS    100000
Info: ENERGY EVALUATION STEPS    100000
Info: OUTPUT ENERGY PRECISION 4
Info: CROSSTERM ENERGY INCLUDED IN DIHEDRAL
Info: TIMING OUTPUT STEPS    1000000
Info: PRESSURE OUTPUT STEPS  100000
Info: ALCHEMICAL FEP ON
Info: FEP CURRENT LAMBDA VALUE     0
Info: FEP COMPARISON LAMBDA VALUE  0.05
Info: FEP INTRA-ALCHEMICAL NON-BONDED INTERACTIONS WILL BE RETAINED
Info: FEP INTRA-ALCHEMICAL BONDED INTERACTIONS WILL BE RETAINED
Info: FEP VDW SHIFTING COEFFICIENT 5
Info: FEP ELEC. ACTIVE FOR ANNIHILATED PARTICLES BETWEEN LAMBDA = 0 AND LAMBDA = 0.5
Info: FEP ELEC. ACTIVE FOR EXNIHILATED PARTICLES BETWEEN LAMBDA = 0.5 AND LAMBDA = 1
Info: FEP VDW ACTIVE FOR ANNIHILATED PARTICLES BETWEEN LAMBDA = 0 AND LAMBDA = 1
Info: FEP VDW ACTIVE FOR EXNIHILATED PARTICLES BETWEEN LAMBDA = 0 AND LAMBDA = 1
Info: FEP BOND ACTIVE FOR ANNIHILATED PARTICLES BETWEEN LAMBDA = 1 AND LAMBDA = 1
Info: FEP BOND ACTIVE FOR EXNIHILATED PARTICLES BETWEEN LAMBDA = 0 AND LAMBDA = 0
Info: LANGEVIN DYNAMICS ACTIVE
Info: LANGEVIN TEMPERATURE   300
Info: LANGEVIN USING BBK INTEGRATOR
Info: LANGEVIN DAMPING COEFFICIENT IS 1 INVERSE PS
Info: LANGEVIN DYNAMICS APPLIED TO HYDROGENS
Info: LANGEVIN PISTON PRESSURE CONTROL ACTIVE
Info:        TARGET PRESSURE IS 1.01325 BAR
Info:     OSCILLATION PERIOD IS 50 FS
Info:             DECAY TIME IS 25 FS
Info:     PISTON TEMPERATURE IS 300 K
Info:       PRESSURE CONTROL IS GROUP-BASED
Info:    INITIAL STRAIN RATE IS -0.000561817 -0.000561817 -0.000561817
Info:       CELL FLUCTUATION IS ISOTROPIC
Info: PARTICLE MESH EWALD (PME) ACTIVE
Info: PME TOLERANCE               1e-06
Info: PME EWALD COEFFICIENT       0.348832
Info: PME INTERPOLATION ORDER     4
Info: PME GRID DIMENSIONS         32 32 36
Info: PME MAXIMUM GRID SPACING    1
Info: PME CALCULATION WILL BE PERFORMED ON GPU
Info: FULL ELECTROSTATIC EVALUATION FREQUENCY      2
Info: USING VERLET I (r-RESPA) MTS SCHEME.
Info: C1 SPLITTING OF LONG RANGE ELECTROSTATICS
Info: PLACING ATOMS IN PATCHES BY HYDROGEN GROUPS
Info: RIGID BONDS TO HYDROGEN : ALL
Info:         ERROR TOLERANCE : 1e-08
Info:          MAX ITERATIONS : 100
Info: RIGID WATER USING SETTLE ALGORITHM
Info: RANDOM NUMBER SEED     1743774771
Info: USE HYDROGEN BONDS?    NO
Info: Using AMBER format force field!
Info: AMBER PARM FILE        mobley_7298388.prmtop
Info: COORDINATE PDB         mobley_7298388.pdb
Info: Exclusions will be read from PARM file!
Info: SCNB (VDW SCALING)     2
Info: USING ARITHMETIC MEAN TO COMBINE L-J SIGMA PARAMETERS
Info: BINARY COORDINATES     mobley_7298388_equil.coor
Info: SUMMARY OF PARAMETERS:
Info: 8 BONDS
Info: 8 ANGLES
Info:   8 HARMONIC
Info:   0 COSINE-BASED
Info: 4 DIHEDRAL
Info: 0 IMPROPER
Info: 0 CROSSTERM
Info: 0 VDW
Info: 36 VDW_PAIRS
Info: 0 NBTHOLE_PAIRS
Info: To read alchdata from file: mobley_7298388.pdb
Info: To read alchflag data from column: 5
Info: STRUCTURE SUMMARY:
Info: 2927 ATOMS
Info: 2927 BONDS
Info: 27 ANGLES
Info: 40 DIHEDRALS
Info: 0 IMPROPERS
Info: 0 CROSSTERMS
Info: 2985 EXCLUSIONS
Info: 2917 RIGID BONDS
Info: ALCH: 0 ATOMS TO DISAPPEAR IN FINAL STATE
Info: ALCH: 17 ATOMS TO APPEAR IN FINAL STATE
Info: 5864 DEGREES OF FREEDOM
Info: 980 HYDROGEN GROUPS
Info: 4 ATOMS IN LARGEST HYDROGEN GROUP
Info: 980 MIGRATION GROUPS
Info: 4 ATOMS IN LARGEST MIGRATION GROUP
Info: TOTAL MASS = 17612.7 amu
Info: TOTAL CHARGE = 7.45058e-09 e
Info: MASS DENSITY = 0.98754 g/cm^3
Info: ATOM DENSITY = 0.0988311 atoms/A^3
Info: ADDED 0 IMPLICIT EXCLUSIONS
Info: NONBONDED TABLE R-SQUARED SPACING: 0.0625
Info: NONBONDED TABLE SIZE: 705 POINTS
Info: REMOVING COM VELOCITY 0.12626 -0.273382 -0.0444888
Info: Use 3D box decompostion in PME FFT.
Info: Updated CUDA force table with 4096 elements.
Info: Updated CUDA LJ table with 8 x 8 elements.
Info: Found 18 unique exclusion lists needing 44 bytes
TCL: Running for 1500000 steps
ETITLE: TS BOND ANGLE DIHED IMPRP ELECT VDW BOUNDARY MISC KINETIC TOTAL TEMP POTENTIAL TOTALAVG TEMPAVG PRESSURE GPRESSURE VOLUME PRESSAVG GPRESSAVG
ENERGY: 0 3.1058 5.8918 2.3338 0.0000 -10617.6125 1439.2249 0.0000 0.0000 1738.0056 -7429.0506 298.2961 -9167.0562 -7429.0506 298.2961 243.7290 308.9977 29616.1983 243.7290 308.9977
ENERGY: 300000 2.5634 5.3135 2.5084 0.0000 -10569.3044 1488.0998 0.0000 0.0000 1791.8478 -7278.9715 307.5371 -9070.8192 -7392.3038 299.8064 643.6504 728.1128 29826.6349 54.5131 123.6987
ENERGY: 600000 4.9231 5.7509 3.9566 0.0000 -10496.5338 1333.0802 0.0000 0.0000 1701.8175 -7447.0055 292.0851 -9148.8230 -7414.7048 299.3459 -1219.5230 -1157.4163 30409.3517 -75.0237 -1.9786
ENERGY: 900000 3.4990 5.5721 3.7546 0.0000 -10717.4852 1462.3013 0.0000 0.0000 1733.2517 -7509.1065 297.4802 -9242.3582 -7408.1853 300.3785 22.3954 83.3059 29833.7554 -3.0760 65.3396
ENERGY: 1200000 2.1823 7.7808 2.3099 0.0000 -10597.8516 1478.6588 0.0000 0.0000 1671.9818 -7434.9379 286.9644 -9106.9197 -7406.9091 299.5680 679.2748 680.9750 29796.2369 15.1207 81.1740
ENERGY: 1500000 1.7572 3.5402 2.8553 0.0000 -10647.5403 1402.1317 0.0000 0.0000 1689.9530 -7547.3030 290.0488 -9237.2560 -7413.8602 298.9305 -318.6689 -271.2847 29896.5473 9.7209 76.9554
TCL: Running FEP window   2: Lambda1 0.05   Lambda2 0.1    [dLambda 0.05  ]
TCL: Setting parameter firsttimestep to 0
TCL: Setting parameter alchLambda to 0.05
Info: NONBONDED TABLE R-SQUARED SPACING: 0.0625
Info: NONBONDED TABLE SIZE: 705 POINTS
TCL: Setting parameter alchLambda2 to 0.1
Info: NONBONDED TABLE R-SQUARED SPACING: 0.0625
Info: NONBONDED TABLE SIZE: 705 POINTS
TCL: Running for 1500000 steps
ETITLE: TS BOND ANGLE DIHED IMPRP ELECT VDW BOUNDARY MISC KINETIC TOTAL TEMP POTENTIAL TOTALAVG TEMPAVG PRESSURE GPRESSURE VOLUME PRESSAVG GPRESSAVG
ENERGY: 0 1.7572 3.5402 2.8553 0.0000 -10647.5413 1406.4339 0.0000 0.0000 1689.0921 -7543.8627 289.9010 -9232.9548 -7543.8627 289.9010 -343.2529 -258.5553 29896.5473 -343.2529 -258.5553
ENERGY: 300000 2.8285 4.0563 2.1074 0.0000 -10555.2405 1393.7423 0.0000 0.0000 1748.8318 -7403.6743 300.1542 -9152.5061 -7433.4287 299.1110 -431.9789 -358.6037 30368.3897 -88.6797 -20.0624
ENERGY: 600000 2.3046 4.2936 3.1538 0.0000 -10450.1245 1365.7517 0.0000 0.0000 1744.9349 -7329.6858 299.4854 -9074.6208 -7405.6692 299.4768 -330.2102 -210.9337 30080.9341 -184.3451 -110.2928
ENERGY: 900000 4.1452 5.4880 4.4952 0.0000 -10661.9724 1412.6732 0.0000 0.0000 1738.6477 -7496.5231 298.4063 -9235.1708 -7425.3890 298.9635 -491.7674 -386.9434 29593.2171 -68.4121 7.1664
ENERGY: 1200000 2.8219 2.1150 4.9929 0.0000 -10545.4808 1420.1069 0.0000 0.0000 1778.5271 -7336.9170 305.2509 -9115.4441 -7414.6155 300.0337 -62.8696 -7.5839 30436.6354 -44.9422 27.2508
ENERGY: 1500000 2.6004 6.0696 4.7810 0.0000 -10716.0523 1513.6340 0.0000 0.0000 1731.6612 -7457.3062 297.2072 -9188.9674 -7428.5662 299.5790 610.4184 665.4392 29813.2556 1.8743 71.7869
TCL: Running FEP window   3: Lambda1 0.1    Lambda2 0.15000000000000002 [dLambda 0.05000000000000002]
TCL: Setting parameter firsttimestep to 0
TCL: Setting parameter alchLambda to 0.1
Info: NONBONDED TABLE R-SQUARED SPACING: 0.0625
Info: NONBONDED TABLE SIZE: 705 POINTS
TCL: Setting parameter alchLambda2 to 0.15000000000000002
Info: NONBONDED TABLE R-SQUARED SPACING: 0.0625
Info: NONBONDED TABLE SIZE: 705 POINTS
TCL: Running for 1500000 steps
ETITLE: TS BOND ANGLE DIHED IMPRP ELECT VDW BOUNDARY MISC KINETIC TOTAL TEMP POTENTIAL TOTALAVG TEMPAVG PRESSURE GPRESSURE VOLUME PRESSAVG GPRESSAVG
ENERGY: 0 2.6004 6.0696 4.7810 0.0000 -10716.0547 1516.3788 0.0000 0.0000 1730.7945 -7455.4305 297.0585 -9186.2249 -7455.4305 297.0585 598.1182 676.9286 29813.2556 598.1182 676.9286
ENERGY: 300000 1.4829 4.0836 5.1683 0.0000 -10615.4745 1416.5745 0.0000 0.0000 1722.2682 -7465.8971 295.5951 -9188.1653 -7406.6426 297.0601 -540.9587 -498.6820 30467.8126 -294.6378 -246.4441
ENERGY: 600000 6.3370 2.0904 4.8425 0.0000 -10599.3558 1459.3885 0.0000 0.0000 1715.5485 -7411.1489 294.4418 -9126.6974 -7395.6422 297.9305 116.7870 146.8048 29925.5386 -242.9550 -190.0115
ENERGY: 900000 3.3028 4.8036 6.0858 0.0000 -10483.7614 1382.5440 0.0000 0.0000 1805.6766 -7281.3486 309.9106 -9087.0251 -7394.6242 298.0602 -111.7202 -87.3051 30049.4546 -34.2137 13.8163
ENERGY: 1200000 1.2323 6.3977 3.5508 0.0000 -10694.1901 1482.7700 0.0000 0.0000 1765.7410 -7434.4983 303.0564 -9200.2393 -7407.8801 298.4213 378.8721 487.2430 30041.8518 47.5871 107.1199
ENERGY: 1500000 3.3471 3.4534 4.3815 0.0000 -10541.2909 1358.4550 0.0000 0.0000 1742.3769 -7429.2769 299.0464 -9171.6538 -7401.7563 299.2672 -753.4690 -651.3870 30034.9890 -0.0052 69.9547
TCL: Running FEP window   4: Lambda1 0.15000000000000002 Lambda2 0.2    [dLambda 0.04999999999999999]
TCL: Setting parameter firsttimestep to 0
TCL: Setting parameter alchLambda to 0.15000000000000002
Info: NONBONDED TABLE R-SQUARED SPACING: 0.0625
Info: NONBONDED TABLE SIZE: 705 POINTS
TCL: Setting parameter alchLambda2 to 0.2
Info: NONBONDED TABLE R-SQUARED SPACING: 0.0625
Info: NONBONDED TABLE SIZE: 705 POINTS
TCL: Running for 1500000 steps
ETITLE: TS BOND ANGLE DIHED IMPRP ELECT VDW BOUNDARY MISC KINETIC TOTAL TEMP POTENTIAL TOTALAVG TEMPAVG PRESSURE GPRESSURE VOLUME PRESSAVG GPRESSAVG
ENERGY: 0 3.3471 3.4534 4.3815 0.0000 -10541.2902 1359.6834 0.0000 0.0000 1741.5139 -7428.9109 298.8982 -9170.4247 -7428.9109 298.8982 -716.5048 -644.9655 30034.9890 -716.5048 -644.9655
ENERGY: 300000 2.4127 6.9850 6.3671 0.0000 -10630.5266 1424.7200 0.0000 0.0000 1718.6196 -7471.4222 294.9689 -9190.0419 -7425.7502 300.6178 -279.2353 -186.5047 29867.8021 54.8798 128.3961
ENERGY: 600000 2.9338 5.2075 3.2024 0.0000 -10653.4835 1458.2741 0.0000 0.0000 1737.1847 -7446.6808 298.1552 -9183.8655 -7420.3944 300.5382 59.7125 111.5855 30188.6177 -90.9324 -16.5343
ENERGY: 900000 2.3627 7.7170 3.0764 0.0000 -10536.1449 1396.3269 0.0000 0.0000 1746.6636 -7379.9983 299.7821 -9126.6620 -7411.3171 300.0813 -143.9717 -108.1402 29947.1228 -166.2708 -91.9879
ENERGY: 1200000 2.1691 5.6806 5.0354 0.0000 -10623.6069 1440.4644 0.0000 0.0000 1780.2627 -7389.9947 305.5488 -9170.2574 -7413.8832 300.9039 72.3988 161.3798 30026.6164 -85.1859 -10.1707
ENERGY: 1500000 4.1437 7.9261 6.4478 0.0000 -10587.4287 1462.5111 0.0000 0.0000 1732.6071 -7373.7927 297.3696 -9106.3999 -7410.0307 300.4044 233.4099 210.9105 30153.3099 -79.0947 -10.9627
TCL: Running FEP window   5: Lambda1 0.2    Lambda2 0.25   [dLambda 0.04999999999999999]
TCL: Setting parameter firsttimestep to 0
TCL: Setting parameter alchLambda to 0.2
Info: NONBONDED TABLE R-SQUARED SPACING: 0.0625
Info: NONBONDED TABLE SIZE: 705 POINTS
TCL: Setting parameter alchLambda2 to 0.25
Info: NONBONDED TABLE R-SQUARED SPACING: 0.0625
Info: NONBONDED TABLE SIZE: 705 POINTS
TCL: Running for 1500000 steps
ETITLE: TS BOND ANGLE DIHED IMPRP ELECT VDW BOUNDARY MISC KINETIC TOTAL TEMP POTENTIAL TOTALAVG TEMPAVG PRESSURE GPRESSURE VOLUME PRESSAVG GPRESSAVG
ENERGY: 0 4.1437 7.9261 6.4478 0.0000 -10587.4298 1463.1099 0.0000 0.0000 1731.7583 -7374.0439 297.2239 -9105.8022 -7374.0439 297.2239 143.4160 217.8351 30153.3099 143.4160 217.8351
ENERGY: 300000 1.9530 4.8011 5.5578 0.0000 -10584.5395 1464.9714 0.0000 0.0000 1740.5259 -7366.7303 298.7287 -9107.2562 -7367.6221 299.1191 230.4960 290.9076 30649.9004 -262.8220 -208.0680
ENERGY: 600000 3.8523 5.2682 2.6146 0.0000 -10764.8534 1554.2555 0.0000 0.0000 1789.5263 -7409.3365 307.1387 -9198.8628 -7383.5426 302.8121 1034.7367 1129.4812 29751.0305 49.4460 117.0514
ENERGY: 900000 6.6907 2.5401 2.5038 0.0000 -10792.9202 1597.6300 0.0000 0.0000 1752.1326 -7431.4229 300.7208 -9183.5555 -7411.6042 301.9177 1117.9882 1110.4970 30153.1628 147.5409 213.8677
ENERGY: 1200000 3.8825 4.5853 4.9834 0.0000 -10776.7282 1588.8209 0.0000 0.0000 1765.6638 -7408.7923 303.0431 -9174.4561 -7410.1814 301.8811 1504.1156 1564.4260 29603.9621 107.8408 181.3129
ENERGY: 1500000 2.6874 5.5205 3.0506 0.0000 -10544.2857 1370.7600 0.0000 0.0000 1723.3274 -7438.9398 295.7769 -9162.2673 -7408.3472 301.0919 -826.6085 -760.2168 30458.9432 47.0302 121.8832
TCL: Running FEP window   6: Lambda1 0.25   Lambda2 0.3    [dLambda 0.04999999999999999]
TCL: Setting parameter firsttimestep to 0
TCL: Setting parameter alchLambda to 0.25
Info: NONBONDED TABLE R-SQUARED SPACING: 0.0625
Info: NONBONDED TABLE SIZE: 705 POINTS
TCL: Setting parameter alchLambda2 to 0.3
Info: NONBONDED TABLE R-SQUARED SPACING: 0.0625
Info: NONBONDED TABLE SIZE: 705 POINTS
TCL: Running for 1500000 steps
ETITLE: TS BOND ANGLE DIHED IMPRP ELECT VDW BOUNDARY MISC KINETIC TOTAL TEMP POTENTIAL TOTALAVG TEMPAVG PRESSURE GPRESSURE VOLUME PRESSAVG GPRESSAVG
ENERGY: 0 2.6874 5.5205 3.0506 0.0000 -10544.2864 1370.6084 0.0000 0.0000 1722.4838 -7439.9358 295.6321 -9162.4196 -7439.9358 295.6321 -855.7562 -756.4710 30458.9432 -855.7562 -756.4710
ENERGY: 300000 3.5343 5.6810 2.5112 0.0000 -10693.5404 1551.0040 0.0000 0.0000 1817.6772 -7313.1326 311.9702 -9130.8098 -7352.7350 302.0833 1108.8172 1154.4271 30119.0781 -55.7525 39.5438
ENERGY: 600000 4.0212 4.8545 1.5757 0.0000 -10683.1952 1508.3795 0.0000 0.0000 1723.7258 -7440.6384 295.8453 -9164.3643 -7373.4701 301.3714 698.5492 637.9239 29929.1280 -89.5369 -35.7513
ENERGY: 900000 4.8113 3.3569 1.6110 0.0000 -10637.9916 1454.6150 0.0000 0.0000 1759.5728 -7414.0247 301.9977 -9173.5974 -7372.4362 302.6280 279.0401 314.7257 29719.5107 -53.5292 7.0419
ENERGY: 1200000 3.4558 6.2154 3.2341 0.0000 -10543.8339 1434.2241 0.0000 0.0000 1707.7395 -7388.9649 293.1015 -9096.7044 -7379.9596 301.4455 61.2907 168.1692 29804.8031 29.7105 88.1320
ENERGY: 1500000 4.4435 3.7298 2.4618 0.0000 -10621.8863 1455.7200 0.0000 0.0000 1752.8799 -7402.6513 300.8490 -9155.5312 -7374.8518 302.0058 371.0601 390.4783 29882.1644 52.9891 110.2045
TCL: Running FEP window   7: Lambda1 0.3    Lambda2 0.35   [dLambda 0.04999999999999999]
TCL: Setting parameter firsttimestep to 0
TCL: Setting parameter alchLambda to 0.3
Info: NONBONDED TABLE R-SQUARED SPACING: 0.0625
Info: NONBONDED TABLE SIZE: 705 POINTS
TCL: Setting parameter alchLambda2 to 0.35
Info: NONBONDED TABLE R-SQUARED SPACING: 0.0625
Info: NONBONDED TABLE SIZE: 705 POINTS
TCL: Running for 1500000 steps
ETITLE: TS BOND ANGLE DIHED IMPRP ELECT VDW BOUNDARY MISC KINETIC TOTAL TEMP POTENTIAL TOTALAVG TEMPAVG PRESSURE GPRESSURE VOLUME PRESSAVG GPRESSAVG
ENERGY: 0 4.4435 3.7298 2.4618 0.0000 -10621.8890 1455.6868 0.0000 0.0000 1752.0201 -7403.5470 300.7014 -9155.5672 -7403.5470 300.7014 303.8296 396.1827 29882.1644 303.8296 396.1827
ENERGY: 300000 6.3241 6.0486 2.7273 0.0000 -10433.0820 1294.5660 0.0000 0.0000 1818.4226 -7304.9935 312.0982 -9123.4161 -7387.3358 301.8290 -1458.6515 -1402.6001 30837.1654 -328.0842 -268.8209
ENERGY: 600000 4.6538 3.5673 3.0634 0.0000 -10513.5461 1419.8509 0.0000 0.0000 1744.7910 -7337.6197 299.4607 -9082.4107 -7390.0277 300.1323 -71.2858 -10.7002 30392.5997 -160.7837 -100.8594
ENERGY: 900000 1.2658 2.8339 4.7152 0.0000 -10731.2401 1522.6243 0.0000 0.0000 1761.0445 -7438.7563 302.2503 -9199.8009 -7391.7509 300.5642 731.2977 749.6365 29855.6061 6.8884 68.3303
ENERGY: 1200000 3.6460 6.1740 7.4671 0.0000 -10581.3323 1452.6455 0.0000 0.0000 1715.7180 -7395.6816 294.4709 -9111.3997 -7391.8101 299.7303 282.6675 375.2438 29935.2389 8.4071 69.1287
ENERGY: 1500000 2.6913 4.0391 2.3984 0.0000 -10460.4790 1331.9191 0.0000 0.0000 1716.7229 -7402.7082 294.6433 -9119.4311 -7398.6383 299.3836 -952.5034 -854.1867 30172.2330 -115.7216 -58.1624
TCL: Running FEP window   8: Lambda1 0.35   Lambda2 0.39999999999999997 [dLambda 0.04999999999999999]
TCL: Setting parameter firsttimestep to 0
TCL: Setting parameter alchLambda to 0.35
Info: NONBONDED TABLE R-SQUARED SPACING: 0.0625
Info: NONBONDED TABLE SIZE: 705 POINTS
TCL: Setting parameter alchLambda2 to 0.39999999999999997
Info: NONBONDED TABLE R-SQUARED SPACING: 0.0625
Info: NONBONDED TABLE SIZE: 705 POINTS
TCL: Running for 1500000 steps
ETITLE: TS BOND ANGLE DIHED IMPRP ELECT VDW BOUNDARY MISC KINETIC TOTAL TEMP POTENTIAL TOTALAVG TEMPAVG PRESSURE GPRESSURE VOLUME PRESSAVG GPRESSAVG
ENERGY: 0 2.6913 4.0391 2.3984 0.0000 -10460.4807 1332.4854 0.0000 0.0000 1715.8420 -7403.0244 294.4922 -9118.8664 -7403.0244 294.4922 -921.8185 -843.3912 30172.2330 -921.8185 -843.3912
ENERGY: 300000 1.9449 4.0953 2.5710 0.0000 -10637.4542 1501.3460 0.0000 0.0000 1767.0623 -7360.4347 303.2832 -9127.4969 -7364.5477 299.8618 707.5213 805.7175 29671.1371 100.7686 180.4403
ENERGY: 600000 6.6127 6.5165 3.7710 0.0000 -10643.6548 1451.8463 0.0000 0.0000 1711.9418 -7462.9665 293.8227 -9174.9083 -7381.7540 301.4574 -20.8143 73.2619 29811.6596 24.5824 97.9595
ENERGY: 900000 6.2215 5.8662 3.1669 0.0000 -10628.6861 1483.6718 0.0000 0.0000 1763.4368 -7366.3229 302.6609 -9129.7597 -7389.2627 301.5209 502.7182 635.1237 29589.1090 133.2082 213.7278
ENERGY: 1200000 2.7361 8.6173 2.0472 0.0000 -10588.7496 1377.3511 0.0000 0.0000 1754.7181 -7443.2798 301.1645 -9197.9979 -7386.2698 301.7607 -685.4776 -631.9701 30172.0274 76.4970 153.1192
ENERGY: 1500000 1.5339 6.8765 9.0267 0.0000 -10543.4102 1403.5945 0.0000 0.0000 1683.3562 -7439.0223 288.9166 -9122.3785 -7401.9545 300.9815 -532.0322 -478.0457 30764.1937 86.3067 161.1146
TCL: Running FEP window   9: Lambda1 0.39999999999999997 Lambda2 0.44999999999999996 [dLambda 0.04999999999999999]
TCL: Setting parameter firsttimestep to 0
TCL: Setting parameter alchLambda to 0.39999999999999997
Info: NONBONDED TABLE R-SQUARED SPACING: 0.0625
Info: NONBONDED TABLE SIZE: 705 POINTS
TCL: Setting parameter alchLambda2 to 0.44999999999999996
Info: NONBONDED TABLE R-SQUARED SPACING: 0.0625
Info: NONBONDED TABLE SIZE: 705 POINTS
TCL: Running for 1500000 steps
ETITLE: TS BOND ANGLE DIHED IMPRP ELECT VDW BOUNDARY MISC KINETIC TOTAL TEMP POTENTIAL TOTALAVG TEMPAVG PRESSURE GPRESSURE VOLUME PRESSAVG GPRESSAVG
ENERGY: 0 1.5339 6.8765 9.0267 0.0000 -10543.4095 1403.7785 0.0000 0.0000 1682.4919 -7439.7019 288.7682 -9122.1938 -7439.7019 288.7682 -540.9660 -472.5526 30764.1937 -540.9660 -472.5526
ENERGY: 300000 2.1583 4.9362 2.9590 0.0000 -10607.3093 1435.3693 0.0000 0.0000 1761.4267 -7400.4598 302.3159 -9161.8865 -7394.0102 299.7300 -32.8020 72.6921 30032.0987 -130.7936 -69.6626
ENERGY: 600000 3.7319 5.8144 2.2689 0.0000 -10505.8919 1402.0385 0.0000 0.0000 1753.4962 -7338.5421 300.9548 -9092.0383 -7416.4939 299.7209 295.5929 357.8793 29829.6312 69.1983 134.6916
ENERGY: 900000 4.2088 6.6346 7.6570 0.0000 -10470.7333 1439.0535 0.0000 0.0000 1704.8877 -7308.2917 292.6120 -9013.1794 -7409.4251 299.2821 205.1900 283.3581 30142.0162 79.0137 140.7925
ENERGY: 1200000 3.6968 3.5041 3.2335 0.0000 -10606.1325 1468.2319 0.0000 0.0000 1726.4694 -7400.9967 296.3161 -9127.4661 -7403.3522 299.9157 577.7558 628.9224 29859.0650 18.0783 73.7436
ENERGY: 1500000 3.8518 3.0036 2.7153 0.0000 -10514.8312 1351.0627 0.0000 0.0000 1740.2095 -7413.9882 298.6744 -9154.1977 -7395.1681 300.3691 -535.7599 -475.9217 29909.3565 -20.0810 32.9753
TCL: Running FEP window  10: Lambda1 0.44999999999999996 Lambda2 0.49999999999999994 [dLambda 0.04999999999999999]
TCL: Setting parameter firsttimestep to 0
TCL: Setting parameter alchLambda to 0.44999999999999996
Info: NONBONDED TABLE R-SQUARED SPACING: 0.0625
Info: NONBONDED TABLE SIZE: 705 POINTS
TCL: Setting parameter alchLambda2 to 0.49999999999999994
Info: NONBONDED TABLE R-SQUARED SPACING: 0.0625
Info: NONBONDED TABLE SIZE: 705 POINTS
TCL: Running for 1500000 steps
ETITLE: TS BOND ANGLE DIHED IMPRP ELECT VDW BOUNDARY MISC KINETIC TOTAL TEMP POTENTIAL TOTALAVG TEMPAVG PRESSURE GPRESSURE VOLUME PRESSAVG GPRESSAVG
ENERGY: 0 3.8518 3.0036 2.7153 0.0000 -10514.8316 1350.8220 0.0000 0.0000 1739.3618 -7415.0771 298.5289 -9154.4389 -7415.0771 298.5289 -566.1073 -469.7886 29909.3565 -566.1073 -469.7886
ENERGY: 300000 6.8086 4.0912 3.0297 0.0000 -10497.7504 1411.0498 0.0000 0.0000 1753.4369 -7319.3343 300.9446 -9072.7712 -7370.8578 299.5145 -150.3268 -100.5220 30364.7179 -149.3163 -84.0516
ENERGY: 600000 4.2643 5.5637 2.0175 0.0000 -10651.3564 1463.6813 0.0000 0.0000 1718.9178 -7456.9119 295.0201 -9175.8297 -7388.9312 298.7203 246.5131 284.9554 30013.5368 -59.6515 -0.5843
ENERGY: 900000 4.1134 9.1057 2.5499 0.0000 -10585.2422 1415.4048 0.0000 0.0000 1691.6409 -7462.4275 290.3385 -9154.0685 -7404.9806 296.7447 135.3763 93.6200 29790.4015 -80.6031 -43.5301
ENERGY: 1200000 7.3650 5.1139 3.5636 0.0000 -10640.4065 1408.2914 0.0000 0.0000 1720.5947 -7495.4779 295.3079 -9216.0726 -7408.2939 296.5003 -59.4132 -60.2333 29883.8364 -159.5027 -126.4711
ENERGY: 1500000 2.4527 3.6315 1.4687 0.0000 -10484.2159 1336.0453 0.0000 0.0000 1756.4097 -7384.2080 301.4548 -9140.6177 -7414.9323 296.6276 -663.1319 -538.2953 29920.5724 -182.8238 -134.9612
TCL: Running FEP window  11: Lambda1 0.49999999999999994 Lambda2 0.5499999999999999 [dLambda 0.04999999999999999]
TCL: Setting parameter firsttimestep to 0
TCL: Setting parameter alchLambda to 0.49999999999999994
Info: NONBONDED TABLE R-SQUARED SPACING: 0.0625
Info: NONBONDED TABLE SIZE: 705 POINTS
TCL: Setting parameter alchLambda2 to 0.5499999999999999
Info: NONBONDED TABLE R-SQUARED SPACING: 0.0625
Info: NONBONDED TABLE SIZE: 705 POINTS
TCL: Running for 1500000 steps
ETITLE: TS BOND ANGLE DIHED IMPRP ELECT VDW BOUNDARY MISC KINETIC TOTAL TEMP POTENTIAL TOTALAVG TEMPAVG PRESSURE GPRESSURE VOLUME PRESSAVG GPRESSAVG
ENERGY: 0 2.4527 3.6315 1.4687 0.0000 -10484.2164 1336.1853 0.0000 0.0000 1755.5660 -7384.9121 301.3100 -9140.4782 -7384.9121 301.3100 -627.5374 -531.4421 29920.5724 -627.5374 -531.4421
ENERGY: 300000 1.1445 6.5776 4.7115 0.0000 -10614.3406 1373.9641 0.0000 0.0000 1718.1605 -7509.7823 294.8901 -9227.9428 -7402.8411 299.5910 -407.4744 -331.1227 29735.2400 -18.9322 38.0801
ENERGY: 600000 4.1443 1.4156 2.0985 0.0000 -10764.8369 1483.9346 0.0000 0.0000 1801.6172 -7471.6267 309.2139 -9273.2439 -7405.7416 300.9355 59.5547 122.8848 30115.0084 -112.0859 -43.3646
ENERGY: 900000 5.5327 4.6984 2.6595 0.0000 -10655.6009 1398.5759 0.0000 0.0000 1742.0111 -7502.1234 298.9836 -9244.1345 -7417.8367 299.6709 -375.5767 -293.3640 29524.2148 -228.2896 -159.8726
ENERGY: 1200000 2.9575 8.0744 1.9650 0.0000 -10590.5659 1432.4462 0.0000 0.0000 1827.5626 -7317.5602 313.6669 -9145.1228 -7401.1548 301.1056 161.0365 214.1191 30284.1667 -176.3910 -116.7030
ENERGY: 1500000 1.5861 3.1963 1.7858 0.0000 -10684.6615 1438.9655 0.0000 0.0000 1761.3815 -7477.7465 302.3081 -9239.1279 -7419.0494 299.9387 18.7104 103.1174 30010.6780 -99.9807 -36.4593
TCL: Running FEP window  12: Lambda1 0.5499999999999999 Lambda2 0.6    [dLambda 0.050000000000000044]
TCL: Setting parameter firsttimestep to 0
TCL: Setting parameter alchLambda to 0.5499999999999999
Info: NONBONDED TABLE R-SQUARED SPACING: 0.0625
Info: NONBONDED TABLE SIZE: 705 POINTS
TCL: Setting parameter alchLambda2 to 0.6
Info: NONBONDED TABLE R-SQUARED SPACING: 0.0625
Info: NONBONDED TABLE SIZE: 705 POINTS
TCL: Running for 1500000 steps
ETITLE: TS BOND ANGLE DIHED IMPRP ELECT VDW BOUNDARY MISC KINETIC TOTAL TEMP POTENTIAL TOTALAVG TEMPAVG PRESSURE GPRESSURE VOLUME PRESSAVG GPRESSAVG
ENERGY: 0 1.5861 3.1963 1.7858 0.0000 -10684.6965 1438.4358 0.0000 0.0000 1760.5166 -7479.1761 302.1597 -9239.6927 -7479.1761 302.1597 14.5265 104.1248 30010.6780 14.5265 104.1248
ENERGY: 300000 2.8949 3.1792 2.4845 0.0000 -10601.8289 1466.3282 0.0000 0.0000 1724.1011 -7402.8411 295.9097 -9126.9422 -7431.5792 298.5524 361.2640 350.1510 30140.7848 56.3335 105.1750
ENERGY: 600000 2.1345 3.3224 2.1034 0.0000 -10388.2269 1371.6701 0.0000 0.0000 1701.6044 -7307.3921 292.0485 -9008.9965 -7407.4993 297.8774 -264.7412 -161.6881 30775.9180 160.2443 210.3711
ENERGY: 900000 3.1019 3.7783 5.7588 0.0000 -10469.7591 1435.4932 0.0000 0.0000 1776.7015 -7244.9254 304.9375 -9021.6269 -7375.7659 300.1222 386.5465 550.2806 30377.7111 200.7381 260.3531
ENERGY: 1200000 1.6874 3.7754 6.2896 0.0000 -10511.0819 1421.9861 0.0000 0.0000 1740.4045 -7336.9389 298.7078 -9077.3434 -7373.6253 300.1037 -58.0107 -14.4683 30458.0377 156.6227 218.6001
ENERGY: 1500000 2.5729 6.1684 2.3609 0.0000 -10451.3377 1394.7064 0.0000 0.0000 1790.9750 -7254.5540 307.3873 -9045.5291 -7364.9769 301.1537 -35.1147 27.2939 30289.4880 125.4387 183.8448
TCL: Running FEP window  13: Lambda1 0.6    Lambda2 0.65   [dLambda 0.050000000000000044]
TCL: Setting parameter firsttimestep to 0
TCL: Setting parameter alchLambda to 0.6
Info: NONBONDED TABLE R-SQUARED SPACING: 0.0625
Info: NONBONDED TABLE SIZE: 705 POINTS
TCL: Setting parameter alchLambda2 to 0.65
Info: NONBONDED TABLE R-SQUARED SPACING: 0.0625
Info: NONBONDED TABLE SIZE: 705 POINTS
TCL: Running for 1500000 steps
ETITLE: TS BOND ANGLE DIHED IMPRP ELECT VDW BOUNDARY MISC KINETIC TOTAL TEMP POTENTIAL TOTALAVG TEMPAVG PRESSURE GPRESSURE VOLUME PRESSAVG GPRESSAVG
ENERGY: 0 2.5729 6.1684 2.3609 0.0000 -10451.8596 1394.1635 0.0000 0.0000 1790.1234 -7256.4704 307.2412 -9046.5938 -7256.4704 307.2412 -53.4234 29.6908 30289.4880 -53.4234 29.6908
ENERGY: 300000 1.3585 9.0785 1.4367 0.0000 -10501.1749 1370.7664 0.0000 0.0000 1775.2643 -7343.2706 304.6909 -9118.5349 -7353.3035 303.2521 -564.3190 -482.5326 30712.0944 -168.8544 -97.3098
ENERGY: 600000 5.3264 4.1731 5.2342 0.0000 -10579.0503 1425.2499 0.0000 0.0000 1758.1883 -7380.8784 301.7601 -9139.0668 -7381.0665 303.2029 261.6706 285.9713 30029.0632 67.4663 104.7159
ENERGY: 900000 5.8905 5.4877 3.7459 0.0000 -10464.1188 1344.1529 0.0000 0.0000 1783.2221 -7321.6197 306.0567 -9104.8418 -7372.5206 303.0231 -655.6721 -561.2018 30128.7815 -147.9461 -96.7044
ENERGY: 1200000 5.2272 2.4212 3.2107 0.0000 -10616.9891 1402.6029 0.0000 0.0000 1808.0826 -7395.4445 310.3235 -9203.5271 -7380.9483 302.8439 -267.0979 -256.1970 30233.7413 -91.4312 -47.2251
ENERGY: 1500000 8.5006 5.1509 2.4720 0.0000 -10466.1253 1379.4114 0.0000 0.0000 1783.5126 -7287.0778 306.1065 -9070.5905 -7380.2532 302.4022 -19.7357 52.8189 29878.9622 -174.6767 -125.8692
TCL: Running FEP window  14: Lambda1 0.65   Lambda2 0.7000000000000001 [dLambda 0.050000000000000044]
TCL: Setting parameter firsttimestep to 0
TCL: Setting parameter alchLambda to 0.65
Info: NONBONDED TABLE R-SQUARED SPACING: 0.0625
Info: NONBONDED TABLE SIZE: 705 POINTS
TCL: Setting parameter alchLambda2 to 0.7000000000000001
Info: NONBONDED TABLE R-SQUARED SPACING: 0.0625
Info: NONBONDED TABLE SIZE: 705 POINTS
TCL: Running for 1500000 steps
ETITLE: TS BOND ANGLE DIHED IMPRP ELECT VDW BOUNDARY MISC KINETIC TOTAL TEMP POTENTIAL TOTALAVG TEMPAVG PRESSURE GPRESSURE VOLUME PRESSAVG GPRESSAVG
ENERGY: 0 8.5006 5.1509 2.4720 0.0000 -10466.2331 1379.3344 0.0000 0.0000 1782.6487 -7288.1266 305.9583 -9070.7753 -7288.1266 305.9583 -31.1546 59.5847 29878.9622 -31.1546 59.5847
ENERGY: 300000 3.2470 3.8982 2.7682 0.0000 -10481.9912 1366.2236 0.0000 0.0000 1693.2376 -7412.6167 290.6125 -9105.8543 -7377.6177 301.1345 -292.4433 -221.0607 30185.3708 -108.0198 -25.7519
ENERGY: 600000 3.2004 5.9682 4.3002 0.0000 -10607.4794 1435.3178 0.0000 0.0000 1752.6339 -7406.0588 300.8068 -9158.6928 -7384.8818 301.2248 -94.6839 22.6066 30170.0547 -99.8638 -12.8767
ENERGY: 900000 2.3186 5.5406 3.0442 0.0000 -10501.7236 1431.3120 0.0000 0.0000 1758.8281 -7300.6802 301.8699 -9059.5083 -7382.3965 300.7658 320.7048 352.1665 30206.3789 52.5154 133.1916
ENERGY: 1200000 4.6436 6.8311 4.3191 0.0000 -10665.3665 1463.7162 0.0000 0.0000 1732.1979 -7453.6586 297.2993 -9185.8565 -7395.0373 300.7349 376.7743 434.0350 29651.1373 32.8638 103.0228
ENERGY: 1500000 1.6779 5.4066 2.6869 0.0000 -10688.2525 1448.5644 0.0000 0.0000 1692.8594 -7537.0572 290.5476 -9229.9167 -7410.2509 299.4164 -255.8785 -170.4709 30118.0359 -69.6345 2.5919
TCL: Running FEP window  15: Lambda1 0.7000000000000001 Lambda2 0.7500000000000001 [dLambda 0.050000000000000044]
TCL: Setting parameter firsttimestep to 0
TCL: Setting parameter alchLambda to 0.7000000000000001
Info: NONBONDED TABLE R-SQUARED SPACING: 0.0625
Info: NONBONDED TABLE SIZE: 705 POINTS
TCL: Setting parameter alchLambda2 to 0.7500000000000001
Info: NONBONDED TABLE R-SQUARED SPACING: 0.0625
Info: NONBONDED TABLE SIZE: 705 POINTS
TCL: Running for 1500000 steps
ETITLE: TS BOND ANGLE DIHED IMPRP ELECT VDW BOUNDARY MISC KINETIC TOTAL TEMP POTENTIAL TOTALAVG TEMPAVG PRESSURE GPRESSURE VOLUME PRESSAVG GPRESSAVG
ENERGY: 0 1.6779 5.4066 2.6869 0.0000 -10688.7684 1448.7752 0.0000 0.0000 1691.9907 -7538.2311 290.3985 -9230.2218 -7538.2311 290.3985 -233.6234 -159.0987 30118.0359 -233.6234 -159.0987
ENERGY: 300000 7.9639 10.1147 3.4009 0.0000 -10539.5299 1396.9323 0.0000 0.0000 1781.3159 -7339.8023 305.7295 -9121.1182 -7400.7992 302.0444 -198.9025 -149.5942 29765.9918 -142.3735 -77.7710
ENERGY: 600000 3.4520 3.9615 6.9066 0.0000 -10527.1356 1436.0970 0.0000 0.0000 1740.2860 -7336.4326 298.6875 -9076.7186 -7421.6271 299.5812 243.3189 323.6380 30154.0525 -84.1269 -30.5415
ENERGY: 900000 2.0943 5.6397 7.8263 0.0000 -10556.0937 1390.2042 0.0000 0.0000 1745.7676 -7404.5615 299.6283 -9150.3291 -7419.3855 299.5088 -188.6860 -111.5954 29790.3923 28.2802 82.1584
ENERGY: 1200000 2.6487 4.9074 1.6593 0.0000 -10586.5842 1464.5136 0.0000 0.0000 1776.3503 -7336.5048 304.8773 -9112.8552 -7418.7063 300.5602 210.4222 241.6807 30393.3582 115.4523 166.3659
ENERGY: 1500000 6.3479 5.0920 3.1583 0.0000 -10761.1542 1516.5839 0.0000 0.0000 1687.4489 -7542.5232 289.6190 -9229.9722 -7422.1081 299.9309 681.7364 720.2668 29897.8838 152.9854 204.1251
TCL: Running FEP window  16: Lambda1 0.7500000000000001 Lambda2 0.8000000000000002 [dLambda 0.050000000000000044]
TCL: Setting parameter firsttimestep to 0
TCL: Setting parameter alchLambda to 0.7500000000000001
Info: NONBONDED TABLE R-SQUARED SPACING: 0.0625
Info: NONBONDED TABLE SIZE: 705 POINTS
TCL: Setting parameter alchLambda2 to 0.8000000000000002
Info: NONBONDED TABLE R-SQUARED SPACING: 0.0625
Info: NONBONDED TABLE SIZE: 705 POINTS
TCL: Running for 1500000 steps
ETITLE: TS BOND ANGLE DIHED IMPRP ELECT VDW BOUNDARY MISC KINETIC TOTAL TEMP POTENTIAL TOTALAVG TEMPAVG PRESSURE GPRESSURE VOLUME PRESSAVG GPRESSAVG
ENERGY: 0 6.3479 5.0920 3.1583 0.0000 -10761.4334 1516.6192 0.0000 0.0000 1686.5896 -7543.6264 289.4715 -9230.2160 -7543.6264 289.4715 653.2467 734.1019 29897.8838 653.2467 734.1019
ENERGY: 300000 3.7540 4.7831 2.0141 0.0000 -10548.6698 1403.6752 0.0000 0.0000 1791.9386 -7342.5047 307.5527 -9134.4433 -7412.1329 297.0204 -265.1567 -159.9776 30302.7561 175.3867 260.0376
ENERGY: 600000 3.4556 7.4527 2.8179 0.0000 -10416.1058 1307.7791 0.0000 0.0000 1756.6629 -7337.9376 301.4983 -9094.6005 -7417.5210 297.7096 -1006.2548 -964.1149 30765.9450 -58.6643 23.6639
ENERGY: 900000 2.7565 4.5268 2.6661 0.0000 -10484.6083 1371.1949 0.0000 0.0000 1751.9069 -7351.5572 300.6820 -9103.4641 -7408.4901 297.8085 -243.3192 -185.3479 30131.2099 -130.9693 -51.0496
ENERGY: 1200000 2.2259 3.4853 2.8204 0.0000 -10581.2472 1425.9347 0.0000 0.0000 1795.4784 -7351.3024 308.1602 -9146.7808 -7400.7482 298.7708 413.2718 473.8369 29646.2505 52.4656 124.2537
ENERGY: 1500000 4.2842 2.7402 1.9409 0.0000 -10625.7932 1435.0193 0.0000 0.0000 1797.3515 -7384.4571 308.4817 -9181.8086 -7398.0615 299.3460 -5.0610 50.1189 30390.9085 36.8851 108.9390
TCL: Running FEP window  17: Lambda1 0.8000000000000002 Lambda2 0.8500000000000002 [dLambda 0.050000000000000044]
TCL: Setting parameter firsttimestep to 0
TCL: Setting parameter alchLambda to 0.8000000000000002
Info: NONBONDED TABLE R-SQUARED SPACING: 0.0625
Info: NONBONDED TABLE SIZE: 705 POINTS
TCL: Setting parameter alchLambda2 to 0.8500000000000002
Info: NONBONDED TABLE R-SQUARED SPACING: 0.0625
Info: NONBONDED TABLE SIZE: 705 POINTS
TCL: Running for 1500000 steps
ETITLE: TS BOND ANGLE DIHED IMPRP ELECT VDW BOUNDARY MISC KINETIC TOTAL TEMP POTENTIAL TOTALAVG TEMPAVG PRESSURE GPRESSURE VOLUME PRESSAVG GPRESSAVG
ENERGY: 0 4.2842 2.7402 1.9409 0.0000 -10626.3574 1434.5219 0.0000 0.0000 1796.4558 -7386.4144 308.3280 -9182.8702 -7386.4144 308.3280 -30.4779 53.8420 30390.9085 -30.4779 53.8420
ENERGY: 300000 0.8495 8.4361 1.4943 0.0000 -10645.0081 1412.8370 0.0000 0.0000 1759.0659 -7462.3253 301.9107 -9221.3912 -7429.1940 302.3622 -130.1342 -35.4057 29841.2153 -55.4265 36.3471
ENERGY: 600000 2.1986 3.7537 2.3468 0.0000 -10615.7787 1476.4513 0.0000 0.0000 1803.6713 -7327.3571 309.5664 -9131.0284 -7401.6382 304.8430 533.4263 544.4063 30011.2613 -183.2312 -109.2452
ENERGY: 900000 4.9716 2.8713 2.1605 0.0000 -10570.8023 1387.9121 0.0000 0.0000 1727.8851 -7445.0017 296.5591 -9172.8868 -7412.7496 302.3778 -445.1378 -412.5882 30246.8464 -282.0604 -218.3583
ENERGY: 1200000 4.1463 5.0048 2.5908 0.0000 -10600.4039 1434.8814 0.0000 0.0000 1739.8372 -7413.9434 298.6105 -9153.7806 -7406.6502 302.2322 225.8924 288.0837 29899.5075 -307.0465 -246.4470
ENERGY: 1500000 3.6808 3.4554 4.3348 0.0000 -10675.2653 1446.1980 0.0000 0.0000 1771.4432 -7446.1530 304.0350 -9217.5962 -7408.3684 302.2377 64.2489 94.7677 29906.7860 -174.7833 -119.6625
TCL: Running FEP window  18: Lambda1 0.8500000000000002 Lambda2 0.9000000000000002 [dLambda 0.050000000000000044]
TCL: Setting parameter firsttimestep to 0
TCL: Setting parameter alchLambda to 0.8500000000000002
Info: NONBONDED TABLE R-SQUARED SPACING: 0.0625
Info: NONBONDED TABLE SIZE: 705 POINTS
TCL: Setting parameter alchLambda2 to 0.9000000000000002
Info: NONBONDED TABLE R-SQUARED SPACING: 0.0625
Info: NONBONDED TABLE SIZE: 705 POINTS
TCL: Running for 1500000 steps
ETITLE: TS BOND ANGLE DIHED IMPRP ELECT VDW BOUNDARY MISC KINETIC TOTAL TEMP POTENTIAL TOTALAVG TEMPAVG PRESSURE GPRESSURE VOLUME PRESSAVG GPRESSAVG
ENERGY: 0 3.6808 3.4554 4.3348 0.0000 -10676.1631 1445.8576 0.0000 0.0000 1770.5883 -7448.2461 303.8883 -9218.8345 -7448.2461 303.8883 20.5129 102.2156 29906.7860 20.5129 102.2156
ENERGY: 300000 1.8667 7.0559 5.3020 0.0000 -10713.0476 1477.0086 0.0000 0.0000 1779.0847 -7442.7296 305.3466 -9221.8143 -7410.2477 303.7863 127.5732 184.2783 30245.6123 88.6511 146.9643
ENERGY: 600000 3.3865 8.9859 1.4228 0.0000 -10738.0809 1462.0111 0.0000 0.0000 1762.5208 -7499.7537 302.5037 -9262.2746 -7418.2265 303.9554 144.0674 216.6195 29862.1719 12.7445 72.7235
ENERGY: 900000 4.7106 10.1197 2.1873 0.0000 -10456.4318 1314.4335 0.0000 0.0000 1763.6626 -7361.3181 302.6997 -9124.9807 -7416.2454 303.8686 -661.4589 -596.0274 29980.5846 2.8488 65.9589
ENERGY: 1200000 4.8134 8.0558 3.8198 0.0000 -10715.6165 1486.0655 0.0000 0.0000 1758.7549 -7454.1070 301.8573 -9212.8619 -7417.9341 302.9121 271.5214 255.0672 30158.3123 48.1266 105.7469
ENERGY: 1500000 9.2095 3.3383 4.3744 0.0000 -10539.7077 1379.2723 0.0000 0.0000 1738.8542 -7404.6589 298.4418 -9143.5131 -7410.8032 302.4577 -353.1332 -275.3495 30212.0865 -6.9202 55.2775
TCL: Running FEP window  19: Lambda1 0.9000000000000002 Lambda2 0.9500000000000003 [dLambda 0.050000000000000044]
TCL: Setting parameter firsttimestep to 0
TCL: Setting parameter alchLambda to 0.9000000000000002
Info: NONBONDED TABLE R-SQUARED SPACING: 0.0625
Info: NONBONDED TABLE SIZE: 705 POINTS
TCL: Setting parameter alchLambda2 to 0.9500000000000003
Info: NONBONDED TABLE R-SQUARED SPACING: 0.0625
Info: NONBONDED TABLE SIZE: 705 POINTS
TCL: Running for 1500000 steps
ETITLE: TS BOND ANGLE DIHED IMPRP ELECT VDW BOUNDARY MISC KINETIC TOTAL TEMP POTENTIAL TOTALAVG TEMPAVG PRESSURE GPRESSURE VOLUME PRESSAVG GPRESSAVG
ENERGY: 0 9.2095 3.3383 4.3744 0.0000 -10540.2406 1379.1791 0.0000 0.0000 1738.0011 -7406.1381 298.2953 -9144.1392 -7406.1381 298.2953 -341.2324 -261.2909 30212.0865 -341.2324 -261.2909
ENERGY: 300000 3.9045 5.1860 6.2126 0.0000 -10542.5159 1371.1329 0.0000 0.0000 1765.5847 -7390.4952 303.0295 -9156.0798 -7408.2091 298.4170 -602.4926 -526.5960 30095.2727 -275.7895 -212.5761
ENERGY: 600000 3.9300 7.1790 6.4992 0.0000 -10465.6814 1326.3970 0.0000 0.0000 1710.3959 -7411.2803 293.5574 -9121.6762 -7412.1617 298.6678 -555.3943 -547.9903 30318.8015 -396.0204 -337.3825
ENERGY: 900000 3.2502 3.8756 2.5915 0.0000 -10778.0620 1545.3849 0.0000 0.0000 1727.8649 -7495.0949 296.5556 -9222.9597 -7402.8157 298.4911 939.0743 1013.9975 29620.2563 -256.2405 -197.3427
ENERGY: 1200000 5.4307 6.5690 2.0648 0.0000 -10678.2383 1442.1404 0.0000 0.0000 1790.0130 -7432.0203 307.2222 -9222.0333 -7408.2727 298.7191 61.0857 96.9196 29788.6239 -219.2736 -168.7445
ENERGY: 1500000 3.4796 4.2257 5.6014 0.0000 -10530.1700 1419.7291 0.0000 0.0000 1732.1796 -7364.9546 297.2962 -9097.1343 -7409.1039 298.7435 245.5769 285.9946 30257.4516 -112.3724 -64.1466
TCL: Running FEP window  20: Lambda1 0.9500000000000003 Lambda2 1.0    [dLambda 0.04999999999999971]
TCL: Setting parameter firsttimestep to 0
TCL: Setting parameter alchLambda to 0.9500000000000003
Info: NONBONDED TABLE R-SQUARED SPACING: 0.0625
Info: NONBONDED TABLE SIZE: 705 POINTS
TCL: Setting parameter alchLambda2 to 1.0
Info: NONBONDED TABLE R-SQUARED SPACING: 0.0625
Info: NONBONDED TABLE SIZE: 705 POINTS
TCL: Running for 1500000 steps
ETITLE: TS BOND ANGLE DIHED IMPRP ELECT VDW BOUNDARY MISC KINETIC TOTAL TEMP POTENTIAL TOTALAVG TEMPAVG PRESSURE GPRESSURE VOLUME PRESSAVG GPRESSAVG
ENERGY: 0 3.4796 4.2257 5.6014 0.0000 -10531.0841 1419.8843 0.0000 0.0000 1731.3539 -7366.5393 297.1545 -9097.8932 -7366.5393 297.1545 231.4354 301.0735 30257.4516 231.4354 301.0735
ENERGY: 300000 1.1254 3.2400 4.9335 0.0000 -10522.1243 1404.6360 0.0000 0.0000 1792.0757 -7316.1136 307.5762 -9108.1893 -7373.7736 300.8603 263.2541 316.8534 30202.9066 178.1698 219.2996
ENERGY: 600000 4.6365 5.2796 4.6785 0.0000 -10621.1117 1416.1049 0.0000 0.0000 1777.7432 -7412.6691 305.1163 -9190.4123 -7368.7769 301.6190 -130.7529 -93.8689 30233.1751 104.8595 152.2480
ENERGY: 900000 2.8198 3.9894 4.0760 0.0000 -10523.5751 1394.3952 0.0000 0.0000 1798.2683 -7320.0264 308.6391 -9118.2947 -7369.4091 302.3540 -168.7275 -122.9832 30633.1505 43.9068 91.0938
ENERGY: 1200000 3.6693 3.1453 4.4947 0.0000 -10464.8666 1337.8990 0.0000 0.0000 1744.2410 -7371.4173 299.3663 -9115.6583 -7386.8609 301.2755 -781.5726 -732.8174 30589.2766 47.1861 102.2566
ENERGY: 1500000 1.6559 3.4580 2.8767 0.0000 -10723.6603 1457.7623 0.0000 0.0000 1751.7879 -7506.1195 300.6616 -9257.9074 -7398.5654 301.1972 368.7061 484.3716 29502.4339 21.5587 83.4856
TCL: Exiting due to exit command.
