Info: SIMULATION PARAMETERS:
Info: TIMESTEP               2
Info: NUMBER OF STEPS        0
Info: STEPS PER CYCLE        10
Info: PERIODIC CELL BASIS 1  31.8274 0 0
Info: PERIODIC CELL BASIS 2  0 30.1434 0
Info: PERIODIC CELL BASIS 3  0 0 31.9989
Info: PERIODIC CELL CENTER   0 0 0
Info: WRAPPING WATERS AROUND PERIODIC BOUNDARIES ON OUTPUT.
Info: WRAPPING ALL CLUSTERS AROUND PERIODIC BOUNDARIES ON OUTPUT.
Info: FIRST LDB TIMESTEP     50
Info: LAST LDB TIMESTEP     -1
Info: HOM BACKGROUND SCALING 1
Info: PME BACKGROUND SCALING 1
Info: MIN ATOMS PER PATCH    40
Info: EMPTY PATCH LOAD       40 ATOMS
Info: VELOCITY FILE          mobley_6416775_equil.vel
Info: CENTER OF MASS MOVING INITIALLY? NO
Info: DIELECTRIC             1
Info: EXCLUDE                SCALED ONE-FOUR
Info: 1-4 ELECTROSTATICS SCALED BY 0.833333
Info: MODIFIED 1-4 VDW PARAMETERS WILL BE USED
Info: DCD FILENAME           mobley_6416775_prod.dcd
Info: DCD FREQUENCY          100000
Info: DCD FIRST STEP         100000
Info: DCD FILE WILL CONTAIN UNIT CELL DATA
Info: XST FILENAME           mobley_6416775_prod.xst
Info: XST FREQUENCY          100000
Info: NO VELOCITY DCD OUTPUT
Info: NO FORCE DCD OUTPUT
Info: OUTPUT FILENAME        mobley_6416775_prod
Info: BINARY OUTPUT FILES WILL BE USED
Info: RESTART FILENAME       mobley_6416775_prod.restart
Info: RESTART FREQUENCY      100000
Info: BINARY RESTART FILES WILL BE USED
Info: CUTOFF                 9
Info: PAIRLIST DISTANCE      11
Info: PAIRLIST SHRINK RATE   0.01
Info: PAIRLIST GROW RATE     0.01
Info: PAIRLIST TRIGGER       0.3
Info: PAIRLISTS PER CYCLE    2
Info: PAIRLISTS ENABLED
Info: MARGIN                 2
Info: HYDROGEN GROUP CUTOFF  2.5
Info: PATCH DIMENSION        15.5
Info: ENERGY OUTPUT STEPS    100000
Info: ENERGY EVALUATION STEPS    100000
Info: OUTPUT ENERGY PRECISION 4
Info: CROSSTERM ENERGY INCLUDED IN DIHEDRAL
Info: TIMING OUTPUT STEPS    1000000
Info: PRESSURE OUTPUT STEPS  100000
Info: ALCHEMICAL FEP ON
Info: FEP CURRENT LAMBDA VALUE     0
Info: FEP COMPARISON LAMBDA VALUE  0.05
Info: FEP INTRA-ALCHEMICAL NON-BONDED INTERACTIONS WILL BE RETAINED
Info: FEP INTRA-ALCHEMICAL BONDED INTERACTIONS WILL BE RETAINED
Info: FEP VDW SHIFTING COEFFICIENT 5
Info: FEP ELEC. ACTIVE FOR ANNIHILATED PARTICLES BETWEEN LAMBDA = 0 AND LAMBDA = 0.5
Info: FEP ELEC. ACTIVE FOR EXNIHILATED PARTICLES BETWEEN LAMBDA = 0.5 AND LAMBDA = 1
Info: FEP VDW ACTIVE FOR ANNIHILATED PARTICLES BETWEEN LAMBDA = 0 AND LAMBDA = 1
Info: FEP VDW ACTIVE FOR EXNIHILATED PARTICLES BETWEEN LAMBDA = 0 AND LAMBDA = 1
Info: FEP BOND ACTIVE FOR ANNIHILATED PARTICLES BETWEEN LAMBDA = 1 AND LAMBDA = 1
Info: FEP BOND ACTIVE FOR EXNIHILATED PARTICLES BETWEEN LAMBDA = 0 AND LAMBDA = 0
Info: LANGEVIN DYNAMICS ACTIVE
Info: LANGEVIN TEMPERATURE   300
Info: LANGEVIN USING BBK INTEGRATOR
Info: LANGEVIN DAMPING COEFFICIENT IS 1 INVERSE PS
Info: LANGEVIN DYNAMICS APPLIED TO HYDROGENS
Info: LANGEVIN PISTON PRESSURE CONTROL ACTIVE
Info:        TARGET PRESSURE IS 1.01325 BAR
Info:     OSCILLATION PERIOD IS 50 FS
Info:             DECAY TIME IS 25 FS
Info:     PISTON TEMPERATURE IS 300 K
Info:       PRESSURE CONTROL IS GROUP-BASED
Info:    INITIAL STRAIN RATE IS -7.24132e-05 -7.24132e-05 -7.24132e-05
Info:       CELL FLUCTUATION IS ISOTROPIC
Info: PARTICLE MESH EWALD (PME) ACTIVE
Info: PME TOLERANCE               1e-06
Info: PME EWALD COEFFICIENT       0.348832
Info: PME INTERPOLATION ORDER     4
Info: PME GRID DIMENSIONS         32 32 32
Info: PME MAXIMUM GRID SPACING    1
Info: PME CALCULATION WILL BE PERFORMED ON GPU
Info: FULL ELECTROSTATIC EVALUATION FREQUENCY      2
Info: USING VERLET I (r-RESPA) MTS SCHEME.
Info: C1 SPLITTING OF LONG RANGE ELECTROSTATICS
Info: PLACING ATOMS IN PATCHES BY HYDROGEN GROUPS
Info: RIGID BONDS TO HYDROGEN : ALL
Info:         ERROR TOLERANCE : 1e-08
Info:          MAX ITERATIONS : 100
Info: RIGID WATER USING SETTLE ALGORITHM
Info: RANDOM NUMBER SEED     1743887682
Info: USE HYDROGEN BONDS?    NO
Info: Using AMBER format force field!
Info: AMBER PARM FILE        mobley_6416775.prmtop
Info: COORDINATE PDB         mobley_6416775.pdb
Info: Exclusions will be read from PARM file!
Info: SCNB (VDW SCALING)     2
Info: USING ARITHMETIC MEAN TO COMBINE L-J SIGMA PARAMETERS
Info: BINARY COORDINATES     mobley_6416775_equil.coor
Info: SUMMARY OF PARAMETERS:
Info: 4 BONDS
Info: 3 ANGLES
Info:   3 HARMONIC
Info:   0 COSINE-BASED
Info: 5 DIHEDRAL
Info: 0 IMPROPER
Info: 0 CROSSTERM
Info: 0 VDW
Info: 10 VDW_PAIRS
Info: 0 NBTHOLE_PAIRS
Info: To read alchdata from file: mobley_6416775.pdb
Info: To read alchflag data from column: 5
Info: STRUCTURE SUMMARY:
Info: 2931 ATOMS
Info: 2931 BONDS
Info: 48 ANGLES
Info: 92 DIHEDRALS
Info: 0 IMPROPERS
Info: 0 CROSSTERMS
Info: 3046 EXCLUSIONS
Info: 2923 RIGID BONDS
Info: ALCH: 0 ATOMS TO DISAPPEAR IN FINAL STATE
Info: ALCH: 24 ATOMS TO APPEAR IN FINAL STATE
Info: 5870 DEGREES OF FREEDOM
Info: 977 HYDROGEN GROUPS
Info: 4 ATOMS IN LARGEST HYDROGEN GROUP
Info: 977 MIGRATION GROUPS
Info: 4 ATOMS IN LARGEST MIGRATION GROUP
Info: TOTAL MASS = 17569.7 amu
Info: TOTAL CHARGE = 4.47035e-08 e
Info: MASS DENSITY = 0.950376 g/cm^3
Info: ATOM DENSITY = 0.0954745 atoms/A^3
Info: ADDED 0 IMPLICIT EXCLUSIONS
Info: NONBONDED TABLE R-SQUARED SPACING: 0.0625
Info: NONBONDED TABLE SIZE: 705 POINTS
Info: REMOVING COM VELOCITY 0.260755 -0.167753 0.0302768
Info: Use 3D box decompostion in PME FFT.
Info: Updated CUDA force table with 4096 elements.
Info: Updated CUDA LJ table with 4 x 4 elements.
Info: Found 27 unique exclusion lists needing 92 bytes
TCL: Running for 1500000 steps
ETITLE: TS BOND ANGLE DIHED IMPRP ELECT VDW BOUNDARY MISC KINETIC TOTAL TEMP POTENTIAL TOTALAVG TEMPAVG PRESSURE GPRESSURE VOLUME PRESSAVG GPRESSAVG
ENERGY: 0 3.8957 13.6382 13.3187 0.0000 -10608.2357 1427.6095 0.0000 0.0000 1789.3795 -7360.3941 306.7996 -9149.7737 -7360.3941 306.7996 -361.3535 -283.7482 30699.3004 -361.3535 -283.7482
ENERGY: 300000 1.6023 13.9251 10.1370 0.0000 -10561.6011 1432.8347 0.0000 0.0000 1822.7196 -7280.3825 312.5159 -9103.1021 -7319.0294 307.2524 70.8307 124.0233 30030.8208 -83.2364 -14.6300
ENERGY: 600000 1.8038 21.1399 10.8512 0.0000 -10578.3812 1454.9669 0.0000 0.0000 1755.2138 -7334.4056 300.9417 -9089.6194 -7337.1848 305.0298 516.9520 547.1695 29747.1139 113.6359 152.6376
ENERGY: 900000 2.3998 11.4617 12.9024 0.0000 -10627.3597 1448.1671 0.0000 0.0000 1748.6791 -7403.7496 299.8212 -9152.4287 -7353.7774 304.4354 -180.3966 -116.1511 30280.7249 89.1326 135.5338
ENERGY: 1200000 2.1707 18.0167 12.1239 0.0000 -10611.7521 1463.0408 0.0000 0.0000 1790.2443 -7326.1557 306.9478 -9116.4000 -7360.5698 304.1102 128.7183 144.5519 30462.4097 123.4802 173.1177
ENERGY: 1500000 3.8650 20.9403 9.8916 0.0000 -10563.5615 1426.0866 0.0000 0.0000 1735.3817 -7367.3962 297.5413 -9102.7779 -7367.4713 302.3705 -51.9916 56.7153 29923.7499 -47.6897 8.1894
TCL: Running FEP window   2: Lambda1 0.05   Lambda2 0.1    [dLambda 0.05  ]
TCL: Setting parameter firsttimestep to 0
TCL: Setting parameter alchLambda to 0.05
Info: NONBONDED TABLE R-SQUARED SPACING: 0.0625
Info: NONBONDED TABLE SIZE: 705 POINTS
TCL: Setting parameter alchLambda2 to 0.1
Info: NONBONDED TABLE R-SQUARED SPACING: 0.0625
Info: NONBONDED TABLE SIZE: 705 POINTS
TCL: Running for 1500000 steps
ETITLE: TS BOND ANGLE DIHED IMPRP ELECT VDW BOUNDARY MISC KINETIC TOTAL TEMP POTENTIAL TOTALAVG TEMPAVG PRESSURE GPRESSURE VOLUME PRESSAVG GPRESSAVG
ENERGY: 0 3.8651 20.9403 9.8916 0.0000 -10563.5632 1426.7451 0.0000 0.0000 1734.5121 -7367.6090 297.3922 -9102.1211 -7367.6090 297.3922 -22.6351 59.6343 29923.7499 -22.6351 59.6343
ENERGY: 300000 1.7829 13.2735 10.7863 0.0000 -10442.9025 1383.6093 0.0000 0.0000 1824.5850 -7208.8654 312.8358 -9033.4504 -7359.5010 301.0185 35.8258 68.6464 29884.2095 -96.6324 -32.2750
ENERGY: 600000 1.4270 17.2480 10.4258 0.0000 -10680.3388 1516.8977 0.0000 0.0000 1828.9381 -7305.4023 313.5821 -9134.3403 -7358.1754 302.7916 761.9137 836.1332 29931.7508 11.2868 75.6286
ENERGY: 900000 4.1824 17.6100 11.3391 0.0000 -10673.4615 1539.3070 0.0000 0.0000 1742.6873 -7358.3358 298.7939 -9101.0231 -7361.3874 300.5722 948.8334 991.4528 29706.9204 115.3003 184.6658
ENERGY: 1200000 1.0632 16.5006 12.1925 0.0000 -10476.8835 1319.7251 0.0000 0.0000 1760.3839 -7367.0183 301.8281 -9127.4023 -7360.3111 300.5102 -582.6070 -576.5594 29618.2795 80.0612 144.1594
ENERGY: 1500000 1.6925 11.6053 12.0670 0.0000 -10598.2321 1444.2256 0.0000 0.0000 1719.6143 -7409.0275 294.8379 -9128.6418 -7363.5539 300.1765 69.1972 196.6023 30055.1645 -8.2872 56.6040
TCL: Running FEP window   3: Lambda1 0.1    Lambda2 0.15000000000000002 [dLambda 0.05000000000000002]
TCL: Setting parameter firsttimestep to 0
TCL: Setting parameter alchLambda to 0.1
Info: NONBONDED TABLE R-SQUARED SPACING: 0.0625
Info: NONBONDED TABLE SIZE: 705 POINTS
TCL: Setting parameter alchLambda2 to 0.15000000000000002
Info: NONBONDED TABLE R-SQUARED SPACING: 0.0625
Info: NONBONDED TABLE SIZE: 705 POINTS
TCL: Running for 1500000 steps
ETITLE: TS BOND ANGLE DIHED IMPRP ELECT VDW BOUNDARY MISC KINETIC TOTAL TEMP POTENTIAL TOTALAVG TEMPAVG PRESSURE GPRESSURE VOLUME PRESSAVG GPRESSAVG
ENERGY: 0 1.6925 11.6053 12.0670 0.0000 -10598.2313 1444.7460 0.0000 0.0000 1718.7445 -7409.3760 294.6888 -9128.1205 -7409.3760 294.6888 122.6450 201.0799 30055.1645 122.6450 201.0799
ENERGY: 300000 1.4407 13.1152 15.8318 0.0000 -10487.0508 1357.7445 0.0000 0.0000 1757.9344 -7340.9842 301.4081 -9098.9186 -7355.4326 298.9341 -159.2310 -120.0776 29720.6709 29.3725 73.8218
ENERGY: 600000 3.1288 12.6801 13.9786 0.0000 -10590.2304 1395.9943 0.0000 0.0000 1779.2959 -7385.1527 305.0707 -9164.4486 -7355.7884 300.5458 -279.4122 -183.7597 29754.7577 49.2761 91.4937
ENERGY: 900000 2.6383 15.8868 14.3418 0.0000 -10604.2165 1455.0568 0.0000 0.0000 1719.1492 -7397.1437 294.7582 -9116.2929 -7369.8025 299.6034 162.5293 218.2291 29975.7060 -40.9838 10.8956
ENERGY: 1200000 1.5912 16.5486 12.4285 0.0000 -10564.1868 1413.0104 0.0000 0.0000 1690.6044 -7430.0037 289.8640 -9120.6081 -7379.5855 298.1693 -188.2543 -148.5052 30045.5851 30.3908 82.1655
ENERGY: 1500000 0.8917 10.2766 12.1744 0.0000 -10613.2933 1437.1471 0.0000 0.0000 1760.4813 -7392.3222 301.8448 -9152.8035 -7384.5538 298.0829 576.8992 704.6914 29132.8850 -3.4074 55.3306
TCL: Running FEP window   4: Lambda1 0.15000000000000002 Lambda2 0.2    [dLambda 0.04999999999999999]
TCL: Setting parameter firsttimestep to 0
TCL: Setting parameter alchLambda to 0.15000000000000002
Info: NONBONDED TABLE R-SQUARED SPACING: 0.0625
Info: NONBONDED TABLE SIZE: 705 POINTS
TCL: Setting parameter alchLambda2 to 0.2
Info: NONBONDED TABLE R-SQUARED SPACING: 0.0625
Info: NONBONDED TABLE SIZE: 705 POINTS
TCL: Running for 1500000 steps
ETITLE: TS BOND ANGLE DIHED IMPRP ELECT VDW BOUNDARY MISC KINETIC TOTAL TEMP POTENTIAL TOTALAVG TEMPAVG PRESSURE GPRESSURE VOLUME PRESSAVG GPRESSAVG
ENERGY: 0 0.8917 10.2766 12.1744 0.0000 -10613.2926 1438.1385 0.0000 0.0000 1759.5866 -7392.2248 301.6914 -9151.8114 -7392.2248 301.6914 632.8130 714.9463 29132.8850 632.8130 714.9463
ENERGY: 300000 3.1346 16.9699 16.0997 0.0000 -10418.0264 1322.7722 0.0000 0.0000 1689.8485 -7369.2014 289.7344 -9059.0500 -7349.6823 302.1751 -589.2537 -555.7862 30201.1272 456.9879 518.6985
ENERGY: 600000 2.3623 17.0031 13.0968 0.0000 -10484.4279 1349.7109 0.0000 0.0000 1722.8082 -7379.4466 295.3855 -9102.2548 -7367.0683 300.1877 -597.9662 -569.6570 30258.5568 8.8049 65.3947
ENERGY: 900000 4.8807 16.0060 12.6549 0.0000 -10602.8383 1449.9281 0.0000 0.0000 1765.4880 -7353.8807 302.7032 -9119.3687 -7357.8215 300.9300 352.6004 374.1393 29667.8274 10.7976 58.9942
ENERGY: 1200000 3.6260 10.4057 14.9362 0.0000 -10667.6592 1441.2402 0.0000 0.0000 1762.8478 -7434.6034 302.2505 -9197.4512 -7354.2762 300.5072 -329.2402 -266.8755 30026.6825 -38.9924 11.9974
ENERGY: 1500000 1.9010 19.3377 11.3430 0.0000 -10540.8820 1392.5823 0.0000 0.0000 1657.4762 -7458.2417 284.1840 -9115.7179 -7365.0381 299.7634 -513.8260 -483.4885 30216.5540 22.7837 70.9295
TCL: Running FEP window   5: Lambda1 0.2    Lambda2 0.25   [dLambda 0.04999999999999999]
TCL: Setting parameter firsttimestep to 0
TCL: Setting parameter alchLambda to 0.2
Info: NONBONDED TABLE R-SQUARED SPACING: 0.0625
Info: NONBONDED TABLE SIZE: 705 POINTS
TCL: Setting parameter alchLambda2 to 0.25
Info: NONBONDED TABLE R-SQUARED SPACING: 0.0625
Info: NONBONDED TABLE SIZE: 705 POINTS
TCL: Running for 1500000 steps
ETITLE: TS BOND ANGLE DIHED IMPRP ELECT VDW BOUNDARY MISC KINETIC TOTAL TEMP POTENTIAL TOTALAVG TEMPAVG PRESSURE GPRESSURE VOLUME PRESSAVG GPRESSAVG
ENERGY: 0 1.9010 19.3377 11.3430 0.0000 -10540.8811 1392.4079 0.0000 0.0000 1656.5885 -7459.3030 284.0318 -9115.8915 -7459.3030 284.0318 -566.9234 -479.5879 30216.5540 -566.9234 -479.5879
ENERGY: 300000 2.7045 18.6030 13.6970 0.0000 -10490.3310 1395.5459 0.0000 0.0000 1731.2386 -7328.5421 296.8310 -9059.7806 -7408.2476 292.7261 -274.5685 -221.1557 30294.4602 -161.3287 -116.4437
ENERGY: 600000 2.4230 12.8498 14.1080 0.0000 -10597.7261 1427.1517 0.0000 0.0000 1735.9017 -7405.2919 297.6305 -9141.1936 -7402.1290 294.2159 231.5877 295.2460 29547.9043 -12.2273 45.7226
ENERGY: 900000 3.1450 21.5956 10.9416 0.0000 -10572.3316 1403.4689 0.0000 0.0000 1736.4139 -7396.7665 297.7183 -9133.1805 -7410.3876 295.5733 -288.2219 -125.4696 29975.4377 -38.8467 27.6799
ENERGY: 1200000 3.0300 17.0259 10.4289 0.0000 -10610.2317 1468.2673 0.0000 0.0000 1762.6379 -7348.8417 302.2146 -9111.4796 -7392.3640 298.1695 309.2064 393.4333 29943.8321 36.5387 98.9690
ENERGY: 1500000 1.4248 21.3387 10.8453 0.0000 -10728.7888 1483.4758 0.0000 0.0000 1774.6326 -7437.0716 304.2711 -9211.7042 -7385.9989 298.7613 298.2857 329.7806 29805.4787 89.5070 147.9719
TCL: Running FEP window   6: Lambda1 0.25   Lambda2 0.3    [dLambda 0.04999999999999999]
TCL: Setting parameter firsttimestep to 0
TCL: Setting parameter alchLambda to 0.25
Info: NONBONDED TABLE R-SQUARED SPACING: 0.0625
Info: NONBONDED TABLE SIZE: 705 POINTS
TCL: Setting parameter alchLambda2 to 0.3
Info: NONBONDED TABLE R-SQUARED SPACING: 0.0625
Info: NONBONDED TABLE SIZE: 705 POINTS
TCL: Running for 1500000 steps
ETITLE: TS BOND ANGLE DIHED IMPRP ELECT VDW BOUNDARY MISC KINETIC TOTAL TEMP POTENTIAL TOTALAVG TEMPAVG PRESSURE GPRESSURE VOLUME PRESSAVG GPRESSAVG
ENERGY: 0 1.4248 21.3387 10.8453 0.0000 -10728.7889 1483.5882 0.0000 0.0000 1773.7438 -7437.8481 304.1187 -9211.5919 -7437.8481 304.1187 265.7097 337.1754 29805.4787 265.7097 337.1754
ENERGY: 300000 2.1695 18.3850 10.2285 0.0000 -10651.4422 1465.7423 0.0000 0.0000 1776.5877 -7378.3292 304.6063 -9154.9169 -7380.0849 304.6048 18.8537 63.7734 30399.6456 61.3262 121.5055
ENERGY: 600000 2.0486 14.2672 13.7463 0.0000 -10685.8312 1470.0333 0.0000 0.0000 1802.3440 -7383.3918 309.0224 -9185.7358 -7378.2370 303.3011 160.0589 217.7644 29669.6992 151.9547 216.6835
ENERGY: 900000 1.1458 14.4225 11.9269 0.0000 -10571.0806 1448.1546 0.0000 0.0000 1725.4530 -7369.9778 295.8390 -9095.4309 -7380.4807 302.0349 150.4386 217.2822 30374.7126 274.0823 336.9675
ENERGY: 1200000 3.3852 13.0265 11.8094 0.0000 -10671.7850 1524.7996 0.0000 0.0000 1750.7744 -7367.9899 300.1805 -9118.7643 -7377.1211 300.8201 1061.5826 1117.2620 29510.4931 300.3934 365.0479
ENERGY: 1500000 2.2810 16.1739 11.4635 0.0000 -10642.1624 1419.2745 0.0000 0.0000 1727.7921 -7465.1773 296.2401 -9192.9695 -7377.2508 301.0595 -254.0549 -244.2976 30123.1861 216.2835 283.5816
TCL: Running FEP window   7: Lambda1 0.3    Lambda2 0.35   [dLambda 0.04999999999999999]
TCL: Setting parameter firsttimestep to 0
TCL: Setting parameter alchLambda to 0.3
Info: NONBONDED TABLE R-SQUARED SPACING: 0.0625
Info: NONBONDED TABLE SIZE: 705 POINTS
TCL: Setting parameter alchLambda2 to 0.35
Info: NONBONDED TABLE R-SQUARED SPACING: 0.0625
Info: NONBONDED TABLE SIZE: 705 POINTS
TCL: Running for 1500000 steps
ETITLE: TS BOND ANGLE DIHED IMPRP ELECT VDW BOUNDARY MISC KINETIC TOTAL TEMP POTENTIAL TOTALAVG TEMPAVG PRESSURE GPRESSURE VOLUME PRESSAVG GPRESSAVG
ENERGY: 0 2.2810 16.1739 11.4635 0.0000 -10642.1612 1418.7551 0.0000 0.0000 1726.9211 -7466.5666 296.0907 -9193.4877 -7466.5666 296.0907 -312.2436 -241.8890 30123.1861 -312.2436 -241.8890
ENERGY: 300000 2.1210 16.9791 11.4126 0.0000 -10539.8981 1394.7838 0.0000 0.0000 1733.4973 -7381.1043 297.2182 -9114.6016 -7378.6134 297.6903 -182.4774 -117.2930 29717.4516 -450.2302 -367.8103
ENERGY: 600000 1.1714 16.3261 10.6642 0.0000 -10638.5213 1424.2340 0.0000 0.0000 1716.7370 -7469.3887 294.3446 -9186.1257 -7349.3123 300.5641 -122.0521 9.6445 29895.5643 -222.4904 -132.1921
ENERGY: 900000 2.1418 13.7753 13.3651 0.0000 -10499.8295 1363.6205 0.0000 0.0000 1737.4899 -7369.4370 297.9028 -9106.9269 -7354.9197 300.2630 -720.0842 -648.6287 30412.3065 -282.7523 -209.8901
ENERGY: 1200000 1.6188 14.1865 13.8523 0.0000 -10508.6972 1405.9498 0.0000 0.0000 1823.3969 -7249.6928 312.6320 -9073.0897 -7353.0014 301.4416 -132.6907 -70.0345 30384.0339 -251.5567 -177.5748
ENERGY: 1500000 1.5801 14.7958 12.3340 0.0000 -10569.1902 1462.2182 0.0000 0.0000 1754.9480 -7323.3142 300.8961 -9078.2623 -7352.7075 300.8598 478.4882 573.2631 29851.6153 -224.8288 -157.9362
TCL: Running FEP window   8: Lambda1 0.35   Lambda2 0.39999999999999997 [dLambda 0.04999999999999999]
TCL: Setting parameter firsttimestep to 0
TCL: Setting parameter alchLambda to 0.35
Info: NONBONDED TABLE R-SQUARED SPACING: 0.0625
Info: NONBONDED TABLE SIZE: 705 POINTS
TCL: Setting parameter alchLambda2 to 0.39999999999999997
Info: NONBONDED TABLE R-SQUARED SPACING: 0.0625
Info: NONBONDED TABLE SIZE: 705 POINTS
TCL: Running for 1500000 steps
ETITLE: TS BOND ANGLE DIHED IMPRP ELECT VDW BOUNDARY MISC KINETIC TOTAL TEMP POTENTIAL TOTALAVG TEMPAVG PRESSURE GPRESSURE VOLUME PRESSAVG GPRESSAVG
ENERGY: 0 1.5801 14.7958 12.3340 0.0000 -10569.1903 1463.6792 0.0000 0.0000 1754.0462 -7322.7551 300.7415 -9076.8013 -7322.7551 300.7415 492.3257 585.5416 29851.6153 492.3257 585.5416
ENERGY: 300000 1.9815 15.7154 11.1063 0.0000 -10559.5537 1403.5386 0.0000 0.0000 1698.6025 -7428.6092 291.2353 -9127.2118 -7371.7004 296.1994 -495.4247 -413.8192 30747.0410 356.4983 411.4400
ENERGY: 600000 1.6029 20.0865 11.6127 0.0000 -10626.4912 1449.1633 0.0000 0.0000 1781.9863 -7362.0395 305.5320 -9144.0258 -7374.9672 298.8429 331.4697 372.5737 30001.0185 132.2313 186.4076
ENERGY: 900000 0.6598 16.6554 12.5898 0.0000 -10599.5817 1427.6578 0.0000 0.0000 1767.4974 -7374.5215 303.0478 -9142.0190 -7370.3238 299.7059 27.1793 157.8857 29791.3364 26.5992 93.5119
ENERGY: 1200000 4.7124 14.0182 12.4533 0.0000 -10582.1997 1365.7935 0.0000 0.0000 1769.2161 -7416.0060 303.3424 -9185.2222 -7372.1136 300.6503 -902.7348 -864.0192 30544.6280 -96.8699 -30.2556
ENERGY: 1500000 2.0526 15.2652 9.9182 0.0000 -10535.6029 1364.9621 0.0000 0.0000 1784.8761 -7358.5287 306.0274 -9143.4048 -7372.3084 301.2969 -532.2282 -490.0749 30062.3666 -132.9222 -70.3599
TCL: Running FEP window   9: Lambda1 0.39999999999999997 Lambda2 0.44999999999999996 [dLambda 0.04999999999999999]
TCL: Setting parameter firsttimestep to 0
TCL: Setting parameter alchLambda to 0.39999999999999997
Info: NONBONDED TABLE R-SQUARED SPACING: 0.0625
Info: NONBONDED TABLE SIZE: 705 POINTS
TCL: Setting parameter alchLambda2 to 0.44999999999999996
Info: NONBONDED TABLE R-SQUARED SPACING: 0.0625
Info: NONBONDED TABLE SIZE: 705 POINTS
TCL: Running for 1500000 steps
ETITLE: TS BOND ANGLE DIHED IMPRP ELECT VDW BOUNDARY MISC KINETIC TOTAL TEMP POTENTIAL TOTALAVG TEMPAVG PRESSURE GPRESSURE VOLUME PRESSAVG GPRESSAVG
ENERGY: 0 2.0526 15.2652 9.9182 0.0000 -10535.6028 1364.8946 0.0000 0.0000 1783.9988 -7359.4735 305.8770 -9143.4723 -7359.4735 305.8770 -571.5560 -485.9700 30062.3666 -571.5560 -485.9700
ENERGY: 300000 2.2271 15.3419 12.0976 0.0000 -10590.5148 1375.5021 0.0000 0.0000 1763.8004 -7421.5457 302.4139 -9185.3461 -7376.1182 299.7856 -357.5638 -201.9478 29812.3895 -428.9349 -333.2633
ENERGY: 600000 1.6796 17.5747 12.0495 0.0000 -10543.8519 1423.5417 0.0000 0.0000 1693.7487 -7395.2577 290.4031 -9089.0064 -7366.8938 298.2397 -184.7362 -170.9883 30725.6095 -278.4057 -212.7658
ENERGY: 900000 2.9809 12.8320 12.5369 0.0000 -10699.0854 1467.9840 0.0000 0.0000 1656.8303 -7545.9213 284.0732 -9202.7516 -7373.0592 297.4468 430.0454 488.3412 29536.0189 -129.6178 -61.7589
ENERGY: 1200000 4.1653 13.3805 14.5393 0.0000 -10648.2046 1400.3710 0.0000 0.0000 1732.2183 -7483.5302 296.9989 -9215.7484 -7380.4964 297.5559 -382.2987 -360.1759 29712.3183 -101.0928 -38.3576
ENERGY: 1500000 1.4129 13.2775 13.4396 0.0000 -10397.0164 1391.1675 0.0000 0.0000 1745.5030 -7232.2159 299.2767 -8977.7189 -7363.3601 298.2588 -27.5765 40.1835 30398.8241 -79.7354 -21.3960
TCL: Running FEP window  10: Lambda1 0.44999999999999996 Lambda2 0.49999999999999994 [dLambda 0.04999999999999999]
TCL: Setting parameter firsttimestep to 0
TCL: Setting parameter alchLambda to 0.44999999999999996
Info: NONBONDED TABLE R-SQUARED SPACING: 0.0625
Info: NONBONDED TABLE SIZE: 705 POINTS
TCL: Setting parameter alchLambda2 to 0.49999999999999994
Info: NONBONDED TABLE R-SQUARED SPACING: 0.0625
Info: NONBONDED TABLE SIZE: 705 POINTS
TCL: Running for 1500000 steps
ETITLE: TS BOND ANGLE DIHED IMPRP ELECT VDW BOUNDARY MISC KINETIC TOTAL TEMP POTENTIAL TOTALAVG TEMPAVG PRESSURE GPRESSURE VOLUME PRESSAVG GPRESSAVG
ENERGY: 0 1.4129 13.2775 13.4396 0.0000 -10397.0161 1391.0362 0.0000 0.0000 1744.6700 -7233.1799 299.1339 -8977.8499 -7233.1799 299.1339 -45.3878 48.1523 30398.8241 -45.3878 48.1523
ENERGY: 300000 2.8870 16.2940 11.8397 0.0000 -10592.9294 1339.4533 0.0000 0.0000 1722.9061 -7499.5491 295.4023 -9222.4553 -7369.8241 296.5572 -734.9450 -662.7592 29743.9519 -373.1294 -287.3325
ENERGY: 600000 2.3913 13.5083 11.8646 0.0000 -10402.2387 1331.7073 0.0000 0.0000 1684.5568 -7358.2104 288.8271 -9042.7672 -7353.9643 296.5180 -781.1003 -705.9994 30633.8044 -468.0481 -403.4942
ENERGY: 900000 4.3379 21.0920 10.6817 0.0000 -10639.6520 1462.2401 0.0000 0.0000 1751.0936 -7390.2066 300.2352 -9141.3002 -7354.7812 297.1335 440.1643 497.9984 29521.6375 -395.9798 -336.6408
ENERGY: 1200000 1.8877 16.4878 11.4430 0.0000 -10665.7298 1421.8989 0.0000 0.0000 1736.1110 -7477.9013 297.6664 -9214.0123 -7363.0723 298.2741 -175.3345 -87.6747 29913.3212 -431.3526 -369.8041
ENERGY: 1500000 2.6345 16.2164 11.2136 0.0000 -10478.7017 1351.7173 0.0000 0.0000 1773.0080 -7323.9119 303.9926 -9096.9199 -7360.5967 298.6089 -802.8038 -801.1697 30544.9584 -374.3530 -323.9239
TCL: Running FEP window  11: Lambda1 0.49999999999999994 Lambda2 0.5499999999999999 [dLambda 0.04999999999999999]
TCL: Setting parameter firsttimestep to 0
TCL: Setting parameter alchLambda to 0.49999999999999994
Info: NONBONDED TABLE R-SQUARED SPACING: 0.0625
Info: NONBONDED TABLE SIZE: 705 POINTS
TCL: Setting parameter alchLambda2 to 0.5499999999999999
Info: NONBONDED TABLE R-SQUARED SPACING: 0.0625
Info: NONBONDED TABLE SIZE: 705 POINTS
TCL: Running for 1500000 steps
ETITLE: TS BOND ANGLE DIHED IMPRP ELECT VDW BOUNDARY MISC KINETIC TOTAL TEMP POTENTIAL TOTALAVG TEMPAVG PRESSURE GPRESSURE VOLUME PRESSAVG GPRESSAVG
ENERGY: 0 2.6345 16.2164 11.2136 0.0000 -10478.7018 1352.1535 0.0000 0.0000 1772.1319 -7324.3519 303.8424 -9096.4838 -7324.3519 303.8424 -865.3992 -788.1064 30544.9584 -865.3992 -788.1064
ENERGY: 300000 2.2393 15.3744 13.0248 0.0000 -10682.7561 1502.9913 0.0000 0.0000 1713.9827 -7435.1436 293.8723 -9149.1262 -7383.3114 298.2791 652.3388 642.9781 30157.1970 -115.0718 -83.7256
ENERGY: 600000 1.9113 17.1912 11.4093 0.0000 -10403.2159 1365.0857 0.0000 0.0000 1771.6537 -7235.9647 303.7604 -9007.6183 -7385.0168 297.2465 -405.5832 -308.3645 30575.3095 -382.7721 -333.2130
ENERGY: 900000 3.6949 18.0477 9.1604 0.0000 -10561.3048 1416.9361 0.0000 0.0000 1779.5920 -7333.8739 305.1214 -9113.4658 -7392.3503 297.5836 -214.7997 -190.7640 30147.7431 -328.5635 -272.3401
ENERGY: 1200000 0.5893 9.0060 14.8964 0.0000 -10658.9284 1540.6652 0.0000 0.0000 1765.5231 -7328.2485 302.7092 -9093.7715 -7385.2894 298.7125 1224.6017 1263.2820 30132.8898 -124.5255 -69.4106
ENERGY: 1500000 5.1399 13.5798 12.5085 0.0000 -10372.1919 1313.7110 0.0000 0.0000 1717.8102 -7309.4425 294.5286 -9027.2526 -7382.5714 299.0095 -886.6561 -797.9363 30646.9612 -210.7899 -154.1091
TCL: Running FEP window  12: Lambda1 0.5499999999999999 Lambda2 0.6    [dLambda 0.050000000000000044]
TCL: Setting parameter firsttimestep to 0
TCL: Setting parameter alchLambda to 0.5499999999999999
Info: NONBONDED TABLE R-SQUARED SPACING: 0.0625
Info: NONBONDED TABLE SIZE: 705 POINTS
TCL: Setting parameter alchLambda2 to 0.6
Info: NONBONDED TABLE R-SQUARED SPACING: 0.0625
Info: NONBONDED TABLE SIZE: 705 POINTS
TCL: Running for 1500000 steps
ETITLE: TS BOND ANGLE DIHED IMPRP ELECT VDW BOUNDARY MISC KINETIC TOTAL TEMP POTENTIAL TOTALAVG TEMPAVG PRESSURE GPRESSURE VOLUME PRESSAVG GPRESSAVG
ENERGY: 0 5.1399 13.5798 12.5085 0.0000 -10372.2150 1314.2757 0.0000 0.0000 1716.9624 -7309.7487 294.3832 -9026.7111 -7309.7487 294.3832 -864.3740 -784.0449 30646.9612 -864.3740 -784.0449
ENERGY: 300000 4.5480 9.8195 14.6686 0.0000 -10635.4690 1446.3606 0.0000 0.0000 1701.7658 -7458.3064 291.7777 -9160.0722 -7414.3563 295.9353 112.1382 118.8967 30173.8005 -16.7340 33.5768
ENERGY: 600000 2.9344 17.3594 11.6238 0.0000 -10508.0232 1323.4500 0.0000 0.0000 1774.2761 -7378.3794 304.2100 -9152.6556 -7394.5692 299.0387 -1092.0699 -1012.1531 30289.6941 -137.0695 -76.3767
ENERGY: 900000 3.1203 16.0481 12.1165 0.0000 -10567.5449 1419.6934 0.0000 0.0000 1752.9274 -7363.6392 300.5496 -9116.5666 -7376.9867 300.4270 1.0547 61.6655 29958.3538 -221.6609 -156.1826
ENERGY: 1200000 3.6777 16.3483 14.9501 0.0000 -10507.4944 1347.6228 0.0000 0.0000 1707.3261 -7417.5692 292.7310 -9124.8954 -7379.4510 299.4995 -732.7405 -591.8158 30327.4609 -272.3192 -199.9858
ENERGY: 1500000 2.1438 16.5295 14.3516 0.0000 -10458.5214 1359.2051 0.0000 0.0000 1771.3643 -7294.9271 303.7108 -9066.2914 -7368.4358 300.7334 -291.3788 -202.3688 30048.5215 -202.0556 -130.0445
TCL: Running FEP window  13: Lambda1 0.6    Lambda2 0.65   [dLambda 0.050000000000000044]
TCL: Setting parameter firsttimestep to 0
TCL: Setting parameter alchLambda to 0.6
Info: NONBONDED TABLE R-SQUARED SPACING: 0.0625
Info: NONBONDED TABLE SIZE: 705 POINTS
TCL: Setting parameter alchLambda2 to 0.65
Info: NONBONDED TABLE R-SQUARED SPACING: 0.0625
Info: NONBONDED TABLE SIZE: 705 POINTS
TCL: Running for 1500000 steps
ETITLE: TS BOND ANGLE DIHED IMPRP ELECT VDW BOUNDARY MISC KINETIC TOTAL TEMP POTENTIAL TOTALAVG TEMPAVG PRESSURE GPRESSURE VOLUME PRESSAVG GPRESSAVG
ENERGY: 0 2.1438 16.5295 14.3516 0.0000 -10458.4055 1359.9107 0.0000 0.0000 1770.4417 -7295.0283 303.5526 -9065.4700 -7295.0283 303.5526 -265.5367 -181.7090 30048.5215 -265.5367 -181.7090
ENERGY: 300000 3.1192 16.2375 10.6466 0.0000 -10601.1443 1426.5679 0.0000 0.0000 1750.7039 -7393.8692 300.1684 -9144.5731 -7345.9173 305.0325 -213.7324 -131.8240 30173.3036 171.9453 234.4469
ENERGY: 600000 3.0664 12.4585 12.3692 0.0000 -10537.2689 1420.1966 0.0000 0.0000 1781.7310 -7307.4472 305.4882 -9089.1782 -7336.2757 303.0244 94.0417 123.7399 29934.4365 36.7871 91.7629
ENERGY: 900000 2.0463 14.6902 11.9390 0.0000 -10589.9490 1456.8286 0.0000 0.0000 1722.5529 -7381.8919 295.3418 -9104.4449 -7348.8989 301.7432 178.2834 241.9468 30182.2044 76.5714 141.2748
ENERGY: 1200000 1.8786 18.3899 11.6970 0.0000 -10661.9692 1462.5665 0.0000 0.0000 1763.4787 -7403.9586 302.3587 -9167.4373 -7363.5391 301.5458 294.3966 402.0098 29812.3320 93.6420 157.6855
ENERGY: 1500000 1.6030 15.9332 14.5894 0.0000 -10489.3075 1385.2353 0.0000 0.0000 1768.2746 -7303.6720 303.1810 -9071.9466 -7367.3013 301.8119 -104.5539 -15.6534 30251.2178 63.7144 131.3936
TCL: Running FEP window  14: Lambda1 0.65   Lambda2 0.7000000000000001 [dLambda 0.050000000000000044]
TCL: Setting parameter firsttimestep to 0
TCL: Setting parameter alchLambda to 0.65
Info: NONBONDED TABLE R-SQUARED SPACING: 0.0625
Info: NONBONDED TABLE SIZE: 705 POINTS
TCL: Setting parameter alchLambda2 to 0.7000000000000001
Info: NONBONDED TABLE R-SQUARED SPACING: 0.0625
Info: NONBONDED TABLE SIZE: 705 POINTS
TCL: Running for 1500000 steps
ETITLE: TS BOND ANGLE DIHED IMPRP ELECT VDW BOUNDARY MISC KINETIC TOTAL TEMP POTENTIAL TOTALAVG TEMPAVG PRESSURE GPRESSURE VOLUME PRESSAVG GPRESSAVG
ENERGY: 0 1.6030 15.9332 14.5894 0.0000 -10489.3571 1385.2910 0.0000 0.0000 1767.3870 -7304.5535 303.0288 -9071.9405 -7304.5535 303.0288 -83.1403 -2.8005 30251.2178 -83.1403 -2.8005
ENERGY: 300000 5.4146 15.2591 13.1120 0.0000 -10501.4042 1340.5220 0.0000 0.0000 1753.1864 -7373.9102 300.5940 -9127.0966 -7371.0021 300.3259 -587.9276 -484.6973 29851.5052 -301.1378 -213.1329
ENERGY: 600000 1.5671 19.7349 10.3904 0.0000 -10500.0123 1374.1867 0.0000 0.0000 1770.3635 -7323.7697 303.5392 -9094.1332 -7349.6416 302.1959 -434.5752 -398.9528 30195.4411 -293.7355 -228.5009
ENERGY: 900000 1.7654 15.6182 12.7384 0.0000 -10692.3398 1482.9239 0.0000 0.0000 1784.7255 -7394.5685 306.0016 -9179.2940 -7361.8687 302.3203 482.6858 576.8606 29872.4919 -103.9147 -34.9935
ENERGY: 1200000 0.5598 16.3618 12.1973 0.0000 -10593.5459 1445.8659 0.0000 0.0000 1723.9671 -7394.5941 295.5842 -9118.5611 -7350.7193 302.9317 111.8206 150.6520 30177.1244 -35.6012 26.6791
ENERGY: 1500000 4.7788 18.8221 9.8257 0.0000 -10492.3074 1406.1861 0.0000 0.0000 1766.8351 -7285.8596 302.9342 -9052.6947 -7348.1367 302.9668 -43.1585 -4.1246 30065.1500 -51.6987 9.1605
TCL: Running FEP window  15: Lambda1 0.7000000000000001 Lambda2 0.7500000000000001 [dLambda 0.050000000000000044]
TCL: Setting parameter firsttimestep to 0
TCL: Setting parameter alchLambda to 0.7000000000000001
Info: NONBONDED TABLE R-SQUARED SPACING: 0.0625
Info: NONBONDED TABLE SIZE: 705 POINTS
TCL: Setting parameter alchLambda2 to 0.7500000000000001
Info: NONBONDED TABLE R-SQUARED SPACING: 0.0625
Info: NONBONDED TABLE SIZE: 705 POINTS
TCL: Running for 1500000 steps
ETITLE: TS BOND ANGLE DIHED IMPRP ELECT VDW BOUNDARY MISC KINETIC TOTAL TEMP POTENTIAL TOTALAVG TEMPAVG PRESSURE GPRESSURE VOLUME PRESSAVG GPRESSAVG
ENERGY: 0 4.7788 18.8221 9.8257 0.0000 -10492.2949 1406.0382 0.0000 0.0000 1765.9662 -7286.8638 302.7852 -9052.8300 -7286.8638 302.7852 -84.0994 1.4431 30065.1500 -84.0994 1.4431
ENERGY: 300000 3.1472 15.5764 10.0787 0.0000 -10581.3614 1444.2374 0.0000 0.0000 1731.7120 -7376.6097 296.9121 -9108.3217 -7342.4050 299.7557 132.1428 203.8729 30221.2818 -198.7049 -133.5255
ENERGY: 600000 1.4079 14.2017 11.7003 0.0000 -10557.7303 1425.2685 0.0000 0.0000 1724.4107 -7380.7413 295.6603 -9105.1519 -7354.4760 298.3947 -33.1577 61.3047 30409.7051 -160.7410 -100.0125
ENERGY: 900000 2.5048 17.8080 12.0664 0.0000 -10668.2801 1483.0666 0.0000 0.0000 1761.9936 -7390.8407 302.1041 -9152.8343 -7358.9584 299.4202 297.5377 402.8966 30051.7588 -57.5513 6.5471
ENERGY: 1200000 6.5949 15.8981 11.9131 0.0000 -10538.7306 1399.7336 0.0000 0.0000 1757.8194 -7346.7713 301.3884 -9104.5907 -7357.3244 300.0085 -69.2094 0.8741 29958.0489 4.6634 65.3700
ENERGY: 1500000 0.6640 16.6690 10.0001 0.0000 -10593.5815 1383.5600 0.0000 0.0000 1712.8402 -7469.8483 293.6764 -9182.6884 -7358.9183 299.6735 -424.2970 -378.8998 30041.0545 21.6293 81.6888
TCL: Running FEP window  16: Lambda1 0.7500000000000001 Lambda2 0.8000000000000002 [dLambda 0.050000000000000044]
TCL: Setting parameter firsttimestep to 0
TCL: Setting parameter alchLambda to 0.7500000000000001
Info: NONBONDED TABLE R-SQUARED SPACING: 0.0625
Info: NONBONDED TABLE SIZE: 705 POINTS
TCL: Setting parameter alchLambda2 to 0.8000000000000002
Info: NONBONDED TABLE R-SQUARED SPACING: 0.0625
Info: NONBONDED TABLE SIZE: 705 POINTS
TCL: Running for 1500000 steps
ETITLE: TS BOND ANGLE DIHED IMPRP ELECT VDW BOUNDARY MISC KINETIC TOTAL TEMP POTENTIAL TOTALAVG TEMPAVG PRESSURE GPRESSURE VOLUME PRESSAVG GPRESSAVG
ENERGY: 0 0.6640 16.6690 10.0001 0.0000 -10593.6200 1383.6714 0.0000 0.0000 1711.9813 -7470.6343 293.5292 -9182.6155 -7470.6343 293.5292 -451.9707 -363.0179 30041.0545 -451.9707 -363.0179
ENERGY: 300000 4.9798 18.7548 11.9064 0.0000 -10649.0687 1461.7291 0.0000 0.0000 1758.0909 -7393.6078 301.4350 -9151.6987 -7389.4153 299.7565 257.1163 301.9628 29769.2637 148.3597 202.0498
ENERGY: 600000 2.7881 16.1606 11.3095 0.0000 -10556.0015 1447.7713 0.0000 0.0000 1732.4842 -7345.4879 297.0445 -9077.9720 -7364.8163 299.2253 319.8855 362.8045 30298.5006 -25.1620 25.1662
ENERGY: 900000 2.1008 17.0541 10.5709 0.0000 -10426.2496 1344.9569 0.0000 0.0000 1726.0113 -7325.5556 295.9347 -9051.5670 -7368.4010 298.6430 -366.2341 -327.8987 30104.3748 -53.7827 3.6810
ENERGY: 1200000 5.0950 15.4439 10.5198 0.0000 -10593.0107 1459.4467 0.0000 0.0000 1720.4607 -7382.0446 294.9830 -9102.5053 -7368.0208 298.5003 202.1980 241.3056 30303.0053 -42.3512 17.3798
ENERGY: 1500000 2.7679 14.3760 12.0375 0.0000 -10575.7857 1437.9517 0.0000 0.0000 1758.6292 -7350.0234 301.5273 -9108.6526 -7365.8244 299.1645 1.4465 67.2185 30417.1395 -60.0584 4.7971
TCL: Running FEP window  17: Lambda1 0.8000000000000002 Lambda2 0.8500000000000002 [dLambda 0.050000000000000044]
TCL: Setting parameter firsttimestep to 0
TCL: Setting parameter alchLambda to 0.8000000000000002
Info: NONBONDED TABLE R-SQUARED SPACING: 0.0625
Info: NONBONDED TABLE SIZE: 705 POINTS
TCL: Setting parameter alchLambda2 to 0.8500000000000002
Info: NONBONDED TABLE R-SQUARED SPACING: 0.0625
Info: NONBONDED TABLE SIZE: 705 POINTS
TCL: Running for 1500000 steps
ETITLE: TS BOND ANGLE DIHED IMPRP ELECT VDW BOUNDARY MISC KINETIC TOTAL TEMP POTENTIAL TOTALAVG TEMPAVG PRESSURE GPRESSURE VOLUME PRESSAVG GPRESSAVG
ENERGY: 0 2.7679 14.3760 12.0375 0.0000 -10575.7989 1437.3233 0.0000 0.0000 1757.7344 -7351.5597 301.3738 -9109.2941 -7351.5597 301.3738 -20.0104 65.7447 30417.1395 -20.0104 65.7447
ENERGY: 300000 2.2475 13.2813 11.5144 0.0000 -10646.0859 1437.2846 0.0000 0.0000 1791.5379 -7390.2203 307.1696 -9181.7582 -7360.7738 299.8856 -116.3054 -66.6186 30235.3220 -113.1162 -44.6558
ENERGY: 600000 4.5174 17.0896 13.6997 0.0000 -10587.0422 1485.4096 0.0000 0.0000 1798.9042 -7267.4218 308.4326 -9066.3260 -7328.5420 302.3363 763.0530 854.7066 29663.9112 183.2974 250.8742
ENERGY: 900000 2.8493 15.1826 10.8548 0.0000 -10606.0302 1468.0688 0.0000 0.0000 1783.5968 -7325.4779 305.8081 -9109.0747 -7331.6676 302.1999 501.0048 522.0813 30120.5716 206.5478 263.8815
ENERGY: 1200000 4.2407 12.2902 13.0648 0.0000 -10627.4738 1427.1516 0.0000 0.0000 1779.7507 -7390.9757 305.1486 -9170.7264 -7341.4002 302.4070 67.8407 147.0671 29666.0508 177.4843 235.2644
ENERGY: 1500000 3.8154 20.0287 12.7209 0.0000 -10631.1509 1394.6156 0.0000 0.0000 1791.5436 -7408.4267 307.1706 -9199.9703 -7354.4623 302.3965 -316.7748 -257.8805 29791.9687 69.9460 134.0500
TCL: Running FEP window  18: Lambda1 0.8500000000000002 Lambda2 0.9000000000000002 [dLambda 0.050000000000000044]
TCL: Setting parameter firsttimestep to 0
TCL: Setting parameter alchLambda to 0.8500000000000002
Info: NONBONDED TABLE R-SQUARED SPACING: 0.0625
Info: NONBONDED TABLE SIZE: 705 POINTS
TCL: Setting parameter alchLambda2 to 0.9000000000000002
Info: NONBONDED TABLE R-SQUARED SPACING: 0.0625
Info: NONBONDED TABLE SIZE: 705 POINTS
TCL: Running for 1500000 steps
ETITLE: TS BOND ANGLE DIHED IMPRP ELECT VDW BOUNDARY MISC KINETIC TOTAL TEMP POTENTIAL TOTALAVG TEMPAVG PRESSURE GPRESSURE VOLUME PRESSAVG GPRESSAVG
ENERGY: 0 3.8154 20.0287 12.7209 0.0000 -10631.1605 1394.4541 0.0000 0.0000 1790.6333 -7409.5082 307.0145 -9200.1415 -7409.5082 307.0145 -321.0195 -244.0899 29791.9687 -321.0195 -244.0899
ENERGY: 300000 1.2127 20.3087 11.3124 0.0000 -10769.5156 1558.0103 0.0000 0.0000 1742.7039 -7435.9676 298.7968 -9178.6714 -7393.5091 305.1186 783.5859 843.9606 30423.4390 -160.5625 -88.6410
ENERGY: 600000 3.1149 16.3616 13.2495 0.0000 -10467.0762 1393.3431 0.0000 0.0000 1720.3273 -7320.6799 294.9602 -9041.0072 -7375.7725 302.7004 -105.0847 -23.2683 30325.5802 -71.9082 -20.2786
ENERGY: 900000 1.9043 13.9403 12.0599 0.0000 -10603.9635 1454.0305 0.0000 0.0000 1797.1592 -7324.8693 308.1334 -9122.0285 -7377.4952 301.9860 452.0688 562.5025 30242.8817 -49.9360 12.0330
ENERGY: 1200000 6.8100 19.9116 10.2921 0.0000 -10559.9519 1371.9865 0.0000 0.0000 1708.3201 -7442.6317 292.9015 -9150.9518 -7380.3530 300.9638 -599.5667 -561.1090 29955.7726 -40.4406 15.1771
ENERGY: 1500000 1.3575 14.1512 12.7605 0.0000 -10527.2446 1359.6475 0.0000 0.0000 1742.4909 -7396.8370 298.7602 -9139.3280 -7388.1466 301.0788 -474.3653 -394.7534 30239.9286 -124.4847 -64.8428
TCL: Running FEP window  19: Lambda1 0.9000000000000002 Lambda2 0.9500000000000003 [dLambda 0.050000000000000044]
TCL: Setting parameter firsttimestep to 0
TCL: Setting parameter alchLambda to 0.9000000000000002
Info: NONBONDED TABLE R-SQUARED SPACING: 0.0625
Info: NONBONDED TABLE SIZE: 705 POINTS
TCL: Setting parameter alchLambda2 to 0.9500000000000003
Info: NONBONDED TABLE R-SQUARED SPACING: 0.0625
Info: NONBONDED TABLE SIZE: 705 POINTS
TCL: Running for 1500000 steps
ETITLE: TS BOND ANGLE DIHED IMPRP ELECT VDW BOUNDARY MISC KINETIC TOTAL TEMP POTENTIAL TOTALAVG TEMPAVG PRESSURE GPRESSURE VOLUME PRESSAVG GPRESSAVG
ENERGY: 0 1.3575 14.1512 12.7605 0.0000 -10527.2161 1361.0257 0.0000 0.0000 1741.6099 -7396.3112 298.6092 -9137.9211 -7396.3112 298.6092 -444.9466 -359.3315 30239.9286 -444.9466 -359.3315
ENERGY: 300000 1.1908 14.6978 13.9409 0.0000 -10621.7883 1434.7727 0.0000 0.0000 1728.0679 -7429.1182 296.2873 -9157.1861 -7370.6240 301.1889 301.8480 352.7897 29637.2095 50.0388 98.0037
ENERGY: 600000 3.6956 17.0676 12.0755 0.0000 -10642.8556 1404.3797 0.0000 0.0000 1761.3932 -7444.2439 302.0012 -9205.6371 -7380.6195 300.3248 -374.5527 -367.5405 30062.1867 -0.8142 40.9352
ENERGY: 900000 1.4727 15.0421 11.9987 0.0000 -10743.6164 1564.3019 0.0000 0.0000 1737.4624 -7413.3387 297.8981 -9150.8010 -7376.8315 299.9913 763.6092 849.6856 30509.5911 -3.8924 48.2037
ENERGY: 1200000 2.7252 15.8963 10.7162 0.0000 -10682.8505 1517.8711 0.0000 0.0000 1714.4102 -7421.2316 293.9456 -9135.6417 -7367.1183 299.6234 517.8128 638.3690 30314.7381 72.8276 133.5102
ENERGY: 1500000 1.4378 19.1400 11.7811 0.0000 -10333.6340 1249.0500 0.0000 0.0000 1741.5870 -7310.6381 298.6053 -9052.2251 -7365.2806 299.8838 -1259.1697 -1164.9526 30647.1426 -35.3813 23.8336
TCL: Running FEP window  20: Lambda1 0.9500000000000003 Lambda2 1.0    [dLambda 0.04999999999999971]
TCL: Setting parameter firsttimestep to 0
TCL: Setting parameter alchLambda to 0.9500000000000003
Info: NONBONDED TABLE R-SQUARED SPACING: 0.0625
Info: NONBONDED TABLE SIZE: 705 POINTS
TCL: Setting parameter alchLambda2 to 1.0
Info: NONBONDED TABLE R-SQUARED SPACING: 0.0625
Info: NONBONDED TABLE SIZE: 705 POINTS
TCL: Running for 1500000 steps
ETITLE: TS BOND ANGLE DIHED IMPRP ELECT VDW BOUNDARY MISC KINETIC TOTAL TEMP POTENTIAL TOTALAVG TEMPAVG PRESSURE GPRESSURE VOLUME PRESSAVG GPRESSAVG
ENERGY: 0 1.4378 19.1400 11.7811 0.0000 -10333.6761 1248.9976 0.0000 0.0000 1740.7284 -7311.5911 298.4580 -9052.3195 -7311.5911 298.4580 -1237.8617 -1149.9735 30647.1426 -1237.8617 -1149.9735
ENERGY: 300000 1.8322 19.6861 11.7930 0.0000 -10588.8084 1420.0888 0.0000 0.0000 1777.2058 -7358.2024 304.7123 -9135.4083 -7375.9380 300.5833 202.5293 233.0669 30125.8719 -212.4499 -176.1261
ENERGY: 600000 1.0990 13.9647 12.3723 0.0000 -10507.7038 1379.1079 0.0000 0.0000 1671.0845 -7430.0756 286.5172 -9101.1600 -7388.1569 299.0545 -454.4397 -383.1695 30341.8168 11.8062 55.6560
ENERGY: 900000 2.4966 13.3014 11.5805 0.0000 -10635.1173 1405.6944 0.0000 0.0000 1733.5264 -7468.5181 297.2232 -9202.0445 -7392.4679 298.3234 -318.7781 -272.4252 30304.1403 60.5918 100.3264
ENERGY: 1200000 1.5448 20.5028 14.7987 0.0000 -10690.3710 1424.2595 0.0000 0.0000 1825.4265 -7403.8387 312.9800 -9229.2652 -7405.0048 298.7898 -211.8149 -122.5370 29850.4346 18.4636 66.9520
ENERGY: 1500000 3.2295 13.0072 11.6956 0.0000 -10641.0659 1456.6834 0.0000 0.0000 1748.8359 -7407.6143 299.8481 -9156.4502 -7401.8923 299.3157 185.8964 285.8801 30003.9642 21.3099 76.6063
TCL: Exiting due to exit command.
