Info: SIMULATION PARAMETERS:
Info: TIMESTEP               2
Info: NUMBER OF STEPS        0
Info: STEPS PER CYCLE        10
Info: PERIODIC CELL BASIS 1  31.7276 0 0
Info: PERIODIC CELL BASIS 2  0 30.1899 0
Info: PERIODIC CELL BASIS 3  0 0 31.8985
Info: PERIODIC CELL CENTER   0 0 0
Info: WRAPPING WATERS AROUND PERIODIC BOUNDARIES ON OUTPUT.
Info: WRAPPING ALL CLUSTERS AROUND PERIODIC BOUNDARIES ON OUTPUT.
Info: FIRST LDB TIMESTEP     50
Info: LAST LDB TIMESTEP     -1
Info: HOM BACKGROUND SCALING 1
Info: PME BACKGROUND SCALING 1
Info: MIN ATOMS PER PATCH    40
Info: EMPTY PATCH LOAD       40 ATOMS
Info: VELOCITY FILE          mobley_7758918_equil.vel
Info: CENTER OF MASS MOVING INITIALLY? NO
Info: DIELECTRIC             1
Info: EXCLUDE                SCALED ONE-FOUR
Info: 1-4 ELECTROSTATICS SCALED BY 0.833333
Info: MODIFIED 1-4 VDW PARAMETERS WILL BE USED
Info: DCD FILENAME           mobley_7758918_prod.dcd
Info: DCD FREQUENCY          100000
Info: DCD FIRST STEP         100000
Info: DCD FILE WILL CONTAIN UNIT CELL DATA
Info: XST FILENAME           mobley_7758918_prod.xst
Info: XST FREQUENCY          100000
Info: NO VELOCITY DCD OUTPUT
Info: NO FORCE DCD OUTPUT
Info: OUTPUT FILENAME        mobley_7758918_prod
Info: BINARY OUTPUT FILES WILL BE USED
Info: RESTART FILENAME       mobley_7758918_prod.restart
Info: RESTART FREQUENCY      100000
Info: BINARY RESTART FILES WILL BE USED
Info: CUTOFF                 9
Info: PAIRLIST DISTANCE      11
Info: PAIRLIST SHRINK RATE   0.01
Info: PAIRLIST GROW RATE     0.01
Info: PAIRLIST TRIGGER       0.3
Info: PAIRLISTS PER CYCLE    2
Info: PAIRLISTS ENABLED
Info: MARGIN                 2
Info: HYDROGEN GROUP CUTOFF  2.5
Info: PATCH DIMENSION        15.5
Info: ENERGY OUTPUT STEPS    100000
Info: ENERGY EVALUATION STEPS    100000
Info: OUTPUT ENERGY PRECISION 4
Info: CROSSTERM ENERGY INCLUDED IN DIHEDRAL
Info: TIMING OUTPUT STEPS    1000000
Info: PRESSURE OUTPUT STEPS  100000
Info: ALCHEMICAL FEP ON
Info: FEP CURRENT LAMBDA VALUE     0
Info: FEP COMPARISON LAMBDA VALUE  0.05
Info: FEP INTRA-ALCHEMICAL NON-BONDED INTERACTIONS WILL BE RETAINED
Info: FEP INTRA-ALCHEMICAL BONDED INTERACTIONS WILL BE RETAINED
Info: FEP VDW SHIFTING COEFFICIENT 5
Info: FEP ELEC. ACTIVE FOR ANNIHILATED PARTICLES BETWEEN LAMBDA = 0 AND LAMBDA = 0.5
Info: FEP ELEC. ACTIVE FOR EXNIHILATED PARTICLES BETWEEN LAMBDA = 0.5 AND LAMBDA = 1
Info: FEP VDW ACTIVE FOR ANNIHILATED PARTICLES BETWEEN LAMBDA = 0 AND LAMBDA = 1
Info: FEP VDW ACTIVE FOR EXNIHILATED PARTICLES BETWEEN LAMBDA = 0 AND LAMBDA = 1
Info: FEP BOND ACTIVE FOR ANNIHILATED PARTICLES BETWEEN LAMBDA = 1 AND LAMBDA = 1
Info: FEP BOND ACTIVE FOR EXNIHILATED PARTICLES BETWEEN LAMBDA = 0 AND LAMBDA = 0
Info: LANGEVIN DYNAMICS ACTIVE
Info: LANGEVIN TEMPERATURE   300
Info: LANGEVIN USING BBK INTEGRATOR
Info: LANGEVIN DAMPING COEFFICIENT IS 1 INVERSE PS
Info: LANGEVIN DYNAMICS APPLIED TO HYDROGENS
Info: LANGEVIN PISTON PRESSURE CONTROL ACTIVE
Info:        TARGET PRESSURE IS 1.01325 BAR
Info:     OSCILLATION PERIOD IS 50 FS
Info:             DECAY TIME IS 25 FS
Info:     PISTON TEMPERATURE IS 300 K
Info:       PRESSURE CONTROL IS GROUP-BASED
Info:    INITIAL STRAIN RATE IS 0.000137398 0.000137398 0.000137398
Info:       CELL FLUCTUATION IS ISOTROPIC
Info: PARTICLE MESH EWALD (PME) ACTIVE
Info: PME TOLERANCE               1e-06
Info: PME EWALD COEFFICIENT       0.348832
Info: PME INTERPOLATION ORDER     4
Info: PME GRID DIMENSIONS         32 32 32
Info: PME MAXIMUM GRID SPACING    1
Info: PME CALCULATION WILL BE PERFORMED ON GPU
Info: FULL ELECTROSTATIC EVALUATION FREQUENCY      2
Info: USING VERLET I (r-RESPA) MTS SCHEME.
Info: C1 SPLITTING OF LONG RANGE ELECTROSTATICS
Info: PLACING ATOMS IN PATCHES BY HYDROGEN GROUPS
Info: RIGID BONDS TO HYDROGEN : ALL
Info:         ERROR TOLERANCE : 1e-08
Info:          MAX ITERATIONS : 100
Info: RIGID WATER USING SETTLE ALGORITHM
Info: RANDOM NUMBER SEED     1743687481
Info: USE HYDROGEN BONDS?    NO
Info: Using AMBER format force field!
Info: AMBER PARM FILE        mobley_7758918.prmtop
Info: COORDINATE PDB         mobley_7758918.pdb
Info: Exclusions will be read from PARM file!
Info: SCNB (VDW SCALING)     2
Info: USING ARITHMETIC MEAN TO COMBINE L-J SIGMA PARAMETERS
Info: BINARY COORDINATES     mobley_7758918_equil.coor
Info: SUMMARY OF PARAMETERS:
Info: 8 BONDS
Info: 8 ANGLES
Info:   8 HARMONIC
Info:   0 COSINE-BASED
Info: 9 DIHEDRAL
Info: 0 IMPROPER
Info: 0 CROSSTERM
Info: 0 VDW
Info: 28 VDW_PAIRS
Info: 0 NBTHOLE_PAIRS
Info: To read alchdata from file: mobley_7758918.pdb
Info: To read alchflag data from column: 5
Info: STRUCTURE SUMMARY:
Info: 2969 ATOMS
Info: 2968 BONDS
Info: 16 ANGLES
Info: 23 DIHEDRALS
Info: 0 IMPROPERS
Info: 0 CROSSTERMS
Info: 3001 EXCLUSIONS
Info: 2964 RIGID BONDS
Info: ALCH: 0 ATOMS TO DISAPPEAR IN FINAL STATE
Info: ALCH: 11 ATOMS TO APPEAR IN FINAL STATE
Info: 5943 DEGREES OF FREEDOM
Info: 991 HYDROGEN GROUPS
Info: 4 ATOMS IN LARGEST HYDROGEN GROUP
Info: 991 MIGRATION GROUPS
Info: 4 ATOMS IN LARGEST MIGRATION GROUP
Info: TOTAL MASS = 17837.9 amu
Info: TOTAL CHARGE = 4.09782e-08 e
Info: MASS DENSITY = 0.969465 g/cm^3
Info: ATOM DENSITY = 0.0971719 atoms/A^3
Info: ADDED 0 IMPLICIT EXCLUSIONS
Info: NONBONDED TABLE R-SQUARED SPACING: 0.0625
Info: NONBONDED TABLE SIZE: 705 POINTS
Info: REMOVING COM VELOCITY 0.10043 -0.0677586 0.212947
Info: Use 3D box decompostion in PME FFT.
Info: Updated CUDA force table with 4096 elements.
Info: Updated CUDA LJ table with 7 x 7 elements.
Info: Found 14 unique exclusion lists needing 24 bytes
TCL: Running for 1500000 steps
ETITLE: TS BOND ANGLE DIHED IMPRP ELECT VDW BOUNDARY MISC KINETIC TOTAL TEMP POTENTIAL TOTALAVG TEMPAVG PRESSURE GPRESSURE VOLUME PRESSAVG GPRESSAVG
ENERGY: 0 0.8528 4.2504 2.9565 0.0000 -10801.9328 1417.0694 0.0000 0.0000 1781.0470 -7595.7568 301.6199 -9376.8037 -7595.7568 301.6199 -309.1027 -234.6749 30554.1080 -309.1027 -234.6749
ENERGY: 300000 3.6753 4.4282 5.3016 0.0000 -10817.2924 1447.8552 0.0000 0.0000 1773.3339 -7582.6981 300.3137 -9356.0321 -7586.9477 300.7596 -290.1376 -213.9855 30373.4613 -202.2338 -130.1978
ENERGY: 600000 1.7498 4.3120 2.7932 0.0000 -10814.9173 1449.4948 0.0000 0.0000 1761.4462 -7595.1213 298.3005 -9356.5675 -7591.0703 297.7402 -174.6834 -95.7718 30558.9285 -195.8648 -122.3540
ENERGY: 900000 1.7723 3.4606 2.3189 0.0000 -10637.5759 1375.0157 0.0000 0.0000 1737.2558 -7517.7527 294.2039 -9255.0085 -7583.7118 297.9046 -149.0991 -94.7859 30090.1284 -20.2353 42.9394
ENERGY: 1200000 0.4134 3.2258 2.2209 0.0000 -10860.4834 1543.9317 0.0000 0.0000 1808.6701 -7502.0216 306.2979 -9310.6916 -7573.1288 298.4445 554.0717 585.2845 30788.1471 34.7861 91.4984
ENERGY: 1500000 1.0748 5.6147 2.8295 0.0000 -10732.4895 1408.1123 0.0000 0.0000 1753.1070 -7561.7512 296.8883 -9314.8582 -7573.6781 299.0186 -222.3882 -142.8884 30385.6098 41.1789 100.0150
TCL: Running FEP window   2: Lambda1 0.05   Lambda2 0.1    [dLambda 0.05  ]
TCL: Setting parameter firsttimestep to 0
TCL: Setting parameter alchLambda to 0.05
Info: NONBONDED TABLE R-SQUARED SPACING: 0.0625
Info: NONBONDED TABLE SIZE: 705 POINTS
TCL: Setting parameter alchLambda2 to 0.1
Info: NONBONDED TABLE R-SQUARED SPACING: 0.0625
Info: NONBONDED TABLE SIZE: 705 POINTS
TCL: Running for 1500000 steps
ETITLE: TS BOND ANGLE DIHED IMPRP ELECT VDW BOUNDARY MISC KINETIC TOTAL TEMP POTENTIAL TOTALAVG TEMPAVG PRESSURE GPRESSURE VOLUME PRESSAVG GPRESSAVG
ENERGY: 0 1.0748 5.6147 2.8295 0.0000 -10732.4891 1410.3543 0.0000 0.0000 1752.2401 -7560.3757 296.7415 -9312.6158 -7560.3757 296.7415 -229.7795 -139.2779 30385.6098 -229.7795 -139.2779
ENERGY: 300000 1.2444 4.6678 0.9064 0.0000 -10804.0400 1443.3853 0.0000 0.0000 1800.9849 -7552.8511 304.9964 -9353.8361 -7545.8957 301.4803 -7.8609 84.7531 30323.1277 -82.5366 24.2200
ENERGY: 600000 0.6531 3.4382 2.3242 0.0000 -10812.7145 1441.2508 0.0000 0.0000 1748.5256 -7616.5227 296.1124 -9365.0482 -7561.2643 300.4831 152.4181 231.7000 29766.6207 -5.7264 74.1261
ENERGY: 900000 2.6330 6.9974 7.3918 0.0000 -10815.5454 1496.5482 0.0000 0.0000 1775.7019 -7526.2731 300.7147 -9301.9750 -7553.3555 300.3075 344.3812 413.1662 30771.3311 -81.5221 -7.5845
ENERGY: 1200000 0.7478 6.0674 6.1706 0.0000 -10828.1854 1406.1116 0.0000 0.0000 1736.8236 -7672.2643 294.1307 -9409.0879 -7561.1872 300.1419 -697.0869 -713.8106 30648.0994 -35.3703 20.0425
ENERGY: 1500000 2.0441 4.5470 5.6710 0.0000 -10696.1714 1425.1750 0.0000 0.0000 1772.6562 -7486.0780 300.1989 -9258.7342 -7559.2948 300.3407 -43.5679 53.4564 30518.3037 -21.1281 35.1265
TCL: Running FEP window   3: Lambda1 0.1    Lambda2 0.15000000000000002 [dLambda 0.05000000000000002]
TCL: Setting parameter firsttimestep to 0
TCL: Setting parameter alchLambda to 0.1
Info: NONBONDED TABLE R-SQUARED SPACING: 0.0625
Info: NONBONDED TABLE SIZE: 705 POINTS
TCL: Setting parameter alchLambda2 to 0.15000000000000002
Info: NONBONDED TABLE R-SQUARED SPACING: 0.0625
Info: NONBONDED TABLE SIZE: 705 POINTS
TCL: Running for 1500000 steps
ETITLE: TS BOND ANGLE DIHED IMPRP ELECT VDW BOUNDARY MISC KINETIC TOTAL TEMP POTENTIAL TOTALAVG TEMPAVG PRESSURE GPRESSURE VOLUME PRESSAVG GPRESSAVG
ENERGY: 0 2.0441 4.5470 5.6710 0.0000 -10696.1701 1425.5383 0.0000 0.0000 1771.7390 -7486.6306 300.0436 -9258.3696 -7486.6306 300.0436 -33.7835 53.8950 30518.3037 -33.7835 53.8950
ENERGY: 300000 1.8618 9.3489 5.9309 0.0000 -10710.2325 1375.2204 0.0000 0.0000 1768.9323 -7548.9383 299.5683 -9317.8705 -7567.1764 299.3298 -698.3808 -620.5946 30760.8324 -387.7479 -324.7602
ENERGY: 600000 0.7710 4.5787 5.6918 0.0000 -10727.6402 1377.2513 0.0000 0.0000 1730.7951 -7608.5524 293.1098 -9339.3475 -7560.9497 299.9942 -920.8000 -838.2676 30994.5903 -418.3372 -355.3359
ENERGY: 900000 1.7582 2.9243 5.8374 0.0000 -10748.0833 1439.9442 0.0000 0.0000 1802.2452 -7495.3740 305.2098 -9297.6193 -7556.9720 300.1321 -124.3933 -90.0365 30708.4834 -279.5360 -216.5174
ENERGY: 1200000 1.1006 2.1998 5.9776 0.0000 -10856.1391 1462.4208 0.0000 0.0000 1798.4909 -7585.9493 304.5741 -9384.4402 -7569.4150 299.3360 -164.9962 -46.4931 30573.2165 -313.5772 -239.7924
ENERGY: 1500000 2.0013 5.7045 5.3982 0.0000 -10739.0126 1423.2031 0.0000 0.0000 1774.6498 -7528.0558 300.5366 -9302.7056 -7571.9575 299.0100 -9.4031 59.5189 30233.9722 -288.6079 -216.5581
TCL: Running FEP window   4: Lambda1 0.15000000000000002 Lambda2 0.2    [dLambda 0.04999999999999999]
TCL: Setting parameter firsttimestep to 0
TCL: Setting parameter alchLambda to 0.15000000000000002
Info: NONBONDED TABLE R-SQUARED SPACING: 0.0625
Info: NONBONDED TABLE SIZE: 705 POINTS
TCL: Setting parameter alchLambda2 to 0.2
Info: NONBONDED TABLE R-SQUARED SPACING: 0.0625
Info: NONBONDED TABLE SIZE: 705 POINTS
TCL: Running for 1500000 steps
ETITLE: TS BOND ANGLE DIHED IMPRP ELECT VDW BOUNDARY MISC KINETIC TOTAL TEMP POTENTIAL TOTALAVG TEMPAVG PRESSURE GPRESSURE VOLUME PRESSAVG GPRESSAVG
ENERGY: 0 2.0013 5.7044 5.3982 0.0000 -10739.0123 1423.5521 0.0000 0.0000 1773.7898 -7528.5664 300.3909 -9302.3562 -7528.5664 300.3909 -35.4478 63.8354 30233.9722 -35.4478 63.8354
ENERGY: 300000 1.9269 6.6003 6.0241 0.0000 -10892.4416 1490.0545 0.0000 0.0000 1777.6576 -7610.1782 301.0459 -9387.8358 -7552.7021 302.3039 190.2167 252.6593 30467.2402 -398.6826 -317.0148
ENERGY: 600000 1.0546 4.7200 5.8276 0.0000 -10695.6324 1393.1078 0.0000 0.0000 1801.1992 -7489.7231 305.0327 -9290.9223 -7562.8510 301.9018 -363.7112 -287.5691 30992.8171 -367.0097 -280.5597
ENERGY: 900000 1.3630 5.7270 7.4358 0.0000 -10745.3181 1383.9474 0.0000 0.0000 1822.0704 -7524.7744 308.5672 -9346.8448 -7554.7240 303.3121 -743.9673 -651.6114 30671.4213 -382.6910 -301.6282
ENERGY: 1200000 0.4975 4.6355 8.0536 0.0000 -10776.4857 1390.2424 0.0000 0.0000 1814.2979 -7558.7588 307.2510 -9373.0567 -7543.9089 304.0859 -492.5773 -465.8263 30525.5973 -360.0978 -285.7295
ENERGY: 1500000 1.1865 6.6125 5.1170 0.0000 -10806.9015 1474.2028 0.0000 0.0000 1711.9793 -7607.8034 289.9233 -9319.7826 -7552.1282 303.3312 299.1912 369.6933 30177.3445 -227.9418 -157.3795
TCL: Running FEP window   5: Lambda1 0.2    Lambda2 0.25   [dLambda 0.04999999999999999]
TCL: Setting parameter firsttimestep to 0
TCL: Setting parameter alchLambda to 0.2
Info: NONBONDED TABLE R-SQUARED SPACING: 0.0625
Info: NONBONDED TABLE SIZE: 705 POINTS
TCL: Setting parameter alchLambda2 to 0.25
Info: NONBONDED TABLE R-SQUARED SPACING: 0.0625
Info: NONBONDED TABLE SIZE: 705 POINTS
TCL: Running for 1500000 steps
ETITLE: TS BOND ANGLE DIHED IMPRP ELECT VDW BOUNDARY MISC KINETIC TOTAL TEMP POTENTIAL TOTALAVG TEMPAVG PRESSURE GPRESSURE VOLUME PRESSAVG GPRESSAVG
ENERGY: 0 1.1865 6.6125 5.1170 0.0000 -10806.9020 1474.7202 0.0000 0.0000 1711.1402 -7608.1256 289.7812 -9319.2658 -7608.1256 289.7812 269.1686 374.0087 30177.3445 269.1686 374.0087
ENERGY: 300000 1.8816 4.8217 5.6029 0.0000 -10904.9303 1487.5273 0.0000 0.0000 1780.0020 -7625.0948 301.4430 -9405.0967 -7640.5409 296.9615 -88.8688 -105.6366 30985.5376 37.9276 91.0022
ENERGY: 600000 1.9394 6.2833 6.0946 0.0000 -10779.9674 1418.5036 0.0000 0.0000 1784.7765 -7562.3701 302.2515 -9347.1466 -7603.1122 299.2956 -173.5320 -140.7797 30478.2710 114.7457 172.3185
ENERGY: 900000 0.5053 7.8538 6.9331 0.0000 -10892.1056 1505.6448 0.0000 0.0000 1758.5614 -7612.6073 297.8120 -9371.1687 -7603.3682 298.4788 327.9929 401.5899 30661.6344 191.8505 249.6391
ENERGY: 1200000 0.7029 5.4963 6.7185 0.0000 -10841.3626 1502.8533 0.0000 0.0000 1762.0032 -7563.5885 298.3949 -9325.5917 -7603.1372 298.4292 449.8695 537.1696 30295.5296 255.9379 313.1370
ENERGY: 1500000 0.4423 5.8622 6.9043 0.0000 -10766.6021 1463.0112 0.0000 0.0000 1730.0317 -7560.3505 292.9805 -9290.3822 -7602.1969 298.4519 -7.2142 15.1620 30992.8504 162.1756 219.7843
TCL: Running FEP window   6: Lambda1 0.25   Lambda2 0.3    [dLambda 0.04999999999999999]
TCL: Setting parameter firsttimestep to 0
TCL: Setting parameter alchLambda to 0.25
Info: NONBONDED TABLE R-SQUARED SPACING: 0.0625
Info: NONBONDED TABLE SIZE: 705 POINTS
TCL: Setting parameter alchLambda2 to 0.3
Info: NONBONDED TABLE R-SQUARED SPACING: 0.0625
Info: NONBONDED TABLE SIZE: 705 POINTS
TCL: Running for 1500000 steps
ETITLE: TS BOND ANGLE DIHED IMPRP ELECT VDW BOUNDARY MISC KINETIC TOTAL TEMP POTENTIAL TOTALAVG TEMPAVG PRESSURE GPRESSURE VOLUME PRESSAVG GPRESSAVG
ENERGY: 0 0.4423 5.8622 6.9043 0.0000 -10766.6021 1463.7192 0.0000 0.0000 1729.1574 -7560.5168 292.8324 -9289.6741 -7560.5168 292.8324 -50.1641 20.9703 30992.8504 -50.1641 20.9703
ENERGY: 300000 0.9085 7.8628 6.0631 0.0000 -10633.3999 1396.5451 0.0000 0.0000 1788.5098 -7433.5106 302.8837 -9222.0204 -7504.8006 301.0175 -385.9766 -362.1605 31229.1500 125.6860 182.1654
ENERGY: 600000 0.4956 3.1271 5.3620 0.0000 -10796.6957 1395.1298 0.0000 0.0000 1732.9457 -7659.6354 293.4740 -9392.5812 -7528.6078 301.9558 -558.4556 -554.2408 30559.8341 42.2552 103.6890
ENERGY: 900000 0.7676 4.4778 5.9178 0.0000 -10878.9370 1506.4437 0.0000 0.0000 1775.1176 -7586.2126 300.6158 -9361.3302 -7544.6937 301.4175 429.5114 496.4032 30373.4140 -88.2784 -19.6569
ENERGY: 1200000 1.4029 3.5448 6.4692 0.0000 -10692.7145 1361.9911 0.0000 0.0000 1763.2327 -7556.0739 298.6031 -9319.3066 -7542.8981 300.8999 -557.3693 -537.4770 30551.5126 -49.4961 11.5751
ENERGY: 1500000 0.1210 1.7543 5.0454 0.0000 -10916.3462 1460.8378 0.0000 0.0000 1735.6773 -7712.9105 293.9366 -9448.5878 -7564.6116 299.4089 -320.9436 -292.4185 30335.0990 53.2843 112.5478
TCL: Running FEP window   7: Lambda1 0.3    Lambda2 0.35   [dLambda 0.04999999999999999]
TCL: Setting parameter firsttimestep to 0
TCL: Setting parameter alchLambda to 0.3
Info: NONBONDED TABLE R-SQUARED SPACING: 0.0625
Info: NONBONDED TABLE SIZE: 705 POINTS
TCL: Setting parameter alchLambda2 to 0.35
Info: NONBONDED TABLE R-SQUARED SPACING: 0.0625
Info: NONBONDED TABLE SIZE: 705 POINTS
TCL: Running for 1500000 steps
ETITLE: TS BOND ANGLE DIHED IMPRP ELECT VDW BOUNDARY MISC KINETIC TOTAL TEMP POTENTIAL TOTALAVG TEMPAVG PRESSURE GPRESSURE VOLUME PRESSAVG GPRESSAVG
ENERGY: 0 0.1210 1.7543 5.0454 0.0000 -10916.3464 1461.2355 0.0000 0.0000 1734.8075 -7713.3828 293.7893 -9448.1903 -7713.3828 293.7893 -360.1151 -289.8311 30335.0990 -360.1151 -289.8311
ENERGY: 300000 0.2073 4.5149 6.6153 0.0000 -10809.6338 1455.3528 0.0000 0.0000 1733.0927 -7609.8509 293.4989 -9342.9436 -7604.4995 295.4490 62.8359 164.8705 30172.5470 19.5551 70.9190
ENERGY: 600000 2.2321 5.3712 6.6578 0.0000 -10643.3406 1406.6101 0.0000 0.0000 1744.8563 -7477.6130 295.4910 -9222.4692 -7593.2977 296.4965 -31.9885 13.8639 30798.5999 271.5129 321.6731
ENERGY: 900000 2.0632 8.4658 6.2294 0.0000 -10711.2560 1408.0916 0.0000 0.0000 1749.6417 -7536.7643 296.3015 -9286.4060 -7569.8750 297.5562 -477.4697 -332.8790 30729.3831 122.8884 187.0737
ENERGY: 1200000 1.0010 5.5898 5.0998 0.0000 -10749.8937 1414.0593 0.0000 0.0000 1759.7104 -7564.4334 298.0066 -9324.1438 -7566.5467 298.0282 -477.1936 -357.1652 30772.9290 -4.9238 59.6779
ENERGY: 1500000 0.9615 8.1483 6.7481 0.0000 -10833.3425 1429.0892 0.0000 0.0000 1738.5944 -7649.8010 294.4306 -9388.3953 -7575.2246 297.9384 -313.0473 -288.1291 30525.7482 -14.5409 45.7003
TCL: Running FEP window   8: Lambda1 0.35   Lambda2 0.39999999999999997 [dLambda 0.04999999999999999]
TCL: Setting parameter firsttimestep to 0
TCL: Setting parameter alchLambda to 0.35
Info: NONBONDED TABLE R-SQUARED SPACING: 0.0625
Info: NONBONDED TABLE SIZE: 705 POINTS
TCL: Setting parameter alchLambda2 to 0.39999999999999997
Info: NONBONDED TABLE R-SQUARED SPACING: 0.0625
Info: NONBONDED TABLE SIZE: 705 POINTS
TCL: Running for 1500000 steps
ETITLE: TS BOND ANGLE DIHED IMPRP ELECT VDW BOUNDARY MISC KINETIC TOTAL TEMP POTENTIAL TOTALAVG TEMPAVG PRESSURE GPRESSURE VOLUME PRESSAVG GPRESSAVG
ENERGY: 0 0.9615 8.1483 6.7481 0.0000 -10833.3416 1428.9357 0.0000 0.0000 1737.7055 -7650.8425 294.2800 -9388.5479 -7650.8425 294.2800 -376.6521 -283.2592 30525.7482 -376.6521 -283.2592
ENERGY: 300000 1.4476 5.9577 7.2489 0.0000 -10848.2165 1504.4105 0.0000 0.0000 1789.2376 -7539.9142 303.0070 -9329.1518 -7597.4132 298.7443 348.5926 423.4135 30836.4513 16.6296 97.1574
ENERGY: 600000 1.2746 6.9327 6.6629 0.0000 -10892.0974 1498.1570 0.0000 0.0000 1734.8485 -7644.2218 293.7962 -9379.0703 -7568.2899 298.9802 200.4631 291.0020 30437.6650 -135.2302 -54.6989
ENERGY: 900000 0.3362 4.1945 5.7749 0.0000 -10880.6526 1498.2519 0.0000 0.0000 1746.2308 -7625.8643 295.7238 -9372.0951 -7588.7581 297.0487 290.6348 368.7257 30363.8768 -162.4358 -92.5996
ENERGY: 1200000 1.1425 4.1000 6.4498 0.0000 -10797.9389 1460.9839 0.0000 0.0000 1794.5467 -7530.7160 303.9061 -9325.2627 -7581.7001 296.9847 160.4407 197.1938 30687.5376 -177.6613 -107.8059
ENERGY: 1500000 1.6169 4.7618 5.6887 0.0000 -10822.8784 1560.5376 0.0000 0.0000 1804.1537 -7446.1197 305.5330 -9250.2734 -7566.1473 297.8784 759.8897 814.6864 31138.0915 -144.7896 -75.7332
TCL: Running FEP window   9: Lambda1 0.39999999999999997 Lambda2 0.44999999999999996 [dLambda 0.04999999999999999]
TCL: Setting parameter firsttimestep to 0
TCL: Setting parameter alchLambda to 0.39999999999999997
Info: NONBONDED TABLE R-SQUARED SPACING: 0.0625
Info: NONBONDED TABLE SIZE: 705 POINTS
TCL: Setting parameter alchLambda2 to 0.44999999999999996
Info: NONBONDED TABLE R-SQUARED SPACING: 0.0625
Info: NONBONDED TABLE SIZE: 705 POINTS
TCL: Running for 1500000 steps
ETITLE: TS BOND ANGLE DIHED IMPRP ELECT VDW BOUNDARY MISC KINETIC TOTAL TEMP POTENTIAL TOTALAVG TEMPAVG PRESSURE GPRESSURE VOLUME PRESSAVG GPRESSAVG
ENERGY: 0 1.6169 4.7618 5.6887 0.0000 -10822.8780 1560.1730 0.0000 0.0000 1803.2921 -7447.3456 305.3871 -9250.6377 -7447.3456 305.3871 734.2511 816.8582 31138.0915 734.2511 816.8582
ENERGY: 300000 2.6497 12.9240 6.4115 0.0000 -10707.7369 1430.2820 0.0000 0.0000 1779.4404 -7476.0292 301.3478 -9255.4696 -7552.8500 300.1240 86.9394 186.6166 30369.2825 342.3878 423.1167
ENERGY: 600000 2.1663 5.3426 5.9740 0.0000 -10963.8976 1518.7844 0.0000 0.0000 1784.2695 -7647.3608 302.1657 -9431.6302 -7543.2355 301.0272 199.1727 299.9386 30408.3060 387.4815 465.7789
ENERGY: 900000 1.0067 7.6144 5.0380 0.0000 -10955.6355 1524.2591 0.0000 0.0000 1751.4115 -7666.3058 296.6012 -9417.7173 -7561.6305 300.8455 270.9561 233.0187 30582.0296 300.1855 361.7775
ENERGY: 1200000 0.2014 4.3355 4.9758 0.0000 -10880.6263 1480.2356 0.0000 0.0000 1784.8539 -7606.0241 302.2646 -9390.8780 -7568.8679 300.3616 191.5171 210.4723 30487.9891 177.1116 229.6221
ENERGY: 1500000 6.0018 3.9574 6.4886 0.0000 -10664.0325 1357.2185 0.0000 0.0000 1759.5165 -7530.8497 297.9737 -9290.3662 -7571.6158 300.3169 -856.6841 -815.1319 31153.2909 65.1191 117.5982
TCL: Running FEP window  10: Lambda1 0.44999999999999996 Lambda2 0.49999999999999994 [dLambda 0.04999999999999999]
TCL: Setting parameter firsttimestep to 0
TCL: Setting parameter alchLambda to 0.44999999999999996
Info: NONBONDED TABLE R-SQUARED SPACING: 0.0625
Info: NONBONDED TABLE SIZE: 705 POINTS
TCL: Setting parameter alchLambda2 to 0.49999999999999994
Info: NONBONDED TABLE R-SQUARED SPACING: 0.0625
Info: NONBONDED TABLE SIZE: 705 POINTS
TCL: Running for 1500000 steps
ETITLE: TS BOND ANGLE DIHED IMPRP ELECT VDW BOUNDARY MISC KINETIC TOTAL TEMP POTENTIAL TOTALAVG TEMPAVG PRESSURE GPRESSURE VOLUME PRESSAVG GPRESSAVG
ENERGY: 0 6.0018 3.9574 6.4886 0.0000 -10664.0315 1357.1710 0.0000 0.0000 1758.6238 -7531.7890 297.8226 -9290.4128 -7531.7890 297.8226 -899.9660 -814.3970 31153.2909 -899.9660 -814.3970
ENERGY: 300000 1.7489 5.1983 6.1849 0.0000 -10915.6830 1483.2031 0.0000 0.0000 1808.9296 -7610.4182 306.3418 -9419.3478 -7581.3784 304.0565 -167.0223 -67.8184 30859.2375 -128.3943 -61.4439
ENERGY: 600000 1.5839 4.8384 5.7010 0.0000 -10881.5430 1523.4135 0.0000 0.0000 1779.8700 -7566.1362 301.4206 -9346.0062 -7571.7124 302.5422 646.6266 687.0701 30149.5277 49.8033 121.6903
ENERGY: 900000 1.3073 7.0090 6.2465 0.0000 -10769.1345 1451.5522 0.0000 0.0000 1702.4299 -7600.5897 288.3061 -9303.0196 -7574.4617 299.6176 142.4230 162.4756 30219.6242 58.0360 125.9845
ENERGY: 1200000 1.4536 3.3727 6.4034 0.0000 -10649.3794 1303.8933 0.0000 0.0000 1758.7065 -7575.5500 297.8366 -9334.2564 -7569.9909 299.9920 -1092.6855 -1019.1799 30530.9847 -41.5826 25.8675
ENERGY: 1500000 0.9033 3.1279 5.4172 0.0000 -10812.0014 1435.3169 0.0000 0.0000 1746.3030 -7620.9331 295.7360 -9367.2361 -7574.2364 300.0324 -263.9408 -264.7644 30656.2363 -25.0298 37.2266
TCL: Running FEP window  11: Lambda1 0.49999999999999994 Lambda2 0.5499999999999999 [dLambda 0.04999999999999999]
TCL: Setting parameter firsttimestep to 0
TCL: Setting parameter alchLambda to 0.49999999999999994
Info: NONBONDED TABLE R-SQUARED SPACING: 0.0625
Info: NONBONDED TABLE SIZE: 705 POINTS
TCL: Setting parameter alchLambda2 to 0.5499999999999999
Info: NONBONDED TABLE R-SQUARED SPACING: 0.0625
Info: NONBONDED TABLE SIZE: 705 POINTS
TCL: Running for 1500000 steps
ETITLE: TS BOND ANGLE DIHED IMPRP ELECT VDW BOUNDARY MISC KINETIC TOTAL TEMP POTENTIAL TOTALAVG TEMPAVG PRESSURE GPRESSURE VOLUME PRESSAVG GPRESSAVG
ENERGY: 0 0.9033 3.1279 5.4172 0.0000 -10812.0012 1435.4186 0.0000 0.0000 1745.4556 -7621.6786 295.5925 -9367.1341 -7621.6786 295.5925 -331.2054 -260.8107 30656.2363 -331.2054 -260.8107
ENERGY: 300000 0.6316 5.2276 4.9799 0.0000 -10767.8976 1473.8603 0.0000 0.0000 1744.4697 -7538.7284 295.4256 -9283.1982 -7542.0098 299.1599 229.2101 305.5124 30783.7007 -87.6945 -9.6706
ENERGY: 600000 0.3235 3.3151 5.3117 0.0000 -10680.6214 1352.2129 0.0000 0.0000 1766.2778 -7553.1804 299.1188 -9319.4583 -7566.2676 298.2320 -641.7926 -525.3786 30416.1205 -74.7528 8.2367
ENERGY: 900000 2.6253 9.1711 6.5079 0.0000 -10940.6893 1501.2635 0.0000 0.0000 1755.7959 -7665.3255 297.3437 -9421.1214 -7581.1215 298.5070 198.0604 246.1915 30524.3423 14.3988 88.4796
ENERGY: 1200000 0.1095 5.8392 5.5680 0.0000 -11122.2648 1621.9071 0.0000 0.0000 1781.7447 -7707.0964 301.7381 -9488.8411 -7588.6871 298.7371 975.5261 1167.1794 29998.7963 28.6518 113.9638
ENERGY: 1500000 1.0693 4.0632 5.8421 0.0000 -10891.1109 1451.2808 0.0000 0.0000 1783.0883 -7645.7672 301.9656 -9428.8555 -7594.4670 298.8108 -99.4251 -46.2162 30309.4532 51.2349 132.5137
TCL: Running FEP window  12: Lambda1 0.5499999999999999 Lambda2 0.6    [dLambda 0.050000000000000044]
TCL: Setting parameter firsttimestep to 0
TCL: Setting parameter alchLambda to 0.5499999999999999
Info: NONBONDED TABLE R-SQUARED SPACING: 0.0625
Info: NONBONDED TABLE SIZE: 705 POINTS
TCL: Setting parameter alchLambda2 to 0.6
Info: NONBONDED TABLE R-SQUARED SPACING: 0.0625
Info: NONBONDED TABLE SIZE: 705 POINTS
TCL: Running for 1500000 steps
ETITLE: TS BOND ANGLE DIHED IMPRP ELECT VDW BOUNDARY MISC KINETIC TOTAL TEMP POTENTIAL TOTALAVG TEMPAVG PRESSURE GPRESSURE VOLUME PRESSAVG GPRESSAVG
ENERGY: 0 1.0693 4.0632 5.8421 0.0000 -10891.3024 1450.8741 0.0000 0.0000 1782.2245 -7647.2292 301.8193 -9429.4537 -7647.2292 301.8193 -131.5245 -45.3237 30309.4532 -131.5245 -45.3237
ENERGY: 300000 1.9383 6.2172 5.1419 0.0000 -10756.3654 1377.3517 0.0000 0.0000 1790.2570 -7575.4593 303.1796 -9365.7163 -7575.2591 299.0761 -660.5081 -536.4980 30387.8864 -93.5112 -27.5125
ENERGY: 600000 3.4924 5.8949 5.6940 0.0000 -10806.0138 1433.2720 0.0000 0.0000 1776.5441 -7581.1164 300.8574 -9357.6606 -7590.1350 300.2364 -136.1799 -175.2508 30903.4975 -209.2882 -164.7469
ENERGY: 900000 0.7772 9.8964 4.9911 0.0000 -10672.7098 1367.5870 0.0000 0.0000 1766.5516 -7522.9064 299.1651 -9289.4580 -7571.1087 299.9667 -493.5742 -414.0571 30394.5001 -160.9312 -106.3577
ENERGY: 1200000 0.5791 15.1839 6.6273 0.0000 -10826.5805 1501.1798 0.0000 0.0000 1762.0573 -7540.9532 298.4040 -9303.0104 -7567.4564 299.4662 591.7131 701.8118 30381.2675 -151.4858 -95.4211
ENERGY: 1500000 0.9047 8.3929 7.3530 0.0000 -10683.6830 1387.0215 0.0000 0.0000 1773.0160 -7506.9949 300.2599 -9280.0109 -7562.0474 299.6233 -525.5492 -463.5923 30928.2693 -204.5419 -142.5967
TCL: Running FEP window  13: Lambda1 0.6    Lambda2 0.65   [dLambda 0.050000000000000044]
TCL: Setting parameter firsttimestep to 0
TCL: Setting parameter alchLambda to 0.6
Info: NONBONDED TABLE R-SQUARED SPACING: 0.0625
Info: NONBONDED TABLE SIZE: 705 POINTS
TCL: Setting parameter alchLambda2 to 0.65
Info: NONBONDED TABLE R-SQUARED SPACING: 0.0625
Info: NONBONDED TABLE SIZE: 705 POINTS
TCL: Running for 1500000 steps
ETITLE: TS BOND ANGLE DIHED IMPRP ELECT VDW BOUNDARY MISC KINETIC TOTAL TEMP POTENTIAL TOTALAVG TEMPAVG PRESSURE GPRESSURE VOLUME PRESSAVG GPRESSAVG
ENERGY: 0 0.9047 8.3929 7.3530 0.0000 -10683.3628 1387.2769 0.0000 0.0000 1772.1729 -7507.2624 300.1171 -9279.4353 -7507.2624 300.1171 -541.2264 -455.0338 30928.2693 -541.2264 -455.0338
ENERGY: 300000 1.8580 7.4901 5.8031 0.0000 -10743.0771 1469.0487 0.0000 0.0000 1790.1552 -7468.7220 303.1624 -9258.8772 -7495.6371 302.3597 180.6544 250.0903 30714.1499 46.7976 110.0716
ENERGY: 600000 1.2257 6.4676 5.9592 0.0000 -10911.0296 1495.5422 0.0000 0.0000 1750.1902 -7651.6448 296.3943 -9401.8350 -7530.3871 301.5864 -38.5455 53.8228 31015.9560 25.9299 89.5695
ENERGY: 900000 2.0988 4.3212 6.1771 0.0000 -10819.5851 1404.2914 0.0000 0.0000 1786.5204 -7616.1763 302.5469 -9402.6967 -7534.2423 302.5803 -663.0465 -651.4798 30943.3950 -66.3602 -15.0109
ENERGY: 1200000 1.4185 7.0826 6.6727 0.0000 -10952.7498 1563.4298 0.0000 0.0000 1754.8307 -7619.3156 297.1802 -9374.1463 -7549.6073 301.5069 898.6756 946.6383 30330.0943 88.5369 140.9946
ENERGY: 1500000 2.1209 5.5268 6.6370 0.0000 -10776.6155 1423.7880 0.0000 0.0000 1743.7230 -7594.8198 295.2991 -9338.5428 -7555.8132 301.8315 -351.8432 -313.9324 30780.6810 26.4010 74.6468
TCL: Running FEP window  14: Lambda1 0.65   Lambda2 0.7000000000000001 [dLambda 0.050000000000000044]
TCL: Setting parameter firsttimestep to 0
TCL: Setting parameter alchLambda to 0.65
Info: NONBONDED TABLE R-SQUARED SPACING: 0.0625
Info: NONBONDED TABLE SIZE: 705 POINTS
TCL: Setting parameter alchLambda2 to 0.7000000000000001
Info: NONBONDED TABLE R-SQUARED SPACING: 0.0625
Info: NONBONDED TABLE SIZE: 705 POINTS
TCL: Running for 1500000 steps
ETITLE: TS BOND ANGLE DIHED IMPRP ELECT VDW BOUNDARY MISC KINETIC TOTAL TEMP POTENTIAL TOTALAVG TEMPAVG PRESSURE GPRESSURE VOLUME PRESSAVG GPRESSAVG
ENERGY: 0 2.1209 5.5268 6.6370 0.0000 -10776.7340 1424.1951 0.0000 0.0000 1742.8730 -7595.3812 295.1552 -9338.2542 -7595.3812 295.1552 -379.3181 -301.3557 30780.6810 -379.3181 -301.3557
ENERGY: 300000 1.3296 2.9447 5.4539 0.0000 -10724.0307 1415.8038 0.0000 0.0000 1799.2371 -7499.2616 304.7004 -9298.4987 -7553.1239 301.1533 -132.7403 -95.3578 30561.0530 -145.6854 -74.7808
ENERGY: 600000 2.3337 4.8626 5.1129 0.0000 -10642.9599 1374.8982 0.0000 0.0000 1832.6058 -7423.1468 310.3514 -9255.7526 -7554.7801 301.9353 -525.5742 -434.4888 30991.7856 -270.3694 -189.2039
ENERGY: 900000 2.1775 2.6995 7.0413 0.0000 -10892.3292 1524.0116 0.0000 0.0000 1766.8517 -7589.5476 299.2160 -9356.3993 -7559.1414 301.1370 656.2755 681.1664 30370.4523 -177.8232 -112.3298
ENERGY: 1200000 0.1531 3.3107 6.2998 0.0000 -10950.8444 1634.1753 0.0000 0.0000 1827.9010 -7479.0045 309.5546 -9306.9055 -7553.7060 300.5687 1191.5815 1292.5334 31052.4282 -82.5893 -13.7146
ENERGY: 1500000 2.4927 5.5522 6.8296 0.0000 -10731.6263 1371.0255 0.0000 0.0000 1860.5787 -7485.1477 315.0886 -9345.7263 -7550.2825 301.7589 -1049.8497 -930.5202 31092.5425 -181.9824 -114.5762
TCL: Running FEP window  15: Lambda1 0.7000000000000001 Lambda2 0.7500000000000001 [dLambda 0.050000000000000044]
TCL: Setting parameter firsttimestep to 0
TCL: Setting parameter alchLambda to 0.7000000000000001
Info: NONBONDED TABLE R-SQUARED SPACING: 0.0625
Info: NONBONDED TABLE SIZE: 705 POINTS
TCL: Setting parameter alchLambda2 to 0.7500000000000001
Info: NONBONDED TABLE R-SQUARED SPACING: 0.0625
Info: NONBONDED TABLE SIZE: 705 POINTS
TCL: Running for 1500000 steps
ETITLE: TS BOND ANGLE DIHED IMPRP ELECT VDW BOUNDARY MISC KINETIC TOTAL TEMP POTENTIAL TOTALAVG TEMPAVG PRESSURE GPRESSURE VOLUME PRESSAVG GPRESSAVG
ENERGY: 0 2.4927 5.5522 6.8296 0.0000 -10731.6507 1371.2483 0.0000 0.0000 1859.7315 -7485.7964 314.9451 -9345.5279 -7485.7964 314.9451 -1009.6733 -920.9444 31092.5425 -1009.6733 -920.9444
ENERGY: 300000 0.7305 4.1591 5.3259 0.0000 -10752.5456 1386.2344 0.0000 0.0000 1757.2809 -7598.8148 297.5951 -9356.0957 -7566.9296 305.3035 -648.7430 -530.3474 30752.8305 -310.5135 -224.8699
ENERGY: 600000 1.9035 3.8361 8.3674 0.0000 -10799.3731 1420.9330 0.0000 0.0000 1749.7902 -7614.5429 296.3266 -9364.3331 -7588.9196 302.1494 -260.6638 -197.1844 30661.5862 -199.4697 -128.3983
ENERGY: 900000 0.7196 6.1433 6.0913 0.0000 -10814.4219 1410.1808 0.0000 0.0000 1769.6393 -7621.6476 299.6880 -9391.2870 -7600.8577 301.0963 -428.8721 -344.7772 30451.8316 -82.4498 -9.4775
ENERGY: 1200000 0.6342 5.0223 6.2153 0.0000 -10817.9374 1435.5678 0.0000 0.0000 1759.4541 -7611.0438 297.9632 -9370.4979 -7599.7334 300.5374 -104.3408 -59.8030 30518.3486 -103.5270 -34.1105
ENERGY: 1500000 0.5619 5.5739 5.2397 0.0000 -10797.0366 1431.1217 0.0000 0.0000 1751.9930 -7602.5465 296.6996 -9354.5395 -7599.0824 300.3664 -222.6633 -101.4882 30605.9999 -45.2581 24.7273
TCL: Running FEP window  16: Lambda1 0.7500000000000001 Lambda2 0.8000000000000002 [dLambda 0.050000000000000044]
TCL: Setting parameter firsttimestep to 0
TCL: Setting parameter alchLambda to 0.7500000000000001
Info: NONBONDED TABLE R-SQUARED SPACING: 0.0625
Info: NONBONDED TABLE SIZE: 705 POINTS
TCL: Setting parameter alchLambda2 to 0.8000000000000002
Info: NONBONDED TABLE R-SQUARED SPACING: 0.0625
Info: NONBONDED TABLE SIZE: 705 POINTS
TCL: Running for 1500000 steps
ETITLE: TS BOND ANGLE DIHED IMPRP ELECT VDW BOUNDARY MISC KINETIC TOTAL TEMP POTENTIAL TOTALAVG TEMPAVG PRESSURE GPRESSURE VOLUME PRESSAVG GPRESSAVG
ENERGY: 0 0.5619 5.5739 5.2397 0.0000 -10799.7851 1432.4293 0.0000 0.0000 1751.1276 -7604.8527 296.5531 -9355.9803 -7604.8527 296.5531 -193.5124 -87.1589 30605.9999 -193.5124 -87.1589
ENERGY: 300000 1.3504 6.3238 6.7493 0.0000 -10891.0818 1495.6587 0.0000 0.0000 1747.5613 -7633.4384 295.9491 -9380.9997 -7564.9105 300.7388 104.0045 186.3205 30576.7321 4.8228 76.4578
ENERGY: 600000 2.1400 4.1633 5.1765 0.0000 -10885.2746 1470.0767 0.0000 0.0000 1757.2305 -7646.4877 297.5866 -9403.7182 -7564.3839 301.0926 77.0242 156.0338 30505.4968 -32.9168 28.7726
ENERGY: 900000 0.3735 2.8514 6.1956 0.0000 -10832.8857 1440.9962 0.0000 0.0000 1788.5563 -7593.9127 302.8916 -9382.4690 -7565.0720 301.0026 -298.2498 -245.5083 30598.6869 -115.5183 -57.4242
ENERGY: 1200000 0.3935 5.3799 4.9330 0.0000 -10795.6336 1426.0275 0.0000 0.0000 1770.9341 -7587.9658 299.9073 -9358.8998 -7570.7667 299.6807 -302.5569 -204.8331 30800.2621 -124.2474 -60.4047
ENERGY: 1500000 2.5288 6.0062 6.3101 0.0000 -10858.3093 1461.9729 0.0000 0.0000 1738.5416 -7642.9497 294.4217 -9381.4913 -7576.3208 299.1682 59.7322 47.7144 30668.3242 -78.0071 -17.0362
TCL: Running FEP window  17: Lambda1 0.8000000000000002 Lambda2 0.8500000000000002 [dLambda 0.050000000000000044]
TCL: Setting parameter firsttimestep to 0
TCL: Setting parameter alchLambda to 0.8000000000000002
Info: NONBONDED TABLE R-SQUARED SPACING: 0.0625
Info: NONBONDED TABLE SIZE: 705 POINTS
TCL: Setting parameter alchLambda2 to 0.8500000000000002
Info: NONBONDED TABLE R-SQUARED SPACING: 0.0625
Info: NONBONDED TABLE SIZE: 705 POINTS
TCL: Running for 1500000 steps
ETITLE: TS BOND ANGLE DIHED IMPRP ELECT VDW BOUNDARY MISC KINETIC TOTAL TEMP POTENTIAL TOTALAVG TEMPAVG PRESSURE GPRESSURE VOLUME PRESSAVG GPRESSAVG
ENERGY: 0 2.5288 6.0062 6.3101 0.0000 -10858.9015 1462.8761 0.0000 0.0000 1737.6690 -7643.5113 294.2739 -9381.1802 -7643.5113 294.2739 -13.2216 63.2199 30668.3242 -13.2216 63.2199
ENERGY: 300000 1.5418 7.3105 5.7289 0.0000 -10778.9414 1426.3233 0.0000 0.0000 1800.4670 -7537.5698 304.9087 -9338.0368 -7562.7841 302.7094 -163.4547 -98.6619 30629.4807 -65.7131 10.7400
ENERGY: 600000 1.0825 5.6153 6.5305 0.0000 -10813.1968 1439.0813 0.0000 0.0000 1778.1224 -7582.7648 301.1246 -9360.8872 -7561.2073 302.5660 -148.6078 -98.0979 30467.1446 -32.5941 44.0143
ENERGY: 900000 0.4488 6.5671 7.2405 0.0000 -10722.4620 1416.0887 0.0000 0.0000 1781.8982 -7510.2186 301.7641 -9292.1168 -7561.8153 300.9414 -106.2296 -52.8643 30760.3318 -25.0863 33.0413
ENERGY: 1200000 1.1368 2.3552 5.4873 0.0000 -10736.1708 1405.8828 0.0000 0.0000 1820.3597 -7500.9490 308.2775 -9321.3087 -7557.7457 301.4343 -226.7345 -184.8711 30416.3127 -28.0513 37.6251
ENERGY: 1500000 4.2742 7.5104 5.5460 0.0000 -10861.7636 1460.5466 0.0000 0.0000 1789.2460 -7594.6403 303.0084 -9383.8863 -7563.0391 302.1125 113.6937 205.8730 30054.5113 -90.0611 -26.4893
TCL: Running FEP window  18: Lambda1 0.8500000000000002 Lambda2 0.9000000000000002 [dLambda 0.050000000000000044]
TCL: Setting parameter firsttimestep to 0
TCL: Setting parameter alchLambda to 0.8500000000000002
Info: NONBONDED TABLE R-SQUARED SPACING: 0.0625
Info: NONBONDED TABLE SIZE: 705 POINTS
TCL: Setting parameter alchLambda2 to 0.9000000000000002
Info: NONBONDED TABLE R-SQUARED SPACING: 0.0625
Info: NONBONDED TABLE SIZE: 705 POINTS
TCL: Running for 1500000 steps
ETITLE: TS BOND ANGLE DIHED IMPRP ELECT VDW BOUNDARY MISC KINETIC TOTAL TEMP POTENTIAL TOTALAVG TEMPAVG PRESSURE GPRESSURE VOLUME PRESSAVG GPRESSAVG
ENERGY: 0 4.2742 7.5104 5.5460 0.0000 -10862.2342 1460.9919 0.0000 0.0000 1788.3848 -7595.5269 302.8626 -9383.9117 -7595.5269 302.8626 129.5949 221.1197 30054.5113 129.5949 221.1197
ENERGY: 300000 0.7765 2.7972 6.0583 0.0000 -10815.7460 1479.3238 0.0000 0.0000 1769.8682 -7556.9219 299.7268 -9326.7901 -7599.9503 298.7062 242.4928 215.1961 30434.1956 85.4283 151.4343
ENERGY: 600000 1.7604 4.7550 5.0047 0.0000 -10866.9896 1449.2090 0.0000 0.0000 1773.3443 -7632.9161 300.3155 -9406.2604 -7583.2766 299.1245 -243.1743 -157.7405 30402.0253 49.2954 112.9666
ENERGY: 900000 0.8733 7.3430 5.9649 0.0000 -10896.5878 1479.7843 0.0000 0.0000 1758.9536 -7643.6687 297.8784 -9402.6223 -7591.3286 298.1295 70.4404 93.7739 30550.4712 -59.5839 -3.1442
ENERGY: 1200000 0.3731 2.3734 5.9036 0.0000 -10737.5074 1419.0695 0.0000 0.0000 1725.5224 -7584.2654 292.2168 -9309.7878 -7592.4167 297.6716 -2.4327 43.0976 30393.3157 -72.6536 -13.5139
ENERGY: 1500000 1.3259 3.9532 4.9565 0.0000 -10672.3877 1422.8188 0.0000 0.0000 1813.0509 -7426.2824 307.0398 -9239.3333 -7571.7802 298.2571 -49.4013 -29.9039 30949.6674 -144.7007 -88.0484
TCL: Running FEP window  19: Lambda1 0.9000000000000002 Lambda2 0.9500000000000003 [dLambda 0.050000000000000044]
TCL: Setting parameter firsttimestep to 0
TCL: Setting parameter alchLambda to 0.9000000000000002
Info: NONBONDED TABLE R-SQUARED SPACING: 0.0625
Info: NONBONDED TABLE SIZE: 705 POINTS
TCL: Setting parameter alchLambda2 to 0.9500000000000003
Info: NONBONDED TABLE R-SQUARED SPACING: 0.0625
Info: NONBONDED TABLE SIZE: 705 POINTS
TCL: Running for 1500000 steps
ETITLE: TS BOND ANGLE DIHED IMPRP ELECT VDW BOUNDARY MISC KINETIC TOTAL TEMP POTENTIAL TOTALAVG TEMPAVG PRESSURE GPRESSURE VOLUME PRESSAVG GPRESSAVG
ENERGY: 0 1.3259 3.9532 4.9565 0.0000 -10673.7589 1423.3931 0.0000 0.0000 1812.1780 -7427.9522 306.8920 -9240.1302 -7427.9522 306.8920 -91.4742 -18.8712 30949.6674 -91.4742 -18.8712
ENERGY: 300000 1.5143 5.7946 6.3271 0.0000 -10844.1664 1574.5317 0.0000 0.0000 1734.5756 -7521.4232 293.7500 -9255.9988 -7510.8027 298.8979 1277.2016 1216.3937 30857.9010 303.9515 330.4138
ENERGY: 600000 1.4959 2.0313 5.7274 0.0000 -10776.3769 1415.6691 0.0000 0.0000 1774.8813 -7576.5718 300.5758 -9351.4531 -7559.8628 298.2001 -129.6966 -99.9705 30299.5692 194.1310 252.6338
ENERGY: 900000 0.6183 5.7840 6.3085 0.0000 -10810.8488 1456.0437 0.0000 0.0000 1729.3193 -7612.7748 292.8599 -9342.0942 -7563.0734 298.3152 49.4760 144.0245 30342.7628 169.8647 233.2971
ENERGY: 1200000 2.5820 3.2900 6.7121 0.0000 -10950.0929 1555.3085 0.0000 0.0000 1849.8824 -7532.3179 313.2772 -9382.2003 -7549.8101 300.5478 937.0224 1002.8485 30283.9180 181.7523 243.2178
ENERGY: 1500000 1.5999 5.1629 4.7218 0.0000 -10799.0391 1421.6811 0.0000 0.0000 1808.1591 -7557.7143 306.2114 -9365.8735 -7547.4763 300.8555 -718.6399 -600.3675 31372.6245 87.9949 150.8531
TCL: Running FEP window  20: Lambda1 0.9500000000000003 Lambda2 1.0    [dLambda 0.04999999999999971]
TCL: Setting parameter firsttimestep to 0
TCL: Setting parameter alchLambda to 0.9500000000000003
Info: NONBONDED TABLE R-SQUARED SPACING: 0.0625
Info: NONBONDED TABLE SIZE: 705 POINTS
TCL: Setting parameter alchLambda2 to 1.0
Info: NONBONDED TABLE R-SQUARED SPACING: 0.0625
Info: NONBONDED TABLE SIZE: 705 POINTS
TCL: Running for 1500000 steps
ETITLE: TS BOND ANGLE DIHED IMPRP ELECT VDW BOUNDARY MISC KINETIC TOTAL TEMP POTENTIAL TOTALAVG TEMPAVG PRESSURE GPRESSURE VOLUME PRESSAVG GPRESSAVG
ENERGY: 0 1.5999 5.1629 4.7218 0.0000 -10800.6669 1422.6056 0.0000 0.0000 1807.2780 -7559.2988 306.0621 -9366.5767 -7559.2988 306.0621 -666.9911 -585.8684 31372.6245 -666.9911 -585.8684
ENERGY: 300000 0.3080 7.8114 5.2736 0.0000 -10675.9653 1343.7701 0.0000 0.0000 1751.7455 -7567.0566 296.6577 -9318.8022 -7551.6696 300.3616 -699.6186 -634.6926 30613.9746 -228.1307 -156.9658
ENERGY: 600000 3.2200 11.8489 5.3187 0.0000 -10721.0759 1405.8738 0.0000 0.0000 1773.6981 -7521.1163 300.3754 -9294.8144 -7562.3053 299.7756 -162.6423 -97.2843 30779.6954 -180.7993 -124.1374
ENERGY: 900000 1.7281 3.6467 4.8268 0.0000 -10882.0773 1445.1790 0.0000 0.0000 1762.1854 -7664.5113 298.4257 -9426.6967 -7585.0333 299.7691 44.5762 100.4955 30085.2376 -69.1036 -19.1019
ENERGY: 1200000 0.6882 4.7322 5.9982 0.0000 -10802.0181 1451.9002 0.0000 0.0000 1798.2952 -7540.4041 304.5409 -9338.6993 -7581.6692 299.9221 59.5957 67.1313 30607.9320 0.4465 47.4911
ENERGY: 1500000 1.0402 4.5830 5.6015 0.0000 -10844.9990 1471.9388 0.0000 0.0000 1741.5363 -7620.2991 294.9288 -9361.8354 -7589.7764 298.6313 28.3069 39.3875 30704.1355 -12.5431 35.9916
TCL: Exiting due to exit command.
