Info: SIMULATION PARAMETERS:
Info: TIMESTEP               2
Info: NUMBER OF STEPS        0
Info: STEPS PER CYCLE        10
Info: PERIODIC CELL BASIS 1  30.9864 0 0
Info: PERIODIC CELL BASIS 2  0 31.3628 0
Info: PERIODIC CELL BASIS 3  0 0 32.0607
Info: PERIODIC CELL CENTER   0 0 0
Info: WRAPPING WATERS AROUND PERIODIC BOUNDARIES ON OUTPUT.
Info: WRAPPING ALL CLUSTERS AROUND PERIODIC BOUNDARIES ON OUTPUT.
Info: FIRST LDB TIMESTEP     50
Info: LAST LDB TIMESTEP     -1
Info: HOM BACKGROUND SCALING 1
Info: PME BACKGROUND SCALING 1
Info: MIN ATOMS PER PATCH    40
Info: EMPTY PATCH LOAD       40 ATOMS
Info: VELOCITY FILE          mobley_2245668_equil.vel
Info: CENTER OF MASS MOVING INITIALLY? NO
Info: DIELECTRIC             1
Info: EXCLUDE                SCALED ONE-FOUR
Info: 1-4 ELECTROSTATICS SCALED BY 0.833333
Info: MODIFIED 1-4 VDW PARAMETERS WILL BE USED
Info: DCD FILENAME           mobley_2245668_prod.dcd
Info: DCD FREQUENCY          100000
Info: DCD FIRST STEP         100000
Info: DCD FILE WILL CONTAIN UNIT CELL DATA
Info: XST FILENAME           mobley_2245668_prod.xst
Info: XST FREQUENCY          100000
Info: NO VELOCITY DCD OUTPUT
Info: NO FORCE DCD OUTPUT
Info: OUTPUT FILENAME        mobley_2245668_prod
Info: BINARY OUTPUT FILES WILL BE USED
Info: RESTART FILENAME       mobley_2245668_prod.restart
Info: RESTART FREQUENCY      100000
Info: BINARY RESTART FILES WILL BE USED
Info: CUTOFF                 9
Info: PAIRLIST DISTANCE      11
Info: PAIRLIST SHRINK RATE   0.01
Info: PAIRLIST GROW RATE     0.01
Info: PAIRLIST TRIGGER       0.3
Info: PAIRLISTS PER CYCLE    2
Info: PAIRLISTS ENABLED
Info: MARGIN                 2
Info: HYDROGEN GROUP CUTOFF  2.5
Info: PATCH DIMENSION        15.5
Info: ENERGY OUTPUT STEPS    100000
Info: ENERGY EVALUATION STEPS    100000
Info: OUTPUT ENERGY PRECISION 4
Info: CROSSTERM ENERGY INCLUDED IN DIHEDRAL
Info: TIMING OUTPUT STEPS    1000000
Info: PRESSURE OUTPUT STEPS  100000
Info: ALCHEMICAL FEP ON
Info: FEP CURRENT LAMBDA VALUE     1
Info: FEP COMPARISON LAMBDA VALUE  0.95
Info: FEP INTRA-ALCHEMICAL NON-BONDED INTERACTIONS WILL BE RETAINED
Info: FEP INTRA-ALCHEMICAL BONDED INTERACTIONS WILL BE RETAINED
Info: FEP VDW SHIFTING COEFFICIENT 5
Info: FEP ELEC. ACTIVE FOR ANNIHILATED PARTICLES BETWEEN LAMBDA = 0 AND LAMBDA = 0.5
Info: FEP ELEC. ACTIVE FOR EXNIHILATED PARTICLES BETWEEN LAMBDA = 0.5 AND LAMBDA = 1
Info: FEP VDW ACTIVE FOR ANNIHILATED PARTICLES BETWEEN LAMBDA = 0 AND LAMBDA = 1
Info: FEP VDW ACTIVE FOR EXNIHILATED PARTICLES BETWEEN LAMBDA = 0 AND LAMBDA = 1
Info: FEP BOND ACTIVE FOR ANNIHILATED PARTICLES BETWEEN LAMBDA = 1 AND LAMBDA = 1
Info: FEP BOND ACTIVE FOR EXNIHILATED PARTICLES BETWEEN LAMBDA = 0 AND LAMBDA = 0
Info: LANGEVIN DYNAMICS ACTIVE
Info: LANGEVIN TEMPERATURE   300
Info: LANGEVIN USING BBK INTEGRATOR
Info: LANGEVIN DAMPING COEFFICIENT IS 1 INVERSE PS
Info: LANGEVIN DYNAMICS APPLIED TO HYDROGENS
Info: LANGEVIN PISTON PRESSURE CONTROL ACTIVE
Info:        TARGET PRESSURE IS 1.01325 BAR
Info:     OSCILLATION PERIOD IS 50 FS
Info:             DECAY TIME IS 25 FS
Info:     PISTON TEMPERATURE IS 300 K
Info:       PRESSURE CONTROL IS GROUP-BASED
Info:    INITIAL STRAIN RATE IS -0.000285186 -0.000285186 -0.000285186
Info:       CELL FLUCTUATION IS ISOTROPIC
Info: PARTICLE MESH EWALD (PME) ACTIVE
Info: PME TOLERANCE               1e-06
Info: PME EWALD COEFFICIENT       0.348832
Info: PME INTERPOLATION ORDER     4
Info: PME GRID DIMENSIONS         32 32 36
Info: PME MAXIMUM GRID SPACING    1
Info: PME CALCULATION WILL BE PERFORMED ON GPU
Info: FULL ELECTROSTATIC EVALUATION FREQUENCY      2
Info: USING VERLET I (r-RESPA) MTS SCHEME.
Info: C1 SPLITTING OF LONG RANGE ELECTROSTATICS
Info: PLACING ATOMS IN PATCHES BY HYDROGEN GROUPS
Info: RIGID BONDS TO HYDROGEN : ALL
Info:         ERROR TOLERANCE : 1e-08
Info:          MAX ITERATIONS : 100
Info: RIGID WATER USING SETTLE ALGORITHM
Info: RANDOM NUMBER SEED     1743742406
Info: USE HYDROGEN BONDS?    NO
Info: Using AMBER format force field!
Info: AMBER PARM FILE        mobley_2245668.prmtop
Info: COORDINATE PDB         mobley_2245668.pdb
Info: Exclusions will be read from PARM file!
Info: SCNB (VDW SCALING)     2
Info: USING ARITHMETIC MEAN TO COMBINE L-J SIGMA PARAMETERS
Info: BINARY COORDINATES     mobley_2245668_equil.coor
Info: SUMMARY OF PARAMETERS:
Info: 7 BONDS
Info: 8 ANGLES
Info:   8 HARMONIC
Info:   0 COSINE-BASED
Info: 6 DIHEDRAL
Info: 0 IMPROPER
Info: 0 CROSSTERM
Info: 0 VDW
Info: 21 VDW_PAIRS
Info: 0 NBTHOLE_PAIRS
Info: To read alchdata from file: mobley_2245668.pdb
Info: To read alchflag data from column: 5
Info: STRUCTURE SUMMARY:
Info: 3000 ATOMS
Info: 2999 BONDS
Info: 25 ANGLES
Info: 32 DIHEDRALS
Info: 0 IMPROPERS
Info: 0 CROSSTERMS
Info: 3054 EXCLUSIONS
Info: 2995 RIGID BONDS
Info: ALCH: 0 ATOMS TO DISAPPEAR IN FINAL STATE
Info: ALCH: 15 ATOMS TO APPEAR IN FINAL STATE
Info: 6005 DEGREES OF FREEDOM
Info: 1000 HYDROGEN GROUPS
Info: 4 ATOMS IN LARGEST HYDROGEN GROUP
Info: 1000 MIGRATION GROUPS
Info: 4 ATOMS IN LARGEST MIGRATION GROUP
Info: TOTAL MASS = 18000 amu
Info: TOTAL CHARGE = 2.98023e-08 e
Info: MASS DENSITY = 0.95934 g/cm^3
Info: ATOM DENSITY = 0.0962856 atoms/A^3
Info: ADDED 0 IMPLICIT EXCLUSIONS
Info: NONBONDED TABLE R-SQUARED SPACING: 0.0625
Info: NONBONDED TABLE SIZE: 705 POINTS
Info: REMOVING COM VELOCITY -0.0709647 0.028458 -0.0879417
Info: Use 3D box decompostion in PME FFT.
Info: Updated CUDA force table with 4096 elements.
Info: Updated CUDA LJ table with 6 x 6 elements.
Info: Found 18 unique exclusion lists needing 40 bytes
TCL: Running for 1500000 steps
ETITLE: TS BOND ANGLE DIHED IMPRP ELECT VDW BOUNDARY MISC KINETIC TOTAL TEMP POTENTIAL TOTALAVG TEMPAVG PRESSURE GPRESSURE VOLUME PRESSAVG GPRESSAVG
ENERGY: 0 0.2297 5.5725 0.6186 0.0000 -10798.9971 1385.3095 0.0000 0.0000 1789.1094 -7618.1573 299.8571 -9407.2667 -7618.1573 299.8571 -679.5992 -597.1977 31157.3091 -679.5992 -597.1977
ENERGY: 300000 1.2337 3.7699 2.1799 0.0000 -10943.4278 1457.2690 0.0000 0.0000 1824.0667 -7654.9086 305.7159 -9478.9752 -7622.0310 301.8806 -417.8411 -322.0871 30878.1181 -195.5528 -94.4974
ENERGY: 600000 0.9349 4.2073 2.9411 0.0000 -10738.9063 1397.5446 0.0000 0.0000 1758.4154 -7574.8630 294.7127 -9333.2784 -7624.3522 299.8263 -338.0533 -304.5225 31230.1882 4.6636 77.5576
ENERGY: 900000 1.7888 8.4320 1.5982 0.0000 -10938.5181 1473.7740 0.0000 0.0000 1791.4115 -7661.5137 300.2429 -9452.9252 -7634.7945 299.3714 133.2736 137.4725 30521.5106 79.4478 130.9716
ENERGY: 1200000 0.1467 3.4071 1.5553 0.0000 -10951.3568 1504.3767 0.0000 0.0000 1749.9681 -7691.9029 293.2969 -9441.8710 -7632.5352 300.1927 202.6525 259.5947 30850.3987 23.5896 81.2254
ENERGY: 1500000 0.9282 7.9521 2.2785 0.0000 -10945.0773 1537.9453 0.0000 0.0000 1756.6174 -7639.3558 294.4113 -9395.9732 -7623.0513 300.3184 439.3591 514.9456 30808.9160 61.2297 120.8477
TCL: Running FEP window   2: Lambda1 0.95   Lambda2 0.8999999999999999 [dLambda -0.050000000000000044]
TCL: Setting parameter firsttimestep to 0
TCL: Setting parameter alchLambda to 0.95
Info: NONBONDED TABLE R-SQUARED SPACING: 0.0625
Info: NONBONDED TABLE SIZE: 705 POINTS
TCL: Setting parameter alchLambda2 to 0.8999999999999999
Info: NONBONDED TABLE R-SQUARED SPACING: 0.0625
Info: NONBONDED TABLE SIZE: 705 POINTS
TCL: Running for 1500000 steps
ETITLE: TS BOND ANGLE DIHED IMPRP ELECT VDW BOUNDARY MISC KINETIC TOTAL TEMP POTENTIAL TOTALAVG TEMPAVG PRESSURE GPRESSURE VOLUME PRESSAVG GPRESSAVG
ENERGY: 0 0.9282 7.9521 2.2785 0.0000 -10943.7637 1537.9258 0.0000 0.0000 1755.7351 -7638.9440 294.2635 -9394.6790 -7638.9440 294.2635 417.1926 508.2488 30808.9160 417.1926 508.2488
ENERGY: 300000 1.2281 2.6788 1.4051 0.0000 -11043.7720 1592.2919 0.0000 0.0000 1799.6009 -7646.5672 301.6154 -9446.1681 -7640.8465 297.1839 692.6746 739.0968 31073.2330 188.9817 272.3255
ENERGY: 600000 2.9021 7.1216 1.0814 0.0000 -10854.8342 1433.9015 0.0000 0.0000 1781.5758 -7628.2517 298.5944 -9409.8276 -7642.0675 295.5846 -230.7816 -167.3332 31055.0819 83.4222 158.0498
ENERGY: 900000 1.1035 5.6956 1.5652 0.0000 -10692.3962 1358.0962 0.0000 0.0000 1785.0719 -7540.8637 299.1804 -9325.9357 -7627.0354 296.8305 -711.4274 -685.0059 31301.0942 -60.0287 9.0542
ENERGY: 1200000 1.4305 8.5355 1.4782 0.0000 -10777.0823 1459.0318 0.0000 0.0000 1825.4437 -7481.1626 305.9467 -9306.6064 -7612.0377 297.2665 271.8093 306.2328 31041.5288 -21.6085 41.3079
ENERGY: 1500000 1.7520 5.5471 1.3296 0.0000 -10924.7999 1498.2049 0.0000 0.0000 1775.5473 -7642.4191 297.5840 -9417.9663 -7617.2685 297.3219 229.4982 300.9292 30852.5279 33.6869 98.7808
TCL: Running FEP window   3: Lambda1 0.8999999999999999 Lambda2 0.8499999999999999 [dLambda -0.050000000000000044]
TCL: Setting parameter firsttimestep to 0
TCL: Setting parameter alchLambda to 0.8999999999999999
Info: NONBONDED TABLE R-SQUARED SPACING: 0.0625
Info: NONBONDED TABLE SIZE: 705 POINTS
TCL: Setting parameter alchLambda2 to 0.8499999999999999
Info: NONBONDED TABLE R-SQUARED SPACING: 0.0625
Info: NONBONDED TABLE SIZE: 705 POINTS
TCL: Running for 1500000 steps
ETITLE: TS BOND ANGLE DIHED IMPRP ELECT VDW BOUNDARY MISC KINETIC TOTAL TEMP POTENTIAL TOTALAVG TEMPAVG PRESSURE GPRESSURE VOLUME PRESSAVG GPRESSAVG
ENERGY: 0 1.7520 5.5471 1.3296 0.0000 -10923.2973 1497.8797 0.0000 0.0000 1774.6874 -7642.1016 297.4399 -9416.7889 -7642.1016 297.4399 204.4143 288.8488 30852.5279 204.4143 288.8488
ENERGY: 300000 2.3821 6.2306 1.8571 0.0000 -10822.3889 1417.5607 0.0000 0.0000 1755.3813 -7638.9771 294.2042 -9394.3584 -7636.3243 296.6424 -171.8100 -115.2431 30772.7862 13.3261 54.6780
ENERGY: 600000 0.6143 8.0236 2.1747 0.0000 -10885.1325 1447.9055 0.0000 0.0000 1790.3851 -7636.0294 300.0709 -9426.4145 -7637.6059 298.2873 44.0342 35.3722 30786.3132 -21.6950 12.2324
ENERGY: 900000 0.4306 6.4458 2.5976 0.0000 -10848.8162 1491.3314 0.0000 0.0000 1780.0711 -7567.9396 298.3422 -9348.0107 -7605.2065 299.4594 469.8710 456.2749 30910.6315 13.2627 45.7948
ENERGY: 1200000 1.8532 2.9551 1.9271 0.0000 -10859.1842 1386.1620 0.0000 0.0000 1792.8046 -7673.4822 300.4764 -9466.2868 -7619.0721 300.4230 -960.7891 -897.5654 31065.3931 -127.8227 -84.6116
ENERGY: 1500000 0.5903 8.1321 1.2287 0.0000 -10957.5505 1513.9104 0.0000 0.0000 1771.1349 -7662.5542 296.8445 -9433.6891 -7619.0371 300.7847 599.1975 628.2497 30491.4729 -35.6464 4.9927
TCL: Running FEP window   4: Lambda1 0.8499999999999999 Lambda2 0.7999999999999998 [dLambda -0.050000000000000044]
TCL: Setting parameter firsttimestep to 0
TCL: Setting parameter alchLambda to 0.8499999999999999
Info: NONBONDED TABLE R-SQUARED SPACING: 0.0625
Info: NONBONDED TABLE SIZE: 705 POINTS
TCL: Setting parameter alchLambda2 to 0.7999999999999998
Info: NONBONDED TABLE R-SQUARED SPACING: 0.0625
Info: NONBONDED TABLE SIZE: 705 POINTS
TCL: Running for 1500000 steps
ETITLE: TS BOND ANGLE DIHED IMPRP ELECT VDW BOUNDARY MISC KINETIC TOTAL TEMP POTENTIAL TOTALAVG TEMPAVG PRESSURE GPRESSURE VOLUME PRESSAVG GPRESSAVG
ENERGY: 0 0.5903 8.1321 1.2287 0.0000 -10956.6798 1513.9678 0.0000 0.0000 1770.2368 -7662.5242 296.6940 -9432.7609 -7662.5242 296.6940 555.3265 625.2648 30491.4729 555.3265 625.2648
ENERGY: 300000 1.3785 7.7414 0.8682 0.0000 -10871.4959 1504.4077 0.0000 0.0000 1804.3530 -7552.7470 302.4119 -9357.1000 -7631.3809 296.7611 776.8016 801.6128 30519.1917 310.9577 385.2699
ENERGY: 600000 2.2091 4.8564 1.8419 0.0000 -10780.3730 1442.9534 0.0000 0.0000 1784.2305 -7544.2818 299.0393 -9328.5123 -7602.2230 298.8800 333.4571 384.7942 30568.5072 243.3822 304.6185
ENERGY: 900000 0.1542 8.0395 0.8424 0.0000 -10913.6705 1505.4058 0.0000 0.0000 1762.6475 -7636.5811 295.4220 -9399.2286 -7614.0569 298.1188 203.4348 259.9789 31189.3129 90.5942 161.3077
ENERGY: 1200000 3.3213 15.5305 0.8792 0.0000 -10821.8714 1469.3539 0.0000 0.0000 1843.5640 -7489.2224 308.9837 -9332.7865 -7601.8592 299.3175 81.8298 143.6877 31165.9858 42.4433 105.9659
ENERGY: 1500000 0.8325 6.1195 0.5766 0.0000 -11028.8852 1536.0930 0.0000 0.0000 1789.8561 -7695.4075 299.9822 -9485.2636 -7611.9669 299.0684 297.2545 391.0908 30915.3364 87.6529 151.4830
TCL: Running FEP window   5: Lambda1 0.7999999999999998 Lambda2 0.7499999999999998 [dLambda -0.050000000000000044]
TCL: Setting parameter firsttimestep to 0
TCL: Setting parameter alchLambda to 0.7999999999999998
Info: NONBONDED TABLE R-SQUARED SPACING: 0.0625
Info: NONBONDED TABLE SIZE: 705 POINTS
TCL: Setting parameter alchLambda2 to 0.7499999999999998
Info: NONBONDED TABLE R-SQUARED SPACING: 0.0625
Info: NONBONDED TABLE SIZE: 705 POINTS
TCL: Running for 1500000 steps
ETITLE: TS BOND ANGLE DIHED IMPRP ELECT VDW BOUNDARY MISC KINETIC TOTAL TEMP POTENTIAL TOTALAVG TEMPAVG PRESSURE GPRESSURE VOLUME PRESSAVG GPRESSAVG
ENERGY: 0 0.8325 6.1195 0.5766 0.0000 -11028.3784 1534.9859 0.0000 0.0000 1788.9467 -7696.9172 299.8298 -9485.8639 -7696.9172 299.8298 281.9428 367.9502 30915.3364 281.9428 367.9502
ENERGY: 300000 1.6336 8.5751 1.5161 0.0000 -10958.2029 1471.6446 0.0000 0.0000 1816.6117 -7658.2217 304.4665 -9474.8334 -7698.0644 300.9045 -143.6176 -110.9474 30879.0818 -233.2210 -181.4321
ENERGY: 600000 0.6109 5.3662 2.3634 0.0000 -10944.3327 1503.9046 0.0000 0.0000 1838.5385 -7593.5492 308.1414 -9432.0877 -7666.3015 301.6527 -33.4051 12.9232 31466.7355 -53.3748 -10.9413
ENERGY: 900000 0.3790 2.9506 2.3956 0.0000 -10870.9996 1445.0195 0.0000 0.0000 1759.0668 -7661.1881 294.8219 -9420.2549 -7640.3319 301.1230 -169.8520 -86.2730 30824.9547 -27.5035 22.4677
ENERGY: 1200000 1.3384 5.2643 1.3855 0.0000 -10839.3553 1449.7214 0.0000 0.0000 1827.9410 -7553.7046 306.3653 -9381.6457 -7622.2118 301.9635 -97.1149 -57.9630 30882.3326 73.1736 127.0468
ENERGY: 1500000 0.3843 5.9499 1.1682 0.0000 -10952.7147 1501.8021 0.0000 0.0000 1762.1765 -7681.2337 295.3431 -9443.4102 -7626.7660 301.2539 -79.4675 28.9363 31139.8042 25.9454 89.2567
TCL: Running FEP window   6: Lambda1 0.7499999999999998 Lambda2 0.6999999999999997 [dLambda -0.050000000000000044]
TCL: Setting parameter firsttimestep to 0
TCL: Setting parameter alchLambda to 0.7499999999999998
Info: NONBONDED TABLE R-SQUARED SPACING: 0.0625
Info: NONBONDED TABLE SIZE: 705 POINTS
TCL: Setting parameter alchLambda2 to 0.6999999999999997
Info: NONBONDED TABLE R-SQUARED SPACING: 0.0625
Info: NONBONDED TABLE SIZE: 705 POINTS
TCL: Running for 1500000 steps
ETITLE: TS BOND ANGLE DIHED IMPRP ELECT VDW BOUNDARY MISC KINETIC TOTAL TEMP POTENTIAL TOTALAVG TEMPAVG PRESSURE GPRESSURE VOLUME PRESSAVG GPRESSAVG
ENERGY: 0 0.3843 5.9499 1.1682 0.0000 -10951.4833 1501.2086 0.0000 0.0000 1761.2890 -7681.4833 295.1943 -9442.7723 -7681.4833 295.1943 -75.3794 18.1286 31139.8042 -75.3794 18.1286
ENERGY: 300000 1.1117 7.5243 1.9273 0.0000 -10852.3631 1381.8051 0.0000 0.0000 1792.5589 -7667.4357 300.4352 -9459.9946 -7672.5976 296.8078 -865.8482 -810.7006 30972.0288 -248.9038 -192.6673
ENERGY: 600000 0.7736 7.7970 1.3256 0.0000 -10777.5933 1388.7844 0.0000 0.0000 1801.9704 -7576.9423 302.0126 -9378.9127 -7652.8617 299.2396 -618.4559 -523.9689 31067.1092 -334.8191 -280.4355
ENERGY: 900000 3.1576 12.8627 1.1773 0.0000 -10802.8023 1428.3834 0.0000 0.0000 1749.6484 -7607.5730 293.2433 -9357.2214 -7653.5403 297.6325 -297.8900 -196.5238 30765.4729 -370.0277 -299.9909
ENERGY: 1200000 0.4338 4.4449 2.1300 0.0000 -10888.3695 1498.7378 0.0000 0.0000 1837.9681 -7544.6549 308.0458 -9382.6230 -7639.7143 298.5794 184.1129 218.7640 31009.7407 -191.7880 -127.8547
ENERGY: 1500000 1.5055 5.3429 1.8650 0.0000 -10849.6964 1444.6844 0.0000 0.0000 1827.0926 -7569.2059 306.2231 -9396.2985 -7633.2831 299.2335 -269.9504 -225.5115 30991.9916 -269.7275 -213.9710
TCL: Running FEP window   7: Lambda1 0.6999999999999997 Lambda2 0.6499999999999997 [dLambda -0.050000000000000044]
TCL: Setting parameter firsttimestep to 0
TCL: Setting parameter alchLambda to 0.6999999999999997
Info: NONBONDED TABLE R-SQUARED SPACING: 0.0625
Info: NONBONDED TABLE SIZE: 705 POINTS
TCL: Setting parameter alchLambda2 to 0.6499999999999997
Info: NONBONDED TABLE R-SQUARED SPACING: 0.0625
Info: NONBONDED TABLE SIZE: 705 POINTS
TCL: Running for 1500000 steps
ETITLE: TS BOND ANGLE DIHED IMPRP ELECT VDW BOUNDARY MISC KINETIC TOTAL TEMP POTENTIAL TOTALAVG TEMPAVG PRESSURE GPRESSURE VOLUME PRESSAVG GPRESSAVG
ENERGY: 0 1.5055 5.3429 1.8650 0.0000 -10849.3278 1444.8307 0.0000 0.0000 1826.1848 -7569.5987 306.0709 -9395.7836 -7569.5987 306.0709 -322.4616 -228.9518 30991.9916 -322.4616 -228.9518
ENERGY: 300000 3.9235 5.7395 2.1122 0.0000 -10898.2769 1522.3240 0.0000 0.0000 1779.1990 -7584.9786 298.1961 -9364.1777 -7569.3242 302.9770 651.3903 739.9380 30415.4834 -24.0234 43.6672
ENERGY: 600000 2.9188 7.0151 1.1792 0.0000 -10965.2122 1536.9466 0.0000 0.0000 1749.9341 -7667.2184 293.2912 -9417.1525 -7598.7742 299.8550 562.1132 551.0717 30986.7329 62.6288 122.1074
ENERGY: 900000 1.4231 6.3581 2.1441 0.0000 -10876.6530 1545.2304 0.0000 0.0000 1740.7755 -7580.7218 291.7562 -9321.4973 -7610.4004 298.5171 838.6622 905.7776 30893.0300 138.9590 200.3405
ENERGY: 1200000 0.8985 6.2273 0.9960 0.0000 -10839.1466 1467.8475 0.0000 0.0000 1826.1062 -7537.0710 306.0578 -9363.1773 -7607.6032 297.7975 252.1314 316.6012 30642.7560 117.4461 180.0808
ENERGY: 1500000 2.4921 8.0032 0.7108 0.0000 -10868.8998 1470.7360 0.0000 0.0000 1836.8528 -7550.1049 307.8589 -9386.9577 -7598.4606 299.4234 -51.1571 29.1112 30848.9684 41.3891 100.6243
TCL: Running FEP window   8: Lambda1 0.6499999999999997 Lambda2 0.5999999999999996 [dLambda -0.050000000000000044]
TCL: Setting parameter firsttimestep to 0
TCL: Setting parameter alchLambda to 0.6499999999999997
Info: NONBONDED TABLE R-SQUARED SPACING: 0.0625
Info: NONBONDED TABLE SIZE: 705 POINTS
TCL: Setting parameter alchLambda2 to 0.5999999999999996
Info: NONBONDED TABLE R-SQUARED SPACING: 0.0625
Info: NONBONDED TABLE SIZE: 705 POINTS
TCL: Running for 1500000 steps
ETITLE: TS BOND ANGLE DIHED IMPRP ELECT VDW BOUNDARY MISC KINETIC TOTAL TEMP POTENTIAL TOTALAVG TEMPAVG PRESSURE GPRESSURE VOLUME PRESSAVG GPRESSAVG
ENERGY: 0 2.4921 8.0032 0.7108 0.0000 -10867.9126 1470.2862 0.0000 0.0000 1835.9910 -7550.4293 307.7145 -9386.4203 -7550.4293 307.7145 -73.6553 20.8381 30848.9684 -73.6553 20.8381
ENERGY: 300000 0.6664 5.2801 0.8501 0.0000 -10932.4336 1512.8921 0.0000 0.0000 1862.5728 -7550.1721 312.1696 -9412.7449 -7575.5428 306.2192 273.6477 395.4781 30905.9807 315.7684 405.1706
ENERGY: 600000 2.1442 7.1171 1.2444 0.0000 -10711.8924 1389.0440 0.0000 0.0000 1779.2484 -7533.0943 298.2043 -9312.3427 -7571.1454 304.8288 -342.0431 -279.6156 30976.1915 96.2030 171.3527
ENERGY: 900000 1.0208 8.1540 2.3186 0.0000 -10875.2383 1478.6831 0.0000 0.0000 1781.4038 -7603.6580 298.5656 -9385.0618 -7578.7118 303.5323 -188.4939 -80.5100 31143.5531 87.6447 158.4176
ENERGY: 1200000 1.2090 9.2569 1.4420 0.0000 -10739.8303 1410.6177 0.0000 0.0000 1788.6373 -7528.6674 299.7779 -9317.3047 -7590.6828 302.0392 -402.7041 -348.4091 31633.3535 62.1616 123.9128
ENERGY: 1500000 1.5146 7.2083 2.4137 0.0000 -10969.8044 1490.7336 0.0000 0.0000 1758.1536 -7709.7807 294.6688 -9467.9343 -7598.3783 300.4662 88.2289 193.5859 30519.5200 2.3428 62.8377
TCL: Running FEP window   9: Lambda1 0.5999999999999996 Lambda2 0.5499999999999996 [dLambda -0.050000000000000044]
TCL: Setting parameter firsttimestep to 0
TCL: Setting parameter alchLambda to 0.5999999999999996
Info: NONBONDED TABLE R-SQUARED SPACING: 0.0625
Info: NONBONDED TABLE SIZE: 705 POINTS
TCL: Setting parameter alchLambda2 to 0.5499999999999996
Info: NONBONDED TABLE R-SQUARED SPACING: 0.0625
Info: NONBONDED TABLE SIZE: 705 POINTS
TCL: Running for 1500000 steps
ETITLE: TS BOND ANGLE DIHED IMPRP ELECT VDW BOUNDARY MISC KINETIC TOTAL TEMP POTENTIAL TOTALAVG TEMPAVG PRESSURE GPRESSURE VOLUME PRESSAVG GPRESSAVG
ENERGY: 0 1.5146 7.2083 2.4137 0.0000 -10968.8917 1490.3980 0.0000 0.0000 1757.2522 -7710.1049 294.5177 -9467.3571 -7710.1049 294.5177 96.0748 185.9831 30519.5200 96.0748 185.9831
ENERGY: 300000 1.2259 7.6797 1.8207 0.0000 -10866.2215 1436.3659 0.0000 0.0000 1772.0339 -7647.0954 296.9952 -9419.1293 -7658.4039 295.8425 -332.8590 -243.4535 31017.9951 -28.3953 27.5397
ENERGY: 600000 0.2501 4.4627 1.9959 0.0000 -10947.6252 1533.7332 0.0000 0.0000 1782.1039 -7625.0794 298.6829 -9407.1833 -7630.2520 297.7976 695.2764 699.4162 30420.3569 47.0635 96.8930
ENERGY: 900000 0.7652 2.4627 1.3815 0.0000 -10786.0388 1436.1902 0.0000 0.0000 1790.2167 -7555.0225 300.0426 -9345.2392 -7627.5447 298.8480 -25.9315 46.4431 30793.6792 -13.5115 54.4847
ENERGY: 1200000 0.6439 6.5750 1.8951 0.0000 -10836.8098 1459.8250 0.0000 0.0000 1806.7023 -7561.1685 302.8056 -9367.8708 -7618.7223 299.1237 -34.7798 47.5154 31115.5189 -23.9010 40.5032
ENERGY: 1500000 0.3732 4.8494 1.4339 0.0000 -10879.9840 1442.7086 0.0000 0.0000 1752.5318 -7678.0870 293.7266 -9430.6189 -7621.5348 298.4071 -78.2505 -58.8027 30830.9918 -44.1408 15.9074
TCL: Running FEP window  10: Lambda1 0.5499999999999996 Lambda2 0.4999999999999996 [dLambda -0.04999999999999999]
TCL: Setting parameter firsttimestep to 0
TCL: Setting parameter alchLambda to 0.5499999999999996
Info: NONBONDED TABLE R-SQUARED SPACING: 0.0625
Info: NONBONDED TABLE SIZE: 705 POINTS
TCL: Setting parameter alchLambda2 to 0.4999999999999996
Info: NONBONDED TABLE R-SQUARED SPACING: 0.0625
Info: NONBONDED TABLE SIZE: 705 POINTS
TCL: Running for 1500000 steps
ETITLE: TS BOND ANGLE DIHED IMPRP ELECT VDW BOUNDARY MISC KINETIC TOTAL TEMP POTENTIAL TOTALAVG TEMPAVG PRESSURE GPRESSURE VOLUME PRESSAVG GPRESSAVG
ENERGY: 0 0.3732 4.8494 1.4339 0.0000 -10880.1104 1442.8884 0.0000 0.0000 1751.6596 -7678.9060 293.5804 -9430.5656 -7678.9060 293.5804 -139.8305 -62.0366 30830.9918 -139.8305 -62.0366
ENERGY: 300000 1.4973 12.3593 1.7521 0.0000 -10880.8303 1490.9783 0.0000 0.0000 1730.2104 -7644.0330 289.9855 -9374.2433 -7616.3859 299.0701 99.3028 163.0225 30932.9800 -284.5182 -217.5863
ENERGY: 600000 2.5281 7.0948 0.5018 0.0000 -10894.4211 1475.5820 0.0000 0.0000 1747.6980 -7661.0165 292.9165 -9408.7145 -7626.0050 298.0743 114.9327 172.4906 30889.6024 -113.1989 -48.3935
ENERGY: 900000 1.6768 6.8348 1.8750 0.0000 -10739.0811 1394.3328 0.0000 0.0000 1814.5272 -7519.8345 304.1171 -9334.3618 -7595.1765 299.2852 -395.3328 -345.8002 31165.3696 -115.6802 -64.9341
ENERGY: 1200000 0.8413 5.7262 0.7373 0.0000 -10865.5368 1440.3492 0.0000 0.0000 1830.7896 -7587.0933 306.8427 -9417.8829 -7599.2325 300.1962 -445.1939 -305.6766 31125.0331 -156.4585 -100.9776
ENERGY: 1500000 1.2709 4.9681 1.0981 0.0000 -11033.6198 1596.9242 0.0000 0.0000 1783.2290 -7646.1295 298.8715 -9429.3585 -7604.1625 299.2210 1019.6814 1071.6588 30684.3953 9.1148 65.3027
TCL: Running FEP window  11: Lambda1 0.4999999999999996 Lambda2 0.4499999999999996 [dLambda -0.04999999999999999]
TCL: Setting parameter firsttimestep to 0
TCL: Setting parameter alchLambda to 0.4999999999999996
Info: NONBONDED TABLE R-SQUARED SPACING: 0.0625
Info: NONBONDED TABLE SIZE: 705 POINTS
TCL: Setting parameter alchLambda2 to 0.4499999999999996
Info: NONBONDED TABLE R-SQUARED SPACING: 0.0625
Info: NONBONDED TABLE SIZE: 705 POINTS
TCL: Running for 1500000 steps
ETITLE: TS BOND ANGLE DIHED IMPRP ELECT VDW BOUNDARY MISC KINETIC TOTAL TEMP POTENTIAL TOTALAVG TEMPAVG PRESSURE GPRESSURE VOLUME PRESSAVG GPRESSAVG
ENERGY: 0 1.2709 4.9681 1.0981 0.0000 -11033.6705 1596.3339 0.0000 0.0000 1782.3473 -7647.6522 298.7237 -9429.9995 -7647.6522 298.7237 972.6500 1059.4129 30684.3953 972.6500 1059.4129
ENERGY: 300000 0.3769 6.9281 0.9564 0.0000 -10833.1399 1487.8461 0.0000 0.0000 1776.6830 -7560.3493 297.7744 -9337.0323 -7595.3843 301.2483 210.6561 284.7028 31127.9626 236.6786 291.6999
ENERGY: 600000 1.2868 6.3815 1.0659 0.0000 -10862.6195 1437.4251 0.0000 0.0000 1850.6595 -7565.8007 310.1729 -9416.4602 -7610.3239 301.0763 -619.3946 -542.8927 31239.3706 -47.5257 11.6114
ENERGY: 900000 1.4933 8.6015 0.8753 0.0000 -10881.3703 1446.3599 0.0000 0.0000 1768.3643 -7655.6760 296.3801 -9424.0403 -7604.7803 300.2739 -154.8170 -128.7641 30765.8921 -3.1488 58.4808
ENERGY: 1200000 1.0093 5.8338 1.1667 0.0000 -10793.9407 1448.4761 0.0000 0.0000 1813.6869 -7523.7680 303.9763 -9337.4548 -7600.1088 300.0086 52.2933 108.0892 30902.3616 57.1974 116.8665
ENERGY: 1500000 0.2764 5.6018 2.3143 0.0000 -10685.6710 1358.2641 0.0000 0.0000 1767.2480 -7551.9664 296.1931 -9319.2143 -7597.4471 300.1462 -637.9587 -577.4925 31074.8836 28.3207 88.2278
TCL: Running FEP window  12: Lambda1 0.4499999999999996 Lambda2 0.39999999999999963 [dLambda -0.04999999999999999]
TCL: Setting parameter firsttimestep to 0
TCL: Setting parameter alchLambda to 0.4499999999999996
Info: NONBONDED TABLE R-SQUARED SPACING: 0.0625
Info: NONBONDED TABLE SIZE: 705 POINTS
TCL: Setting parameter alchLambda2 to 0.39999999999999963
Info: NONBONDED TABLE R-SQUARED SPACING: 0.0625
Info: NONBONDED TABLE SIZE: 705 POINTS
TCL: Running for 1500000 steps
ETITLE: TS BOND ANGLE DIHED IMPRP ELECT VDW BOUNDARY MISC KINETIC TOTAL TEMP POTENTIAL TOTALAVG TEMPAVG PRESSURE GPRESSURE VOLUME PRESSAVG GPRESSAVG
ENERGY: 0 0.2764 5.6018 2.3143 0.0000 -10685.6706 1358.6137 0.0000 0.0000 1766.3565 -7552.5078 296.0436 -9318.8643 -7552.5078 296.0436 -652.9979 -577.9196 31074.8836 -652.9979 -577.9196
ENERGY: 300000 1.1957 6.7545 0.9560 0.0000 -10830.0499 1467.6366 0.0000 0.0000 1827.3963 -7526.1108 306.2740 -9353.5071 -7579.6693 300.3055 57.5548 123.3598 31166.8522 -447.6062 -381.5156
ENERGY: 600000 1.2507 5.5934 2.6767 0.0000 -10824.1548 1495.1160 0.0000 0.0000 1787.5759 -7531.9421 299.6000 -9319.5180 -7581.9654 301.1326 403.8910 380.9631 31056.0739 -193.1846 -130.7797
ENERGY: 900000 1.2872 5.7437 2.3509 0.0000 -10971.6764 1536.5997 0.0000 0.0000 1745.8003 -7679.8946 292.5984 -9425.6949 -7581.1400 300.4486 598.6692 611.8951 30587.6544 -43.8295 20.0006
ENERGY: 1200000 0.6356 2.6112 1.5323 0.0000 -10891.9303 1502.7969 0.0000 0.0000 1799.5054 -7584.8489 301.5994 -9384.3543 -7588.6654 300.4700 263.1930 353.7346 30827.0726 30.6938 98.4614
ENERGY: 1500000 1.9263 5.9961 1.3819 0.0000 -10913.7583 1458.8349 0.0000 0.0000 1822.3411 -7623.2780 305.4267 -9445.6191 -7588.9972 299.9063 -399.4025 -292.1302 31023.2772 24.7954 90.2119
TCL: Running FEP window  13: Lambda1 0.39999999999999963 Lambda2 0.34999999999999964 [dLambda -0.04999999999999999]
TCL: Setting parameter firsttimestep to 0
TCL: Setting parameter alchLambda to 0.39999999999999963
Info: NONBONDED TABLE R-SQUARED SPACING: 0.0625
Info: NONBONDED TABLE SIZE: 705 POINTS
TCL: Setting parameter alchLambda2 to 0.34999999999999964
Info: NONBONDED TABLE R-SQUARED SPACING: 0.0625
Info: NONBONDED TABLE SIZE: 705 POINTS
TCL: Running for 1500000 steps
ETITLE: TS BOND ANGLE DIHED IMPRP ELECT VDW BOUNDARY MISC KINETIC TOTAL TEMP POTENTIAL TOTALAVG TEMPAVG PRESSURE GPRESSURE VOLUME PRESSAVG GPRESSAVG
ENERGY: 0 1.9263 5.9961 1.3819 0.0000 -10913.7585 1458.3010 0.0000 0.0000 1821.4414 -7624.7118 305.2759 -9446.1532 -7624.7118 305.2759 -395.1547 -300.9928 31023.2772 -395.1547 -300.9928
ENERGY: 300000 2.9414 5.4524 1.0083 0.0000 -10885.1322 1447.3872 0.0000 0.0000 1740.5370 -7687.8061 291.7163 -9428.3431 -7611.7840 301.0928 -288.6631 -274.4765 30854.8225 -135.0493 -86.4614
ENERGY: 600000 1.0609 9.0389 1.7364 0.0000 -10859.0032 1412.5370 0.0000 0.0000 1770.2766 -7664.3535 296.7007 -9434.6301 -7610.9862 300.2133 -427.5238 -358.7493 30746.1414 -260.2257 -209.9411
ENERGY: 900000 2.2065 4.6635 1.6118 0.0000 -10843.9793 1412.3035 0.0000 0.0000 1829.0558 -7594.1381 306.5521 -9423.1939 -7592.9160 302.8346 -562.2029 -499.6840 31008.0561 -296.0053 -235.5321
ENERGY: 1200000 0.4031 8.7746 1.3392 0.0000 -10893.0759 1504.6741 0.0000 0.0000 1798.8559 -7579.0289 301.4906 -9377.8849 -7586.5897 303.4045 272.6668 398.5168 30693.2198 -153.1705 -85.7578
ENERGY: 1500000 2.8071 10.0041 1.8903 0.0000 -10877.6478 1469.4727 0.0000 0.0000 1748.9067 -7644.5669 293.1190 -9393.4735 -7592.4436 302.4446 143.9508 214.2326 30624.9946 -147.0478 -80.8550
TCL: Running FEP window  14: Lambda1 0.34999999999999964 Lambda2 0.29999999999999966 [dLambda -0.04999999999999999]
TCL: Setting parameter firsttimestep to 0
TCL: Setting parameter alchLambda to 0.34999999999999964
Info: NONBONDED TABLE R-SQUARED SPACING: 0.0625
Info: NONBONDED TABLE SIZE: 705 POINTS
TCL: Setting parameter alchLambda2 to 0.29999999999999966
Info: NONBONDED TABLE R-SQUARED SPACING: 0.0625
Info: NONBONDED TABLE SIZE: 705 POINTS
TCL: Running for 1500000 steps
ETITLE: TS BOND ANGLE DIHED IMPRP ELECT VDW BOUNDARY MISC KINETIC TOTAL TEMP POTENTIAL TOTALAVG TEMPAVG PRESSURE GPRESSURE VOLUME PRESSAVG GPRESSAVG
ENERGY: 0 2.8071 10.0041 1.8903 0.0000 -10877.6472 1469.7764 0.0000 0.0000 1747.9782 -7645.1910 292.9634 -9393.1693 -7645.1910 292.9634 136.0834 214.0261 30624.9946 136.0834 214.0261
ENERGY: 300000 0.3199 8.5736 1.4604 0.0000 -10977.6132 1498.5762 0.0000 0.0000 1824.3390 -7644.3442 305.7616 -9468.6832 -7634.0279 302.3858 93.6849 174.5533 30650.2776 162.2526 221.7099
ENERGY: 600000 1.3196 7.3973 1.9366 0.0000 -10816.5702 1359.6445 0.0000 0.0000 1803.7563 -7642.5159 302.3119 -9446.2721 -7638.7975 300.9248 -1101.2772 -1033.2404 31141.5572 -105.0005 -27.6820
ENERGY: 900000 1.3093 5.2791 1.3749 0.0000 -10797.3861 1426.0770 0.0000 0.0000 1720.1203 -7643.2255 288.2944 -9363.3458 -7630.0442 300.5486 -317.1546 -226.4884 30905.6636 -95.2321 -24.5718
ENERGY: 1200000 0.7914 7.5821 2.7073 0.0000 -10952.1383 1500.6416 0.0000 0.0000 1772.8345 -7667.5814 297.1294 -9440.4160 -7612.8880 300.8868 222.8871 304.3688 30553.6185 -0.8905 66.7630
ENERGY: 1500000 0.6807 5.7232 3.1766 0.0000 -10942.9181 1490.9275 0.0000 0.0000 1790.8447 -7651.5655 300.1479 -9442.4102 -7620.4945 300.5385 432.4654 490.1171 30073.2534 83.3327 149.3379
TCL: Running FEP window  15: Lambda1 0.29999999999999966 Lambda2 0.24999999999999967 [dLambda -0.04999999999999999]
TCL: Setting parameter firsttimestep to 0
TCL: Setting parameter alchLambda to 0.29999999999999966
Info: NONBONDED TABLE R-SQUARED SPACING: 0.0625
Info: NONBONDED TABLE SIZE: 705 POINTS
TCL: Setting parameter alchLambda2 to 0.24999999999999967
Info: NONBONDED TABLE R-SQUARED SPACING: 0.0625
Info: NONBONDED TABLE SIZE: 705 POINTS
TCL: Running for 1500000 steps
ETITLE: TS BOND ANGLE DIHED IMPRP ELECT VDW BOUNDARY MISC KINETIC TOTAL TEMP POTENTIAL TOTALAVG TEMPAVG PRESSURE GPRESSURE VOLUME PRESSAVG GPRESSAVG
ENERGY: 0 0.6807 5.7232 3.1766 0.0000 -10942.9182 1491.0028 0.0000 0.0000 1789.9937 -7652.3412 300.0053 -9442.3350 -7652.3412 300.0053 412.7716 486.9540 30073.2534 412.7716 486.9540
ENERGY: 300000 1.8966 12.1538 0.9293 0.0000 -10923.5641 1465.0901 0.0000 0.0000 1822.5957 -7620.8985 305.4694 -9443.4943 -7616.6413 301.3336 -312.8043 -201.4419 30779.0887 -373.8074 -286.2724
ENERGY: 600000 0.0784 6.8459 2.2449 0.0000 -10922.0097 1487.8926 0.0000 0.0000 1799.1851 -7625.7627 301.5458 -9424.9478 -7633.2876 299.8713 270.3704 250.4334 30596.1137 -139.4253 -83.4634
ENERGY: 900000 0.7120 10.6626 1.2153 0.0000 -10864.9396 1464.6662 0.0000 0.0000 1778.7478 -7608.9358 298.1204 -9387.6836 -7620.1187 299.5131 -331.1417 -192.7026 31153.1806 -234.0603 -169.7034
ENERGY: 1200000 0.2281 6.7086 0.3916 0.0000 -10878.8366 1452.3738 0.0000 0.0000 1792.0540 -7627.0804 300.3506 -9419.1345 -7617.9242 299.8089 -186.3780 -148.3996 30971.5882 -250.7481 -189.2239
ENERGY: 1500000 1.4248 5.7278 1.5258 0.0000 -10799.1904 1412.3494 0.0000 0.0000 1775.5643 -7602.5983 297.5869 -9378.1626 -7621.8189 299.5682 -475.5734 -310.9002 30728.4130 -301.7767 -230.2573
TCL: Running FEP window  16: Lambda1 0.24999999999999967 Lambda2 0.19999999999999968 [dLambda -0.04999999999999999]
TCL: Setting parameter firsttimestep to 0
TCL: Setting parameter alchLambda to 0.24999999999999967
Info: NONBONDED TABLE R-SQUARED SPACING: 0.0625
Info: NONBONDED TABLE SIZE: 705 POINTS
TCL: Setting parameter alchLambda2 to 0.19999999999999968
Info: NONBONDED TABLE R-SQUARED SPACING: 0.0625
Info: NONBONDED TABLE SIZE: 705 POINTS
TCL: Running for 1500000 steps
ETITLE: TS BOND ANGLE DIHED IMPRP ELECT VDW BOUNDARY MISC KINETIC TOTAL TEMP POTENTIAL TOTALAVG TEMPAVG PRESSURE GPRESSURE VOLUME PRESSAVG GPRESSAVG
ENERGY: 0 1.4248 5.7278 1.5258 0.0000 -10799.1912 1412.3385 0.0000 0.0000 1774.6602 -7603.5141 297.4354 -9378.1743 -7603.5141 297.4354 -413.4206 -313.9694 30728.4130 -413.4206 -313.9694
ENERGY: 300000 4.2502 4.5413 0.5824 0.0000 -10800.6958 1383.7320 0.0000 0.0000 1773.3114 -7634.2785 297.2093 -9407.5899 -7636.6963 297.7238 -629.4605 -605.5538 30847.9358 -240.8896 -192.9595
ENERGY: 600000 0.8497 4.5051 1.2497 0.0000 -10952.3356 1501.8518 0.0000 0.0000 1808.8784 -7635.0009 303.1704 -9443.8793 -7647.0576 297.7443 266.7024 361.9590 30723.5449 -83.8916 -21.1715
ENERGY: 900000 1.3639 3.6842 0.9257 0.0000 -10753.0312 1404.4377 0.0000 0.0000 1814.0128 -7528.6068 304.0309 -9342.6196 -7628.4129 299.4569 -273.9656 -227.0009 30908.5465 -194.3868 -132.4745
ENERGY: 1200000 0.6706 5.1331 1.7846 0.0000 -10818.6956 1473.0462 0.0000 0.0000 1753.2234 -7584.8377 293.8425 -9338.0612 -7619.7440 300.1622 70.1215 141.6515 30909.3257 -102.1819 -37.7239
ENERGY: 1500000 0.3031 4.9628 2.0973 0.0000 -10797.7545 1393.6105 0.0000 0.0000 1793.4723 -7603.3085 300.5883 -9396.7808 -7620.9201 299.8947 -442.3720 -432.7882 30661.0128 -88.4997 -26.4211
TCL: Running FEP window  17: Lambda1 0.19999999999999968 Lambda2 0.1499999999999997 [dLambda -0.04999999999999999]
TCL: Setting parameter firsttimestep to 0
TCL: Setting parameter alchLambda to 0.19999999999999968
Info: NONBONDED TABLE R-SQUARED SPACING: 0.0625
Info: NONBONDED TABLE SIZE: 705 POINTS
TCL: Setting parameter alchLambda2 to 0.1499999999999997
Info: NONBONDED TABLE R-SQUARED SPACING: 0.0625
Info: NONBONDED TABLE SIZE: 705 POINTS
TCL: Running for 1500000 steps
ETITLE: TS BOND ANGLE DIHED IMPRP ELECT VDW BOUNDARY MISC KINETIC TOTAL TEMP POTENTIAL TOTALAVG TEMPAVG PRESSURE GPRESSURE VOLUME PRESSAVG GPRESSAVG
ENERGY: 0 0.3031 4.9628 2.0973 0.0000 -10797.7537 1393.6609 0.0000 0.0000 1792.5671 -7604.1625 300.4366 -9396.7296 -7604.1625 300.4366 -518.0185 -438.4664 30661.0128 -518.0185 -438.4664
ENERGY: 300000 2.9044 5.3388 2.2818 0.0000 -10786.5938 1427.8777 0.0000 0.0000 1736.8530 -7611.3380 291.0988 -9348.1910 -7648.0484 295.2009 -209.7504 -219.2798 31210.5876 337.3418 384.7697
ENERGY: 600000 0.8216 5.9054 1.1556 0.0000 -10808.6561 1356.9229 0.0000 0.0000 1730.2968 -7713.5539 290.0000 -9443.8507 -7621.2339 298.2346 -1031.7726 -991.7380 30903.3092 83.5592 134.9433
ENERGY: 900000 0.8293 6.7361 2.4205 0.0000 -10906.9841 1451.2689 0.0000 0.0000 1768.2864 -7677.4430 296.3671 -9445.7294 -7616.8564 298.3137 -349.6495 -291.7775 30721.4399 88.4997 144.7015
ENERGY: 1200000 1.9068 7.7422 0.6841 0.0000 -10804.2451 1461.6550 0.0000 0.0000 1795.6054 -7536.6515 300.9458 -9332.2569 -7602.6770 298.3810 93.7271 202.3358 30985.6853 13.4146 72.3212
ENERGY: 1500000 1.8303 6.4566 2.6192 0.0000 -10961.4877 1506.1487 0.0000 0.0000 1746.9781 -7697.4548 292.7958 -9444.4329 -7609.0745 298.8917 103.8661 167.6040 30801.0733 -17.7390 44.9791
TCL: Running FEP window  18: Lambda1 0.1499999999999997 Lambda2 0.09999999999999969 [dLambda -0.05 ]
TCL: Setting parameter firsttimestep to 0
TCL: Setting parameter alchLambda to 0.1499999999999997
Info: NONBONDED TABLE R-SQUARED SPACING: 0.0625
Info: NONBONDED TABLE SIZE: 705 POINTS
TCL: Setting parameter alchLambda2 to 0.09999999999999969
Info: NONBONDED TABLE R-SQUARED SPACING: 0.0625
Info: NONBONDED TABLE SIZE: 705 POINTS
TCL: Running for 1500000 steps
ETITLE: TS BOND ANGLE DIHED IMPRP ELECT VDW BOUNDARY MISC KINETIC TOTAL TEMP POTENTIAL TOTALAVG TEMPAVG PRESSURE GPRESSURE VOLUME PRESSAVG GPRESSAVG
ENERGY: 0 1.8303 6.4566 2.6192 0.0000 -10961.4859 1506.1694 0.0000 0.0000 1746.0968 -7698.3136 292.6481 -9444.4104 -7698.3136 292.6481 65.6603 163.0533 30801.0733 65.6603 163.0533
ENERGY: 300000 2.6256 13.1452 1.2561 0.0000 -10881.2268 1451.1456 0.0000 0.0000 1761.3490 -7651.7054 295.2044 -9413.0544 -7618.0759 297.4799 -36.5270 -9.8144 30532.2885 -138.8135 -92.5371
ENERGY: 600000 0.5367 7.3896 1.9359 0.0000 -10858.8953 1428.8863 0.0000 0.0000 1746.9623 -7673.1845 292.7931 -9420.1468 -7631.4345 296.2283 -405.0411 -333.4560 30948.6456 -66.6993 -12.8412
ENERGY: 900000 1.0078 7.1948 3.2290 0.0000 -10911.2710 1524.6128 0.0000 0.0000 1807.8391 -7567.3876 302.9962 -9375.2266 -7621.3605 299.0442 439.9073 510.2872 30814.9773 0.5671 50.9251
ENERGY: 1200000 2.2871 5.6407 1.7150 0.0000 -10882.8720 1453.8683 0.0000 0.0000 1806.6004 -7612.7605 302.7886 -9419.3609 -7620.3116 300.3421 -256.2889 -93.4050 30711.7337 34.2434 87.5487
ENERGY: 1500000 1.9640 8.7841 1.8489 0.0000 -10995.4182 1560.2089 0.0000 0.0000 1767.9145 -7654.6978 296.3048 -9422.6123 -7623.6944 300.1186 618.0809 715.3711 30678.7730 -16.8338 46.8435
TCL: Running FEP window  19: Lambda1 0.09999999999999969 Lambda2 0.049999999999999684 [dLambda -0.05 ]
TCL: Setting parameter firsttimestep to 0
TCL: Setting parameter alchLambda to 0.09999999999999969
Info: NONBONDED TABLE R-SQUARED SPACING: 0.0625
Info: NONBONDED TABLE SIZE: 705 POINTS
TCL: Setting parameter alchLambda2 to 0.049999999999999684
Info: NONBONDED TABLE R-SQUARED SPACING: 0.0625
Info: NONBONDED TABLE SIZE: 705 POINTS
TCL: Running for 1500000 steps
ETITLE: TS BOND ANGLE DIHED IMPRP ELECT VDW BOUNDARY MISC KINETIC TOTAL TEMP POTENTIAL TOTALAVG TEMPAVG PRESSURE GPRESSURE VOLUME PRESSAVG GPRESSAVG
ENERGY: 0 1.9640 8.7841 1.8489 0.0000 -10995.4171 1560.6139 0.0000 0.0000 1767.0350 -7655.1713 296.1574 -9422.2062 -7655.1713 296.1574 640.3344 713.7097 30678.7730 640.3344 713.7097
ENERGY: 300000 1.7763 6.0319 1.9826 0.0000 -10858.8522 1460.6093 0.0000 0.0000 1742.4403 -7646.0119 292.0353 -9388.4522 -7627.3433 297.3669 106.1949 222.1423 30077.6057 161.8037 245.4909
ENERGY: 600000 1.0064 7.7118 2.2432 0.0000 -10813.9072 1441.4060 0.0000 0.0000 1796.0518 -7565.4880 301.0206 -9361.5397 -7606.5974 298.6921 -121.6892 32.4932 30881.9846 31.5731 110.4864
ENERGY: 900000 3.8142 7.3138 1.9771 0.0000 -10947.4633 1520.9752 0.0000 0.0000 1778.2386 -7635.1445 298.0351 -9413.3831 -7601.6291 298.1638 606.1690 634.3251 30649.6754 -47.2284 25.3382
ENERGY: 1200000 1.3660 7.0272 1.7849 0.0000 -10898.7628 1509.0431 0.0000 0.0000 1741.7053 -7637.8364 291.9121 -9379.5417 -7612.5746 297.5030 317.3105 420.2780 30736.4524 -94.4134 -18.7081
ENERGY: 1500000 3.3805 6.7490 1.4968 0.0000 -10893.4661 1452.4341 0.0000 0.0000 1813.4651 -7615.9405 303.9391 -9429.4056 -7606.9003 298.3406 -157.5790 -48.1718 30473.2239 -116.7043 -30.6619
TCL: Running FEP window  20: Lambda1 0.049999999999999684 Lambda2 0.0    [dLambda -0.049999999999999684]
TCL: Setting parameter firsttimestep to 0
TCL: Setting parameter alchLambda to 0.049999999999999684
Info: NONBONDED TABLE R-SQUARED SPACING: 0.0625
Info: NONBONDED TABLE SIZE: 705 POINTS
TCL: Setting parameter alchLambda2 to 0.0
Info: NONBONDED TABLE R-SQUARED SPACING: 0.0625
Info: NONBONDED TABLE SIZE: 705 POINTS
TCL: Running for 1500000 steps
ETITLE: TS BOND ANGLE DIHED IMPRP ELECT VDW BOUNDARY MISC KINETIC TOTAL TEMP POTENTIAL TOTALAVG TEMPAVG PRESSURE GPRESSURE VOLUME PRESSAVG GPRESSAVG
ENERGY: 0 3.3805 6.7490 1.4968 0.0000 -10893.4662 1452.6951 0.0000 0.0000 1812.6133 -7616.5314 303.7963 -9429.1447 -7616.5314 303.7963 -129.6360 -48.3091 30473.2239 -129.6360 -48.3091
ENERGY: 300000 1.2513 5.4482 0.9220 0.0000 -10878.7419 1457.7775 0.0000 0.0000 1803.8526 -7609.4903 302.3280 -9413.3429 -7643.2158 300.7720 -119.5879 -50.1763 30520.7442 -331.6459 -247.0944
ENERGY: 600000 2.0554 10.3732 2.7270 0.0000 -10915.0168 1471.8115 0.0000 0.0000 1787.9350 -7640.1148 299.6602 -9428.0497 -7622.0223 302.6833 159.8634 184.4109 30347.9142 -339.6080 -262.8461
ENERGY: 900000 0.3737 5.6598 1.3605 0.0000 -10925.6059 1557.2611 0.0000 0.0000 1792.2123 -7568.7385 300.3771 -9360.9508 -7618.0249 302.4120 814.4584 869.2557 30874.8139 -251.7404 -183.3883
ENERGY: 1200000 1.2172 6.0538 0.3691 0.0000 -10684.8575 1400.0614 0.0000 0.0000 1814.0726 -7463.0833 304.0409 -9277.1559 -7595.8011 303.2843 -679.5877 -548.3858 31334.6173 -231.1233 -156.1834
ENERGY: 1500000 3.3180 7.2929 1.7581 0.0000 -10998.2774 1529.7210 0.0000 0.0000 1792.3394 -7663.8480 300.3984 -9456.1874 -7602.3245 302.6203 325.5547 365.3398 30834.5237 -205.6661 -141.1211
TCL: Exiting due to exit command.
