Info: SIMULATION PARAMETERS:
Info: TIMESTEP               2
Info: NUMBER OF STEPS        0
Info: STEPS PER CYCLE        10
Info: PERIODIC CELL BASIS 1  31.6384 0 0
Info: PERIODIC CELL BASIS 2  0 31.6005 0
Info: PERIODIC CELL BASIS 3  0 0 30.5717
Info: PERIODIC CELL CENTER   0 0 0
Info: WRAPPING WATERS AROUND PERIODIC BOUNDARIES ON OUTPUT.
Info: WRAPPING ALL CLUSTERS AROUND PERIODIC BOUNDARIES ON OUTPUT.
Info: FIRST LDB TIMESTEP     50
Info: LAST LDB TIMESTEP     -1
Info: HOM BACKGROUND SCALING 1
Info: PME BACKGROUND SCALING 1
Info: MIN ATOMS PER PATCH    40
Info: EMPTY PATCH LOAD       40 ATOMS
Info: VELOCITY FILE          mobley_9185328_equil.vel
Info: CENTER OF MASS MOVING INITIALLY? NO
Info: DIELECTRIC             1
Info: EXCLUDE                SCALED ONE-FOUR
Info: 1-4 ELECTROSTATICS SCALED BY 0.833333
Info: MODIFIED 1-4 VDW PARAMETERS WILL BE USED
Info: DCD FILENAME           mobley_9185328_prod.dcd
Info: DCD FREQUENCY          100000
Info: DCD FIRST STEP         100000
Info: DCD FILE WILL CONTAIN UNIT CELL DATA
Info: XST FILENAME           mobley_9185328_prod.xst
Info: XST FREQUENCY          100000
Info: NO VELOCITY DCD OUTPUT
Info: NO FORCE DCD OUTPUT
Info: OUTPUT FILENAME        mobley_9185328_prod
Info: BINARY OUTPUT FILES WILL BE USED
Info: RESTART FILENAME       mobley_9185328_prod.restart
Info: RESTART FREQUENCY      100000
Info: BINARY RESTART FILES WILL BE USED
Info: CUTOFF                 9
Info: PAIRLIST DISTANCE      11
Info: PAIRLIST SHRINK RATE   0.01
Info: PAIRLIST GROW RATE     0.01
Info: PAIRLIST TRIGGER       0.3
Info: PAIRLISTS PER CYCLE    2
Info: PAIRLISTS ENABLED
Info: MARGIN                 2
Info: HYDROGEN GROUP CUTOFF  2.5
Info: PATCH DIMENSION        15.5
Info: ENERGY OUTPUT STEPS    100000
Info: ENERGY EVALUATION STEPS    100000
Info: OUTPUT ENERGY PRECISION 4
Info: CROSSTERM ENERGY INCLUDED IN DIHEDRAL
Info: TIMING OUTPUT STEPS    1000000
Info: PRESSURE OUTPUT STEPS  100000
Info: ALCHEMICAL FEP ON
Info: FEP CURRENT LAMBDA VALUE     0
Info: FEP COMPARISON LAMBDA VALUE  0.05
Info: FEP INTRA-ALCHEMICAL NON-BONDED INTERACTIONS WILL BE RETAINED
Info: FEP INTRA-ALCHEMICAL BONDED INTERACTIONS WILL BE RETAINED
Info: FEP VDW SHIFTING COEFFICIENT 5
Info: FEP ELEC. ACTIVE FOR ANNIHILATED PARTICLES BETWEEN LAMBDA = 0 AND LAMBDA = 0.5
Info: FEP ELEC. ACTIVE FOR EXNIHILATED PARTICLES BETWEEN LAMBDA = 0.5 AND LAMBDA = 1
Info: FEP VDW ACTIVE FOR ANNIHILATED PARTICLES BETWEEN LAMBDA = 0 AND LAMBDA = 1
Info: FEP VDW ACTIVE FOR EXNIHILATED PARTICLES BETWEEN LAMBDA = 0 AND LAMBDA = 1
Info: FEP BOND ACTIVE FOR ANNIHILATED PARTICLES BETWEEN LAMBDA = 1 AND LAMBDA = 1
Info: FEP BOND ACTIVE FOR EXNIHILATED PARTICLES BETWEEN LAMBDA = 0 AND LAMBDA = 0
Info: LANGEVIN DYNAMICS ACTIVE
Info: LANGEVIN TEMPERATURE   300
Info: LANGEVIN USING BBK INTEGRATOR
Info: LANGEVIN DAMPING COEFFICIENT IS 1 INVERSE PS
Info: LANGEVIN DYNAMICS APPLIED TO HYDROGENS
Info: LANGEVIN PISTON PRESSURE CONTROL ACTIVE
Info:        TARGET PRESSURE IS 1.01325 BAR
Info:     OSCILLATION PERIOD IS 50 FS
Info:             DECAY TIME IS 25 FS
Info:     PISTON TEMPERATURE IS 300 K
Info:       PRESSURE CONTROL IS GROUP-BASED
Info:    INITIAL STRAIN RATE IS 0.000201046 0.000201046 0.000201046
Info:       CELL FLUCTUATION IS ISOTROPIC
Info: PARTICLE MESH EWALD (PME) ACTIVE
Info: PME TOLERANCE               1e-06
Info: PME EWALD COEFFICIENT       0.348832
Info: PME INTERPOLATION ORDER     4
Info: PME GRID DIMENSIONS         32 32 32
Info: PME MAXIMUM GRID SPACING    1
Info: PME CALCULATION WILL BE PERFORMED ON GPU
Info: FULL ELECTROSTATIC EVALUATION FREQUENCY      2
Info: USING VERLET I (r-RESPA) MTS SCHEME.
Info: C1 SPLITTING OF LONG RANGE ELECTROSTATICS
Info: PLACING ATOMS IN PATCHES BY HYDROGEN GROUPS
Info: RIGID BONDS TO HYDROGEN : ALL
Info:         ERROR TOLERANCE : 1e-08
Info:          MAX ITERATIONS : 100
Info: RIGID WATER USING SETTLE ALGORITHM
Info: RANDOM NUMBER SEED     1743733502
Info: USE HYDROGEN BONDS?    NO
Info: Using AMBER format force field!
Info: AMBER PARM FILE        mobley_9185328.prmtop
Info: COORDINATE PDB         mobley_9185328.pdb
Info: Exclusions will be read from PARM file!
Info: SCNB (VDW SCALING)     2
Info: USING ARITHMETIC MEAN TO COMBINE L-J SIGMA PARAMETERS
Info: BINARY COORDINATES     mobley_9185328_equil.coor
Info: SUMMARY OF PARAMETERS:
Info: 7 BONDS
Info: 9 ANGLES
Info:   9 HARMONIC
Info:   0 COSINE-BASED
Info: 4 DIHEDRAL
Info: 0 IMPROPER
Info: 0 CROSSTERM
Info: 0 VDW
Info: 28 VDW_PAIRS
Info: 0 NBTHOLE_PAIRS
Info: To read alchdata from file: mobley_9185328.pdb
Info: To read alchflag data from column: 5
Info: STRUCTURE SUMMARY:
Info: 2947 ATOMS
Info: 2946 BONDS
Info: 21 ANGLES
Info: 24 DIHEDRALS
Info: 0 IMPROPERS
Info: 0 CROSSTERMS
Info: 2991 EXCLUSIONS
Info: 2943 RIGID BONDS
Info: ALCH: 0 ATOMS TO DISAPPEAR IN FINAL STATE
Info: ALCH: 13 ATOMS TO APPEAR IN FINAL STATE
Info: 5898 DEGREES OF FREEDOM
Info: 982 HYDROGEN GROUPS
Info: 4 ATOMS IN LARGEST HYDROGEN GROUP
Info: 982 MIGRATION GROUPS
Info: 4 ATOMS IN LARGEST MIGRATION GROUP
Info: TOTAL MASS = 17678.8 amu
Info: TOTAL CHARGE = -0.000300016 e
Info: MASS DENSITY = 0.960468 g/cm^3
Info: ATOM DENSITY = 0.0964167 atoms/A^3
Info: ADDED 0 IMPLICIT EXCLUSIONS
Info: NONBONDED TABLE R-SQUARED SPACING: 0.0625
Info: NONBONDED TABLE SIZE: 705 POINTS
Info: REDUCING NUMBER OF PATCHES TO IMPROVE LOAD BALANCE
Info: REMOVING COM VELOCITY 0.181671 -0.172523 0.0490417
Info: Use 3D box decompostion in PME FFT.
Info: Updated CUDA force table with 4096 elements.
Info: Updated CUDA LJ table with 7 x 7 elements.
Info: Found 16 unique exclusion lists needing 32 bytes
TCL: Running for 1500000 steps
ETITLE: TS BOND ANGLE DIHED IMPRP ELECT VDW BOUNDARY MISC KINETIC TOTAL TEMP POTENTIAL TOTALAVG TEMPAVG PRESSURE GPRESSURE VOLUME PRESSAVG GPRESSAVG
ENERGY: 0 2.4532 8.2638 0.7411 0.0000 -10657.1773 1477.7809 0.0000 0.0000 1753.9553 -7413.9830 299.2982 -9167.9382 -7413.9830 299.2982 222.9219 312.4671 30565.2491 222.9219 312.4671
ENERGY: 300000 0.3322 8.3476 0.6216 0.0000 -10844.4498 1533.3779 0.0000 0.0000 1820.5976 -7481.1728 310.6702 -9301.7704 -7457.0532 303.1943 646.1694 727.9380 30008.3012 341.2461 414.7059
ENERGY: 600000 0.0046 5.7092 1.0989 0.0000 -10740.2052 1507.5914 0.0000 0.0000 1822.0170 -7403.7842 310.9124 -9225.8012 -7453.0699 302.7310 683.0984 752.8122 30159.7686 387.2225 467.9640
ENERGY: 900000 1.2959 6.8677 0.6666 0.0000 -10557.3034 1362.2817 0.0000 0.0000 1769.7480 -7416.4436 301.9931 -9186.1916 -7449.7706 302.9089 -461.8768 -307.2815 30539.6841 245.6172 332.9800
ENERGY: 1200000 0.3460 3.7438 1.1195 0.0000 -10829.6703 1523.7227 0.0000 0.0000 1753.5661 -7547.1723 299.2318 -9300.7384 -7460.5376 301.7733 555.0518 692.1925 29768.3111 142.2258 232.4237
ENERGY: 1500000 0.5954 6.8308 0.5128 0.0000 -10820.5546 1496.0177 0.0000 0.0000 1754.9434 -7561.6544 299.4668 -9316.5978 -7460.5492 301.4948 240.3872 372.0714 29786.2672 142.4663 229.1569
TCL: Running FEP window   2: Lambda1 0.05   Lambda2 0.1    [dLambda 0.05  ]
TCL: Setting parameter firsttimestep to 0
TCL: Setting parameter alchLambda to 0.05
Info: NONBONDED TABLE R-SQUARED SPACING: 0.0625
Info: NONBONDED TABLE SIZE: 705 POINTS
TCL: Setting parameter alchLambda2 to 0.1
Info: NONBONDED TABLE R-SQUARED SPACING: 0.0625
Info: NONBONDED TABLE SIZE: 705 POINTS
TCL: Running for 1500000 steps
ETITLE: TS BOND ANGLE DIHED IMPRP ELECT VDW BOUNDARY MISC KINETIC TOTAL TEMP POTENTIAL TOTALAVG TEMPAVG PRESSURE GPRESSURE VOLUME PRESSAVG GPRESSAVG
ENERGY: 0 0.5954 6.8308 0.5128 0.0000 -10820.5553 1500.0322 0.0000 0.0000 1754.0279 -7558.5561 299.3106 -9312.5840 -7558.5561 299.3106 292.6375 375.9706 29786.2672 292.6375 375.9706
ENERGY: 300000 0.2028 6.2818 1.1179 0.0000 -10701.1566 1446.4411 0.0000 0.0000 1722.1781 -7524.9348 293.8757 -9247.1129 -7524.8486 295.6364 161.6888 166.7658 30063.4206 288.6706 352.8544
ENERGY: 600000 1.3410 3.6482 0.8379 0.0000 -10618.0008 1413.5074 0.0000 0.0000 1733.6224 -7465.0439 295.8286 -9198.6662 -7518.2226 296.7571 -246.3924 -155.7458 30260.9916 85.9494 164.5449
ENERGY: 900000 0.4603 5.3079 0.4533 0.0000 -10691.7912 1450.2946 0.0000 0.0000 1722.4085 -7512.8666 293.9150 -9235.2751 -7502.0900 297.1583 -28.4984 17.4720 30719.6515 87.6831 155.9782
ENERGY: 1200000 0.8641 4.4495 1.1344 0.0000 -10647.0712 1388.7629 0.0000 0.0000 1726.7529 -7525.1073 294.6564 -9251.8603 -7490.7772 297.8196 -393.0234 -333.7031 30095.7130 32.6716 103.1105
ENERGY: 1500000 1.9296 4.7178 1.4361 0.0000 -10596.0508 1410.8547 0.0000 0.0000 1794.1587 -7382.9539 306.1586 -9177.1126 -7474.7039 298.5024 -186.7961 -139.6900 30330.9801 -30.5896 37.1585
TCL: Running FEP window   3: Lambda1 0.1    Lambda2 0.15000000000000002 [dLambda 0.05000000000000002]
TCL: Setting parameter firsttimestep to 0
TCL: Setting parameter alchLambda to 0.1
Info: NONBONDED TABLE R-SQUARED SPACING: 0.0625
Info: NONBONDED TABLE SIZE: 705 POINTS
TCL: Setting parameter alchLambda2 to 0.15000000000000002
Info: NONBONDED TABLE R-SQUARED SPACING: 0.0625
Info: NONBONDED TABLE SIZE: 705 POINTS
TCL: Running for 1500000 steps
ETITLE: TS BOND ANGLE DIHED IMPRP ELECT VDW BOUNDARY MISC KINETIC TOTAL TEMP POTENTIAL TOTALAVG TEMPAVG PRESSURE GPRESSURE VOLUME PRESSAVG GPRESSAVG
ENERGY: 0 1.9296 4.7178 1.4361 0.0000 -10596.0507 1412.6852 0.0000 0.0000 1793.2904 -7381.9916 306.0104 -9175.2820 -7381.9916 306.0104 -205.3329 -134.1256 30330.9801 -205.3329 -134.1256
ENERGY: 300000 0.4194 5.4026 0.6688 0.0000 -10823.8732 1534.9237 0.0000 0.0000 1725.4217 -7557.0370 294.4292 -9282.4588 -7467.7526 300.1335 471.4100 587.0047 30016.0219 -62.9313 3.6939
ENERGY: 600000 1.7770 6.9714 0.8595 0.0000 -10846.0688 1491.8254 0.0000 0.0000 1731.2692 -7613.3663 295.4270 -9344.6355 -7496.7881 299.1499 326.8407 334.8015 29483.9922 -280.8710 -230.6597
ENERGY: 900000 1.0317 5.1440 0.6337 0.0000 -10716.6267 1463.7886 0.0000 0.0000 1794.7669 -7451.2618 306.2624 -9246.0287 -7499.9476 299.8074 100.0194 120.1593 30422.3906 -118.2702 -73.7127
ENERGY: 1200000 2.3429 6.2311 1.5331 0.0000 -10557.5066 1412.6270 0.0000 0.0000 1744.7077 -7390.0649 297.7202 -9134.7725 -7491.8537 299.3901 -78.1132 -38.6835 30646.1651 -138.3594 -100.7583
ENERGY: 1500000 0.5650 4.9460 0.8523 0.0000 -10747.0924 1480.6754 0.0000 0.0000 1724.6591 -7535.3946 294.2991 -9260.0537 -7492.8632 299.0327 521.2604 593.1968 29726.7161 -17.1130 21.8194
TCL: Running FEP window   4: Lambda1 0.15000000000000002 Lambda2 0.2    [dLambda 0.04999999999999999]
TCL: Setting parameter firsttimestep to 0
TCL: Setting parameter alchLambda to 0.15000000000000002
Info: NONBONDED TABLE R-SQUARED SPACING: 0.0625
Info: NONBONDED TABLE SIZE: 705 POINTS
TCL: Setting parameter alchLambda2 to 0.2
Info: NONBONDED TABLE R-SQUARED SPACING: 0.0625
Info: NONBONDED TABLE SIZE: 705 POINTS
TCL: Running for 1500000 steps
ETITLE: TS BOND ANGLE DIHED IMPRP ELECT VDW BOUNDARY MISC KINETIC TOTAL TEMP POTENTIAL TOTALAVG TEMPAVG PRESSURE GPRESSURE VOLUME PRESSAVG GPRESSAVG
ENERGY: 0 0.5650 4.9460 0.8523 0.0000 -10747.0919 1481.4730 0.0000 0.0000 1723.7856 -7535.4700 294.1500 -9259.2555 -7535.4700 294.1500 521.8266 596.5203 29726.7161 521.8266 596.5203
ENERGY: 300000 0.5644 6.3392 1.0767 0.0000 -10818.8190 1521.3054 0.0000 0.0000 1767.0144 -7522.5189 301.5266 -9289.5332 -7479.2009 303.8690 435.9124 445.6274 30414.2430 80.2342 147.6768
ENERGY: 600000 1.4932 3.7406 2.0415 0.0000 -10701.0254 1406.2301 0.0000 0.0000 1705.8107 -7581.7093 291.0827 -9287.5200 -7492.1892 300.0251 -664.6807 -623.2554 30590.4919 -181.1047 -109.2291
ENERGY: 900000 0.5900 5.7011 2.1528 0.0000 -10625.2567 1370.2169 0.0000 0.0000 1806.4501 -7440.1459 308.2560 -9246.5960 -7486.2601 302.4724 -534.8985 -444.8185 30119.9153 -166.6763 -95.3025
ENERGY: 1200000 0.3550 2.4202 0.4012 0.0000 -10770.0401 1482.7984 0.0000 0.0000 1755.1450 -7528.9203 299.5012 -9284.0653 -7486.8029 301.7342 -29.9203 -15.3482 30658.4542 -71.1335 -6.7702
ENERGY: 1500000 0.9157 4.2313 0.1196 0.0000 -10637.6959 1421.7898 0.0000 0.0000 1762.1130 -7448.5266 300.6903 -9210.6396 -7477.6198 301.4835 -229.5314 -144.2754 30498.2004 -57.2486 8.3404
TCL: Running FEP window   5: Lambda1 0.2    Lambda2 0.25   [dLambda 0.04999999999999999]
TCL: Setting parameter firsttimestep to 0
TCL: Setting parameter alchLambda to 0.2
Info: NONBONDED TABLE R-SQUARED SPACING: 0.0625
Info: NONBONDED TABLE SIZE: 705 POINTS
TCL: Setting parameter alchLambda2 to 0.25
Info: NONBONDED TABLE R-SQUARED SPACING: 0.0625
Info: NONBONDED TABLE SIZE: 705 POINTS
TCL: Running for 1500000 steps
ETITLE: TS BOND ANGLE DIHED IMPRP ELECT VDW BOUNDARY MISC KINETIC TOTAL TEMP POTENTIAL TOTALAVG TEMPAVG PRESSURE GPRESSURE VOLUME PRESSAVG GPRESSAVG
ENERGY: 0 0.9157 4.2313 0.1196 0.0000 -10637.6952 1421.9244 0.0000 0.0000 1761.2579 -7449.2464 300.5443 -9210.5043 -7449.2464 300.5443 -227.3505 -142.5761 30498.2004 -227.3505 -142.5761
ENERGY: 300000 3.0304 7.7418 0.5295 0.0000 -10565.3781 1351.8363 0.0000 0.0000 1769.7837 -7432.4563 301.9992 -9202.2400 -7459.1212 301.5491 -572.4088 -485.4958 30328.7374 -110.2770 -42.7624
ENERGY: 600000 1.8910 4.6078 0.2379 0.0000 -10548.7338 1374.2733 0.0000 0.0000 1707.5866 -7460.1372 291.3858 -9167.7238 -7473.4528 299.1932 -200.9177 -162.2580 30172.2663 -282.3347 -224.5705
ENERGY: 900000 0.2592 7.0501 0.4865 0.0000 -10752.3739 1451.0897 0.0000 0.0000 1768.9281 -7524.5602 301.8532 -9293.4883 -7475.6227 299.0361 -37.5556 72.3090 30181.7343 -147.8079 -88.8143
ENERGY: 1200000 0.6855 8.5741 0.2460 0.0000 -10760.4880 1480.7454 0.0000 0.0000 1729.8311 -7540.4059 295.1816 -9270.2370 -7487.8253 297.6568 361.9764 424.3767 29804.5789 -198.5016 -141.6258
ENERGY: 1500000 1.3494 5.1080 1.3917 0.0000 -10620.0257 1397.8475 0.0000 0.0000 1780.7308 -7433.5984 303.8672 -9214.3291 -7485.3873 298.6516 -386.1947 -326.5052 30503.8503 -173.4144 -118.9091
TCL: Running FEP window   6: Lambda1 0.25   Lambda2 0.3    [dLambda 0.04999999999999999]
TCL: Setting parameter firsttimestep to 0
TCL: Setting parameter alchLambda to 0.25
Info: NONBONDED TABLE R-SQUARED SPACING: 0.0625
Info: NONBONDED TABLE SIZE: 705 POINTS
TCL: Setting parameter alchLambda2 to 0.3
Info: NONBONDED TABLE R-SQUARED SPACING: 0.0625
Info: NONBONDED TABLE SIZE: 705 POINTS
TCL: Running for 1500000 steps
ETITLE: TS BOND ANGLE DIHED IMPRP ELECT VDW BOUNDARY MISC KINETIC TOTAL TEMP POTENTIAL TOTALAVG TEMPAVG PRESSURE GPRESSURE VOLUME PRESSAVG GPRESSAVG
ENERGY: 0 1.3494 5.1080 1.3917 0.0000 -10620.0241 1398.6260 0.0000 0.0000 1779.8617 -7433.6873 303.7189 -9213.5490 -7433.6873 303.7189 -409.9669 -317.4677 30503.8503 -409.9669 -317.4677
ENERGY: 300000 0.1692 5.5755 0.4963 0.0000 -10706.9148 1462.3930 0.0000 0.0000 1757.3517 -7480.9293 299.8778 -9238.2810 -7457.9658 302.6543 47.9209 66.4177 30501.1217 117.6591 168.1580
ENERGY: 600000 0.0232 7.1876 0.5221 0.0000 -10559.5155 1296.0726 0.0000 0.0000 1765.7489 -7489.9610 301.3107 -9255.7100 -7460.2015 301.7599 -1103.7290 -1075.7972 30374.4245 -10.8020 47.0361
ENERGY: 900000 0.9795 3.9212 2.0346 0.0000 -10664.6077 1495.3496 0.0000 0.0000 1715.5784 -7446.7444 292.7495 -9162.3228 -7465.4471 301.2256 397.1157 495.8906 30370.3039 27.1160 86.9959
ENERGY: 1200000 0.2854 7.3219 2.3508 0.0000 -10682.6992 1369.6620 0.0000 0.0000 1802.1462 -7500.9328 307.5216 -9303.0790 -7459.2287 302.3519 -771.1907 -705.6322 30425.2402 -30.5189 25.7263
ENERGY: 1500000 0.5497 4.4238 0.5279 0.0000 -10648.1840 1438.7962 0.0000 0.0000 1810.5887 -7393.2978 308.9622 -9203.8864 -7452.3584 302.9215 43.8600 99.9472 30411.5916 -87.3694 -32.9662
TCL: Running FEP window   7: Lambda1 0.3    Lambda2 0.35   [dLambda 0.04999999999999999]
TCL: Setting parameter firsttimestep to 0
TCL: Setting parameter alchLambda to 0.3
Info: NONBONDED TABLE R-SQUARED SPACING: 0.0625
Info: NONBONDED TABLE SIZE: 705 POINTS
TCL: Setting parameter alchLambda2 to 0.35
Info: NONBONDED TABLE R-SQUARED SPACING: 0.0625
Info: NONBONDED TABLE SIZE: 705 POINTS
TCL: Running for 1500000 steps
ETITLE: TS BOND ANGLE DIHED IMPRP ELECT VDW BOUNDARY MISC KINETIC TOTAL TEMP POTENTIAL TOTALAVG TEMPAVG PRESSURE GPRESSURE VOLUME PRESSAVG GPRESSAVG
ENERGY: 0 0.5497 4.4238 0.5279 0.0000 -10648.1848 1438.3851 0.0000 0.0000 1809.7267 -7394.5715 308.8152 -9204.2983 -7394.5715 308.8152 16.4819 97.1775 30411.5916 16.4819 97.1775
ENERGY: 300000 1.1644 2.9599 1.1360 0.0000 -10671.3685 1465.8741 0.0000 0.0000 1702.9982 -7497.2360 290.6028 -9200.2342 -7472.3928 299.8086 193.4426 292.4045 30376.0595 -283.6723 -204.9072
ENERGY: 600000 2.1026 6.2780 1.6528 0.0000 -10533.5416 1316.6198 0.0000 0.0000 1774.3606 -7432.5277 302.7802 -9206.8883 -7458.9860 299.5762 -1070.6211 -975.7497 30608.1446 -280.6662 -199.0874
ENERGY: 900000 2.6539 5.2842 0.1391 0.0000 -10548.1251 1329.2077 0.0000 0.0000 1758.1176 -7452.7226 300.0085 -9210.8402 -7456.5637 299.9566 -645.4000 -597.3554 30155.7161 -302.8549 -223.3991
ENERGY: 1200000 1.1976 6.2601 1.5136 0.0000 -10611.6892 1365.5379 0.0000 0.0000 1837.3200 -7399.8601 313.5237 -9237.1801 -7448.4209 300.7364 -735.0110 -604.6283 30539.4543 -381.3733 -297.1999
ENERGY: 1500000 1.7746 3.2432 0.8586 0.0000 -10683.7788 1421.7679 0.0000 0.0000 1791.4446 -7464.6898 305.6955 -9256.1344 -7451.7263 301.0175 -143.4586 -47.1441 30210.4155 -312.6361 -237.4148
TCL: Running FEP window   8: Lambda1 0.35   Lambda2 0.39999999999999997 [dLambda 0.04999999999999999]
TCL: Setting parameter firsttimestep to 0
TCL: Setting parameter alchLambda to 0.35
Info: NONBONDED TABLE R-SQUARED SPACING: 0.0625
Info: NONBONDED TABLE SIZE: 705 POINTS
TCL: Setting parameter alchLambda2 to 0.39999999999999997
Info: NONBONDED TABLE R-SQUARED SPACING: 0.0625
Info: NONBONDED TABLE SIZE: 705 POINTS
TCL: Running for 1500000 steps
ETITLE: TS BOND ANGLE DIHED IMPRP ELECT VDW BOUNDARY MISC KINETIC TOTAL TEMP POTENTIAL TOTALAVG TEMPAVG PRESSURE GPRESSURE VOLUME PRESSAVG GPRESSAVG
ENERGY: 0 1.7746 3.2432 0.8586 0.0000 -10683.7771 1421.7147 0.0000 0.0000 1790.5673 -7465.6187 305.5458 -9256.1860 -7465.6187 305.5458 -132.1993 -42.8198 30210.4155 -132.1993 -42.8198
ENERGY: 300000 0.8869 6.4935 0.8887 0.0000 -10631.3366 1467.8648 0.0000 0.0000 1753.3092 -7401.8936 299.1880 -9155.2027 -7418.6996 301.9927 380.8930 465.2141 30168.8242 55.3687 128.5729
ENERGY: 600000 1.0072 7.1387 0.5952 0.0000 -10710.1370 1441.3629 0.0000 0.0000 1836.6611 -7423.3720 313.4113 -9260.0330 -7419.1316 303.1343 99.9101 259.2481 29863.7027 72.1056 159.0241
ENERGY: 900000 0.1367 4.7613 1.4732 0.0000 -10700.9706 1398.8850 0.0000 0.0000 1748.8829 -7546.8315 298.4327 -9295.7144 -7435.8028 302.6267 -299.0213 -241.3438 30086.3233 -4.9997 75.3132
ENERGY: 1200000 0.2115 5.0168 0.0900 0.0000 -10554.9601 1360.6305 0.0000 0.0000 1707.4515 -7481.5598 291.3627 -9189.0113 -7443.6583 301.8704 -670.4412 -591.0466 30751.8009 35.0828 116.9265
ENERGY: 1500000 0.5520 5.4487 0.6996 0.0000 -10715.8984 1473.3118 0.0000 0.0000 1719.2949 -7516.5914 293.3837 -9235.8864 -7455.0946 300.8641 392.9390 468.6310 29813.5377 -20.3255 55.5504
TCL: Running FEP window   9: Lambda1 0.39999999999999997 Lambda2 0.44999999999999996 [dLambda 0.04999999999999999]
TCL: Setting parameter firsttimestep to 0
TCL: Setting parameter alchLambda to 0.39999999999999997
Info: NONBONDED TABLE R-SQUARED SPACING: 0.0625
Info: NONBONDED TABLE SIZE: 705 POINTS
TCL: Setting parameter alchLambda2 to 0.44999999999999996
Info: NONBONDED TABLE R-SQUARED SPACING: 0.0625
Info: NONBONDED TABLE SIZE: 705 POINTS
TCL: Running for 1500000 steps
ETITLE: TS BOND ANGLE DIHED IMPRP ELECT VDW BOUNDARY MISC KINETIC TOTAL TEMP POTENTIAL TOTALAVG TEMPAVG PRESSURE GPRESSURE VOLUME PRESSAVG GPRESSAVG
ENERGY: 0 0.5520 5.4487 0.6996 0.0000 -10715.8995 1473.1017 0.0000 0.0000 1718.3838 -7517.7137 293.2282 -9236.0975 -7517.7137 293.2282 374.8398 474.1793 29813.5377 374.8398 474.1793
ENERGY: 300000 0.1344 6.5388 0.6124 0.0000 -10642.4079 1427.1430 0.0000 0.0000 1769.8647 -7438.1145 302.0130 -9207.9792 -7453.2163 300.9998 142.5045 226.6340 29870.6653 166.3364 230.4746
ENERGY: 600000 1.3740 6.1005 0.8802 0.0000 -10757.4181 1488.3741 0.0000 0.0000 1742.4045 -7518.2849 297.3272 -9260.6893 -7483.8697 299.1943 300.6607 385.7215 30185.2659 21.6659 99.3191
ENERGY: 900000 0.8898 6.1766 0.5610 0.0000 -10711.0476 1444.1660 0.0000 0.0000 1776.1226 -7483.1315 303.0809 -9259.2541 -7486.5513 298.7081 18.9885 67.5198 30232.8318 101.3413 167.0973
ENERGY: 1200000 1.4555 2.5077 0.7786 0.0000 -10596.3771 1401.8093 0.0000 0.0000 1733.5763 -7456.2498 295.8207 -9189.8261 -7483.9322 298.3575 -558.9408 -474.6932 30872.6574 -15.7654 51.3854
ENERGY: 1500000 1.1802 6.4551 0.4836 0.0000 -10679.8711 1462.6126 0.0000 0.0000 1837.9769 -7371.1627 313.6358 -9209.1396 -7469.4632 299.6711 497.8094 505.3939 30292.0866 -46.0739 15.9149
TCL: Running FEP window  10: Lambda1 0.44999999999999996 Lambda2 0.49999999999999994 [dLambda 0.04999999999999999]
TCL: Setting parameter firsttimestep to 0
TCL: Setting parameter alchLambda to 0.44999999999999996
Info: NONBONDED TABLE R-SQUARED SPACING: 0.0625
Info: NONBONDED TABLE SIZE: 705 POINTS
TCL: Setting parameter alchLambda2 to 0.49999999999999994
Info: NONBONDED TABLE R-SQUARED SPACING: 0.0625
Info: NONBONDED TABLE SIZE: 705 POINTS
TCL: Running for 1500000 steps
ETITLE: TS BOND ANGLE DIHED IMPRP ELECT VDW BOUNDARY MISC KINETIC TOTAL TEMP POTENTIAL TOTALAVG TEMPAVG PRESSURE GPRESSURE VOLUME PRESSAVG GPRESSAVG
ENERGY: 0 1.1802 6.4551 0.4836 0.0000 -10679.8698 1462.1591 0.0000 0.0000 1837.1355 -7372.4563 313.4923 -9209.5918 -7372.4563 313.4923 423.4692 506.5836 30292.0866 423.4692 506.5836
ENERGY: 300000 0.6977 7.9753 2.0427 0.0000 -10629.7666 1397.9332 0.0000 0.0000 1791.9007 -7429.2170 305.7733 -9221.1177 -7419.2134 304.7513 -245.4838 -167.9538 30129.3232 -36.6940 36.2714
ENERGY: 600000 0.8524 7.1517 1.5853 0.0000 -10700.5585 1460.1236 0.0000 0.0000 1719.5404 -7511.3051 293.4256 -9230.8455 -7442.0917 304.7024 274.6230 297.7826 30045.1022 140.0832 196.0837
ENERGY: 900000 1.7399 3.8798 0.9165 0.0000 -10777.4636 1476.9578 0.0000 0.0000 1767.3889 -7526.5806 301.5906 -9293.9695 -7451.7537 303.5167 243.4603 247.5990 30065.5313 197.5557 237.9331
ENERGY: 1200000 0.9279 6.6967 0.4306 0.0000 -10668.7416 1374.7059 0.0000 0.0000 1760.9832 -7524.9972 300.4975 -9285.9804 -7462.9975 302.1703 -764.1796 -662.2810 30439.6785 98.7311 143.3508
ENERGY: 1500000 0.1223 8.1725 1.6360 0.0000 -10683.2528 1456.9835 0.0000 0.0000 1733.3146 -7483.0239 295.7761 -9216.3386 -7462.4503 301.9627 162.7747 234.3223 30207.9813 51.3726 98.7260
TCL: Running FEP window  11: Lambda1 0.49999999999999994 Lambda2 0.5499999999999999 [dLambda 0.04999999999999999]
TCL: Setting parameter firsttimestep to 0
TCL: Setting parameter alchLambda to 0.49999999999999994
Info: NONBONDED TABLE R-SQUARED SPACING: 0.0625
Info: NONBONDED TABLE SIZE: 705 POINTS
TCL: Setting parameter alchLambda2 to 0.5499999999999999
Info: NONBONDED TABLE R-SQUARED SPACING: 0.0625
Info: NONBONDED TABLE SIZE: 705 POINTS
TCL: Running for 1500000 steps
ETITLE: TS BOND ANGLE DIHED IMPRP ELECT VDW BOUNDARY MISC KINETIC TOTAL TEMP POTENTIAL TOTALAVG TEMPAVG PRESSURE GPRESSURE VOLUME PRESSAVG GPRESSAVG
ENERGY: 0 0.1223 8.1725 1.6360 0.0000 -10683.2526 1456.8675 0.0000 0.0000 1732.3835 -7484.0708 295.6172 -9216.4543 -7484.0708 295.6172 159.2959 237.2234 30207.9813 159.2959 237.2234
ENERGY: 300000 0.7745 7.3247 1.1731 0.0000 -10668.7813 1435.1461 0.0000 0.0000 1779.8065 -7444.5564 303.7095 -9224.3629 -7483.2835 298.8165 -209.9478 -168.6705 30780.4025 -52.8407 11.2114
ENERGY: 600000 3.4979 2.4488 1.7009 0.0000 -10665.5769 1435.8866 0.0000 0.0000 1743.6018 -7478.4409 297.5315 -9222.0428 -7481.3958 299.8655 -185.4889 -199.4270 30569.6929 -70.0565 -37.7508
ENERGY: 900000 0.7386 4.6130 1.1811 0.0000 -10689.1764 1390.2933 0.0000 0.0000 1758.3772 -7533.9732 300.0528 -9292.3504 -7480.5314 300.1011 -640.1031 -660.7656 30446.7972 -148.5667 -115.7537
ENERGY: 1200000 0.8824 4.7507 1.2195 0.0000 -10702.2230 1410.8398 0.0000 0.0000 1770.0983 -7514.4323 302.0529 -9284.5306 -7480.3054 301.3072 -454.7660 -363.9101 30413.7801 -173.6328 -141.1063
ENERGY: 1500000 0.3351 3.3539 0.7982 0.0000 -10741.9205 1449.5064 0.0000 0.0000 1761.1323 -7526.7946 300.5229 -9287.9269 -7482.2064 300.8533 59.1137 180.8626 29900.3350 -160.1365 -108.3533
TCL: Running FEP window  12: Lambda1 0.5499999999999999 Lambda2 0.6    [dLambda 0.050000000000000044]
TCL: Setting parameter firsttimestep to 0
TCL: Setting parameter alchLambda to 0.5499999999999999
Info: NONBONDED TABLE R-SQUARED SPACING: 0.0625
Info: NONBONDED TABLE SIZE: 705 POINTS
TCL: Setting parameter alchLambda2 to 0.6
Info: NONBONDED TABLE R-SQUARED SPACING: 0.0625
Info: NONBONDED TABLE SIZE: 705 POINTS
TCL: Running for 1500000 steps
ETITLE: TS BOND ANGLE DIHED IMPRP ELECT VDW BOUNDARY MISC KINETIC TOTAL TEMP POTENTIAL TOTALAVG TEMPAVG PRESSURE GPRESSURE VOLUME PRESSAVG GPRESSAVG
ENERGY: 0 0.3351 3.3539 0.7982 0.0000 -10741.9754 1449.6839 0.0000 0.0000 1760.2510 -7527.5533 300.3725 -9287.8043 -7527.5533 300.3725 100.3636 191.2132 29900.3350 100.3636 191.2132
ENERGY: 300000 0.8390 8.1111 0.6861 0.0000 -10642.7812 1377.1560 0.0000 0.0000 1749.2981 -7506.6909 298.5035 -9255.9890 -7486.6665 298.5172 -282.5845 -286.5530 30174.5886 -599.2929 -529.7081
ENERGY: 600000 2.8662 4.1231 0.7859 0.0000 -10605.0095 1421.7996 0.0000 0.0000 1736.5844 -7438.8504 296.3340 -9175.4347 -7472.4765 299.4611 64.0389 124.5249 30535.0036 -313.6753 -237.3703
ENERGY: 900000 0.1343 3.5933 0.9848 0.0000 -10770.0900 1510.1387 0.0000 0.0000 1745.0072 -7510.2315 297.7713 -9255.2387 -7477.6272 298.4471 549.5682 583.1807 30313.3953 -135.0786 -70.1367
ENERGY: 1200000 1.3490 5.8204 0.4079 0.0000 -10638.7586 1387.8105 0.0000 0.0000 1766.0054 -7477.3654 301.3545 -9243.3707 -7472.5849 299.4655 -433.7022 -374.8235 30480.9367 -174.4954 -109.3689
ENERGY: 1500000 2.1640 4.2515 0.5344 0.0000 -10691.2049 1466.6418 0.0000 0.0000 1704.9437 -7512.6695 290.9348 -9217.6132 -7475.4009 299.2844 84.9053 157.9127 30443.8011 -112.0523 -45.4900
TCL: Running FEP window  13: Lambda1 0.6    Lambda2 0.65   [dLambda 0.050000000000000044]
TCL: Setting parameter firsttimestep to 0
TCL: Setting parameter alchLambda to 0.6
Info: NONBONDED TABLE R-SQUARED SPACING: 0.0625
Info: NONBONDED TABLE SIZE: 705 POINTS
TCL: Setting parameter alchLambda2 to 0.65
Info: NONBONDED TABLE R-SQUARED SPACING: 0.0625
Info: NONBONDED TABLE SIZE: 705 POINTS
TCL: Running for 1500000 steps
ETITLE: TS BOND ANGLE DIHED IMPRP ELECT VDW BOUNDARY MISC KINETIC TOTAL TEMP POTENTIAL TOTALAVG TEMPAVG PRESSURE GPRESSURE VOLUME PRESSAVG GPRESSAVG
ENERGY: 0 2.1640 4.2515 0.5344 0.0000 -10691.1921 1466.2124 0.0000 0.0000 1704.0809 -7513.9488 290.7876 -9218.0297 -7513.9488 290.7876 74.5385 158.3306 30443.8011 74.5385 158.3306
ENERGY: 300000 1.7853 6.5538 1.6881 0.0000 -10649.2595 1459.7811 0.0000 0.0000 1760.8527 -7418.5986 300.4752 -9179.4512 -7511.2323 295.6700 177.8351 249.6227 30464.4846 62.0286 126.7654
ENERGY: 600000 2.1909 5.9984 1.1281 0.0000 -10683.8569 1415.6750 0.0000 0.0000 1761.0894 -7497.7750 300.5156 -9258.8644 -7504.9001 298.0643 -68.5052 -1.3205 30177.8091 122.7833 196.1083
ENERGY: 900000 0.7088 5.5448 1.6592 0.0000 -10627.7920 1411.4469 0.0000 0.0000 1798.5206 -7409.9116 306.9029 -9208.4323 -7490.1634 299.9463 126.0438 131.9023 30220.5123 203.1451 265.1290
ENERGY: 1200000 0.2962 7.1033 0.3638 0.0000 -10739.5474 1494.3790 0.0000 0.0000 1752.5232 -7484.8818 299.0539 -9237.4051 -7480.2659 300.3278 310.9347 385.8204 30558.0966 138.4736 199.4599
ENERGY: 1500000 0.2670 5.5773 1.0799 0.0000 -10685.6906 1365.2735 0.0000 0.0000 1766.3840 -7547.1089 301.4191 -9313.4929 -7488.4850 299.6291 -442.4679 -404.2755 29760.3556 42.4659 103.6726
TCL: Running FEP window  14: Lambda1 0.65   Lambda2 0.7000000000000001 [dLambda 0.050000000000000044]
TCL: Setting parameter firsttimestep to 0
TCL: Setting parameter alchLambda to 0.65
Info: NONBONDED TABLE R-SQUARED SPACING: 0.0625
Info: NONBONDED TABLE SIZE: 705 POINTS
TCL: Setting parameter alchLambda2 to 0.7000000000000001
Info: NONBONDED TABLE R-SQUARED SPACING: 0.0625
Info: NONBONDED TABLE SIZE: 705 POINTS
TCL: Running for 1500000 steps
ETITLE: TS BOND ANGLE DIHED IMPRP ELECT VDW BOUNDARY MISC KINETIC TOTAL TEMP POTENTIAL TOTALAVG TEMPAVG PRESSURE GPRESSURE VOLUME PRESSAVG GPRESSAVG
ENERGY: 0 0.2670 5.5773 1.0799 0.0000 -10685.8806 1365.6071 0.0000 0.0000 1765.4872 -7547.8622 301.2660 -9313.3493 -7547.8622 301.2660 -472.4936 -393.0849 29760.3556 -472.4936 -393.0849
ENERGY: 300000 1.9213 6.4247 0.5786 0.0000 -10730.2943 1396.0962 0.0000 0.0000 1813.4680 -7511.8055 309.4536 -9325.2735 -7527.8350 302.5067 -728.6929 -680.7323 30557.3671 -344.0767 -272.9540
ENERGY: 600000 0.4317 4.7561 1.1215 0.0000 -10511.1302 1315.1124 0.0000 0.0000 1780.1725 -7409.5360 303.7720 -9189.7085 -7500.2676 301.0255 -942.5234 -858.4394 30549.6484 -200.0541 -129.2755
ENERGY: 900000 0.4931 4.8091 0.3828 0.0000 -10840.5900 1583.4335 0.0000 0.0000 1833.5666 -7417.9049 312.8832 -9251.4715 -7482.7109 302.5416 1316.2236 1326.4188 30102.7009 -18.1951 48.0441
ENERGY: 1200000 0.2165 4.1013 0.5553 0.0000 -10732.1098 1442.7629 0.0000 0.0000 1780.4704 -7504.0034 303.8228 -9284.4738 -7481.0853 302.1879 56.8998 135.2285 30002.0224 -74.4007 -5.9075
ENERGY: 1500000 0.1041 5.1007 0.4048 0.0000 -10833.5294 1551.7469 0.0000 0.0000 1807.4097 -7468.7632 308.4198 -9276.1729 -7487.0858 301.8425 886.6940 970.9866 30031.5353 9.5665 85.1326
TCL: Running FEP window  15: Lambda1 0.7000000000000001 Lambda2 0.7500000000000001 [dLambda 0.050000000000000044]
TCL: Setting parameter firsttimestep to 0
TCL: Setting parameter alchLambda to 0.7000000000000001
Info: NONBONDED TABLE R-SQUARED SPACING: 0.0625
Info: NONBONDED TABLE SIZE: 705 POINTS
TCL: Setting parameter alchLambda2 to 0.7500000000000001
Info: NONBONDED TABLE R-SQUARED SPACING: 0.0625
Info: NONBONDED TABLE SIZE: 705 POINTS
TCL: Running for 1500000 steps
ETITLE: TS BOND ANGLE DIHED IMPRP ELECT VDW BOUNDARY MISC KINETIC TOTAL TEMP POTENTIAL TOTALAVG TEMPAVG PRESSURE GPRESSURE VOLUME PRESSAVG GPRESSAVG
ENERGY: 0 0.1041 5.1007 0.4048 0.0000 -10833.5415 1551.7678 0.0000 0.0000 1806.4856 -7469.6785 308.2621 -9276.1641 -7469.6785 308.2621 885.6864 974.0493 30031.5353 885.6864 974.0493
ENERGY: 300000 0.2976 6.1006 3.3194 0.0000 -10805.2807 1498.6782 0.0000 0.0000 1783.0608 -7513.8242 304.2648 -9296.8850 -7515.6174 301.6230 434.9789 476.8627 30110.9890 261.6368 341.1054
ENERGY: 600000 1.4781 7.8801 0.4304 0.0000 -10756.3579 1448.5449 0.0000 0.0000 1776.5740 -7521.4504 303.1579 -9298.0244 -7495.5894 303.9696 -132.3345 -70.5699 30168.7201 229.5231 304.9305
ENERGY: 900000 0.9233 7.4048 1.2812 0.0000 -10798.9584 1533.0014 0.0000 0.0000 1766.8624 -7489.4853 301.5007 -9256.3477 -7483.1759 302.6269 737.1278 779.5943 30067.1155 211.3212 282.0181
ENERGY: 1200000 0.1978 6.6826 0.3820 0.0000 -10819.4980 1463.1084 0.0000 0.0000 1726.9696 -7622.1577 294.6933 -9349.1273 -7485.4454 302.0905 139.9192 130.7313 29850.7518 169.8314 232.7874
ENERGY: 1500000 0.3646 4.4574 1.4945 0.0000 -10628.7386 1409.3244 0.0000 0.0000 1723.9899 -7489.1079 294.1849 -9213.0978 -7469.8807 302.1760 -268.6232 -224.3101 30566.0926 165.0720 224.2405
TCL: Running FEP window  16: Lambda1 0.7500000000000001 Lambda2 0.8000000000000002 [dLambda 0.050000000000000044]
TCL: Setting parameter firsttimestep to 0
TCL: Setting parameter alchLambda to 0.7500000000000001
Info: NONBONDED TABLE R-SQUARED SPACING: 0.0625
Info: NONBONDED TABLE SIZE: 705 POINTS
TCL: Setting parameter alchLambda2 to 0.8000000000000002
Info: NONBONDED TABLE R-SQUARED SPACING: 0.0625
Info: NONBONDED TABLE SIZE: 705 POINTS
TCL: Running for 1500000 steps
ETITLE: TS BOND ANGLE DIHED IMPRP ELECT VDW BOUNDARY MISC KINETIC TOTAL TEMP POTENTIAL TOTALAVG TEMPAVG PRESSURE GPRESSURE VOLUME PRESSAVG GPRESSAVG
ENERGY: 0 0.3646 4.4574 1.4945 0.0000 -10630.9532 1409.9816 0.0000 0.0000 1723.1116 -7491.5435 294.0350 -9214.6551 -7491.5435 294.0350 -305.2342 -220.0868 30566.0926 -305.2342 -220.0868
ENERGY: 300000 0.7295 7.2589 1.0403 0.0000 -10784.0535 1495.2067 0.0000 0.0000 1817.5995 -7462.2186 310.1586 -9279.8181 -7475.4789 304.5895 273.8482 310.1991 30439.8027 -38.4452 16.4034
ENERGY: 600000 0.9650 6.6667 2.2335 0.0000 -10618.0513 1378.2717 0.0000 0.0000 1758.4548 -7471.4596 300.0660 -9229.9144 -7484.0388 302.5110 -647.8145 -504.8547 30561.3229 -107.1870 -52.8772
ENERGY: 900000 0.0727 6.2756 1.3700 0.0000 -10670.0786 1433.1715 0.0000 0.0000 1774.6120 -7454.5768 302.8231 -9229.1888 -7485.2964 301.5830 278.1952 381.3255 29826.6754 -97.5090 -37.1474
ENERGY: 1200000 0.4731 4.5828 1.0348 0.0000 -10809.3676 1503.1412 0.0000 0.0000 1742.1263 -7558.0095 297.2797 -9300.1358 -7489.1252 300.9701 380.0293 399.7602 30260.8798 -129.8406 -66.2893
ENERGY: 1500000 0.6972 2.7635 0.9440 0.0000 -10709.8083 1448.0134 0.0000 0.0000 1790.3028 -7467.0874 305.5006 -9257.3902 -7484.5141 301.5382 296.5490 286.6737 29944.6603 -94.9978 -36.2423
TCL: Running FEP window  17: Lambda1 0.8000000000000002 Lambda2 0.8500000000000002 [dLambda 0.050000000000000044]
TCL: Setting parameter firsttimestep to 0
TCL: Setting parameter alchLambda to 0.8000000000000002
Info: NONBONDED TABLE R-SQUARED SPACING: 0.0625
Info: NONBONDED TABLE SIZE: 705 POINTS
TCL: Setting parameter alchLambda2 to 0.8500000000000002
Info: NONBONDED TABLE R-SQUARED SPACING: 0.0625
Info: NONBONDED TABLE SIZE: 705 POINTS
TCL: Running for 1500000 steps
ETITLE: TS BOND ANGLE DIHED IMPRP ELECT VDW BOUNDARY MISC KINETIC TOTAL TEMP POTENTIAL TOTALAVG TEMPAVG PRESSURE GPRESSURE VOLUME PRESSAVG GPRESSAVG
ENERGY: 0 0.6972 2.7635 0.9440 0.0000 -10711.6802 1449.2851 0.0000 0.0000 1789.3759 -7468.6146 305.3425 -9257.9905 -7468.6146 305.3425 224.4023 303.9808 29944.6603 224.4023 303.9808
ENERGY: 300000 0.2865 5.4172 1.0885 0.0000 -10625.3184 1356.8722 0.0000 0.0000 1775.3162 -7486.3378 302.9433 -9261.6540 -7483.0515 302.1752 -739.8331 -693.2032 30456.0552 -581.3744 -509.1638
ENERGY: 600000 1.8134 6.4625 1.9643 0.0000 -10630.3971 1380.4879 0.0000 0.0000 1738.5441 -7501.1250 296.6684 -9239.6691 -7478.1141 301.5425 -473.4580 -349.0376 30469.4987 -509.5937 -441.0730
ENERGY: 900000 0.2905 5.3393 0.9643 0.0000 -10722.1589 1472.6810 0.0000 0.0000 1735.0311 -7507.8528 296.0690 -9242.8839 -7476.2764 300.7320 380.4704 521.1105 29907.8371 -295.8636 -211.3176
ENERGY: 1200000 0.6059 3.8989 0.7583 0.0000 -10785.7085 1458.8248 0.0000 0.0000 1723.0304 -7598.5903 294.0211 -9321.6206 -7486.3077 300.4484 116.5123 98.2755 30018.7563 -249.9677 -175.7072
ENERGY: 1500000 0.2865 8.0560 1.8199 0.0000 -10661.2948 1429.8193 0.0000 0.0000 1761.3338 -7459.9794 300.5573 -9221.3132 -7480.4927 300.4207 316.9318 291.5154 29844.1636 -253.7966 -189.1387
TCL: Running FEP window  18: Lambda1 0.8500000000000002 Lambda2 0.9000000000000002 [dLambda 0.050000000000000044]
TCL: Setting parameter firsttimestep to 0
TCL: Setting parameter alchLambda to 0.8500000000000002
Info: NONBONDED TABLE R-SQUARED SPACING: 0.0625
Info: NONBONDED TABLE SIZE: 705 POINTS
TCL: Setting parameter alchLambda2 to 0.9000000000000002
Info: NONBONDED TABLE R-SQUARED SPACING: 0.0625
Info: NONBONDED TABLE SIZE: 705 POINTS
TCL: Running for 1500000 steps
ETITLE: TS BOND ANGLE DIHED IMPRP ELECT VDW BOUNDARY MISC KINETIC TOTAL TEMP POTENTIAL TOTALAVG TEMPAVG PRESSURE GPRESSURE VOLUME PRESSAVG GPRESSAVG
ENERGY: 0 0.2865 8.0560 1.8199 0.0000 -10662.9162 1431.0928 0.0000 0.0000 1760.4101 -7461.2509 300.3997 -9221.6610 -7461.2509 300.3997 225.6283 308.5263 29844.1636 225.6283 308.5263
ENERGY: 300000 0.1678 6.2045 1.4228 0.0000 -10689.1538 1458.6785 0.0000 0.0000 1777.7696 -7444.9106 303.3619 -9222.6802 -7465.4653 301.9841 284.8010 285.7367 30241.2192 -215.7180 -177.3120
ENERGY: 600000 0.6902 6.1079 0.2724 0.0000 -10563.6187 1373.1629 0.0000 0.0000 1785.1121 -7398.2733 304.6149 -9183.3853 -7464.8612 301.5232 -170.7765 -72.1738 30145.7031 -251.0609 -192.5401
ENERGY: 900000 0.3109 4.9649 0.6599 0.0000 -10645.9814 1453.4375 0.0000 0.0000 1739.5280 -7447.0802 296.8363 -9186.6082 -7471.0723 300.5063 214.0112 271.9427 30434.7693 -135.2101 -80.5491
ENERGY: 1200000 0.6649 5.3978 0.4642 0.0000 -10816.6935 1523.8226 0.0000 0.0000 1836.5307 -7449.8133 313.3890 -9286.3440 -7461.0103 302.0228 573.8822 618.2246 30291.7801 -119.0863 -57.8550
ENERGY: 1500000 0.3981 6.1976 1.4463 0.0000 -10774.1648 1481.4896 0.0000 0.0000 1759.9586 -7524.6746 300.3226 -9284.6333 -7464.9212 302.2900 292.9202 325.6644 30061.9549 -123.2622 -66.0772
TCL: Running FEP window  19: Lambda1 0.9000000000000002 Lambda2 0.9500000000000003 [dLambda 0.050000000000000044]
TCL: Setting parameter firsttimestep to 0
TCL: Setting parameter alchLambda to 0.9000000000000002
Info: NONBONDED TABLE R-SQUARED SPACING: 0.0625
Info: NONBONDED TABLE SIZE: 705 POINTS
TCL: Setting parameter alchLambda2 to 0.9500000000000003
Info: NONBONDED TABLE R-SQUARED SPACING: 0.0625
Info: NONBONDED TABLE SIZE: 705 POINTS
TCL: Running for 1500000 steps
ETITLE: TS BOND ANGLE DIHED IMPRP ELECT VDW BOUNDARY MISC KINETIC TOTAL TEMP POTENTIAL TOTALAVG TEMPAVG PRESSURE GPRESSURE VOLUME PRESSAVG GPRESSAVG
ENERGY: 0 0.3981 6.1976 1.4463 0.0000 -10775.2675 1481.9142 0.0000 0.0000 1759.0620 -7526.2493 300.1696 -9285.3113 -7526.2493 300.1696 259.5478 336.4161 30061.9549 259.5478 336.4161
ENERGY: 300000 1.1894 7.6671 2.4470 0.0000 -10794.8719 1485.7506 0.0000 0.0000 1788.7161 -7509.1018 305.2299 -9297.8178 -7515.5009 300.3021 325.7846 368.6900 29903.1484 161.2512 231.2836
ENERGY: 600000 0.0763 8.7164 2.1702 0.0000 -10729.4909 1459.2370 0.0000 0.0000 1728.7242 -7530.5669 294.9927 -9259.2911 -7488.2398 301.3333 95.5733 164.1866 30246.7744 117.2922 181.1954
ENERGY: 900000 0.4524 6.3768 0.9261 0.0000 -10658.3672 1414.3828 0.0000 0.0000 1694.9528 -7541.2762 289.2299 -9236.2290 -7481.0711 300.3317 -412.6522 -345.2886 30664.5719 114.7400 172.8599
ENERGY: 1200000 0.6760 6.0323 0.9490 0.0000 -10651.0745 1434.2025 0.0000 0.0000 1759.2210 -7449.9937 300.1968 -9209.2147 -7480.5374 300.0844 207.1296 249.1266 30179.0476 126.0680 179.8691
ENERGY: 1500000 0.9028 6.1201 0.6779 0.0000 -10686.5497 1447.4007 0.0000 0.0000 1752.9096 -7478.5385 299.1198 -9231.4481 -7476.9199 300.1246 -40.6380 2.6959 30530.3927 132.4393 190.3302
TCL: Running FEP window  20: Lambda1 0.9500000000000003 Lambda2 1.0    [dLambda 0.04999999999999971]
TCL: Setting parameter firsttimestep to 0
TCL: Setting parameter alchLambda to 0.9500000000000003
Info: NONBONDED TABLE R-SQUARED SPACING: 0.0625
Info: NONBONDED TABLE SIZE: 705 POINTS
TCL: Setting parameter alchLambda2 to 1.0
Info: NONBONDED TABLE R-SQUARED SPACING: 0.0625
Info: NONBONDED TABLE SIZE: 705 POINTS
TCL: Running for 1500000 steps
ETITLE: TS BOND ANGLE DIHED IMPRP ELECT VDW BOUNDARY MISC KINETIC TOTAL TEMP POTENTIAL TOTALAVG TEMPAVG PRESSURE GPRESSURE VOLUME PRESSAVG GPRESSAVG
ENERGY: 0 0.9028 6.1201 0.6779 0.0000 -10688.4804 1448.3870 0.0000 0.0000 1752.0182 -7480.3744 298.9677 -9232.3926 -7480.3744 298.9677 -62.2097 22.6469 30530.3927 -62.2097 22.6469
ENERGY: 300000 0.5030 6.4336 0.5710 0.0000 -10582.3047 1358.1177 0.0000 0.0000 1735.2009 -7481.4785 296.0979 -9216.6794 -7479.4332 298.1215 -452.5989 -440.1147 30336.4031 -258.6049 -197.8063
ENERGY: 600000 0.3012 4.2691 1.2521 0.0000 -10583.8693 1372.0396 0.0000 0.0000 1790.5516 -7415.4555 305.5431 -9206.0072 -7478.5974 297.9674 -369.9826 -330.6536 30443.9958 -433.8825 -370.9510
ENERGY: 900000 0.4379 6.3514 1.3300 0.0000 -10666.3799 1429.8465 0.0000 0.0000 1764.7257 -7463.6884 301.1361 -9228.4141 -7468.2880 299.2975 146.1311 201.7872 30031.7094 -277.1541 -212.5421
ENERGY: 1200000 2.5451 3.2359 1.1914 0.0000 -10678.9200 1510.3799 0.0000 0.0000 1823.0815 -7338.4861 311.0940 -9161.5676 -7464.2539 300.3830 595.0251 613.8527 30873.2309 -124.8555 -67.1392
ENERGY: 1500000 0.8494 6.6224 0.9326 0.0000 -10523.5951 1375.8058 0.0000 0.0000 1737.4186 -7401.9664 296.4764 -9139.3850 -7464.4542 299.9214 -287.2945 -226.9634 30587.5765 -73.5100 -19.1215
TCL: Exiting due to exit command.
