Info: SIMULATION PARAMETERS:
Info: TIMESTEP               2
Info: NUMBER OF STEPS        0
Info: STEPS PER CYCLE        10
Info: PERIODIC CELL BASIS 1  29.4125 0 0
Info: PERIODIC CELL BASIS 2  0 32.3846 0
Info: PERIODIC CELL BASIS 3  0 0 31.5991
Info: PERIODIC CELL CENTER   0 0 0
Info: WRAPPING WATERS AROUND PERIODIC BOUNDARIES ON OUTPUT.
Info: WRAPPING ALL CLUSTERS AROUND PERIODIC BOUNDARIES ON OUTPUT.
Info: FIRST LDB TIMESTEP     50
Info: LAST LDB TIMESTEP     -1
Info: HOM BACKGROUND SCALING 1
Info: PME BACKGROUND SCALING 1
Info: MIN ATOMS PER PATCH    40
Info: EMPTY PATCH LOAD       40 ATOMS
Info: VELOCITY FILE          mobley_8765203_equil.vel
Info: CENTER OF MASS MOVING INITIALLY? NO
Info: DIELECTRIC             1
Info: EXCLUDE                SCALED ONE-FOUR
Info: 1-4 ELECTROSTATICS SCALED BY 0.833333
Info: MODIFIED 1-4 VDW PARAMETERS WILL BE USED
Info: DCD FILENAME           mobley_8765203_prod.dcd
Info: DCD FREQUENCY          100000
Info: DCD FIRST STEP         100000
Info: DCD FILE WILL CONTAIN UNIT CELL DATA
Info: XST FILENAME           mobley_8765203_prod.xst
Info: XST FREQUENCY          100000
Info: NO VELOCITY DCD OUTPUT
Info: NO FORCE DCD OUTPUT
Info: OUTPUT FILENAME        mobley_8765203_prod
Info: BINARY OUTPUT FILES WILL BE USED
Info: RESTART FILENAME       mobley_8765203_prod.restart
Info: RESTART FREQUENCY      100000
Info: BINARY RESTART FILES WILL BE USED
Info: CUTOFF                 9
Info: PAIRLIST DISTANCE      11
Info: PAIRLIST SHRINK RATE   0.01
Info: PAIRLIST GROW RATE     0.01
Info: PAIRLIST TRIGGER       0.3
Info: PAIRLISTS PER CYCLE    2
Info: PAIRLISTS ENABLED
Info: MARGIN                 2
Info: HYDROGEN GROUP CUTOFF  2.5
Info: PATCH DIMENSION        15.5
Info: ENERGY OUTPUT STEPS    100000
Info: ENERGY EVALUATION STEPS    100000
Info: OUTPUT ENERGY PRECISION 4
Info: CROSSTERM ENERGY INCLUDED IN DIHEDRAL
Info: TIMING OUTPUT STEPS    1000000
Info: PRESSURE OUTPUT STEPS  100000
Info: ALCHEMICAL FEP ON
Info: FEP CURRENT LAMBDA VALUE     1
Info: FEP COMPARISON LAMBDA VALUE  0.95
Info: FEP INTRA-ALCHEMICAL NON-BONDED INTERACTIONS WILL BE RETAINED
Info: FEP INTRA-ALCHEMICAL BONDED INTERACTIONS WILL BE RETAINED
Info: FEP VDW SHIFTING COEFFICIENT 5
Info: FEP ELEC. ACTIVE FOR ANNIHILATED PARTICLES BETWEEN LAMBDA = 0 AND LAMBDA = 0.5
Info: FEP ELEC. ACTIVE FOR EXNIHILATED PARTICLES BETWEEN LAMBDA = 0.5 AND LAMBDA = 1
Info: FEP VDW ACTIVE FOR ANNIHILATED PARTICLES BETWEEN LAMBDA = 0 AND LAMBDA = 1
Info: FEP VDW ACTIVE FOR EXNIHILATED PARTICLES BETWEEN LAMBDA = 0 AND LAMBDA = 1
Info: FEP BOND ACTIVE FOR ANNIHILATED PARTICLES BETWEEN LAMBDA = 1 AND LAMBDA = 1
Info: FEP BOND ACTIVE FOR EXNIHILATED PARTICLES BETWEEN LAMBDA = 0 AND LAMBDA = 0
Info: LANGEVIN DYNAMICS ACTIVE
Info: LANGEVIN TEMPERATURE   300
Info: LANGEVIN USING BBK INTEGRATOR
Info: LANGEVIN DAMPING COEFFICIENT IS 1 INVERSE PS
Info: LANGEVIN DYNAMICS APPLIED TO HYDROGENS
Info: LANGEVIN PISTON PRESSURE CONTROL ACTIVE
Info:        TARGET PRESSURE IS 1.01325 BAR
Info:     OSCILLATION PERIOD IS 50 FS
Info:             DECAY TIME IS 25 FS
Info:     PISTON TEMPERATURE IS 300 K
Info:       PRESSURE CONTROL IS GROUP-BASED
Info:    INITIAL STRAIN RATE IS 0.000387411 0.000387411 0.000387411
Info:       CELL FLUCTUATION IS ISOTROPIC
Info: PARTICLE MESH EWALD (PME) ACTIVE
Info: PME TOLERANCE               1e-06
Info: PME EWALD COEFFICIENT       0.348832
Info: PME INTERPOLATION ORDER     4
Info: PME GRID DIMENSIONS         32 36 32
Info: PME MAXIMUM GRID SPACING    1
Info: PME CALCULATION WILL BE PERFORMED ON GPU
Info: FULL ELECTROSTATIC EVALUATION FREQUENCY      2
Info: USING VERLET I (r-RESPA) MTS SCHEME.
Info: C1 SPLITTING OF LONG RANGE ELECTROSTATICS
Info: PLACING ATOMS IN PATCHES BY HYDROGEN GROUPS
Info: RIGID BONDS TO HYDROGEN : ALL
Info:         ERROR TOLERANCE : 1e-08
Info:          MAX ITERATIONS : 100
Info: RIGID WATER USING SETTLE ALGORITHM
Info: RANDOM NUMBER SEED     1743732753
Info: USE HYDROGEN BONDS?    NO
Info: Using AMBER format force field!
Info: AMBER PARM FILE        mobley_8765203.prmtop
Info: COORDINATE PDB         mobley_8765203.pdb
Info: Exclusions will be read from PARM file!
Info: SCNB (VDW SCALING)     2
Info: USING ARITHMETIC MEAN TO COMBINE L-J SIGMA PARAMETERS
Info: BINARY COORDINATES     mobley_8765203_equil.coor
Info: SUMMARY OF PARAMETERS:
Info: 8 BONDS
Info: 9 ANGLES
Info:   9 HARMONIC
Info:   0 COSINE-BASED
Info: 5 DIHEDRAL
Info: 0 IMPROPER
Info: 0 CROSSTERM
Info: 0 VDW
Info: 21 VDW_PAIRS
Info: 0 NBTHOLE_PAIRS
Info: To read alchdata from file: mobley_8765203.pdb
Info: To read alchflag data from column: 5
Info: STRUCTURE SUMMARY:
Info: 2902 ATOMS
Info: 2901 BONDS
Info: 18 ANGLES
Info: 28 DIHEDRALS
Info: 0 IMPROPERS
Info: 0 CROSSTERMS
Info: 2937 EXCLUSIONS
Info: 2897 RIGID BONDS
Info: ALCH: 0 ATOMS TO DISAPPEAR IN FINAL STATE
Info: ALCH: 13 ATOMS TO APPEAR IN FINAL STATE
Info: 5809 DEGREES OF FREEDOM
Info: 968 HYDROGEN GROUPS
Info: 4 ATOMS IN LARGEST HYDROGEN GROUP
Info: 968 MIGRATION GROUPS
Info: 4 ATOMS IN LARGEST MIGRATION GROUP
Info: TOTAL MASS = 17417.5 amu
Info: TOTAL CHARGE = 0.000200022 e
Info: MASS DENSITY = 0.96095 g/cm^3
Info: ATOM DENSITY = 0.0964168 atoms/A^3
Info: ADDED 0 IMPLICIT EXCLUSIONS
Info: NONBONDED TABLE R-SQUARED SPACING: 0.0625
Info: NONBONDED TABLE SIZE: 705 POINTS
Info: REMOVING COM VELOCITY -0.0420906 0.150739 -0.0973092
Info: Use 3D box decompostion in PME FFT.
Info: Updated CUDA force table with 4096 elements.
Info: Updated CUDA LJ table with 6 x 6 elements.
Info: Found 16 unique exclusion lists needing 28 bytes
TCL: Running for 1500000 steps
ETITLE: TS BOND ANGLE DIHED IMPRP ELECT VDW BOUNDARY MISC KINETIC TOTAL TEMP POTENTIAL TOTALAVG TEMPAVG PRESSURE GPRESSURE VOLUME PRESSAVG GPRESSAVG
ENERGY: 0 0.8949 2.4012 11.9260 0.0000 -10484.6716 1418.6920 0.0000 0.0000 1700.6948 -7350.0627 294.6561 -9050.7576 -7350.0627 294.6561 -23.8622 64.1097 30098.4895 -23.8622 64.1097
ENERGY: 300000 2.6318 3.4594 10.1471 0.0000 -10432.5451 1375.5047 0.0000 0.0000 1789.1286 -7251.6735 309.9778 -9040.8021 -7319.7535 300.5008 -161.0623 -66.6255 29885.2235 -294.9649 -221.8507
ENERGY: 600000 1.2882 4.8171 11.9132 0.0000 -10450.1951 1372.1220 0.0000 0.0000 1774.0672 -7285.9874 307.3683 -9060.0546 -7325.1508 301.7550 -271.6573 -247.0025 30038.2645 -55.8758 2.7630
ENERGY: 900000 0.8335 5.9096 12.9980 0.0000 -10489.1357 1391.6606 0.0000 0.0000 1759.5250 -7318.2089 304.8488 -9077.7339 -7326.0494 302.9755 -118.0717 -122.0308 29955.3350 4.9371 60.4701
ENERGY: 1200000 1.5193 3.3070 12.5734 0.0000 -10540.1734 1484.2699 0.0000 0.0000 1762.9621 -7275.5417 305.4443 -9038.5038 -7321.9571 303.1837 281.9528 416.2573 30256.6984 14.8923 75.5986
ENERGY: 1500000 1.9424 5.6915 12.8554 0.0000 -10590.3296 1387.1497 0.0000 0.0000 1721.9093 -7460.7813 298.3316 -9182.6906 -7342.2885 301.4729 -312.1825 -165.5860 29473.8369 -27.6245 41.6076
TCL: Running FEP window   2: Lambda1 0.95   Lambda2 0.8999999999999999 [dLambda -0.050000000000000044]
TCL: Setting parameter firsttimestep to 0
TCL: Setting parameter alchLambda to 0.95
Info: NONBONDED TABLE R-SQUARED SPACING: 0.0625
Info: NONBONDED TABLE SIZE: 705 POINTS
TCL: Setting parameter alchLambda2 to 0.8999999999999999
Info: NONBONDED TABLE R-SQUARED SPACING: 0.0625
Info: NONBONDED TABLE SIZE: 705 POINTS
TCL: Running for 1500000 steps
ETITLE: TS BOND ANGLE DIHED IMPRP ELECT VDW BOUNDARY MISC KINETIC TOTAL TEMP POTENTIAL TOTALAVG TEMPAVG PRESSURE GPRESSURE VOLUME PRESSAVG GPRESSAVG
ENERGY: 0 1.9424 5.6915 12.8554 0.0000 -10590.1953 1387.1256 0.0000 0.0000 1721.0432 -7461.5372 298.1816 -9182.5803 -7461.5372 298.1816 -266.4068 -175.0744 29473.8369 -266.4068 -175.0744
ENERGY: 300000 1.0490 3.5501 11.4059 0.0000 -10596.6331 1453.5943 0.0000 0.0000 1793.7945 -7333.2394 310.7862 -9127.0339 -7391.4209 299.7379 278.1641 358.5511 29870.1511 -168.1780 -117.9838
ENERGY: 600000 2.8169 6.8053 9.6393 0.0000 -10630.2535 1513.1188 0.0000 0.0000 1723.4815 -7374.3917 298.6040 -9097.8732 -7398.8889 298.4798 667.5486 698.8982 30042.3439 -115.3269 -58.7046
ENERGY: 900000 0.4658 4.8954 12.3643 0.0000 -10410.6196 1351.3511 0.0000 0.0000 1746.3201 -7295.2230 302.5609 -9041.5430 -7372.4765 300.8760 -184.9059 -119.5174 29767.8219 -108.4938 -45.8544
ENERGY: 1200000 4.7168 4.9094 10.6586 0.0000 -10456.7172 1358.5238 0.0000 0.0000 1785.4180 -7292.4906 309.3349 -9077.9085 -7351.7536 301.5061 -631.5925 -585.0011 30224.7778 -136.5058 -74.4778
ENERGY: 1500000 1.6406 3.3976 12.3957 0.0000 -10553.9026 1439.7665 0.0000 0.0000 1764.8626 -7331.8396 305.7735 -9096.7022 -7351.2222 301.0418 73.2177 182.0053 29920.9572 -132.4159 -65.3943
TCL: Running FEP window   3: Lambda1 0.8999999999999999 Lambda2 0.8499999999999999 [dLambda -0.050000000000000044]
TCL: Setting parameter firsttimestep to 0
TCL: Setting parameter alchLambda to 0.8999999999999999
Info: NONBONDED TABLE R-SQUARED SPACING: 0.0625
Info: NONBONDED TABLE SIZE: 705 POINTS
TCL: Setting parameter alchLambda2 to 0.8499999999999999
Info: NONBONDED TABLE R-SQUARED SPACING: 0.0625
Info: NONBONDED TABLE SIZE: 705 POINTS
TCL: Running for 1500000 steps
ETITLE: TS BOND ANGLE DIHED IMPRP ELECT VDW BOUNDARY MISC KINETIC TOTAL TEMP POTENTIAL TOTALAVG TEMPAVG PRESSURE GPRESSURE VOLUME PRESSAVG GPRESSAVG
ENERGY: 0 1.6406 3.3976 12.3957 0.0000 -10553.8445 1439.8594 0.0000 0.0000 1763.9721 -7332.5789 305.6193 -9096.5510 -7332.5789 305.6193 88.1986 173.7820 29920.9572 88.1986 173.7820
ENERGY: 300000 1.0185 4.9578 12.6801 0.0000 -10498.8245 1384.0947 0.0000 0.0000 1706.0795 -7389.9939 295.5890 -9096.0734 -7354.8950 302.9902 -316.7371 -325.3720 30050.3621 -47.7322 -3.1342
ENERGY: 600000 1.0155 4.1021 11.5963 0.0000 -10496.5440 1345.8298 0.0000 0.0000 1705.5383 -7428.4620 295.4952 -9134.0002 -7353.9470 302.8420 -798.6340 -755.3148 29984.0961 -224.1121 -182.6127
ENERGY: 900000 0.3458 4.9432 11.6215 0.0000 -10539.7416 1395.9244 0.0000 0.0000 1766.1392 -7360.7675 305.9947 -9126.9068 -7355.7356 301.8204 -463.7897 -334.6328 30198.0201 -106.1818 -42.5662
ENERGY: 1200000 1.4600 4.5833 10.0428 0.0000 -10514.6738 1374.9400 0.0000 0.0000 1723.7945 -7399.8532 298.6582 -9123.6477 -7345.0255 301.1253 -299.0611 -290.2985 29916.1755 -121.6725 -67.6525
ENERGY: 1500000 2.7765 5.4593 12.9780 0.0000 -10595.8824 1442.2190 0.0000 0.0000 1720.0458 -7412.4037 298.0088 -9132.4495 -7357.0647 301.1369 178.1876 179.4313 30117.8069 -146.3285 -92.2549
TCL: Running FEP window   4: Lambda1 0.8499999999999999 Lambda2 0.7999999999999998 [dLambda -0.050000000000000044]
TCL: Setting parameter firsttimestep to 0
TCL: Setting parameter alchLambda to 0.8499999999999999
Info: NONBONDED TABLE R-SQUARED SPACING: 0.0625
Info: NONBONDED TABLE SIZE: 705 POINTS
TCL: Setting parameter alchLambda2 to 0.7999999999999998
Info: NONBONDED TABLE R-SQUARED SPACING: 0.0625
Info: NONBONDED TABLE SIZE: 705 POINTS
TCL: Running for 1500000 steps
ETITLE: TS BOND ANGLE DIHED IMPRP ELECT VDW BOUNDARY MISC KINETIC TOTAL TEMP POTENTIAL TOTALAVG TEMPAVG PRESSURE GPRESSURE VOLUME PRESSAVG GPRESSAVG
ENERGY: 0 2.7765 5.4593 12.9780 0.0000 -10595.7058 1442.4103 0.0000 0.0000 1719.2315 -7412.8500 297.8677 -9132.0816 -7412.8500 297.8677 102.3665 175.2468 30117.8069 102.3665 175.2468
ENERGY: 300000 2.2805 4.4491 11.5599 0.0000 -10627.4884 1452.9724 0.0000 0.0000 1751.1596 -7405.0667 303.3994 -9156.2263 -7438.7783 298.5802 239.7117 325.1070 29651.3347 162.8504 225.8855
ENERGY: 600000 1.4979 4.5833 10.6031 0.0000 -10472.8884 1428.5073 0.0000 0.0000 1744.8911 -7282.8057 302.3134 -9027.6968 -7411.4290 298.7458 93.2389 285.8854 29938.4740 150.8815 228.0736
ENERGY: 900000 1.0238 3.5524 10.9126 0.0000 -10629.6510 1465.6721 0.0000 0.0000 1747.7589 -7400.7313 302.8102 -9148.4902 -7388.3315 300.8132 96.9624 164.0748 30018.3120 123.4350 188.5100
ENERGY: 1200000 1.8088 7.2335 12.5000 0.0000 -10404.0506 1401.9166 0.0000 0.0000 1771.6294 -7208.9625 306.9459 -8980.5918 -7369.3197 300.3258 -87.4386 -50.1334 30706.9137 161.0517 224.7462
ENERGY: 1500000 2.1844 1.7084 11.3563 0.0000 -10602.8608 1449.9722 0.0000 0.0000 1777.7800 -7359.8596 308.0116 -9137.6395 -7366.7742 301.2373 193.4648 210.1084 29765.0630 154.4553 216.0161
TCL: Running FEP window   5: Lambda1 0.7999999999999998 Lambda2 0.7499999999999998 [dLambda -0.050000000000000044]
TCL: Setting parameter firsttimestep to 0
TCL: Setting parameter alchLambda to 0.7999999999999998
Info: NONBONDED TABLE R-SQUARED SPACING: 0.0625
Info: NONBONDED TABLE SIZE: 705 POINTS
TCL: Setting parameter alchLambda2 to 0.7499999999999998
Info: NONBONDED TABLE R-SQUARED SPACING: 0.0625
Info: NONBONDED TABLE SIZE: 705 POINTS
TCL: Running for 1500000 steps
ETITLE: TS BOND ANGLE DIHED IMPRP ELECT VDW BOUNDARY MISC KINETIC TOTAL TEMP POTENTIAL TOTALAVG TEMPAVG PRESSURE GPRESSURE VOLUME PRESSAVG GPRESSAVG
ENERGY: 0 2.1844 1.7084 11.3563 0.0000 -10602.3557 1450.3577 0.0000 0.0000 1776.9119 -7359.8370 307.8612 -9136.7489 -7359.8370 307.8612 123.8971 208.8769 29765.0630 123.8971 208.8769
ENERGY: 300000 1.4457 7.1684 10.0780 0.0000 -10442.0554 1392.0341 0.0000 0.0000 1725.0255 -7306.3037 298.8715 -9031.3291 -7335.4081 299.2424 157.5198 194.4163 29647.3584 3.4114 73.4923
ENERGY: 600000 0.3460 7.3856 13.0655 0.0000 -10560.9876 1484.2872 0.0000 0.0000 1703.4297 -7352.4737 295.1299 -9055.9034 -7340.9773 300.2496 439.7690 469.5215 30297.6134 -28.9034 27.4437
ENERGY: 900000 0.1979 3.3820 12.4896 0.0000 -10585.3479 1486.6469 0.0000 0.0000 1776.3841 -7306.2475 307.7697 -9082.6316 -7345.4774 301.0621 586.9703 624.7448 29905.6893 53.1664 96.9545
ENERGY: 1200000 0.8305 6.9479 11.0142 0.0000 -10431.3774 1359.8714 0.0000 0.0000 1751.3859 -7301.3275 303.4386 -9052.7134 -7350.6673 299.9577 -325.5211 -242.6252 30021.5606 -23.5983 21.8802
ENERGY: 1500000 0.6895 6.3905 10.7140 0.0000 -10533.4926 1422.2434 0.0000 0.0000 1768.0040 -7325.4512 306.3178 -9093.4552 -7341.8597 300.2655 -14.1065 84.8534 29970.9293 10.8643 57.6024
TCL: Running FEP window   6: Lambda1 0.7499999999999998 Lambda2 0.6999999999999997 [dLambda -0.050000000000000044]
TCL: Setting parameter firsttimestep to 0
TCL: Setting parameter alchLambda to 0.7499999999999998
Info: NONBONDED TABLE R-SQUARED SPACING: 0.0625
Info: NONBONDED TABLE SIZE: 705 POINTS
TCL: Setting parameter alchLambda2 to 0.6999999999999997
Info: NONBONDED TABLE R-SQUARED SPACING: 0.0625
Info: NONBONDED TABLE SIZE: 705 POINTS
TCL: Running for 1500000 steps
ETITLE: TS BOND ANGLE DIHED IMPRP ELECT VDW BOUNDARY MISC KINETIC TOTAL TEMP POTENTIAL TOTALAVG TEMPAVG PRESSURE GPRESSURE VOLUME PRESSAVG GPRESSAVG
ENERGY: 0 0.6895 6.3905 10.7140 0.0000 -10533.4044 1421.9727 0.0000 0.0000 1767.1013 -7326.5364 306.1614 -9093.6377 -7326.5364 306.1614 -15.2986 73.5375 29970.9293 -15.2986 73.5375
ENERGY: 300000 0.4996 3.2427 13.4297 0.0000 -10477.6390 1412.0489 0.0000 0.0000 1751.5408 -7296.8772 303.4655 -9048.4181 -7340.3085 303.1407 196.9646 248.9602 29766.8296 17.1864 54.9194
ENERGY: 600000 2.2763 3.5879 11.0631 0.0000 -10535.3169 1429.1838 0.0000 0.0000 1743.2853 -7345.9205 302.0351 -9089.2057 -7339.1251 302.9013 26.5458 27.2587 30236.0862 107.6193 145.7240
ENERGY: 900000 0.8365 3.0825 15.0596 0.0000 -10490.2319 1361.2922 0.0000 0.0000 1737.9875 -7371.9736 301.1173 -9109.9611 -7335.5520 302.5230 -345.1377 -307.2390 29751.8534 22.3504 58.7800
ENERGY: 1200000 0.7603 4.1656 9.8540 0.0000 -10596.4167 1472.7177 0.0000 0.0000 1766.4382 -7342.4809 306.0465 -9108.9191 -7344.6794 301.6547 583.5045 685.6947 29555.9905 87.8026 131.8594
ENERGY: 1500000 0.6005 7.2808 11.5837 0.0000 -10625.9376 1516.9951 0.0000 0.0000 1753.1579 -7336.3195 303.7456 -9089.4774 -7351.8613 301.0438 1144.3173 1196.6699 29186.7422 118.2571 159.9479
TCL: Running FEP window   7: Lambda1 0.6999999999999997 Lambda2 0.6499999999999997 [dLambda -0.050000000000000044]
TCL: Setting parameter firsttimestep to 0
TCL: Setting parameter alchLambda to 0.6999999999999997
Info: NONBONDED TABLE R-SQUARED SPACING: 0.0625
Info: NONBONDED TABLE SIZE: 705 POINTS
TCL: Setting parameter alchLambda2 to 0.6499999999999997
Info: NONBONDED TABLE R-SQUARED SPACING: 0.0625
Info: NONBONDED TABLE SIZE: 705 POINTS
TCL: Running for 1500000 steps
ETITLE: TS BOND ANGLE DIHED IMPRP ELECT VDW BOUNDARY MISC KINETIC TOTAL TEMP POTENTIAL TOTALAVG TEMPAVG PRESSURE GPRESSURE VOLUME PRESSAVG GPRESSAVG
ENERGY: 0 0.6005 7.2808 11.5837 0.0000 -10625.7101 1517.0901 0.0000 0.0000 1752.2815 -7336.8735 303.5938 -9089.1550 -7336.8735 303.5938 1109.9686 1193.0347 29186.7422 1109.9686 1193.0347
ENERGY: 300000 0.7938 4.5054 10.2224 0.0000 -10477.3703 1377.9443 0.0000 0.0000 1756.9947 -7326.9098 304.4104 -9083.9044 -7332.1570 304.3217 -351.4402 -297.7501 30316.9556 189.3065 241.0548
ENERGY: 600000 0.6585 3.3493 9.6735 0.0000 -10642.6113 1492.5584 0.0000 0.0000 1725.1911 -7411.1806 298.9002 -9136.3717 -7353.4966 302.9824 510.2116 531.9950 29839.1694 116.7485 177.4781
ENERGY: 900000 0.2250 4.7141 9.9604 0.0000 -10417.4176 1315.3071 0.0000 0.0000 1725.2553 -7361.9557 298.9113 -9087.2110 -7360.5906 301.6978 -595.5169 -505.9339 29500.8244 4.8228 78.1796
ENERGY: 1200000 0.7659 8.4926 11.9089 0.0000 -10516.1251 1542.6293 0.0000 0.0000 1717.0831 -7235.2453 297.4954 -8952.3284 -7352.2698 300.4723 1149.6115 1211.2575 30179.7832 132.3156 201.7241
ENERGY: 1500000 0.4345 3.4581 12.6027 0.0000 -10502.5350 1351.3511 0.0000 0.0000 1752.2730 -7382.4155 303.5923 -9134.6886 -7361.4750 300.4304 -716.5969 -657.6667 29866.4105 78.9155 140.3656
TCL: Running FEP window   8: Lambda1 0.6499999999999997 Lambda2 0.5999999999999996 [dLambda -0.050000000000000044]
TCL: Setting parameter firsttimestep to 0
TCL: Setting parameter alchLambda to 0.6499999999999997
Info: NONBONDED TABLE R-SQUARED SPACING: 0.0625
Info: NONBONDED TABLE SIZE: 705 POINTS
TCL: Setting parameter alchLambda2 to 0.5999999999999996
Info: NONBONDED TABLE R-SQUARED SPACING: 0.0625
Info: NONBONDED TABLE SIZE: 705 POINTS
TCL: Running for 1500000 steps
ETITLE: TS BOND ANGLE DIHED IMPRP ELECT VDW BOUNDARY MISC KINETIC TOTAL TEMP POTENTIAL TOTALAVG TEMPAVG PRESSURE GPRESSURE VOLUME PRESSAVG GPRESSAVG
ENERGY: 0 0.4345 3.4581 12.6027 0.0000 -10502.1341 1351.5053 0.0000 0.0000 1751.3748 -7382.7587 303.4367 -9134.1335 -7382.7587 303.4367 -729.5968 -661.5270 29866.4105 -729.5968 -661.5270
ENERGY: 300000 1.5561 5.9630 12.7461 0.0000 -10541.8429 1421.2754 0.0000 0.0000 1725.9606 -7374.3416 299.0335 -9100.3022 -7367.3770 303.3249 -224.3301 -167.7669 29892.6757 -189.0695 -153.6489
ENERGY: 600000 1.7915 4.0042 12.0735 0.0000 -10628.3164 1468.7505 0.0000 0.0000 1768.0503 -7373.6462 306.3258 -9141.6966 -7367.7543 302.5867 447.0560 537.7794 29328.8047 -232.1252 -182.6255
ENERGY: 900000 0.3729 5.1400 11.8054 0.0000 -10590.2345 1442.8239 0.0000 0.0000 1744.6585 -7385.4338 302.2731 -9130.0922 -7372.5575 301.5589 446.8291 490.8528 29427.4297 -192.9884 -138.1298
ENERGY: 1200000 2.1199 7.0103 10.9289 0.0000 -10496.2377 1419.4376 0.0000 0.0000 1707.6920 -7349.0490 295.8684 -9056.7410 -7362.8317 300.6845 -193.6367 -108.3139 30232.9242 -196.5129 -138.3875
ENERGY: 1500000 0.1375 2.4325 12.4009 0.0000 -10601.7523 1436.9242 0.0000 0.0000 1761.1212 -7388.7361 305.1253 -9149.8573 -7361.4495 300.9449 199.2021 306.0481 29425.1059 -151.2562 -85.8518
TCL: Running FEP window   9: Lambda1 0.5999999999999996 Lambda2 0.5499999999999996 [dLambda -0.050000000000000044]
TCL: Setting parameter firsttimestep to 0
TCL: Setting parameter alchLambda to 0.5999999999999996
Info: NONBONDED TABLE R-SQUARED SPACING: 0.0625
Info: NONBONDED TABLE SIZE: 705 POINTS
TCL: Setting parameter alchLambda2 to 0.5499999999999996
Info: NONBONDED TABLE R-SQUARED SPACING: 0.0625
Info: NONBONDED TABLE SIZE: 705 POINTS
TCL: Running for 1500000 steps
ETITLE: TS BOND ANGLE DIHED IMPRP ELECT VDW BOUNDARY MISC KINETIC TOTAL TEMP POTENTIAL TOTALAVG TEMPAVG PRESSURE GPRESSURE VOLUME PRESSAVG GPRESSAVG
ENERGY: 0 0.1375 2.4325 12.4009 0.0000 -10601.6270 1436.9028 0.0000 0.0000 1760.2520 -7389.5014 304.9747 -9149.7533 -7389.5014 304.9747 214.8809 299.2995 29425.1059 214.8809 299.2995
ENERGY: 300000 0.7169 5.2916 11.0126 0.0000 -10637.5192 1516.1228 0.0000 0.0000 1738.2242 -7366.1512 301.1583 -9104.3753 -7374.4247 305.5530 1014.0520 1057.6850 29444.4711 411.4698 474.6218
ENERGY: 600000 1.2777 3.3264 12.7313 0.0000 -10583.9256 1407.0865 0.0000 0.0000 1699.0403 -7460.4634 294.3694 -9159.5037 -7379.9364 302.5293 -159.1607 -110.3522 29509.7661 177.8105 234.3785
ENERGY: 900000 0.9529 3.5920 10.0135 0.0000 -10629.7193 1451.2094 0.0000 0.0000 1735.6891 -7428.2622 300.7191 -9163.9514 -7390.3645 301.3728 144.7555 144.6359 29462.6932 158.4345 211.7921
ENERGY: 1200000 0.3904 3.0177 13.7551 0.0000 -10439.9704 1351.9128 0.0000 0.0000 1777.3997 -7293.4947 307.9457 -9070.8944 -7377.1345 301.0421 -349.2703 -275.2793 29821.4399 71.0954 131.9271
ENERGY: 1500000 0.9993 3.7919 14.6705 0.0000 -10493.8434 1452.7144 0.0000 0.0000 1776.8463 -7244.8209 307.8498 -9021.6672 -7364.2893 301.8856 521.5029 494.4905 29883.6681 94.4389 149.5958
TCL: Running FEP window  10: Lambda1 0.5499999999999996 Lambda2 0.4999999999999996 [dLambda -0.04999999999999999]
TCL: Setting parameter firsttimestep to 0
TCL: Setting parameter alchLambda to 0.5499999999999996
Info: NONBONDED TABLE R-SQUARED SPACING: 0.0625
Info: NONBONDED TABLE SIZE: 705 POINTS
TCL: Setting parameter alchLambda2 to 0.4999999999999996
Info: NONBONDED TABLE R-SQUARED SPACING: 0.0625
Info: NONBONDED TABLE SIZE: 705 POINTS
TCL: Running for 1500000 steps
ETITLE: TS BOND ANGLE DIHED IMPRP ELECT VDW BOUNDARY MISC KINETIC TOTAL TEMP POTENTIAL TOTALAVG TEMPAVG PRESSURE GPRESSURE VOLUME PRESSAVG GPRESSAVG
ENERGY: 0 0.9993 3.7919 14.6705 0.0000 -10494.1317 1452.8909 0.0000 0.0000 1776.0077 -7245.7714 307.7045 -9021.7791 -7245.7714 307.7045 423.8021 490.8472 29883.6681 423.8021 490.8472
ENERGY: 300000 1.3553 5.5617 12.8284 0.0000 -10494.7199 1394.9167 0.0000 0.0000 1759.2679 -7320.7900 304.8042 -9080.0579 -7290.7518 305.0431 -252.1608 -186.1073 29940.4005 213.6366 283.7088
ENERGY: 600000 1.1411 5.2549 11.5992 0.0000 -10737.4672 1562.0729 0.0000 0.0000 1715.1262 -7442.2729 297.1564 -9157.3991 -7319.1509 303.0918 1048.0186 1099.2242 29603.0555 225.3390 296.3441
ENERGY: 900000 1.0246 3.0702 11.1861 0.0000 -10476.8722 1345.8153 0.0000 0.0000 1734.1178 -7381.6583 300.4468 -9115.7761 -7347.9428 302.0633 -958.4409 -895.9630 30356.8142 2.2461 64.9585
ENERGY: 1200000 1.1531 4.4714 10.8263 0.0000 -10587.8808 1399.3585 0.0000 0.0000 1733.2059 -7438.8656 300.2888 -9172.0715 -7354.0401 301.1815 -403.9476 -330.5667 29571.3912 2.5812 69.4865
ENERGY: 1500000 1.3535 3.6545 10.5921 0.0000 -10559.6151 1475.1152 0.0000 0.0000 1716.3571 -7352.5428 297.3697 -9068.8999 -7345.8842 301.1334 539.2469 681.0810 29548.1084 84.5342 151.8118
TCL: Running FEP window  11: Lambda1 0.4999999999999996 Lambda2 0.4499999999999996 [dLambda -0.04999999999999999]
TCL: Setting parameter firsttimestep to 0
TCL: Setting parameter alchLambda to 0.4999999999999996
Info: NONBONDED TABLE R-SQUARED SPACING: 0.0625
Info: NONBONDED TABLE SIZE: 705 POINTS
TCL: Setting parameter alchLambda2 to 0.4499999999999996
Info: NONBONDED TABLE R-SQUARED SPACING: 0.0625
Info: NONBONDED TABLE SIZE: 705 POINTS
TCL: Running for 1500000 steps
ETITLE: TS BOND ANGLE DIHED IMPRP ELECT VDW BOUNDARY MISC KINETIC TOTAL TEMP POTENTIAL TOTALAVG TEMPAVG PRESSURE GPRESSURE VOLUME PRESSAVG GPRESSAVG
ENERGY: 0 1.3535 3.6545 10.5921 0.0000 -10559.4914 1474.8121 0.0000 0.0000 1715.4763 -7353.6029 297.2171 -9069.0792 -7353.6029 297.2171 599.9310 676.4932 29548.1084 599.9310 676.4932
ENERGY: 300000 1.7147 1.9257 10.5107 0.0000 -10569.4263 1398.0046 0.0000 0.0000 1659.6852 -7497.5855 287.5509 -9157.2707 -7384.3517 299.7199 -278.4953 -211.9987 29540.6220 182.4398 231.1146
ENERGY: 600000 0.4057 4.9043 11.7701 0.0000 -10442.8578 1394.7133 0.0000 0.0000 1724.2687 -7306.7957 298.7404 -9031.0644 -7361.1063 299.1390 -71.2038 33.1196 29909.5151 119.2282 181.3662
ENERGY: 900000 0.7693 4.2106 9.6043 0.0000 -10512.1266 1429.2105 0.0000 0.0000 1723.4806 -7344.8512 298.6039 -9068.3319 -7360.4278 299.5403 72.5447 138.0131 30045.6309 180.1455 237.2105
ENERGY: 1200000 1.2718 6.3083 12.1853 0.0000 -10554.6366 1340.5602 0.0000 0.0000 1734.9581 -7459.3529 300.5924 -9194.3110 -7383.8019 297.8431 -855.3207 -784.6803 29606.1904 6.5908 66.2769
ENERGY: 1500000 1.0611 4.0876 11.4053 0.0000 -10692.1094 1626.8875 0.0000 0.0000 1711.3388 -7337.3292 296.5002 -9048.6679 -7375.6338 297.9506 2104.8645 2064.2327 29458.0356 86.6258 140.8303
TCL: Running FEP window  12: Lambda1 0.4499999999999996 Lambda2 0.39999999999999963 [dLambda -0.04999999999999999]
TCL: Setting parameter firsttimestep to 0
TCL: Setting parameter alchLambda to 0.4499999999999996
Info: NONBONDED TABLE R-SQUARED SPACING: 0.0625
Info: NONBONDED TABLE SIZE: 705 POINTS
TCL: Setting parameter alchLambda2 to 0.39999999999999963
Info: NONBONDED TABLE R-SQUARED SPACING: 0.0625
Info: NONBONDED TABLE SIZE: 705 POINTS
TCL: Running for 1500000 steps
ETITLE: TS BOND ANGLE DIHED IMPRP ELECT VDW BOUNDARY MISC KINETIC TOTAL TEMP POTENTIAL TOTALAVG TEMPAVG PRESSURE GPRESSURE VOLUME PRESSAVG GPRESSAVG
ENERGY: 0 1.0611 4.0876 11.4053 0.0000 -10692.1089 1626.8259 0.0000 0.0000 1710.4530 -7338.2760 296.3467 -9048.7290 -7338.2760 296.3467 1986.7308 2058.8746 29458.0356 1986.7308 2058.8746
ENERGY: 300000 0.2664 4.3599 9.9988 0.0000 -10370.6878 1318.6040 0.0000 0.0000 1702.7237 -7334.7349 295.0076 -9037.4586 -7341.4948 298.0665 -651.1478 -678.1918 30043.5728 181.4392 225.7792
ENERGY: 600000 2.5110 2.5491 11.5557 0.0000 -10529.5442 1461.5496 0.0000 0.0000 1705.6659 -7345.7129 295.5173 -9051.3788 -7371.6710 296.6727 506.6042 564.0784 29585.1540 63.9993 126.1589
ENERGY: 900000 0.7354 2.2766 10.0100 0.0000 -10595.4323 1455.1389 0.0000 0.0000 1784.8253 -7342.4461 309.2322 -9127.2714 -7361.2439 298.2767 13.3412 -31.9376 30648.0168 -49.4299 4.5409
ENERGY: 1200000 1.3308 7.6963 10.0332 0.0000 -10511.7513 1466.6835 0.0000 0.0000 1701.9241 -7324.0835 294.8690 -9026.0075 -7360.6330 297.5857 555.4091 581.4129 29977.6805 41.5370 92.2923
ENERGY: 1500000 0.4746 2.4135 10.0751 0.0000 -10479.0409 1408.9469 0.0000 0.0000 1741.3015 -7315.8294 301.6914 -9057.1309 -7346.2704 299.0230 24.6273 50.4850 29998.4671 70.7965 120.7455
TCL: Running FEP window  13: Lambda1 0.39999999999999963 Lambda2 0.34999999999999964 [dLambda -0.04999999999999999]
TCL: Setting parameter firsttimestep to 0
TCL: Setting parameter alchLambda to 0.39999999999999963
Info: NONBONDED TABLE R-SQUARED SPACING: 0.0625
Info: NONBONDED TABLE SIZE: 705 POINTS
TCL: Setting parameter alchLambda2 to 0.34999999999999964
Info: NONBONDED TABLE R-SQUARED SPACING: 0.0625
Info: NONBONDED TABLE SIZE: 705 POINTS
TCL: Running for 1500000 steps
ETITLE: TS BOND ANGLE DIHED IMPRP ELECT VDW BOUNDARY MISC KINETIC TOTAL TEMP POTENTIAL TOTALAVG TEMPAVG PRESSURE GPRESSURE VOLUME PRESSAVG GPRESSAVG
ENERGY: 0 0.4746 2.4135 10.0751 0.0000 -10479.0422 1409.2617 0.0000 0.0000 1740.4145 -7316.4028 301.5378 -9056.8173 -7316.4028 301.5378 -38.8713 47.1088 29998.4671 -38.8713 47.1088
ENERGY: 300000 0.4517 6.7848 12.8142 0.0000 -10494.6381 1356.8698 0.0000 0.0000 1767.3613 -7350.3564 306.2065 -9117.7177 -7349.3285 299.6081 -261.2967 -242.1460 29277.9793 -213.5012 -151.5770
ENERGY: 600000 2.5738 1.8336 12.9475 0.0000 -10475.5846 1399.9551 0.0000 0.0000 1721.7096 -7336.5651 298.2970 -9058.2746 -7354.2757 298.6426 -114.4523 -101.8266 29914.1229 -8.6542 51.0329
ENERGY: 900000 1.1270 3.7744 12.6300 0.0000 -10447.9835 1332.2541 0.0000 0.0000 1812.2885 -7285.9095 313.9904 -9098.1980 -7353.6332 300.5120 -470.4853 -359.7065 29604.5825 12.1395 64.4169
ENERGY: 1200000 0.9547 5.0356 12.6415 0.0000 -10572.7702 1430.7592 0.0000 0.0000 1704.4863 -7418.8929 295.3130 -9123.3792 -7347.5521 299.8902 25.9152 89.0967 29632.3905 -14.8451 45.8481
ENERGY: 1500000 0.9763 5.8696 12.4724 0.0000 -10504.8588 1455.3798 0.0000 0.0000 1739.0514 -7291.1094 301.3016 -9030.1607 -7342.7176 300.1508 666.2798 642.2615 29649.7526 27.6806 88.5796
TCL: Running FEP window  14: Lambda1 0.34999999999999964 Lambda2 0.29999999999999966 [dLambda -0.04999999999999999]
TCL: Setting parameter firsttimestep to 0
TCL: Setting parameter alchLambda to 0.34999999999999964
Info: NONBONDED TABLE R-SQUARED SPACING: 0.0625
Info: NONBONDED TABLE SIZE: 705 POINTS
TCL: Setting parameter alchLambda2 to 0.29999999999999966
Info: NONBONDED TABLE R-SQUARED SPACING: 0.0625
Info: NONBONDED TABLE SIZE: 705 POINTS
TCL: Running for 1500000 steps
ETITLE: TS BOND ANGLE DIHED IMPRP ELECT VDW BOUNDARY MISC KINETIC TOTAL TEMP POTENTIAL TOTALAVG TEMPAVG PRESSURE GPRESSURE VOLUME PRESSAVG GPRESSAVG
ENERGY: 0 0.9763 5.8696 12.4724 0.0000 -10504.8588 1454.6878 0.0000 0.0000 1738.1914 -7292.6614 301.1526 -9030.8528 -7292.6614 301.1526 553.0055 631.3414 29649.7526 553.0055 631.3414
ENERGY: 300000 1.4192 3.3362 10.6467 0.0000 -10622.0922 1466.9207 0.0000 0.0000 1758.9273 -7380.8421 304.7452 -9139.7694 -7351.8798 301.6359 276.4068 327.6106 29595.8910 178.3853 247.7972
ENERGY: 600000 0.8534 2.9435 11.1555 0.0000 -10547.9451 1435.3204 0.0000 0.0000 1708.3904 -7389.2818 295.9894 -9097.6722 -7343.4638 302.5845 24.4267 81.4093 30091.5768 41.0093 111.3200
ENERGY: 900000 0.7993 2.7755 11.0543 0.0000 -10506.4873 1423.6303 0.0000 0.0000 1770.8903 -7297.3375 306.8179 -9068.2278 -7350.4802 303.8486 25.5512 100.7145 30068.5913 90.0625 159.1107
ENERGY: 1200000 2.0260 4.6338 10.1277 0.0000 -10556.1956 1418.8057 0.0000 0.0000 1730.1827 -7390.4198 299.7650 -9120.6025 -7364.4934 302.6183 -167.4687 -89.3765 29895.4267 20.3378 90.4788
ENERGY: 1500000 3.7409 2.3264 14.1306 0.0000 -10491.4282 1411.1980 0.0000 0.0000 1723.2904 -7336.7419 298.5709 -9060.0323 -7357.6234 301.9939 35.3081 114.5255 29665.0171 -50.5818 17.0055
TCL: Running FEP window  15: Lambda1 0.29999999999999966 Lambda2 0.24999999999999967 [dLambda -0.04999999999999999]
TCL: Setting parameter firsttimestep to 0
TCL: Setting parameter alchLambda to 0.29999999999999966
Info: NONBONDED TABLE R-SQUARED SPACING: 0.0625
Info: NONBONDED TABLE SIZE: 705 POINTS
TCL: Setting parameter alchLambda2 to 0.24999999999999967
Info: NONBONDED TABLE R-SQUARED SPACING: 0.0625
Info: NONBONDED TABLE SIZE: 705 POINTS
TCL: Running for 1500000 steps
ETITLE: TS BOND ANGLE DIHED IMPRP ELECT VDW BOUNDARY MISC KINETIC TOTAL TEMP POTENTIAL TOTALAVG TEMPAVG PRESSURE GPRESSURE VOLUME PRESSAVG GPRESSAVG
ENERGY: 0 3.7409 2.3264 14.1306 0.0000 -10491.4263 1411.6232 0.0000 0.0000 1722.4151 -7337.1901 298.4192 -9059.6052 -7337.1901 298.4192 37.1848 114.2812 29665.0171 37.1848 114.2812
ENERGY: 300000 0.5826 3.8285 12.4996 0.0000 -10567.1101 1450.7832 0.0000 0.0000 1758.9153 -7340.5010 304.7431 -9099.4163 -7322.0168 302.9872 248.4493 270.9114 29789.2613 53.1587 101.9097
ENERGY: 600000 3.9297 2.4286 10.4423 0.0000 -10474.2822 1373.6331 0.0000 0.0000 1745.7200 -7338.1284 302.4570 -9083.8485 -7323.8045 303.2545 -350.3888 -334.1886 29622.5930 -121.4335 -85.4740
ENERGY: 900000 1.0719 2.4661 11.8703 0.0000 -10690.9671 1488.7236 0.0000 0.0000 1729.4095 -7457.4258 299.6311 -9186.8352 -7333.1098 303.7354 278.1976 328.4358 29546.9734 -186.4945 -139.9483
ENERGY: 1200000 1.3062 1.8208 9.8705 0.0000 -10533.1892 1374.8704 0.0000 0.0000 1765.8796 -7379.4416 305.9498 -9145.3213 -7341.0294 304.8802 -462.0593 -331.3613 29674.4439 -282.3940 -220.2913
ENERGY: 1500000 1.4887 2.9549 10.5246 0.0000 -10516.4715 1447.0061 0.0000 0.0000 1731.6605 -7322.8367 300.0211 -9054.4972 -7334.6174 303.9785 413.7387 446.1929 29794.9918 -191.7528 -128.2341
TCL: Running FEP window  16: Lambda1 0.24999999999999967 Lambda2 0.19999999999999968 [dLambda -0.04999999999999999]
TCL: Setting parameter firsttimestep to 0
TCL: Setting parameter alchLambda to 0.24999999999999967
Info: NONBONDED TABLE R-SQUARED SPACING: 0.0625
Info: NONBONDED TABLE SIZE: 705 POINTS
TCL: Setting parameter alchLambda2 to 0.19999999999999968
Info: NONBONDED TABLE R-SQUARED SPACING: 0.0625
Info: NONBONDED TABLE SIZE: 705 POINTS
TCL: Running for 1500000 steps
ETITLE: TS BOND ANGLE DIHED IMPRP ELECT VDW BOUNDARY MISC KINETIC TOTAL TEMP POTENTIAL TOTALAVG TEMPAVG PRESSURE GPRESSURE VOLUME PRESSAVG GPRESSAVG
ENERGY: 0 1.4887 2.9549 10.5246 0.0000 -10516.4715 1447.3794 0.0000 0.0000 1730.7938 -7323.3301 299.8709 -9054.1239 -7323.3301 299.8709 368.2810 446.4873 29794.9918 368.2810 446.4873
ENERGY: 300000 0.2954 4.9690 11.1770 0.0000 -10403.2096 1335.5294 0.0000 0.0000 1723.7112 -7327.5276 298.6438 -9051.2388 -7359.2539 296.1585 -573.4270 -545.3848 29802.2771 -197.9229 -154.6762
ENERGY: 600000 1.4022 3.9744 11.9526 0.0000 -10489.2640 1380.5722 0.0000 0.0000 1743.0856 -7348.2771 302.0005 -9091.3627 -7353.4286 298.1976 -297.4721 -254.3206 30014.3226 -99.2251 -50.2357
ENERGY: 900000 0.2442 4.6446 11.0303 0.0000 -10522.0673 1444.9510 0.0000 0.0000 1795.0249 -7266.1724 310.9993 -9061.1973 -7345.6336 299.3479 323.4908 311.0188 29922.4796 -157.9028 -114.0084
ENERGY: 1200000 0.8032 4.8248 11.1821 0.0000 -10627.9224 1498.6862 0.0000 0.0000 1701.8244 -7410.6016 294.8518 -9112.4260 -7353.6560 299.6166 423.8404 549.1148 29718.5153 -106.0462 -50.8623
ENERGY: 1500000 0.5196 3.1187 9.4568 0.0000 -10456.6327 1371.8986 0.0000 0.0000 1733.3303 -7338.3087 300.3104 -9071.6390 -7359.9680 299.2286 -239.1375 -137.2089 29381.7520 -148.1141 -93.3957
TCL: Running FEP window  17: Lambda1 0.19999999999999968 Lambda2 0.1499999999999997 [dLambda -0.04999999999999999]
TCL: Setting parameter firsttimestep to 0
TCL: Setting parameter alchLambda to 0.19999999999999968
Info: NONBONDED TABLE R-SQUARED SPACING: 0.0625
Info: NONBONDED TABLE SIZE: 705 POINTS
TCL: Setting parameter alchLambda2 to 0.1499999999999997
Info: NONBONDED TABLE R-SQUARED SPACING: 0.0625
Info: NONBONDED TABLE SIZE: 705 POINTS
TCL: Running for 1500000 steps
ETITLE: TS BOND ANGLE DIHED IMPRP ELECT VDW BOUNDARY MISC KINETIC TOTAL TEMP POTENTIAL TOTALAVG TEMPAVG PRESSURE GPRESSURE VOLUME PRESSAVG GPRESSAVG
ENERGY: 0 0.5196 3.1187 9.4568 0.0000 -10456.6337 1371.9083 0.0000 0.0000 1732.4820 -7339.1483 300.1634 -9071.6303 -7339.1483 300.1634 -247.8798 -142.3860 29381.7520 -247.8798 -142.3860
ENERGY: 300000 1.0266 4.1680 10.1773 0.0000 -10384.6689 1341.0679 0.0000 0.0000 1735.5637 -7292.6653 300.6973 -9028.2291 -7307.2951 300.3953 -473.2194 -378.9416 30037.9545 -566.8522 -473.1216
ENERGY: 600000 2.3329 3.0121 12.3932 0.0000 -10420.3139 1318.8056 0.0000 0.0000 1742.1817 -7341.5884 301.8439 -9083.7701 -7336.1146 299.6444 -974.8730 -949.3090 30250.8647 -633.6999 -560.5757
ENERGY: 900000 3.4773 2.5131 10.0934 0.0000 -10586.7163 1495.8787 0.0000 0.0000 1780.7777 -7293.9760 308.5309 -9074.7537 -7341.3568 300.2773 561.8839 555.4552 29741.6483 -425.7851 -361.7465
ENERGY: 1200000 2.1796 4.3375 13.1316 0.0000 -10631.3777 1502.5308 0.0000 0.0000 1714.6839 -7394.5143 297.0798 -9109.1982 -7349.3670 299.9310 732.2692 793.8164 29403.8621 -313.9770 -254.0255
ENERGY: 1500000 0.6377 3.7616 15.2535 0.0000 -10478.1706 1395.3558 0.0000 0.0000 1776.8825 -7286.2795 307.8561 -9063.1619 -7348.9901 300.2839 -61.9591 -59.0185 29702.5024 -219.0744 -163.8694
TCL: Running FEP window  18: Lambda1 0.1499999999999997 Lambda2 0.09999999999999969 [dLambda -0.05 ]
TCL: Setting parameter firsttimestep to 0
TCL: Setting parameter alchLambda to 0.1499999999999997
Info: NONBONDED TABLE R-SQUARED SPACING: 0.0625
Info: NONBONDED TABLE SIZE: 705 POINTS
TCL: Setting parameter alchLambda2 to 0.09999999999999969
Info: NONBONDED TABLE R-SQUARED SPACING: 0.0625
Info: NONBONDED TABLE SIZE: 705 POINTS
TCL: Running for 1500000 steps
ETITLE: TS BOND ANGLE DIHED IMPRP ELECT VDW BOUNDARY MISC KINETIC TOTAL TEMP POTENTIAL TOTALAVG TEMPAVG PRESSURE GPRESSURE VOLUME PRESSAVG GPRESSAVG
ENERGY: 0 0.6377 3.7616 15.2535 0.0000 -10478.1695 1395.1254 0.0000 0.0000 1776.0202 -7287.3711 307.7067 -9063.3913 -7287.3711 307.7067 -152.4613 -61.5975 29702.5024 -152.4613 -61.5975
ENERGY: 300000 1.3036 3.9939 11.0512 0.0000 -10542.4480 1474.5667 0.0000 0.0000 1758.4661 -7293.0666 304.6653 -9051.5327 -7338.4909 303.0163 408.8656 451.7632 30155.5323 234.0542 300.9417
ENERGY: 600000 1.6791 2.6654 10.9985 0.0000 -10485.0698 1404.5258 0.0000 0.0000 1809.4377 -7255.7632 313.4965 -9065.2010 -7331.3495 303.5379 62.0700 204.2134 29373.9805 45.3630 121.9936
ENERGY: 900000 0.4141 4.0152 11.8748 0.0000 -10503.8447 1388.6664 0.0000 0.0000 1729.6553 -7369.2190 299.6737 -9098.8743 -7332.8054 303.7876 -217.7421 -174.1515 29515.6037 56.3969 127.2473
ENERGY: 1200000 2.3533 5.3268 11.1602 0.0000 -10410.2509 1411.3878 0.0000 0.0000 1708.1770 -7271.8458 295.9524 -8980.0227 -7335.2705 302.5962 46.5223 63.9485 30201.8114 8.8494 72.2807
ENERGY: 1500000 1.0498 3.9066 13.8743 0.0000 -10467.7192 1407.8583 0.0000 0.0000 1692.4565 -7348.5736 293.2287 -9041.0301 -7330.4002 301.9736 295.3523 342.7387 29439.2190 69.1833 132.8009
TCL: Running FEP window  19: Lambda1 0.09999999999999969 Lambda2 0.049999999999999684 [dLambda -0.05 ]
TCL: Setting parameter firsttimestep to 0
TCL: Setting parameter alchLambda to 0.09999999999999969
Info: NONBONDED TABLE R-SQUARED SPACING: 0.0625
Info: NONBONDED TABLE SIZE: 705 POINTS
TCL: Setting parameter alchLambda2 to 0.049999999999999684
Info: NONBONDED TABLE R-SQUARED SPACING: 0.0625
Info: NONBONDED TABLE SIZE: 705 POINTS
TCL: Running for 1500000 steps
ETITLE: TS BOND ANGLE DIHED IMPRP ELECT VDW BOUNDARY MISC KINETIC TOTAL TEMP POTENTIAL TOTALAVG TEMPAVG PRESSURE GPRESSURE VOLUME PRESSAVG GPRESSAVG
ENERGY: 0 1.0498 3.9066 13.8743 0.0000 -10467.7201 1407.0006 0.0000 0.0000 1691.6012 -7350.2876 293.0805 -9041.8888 -7350.2876 293.0805 258.1705 334.4089 29439.2190 258.1705 334.4089
ENERGY: 300000 3.0991 2.6553 11.9026 0.0000 -10437.9290 1314.2161 0.0000 0.0000 1751.5321 -7354.5238 303.4639 -9106.0558 -7356.3576 300.4673 -602.6372 -556.6734 29660.7630 -288.0288 -238.8249
ENERGY: 600000 1.6983 5.8317 10.6704 0.0000 -10537.3476 1448.6579 0.0000 0.0000 1702.1568 -7368.3326 294.9094 -9070.4894 -7348.2285 300.2749 383.6205 474.9907 29610.9470 -116.7115 -52.9166
ENERGY: 900000 1.6597 2.7106 10.3030 0.0000 -10475.4166 1393.8422 0.0000 0.0000 1730.8325 -7336.0687 299.8776 -9066.9011 -7346.0342 299.3529 -36.3694 -32.1002 29931.9199 -40.3912 15.2726
ENERGY: 1200000 1.9351 3.8724 11.3618 0.0000 -10483.4395 1421.3846 0.0000 0.0000 1739.5326 -7305.3529 301.3850 -9044.8856 -7346.4769 300.1673 -17.3818 122.9495 29942.1601 -33.6589 31.9180
ENERGY: 1500000 1.5621 5.6321 10.9060 0.0000 -10542.5188 1452.8303 0.0000 0.0000 1713.9724 -7357.6160 296.9565 -9071.5884 -7355.7697 299.2220 -46.2556 96.7549 29918.2588 -43.3555 27.4498
TCL: Running FEP window  20: Lambda1 0.049999999999999684 Lambda2 0.0    [dLambda -0.049999999999999684]
TCL: Setting parameter firsttimestep to 0
TCL: Setting parameter alchLambda to 0.049999999999999684
Info: NONBONDED TABLE R-SQUARED SPACING: 0.0625
Info: NONBONDED TABLE SIZE: 705 POINTS
TCL: Setting parameter alchLambda2 to 0.0
Info: NONBONDED TABLE R-SQUARED SPACING: 0.0625
Info: NONBONDED TABLE SIZE: 705 POINTS
TCL: Running for 1500000 steps
ETITLE: TS BOND ANGLE DIHED IMPRP ELECT VDW BOUNDARY MISC KINETIC TOTAL TEMP POTENTIAL TOTALAVG TEMPAVG PRESSURE GPRESSURE VOLUME PRESSAVG GPRESSAVG
ENERGY: 0 1.5621 5.6321 10.9060 0.0000 -10542.5195 1453.1574 0.0000 0.0000 1713.1161 -7358.1458 296.8081 -9071.2619 -7358.1458 296.8081 0.3305 96.1903 29918.2588 0.3305 96.1903
ENERGY: 300000 0.1703 6.0842 10.6984 0.0000 -10593.7615 1481.0309 0.0000 0.0000 1741.5502 -7354.2275 301.7345 -9095.7776 -7383.8672 296.1890 406.4660 470.3402 29780.2847 -211.4217 -163.7487
ENERGY: 600000 1.7444 2.2102 11.4002 0.0000 -10555.5589 1398.4160 0.0000 0.0000 1706.6495 -7435.1385 295.6878 -9141.7881 -7378.9718 296.7536 -377.2720 -353.7734 29826.8913 -225.8491 -181.0535
ENERGY: 900000 1.5894 4.4970 11.2808 0.0000 -10484.5428 1391.5731 0.0000 0.0000 1719.1141 -7356.4883 297.8473 -9075.6025 -7369.5562 296.5942 164.3587 242.9056 29308.1680 -166.0166 -110.0900
ENERGY: 1200000 0.3708 1.5634 11.1330 0.0000 -10638.6843 1477.7497 0.0000 0.0000 1676.2835 -7471.5839 290.4267 -9147.8674 -7382.9912 296.4446 303.6973 402.5770 29780.8221 -77.5963 -19.2961
ENERGY: 1500000 1.4708 2.2670 10.0716 0.0000 -10489.0647 1393.7055 0.0000 0.0000 1704.2117 -7377.3380 295.2654 -9081.5497 -7383.3132 296.2770 -627.5650 -515.8221 30301.0599 -123.1695 -58.2668
TCL: Exiting due to exit command.
