Info: SIMULATION PARAMETERS:
Info: TIMESTEP               2
Info: NUMBER OF STEPS        0
Info: STEPS PER CYCLE        10
Info: PERIODIC CELL BASIS 1  31.9644 0 0
Info: PERIODIC CELL BASIS 2  0 31.8412 0
Info: PERIODIC CELL BASIS 3  0 0 29.9002
Info: PERIODIC CELL CENTER   0 0 0
Info: WRAPPING WATERS AROUND PERIODIC BOUNDARIES ON OUTPUT.
Info: WRAPPING ALL CLUSTERS AROUND PERIODIC BOUNDARIES ON OUTPUT.
Info: FIRST LDB TIMESTEP     50
Info: LAST LDB TIMESTEP     -1
Info: HOM BACKGROUND SCALING 1
Info: PME BACKGROUND SCALING 1
Info: MIN ATOMS PER PATCH    40
Info: EMPTY PATCH LOAD       40 ATOMS
Info: VELOCITY FILE          mobley_8492526_equil.vel
Info: CENTER OF MASS MOVING INITIALLY? NO
Info: DIELECTRIC             1
Info: EXCLUDE                SCALED ONE-FOUR
Info: 1-4 ELECTROSTATICS SCALED BY 0.833333
Info: MODIFIED 1-4 VDW PARAMETERS WILL BE USED
Info: DCD FILENAME           mobley_8492526_prod.dcd
Info: DCD FREQUENCY          100000
Info: DCD FIRST STEP         100000
Info: DCD FILE WILL CONTAIN UNIT CELL DATA
Info: XST FILENAME           mobley_8492526_prod.xst
Info: XST FREQUENCY          100000
Info: NO VELOCITY DCD OUTPUT
Info: NO FORCE DCD OUTPUT
Info: OUTPUT FILENAME        mobley_8492526_prod
Info: BINARY OUTPUT FILES WILL BE USED
Info: RESTART FILENAME       mobley_8492526_prod.restart
Info: RESTART FREQUENCY      100000
Info: BINARY RESTART FILES WILL BE USED
Info: CUTOFF                 9
Info: PAIRLIST DISTANCE      11
Info: PAIRLIST SHRINK RATE   0.01
Info: PAIRLIST GROW RATE     0.01
Info: PAIRLIST TRIGGER       0.3
Info: PAIRLISTS PER CYCLE    2
Info: PAIRLISTS ENABLED
Info: MARGIN                 2
Info: HYDROGEN GROUP CUTOFF  2.5
Info: PATCH DIMENSION        15.5
Info: ENERGY OUTPUT STEPS    100000
Info: ENERGY EVALUATION STEPS    100000
Info: OUTPUT ENERGY PRECISION 4
Info: CROSSTERM ENERGY INCLUDED IN DIHEDRAL
Info: TIMING OUTPUT STEPS    1000000
Info: PRESSURE OUTPUT STEPS  100000
Info: ALCHEMICAL FEP ON
Info: FEP CURRENT LAMBDA VALUE     0
Info: FEP COMPARISON LAMBDA VALUE  0.05
Info: FEP INTRA-ALCHEMICAL NON-BONDED INTERACTIONS WILL BE RETAINED
Info: FEP INTRA-ALCHEMICAL BONDED INTERACTIONS WILL BE RETAINED
Info: FEP VDW SHIFTING COEFFICIENT 5
Info: FEP ELEC. ACTIVE FOR ANNIHILATED PARTICLES BETWEEN LAMBDA = 0 AND LAMBDA = 0.5
Info: FEP ELEC. ACTIVE FOR EXNIHILATED PARTICLES BETWEEN LAMBDA = 0.5 AND LAMBDA = 1
Info: FEP VDW ACTIVE FOR ANNIHILATED PARTICLES BETWEEN LAMBDA = 0 AND LAMBDA = 1
Info: FEP VDW ACTIVE FOR EXNIHILATED PARTICLES BETWEEN LAMBDA = 0 AND LAMBDA = 1
Info: FEP BOND ACTIVE FOR ANNIHILATED PARTICLES BETWEEN LAMBDA = 1 AND LAMBDA = 1
Info: FEP BOND ACTIVE FOR EXNIHILATED PARTICLES BETWEEN LAMBDA = 0 AND LAMBDA = 0
Info: LANGEVIN DYNAMICS ACTIVE
Info: LANGEVIN TEMPERATURE   300
Info: LANGEVIN USING BBK INTEGRATOR
Info: LANGEVIN DAMPING COEFFICIENT IS 1 INVERSE PS
Info: LANGEVIN DYNAMICS APPLIED TO HYDROGENS
Info: LANGEVIN PISTON PRESSURE CONTROL ACTIVE
Info:        TARGET PRESSURE IS 1.01325 BAR
Info:     OSCILLATION PERIOD IS 50 FS
Info:             DECAY TIME IS 25 FS
Info:     PISTON TEMPERATURE IS 300 K
Info:       PRESSURE CONTROL IS GROUP-BASED
Info:    INITIAL STRAIN RATE IS -0.000391867 -0.000391867 -0.000391867
Info:       CELL FLUCTUATION IS ISOTROPIC
Info: PARTICLE MESH EWALD (PME) ACTIVE
Info: PME TOLERANCE               1e-06
Info: PME EWALD COEFFICIENT       0.348832
Info: PME INTERPOLATION ORDER     4
Info: PME GRID DIMENSIONS         32 32 32
Info: PME MAXIMUM GRID SPACING    1
Info: PME CALCULATION WILL BE PERFORMED ON GPU
Info: FULL ELECTROSTATIC EVALUATION FREQUENCY      2
Info: USING VERLET I (r-RESPA) MTS SCHEME.
Info: C1 SPLITTING OF LONG RANGE ELECTROSTATICS
Info: PLACING ATOMS IN PATCHES BY HYDROGEN GROUPS
Info: RIGID BONDS TO HYDROGEN : ALL
Info:         ERROR TOLERANCE : 1e-08
Info:          MAX ITERATIONS : 100
Info: RIGID WATER USING SETTLE ALGORITHM
Info: RANDOM NUMBER SEED     1743906343
Info: USE HYDROGEN BONDS?    NO
Info: Using AMBER format force field!
Info: AMBER PARM FILE        mobley_8492526.prmtop
Info: COORDINATE PDB         mobley_8492526.pdb
Info: Exclusions will be read from PARM file!
Info: SCNB (VDW SCALING)     2
Info: USING ARITHMETIC MEAN TO COMBINE L-J SIGMA PARAMETERS
Info: BINARY COORDINATES     mobley_8492526_equil.coor
Info: SUMMARY OF PARAMETERS:
Info: 7 BONDS
Info: 8 ANGLES
Info:   8 HARMONIC
Info:   0 COSINE-BASED
Info: 11 DIHEDRAL
Info: 0 IMPROPER
Info: 0 CROSSTERM
Info: 0 VDW
Info: 28 VDW_PAIRS
Info: 0 NBTHOLE_PAIRS
Info: To read alchdata from file: mobley_8492526.pdb
Info: To read alchflag data from column: 5
Info: STRUCTURE SUMMARY:
Info: 2956 ATOMS
Info: 2955 BONDS
Info: 27 ANGLES
Info: 40 DIHEDRALS
Info: 0 IMPROPERS
Info: 0 CROSSTERMS
Info: 3015 EXCLUSIONS
Info: 2950 RIGID BONDS
Info: ALCH: 0 ATOMS TO DISAPPEAR IN FINAL STATE
Info: ALCH: 16 ATOMS TO APPEAR IN FINAL STATE
Info: 5918 DEGREES OF FREEDOM
Info: 986 HYDROGEN GROUPS
Info: 4 ATOMS IN LARGEST HYDROGEN GROUP
Info: 986 MIGRATION GROUPS
Info: 4 ATOMS IN LARGEST MIGRATION GROUP
Info: TOTAL MASS = 17741.8 amu
Info: TOTAL CHARGE = 9.9929e-05 e
Info: MASS DENSITY = 0.968115 g/cm^3
Info: ATOM DENSITY = 0.0971347 atoms/A^3
Info: ADDED 0 IMPLICIT EXCLUSIONS
Info: NONBONDED TABLE R-SQUARED SPACING: 0.0625
Info: NONBONDED TABLE SIZE: 705 POINTS
Info: REDUCING NUMBER OF PATCHES TO IMPROVE LOAD BALANCE
Info: REMOVING COM VELOCITY 0.0478813 0.245486 0.00953221
Info: Use 3D box decompostion in PME FFT.
Info: Updated CUDA force table with 4096 elements.
Info: Updated CUDA LJ table with 7 x 7 elements.
Info: Found 19 unique exclusion lists needing 48 bytes
TCL: Running for 1500000 steps
ETITLE: TS BOND ANGLE DIHED IMPRP ELECT VDW BOUNDARY MISC KINETIC TOTAL TEMP POTENTIAL TOTALAVG TEMPAVG PRESSURE GPRESSURE VOLUME PRESSAVG GPRESSAVG
ENERGY: 0 0.4606 2.0501 2.6823 0.0000 -10727.1010 1440.8554 0.0000 0.0000 1721.4587 -7559.5939 292.7602 -9281.0526 -7559.5939 292.7602 -285.3211 -203.8100 30431.9705 -285.3211 -203.8100
ENERGY: 300000 1.3586 8.3204 4.1150 0.0000 -10695.9978 1450.9265 0.0000 0.0000 1747.3152 -7483.9621 297.1575 -9231.2774 -7478.9015 297.8774 285.4043 310.8983 29981.0066 -47.5661 15.8297
ENERGY: 600000 5.2374 6.7717 4.1883 0.0000 -10534.9955 1283.2830 0.0000 0.0000 1734.8756 -7500.6395 295.0419 -9235.5151 -7490.6799 297.1789 -1538.8889 -1446.0487 30377.4412 -180.2921 -105.9299
ENERGY: 900000 1.1494 12.2341 2.1692 0.0000 -10779.5602 1497.7823 0.0000 0.0000 1760.9693 -7505.2557 299.4796 -9266.2251 -7487.5205 297.2641 586.2216 660.4307 29555.0721 -88.6712 -16.2408
ENERGY: 1200000 1.3748 7.7947 4.0823 0.0000 -10698.4288 1447.0035 0.0000 0.0000 1754.0008 -7484.1727 298.2945 -9238.1735 -7487.2157 296.9979 81.3753 124.8390 30170.0142 -153.8034 -85.3181
ENERGY: 1500000 1.7444 6.4491 2.9684 0.0000 -10802.0190 1493.7081 0.0000 0.0000 1733.4356 -7563.7134 294.7970 -9297.1489 -7490.1791 297.2017 335.8683 377.5967 29863.5194 -191.7453 -121.1926
TCL: Running FEP window   2: Lambda1 0.05   Lambda2 0.1    [dLambda 0.05  ]
TCL: Setting parameter firsttimestep to 0
TCL: Setting parameter alchLambda to 0.05
Info: NONBONDED TABLE R-SQUARED SPACING: 0.0625
Info: NONBONDED TABLE SIZE: 705 POINTS
TCL: Setting parameter alchLambda2 to 0.1
Info: NONBONDED TABLE R-SQUARED SPACING: 0.0625
Info: NONBONDED TABLE SIZE: 705 POINTS
TCL: Running for 1500000 steps
ETITLE: TS BOND ANGLE DIHED IMPRP ELECT VDW BOUNDARY MISC KINETIC TOTAL TEMP POTENTIAL TOTALAVG TEMPAVG PRESSURE GPRESSURE VOLUME PRESSAVG GPRESSAVG
ENERGY: 0 1.7444 6.4490 2.9684 0.0000 -10802.0180 1496.4271 0.0000 0.0000 1732.6019 -7561.8270 294.6553 -9294.4290 -7561.8270 294.6553 291.0412 381.7815 29863.5194 291.0412 381.7815
ENERGY: 300000 2.0395 10.1762 4.0513 0.0000 -10692.4383 1443.5064 0.0000 0.0000 1783.7685 -7448.8964 303.3569 -9232.6649 -7514.3740 296.7441 225.3597 247.8542 30039.1316 99.4702 164.3042
ENERGY: 600000 1.5788 9.4307 2.8331 0.0000 -10878.1483 1549.0535 0.0000 0.0000 1737.5094 -7577.7428 295.4899 -9315.2522 -7511.5596 297.8317 745.5139 802.1223 29769.4667 109.7434 173.3920
ENERGY: 900000 1.8276 4.9379 4.1686 0.0000 -10858.5322 1516.5743 0.0000 0.0000 1767.4033 -7563.6204 300.5738 -9331.0237 -7513.3786 298.5278 459.1649 517.2346 29922.2429 150.4391 210.5031
ENERGY: 1200000 1.9404 8.5474 2.1241 0.0000 -10972.6376 1646.7901 0.0000 0.0000 1763.0408 -7550.1948 299.8319 -9313.2357 -7507.3216 298.5240 1504.9208 1565.1774 29806.3030 179.4247 241.3324
ENERGY: 1500000 1.2602 6.8362 2.3782 0.0000 -10822.9106 1498.4516 0.0000 0.0000 1741.2117 -7572.7728 296.1195 -9313.9845 -7509.5997 298.6143 607.2725 614.2212 29549.6468 199.3691 255.5055
TCL: Running FEP window   3: Lambda1 0.1    Lambda2 0.15000000000000002 [dLambda 0.05000000000000002]
TCL: Setting parameter firsttimestep to 0
TCL: Setting parameter alchLambda to 0.1
Info: NONBONDED TABLE R-SQUARED SPACING: 0.0625
Info: NONBONDED TABLE SIZE: 705 POINTS
TCL: Setting parameter alchLambda2 to 0.15000000000000002
Info: NONBONDED TABLE R-SQUARED SPACING: 0.0625
Info: NONBONDED TABLE SIZE: 705 POINTS
TCL: Running for 1500000 steps
ETITLE: TS BOND ANGLE DIHED IMPRP ELECT VDW BOUNDARY MISC KINETIC TOTAL TEMP POTENTIAL TOTALAVG TEMPAVG PRESSURE GPRESSURE VOLUME PRESSAVG GPRESSAVG
ENERGY: 0 1.2602 6.8362 2.3782 0.0000 -10822.9102 1498.7289 0.0000 0.0000 1740.3481 -7573.3587 295.9726 -9313.7068 -7573.3587 295.9726 510.0154 618.2735 29549.6468 510.0154 618.2735
ENERGY: 300000 1.1111 7.8242 3.3883 0.0000 -10699.3811 1480.4852 0.0000 0.0000 1729.8314 -7476.7408 294.1841 -9206.5722 -7532.0433 295.5385 344.0098 419.5894 30464.5855 245.0451 324.8144
ENERGY: 600000 0.7604 6.7571 3.8530 0.0000 -10730.0349 1446.0796 0.0000 0.0000 1747.7197 -7524.8650 297.2263 -9272.5847 -7508.1697 297.6837 -118.9345 -33.6510 30350.6144 30.3815 113.1170
ENERGY: 900000 0.2030 7.1843 2.6922 0.0000 -10666.8552 1402.3481 0.0000 0.0000 1753.2323 -7501.1953 298.1638 -9254.4276 -7495.9541 299.4472 -387.5510 -385.4374 30567.4401 -21.8458 46.3724
ENERGY: 1200000 0.9735 7.0783 3.8824 0.0000 -10488.6281 1306.8749 0.0000 0.0000 1767.6935 -7402.1256 300.6231 -9169.8191 -7494.4463 299.2386 -1026.5652 -960.4844 30856.5083 -89.5792 -17.1078
ENERGY: 1500000 2.0907 6.6377 3.2100 0.0000 -10744.7658 1465.5494 0.0000 0.0000 1765.6366 -7501.6413 300.2733 -9267.2779 -7487.6455 300.4862 -26.4270 117.2644 30221.8686 -43.9000 35.1136
TCL: Running FEP window   4: Lambda1 0.15000000000000002 Lambda2 0.2    [dLambda 0.04999999999999999]
TCL: Setting parameter firsttimestep to 0
TCL: Setting parameter alchLambda to 0.15000000000000002
Info: NONBONDED TABLE R-SQUARED SPACING: 0.0625
Info: NONBONDED TABLE SIZE: 705 POINTS
TCL: Setting parameter alchLambda2 to 0.2
Info: NONBONDED TABLE R-SQUARED SPACING: 0.0625
Info: NONBONDED TABLE SIZE: 705 POINTS
TCL: Running for 1500000 steps
ETITLE: TS BOND ANGLE DIHED IMPRP ELECT VDW BOUNDARY MISC KINETIC TOTAL TEMP POTENTIAL TOTALAVG TEMPAVG PRESSURE GPRESSURE VOLUME PRESSAVG GPRESSAVG
ENERGY: 0 2.0907 6.6377 3.2100 0.0000 -10744.7662 1465.7794 0.0000 0.0000 1764.7588 -7502.2895 300.1240 -9267.0484 -7502.2895 300.1240 37.8808 118.3573 30221.8686 37.8808 118.3573
ENERGY: 300000 1.1171 8.0134 2.7093 0.0000 -10773.5526 1420.0463 0.0000 0.0000 1763.0623 -7578.6042 299.8355 -9341.6665 -7517.6431 297.1907 -344.0739 -225.0030 30088.4906 -253.1182 -152.2646
ENERGY: 600000 1.2281 4.9259 1.9113 0.0000 -10572.1436 1335.9501 0.0000 0.0000 1731.5691 -7496.5590 294.4796 -9228.1281 -7520.9779 297.9836 -1015.1043 -945.5068 30741.1586 -256.9565 -176.7505
ENERGY: 900000 1.7254 6.5091 6.0817 0.0000 -10474.0859 1296.9946 0.0000 0.0000 1702.8784 -7459.8968 289.6003 -9162.7752 -7513.3443 296.8890 -1263.4029 -1186.8665 30743.9922 -374.5999 -295.7500
ENERGY: 1200000 1.5003 6.7664 2.8956 0.0000 -10686.8104 1442.1341 0.0000 0.0000 1776.9872 -7456.5267 302.2037 -9233.5140 -7504.9001 298.6677 -142.5873 -110.6947 30720.8860 -259.8045 -189.0756
ENERGY: 1500000 1.9006 7.3125 3.3881 0.0000 -10584.0210 1340.0584 0.0000 0.0000 1780.7679 -7450.5936 302.8466 -9231.3614 -7494.4897 299.3530 -720.1014 -641.8239 30180.5717 -304.6739 -228.7832
TCL: Running FEP window   5: Lambda1 0.2    Lambda2 0.25   [dLambda 0.04999999999999999]
TCL: Setting parameter firsttimestep to 0
TCL: Setting parameter alchLambda to 0.2
Info: NONBONDED TABLE R-SQUARED SPACING: 0.0625
Info: NONBONDED TABLE SIZE: 705 POINTS
TCL: Setting parameter alchLambda2 to 0.25
Info: NONBONDED TABLE R-SQUARED SPACING: 0.0625
Info: NONBONDED TABLE SIZE: 705 POINTS
TCL: Running for 1500000 steps
ETITLE: TS BOND ANGLE DIHED IMPRP ELECT VDW BOUNDARY MISC KINETIC TOTAL TEMP POTENTIAL TOTALAVG TEMPAVG PRESSURE GPRESSURE VOLUME PRESSAVG GPRESSAVG
ENERGY: 0 1.9006 7.3125 3.3881 0.0000 -10584.0216 1342.5955 0.0000 0.0000 1779.8967 -7448.9283 302.6985 -9228.8250 -7448.9283 302.6985 -708.5734 -627.0492 30180.5717 -708.5734 -627.0492
ENERGY: 300000 1.4363 7.0206 4.9427 0.0000 -10748.9764 1488.1713 0.0000 0.0000 1802.9829 -7444.4227 306.6246 -9247.4056 -7478.4106 302.4036 369.7764 430.0084 30225.0194 91.8835 151.2506
ENERGY: 600000 1.0155 8.4463 1.7245 0.0000 -10649.2973 1364.1780 0.0000 0.0000 1797.7844 -7476.1485 305.7405 -9273.9329 -7476.1228 301.1115 -836.5109 -798.7654 30628.2859 -62.8430 3.4441
ENERGY: 900000 2.5668 6.8687 3.5994 0.0000 -10577.2157 1404.4178 0.0000 0.0000 1824.8332 -7334.9297 310.3406 -9159.7629 -7466.2665 301.6759 -66.2902 -1.8635 30298.9341 -44.8857 19.2481
ENERGY: 1200000 3.5842 7.2440 4.0339 0.0000 -10627.6305 1342.6740 0.0000 0.0000 1752.2575 -7517.8369 297.9980 -9270.0944 -7474.4207 300.9952 -647.0278 -645.8048 30044.6147 -72.2433 -16.3407
ENERGY: 1500000 1.1219 7.5456 2.6038 0.0000 -10753.9505 1480.7466 0.0000 0.0000 1786.7068 -7475.2258 303.8566 -9261.9326 -7480.3871 301.7472 216.3325 222.2988 30451.6116 -73.4543 -18.2408
TCL: Running FEP window   6: Lambda1 0.25   Lambda2 0.3    [dLambda 0.04999999999999999]
TCL: Setting parameter firsttimestep to 0
TCL: Setting parameter alchLambda to 0.25
Info: NONBONDED TABLE R-SQUARED SPACING: 0.0625
Info: NONBONDED TABLE SIZE: 705 POINTS
TCL: Setting parameter alchLambda2 to 0.3
Info: NONBONDED TABLE R-SQUARED SPACING: 0.0625
Info: NONBONDED TABLE SIZE: 705 POINTS
TCL: Running for 1500000 steps
ETITLE: TS BOND ANGLE DIHED IMPRP ELECT VDW BOUNDARY MISC KINETIC TOTAL TEMP POTENTIAL TOTALAVG TEMPAVG PRESSURE GPRESSURE VOLUME PRESSAVG GPRESSAVG
ENERGY: 0 1.1219 7.5456 2.6038 0.0000 -10753.9496 1480.4414 0.0000 0.0000 1785.8170 -7476.4199 303.7053 -9262.2369 -7476.4199 303.7053 152.3987 221.7743 30451.6116 152.3987 221.7743
ENERGY: 300000 0.8649 6.0855 2.9369 0.0000 -10736.1888 1489.4306 0.0000 0.0000 1772.2792 -7464.5918 301.4030 -9236.8710 -7473.2061 302.9148 292.9347 405.9278 30331.4923 -7.6376 64.7556
ENERGY: 600000 1.7870 7.0784 4.9155 0.0000 -10851.6356 1549.9066 0.0000 0.0000 1787.0226 -7500.9255 303.9103 -9287.9481 -7467.4794 303.2375 845.2352 948.3777 30062.9127 105.2448 188.0836
ENERGY: 900000 0.2734 10.6777 2.5078 0.0000 -10915.0506 1593.0611 0.0000 0.0000 1725.2965 -7583.2341 293.4129 -9308.5306 -7497.8840 300.0797 892.2075 994.1816 30268.6749 152.1693 231.6738
ENERGY: 1200000 0.7690 6.9251 1.7706 0.0000 -10665.9676 1401.6915 0.0000 0.0000 1745.2361 -7509.5753 296.8039 -9254.8115 -7503.6037 299.8033 -275.5566 -241.7234 30413.9076 83.2101 149.6775
ENERGY: 1500000 1.4428 8.2310 2.9774 0.0000 -10635.1149 1390.6468 0.0000 0.0000 1737.9986 -7493.8184 295.5731 -9231.8170 -7498.7904 300.2860 -392.7085 -350.6067 30627.7247 27.2201 90.5857
TCL: Running FEP window   7: Lambda1 0.3    Lambda2 0.35   [dLambda 0.04999999999999999]
TCL: Setting parameter firsttimestep to 0
TCL: Setting parameter alchLambda to 0.3
Info: NONBONDED TABLE R-SQUARED SPACING: 0.0625
Info: NONBONDED TABLE SIZE: 705 POINTS
TCL: Setting parameter alchLambda2 to 0.35
Info: NONBONDED TABLE R-SQUARED SPACING: 0.0625
Info: NONBONDED TABLE SIZE: 705 POINTS
TCL: Running for 1500000 steps
ETITLE: TS BOND ANGLE DIHED IMPRP ELECT VDW BOUNDARY MISC KINETIC TOTAL TEMP POTENTIAL TOTALAVG TEMPAVG PRESSURE GPRESSURE VOLUME PRESSAVG GPRESSAVG
ENERGY: 0 1.4428 8.2310 2.9774 0.0000 -10635.1126 1390.8070 0.0000 0.0000 1737.0988 -7494.5558 295.4200 -9231.6545 -7494.5558 295.4200 -428.3056 -346.1843 30627.7247 -428.3056 -346.1843
ENERGY: 300000 0.2352 6.7519 2.1504 0.0000 -10686.5394 1433.0267 0.0000 0.0000 1740.7230 -7503.6522 296.0364 -9244.3752 -7502.0129 295.3434 -226.7668 -105.3086 30416.4335 -349.4633 -295.3972
ENERGY: 600000 0.3383 5.0640 3.5593 0.0000 -10539.4352 1362.4049 0.0000 0.0000 1732.1328 -7435.9359 294.5755 -9168.0687 -7491.2269 295.8339 -525.8683 -485.7922 30690.4318 -103.2805 -55.4777
ENERGY: 900000 0.6327 4.6743 2.8182 0.0000 -10563.0893 1344.2552 0.0000 0.0000 1810.3622 -7400.3466 307.8796 -9210.7088 -7472.9849 298.4771 -958.8800 -830.4901 31041.4964 -216.1114 -146.1669
ENERGY: 1200000 0.7942 4.2394 3.1542 0.0000 -10676.4175 1465.2453 0.0000 0.0000 1741.1478 -7461.8365 296.1086 -9202.9843 -7473.3714 298.5673 75.7164 229.7518 30504.5438 -192.9125 -113.9121
ENERGY: 1500000 1.9326 7.9960 3.1738 0.0000 -10791.8990 1491.4014 0.0000 0.0000 1755.4568 -7531.9384 298.5421 -9287.3952 -7479.6581 299.0452 85.9692 111.7656 30386.2158 -184.3982 -105.4046
TCL: Running FEP window   8: Lambda1 0.35   Lambda2 0.39999999999999997 [dLambda 0.04999999999999999]
TCL: Setting parameter firsttimestep to 0
TCL: Setting parameter alchLambda to 0.35
Info: NONBONDED TABLE R-SQUARED SPACING: 0.0625
Info: NONBONDED TABLE SIZE: 705 POINTS
TCL: Setting parameter alchLambda2 to 0.39999999999999997
Info: NONBONDED TABLE R-SQUARED SPACING: 0.0625
Info: NONBONDED TABLE SIZE: 705 POINTS
TCL: Running for 1500000 steps
ETITLE: TS BOND ANGLE DIHED IMPRP ELECT VDW BOUNDARY MISC KINETIC TOTAL TEMP POTENTIAL TOTALAVG TEMPAVG PRESSURE GPRESSURE VOLUME PRESSAVG GPRESSAVG
ENERGY: 0 1.9326 7.9960 3.1738 0.0000 -10791.8972 1491.9524 0.0000 0.0000 1754.5610 -7532.2815 298.3897 -9286.8425 -7532.2815 298.3897 29.2214 122.5224 30386.2158 29.2214 122.5224
ENERGY: 300000 3.7504 9.0033 2.9495 0.0000 -10663.9410 1480.3824 0.0000 0.0000 1730.8677 -7436.9877 294.3603 -9167.8554 -7508.8288 297.6757 563.5066 631.7492 30145.8667 85.6630 149.5754
ENERGY: 600000 4.5473 5.3365 3.8518 0.0000 -10564.6912 1365.2329 0.0000 0.0000 1721.1660 -7464.5566 292.7104 -9185.7226 -7492.7146 297.6004 -871.0864 -804.6825 31165.1785 -80.4545 -16.0775
ENERGY: 900000 1.7942 7.4638 2.7412 0.0000 -10665.5710 1370.0807 0.0000 0.0000 1716.7983 -7566.6928 291.9676 -9283.4911 -7497.3904 298.0242 -624.5176 -626.1285 30286.0882 -304.9042 -244.0130
ENERGY: 1200000 1.9603 10.0123 2.0233 0.0000 -10608.2136 1425.3091 0.0000 0.0000 1821.2152 -7347.6932 309.7253 -9168.9084 -7478.7070 299.0369 -153.8960 -178.5810 30945.1038 -261.1073 -204.9961
ENERGY: 1500000 0.7828 6.6653 3.6855 0.0000 -10393.3539 1248.6551 0.0000 0.0000 1787.4819 -7346.0832 303.9884 -9133.5651 -7474.8808 298.8026 -1260.7849 -1201.8721 30658.5331 -356.5715 -291.3470
TCL: Running FEP window   9: Lambda1 0.39999999999999997 Lambda2 0.44999999999999996 [dLambda 0.04999999999999999]
TCL: Setting parameter firsttimestep to 0
TCL: Setting parameter alchLambda to 0.39999999999999997
Info: NONBONDED TABLE R-SQUARED SPACING: 0.0625
Info: NONBONDED TABLE SIZE: 705 POINTS
TCL: Setting parameter alchLambda2 to 0.44999999999999996
Info: NONBONDED TABLE R-SQUARED SPACING: 0.0625
Info: NONBONDED TABLE SIZE: 705 POINTS
TCL: Running for 1500000 steps
ETITLE: TS BOND ANGLE DIHED IMPRP ELECT VDW BOUNDARY MISC KINETIC TOTAL TEMP POTENTIAL TOTALAVG TEMPAVG PRESSURE GPRESSURE VOLUME PRESSAVG GPRESSAVG
ENERGY: 0 0.7828 6.6653 3.6855 0.0000 -10393.3537 1248.7032 0.0000 0.0000 1786.6270 -7346.8899 303.8431 -9133.5169 -7346.8899 303.8431 -1296.3852 -1197.8405 30658.5331 -1296.3852 -1197.8405
ENERGY: 300000 1.2419 6.3031 3.8658 0.0000 -10792.5788 1488.1273 0.0000 0.0000 1754.5174 -7538.5232 298.3823 -9293.0407 -7467.6689 300.5846 118.9787 181.3923 30483.4585 -309.3557 -234.3555
ENERGY: 600000 0.7314 5.1668 2.6501 0.0000 -10725.4270 1490.1961 0.0000 0.0000 1744.7667 -7481.9158 296.7241 -9226.6824 -7478.4093 300.2687 454.3666 511.0410 30335.3203 -23.8315 40.0097
ENERGY: 900000 2.3018 8.0044 2.8907 0.0000 -10679.3820 1372.9155 0.0000 0.0000 1715.8670 -7577.4027 291.8092 -9293.2696 -7491.9686 299.2406 -569.7497 -485.8107 30086.5237 -89.3526 -30.9529
ENERGY: 1200000 0.6985 6.1994 2.6131 0.0000 -10643.9032 1406.5136 0.0000 0.0000 1725.0141 -7502.8645 293.3649 -9227.8786 -7494.1503 298.8356 -495.3783 -378.8289 30571.3330 -89.1313 -24.2576
ENERGY: 1500000 2.3558 4.9295 6.3017 0.0000 -10731.6220 1428.9581 0.0000 0.0000 1697.9249 -7591.1521 288.7579 -9289.0770 -7496.1358 298.2360 -25.9941 15.4120 30239.6722 -98.5721 -36.1599
TCL: Running FEP window  10: Lambda1 0.44999999999999996 Lambda2 0.49999999999999994 [dLambda 0.04999999999999999]
TCL: Setting parameter firsttimestep to 0
TCL: Setting parameter alchLambda to 0.44999999999999996
Info: NONBONDED TABLE R-SQUARED SPACING: 0.0625
Info: NONBONDED TABLE SIZE: 705 POINTS
TCL: Setting parameter alchLambda2 to 0.49999999999999994
Info: NONBONDED TABLE R-SQUARED SPACING: 0.0625
Info: NONBONDED TABLE SIZE: 705 POINTS
TCL: Running for 1500000 steps
ETITLE: TS BOND ANGLE DIHED IMPRP ELECT VDW BOUNDARY MISC KINETIC TOTAL TEMP POTENTIAL TOTALAVG TEMPAVG PRESSURE GPRESSURE VOLUME PRESSAVG GPRESSAVG
ENERGY: 0 2.3558 4.9295 6.3017 0.0000 -10731.6218 1429.1009 0.0000 0.0000 1697.0555 -7591.8784 288.6101 -9288.9339 -7591.8784 288.6101 -55.8871 20.9348 30239.6722 -55.8871 20.9348
ENERGY: 300000 3.6035 5.1472 3.0866 0.0000 -10538.3417 1390.3377 0.0000 0.0000 1766.4895 -7369.6771 300.4184 -9136.1666 -7465.6948 296.3816 -320.4257 -176.7990 30764.7410 50.7727 146.6736
ENERGY: 600000 0.5825 5.2173 3.8863 0.0000 -10791.0588 1488.6703 0.0000 0.0000 1731.7598 -7560.9426 294.5120 -9292.7023 -7465.2650 299.4083 349.6381 424.8468 30046.8602 226.5993 309.1754
ENERGY: 900000 1.4053 6.1155 4.2801 0.0000 -10779.5611 1530.3334 0.0000 0.0000 1745.4859 -7491.9408 296.8464 -9237.4267 -7483.9721 299.6164 703.4753 804.4633 30392.6184 180.8857 248.7944
ENERGY: 1200000 1.3327 3.2306 1.9334 0.0000 -10690.5922 1424.8887 0.0000 0.0000 1750.0430 -7509.1638 297.6214 -9259.2067 -7471.8945 300.0416 -262.3157 -171.1397 30312.4991 37.7292 100.7273
ENERGY: 1500000 1.4264 8.2870 3.0928 0.0000 -10730.9167 1470.1640 0.0000 0.0000 1769.0505 -7478.8961 300.8539 -9247.9465 -7471.8537 301.3487 309.3003 314.7538 30270.4309 45.4372 105.2057
TCL: Running FEP window  11: Lambda1 0.49999999999999994 Lambda2 0.5499999999999999 [dLambda 0.04999999999999999]
TCL: Setting parameter firsttimestep to 0
TCL: Setting parameter alchLambda to 0.49999999999999994
Info: NONBONDED TABLE R-SQUARED SPACING: 0.0625
Info: NONBONDED TABLE SIZE: 705 POINTS
TCL: Setting parameter alchLambda2 to 0.5499999999999999
Info: NONBONDED TABLE R-SQUARED SPACING: 0.0625
Info: NONBONDED TABLE SIZE: 705 POINTS
TCL: Running for 1500000 steps
ETITLE: TS BOND ANGLE DIHED IMPRP ELECT VDW BOUNDARY MISC KINETIC TOTAL TEMP POTENTIAL TOTALAVG TEMPAVG PRESSURE GPRESSURE VOLUME PRESSAVG GPRESSAVG
ENERGY: 0 1.4264 8.2870 3.0928 0.0000 -10730.9173 1470.3371 0.0000 0.0000 1768.1374 -7479.6366 300.6986 -9247.7740 -7479.6366 300.6986 248.2466 320.1410 30270.4309 248.2466 320.1410
ENERGY: 300000 0.6382 4.7033 3.6782 0.0000 -10647.5464 1428.4596 0.0000 0.0000 1792.6072 -7417.4599 304.8601 -9210.0671 -7463.7907 300.8124 -318.7040 -200.8614 30843.5902 -203.7852 -146.2450
ENERGY: 600000 1.5872 5.4370 3.8567 0.0000 -10766.9746 1496.3003 0.0000 0.0000 1734.8001 -7524.9934 295.0291 -9259.7935 -7493.0690 299.0350 217.7588 255.4607 30461.6047 -208.4702 -157.0309
ENERGY: 900000 0.6072 7.8417 1.6401 0.0000 -10888.1705 1550.5585 0.0000 0.0000 1783.9928 -7543.5301 303.3951 -9327.5230 -7497.3897 300.1384 740.6314 783.4405 30169.7695 -48.3737 5.4126
ENERGY: 1200000 2.8850 5.3354 4.2130 0.0000 -10732.4155 1457.5985 0.0000 0.0000 1768.4361 -7493.9475 300.7494 -9262.3836 -7500.4445 299.9663 79.4894 133.9325 30243.7417 -87.9692 -26.8502
ENERGY: 1500000 1.8816 8.2887 3.3757 0.0000 -10785.2076 1464.2897 0.0000 0.0000 1768.5847 -7538.7871 300.7747 -9307.3718 -7512.5230 299.6510 110.4226 173.4782 30542.9377 -88.0638 -21.8280
TCL: Running FEP window  12: Lambda1 0.5499999999999999 Lambda2 0.6    [dLambda 0.050000000000000044]
TCL: Setting parameter firsttimestep to 0
TCL: Setting parameter alchLambda to 0.5499999999999999
Info: NONBONDED TABLE R-SQUARED SPACING: 0.0625
Info: NONBONDED TABLE SIZE: 705 POINTS
TCL: Setting parameter alchLambda2 to 0.6
Info: NONBONDED TABLE R-SQUARED SPACING: 0.0625
Info: NONBONDED TABLE SIZE: 705 POINTS
TCL: Running for 1500000 steps
ETITLE: TS BOND ANGLE DIHED IMPRP ELECT VDW BOUNDARY MISC KINETIC TOTAL TEMP POTENTIAL TOTALAVG TEMPAVG PRESSURE GPRESSURE VOLUME PRESSAVG GPRESSAVG
ENERGY: 0 1.8816 8.2887 3.3757 0.0000 -10785.1043 1464.0110 0.0000 0.0000 1767.6934 -7539.8538 300.6231 -9307.5472 -7539.8538 300.6231 101.4605 178.5581 30542.9377 101.4605 178.5581
ENERGY: 300000 1.1524 1.7714 2.5975 0.0000 -10567.7794 1328.3359 0.0000 0.0000 1688.5230 -7545.3992 287.1590 -9233.9222 -7528.9635 293.4085 -884.3409 -870.5937 30709.0560 -489.6059 -420.6348
ENERGY: 600000 3.2596 7.2792 3.2935 0.0000 -10691.3231 1412.3290 0.0000 0.0000 1789.7750 -7475.3869 304.3784 -9265.1619 -7513.6551 297.6606 -372.6165 -277.3440 30265.3626 -305.9292 -225.5943
ENERGY: 900000 1.0116 9.1528 2.5724 0.0000 -10743.1136 1418.2759 0.0000 0.0000 1790.3582 -7521.7426 304.4776 -9312.1009 -7501.6434 300.6127 307.5770 342.6869 29416.5351 23.3585 96.8253
ENERGY: 1200000 0.9860 7.8066 1.6308 0.0000 -10742.4518 1480.8171 0.0000 0.0000 1774.4412 -7476.7702 301.7707 -9251.2113 -7499.0385 300.0098 135.6810 179.3307 30621.7644 62.1903 130.3628
ENERGY: 1500000 1.0949 13.3692 4.2646 0.0000 -10802.1507 1503.3450 0.0000 0.0000 1788.5593 -7491.5178 304.1717 -9280.0771 -7495.8530 300.4806 105.0068 162.9885 30816.6931 -73.6188 -10.4719
TCL: Running FEP window  13: Lambda1 0.6    Lambda2 0.65   [dLambda 0.050000000000000044]
TCL: Setting parameter firsttimestep to 0
TCL: Setting parameter alchLambda to 0.6
Info: NONBONDED TABLE R-SQUARED SPACING: 0.0625
Info: NONBONDED TABLE SIZE: 705 POINTS
TCL: Setting parameter alchLambda2 to 0.65
Info: NONBONDED TABLE R-SQUARED SPACING: 0.0625
Info: NONBONDED TABLE SIZE: 705 POINTS
TCL: Running for 1500000 steps
ETITLE: TS BOND ANGLE DIHED IMPRP ELECT VDW BOUNDARY MISC KINETIC TOTAL TEMP POTENTIAL TOTALAVG TEMPAVG PRESSURE GPRESSURE VOLUME PRESSAVG GPRESSAVG
ENERGY: 0 1.0949 13.3692 4.2646 0.0000 -10802.5887 1503.2026 0.0000 0.0000 1787.6914 -7492.9660 304.0241 -9280.6574 -7492.9660 304.0241 86.4288 166.3240 30816.6931 86.4288 166.3240
ENERGY: 300000 2.8870 3.6499 3.8459 0.0000 -10694.9278 1489.5585 0.0000 0.0000 1736.5024 -7458.4842 295.3186 -9194.9865 -7476.8257 300.6954 375.6446 436.8848 30598.4998 481.4723 540.3407
ENERGY: 600000 0.4456 7.4491 4.7793 0.0000 -10722.0770 1438.5103 0.0000 0.0000 1788.6182 -7482.2745 304.1817 -9270.8927 -7485.9546 298.5933 -120.0074 -130.1633 30845.3044 175.7060 215.3150
ENERGY: 900000 1.5132 5.8553 3.7092 0.0000 -10519.0092 1344.1455 0.0000 0.0000 1828.8643 -7334.9216 311.0262 -9163.7859 -7487.1490 298.7395 -641.6036 -581.2578 30958.3115 48.8737 98.1847
ENERGY: 1200000 1.5503 3.7272 1.7146 0.0000 -10845.9948 1547.2802 0.0000 0.0000 1785.3636 -7506.3588 303.6282 -9291.7224 -7486.6247 299.6284 963.6870 987.2256 29865.7905 187.7658 234.9599
ENERGY: 1500000 0.9858 10.4333 1.8840 0.0000 -10716.3486 1441.6528 0.0000 0.0000 1738.9825 -7522.4102 295.7404 -9261.3927 -7480.4205 300.1520 -65.7003 -7.0298 30515.0786 187.1546 238.6142
TCL: Running FEP window  14: Lambda1 0.65   Lambda2 0.7000000000000001 [dLambda 0.050000000000000044]
TCL: Setting parameter firsttimestep to 0
TCL: Setting parameter alchLambda to 0.65
Info: NONBONDED TABLE R-SQUARED SPACING: 0.0625
Info: NONBONDED TABLE SIZE: 705 POINTS
TCL: Setting parameter alchLambda2 to 0.7000000000000001
Info: NONBONDED TABLE R-SQUARED SPACING: 0.0625
Info: NONBONDED TABLE SIZE: 705 POINTS
TCL: Running for 1500000 steps
ETITLE: TS BOND ANGLE DIHED IMPRP ELECT VDW BOUNDARY MISC KINETIC TOTAL TEMP POTENTIAL TOTALAVG TEMPAVG PRESSURE GPRESSURE VOLUME PRESSAVG GPRESSAVG
ENERGY: 0 0.9858 10.4333 1.8840 0.0000 -10716.7364 1441.2077 0.0000 0.0000 1738.0740 -7524.1516 295.5859 -9262.2256 -7524.1516 295.5859 -77.1636 -3.6224 30515.0786 -77.1636 -3.6224
ENERGY: 300000 4.3996 8.3680 3.4570 0.0000 -10575.9689 1345.8384 0.0000 0.0000 1849.4921 -7364.4138 314.5342 -9213.9059 -7461.8149 303.6217 -422.8234 -387.8078 30471.6510 -40.2508 2.9111
ENERGY: 600000 0.2460 5.0947 3.1708 0.0000 -10751.1404 1403.0157 0.0000 0.0000 1765.7494 -7573.8638 300.2925 -9339.6132 -7505.5257 302.0350 -204.4024 -174.0844 30054.2058 -240.2713 -190.6785
ENERGY: 900000 1.4790 5.3874 3.6844 0.0000 -10658.2446 1480.4989 0.0000 0.0000 1759.0987 -7408.0961 299.1615 -9167.1949 -7488.1972 301.5777 277.2030 349.4084 30600.1753 -277.6217 -228.2431
ENERGY: 1200000 2.4085 4.7214 2.9868 0.0000 -10822.2190 1502.0305 0.0000 0.0000 1824.0254 -7486.0463 310.2032 -9310.0717 -7487.3111 301.9648 418.2733 401.7273 30460.5352 -162.4371 -116.3736
ENERGY: 1500000 1.7014 6.9745 3.9213 0.0000 -10722.9457 1451.9441 0.0000 0.0000 1715.3194 -7543.0850 291.7161 -9258.4045 -7494.0155 300.7208 140.0419 195.7743 30407.4949 -125.2685 -76.7564
TCL: Running FEP window  15: Lambda1 0.7000000000000001 Lambda2 0.7500000000000001 [dLambda 0.050000000000000044]
TCL: Setting parameter firsttimestep to 0
TCL: Setting parameter alchLambda to 0.7000000000000001
Info: NONBONDED TABLE R-SQUARED SPACING: 0.0625
Info: NONBONDED TABLE SIZE: 705 POINTS
TCL: Setting parameter alchLambda2 to 0.7500000000000001
Info: NONBONDED TABLE R-SQUARED SPACING: 0.0625
Info: NONBONDED TABLE SIZE: 705 POINTS
TCL: Running for 1500000 steps
ETITLE: TS BOND ANGLE DIHED IMPRP ELECT VDW BOUNDARY MISC KINETIC TOTAL TEMP POTENTIAL TOTALAVG TEMPAVG PRESSURE GPRESSURE VOLUME PRESSAVG GPRESSAVG
ENERGY: 0 1.7014 6.9745 3.9213 0.0000 -10723.3817 1452.2004 0.0000 0.0000 1714.4456 -7544.1386 291.5675 -9258.5841 -7544.1386 291.5675 117.8632 207.1618 30407.4949 117.8632 207.1618
ENERGY: 300000 1.7665 4.9756 2.7527 0.0000 -10682.1704 1372.3051 0.0000 0.0000 1758.5999 -7541.7705 299.0766 -9300.3704 -7481.6821 299.1073 -586.0495 -514.7909 30029.7610 -18.8389 64.8886
ENERGY: 600000 1.8845 9.7412 4.7357 0.0000 -10655.9154 1410.1552 0.0000 0.0000 1730.0063 -7499.3925 294.2139 -9229.3988 -7511.4758 297.2784 -71.7738 -21.0009 30109.0612 1.4238 61.2187
ENERGY: 900000 2.1432 4.5085 3.4222 0.0000 -10689.9825 1372.4321 0.0000 0.0000 1754.1987 -7553.2778 298.3281 -9307.4765 -7498.6730 298.7048 -688.6883 -586.3930 30386.5099 -97.4684 -35.1286
ENERGY: 1200000 3.0082 3.4896 7.7108 0.0000 -10594.7308 1366.7984 0.0000 0.0000 1752.5057 -7461.2181 298.0402 -9213.7238 -7489.3958 299.2385 -507.2841 -495.0314 30933.1336 -52.8459 4.3811
ENERGY: 1500000 0.9071 3.0584 2.2945 0.0000 -10746.7667 1421.4276 0.0000 0.0000 1787.8178 -7531.2613 304.0456 -9319.0791 -7488.4425 299.7806 -459.2155 -332.1405 30561.1187 -55.0054 7.7696
TCL: Running FEP window  16: Lambda1 0.7500000000000001 Lambda2 0.8000000000000002 [dLambda 0.050000000000000044]
TCL: Setting parameter firsttimestep to 0
TCL: Setting parameter alchLambda to 0.7500000000000001
Info: NONBONDED TABLE R-SQUARED SPACING: 0.0625
Info: NONBONDED TABLE SIZE: 705 POINTS
TCL: Setting parameter alchLambda2 to 0.8000000000000002
Info: NONBONDED TABLE R-SQUARED SPACING: 0.0625
Info: NONBONDED TABLE SIZE: 705 POINTS
TCL: Running for 1500000 steps
ETITLE: TS BOND ANGLE DIHED IMPRP ELECT VDW BOUNDARY MISC KINETIC TOTAL TEMP POTENTIAL TOTALAVG TEMPAVG PRESSURE GPRESSURE VOLUME PRESSAVG GPRESSAVG
ENERGY: 0 0.9071 3.0584 2.2945 0.0000 -10746.5337 1420.8730 0.0000 0.0000 1786.9395 -7532.4611 303.8962 -9319.4006 -7532.4611 303.8962 -414.6528 -331.0649 30561.1187 -414.6528 -331.0649
ENERGY: 300000 1.4478 9.3285 1.8363 0.0000 -10761.0174 1481.9869 0.0000 0.0000 1741.3045 -7525.1135 296.1353 -9266.4180 -7519.8564 297.6173 335.5133 357.8556 30168.7483 -231.2066 -173.0809
ENERGY: 600000 1.0811 6.8389 2.3307 0.0000 -10800.4790 1524.2249 0.0000 0.0000 1713.9150 -7552.0884 291.4773 -9266.0034 -7489.1003 299.7302 566.4589 655.2069 30162.8984 -46.8445 24.3192
ENERGY: 900000 1.4509 10.8552 2.0921 0.0000 -10748.1240 1488.2662 0.0000 0.0000 1709.4454 -7536.0141 290.7171 -9245.4595 -7502.2990 298.2112 331.5861 384.1260 30401.7002 -74.7022 -7.7879
ENERGY: 1200000 0.8286 5.7166 2.5427 0.0000 -10738.0992 1453.5413 0.0000 0.0000 1761.1510 -7514.3189 299.5105 -9275.4700 -7505.6089 298.4416 218.4751 224.5335 30332.7656 39.2985 100.1980
ENERGY: 1500000 0.4422 5.9274 2.6734 0.0000 -10755.6264 1423.1002 0.0000 0.0000 1828.6019 -7494.8813 310.9815 -9323.4832 -7510.2790 299.4334 -52.4605 -24.3050 30067.8259 29.9901 88.7234
TCL: Running FEP window  17: Lambda1 0.8000000000000002 Lambda2 0.8500000000000002 [dLambda 0.050000000000000044]
TCL: Setting parameter firsttimestep to 0
TCL: Setting parameter alchLambda to 0.8000000000000002
Info: NONBONDED TABLE R-SQUARED SPACING: 0.0625
Info: NONBONDED TABLE SIZE: 705 POINTS
TCL: Setting parameter alchLambda2 to 0.8500000000000002
Info: NONBONDED TABLE R-SQUARED SPACING: 0.0625
Info: NONBONDED TABLE SIZE: 705 POINTS
TCL: Running for 1500000 steps
ETITLE: TS BOND ANGLE DIHED IMPRP ELECT VDW BOUNDARY MISC KINETIC TOTAL TEMP POTENTIAL TOTALAVG TEMPAVG PRESSURE GPRESSURE VOLUME PRESSAVG GPRESSAVG
ENERGY: 0 0.4422 5.9274 2.6734 0.0000 -10756.8795 1424.0735 0.0000 0.0000 1827.7378 -7496.0252 310.8346 -9323.7629 -7496.0252 310.8346 -78.6253 -6.6102 30067.8259 -78.6253 -6.6102
ENERGY: 300000 0.8969 4.8330 2.7052 0.0000 -10810.7551 1504.8126 0.0000 0.0000 1749.3622 -7548.1452 297.5056 -9297.5074 -7499.6255 305.6601 375.7017 471.0436 30335.7244 156.8154 225.8342
ENERGY: 600000 0.6303 7.4812 3.0433 0.0000 -10588.1355 1309.9473 0.0000 0.0000 1727.3637 -7539.6697 293.7644 -9267.0334 -7508.5425 300.4448 -1058.4527 -1010.1669 30450.7308 -205.1123 -143.5268
ENERGY: 900000 1.9626 4.9062 2.5677 0.0000 -10840.2466 1494.9775 0.0000 0.0000 1814.2188 -7521.6137 308.5355 -9335.8325 -7505.6139 299.9576 499.2444 592.3359 29856.5378 -45.1303 12.2856
ENERGY: 1200000 1.3591 7.5946 3.9853 0.0000 -10742.7893 1460.7392 0.0000 0.0000 1762.1821 -7506.9291 299.6858 -9269.1112 -7501.8162 300.4583 152.3543 224.6029 30380.1388 -101.7196 -39.1258
ENERGY: 1500000 1.2121 3.3252 2.4066 0.0000 -10868.5132 1551.1447 0.0000 0.0000 1787.9173 -7522.5073 304.0625 -9310.4246 -7494.9663 301.2555 984.9335 1037.9142 29997.1348 -8.5437 56.2032
TCL: Running FEP window  18: Lambda1 0.8500000000000002 Lambda2 0.9000000000000002 [dLambda 0.050000000000000044]
TCL: Setting parameter firsttimestep to 0
TCL: Setting parameter alchLambda to 0.8500000000000002
Info: NONBONDED TABLE R-SQUARED SPACING: 0.0625
Info: NONBONDED TABLE SIZE: 705 POINTS
TCL: Setting parameter alchLambda2 to 0.9000000000000002
Info: NONBONDED TABLE R-SQUARED SPACING: 0.0625
Info: NONBONDED TABLE SIZE: 705 POINTS
TCL: Running for 1500000 steps
ETITLE: TS BOND ANGLE DIHED IMPRP ELECT VDW BOUNDARY MISC KINETIC TOTAL TEMP POTENTIAL TOTALAVG TEMPAVG PRESSURE GPRESSURE VOLUME PRESSAVG GPRESSAVG
ENERGY: 0 1.2121 3.3252 2.4066 0.0000 -10869.9063 1552.0805 0.0000 0.0000 1787.0199 -7523.8619 303.9099 -9310.8819 -7523.8619 303.9099 978.2583 1056.9026 29997.1348 978.2583 1056.9026
ENERGY: 300000 3.4604 8.5252 1.8202 0.0000 -10585.0925 1408.0095 0.0000 0.0000 1784.8728 -7378.4044 303.5447 -9163.2772 -7471.2405 299.2344 168.5555 234.1723 30235.5157 -244.9773 -179.9375
ENERGY: 600000 1.7429 5.2804 2.6977 0.0000 -10850.2954 1508.0983 0.0000 0.0000 1799.6146 -7532.8617 306.0518 -9332.4762 -7486.6828 300.8311 440.1508 556.6188 30153.8268 2.0274 82.9324
ENERGY: 900000 0.7805 5.2631 2.4704 0.0000 -10719.1138 1401.3929 0.0000 0.0000 1749.3195 -7559.8874 297.4984 -9309.2069 -7507.2947 300.2850 -271.7406 -189.9021 30017.2440 33.7478 118.2559
ENERGY: 1200000 1.6501 6.2199 3.0868 0.0000 -10624.5583 1417.4990 0.0000 0.0000 1758.0210 -7438.0815 298.9782 -9196.1025 -7495.6547 300.9023 256.6409 287.4185 30319.1364 -6.5030 70.9838
ENERGY: 1500000 2.0556 8.2754 3.1252 0.0000 -10552.4453 1390.7056 0.0000 0.0000 1783.4216 -7364.8618 303.2979 -9148.2834 -7485.0668 301.1962 -269.5369 -257.3497 30961.5022 -46.0170 23.0082
TCL: Running FEP window  19: Lambda1 0.9000000000000002 Lambda2 0.9500000000000003 [dLambda 0.050000000000000044]
TCL: Setting parameter firsttimestep to 0
TCL: Setting parameter alchLambda to 0.9000000000000002
Info: NONBONDED TABLE R-SQUARED SPACING: 0.0625
Info: NONBONDED TABLE SIZE: 705 POINTS
TCL: Setting parameter alchLambda2 to 0.9500000000000003
Info: NONBONDED TABLE R-SQUARED SPACING: 0.0625
Info: NONBONDED TABLE SIZE: 705 POINTS
TCL: Running for 1500000 steps
ETITLE: TS BOND ANGLE DIHED IMPRP ELECT VDW BOUNDARY MISC KINETIC TOTAL TEMP POTENTIAL TOTALAVG TEMPAVG PRESSURE GPRESSURE VOLUME PRESSAVG GPRESSAVG
ENERGY: 0 2.0556 8.2754 3.1252 0.0000 -10553.3478 1391.0410 0.0000 0.0000 1782.5230 -7366.3276 303.1451 -9148.8506 -7366.3276 303.1451 -325.4907 -246.4370 30961.5022 -325.4907 -246.4370
ENERGY: 300000 1.0577 4.7380 3.5979 0.0000 -10725.3509 1446.1177 0.0000 0.0000 1734.0112 -7535.8283 294.8949 -9269.8395 -7466.2115 299.3657 85.4494 118.0340 30447.5182 39.2356 103.2647
ENERGY: 600000 3.0975 8.5887 2.3555 0.0000 -10704.7079 1368.7856 0.0000 0.0000 1792.2884 -7529.5921 304.8059 -9321.8805 -7488.6168 298.9387 -570.1570 -515.3122 30017.4029 -110.0993 -46.8890
ENERGY: 900000 2.8588 5.1992 2.3177 0.0000 -10666.1618 1440.6100 0.0000 0.0000 1818.0795 -7397.0966 309.1920 -9215.1761 -7468.6155 301.6905 -118.5824 7.5818 30864.1103 4.3008 67.8967
ENERGY: 1200000 2.7800 7.1952 1.8788 0.0000 -10655.3975 1386.3416 0.0000 0.0000 1754.6631 -7502.5389 298.4071 -9257.2020 -7471.7833 301.1311 -431.3158 -354.0817 30206.3266 81.8785 151.1623
ENERGY: 1500000 0.1965 5.5097 3.0022 0.0000 -10625.7773 1390.2866 0.0000 0.0000 1758.9191 -7467.8631 299.1309 -9226.7822 -7476.0512 301.2658 -102.3772 -31.7059 30231.0152 68.0644 135.4334
TCL: Running FEP window  20: Lambda1 0.9500000000000003 Lambda2 1.0    [dLambda 0.04999999999999971]
TCL: Setting parameter firsttimestep to 0
TCL: Setting parameter alchLambda to 0.9500000000000003
Info: NONBONDED TABLE R-SQUARED SPACING: 0.0625
Info: NONBONDED TABLE SIZE: 705 POINTS
TCL: Setting parameter alchLambda2 to 1.0
Info: NONBONDED TABLE R-SQUARED SPACING: 0.0625
Info: NONBONDED TABLE SIZE: 705 POINTS
TCL: Running for 1500000 steps
ETITLE: TS BOND ANGLE DIHED IMPRP ELECT VDW BOUNDARY MISC KINETIC TOTAL TEMP POTENTIAL TOTALAVG TEMPAVG PRESSURE GPRESSURE VOLUME PRESSAVG GPRESSAVG
ENERGY: 0 0.1965 5.5097 3.0022 0.0000 -10626.9178 1390.4216 0.0000 0.0000 1758.0113 -7469.7765 298.9765 -9227.7878 -7469.7765 298.9765 -106.4513 -22.6475 30231.0152 -106.4513 -22.6475
ENERGY: 300000 4.1680 10.6395 3.3481 0.0000 -10558.2769 1374.5713 0.0000 0.0000 1694.7352 -7470.8147 288.2155 -9165.5499 -7510.0921 294.4789 -316.1828 -255.1134 30399.9848 -29.7075 46.5811
ENERGY: 600000 1.6489 7.4644 3.1729 0.0000 -10696.9229 1415.9036 0.0000 0.0000 1827.7129 -7441.0202 310.8303 -9268.7331 -7496.6178 299.7884 -311.7543 -238.8201 30388.0366 -21.3805 53.7969
ENERGY: 900000 0.9718 5.5460 2.4610 0.0000 -10742.6921 1437.6916 0.0000 0.0000 1786.6448 -7509.3768 303.8461 -9296.0216 -7494.9254 300.7224 37.2763 95.0267 30271.5662 -57.9597 11.2565
ENERGY: 1200000 1.2490 4.1888 3.3619 0.0000 -10659.8012 1469.4804 0.0000 0.0000 1750.1906 -7431.3305 297.6465 -9181.5211 -7492.0100 300.9789 578.9332 638.6390 30495.3292 -16.3132 45.6582
ENERGY: 1500000 2.0910 4.8407 2.3805 0.0000 -10815.8241 1477.5365 0.0000 0.0000 1748.5369 -7580.4384 297.3653 -9328.9753 -7494.4514 300.7490 -45.9309 23.0584 30612.9549 -25.1733 31.5878
TCL: Exiting due to exit command.
