Info: SIMULATION PARAMETERS:
Info: TIMESTEP               2
Info: NUMBER OF STEPS        0
Info: STEPS PER CYCLE        10
Info: PERIODIC CELL BASIS 1  31.0849 0 0
Info: PERIODIC CELL BASIS 2  0 30.419 0
Info: PERIODIC CELL BASIS 3  0 0 32.1406
Info: PERIODIC CELL CENTER   0 0 0
Info: WRAPPING WATERS AROUND PERIODIC BOUNDARIES ON OUTPUT.
Info: WRAPPING ALL CLUSTERS AROUND PERIODIC BOUNDARIES ON OUTPUT.
Info: FIRST LDB TIMESTEP     50
Info: LAST LDB TIMESTEP     -1
Info: HOM BACKGROUND SCALING 1
Info: PME BACKGROUND SCALING 1
Info: MIN ATOMS PER PATCH    40
Info: EMPTY PATCH LOAD       40 ATOMS
Info: VELOCITY FILE          mobley_2422586_equil.vel
Info: CENTER OF MASS MOVING INITIALLY? NO
Info: DIELECTRIC             1
Info: EXCLUDE                SCALED ONE-FOUR
Info: 1-4 ELECTROSTATICS SCALED BY 0.833333
Info: MODIFIED 1-4 VDW PARAMETERS WILL BE USED
Info: DCD FILENAME           mobley_2422586_prod.dcd
Info: DCD FREQUENCY          100000
Info: DCD FIRST STEP         100000
Info: DCD FILE WILL CONTAIN UNIT CELL DATA
Info: XST FILENAME           mobley_2422586_prod.xst
Info: XST FREQUENCY          100000
Info: NO VELOCITY DCD OUTPUT
Info: NO FORCE DCD OUTPUT
Info: OUTPUT FILENAME        mobley_2422586_prod
Info: BINARY OUTPUT FILES WILL BE USED
Info: RESTART FILENAME       mobley_2422586_prod.restart
Info: RESTART FREQUENCY      100000
Info: BINARY RESTART FILES WILL BE USED
Info: CUTOFF                 9
Info: PAIRLIST DISTANCE      11
Info: PAIRLIST SHRINK RATE   0.01
Info: PAIRLIST GROW RATE     0.01
Info: PAIRLIST TRIGGER       0.3
Info: PAIRLISTS PER CYCLE    2
Info: PAIRLISTS ENABLED
Info: MARGIN                 2
Info: HYDROGEN GROUP CUTOFF  2.5
Info: PATCH DIMENSION        15.5
Info: ENERGY OUTPUT STEPS    100000
Info: ENERGY EVALUATION STEPS    100000
Info: OUTPUT ENERGY PRECISION 4
Info: CROSSTERM ENERGY INCLUDED IN DIHEDRAL
Info: TIMING OUTPUT STEPS    1000000
Info: PRESSURE OUTPUT STEPS  100000
Info: ALCHEMICAL FEP ON
Info: FEP CURRENT LAMBDA VALUE     0
Info: FEP COMPARISON LAMBDA VALUE  0.05
Info: FEP INTRA-ALCHEMICAL NON-BONDED INTERACTIONS WILL BE RETAINED
Info: FEP INTRA-ALCHEMICAL BONDED INTERACTIONS WILL BE RETAINED
Info: FEP VDW SHIFTING COEFFICIENT 5
Info: FEP ELEC. ACTIVE FOR ANNIHILATED PARTICLES BETWEEN LAMBDA = 0 AND LAMBDA = 0.5
Info: FEP ELEC. ACTIVE FOR EXNIHILATED PARTICLES BETWEEN LAMBDA = 0.5 AND LAMBDA = 1
Info: FEP VDW ACTIVE FOR ANNIHILATED PARTICLES BETWEEN LAMBDA = 0 AND LAMBDA = 1
Info: FEP VDW ACTIVE FOR EXNIHILATED PARTICLES BETWEEN LAMBDA = 0 AND LAMBDA = 1
Info: FEP BOND ACTIVE FOR ANNIHILATED PARTICLES BETWEEN LAMBDA = 1 AND LAMBDA = 1
Info: FEP BOND ACTIVE FOR EXNIHILATED PARTICLES BETWEEN LAMBDA = 0 AND LAMBDA = 0
Info: LANGEVIN DYNAMICS ACTIVE
Info: LANGEVIN TEMPERATURE   300
Info: LANGEVIN USING BBK INTEGRATOR
Info: LANGEVIN DAMPING COEFFICIENT IS 1 INVERSE PS
Info: LANGEVIN DYNAMICS APPLIED TO HYDROGENS
Info: LANGEVIN PISTON PRESSURE CONTROL ACTIVE
Info:        TARGET PRESSURE IS 1.01325 BAR
Info:     OSCILLATION PERIOD IS 50 FS
Info:             DECAY TIME IS 25 FS
Info:     PISTON TEMPERATURE IS 300 K
Info:       PRESSURE CONTROL IS GROUP-BASED
Info:    INITIAL STRAIN RATE IS -0.00041515 -0.00041515 -0.00041515
Info:       CELL FLUCTUATION IS ISOTROPIC
Info: PARTICLE MESH EWALD (PME) ACTIVE
Info: PME TOLERANCE               1e-06
Info: PME EWALD COEFFICIENT       0.348832
Info: PME INTERPOLATION ORDER     4
Info: PME GRID DIMENSIONS         32 32 36
Info: PME MAXIMUM GRID SPACING    1
Info: PME CALCULATION WILL BE PERFORMED ON GPU
Info: FULL ELECTROSTATIC EVALUATION FREQUENCY      2
Info: USING VERLET I (r-RESPA) MTS SCHEME.
Info: C1 SPLITTING OF LONG RANGE ELECTROSTATICS
Info: PLACING ATOMS IN PATCHES BY HYDROGEN GROUPS
Info: RIGID BONDS TO HYDROGEN : ALL
Info:         ERROR TOLERANCE : 1e-08
Info:          MAX ITERATIONS : 100
Info: RIGID WATER USING SETTLE ALGORITHM
Info: RANDOM NUMBER SEED     1743839248
Info: USE HYDROGEN BONDS?    NO
Info: Using AMBER format force field!
Info: AMBER PARM FILE        mobley_2422586.prmtop
Info: COORDINATE PDB         mobley_2422586.pdb
Info: Exclusions will be read from PARM file!
Info: SCNB (VDW SCALING)     2
Info: USING ARITHMETIC MEAN TO COMBINE L-J SIGMA PARAMETERS
Info: BINARY COORDINATES     mobley_2422586_equil.coor
Info: SUMMARY OF PARAMETERS:
Info: 6 BONDS
Info: 8 ANGLES
Info:   8 HARMONIC
Info:   0 COSINE-BASED
Info: 8 DIHEDRAL
Info: 0 IMPROPER
Info: 0 CROSSTERM
Info: 0 VDW
Info: 21 VDW_PAIRS
Info: 0 NBTHOLE_PAIRS
Info: To read alchdata from file: mobley_2422586.pdb
Info: To read alchflag data from column: 5
Info: STRUCTURE SUMMARY:
Info: 2973 ATOMS
Info: 2972 BONDS
Info: 25 ANGLES
Info: 27 DIHEDRALS
Info: 0 IMPROPERS
Info: 0 CROSSTERMS
Info: 3021 EXCLUSIONS
Info: 2968 RIGID BONDS
Info: ALCH: 0 ATOMS TO DISAPPEAR IN FINAL STATE
Info: ALCH: 15 ATOMS TO APPEAR IN FINAL STATE
Info: 5951 DEGREES OF FREEDOM
Info: 991 HYDROGEN GROUPS
Info: 4 ATOMS IN LARGEST HYDROGEN GROUP
Info: 991 MIGRATION GROUPS
Info: 4 ATOMS IN LARGEST MIGRATION GROUP
Info: TOTAL MASS = 17837.9 amu
Info: TOTAL CHARGE = 7.45058e-09 e
Info: MASS DENSITY = 0.974663 g/cm^3
Info: ATOM DENSITY = 0.0978242 atoms/A^3
Info: ADDED 0 IMPLICIT EXCLUSIONS
Info: NONBONDED TABLE R-SQUARED SPACING: 0.0625
Info: NONBONDED TABLE SIZE: 705 POINTS
Info: REMOVING COM VELOCITY 0.0246648 0.0746558 0.00451518
Info: Use 3D box decompostion in PME FFT.
Info: Updated CUDA force table with 4096 elements.
Info: Updated CUDA LJ table with 6 x 6 elements.
Info: Found 18 unique exclusion lists needing 40 bytes
TCL: Running for 1500000 steps
ETITLE: TS BOND ANGLE DIHED IMPRP ELECT VDW BOUNDARY MISC KINETIC TOTAL TEMP POTENTIAL TOTALAVG TEMPAVG PRESSURE GPRESSURE VOLUME PRESSAVG GPRESSAVG
ENERGY: 0 1.5468 6.0851 1.5458 0.0000 -10819.7672 1491.7257 0.0000 0.0000 1804.6108 -7514.2531 305.1996 -9318.8639 -7514.2531 305.1996 265.5717 341.6417 30391.2431 265.5717 341.6417
ENERGY: 300000 0.8953 6.3615 1.1783 0.0000 -10618.1137 1362.1497 0.0000 0.0000 1753.8353 -7493.6935 296.6124 -9247.5288 -7520.0939 300.7965 -649.6001 -586.5161 30747.0106 74.3689 155.2608
ENERGY: 600000 1.1617 5.9656 1.7893 0.0000 -10635.9675 1402.1497 0.0000 0.0000 1778.9077 -7445.9935 300.8527 -9224.9012 -7495.8572 301.2550 -172.4636 -117.3467 30505.4109 34.9714 110.4283
ENERGY: 900000 0.1293 9.6073 3.9397 0.0000 -10631.8196 1365.5179 0.0000 0.0000 1804.3412 -7448.2842 305.1540 -9252.6254 -7498.0801 301.1199 -544.4568 -479.9347 30646.0179 105.9456 168.9631
ENERGY: 1200000 1.1437 15.3215 2.4348 0.0000 -10721.4244 1418.7263 0.0000 0.0000 1784.1453 -7499.6528 301.7385 -9283.7981 -7496.6820 301.2376 -291.3235 -234.0529 30484.6913 110.2128 172.7771
ENERGY: 1500000 0.7764 7.2131 1.7748 0.0000 -10757.3240 1445.9353 0.0000 0.0000 1762.3250 -7539.2994 298.0482 -9301.6244 -7501.2766 301.3813 -78.9264 53.9803 30349.9833 182.5484 251.2007
TCL: Running FEP window   2: Lambda1 0.05   Lambda2 0.1    [dLambda 0.05  ]
TCL: Setting parameter firsttimestep to 0
TCL: Setting parameter alchLambda to 0.05
Info: NONBONDED TABLE R-SQUARED SPACING: 0.0625
Info: NONBONDED TABLE SIZE: 705 POINTS
TCL: Setting parameter alchLambda2 to 0.1
Info: NONBONDED TABLE R-SQUARED SPACING: 0.0625
Info: NONBONDED TABLE SIZE: 705 POINTS
TCL: Running for 1500000 steps
ETITLE: TS BOND ANGLE DIHED IMPRP ELECT VDW BOUNDARY MISC KINETIC TOTAL TEMP POTENTIAL TOTALAVG TEMPAVG PRESSURE GPRESSURE VOLUME PRESSAVG GPRESSAVG
ENERGY: 0 0.7764 7.2131 1.7748 0.0000 -10757.3247 1449.2250 0.0000 0.0000 1761.4208 -7536.9146 297.8952 -9298.3354 -7536.9146 297.8952 -22.7173 61.4265 30349.9833 -22.7173 61.4265
ENERGY: 300000 0.8781 5.2107 3.1185 0.0000 -10809.2440 1526.5169 0.0000 0.0000 1777.5434 -7495.9764 300.6219 -9273.5198 -7517.0885 298.4205 542.3908 544.2701 30791.7215 -168.4922 -133.4159
ENERGY: 600000 2.4517 7.7909 1.1530 0.0000 -10691.7698 1420.9944 0.0000 0.0000 1828.7611 -7430.6187 309.2840 -9259.3798 -7503.7445 302.3084 -175.5068 -80.1377 30576.6707 -57.2903 -5.7745
ENERGY: 900000 2.3349 6.8889 1.2688 0.0000 -10757.8537 1444.8407 0.0000 0.0000 1802.9393 -7499.5811 304.9169 -9302.5204 -7502.8727 302.5848 -0.7443 47.0046 30307.1395 -51.7563 2.3138
ENERGY: 1200000 2.7097 6.3095 1.7399 0.0000 -10869.2718 1483.5620 0.0000 0.0000 1784.1842 -7590.7666 301.7450 -9374.9508 -7509.9712 301.6767 214.4501 242.3352 30246.3564 -46.9599 0.6492
ENERGY: 1500000 0.6144 4.7834 0.9400 0.0000 -10723.8651 1425.1969 0.0000 0.0000 1801.7888 -7490.5416 304.7223 -9292.3303 -7517.3105 301.1844 -336.2695 -309.8522 30905.6973 -88.2571 -39.5767
TCL: Running FEP window   3: Lambda1 0.1    Lambda2 0.15000000000000002 [dLambda 0.05000000000000002]
TCL: Setting parameter firsttimestep to 0
TCL: Setting parameter alchLambda to 0.1
Info: NONBONDED TABLE R-SQUARED SPACING: 0.0625
Info: NONBONDED TABLE SIZE: 705 POINTS
TCL: Setting parameter alchLambda2 to 0.15000000000000002
Info: NONBONDED TABLE R-SQUARED SPACING: 0.0625
Info: NONBONDED TABLE SIZE: 705 POINTS
TCL: Running for 1500000 steps
ETITLE: TS BOND ANGLE DIHED IMPRP ELECT VDW BOUNDARY MISC KINETIC TOTAL TEMP POTENTIAL TOTALAVG TEMPAVG PRESSURE GPRESSURE VOLUME PRESSAVG GPRESSAVG
ENERGY: 0 0.6144 4.7834 0.9400 0.0000 -10723.8653 1425.3921 0.0000 0.0000 1800.8974 -7491.2378 304.5716 -9292.1352 -7491.2378 304.5716 -398.9864 -307.3843 30905.6973 -398.9864 -307.3843
ENERGY: 300000 2.6886 5.9958 0.9744 0.0000 -10693.7585 1386.0245 0.0000 0.0000 1787.0648 -7511.0105 302.2322 -9298.0753 -7496.6170 302.7914 -710.5469 -584.3243 30555.3376 -478.4582 -391.2524
ENERGY: 600000 0.8592 7.9533 0.9127 0.0000 -10673.7923 1369.4842 0.0000 0.0000 1804.8689 -7489.7139 305.2433 -9294.5829 -7515.4838 301.3180 -498.9398 -473.5312 30670.0539 -65.8395 -10.3265
ENERGY: 900000 3.9224 5.8407 1.5134 0.0000 -10963.3674 1515.2090 0.0000 0.0000 1770.1244 -7666.7575 299.3672 -9436.8819 -7539.0653 299.8856 288.1558 283.1482 30182.0178 -54.4691 -8.6625
ENERGY: 1200000 0.7441 7.3643 1.1901 0.0000 -10914.5003 1549.2689 0.0000 0.0000 1807.6853 -7548.2476 305.7196 -9355.9329 -7539.9988 300.0852 945.3270 941.6713 30201.7098 -38.2819 5.6671
ENERGY: 1500000 0.8799 4.2313 0.6662 0.0000 -10728.9327 1418.9705 0.0000 0.0000 1805.6100 -7498.5747 305.3686 -9304.1847 -7544.4592 300.8140 -165.3917 -40.9084 30441.5612 -112.6890 -61.2403
TCL: Running FEP window   4: Lambda1 0.15000000000000002 Lambda2 0.2    [dLambda 0.04999999999999999]
TCL: Setting parameter firsttimestep to 0
TCL: Setting parameter alchLambda to 0.15000000000000002
Info: NONBONDED TABLE R-SQUARED SPACING: 0.0625
Info: NONBONDED TABLE SIZE: 705 POINTS
TCL: Setting parameter alchLambda2 to 0.2
Info: NONBONDED TABLE R-SQUARED SPACING: 0.0625
Info: NONBONDED TABLE SIZE: 705 POINTS
TCL: Running for 1500000 steps
ETITLE: TS BOND ANGLE DIHED IMPRP ELECT VDW BOUNDARY MISC KINETIC TOTAL TEMP POTENTIAL TOTALAVG TEMPAVG PRESSURE GPRESSURE VOLUME PRESSAVG GPRESSAVG
ENERGY: 0 0.8799 4.2313 0.6662 0.0000 -10728.9328 1420.2118 0.0000 0.0000 1804.7433 -7498.2003 305.2220 -9302.9436 -7498.2003 305.2220 -133.0212 -34.1896 30441.5612 -133.0212 -34.1896
ENERGY: 300000 1.9125 5.7563 1.9230 0.0000 -10597.0592 1341.5423 0.0000 0.0000 1809.2777 -7436.6473 305.9889 -9245.9251 -7489.0074 305.2788 -549.0643 -484.1336 30453.3365 -140.9448 -47.4449
ENERGY: 600000 1.7523 4.9822 0.9570 0.0000 -10837.1796 1509.6369 0.0000 0.0000 1775.0772 -7544.7740 300.2048 -9319.8511 -7533.1422 300.7673 216.3105 314.9163 30639.8240 -167.8371 -80.5917
ENERGY: 900000 2.4652 8.4802 1.3789 0.0000 -10713.3156 1413.1198 0.0000 0.0000 1707.6187 -7580.2528 288.7961 -9287.8715 -7521.3250 302.1777 -511.5781 -482.3672 30802.6632 -32.3031 46.9928
ENERGY: 1200000 2.1480 3.2616 1.0716 0.0000 -10686.8304 1425.9079 0.0000 0.0000 1732.4346 -7522.0066 292.9930 -9254.4412 -7514.9392 301.3994 -380.9364 -313.9392 31057.9578 -129.1951 -48.2104
ENERGY: 1500000 0.6105 4.3220 3.5092 0.0000 -10555.7247 1296.3936 0.0000 0.0000 1771.1740 -7479.7153 299.5447 -9250.8893 -7519.9352 301.0682 -839.9720 -870.8813 30470.1478 -163.7714 -90.9307
TCL: Running FEP window   5: Lambda1 0.2    Lambda2 0.25   [dLambda 0.04999999999999999]
TCL: Setting parameter firsttimestep to 0
TCL: Setting parameter alchLambda to 0.2
Info: NONBONDED TABLE R-SQUARED SPACING: 0.0625
Info: NONBONDED TABLE SIZE: 705 POINTS
TCL: Setting parameter alchLambda2 to 0.25
Info: NONBONDED TABLE R-SQUARED SPACING: 0.0625
Info: NONBONDED TABLE SIZE: 705 POINTS
TCL: Running for 1500000 steps
ETITLE: TS BOND ANGLE DIHED IMPRP ELECT VDW BOUNDARY MISC KINETIC TOTAL TEMP POTENTIAL TOTALAVG TEMPAVG PRESSURE GPRESSURE VOLUME PRESSAVG GPRESSAVG
ENERGY: 0 0.6105 4.3220 3.5092 0.0000 -10555.7250 1296.5085 0.0000 0.0000 1770.2563 -7480.5184 299.3895 -9250.7747 -7480.5184 299.3895 -955.2619 -868.0894 30470.1478 -955.2619 -868.0894
ENERGY: 300000 0.7678 5.6414 3.1388 0.0000 -10852.0622 1462.0563 0.0000 0.0000 1745.3284 -7635.1295 295.1737 -9380.4579 -7523.9050 299.8641 63.1839 148.8915 29887.2247 -408.5065 -314.4007
ENERGY: 600000 0.9191 4.4214 1.9018 0.0000 -10825.7391 1475.7631 0.0000 0.0000 1754.5035 -7588.2303 296.7254 -9342.7337 -7535.4465 301.4799 27.9804 110.1177 30557.9763 -180.2411 -111.9063
ENERGY: 900000 0.7253 9.4354 1.6120 0.0000 -10937.4519 1545.8462 0.0000 0.0000 1786.9058 -7592.9270 302.2053 -9379.8329 -7537.7141 302.0096 274.8081 309.2391 30776.1838 25.1787 83.3413
ENERGY: 1200000 0.7968 8.2339 2.8831 0.0000 -10895.8835 1544.8675 0.0000 0.0000 1794.3427 -7544.7595 303.4631 -9339.1022 -7542.9725 302.0662 623.2266 623.9976 30803.1371 78.4292 127.6087
ENERGY: 1500000 0.5670 7.2310 6.5697 0.0000 -10775.6055 1424.2065 0.0000 0.0000 1719.5035 -7617.5278 290.8061 -9337.0314 -7543.4064 300.9561 -343.2478 -249.3673 30239.9588 -12.1576 36.8518
TCL: Running FEP window   6: Lambda1 0.25   Lambda2 0.3    [dLambda 0.04999999999999999]
TCL: Setting parameter firsttimestep to 0
TCL: Setting parameter alchLambda to 0.25
Info: NONBONDED TABLE R-SQUARED SPACING: 0.0625
Info: NONBONDED TABLE SIZE: 705 POINTS
TCL: Setting parameter alchLambda2 to 0.3
Info: NONBONDED TABLE R-SQUARED SPACING: 0.0625
Info: NONBONDED TABLE SIZE: 705 POINTS
TCL: Running for 1500000 steps
ETITLE: TS BOND ANGLE DIHED IMPRP ELECT VDW BOUNDARY MISC KINETIC TOTAL TEMP POTENTIAL TOTALAVG TEMPAVG PRESSURE GPRESSURE VOLUME PRESSAVG GPRESSAVG
ENERGY: 0 0.5670 7.2310 6.5697 0.0000 -10775.6050 1425.4715 0.0000 0.0000 1718.6418 -7617.1240 290.6604 -9335.7658 -7617.1240 290.6604 -322.8291 -240.9218 30239.9588 -322.8291 -240.9218
ENERGY: 300000 0.1085 8.8565 1.1358 0.0000 -10787.6156 1461.8408 0.0000 0.0000 1701.7895 -7613.8846 287.8103 -9315.6741 -7558.4452 294.5511 -28.9122 -6.2220 30948.2961 -112.2635 -49.1565
ENERGY: 600000 1.6104 5.1761 1.8882 0.0000 -10834.1337 1465.8140 0.0000 0.0000 1773.6587 -7585.9864 299.9649 -9359.6451 -7543.3324 295.5349 94.3909 122.3192 30392.0527 -64.6190 -6.5766
ENERGY: 900000 2.4847 9.7889 1.0070 0.0000 -10748.4194 1482.6401 0.0000 0.0000 1785.3217 -7467.1770 301.9374 -9252.4988 -7547.9053 295.7504 392.0948 455.8613 30282.1957 -115.3285 -53.1442
ENERGY: 1200000 1.1502 10.0039 1.3962 0.0000 -10669.3006 1373.3622 0.0000 0.0000 1754.0985 -7529.2896 296.6569 -9283.3880 -7541.3719 296.0788 -545.2540 -467.8690 30586.9132 -111.5979 -46.3171
ENERGY: 1500000 1.9005 5.7323 1.3004 0.0000 -10613.3515 1383.3968 0.0000 0.0000 1757.8633 -7463.1582 297.2936 -9221.0215 -7541.1935 296.2097 -494.9581 -416.0682 30988.0610 -33.7316 25.1037
TCL: Running FEP window   7: Lambda1 0.3    Lambda2 0.35   [dLambda 0.04999999999999999]
TCL: Setting parameter firsttimestep to 0
TCL: Setting parameter alchLambda to 0.3
Info: NONBONDED TABLE R-SQUARED SPACING: 0.0625
Info: NONBONDED TABLE SIZE: 705 POINTS
TCL: Setting parameter alchLambda2 to 0.35
Info: NONBONDED TABLE R-SQUARED SPACING: 0.0625
Info: NONBONDED TABLE SIZE: 705 POINTS
TCL: Running for 1500000 steps
ETITLE: TS BOND ANGLE DIHED IMPRP ELECT VDW BOUNDARY MISC KINETIC TOTAL TEMP POTENTIAL TOTALAVG TEMPAVG PRESSURE GPRESSURE VOLUME PRESSAVG GPRESSAVG
ENERGY: 0 1.9005 5.7323 1.3004 0.0000 -10613.3520 1383.5870 0.0000 0.0000 1756.9988 -7463.8330 297.1474 -9220.8317 -7463.8330 297.1474 -494.4689 -413.1270 30988.0610 -494.4689 -413.1270
ENERGY: 300000 3.2096 10.2151 3.1971 0.0000 -10737.5334 1478.5263 0.0000 0.0000 1807.6963 -7434.6890 305.7214 -9242.3853 -7494.3557 300.9385 232.1210 330.1981 30649.4290 -27.1255 39.6311
ENERGY: 600000 0.2748 6.5331 1.3557 0.0000 -10759.5978 1423.7807 0.0000 0.0000 1729.6329 -7598.0206 292.5192 -9327.6535 -7525.2254 299.4690 -455.8748 -429.0651 30944.2525 51.0821 120.6630
ENERGY: 900000 0.9000 10.1554 1.2706 0.0000 -10757.3551 1484.4300 0.0000 0.0000 1807.1014 -7453.4976 305.6208 -9260.5990 -7515.8273 299.4215 266.8874 350.2974 30469.3718 112.0003 185.4029
ENERGY: 1200000 2.2719 4.6730 1.1380 0.0000 -10759.1076 1469.1757 0.0000 0.0000 1815.5042 -7466.3446 307.0419 -9281.8489 -7511.8201 300.0397 449.3698 436.5469 30411.0872 141.5259 209.3825
ENERGY: 1500000 6.3984 6.8264 2.3491 0.0000 -10696.4368 1358.0039 0.0000 0.0000 1728.1612 -7594.6977 292.2703 -9322.8589 -7521.0194 299.2689 -853.3430 -804.2815 30475.7055 47.4705 113.5340
TCL: Running FEP window   8: Lambda1 0.35   Lambda2 0.39999999999999997 [dLambda 0.04999999999999999]
TCL: Setting parameter firsttimestep to 0
TCL: Setting parameter alchLambda to 0.35
Info: NONBONDED TABLE R-SQUARED SPACING: 0.0625
Info: NONBONDED TABLE SIZE: 705 POINTS
TCL: Setting parameter alchLambda2 to 0.39999999999999997
Info: NONBONDED TABLE R-SQUARED SPACING: 0.0625
Info: NONBONDED TABLE SIZE: 705 POINTS
TCL: Running for 1500000 steps
ETITLE: TS BOND ANGLE DIHED IMPRP ELECT VDW BOUNDARY MISC KINETIC TOTAL TEMP POTENTIAL TOTALAVG TEMPAVG PRESSURE GPRESSURE VOLUME PRESSAVG GPRESSAVG
ENERGY: 0 6.3984 6.8264 2.3491 0.0000 -10696.4366 1358.9169 0.0000 0.0000 1727.2585 -7594.6872 292.1176 -9321.9457 -7594.6872 292.1176 -869.0207 -790.7358 30475.7055 -869.0207 -790.7358
ENERGY: 300000 1.4676 5.3919 0.6202 0.0000 -10648.3827 1400.0844 0.0000 0.0000 1798.6428 -7442.1757 304.1903 -9240.8186 -7543.4442 299.7442 -429.9759 -376.7339 30963.7790 -14.3346 35.0551
ENERGY: 600000 1.9174 4.0044 2.8009 0.0000 -10876.5435 1489.5397 0.0000 0.0000 1725.0389 -7653.2422 291.7422 -9378.2811 -7552.6871 298.9935 264.3387 305.2201 30074.7774 -41.3731 14.3832
ENERGY: 900000 1.7580 5.1423 1.1245 0.0000 -10720.3993 1451.9519 0.0000 0.0000 1783.7013 -7476.7214 301.6634 -9260.4227 -7544.1342 299.2632 218.4514 260.1288 30476.3924 44.3674 99.2243
ENERGY: 1200000 2.3440 4.6109 2.1578 0.0000 -10825.6895 1474.2442 0.0000 0.0000 1804.4449 -7537.8876 305.1716 -9342.3326 -7542.1383 299.3167 11.7627 133.1330 30584.1084 67.3156 133.4606
ENERGY: 1500000 1.1573 4.5280 0.6078 0.0000 -10749.7634 1447.6809 0.0000 0.0000 1779.8951 -7515.8943 301.0196 -9295.7894 -7534.0914 299.6651 76.3923 198.5061 30453.0357 96.5707 161.7015
TCL: Running FEP window   9: Lambda1 0.39999999999999997 Lambda2 0.44999999999999996 [dLambda 0.04999999999999999]
TCL: Setting parameter firsttimestep to 0
TCL: Setting parameter alchLambda to 0.39999999999999997
Info: NONBONDED TABLE R-SQUARED SPACING: 0.0625
Info: NONBONDED TABLE SIZE: 705 POINTS
TCL: Setting parameter alchLambda2 to 0.44999999999999996
Info: NONBONDED TABLE R-SQUARED SPACING: 0.0625
Info: NONBONDED TABLE SIZE: 705 POINTS
TCL: Running for 1500000 steps
ETITLE: TS BOND ANGLE DIHED IMPRP ELECT VDW BOUNDARY MISC KINETIC TOTAL TEMP POTENTIAL TOTALAVG TEMPAVG PRESSURE GPRESSURE VOLUME PRESSAVG GPRESSAVG
ENERGY: 0 1.1573 4.5280 0.6078 0.0000 -10749.7640 1448.7689 0.0000 0.0000 1779.0110 -7515.6910 300.8701 -9294.7019 -7515.6910 300.8701 120.6391 212.1424 30453.0357 120.6391 212.1424
ENERGY: 300000 0.5488 9.9210 1.3706 0.0000 -10939.3933 1527.1448 0.0000 0.0000 1769.8488 -7630.5594 299.3206 -9400.4083 -7576.1805 301.2963 539.9144 599.5281 29942.6233 294.3125 373.4187
ENERGY: 600000 0.6628 4.1252 5.4442 0.0000 -10721.8330 1415.3816 0.0000 0.0000 1751.9803 -7544.2388 296.2986 -9296.2191 -7571.3317 299.3235 -369.4400 -319.4691 30864.4636 2.2155 77.3189
ENERGY: 900000 0.4114 7.1763 1.0553 0.0000 -10852.0519 1484.9564 0.0000 0.0000 1768.4658 -7589.9867 299.0867 -9358.4524 -7561.7174 300.9683 9.3691 -37.3472 30980.3594 -13.4133 52.2468
ENERGY: 1200000 1.7531 4.6798 1.6872 0.0000 -10947.8046 1543.9531 0.0000 0.0000 1798.8383 -7596.8932 304.2234 -9395.7314 -7562.9590 301.3855 425.4511 523.5943 30438.8321 -11.6810 54.2866
ENERGY: 1500000 0.3494 4.7516 1.2901 0.0000 -10651.8170 1373.1922 0.0000 0.0000 1736.6824 -7535.5512 293.7114 -9272.2336 -7551.5209 301.4480 -584.6982 -541.5186 30677.0763 -30.0294 37.5257
TCL: Running FEP window  10: Lambda1 0.44999999999999996 Lambda2 0.49999999999999994 [dLambda 0.04999999999999999]
TCL: Setting parameter firsttimestep to 0
TCL: Setting parameter alchLambda to 0.44999999999999996
Info: NONBONDED TABLE R-SQUARED SPACING: 0.0625
Info: NONBONDED TABLE SIZE: 705 POINTS
TCL: Setting parameter alchLambda2 to 0.49999999999999994
Info: NONBONDED TABLE R-SQUARED SPACING: 0.0625
Info: NONBONDED TABLE SIZE: 705 POINTS
TCL: Running for 1500000 steps
ETITLE: TS BOND ANGLE DIHED IMPRP ELECT VDW BOUNDARY MISC KINETIC TOTAL TEMP POTENTIAL TOTALAVG TEMPAVG PRESSURE GPRESSURE VOLUME PRESSAVG GPRESSAVG
ENERGY: 0 0.3494 4.7516 1.2901 0.0000 -10651.8173 1374.1660 0.0000 0.0000 1735.7856 -7535.4745 293.5598 -9271.2601 -7535.4745 293.5598 -610.7310 -529.9027 30677.0763 -610.7310 -529.9027
ENERGY: 300000 1.3542 5.4933 1.2552 0.0000 -10781.8631 1438.5836 0.0000 0.0000 1770.8847 -7564.2920 299.4958 -9335.1767 -7545.0381 296.3973 3.1504 -15.7460 30378.9007 -524.5148 -501.9258
ENERGY: 600000 0.6095 7.5217 0.6343 0.0000 -10656.7670 1352.2535 0.0000 0.0000 1839.3163 -7456.4317 311.0691 -9295.7479 -7530.4153 298.8329 -639.2986 -609.6789 30662.4400 -545.1383 -498.8992
ENERGY: 900000 1.4242 5.6635 2.2527 0.0000 -10542.9451 1298.8859 0.0000 0.0000 1755.4228 -7479.2959 296.8808 -9234.7188 -7524.5466 299.3920 -1242.2431 -1153.3952 31259.4656 -492.0901 -444.7301
ENERGY: 1200000 1.2928 7.1225 1.8180 0.0000 -10706.2586 1419.2027 0.0000 0.0000 1790.6513 -7486.1713 302.8388 -9276.8226 -7525.1989 299.3342 -107.5590 -57.3219 30715.3963 -342.7770 -285.4858
ENERGY: 1500000 3.3118 7.0494 0.8051 0.0000 -10723.9846 1464.6116 0.0000 0.0000 1770.1954 -7478.0113 299.3792 -9248.2067 -7523.6333 299.9760 189.5039 217.3336 30899.9121 -310.1385 -258.6760
TCL: Running FEP window  11: Lambda1 0.49999999999999994 Lambda2 0.5499999999999999 [dLambda 0.04999999999999999]
TCL: Setting parameter firsttimestep to 0
TCL: Setting parameter alchLambda to 0.49999999999999994
Info: NONBONDED TABLE R-SQUARED SPACING: 0.0625
Info: NONBONDED TABLE SIZE: 705 POINTS
TCL: Setting parameter alchLambda2 to 0.5499999999999999
Info: NONBONDED TABLE R-SQUARED SPACING: 0.0625
Info: NONBONDED TABLE SIZE: 705 POINTS
TCL: Running for 1500000 steps
ETITLE: TS BOND ANGLE DIHED IMPRP ELECT VDW BOUNDARY MISC KINETIC TOTAL TEMP POTENTIAL TOTALAVG TEMPAVG PRESSURE GPRESSURE VOLUME PRESSAVG GPRESSAVG
ENERGY: 0 3.3118 7.0494 0.8051 0.0000 -10723.9846 1464.8039 0.0000 0.0000 1769.3189 -7478.6955 299.2310 -9248.0144 -7478.6955 299.2310 141.6997 225.3597 30899.9121 141.6997 225.3597
ENERGY: 300000 0.5095 6.2157 1.5507 0.0000 -10700.6360 1407.7078 0.0000 0.0000 1819.4119 -7465.2404 307.7028 -9284.6523 -7497.0093 302.5046 -179.7646 -162.5794 30687.1369 -334.5892 -275.6400
ENERGY: 600000 1.8310 4.3291 1.1601 0.0000 -10666.8521 1329.2649 0.0000 0.0000 1777.4418 -7552.8252 300.6047 -9330.2669 -7486.9879 303.3560 -911.5149 -858.5012 30393.7556 -326.4659 -274.9872
ENERGY: 900000 0.6705 3.4612 2.4991 0.0000 -10749.8818 1405.4782 0.0000 0.0000 1781.5165 -7556.2564 301.2939 -9337.7728 -7489.1576 302.0137 -496.6471 -429.0148 30648.6847 -292.5719 -242.9262
ENERGY: 1200000 1.3671 10.0540 2.0742 0.0000 -10756.2124 1407.2575 0.0000 0.0000 1757.2053 -7578.2544 297.1823 -9335.4597 -7489.5604 301.9886 -369.1885 -258.6385 30230.1149 -301.4273 -252.7912
ENERGY: 1500000 0.8579 8.5586 1.0414 0.0000 -10684.0819 1374.7413 0.0000 0.0000 1801.7069 -7497.1758 304.7085 -9298.8827 -7498.6468 302.3553 -878.8497 -792.6424 31048.6324 -350.5881 -299.3352
TCL: Running FEP window  12: Lambda1 0.5499999999999999 Lambda2 0.6    [dLambda 0.050000000000000044]
TCL: Setting parameter firsttimestep to 0
TCL: Setting parameter alchLambda to 0.5499999999999999
Info: NONBONDED TABLE R-SQUARED SPACING: 0.0625
Info: NONBONDED TABLE SIZE: 705 POINTS
TCL: Setting parameter alchLambda2 to 0.6
Info: NONBONDED TABLE R-SQUARED SPACING: 0.0625
Info: NONBONDED TABLE SIZE: 705 POINTS
TCL: Running for 1500000 steps
ETITLE: TS BOND ANGLE DIHED IMPRP ELECT VDW BOUNDARY MISC KINETIC TOTAL TEMP POTENTIAL TOTALAVG TEMPAVG PRESSURE GPRESSURE VOLUME PRESSAVG GPRESSAVG
ENERGY: 0 0.8579 8.5586 1.0414 0.0000 -10684.0953 1375.0027 0.0000 0.0000 1800.8114 -7497.8233 304.5571 -9298.6347 -7497.8233 304.5571 -884.3779 -782.3555 31048.6324 -884.3779 -782.3555
ENERGY: 300000 2.1969 4.6621 2.1394 0.0000 -10732.8534 1361.9990 0.0000 0.0000 1796.5527 -7565.3034 303.8368 -9361.8561 -7500.2311 305.3097 -931.1087 -854.1747 30663.9072 -776.8243 -697.8549
ENERGY: 600000 0.9736 5.1660 2.0207 0.0000 -10778.0367 1507.4201 0.0000 0.0000 1785.6114 -7476.8449 301.9864 -9262.4562 -7509.1648 302.3800 692.4826 768.7214 30411.2597 -363.5818 -298.0665
ENERGY: 900000 1.0724 8.2351 5.0193 0.0000 -10811.2341 1442.7660 0.0000 0.0000 1774.3112 -7579.8301 300.0753 -9354.1412 -7527.4630 301.2088 -247.4325 -181.1649 30548.5641 -281.6709 -213.6733
ENERGY: 1200000 1.3764 4.5345 1.0384 0.0000 -10783.0650 1448.1373 0.0000 0.0000 1702.3850 -7625.5934 287.9110 -9327.9784 -7542.8320 299.1498 -87.4298 -78.6453 30541.8703 -197.1368 -143.3471
ENERGY: 1500000 0.4214 4.5988 1.7061 0.0000 -10659.9708 1405.3418 0.0000 0.0000 1796.8016 -7451.1012 303.8789 -9247.9027 -7530.6519 299.7047 -326.0621 -178.7493 30750.5047 -222.5251 -162.2461
TCL: Running FEP window  13: Lambda1 0.6    Lambda2 0.65   [dLambda 0.050000000000000044]
TCL: Setting parameter firsttimestep to 0
TCL: Setting parameter alchLambda to 0.6
Info: NONBONDED TABLE R-SQUARED SPACING: 0.0625
Info: NONBONDED TABLE SIZE: 705 POINTS
TCL: Setting parameter alchLambda2 to 0.65
Info: NONBONDED TABLE R-SQUARED SPACING: 0.0625
Info: NONBONDED TABLE SIZE: 705 POINTS
TCL: Running for 1500000 steps
ETITLE: TS BOND ANGLE DIHED IMPRP ELECT VDW BOUNDARY MISC KINETIC TOTAL TEMP POTENTIAL TOTALAVG TEMPAVG PRESSURE GPRESSURE VOLUME PRESSAVG GPRESSAVG
ENERGY: 0 0.4214 4.5988 1.7061 0.0000 -10660.1039 1405.1261 0.0000 0.0000 1795.9428 -7452.3087 303.7337 -9248.2515 -7452.3087 303.7337 -264.4426 -173.5125 30750.5047 -264.4426 -173.5125
ENERGY: 300000 1.2975 10.3818 3.5983 0.0000 -10762.5539 1451.8751 0.0000 0.0000 1820.0341 -7475.3671 307.8080 -9295.4012 -7491.5751 301.7962 13.4685 87.9966 30701.6237 -75.0950 -14.0616
ENERGY: 600000 0.9339 5.7459 1.7589 0.0000 -10824.6784 1465.6004 0.0000 0.0000 1847.1122 -7503.5271 312.3875 -9350.6393 -7495.8249 303.3536 29.8555 69.3027 30670.3449 -39.0394 11.2208
ENERGY: 900000 0.5889 8.9082 1.4640 0.0000 -10730.4334 1404.5225 0.0000 0.0000 1812.9618 -7501.9880 306.6120 -9314.9498 -7500.1972 302.8486 -441.5786 -369.9474 31051.4551 -197.2206 -132.1211
ENERGY: 1200000 0.4372 6.6311 3.5589 0.0000 -10834.1391 1473.4092 0.0000 0.0000 1761.4631 -7588.6395 297.9024 -9350.1027 -7509.0889 302.5517 -25.2327 46.9968 30664.3256 -244.2780 -178.1473
ENERGY: 1500000 0.1806 4.8000 1.9173 0.0000 -10785.1060 1436.1963 0.0000 0.0000 1783.4786 -7558.5331 301.6257 -9342.0118 -7518.1872 301.8633 -228.6229 -119.8331 30618.9550 -180.9927 -115.0022
TCL: Running FEP window  14: Lambda1 0.65   Lambda2 0.7000000000000001 [dLambda 0.050000000000000044]
TCL: Setting parameter firsttimestep to 0
TCL: Setting parameter alchLambda to 0.65
Info: NONBONDED TABLE R-SQUARED SPACING: 0.0625
Info: NONBONDED TABLE SIZE: 705 POINTS
TCL: Setting parameter alchLambda2 to 0.7000000000000001
Info: NONBONDED TABLE R-SQUARED SPACING: 0.0625
Info: NONBONDED TABLE SIZE: 705 POINTS
TCL: Running for 1500000 steps
ETITLE: TS BOND ANGLE DIHED IMPRP ELECT VDW BOUNDARY MISC KINETIC TOTAL TEMP POTENTIAL TOTALAVG TEMPAVG PRESSURE GPRESSURE VOLUME PRESSAVG GPRESSAVG
ENERGY: 0 0.1806 4.8000 1.9173 0.0000 -10785.8232 1435.9633 0.0000 0.0000 1782.5579 -7560.4041 301.4700 -9342.9620 -7560.4041 301.4700 -213.4461 -115.6454 30618.9550 -213.4461 -115.6454
ENERGY: 300000 1.5012 9.8150 0.7151 0.0000 -10744.7586 1450.8124 0.0000 0.0000 1752.8144 -7529.1004 296.4397 -9281.9148 -7524.0473 296.7638 -265.0069 -189.4753 31072.1075 -320.6158 -257.6770
ENERGY: 600000 1.1343 7.3801 2.0353 0.0000 -10670.1675 1413.2789 0.0000 0.0000 1849.2551 -7397.0840 312.7500 -9246.3390 -7520.1958 299.1784 107.5046 138.4071 30569.8392 -273.3973 -212.5502
ENERGY: 900000 1.5136 5.0899 1.4693 0.0000 -10739.9019 1435.3098 0.0000 0.0000 1771.3833 -7525.1360 299.5801 -9296.5194 -7517.4981 299.1388 201.3549 231.4962 30318.9933 -211.1245 -152.6051
ENERGY: 1200000 1.2929 8.7601 1.2906 0.0000 -10665.6991 1398.3754 0.0000 0.0000 1812.0526 -7443.9275 306.4582 -9255.9801 -7509.0108 299.7036 -344.5435 -322.1921 31232.6603 -267.5857 -208.2720
ENERGY: 1500000 2.3526 6.6225 2.3570 0.0000 -10697.7236 1441.0982 0.0000 0.0000 1766.8507 -7478.4426 298.8135 -9245.2932 -7507.4141 298.6662 -107.6160 24.3302 30865.0373 -161.9418 -93.9872
TCL: Running FEP window  15: Lambda1 0.7000000000000001 Lambda2 0.7500000000000001 [dLambda 0.050000000000000044]
TCL: Setting parameter firsttimestep to 0
TCL: Setting parameter alchLambda to 0.7000000000000001
Info: NONBONDED TABLE R-SQUARED SPACING: 0.0625
Info: NONBONDED TABLE SIZE: 705 POINTS
TCL: Setting parameter alchLambda2 to 0.7500000000000001
Info: NONBONDED TABLE R-SQUARED SPACING: 0.0625
Info: NONBONDED TABLE SIZE: 705 POINTS
TCL: Running for 1500000 steps
ETITLE: TS BOND ANGLE DIHED IMPRP ELECT VDW BOUNDARY MISC KINETIC TOTAL TEMP POTENTIAL TOTALAVG TEMPAVG PRESSURE GPRESSURE VOLUME PRESSAVG GPRESSAVG
ENERGY: 0 2.3526 6.6225 2.3570 0.0000 -10697.9109 1441.0208 0.0000 0.0000 1765.9567 -7479.6013 298.6624 -9245.5580 -7479.6013 298.6624 -55.4042 32.0850 30865.0373 -55.4042 32.0850
ENERGY: 300000 0.2720 8.4989 1.6954 0.0000 -10784.5087 1438.6260 0.0000 0.0000 1709.9124 -7625.5039 289.1840 -9335.4164 -7534.7357 299.6276 -82.2924 -66.7716 30445.1851 46.4783 118.4253
ENERGY: 600000 2.2060 5.4754 1.9833 0.0000 -10781.4466 1456.9293 0.0000 0.0000 1795.2119 -7519.6408 303.6100 -9314.8526 -7523.4695 299.6607 273.1286 263.4390 30191.2502 73.7100 132.7926
ENERGY: 900000 1.0082 5.0872 1.3157 0.0000 -10759.3417 1466.8851 0.0000 0.0000 1765.8533 -7519.1923 298.6449 -9285.0455 -7520.8511 300.8269 -115.3454 -55.9107 31318.1834 55.8362 115.8313
ENERGY: 1200000 1.5543 8.6652 2.3253 0.0000 -10679.2694 1438.8958 0.0000 0.0000 1767.2624 -7460.5664 298.8832 -9227.8288 -7512.5088 302.0078 -181.2129 -107.7880 31258.2390 -95.3730 -31.0658
ENERGY: 1500000 1.3093 9.3708 0.9684 0.0000 -10733.8402 1458.0023 0.0000 0.0000 1785.2266 -7478.9628 301.9213 -9264.1894 -7521.4009 301.0037 330.9455 359.3017 30400.5716 -17.5022 50.0971
TCL: Running FEP window  16: Lambda1 0.7500000000000001 Lambda2 0.8000000000000002 [dLambda 0.050000000000000044]
TCL: Setting parameter firsttimestep to 0
TCL: Setting parameter alchLambda to 0.7500000000000001
Info: NONBONDED TABLE R-SQUARED SPACING: 0.0625
Info: NONBONDED TABLE SIZE: 705 POINTS
TCL: Setting parameter alchLambda2 to 0.8000000000000002
Info: NONBONDED TABLE R-SQUARED SPACING: 0.0625
Info: NONBONDED TABLE SIZE: 705 POINTS
TCL: Running for 1500000 steps
ETITLE: TS BOND ANGLE DIHED IMPRP ELECT VDW BOUNDARY MISC KINETIC TOTAL TEMP POTENTIAL TOTALAVG TEMPAVG PRESSURE GPRESSURE VOLUME PRESSAVG GPRESSAVG
ENERGY: 0 1.3093 9.3708 0.9684 0.0000 -10734.1009 1457.5920 0.0000 0.0000 1784.3600 -7480.5003 301.7748 -9264.8604 -7480.5003 301.7748 270.9516 363.1886 30400.5716 270.9516 363.1886
ENERGY: 300000 0.9169 7.0802 2.1613 0.0000 -10757.2592 1429.7704 0.0000 0.0000 1797.9624 -7519.3680 304.0752 -9317.3305 -7508.4792 299.4190 -250.5282 -199.0384 30703.5869 -54.3072 19.9194
ENERGY: 600000 1.4892 6.1799 0.8498 0.0000 -10810.9501 1430.6162 0.0000 0.0000 1810.1138 -7561.7013 306.1303 -9371.8150 -7546.7236 300.7619 -204.9770 -143.7130 30237.9407 25.0767 79.9014
ENERGY: 900000 0.7966 8.8045 1.9700 0.0000 -10877.8101 1516.6190 0.0000 0.0000 1801.9212 -7547.6989 304.7447 -9349.6201 -7542.4066 300.0490 313.4853 340.4371 30689.1236 -32.1188 18.6193
ENERGY: 1200000 1.2670 8.6470 1.6231 0.0000 -10646.7150 1353.9482 0.0000 0.0000 1764.6793 -7516.5504 298.4463 -9281.2297 -7536.4209 300.0274 -760.1362 -721.1436 30815.4232 -84.2835 -30.4818
ENERGY: 1500000 2.2252 4.5145 2.5876 0.0000 -10666.4151 1424.5701 0.0000 0.0000 1752.3099 -7480.2079 296.3544 -9232.5178 -7537.5091 299.7116 -302.1832 -267.4375 31210.6596 -80.7012 -26.9178
TCL: Running FEP window  17: Lambda1 0.8000000000000002 Lambda2 0.8500000000000002 [dLambda 0.050000000000000044]
TCL: Setting parameter firsttimestep to 0
TCL: Setting parameter alchLambda to 0.8000000000000002
Info: NONBONDED TABLE R-SQUARED SPACING: 0.0625
Info: NONBONDED TABLE SIZE: 705 POINTS
TCL: Setting parameter alchLambda2 to 0.8500000000000002
Info: NONBONDED TABLE R-SQUARED SPACING: 0.0625
Info: NONBONDED TABLE SIZE: 705 POINTS
TCL: Running for 1500000 steps
ETITLE: TS BOND ANGLE DIHED IMPRP ELECT VDW BOUNDARY MISC KINETIC TOTAL TEMP POTENTIAL TOTALAVG TEMPAVG PRESSURE GPRESSURE VOLUME PRESSAVG GPRESSAVG
ENERGY: 0 2.2252 4.5145 2.5876 0.0000 -10666.8192 1424.1973 0.0000 0.0000 1751.4701 -7481.8245 296.2123 -9233.2946 -7481.8245 296.2123 -347.4070 -264.1999 31210.6596 -347.4070 -264.1999
ENERGY: 300000 3.1023 7.8379 2.3425 0.0000 -10787.3524 1389.0915 0.0000 0.0000 1713.9562 -7671.0219 289.8679 -9384.9781 -7551.5171 297.3692 -809.7548 -735.3998 30615.8539 -206.3862 -169.0984
ENERGY: 600000 1.1420 5.9537 2.0186 0.0000 -10803.2662 1457.6388 0.0000 0.0000 1714.8669 -7621.6462 290.0219 -9336.5131 -7545.9731 297.2930 97.9066 114.9323 30505.8569 -18.1823 10.3811
ENERGY: 900000 0.6703 10.4793 1.1732 0.0000 -10853.2999 1485.6456 0.0000 0.0000 1739.3269 -7616.0046 294.1587 -9355.3315 -7554.9210 297.4536 100.3766 132.7640 30587.9537 4.2563 42.9232
ENERGY: 1200000 0.3636 3.8276 1.1359 0.0000 -10795.7441 1435.1766 0.0000 0.0000 1749.5595 -7605.6809 295.8892 -9355.2403 -7562.6243 298.7503 -160.5600 -122.4413 30468.6118 26.5658 68.0271
ENERGY: 1500000 1.3636 9.9513 2.7598 0.0000 -10749.6367 1414.6942 0.0000 0.0000 1797.2939 -7523.5738 303.9622 -9320.8676 -7564.0666 298.2751 -86.2122 -53.3450 30249.7767 21.7325 63.1225
TCL: Running FEP window  18: Lambda1 0.8500000000000002 Lambda2 0.9000000000000002 [dLambda 0.050000000000000044]
TCL: Setting parameter firsttimestep to 0
TCL: Setting parameter alchLambda to 0.8500000000000002
Info: NONBONDED TABLE R-SQUARED SPACING: 0.0625
Info: NONBONDED TABLE SIZE: 705 POINTS
TCL: Setting parameter alchLambda2 to 0.9000000000000002
Info: NONBONDED TABLE R-SQUARED SPACING: 0.0625
Info: NONBONDED TABLE SIZE: 705 POINTS
TCL: Running for 1500000 steps
ETITLE: TS BOND ANGLE DIHED IMPRP ELECT VDW BOUNDARY MISC KINETIC TOTAL TEMP POTENTIAL TOTALAVG TEMPAVG PRESSURE GPRESSURE VOLUME PRESSAVG GPRESSAVG
ENERGY: 0 1.3636 9.9513 2.7598 0.0000 -10750.2596 1414.9263 0.0000 0.0000 1796.4290 -7524.8295 303.8159 -9321.2585 -7524.8295 303.8159 -109.2652 -40.5022 30249.7767 -109.2652 -40.5022
ENERGY: 300000 0.3878 1.8276 2.4650 0.0000 -10877.4322 1568.6769 0.0000 0.0000 1747.7645 -7556.3104 295.5856 -9304.0749 -7533.6110 300.2502 813.6021 846.3239 30881.9748 207.2794 276.3735
ENERGY: 600000 0.8910 5.7996 0.7667 0.0000 -10711.0802 1419.1107 0.0000 0.0000 1748.1422 -7536.3700 295.6495 -9284.5122 -7508.2317 301.2603 -384.5102 -364.1438 31105.3675 -0.7921 66.6474
ENERGY: 900000 0.5607 3.7270 0.9106 0.0000 -10774.2460 1473.3663 0.0000 0.0000 1789.3063 -7506.3751 302.6113 -9295.6814 -7505.3206 301.4709 293.3563 370.5741 30775.6843 31.2212 100.8197
ENERGY: 1200000 2.1569 4.5193 1.1997 0.0000 -10678.7960 1389.8865 0.0000 0.0000 1757.1020 -7523.9316 297.1648 -9281.0335 -7511.0388 301.6704 -306.8899 -247.6294 30484.8391 144.5102 211.7078
ENERGY: 1500000 1.7199 6.3749 0.8430 0.0000 -10670.6853 1387.5846 0.0000 0.0000 1713.3790 -7560.7838 289.7703 -9274.1628 -7517.5906 300.5933 -387.4632 -341.9047 30722.6560 83.1047 153.5138
TCL: Running FEP window  19: Lambda1 0.9000000000000002 Lambda2 0.9500000000000003 [dLambda 0.050000000000000044]
TCL: Setting parameter firsttimestep to 0
TCL: Setting parameter alchLambda to 0.9000000000000002
Info: NONBONDED TABLE R-SQUARED SPACING: 0.0625
Info: NONBONDED TABLE SIZE: 705 POINTS
TCL: Setting parameter alchLambda2 to 0.9500000000000003
Info: NONBONDED TABLE R-SQUARED SPACING: 0.0625
Info: NONBONDED TABLE SIZE: 705 POINTS
TCL: Running for 1500000 steps
ETITLE: TS BOND ANGLE DIHED IMPRP ELECT VDW BOUNDARY MISC KINETIC TOTAL TEMP POTENTIAL TOTALAVG TEMPAVG PRESSURE GPRESSURE VOLUME PRESSAVG GPRESSAVG
ENERGY: 0 1.7199 6.3749 0.8430 0.0000 -10671.0041 1387.6564 0.0000 0.0000 1712.5021 -7561.9078 289.6220 -9274.4099 -7561.9078 289.6220 -409.3463 -330.1702 30722.6560 -409.3463 -330.1702
ENERGY: 300000 0.1944 5.9855 3.2864 0.0000 -10712.9685 1383.8160 0.0000 0.0000 1768.6332 -7551.0529 299.1150 -9319.6861 -7585.0483 293.4670 -526.6579 -445.2133 30703.3699 -517.4360 -452.0869
ENERGY: 600000 0.7887 7.7845 3.3930 0.0000 -10862.8158 1456.3388 0.0000 0.0000 1829.9778 -7564.5329 309.4897 -9394.5107 -7564.7208 298.8843 90.1933 130.3303 30356.6912 -95.8352 -35.8134
ENERGY: 900000 1.0740 4.6091 0.8831 0.0000 -10781.0347 1470.6757 0.0000 0.0000 1796.4777 -7507.3151 303.8241 -9303.7928 -7548.3132 300.0295 400.6664 407.0258 30392.6861 -63.5917 -12.8075
ENERGY: 1200000 2.6701 6.7570 2.3070 0.0000 -10806.1600 1490.5858 0.0000 0.0000 1782.2014 -7521.6387 301.4097 -9303.8401 -7540.8290 299.9268 272.4374 313.4927 30652.7225 -77.7595 -25.6007
ENERGY: 1500000 0.4595 5.2582 1.1428 0.0000 -10776.7692 1413.0100 0.0000 0.0000 1787.6787 -7569.2201 302.3360 -9356.8988 -7539.0558 300.8825 -250.4113 -163.1268 30369.7881 -99.7801 -42.0017
TCL: Running FEP window  20: Lambda1 0.9500000000000003 Lambda2 1.0    [dLambda 0.04999999999999971]
TCL: Setting parameter firsttimestep to 0
TCL: Setting parameter alchLambda to 0.9500000000000003
Info: NONBONDED TABLE R-SQUARED SPACING: 0.0625
Info: NONBONDED TABLE SIZE: 705 POINTS
TCL: Setting parameter alchLambda2 to 1.0
Info: NONBONDED TABLE R-SQUARED SPACING: 0.0625
Info: NONBONDED TABLE SIZE: 705 POINTS
TCL: Running for 1500000 steps
ETITLE: TS BOND ANGLE DIHED IMPRP ELECT VDW BOUNDARY MISC KINETIC TOTAL TEMP POTENTIAL TOTALAVG TEMPAVG PRESSURE GPRESSURE VOLUME PRESSAVG GPRESSAVG
ENERGY: 0 0.4595 5.2582 1.1428 0.0000 -10777.3336 1414.7221 0.0000 0.0000 1786.8110 -7568.9400 302.1893 -9355.7511 -7568.9400 302.1893 -224.3344 -132.0759 30369.7881 -224.3344 -132.0759
ENERGY: 300000 2.1687 8.5625 4.2041 0.0000 -10700.9404 1411.1915 0.0000 0.0000 1755.5614 -7519.2521 296.9043 -9274.8136 -7533.7305 301.2141 -231.5081 -136.1761 30401.5199 -72.1148 3.2568
ENERGY: 600000 0.9073 5.1042 0.8600 0.0000 -10649.6908 1368.3032 0.0000 0.0000 1769.2161 -7505.3000 299.2136 -9274.5161 -7540.1941 302.0671 -360.9440 -325.0258 30589.9273 -172.3526 -103.3842
ENERGY: 900000 6.0355 7.8778 2.3718 0.0000 -10715.1967 1443.4317 0.0000 0.0000 1773.6706 -7481.8095 299.9669 -9255.4801 -7540.8400 300.6188 -69.7526 -20.8504 30685.3335 -137.3120 -68.1230
ENERGY: 1200000 1.5465 3.2847 1.8235 0.0000 -10882.6203 1521.8760 0.0000 0.0000 1791.1694 -7562.9202 302.9264 -9354.0896 -7539.1370 299.9955 538.7018 561.3807 30748.7122 -55.1609 3.8825
ENERGY: 1500000 0.6798 7.7203 1.3804 0.0000 -10777.4403 1450.1407 0.0000 0.0000 1744.4958 -7573.0233 295.0328 -9317.5192 -7542.8020 299.7537 288.1118 336.8162 30277.6075 -20.9912 31.1751
TCL: Exiting due to exit command.
