Info: SIMULATION PARAMETERS:
Info: TIMESTEP               2
Info: NUMBER OF STEPS        0
Info: STEPS PER CYCLE        10
Info: PERIODIC CELL BASIS 1  31.676 0 0
Info: PERIODIC CELL BASIS 2  0 29.4775 0
Info: PERIODIC CELL BASIS 3  0 0 32.8278
Info: PERIODIC CELL CENTER   0 0 0
Info: WRAPPING WATERS AROUND PERIODIC BOUNDARIES ON OUTPUT.
Info: WRAPPING ALL CLUSTERS AROUND PERIODIC BOUNDARIES ON OUTPUT.
Info: FIRST LDB TIMESTEP     50
Info: LAST LDB TIMESTEP     -1
Info: HOM BACKGROUND SCALING 1
Info: PME BACKGROUND SCALING 1
Info: MIN ATOMS PER PATCH    40
Info: EMPTY PATCH LOAD       40 ATOMS
Info: VELOCITY FILE          mobley_5449201_equil.vel
Info: CENTER OF MASS MOVING INITIALLY? NO
Info: DIELECTRIC             1
Info: EXCLUDE                SCALED ONE-FOUR
Info: 1-4 ELECTROSTATICS SCALED BY 0.833333
Info: MODIFIED 1-4 VDW PARAMETERS WILL BE USED
Info: DCD FILENAME           mobley_5449201_prod.dcd
Info: DCD FREQUENCY          100000
Info: DCD FIRST STEP         100000
Info: DCD FILE WILL CONTAIN UNIT CELL DATA
Info: XST FILENAME           mobley_5449201_prod.xst
Info: XST FREQUENCY          100000
Info: NO VELOCITY DCD OUTPUT
Info: NO FORCE DCD OUTPUT
Info: OUTPUT FILENAME        mobley_5449201_prod
Info: BINARY OUTPUT FILES WILL BE USED
Info: RESTART FILENAME       mobley_5449201_prod.restart
Info: RESTART FREQUENCY      100000
Info: BINARY RESTART FILES WILL BE USED
Info: CUTOFF                 9
Info: PAIRLIST DISTANCE      11
Info: PAIRLIST SHRINK RATE   0.01
Info: PAIRLIST GROW RATE     0.01
Info: PAIRLIST TRIGGER       0.3
Info: PAIRLISTS PER CYCLE    2
Info: PAIRLISTS ENABLED
Info: MARGIN                 2
Info: HYDROGEN GROUP CUTOFF  2.5
Info: PATCH DIMENSION        15.5
Info: ENERGY OUTPUT STEPS    100000
Info: ENERGY EVALUATION STEPS    100000
Info: OUTPUT ENERGY PRECISION 4
Info: CROSSTERM ENERGY INCLUDED IN DIHEDRAL
Info: TIMING OUTPUT STEPS    1000000
Info: PRESSURE OUTPUT STEPS  100000
Info: ALCHEMICAL FEP ON
Info: FEP CURRENT LAMBDA VALUE     1
Info: FEP COMPARISON LAMBDA VALUE  0.95
Info: FEP INTRA-ALCHEMICAL NON-BONDED INTERACTIONS WILL BE RETAINED
Info: FEP INTRA-ALCHEMICAL BONDED INTERACTIONS WILL BE RETAINED
Info: FEP VDW SHIFTING COEFFICIENT 5
Info: FEP ELEC. ACTIVE FOR ANNIHILATED PARTICLES BETWEEN LAMBDA = 0 AND LAMBDA = 0.5
Info: FEP ELEC. ACTIVE FOR EXNIHILATED PARTICLES BETWEEN LAMBDA = 0.5 AND LAMBDA = 1
Info: FEP VDW ACTIVE FOR ANNIHILATED PARTICLES BETWEEN LAMBDA = 0 AND LAMBDA = 1
Info: FEP VDW ACTIVE FOR EXNIHILATED PARTICLES BETWEEN LAMBDA = 0 AND LAMBDA = 1
Info: FEP BOND ACTIVE FOR ANNIHILATED PARTICLES BETWEEN LAMBDA = 1 AND LAMBDA = 1
Info: FEP BOND ACTIVE FOR EXNIHILATED PARTICLES BETWEEN LAMBDA = 0 AND LAMBDA = 0
Info: LANGEVIN DYNAMICS ACTIVE
Info: LANGEVIN TEMPERATURE   300
Info: LANGEVIN USING BBK INTEGRATOR
Info: LANGEVIN DAMPING COEFFICIENT IS 1 INVERSE PS
Info: LANGEVIN DYNAMICS APPLIED TO HYDROGENS
Info: LANGEVIN PISTON PRESSURE CONTROL ACTIVE
Info:        TARGET PRESSURE IS 1.01325 BAR
Info:     OSCILLATION PERIOD IS 50 FS
Info:             DECAY TIME IS 25 FS
Info:     PISTON TEMPERATURE IS 300 K
Info:       PRESSURE CONTROL IS GROUP-BASED
Info:    INITIAL STRAIN RATE IS -0.000385261 -0.000385261 -0.000385261
Info:       CELL FLUCTUATION IS ISOTROPIC
Info: PARTICLE MESH EWALD (PME) ACTIVE
Info: PME TOLERANCE               1e-06
Info: PME EWALD COEFFICIENT       0.348832
Info: PME INTERPOLATION ORDER     4
Info: PME GRID DIMENSIONS         32 32 36
Info: PME MAXIMUM GRID SPACING    1
Info: PME CALCULATION WILL BE PERFORMED ON GPU
Info: FULL ELECTROSTATIC EVALUATION FREQUENCY      2
Info: USING VERLET I (r-RESPA) MTS SCHEME.
Info: C1 SPLITTING OF LONG RANGE ELECTROSTATICS
Info: PLACING ATOMS IN PATCHES BY HYDROGEN GROUPS
Info: RIGID BONDS TO HYDROGEN : ALL
Info:         ERROR TOLERANCE : 1e-08
Info:          MAX ITERATIONS : 100
Info: RIGID WATER USING SETTLE ALGORITHM
Info: RANDOM NUMBER SEED     1743849220
Info: USE HYDROGEN BONDS?    NO
Info: Using AMBER format force field!
Info: AMBER PARM FILE        mobley_5449201.prmtop
Info: COORDINATE PDB         mobley_5449201.pdb
Info: Exclusions will be read from PARM file!
Info: SCNB (VDW SCALING)     2
Info: USING ARITHMETIC MEAN TO COMBINE L-J SIGMA PARAMETERS
Info: BINARY COORDINATES     mobley_5449201_equil.coor
Info: SUMMARY OF PARAMETERS:
Info: 4 BONDS
Info: 3 ANGLES
Info:   3 HARMONIC
Info:   0 COSINE-BASED
Info: 5 DIHEDRAL
Info: 0 IMPROPER
Info: 0 CROSSTERM
Info: 0 VDW
Info: 10 VDW_PAIRS
Info: 0 NBTHOLE_PAIRS
Info: To read alchdata from file: mobley_5449201.pdb
Info: To read alchflag data from column: 5
Info: STRUCTURE SUMMARY:
Info: 2987 ATOMS
Info: 2986 BONDS
Info: 30 ANGLES
Info: 40 DIHEDRALS
Info: 0 IMPROPERS
Info: 0 CROSSTERMS
Info: 3052 EXCLUSIONS
Info: 2982 RIGID BONDS
Info: ALCH: 0 ATOMS TO DISAPPEAR IN FINAL STATE
Info: ALCH: 17 ATOMS TO APPEAR IN FINAL STATE
Info: 5979 DEGREES OF FREEDOM
Info: 995 HYDROGEN GROUPS
Info: 4 ATOMS IN LARGEST HYDROGEN GROUP
Info: 995 MIGRATION GROUPS
Info: 4 ATOMS IN LARGEST MIGRATION GROUP
Info: TOTAL MASS = 17908 amu
Info: TOTAL CHARGE = -0.000200011 e
Info: MASS DENSITY = 0.97016 g/cm^3
Info: ATOM DENSITY = 0.0974479 atoms/A^3
Info: ADDED 0 IMPLICIT EXCLUSIONS
Info: NONBONDED TABLE R-SQUARED SPACING: 0.0625
Info: NONBONDED TABLE SIZE: 705 POINTS
Info: REMOVING COM VELOCITY 0.015573 -0.0202356 -0.146718
Info: Use 3D box decompostion in PME FFT.
Info: Updated CUDA force table with 4096 elements.
Info: Updated CUDA LJ table with 4 x 4 elements.
Info: Found 20 unique exclusion lists needing 48 bytes
TCL: Running for 1500000 steps
ETITLE: TS BOND ANGLE DIHED IMPRP ELECT VDW BOUNDARY MISC KINETIC TOTAL TEMP POTENTIAL TOTALAVG TEMPAVG PRESSURE GPRESSURE VOLUME PRESSAVG GPRESSAVG
ENERGY: 0 0.8531 6.4440 1.4429 0.0000 -10825.4061 1385.1920 0.0000 0.0000 1801.3231 -7630.1509 303.2169 -9431.4740 -7630.1509 303.2169 -766.2269 -684.7177 30652.2707 -766.2269 -684.7177
ENERGY: 300000 0.2958 10.5227 1.1221 0.0000 -10812.7965 1457.8309 0.0000 0.0000 1810.7465 -7532.2785 304.8032 -9343.0249 -7580.7361 302.8070 -60.4424 -46.5364 30986.0169 -153.4037 -96.4625
ENERGY: 600000 1.7141 11.7216 2.8503 0.0000 -10674.8964 1334.1955 0.0000 0.0000 1771.9439 -7552.4710 298.2715 -9324.4149 -7584.4757 301.0146 -921.4587 -835.6280 30912.5972 -304.2514 -261.4576
ENERGY: 900000 1.2511 7.1045 1.3687 0.0000 -10772.1741 1458.8034 0.0000 0.0000 1790.7465 -7512.8998 301.4366 -9303.6464 -7574.3091 301.1529 68.2066 162.9226 30861.9697 -220.3158 -178.6874
ENERGY: 1200000 1.3485 14.7788 2.4880 0.0000 -10923.9935 1526.2738 0.0000 0.0000 1775.3619 -7603.7425 298.8469 -9379.1043 -7570.4646 300.9141 25.2648 106.8219 31527.4899 -180.3517 -127.8458
ENERGY: 1500000 0.8554 5.7480 2.2284 0.0000 -10833.6767 1479.6052 0.0000 0.0000 1832.8125 -7512.4273 308.5175 -9345.2398 -7567.9842 301.3399 483.6252 525.4593 30427.9521 -144.1830 -88.5080
TCL: Running FEP window   2: Lambda1 0.95   Lambda2 0.8999999999999999 [dLambda -0.050000000000000044]
TCL: Setting parameter firsttimestep to 0
TCL: Setting parameter alchLambda to 0.95
Info: NONBONDED TABLE R-SQUARED SPACING: 0.0625
Info: NONBONDED TABLE SIZE: 705 POINTS
TCL: Setting parameter alchLambda2 to 0.8999999999999999
Info: NONBONDED TABLE R-SQUARED SPACING: 0.0625
Info: NONBONDED TABLE SIZE: 705 POINTS
TCL: Running for 1500000 steps
ETITLE: TS BOND ANGLE DIHED IMPRP ELECT VDW BOUNDARY MISC KINETIC TOTAL TEMP POTENTIAL TOTALAVG TEMPAVG PRESSURE GPRESSURE VOLUME PRESSAVG GPRESSAVG
ENERGY: 0 0.8554 5.7480 2.2284 0.0000 -10833.6764 1479.8383 0.0000 0.0000 1831.9079 -7513.0985 308.3653 -9345.0064 -7513.0985 308.3653 435.2672 514.6087 30427.9521 435.2672 514.6087
ENERGY: 300000 2.5684 6.8913 2.0123 0.0000 -10813.9241 1431.3157 0.0000 0.0000 1807.5574 -7563.5790 304.2664 -9371.1364 -7526.0684 304.5258 38.6307 68.7643 30508.8068 -110.1106 -61.3186
ENERGY: 600000 0.5822 6.0349 1.5857 0.0000 -10859.2608 1447.0419 0.0000 0.0000 1786.4974 -7617.5188 300.7213 -9404.0162 -7548.0272 303.5606 35.5396 136.0939 30253.4314 -74.3515 -15.2426
ENERGY: 900000 0.7706 4.5812 1.4660 0.0000 -10851.1221 1459.9680 0.0000 0.0000 1771.2191 -7613.1172 298.1495 -9384.3363 -7555.2056 302.6188 -111.7847 -48.1212 30668.1028 -81.8916 -7.9593
ENERGY: 1200000 1.1155 5.3462 1.7072 0.0000 -10609.7394 1383.7053 0.0000 0.0000 1823.6878 -7394.1775 306.9816 -9217.8653 -7543.4776 301.7596 -10.5703 -26.7114 30915.4757 -77.5933 -11.4542
ENERGY: 1500000 1.0086 6.4569 2.9110 0.0000 -10800.1778 1449.8245 0.0000 0.0000 1842.0920 -7497.8848 310.0796 -9339.9768 -7543.1804 302.5556 137.3204 184.8615 30560.5419 -71.5323 -4.8151
TCL: Running FEP window   3: Lambda1 0.8999999999999999 Lambda2 0.8499999999999999 [dLambda -0.050000000000000044]
TCL: Setting parameter firsttimestep to 0
TCL: Setting parameter alchLambda to 0.8999999999999999
Info: NONBONDED TABLE R-SQUARED SPACING: 0.0625
Info: NONBONDED TABLE SIZE: 705 POINTS
TCL: Setting parameter alchLambda2 to 0.8499999999999999
Info: NONBONDED TABLE R-SQUARED SPACING: 0.0625
Info: NONBONDED TABLE SIZE: 705 POINTS
TCL: Running for 1500000 steps
ETITLE: TS BOND ANGLE DIHED IMPRP ELECT VDW BOUNDARY MISC KINETIC TOTAL TEMP POTENTIAL TOTALAVG TEMPAVG PRESSURE GPRESSURE VOLUME PRESSAVG GPRESSAVG
ENERGY: 0 1.0086 6.4569 2.9110 0.0000 -10800.1710 1450.2987 0.0000 0.0000 1841.1913 -7498.3045 309.9279 -9339.4958 -7498.3045 309.9279 94.8811 181.9669 30560.5419 94.8811 181.9669
ENERGY: 300000 1.5292 8.6358 2.6694 0.0000 -10892.2174 1495.9938 0.0000 0.0000 1811.3504 -7572.0388 304.9048 -9383.3892 -7528.5341 307.1817 219.4689 295.6310 30581.5544 253.4639 334.9674
ENERGY: 600000 0.8390 8.2650 2.0930 0.0000 -10694.5795 1388.4298 0.0000 0.0000 1776.2104 -7518.7424 298.9897 -9294.9527 -7525.8008 304.5924 -318.4516 -270.0787 30706.2126 136.9821 200.7530
ENERGY: 900000 0.4992 4.0408 2.3109 0.0000 -10913.7530 1536.7941 0.0000 0.0000 1742.1309 -7627.9771 293.2531 -9370.1080 -7546.8700 303.3097 698.8477 745.5238 30380.6449 115.1257 172.2698
ENERGY: 1200000 0.6663 10.9335 1.5938 0.0000 -10802.5745 1494.8835 0.0000 0.0000 1818.6692 -7475.8283 306.1368 -9294.4975 -7552.4976 302.1447 338.5859 397.8605 31150.7096 80.6337 139.1598
ENERGY: 1500000 0.4488 11.0015 1.5606 0.0000 -10839.7773 1458.1239 0.0000 0.0000 1731.2305 -7637.4119 291.4182 -9368.6424 -7552.8724 301.5709 143.4027 141.3093 30354.2638 36.7492 94.7416
TCL: Running FEP window   4: Lambda1 0.8499999999999999 Lambda2 0.7999999999999998 [dLambda -0.050000000000000044]
TCL: Setting parameter firsttimestep to 0
TCL: Setting parameter alchLambda to 0.8499999999999999
Info: NONBONDED TABLE R-SQUARED SPACING: 0.0625
Info: NONBONDED TABLE SIZE: 705 POINTS
TCL: Setting parameter alchLambda2 to 0.7999999999999998
Info: NONBONDED TABLE R-SQUARED SPACING: 0.0625
Info: NONBONDED TABLE SIZE: 705 POINTS
TCL: Running for 1500000 steps
ETITLE: TS BOND ANGLE DIHED IMPRP ELECT VDW BOUNDARY MISC KINETIC TOTAL TEMP POTENTIAL TOTALAVG TEMPAVG PRESSURE GPRESSURE VOLUME PRESSAVG GPRESSAVG
ENERGY: 0 0.4488 11.0015 1.5606 0.0000 -10839.7534 1458.3725 0.0000 0.0000 1730.3211 -7638.0489 291.2652 -9368.3699 -7638.0489 291.2652 51.3564 135.7551 30354.2638 51.3564 135.7551
ENERGY: 300000 0.8931 7.9329 3.5000 0.0000 -10809.2540 1493.3420 0.0000 0.0000 1787.1887 -7516.3973 300.8377 -9303.5860 -7561.0939 301.1005 579.7140 629.5151 30408.6509 -31.1319 51.4853
ENERGY: 600000 0.7446 8.9134 2.4386 0.0000 -10833.8270 1394.3593 0.0000 0.0000 1726.5829 -7700.7883 290.6359 -9427.3712 -7585.0321 298.5112 -884.1507 -798.6897 30913.6982 -50.0112 19.0707
ENERGY: 900000 1.1367 7.8384 1.7996 0.0000 -10784.4576 1441.0197 0.0000 0.0000 1788.1683 -7544.4949 301.0026 -9332.6632 -7585.9318 297.9808 -161.9932 -85.1914 30836.7770 0.9304 68.9461
ENERGY: 1200000 1.7854 5.9412 2.2968 0.0000 -10781.8464 1401.9444 0.0000 0.0000 1740.4957 -7629.3828 292.9778 -9369.8785 -7590.8427 298.6009 -628.5874 -553.3508 31073.0233 18.4391 80.2863
ENERGY: 1500000 3.6758 9.9236 1.3722 0.0000 -10782.5165 1409.4158 0.0000 0.0000 1746.3245 -7611.8046 293.9590 -9358.1291 -7585.5209 298.4448 -235.6382 -200.8252 30338.0876 -44.4627 10.6962
TCL: Running FEP window   5: Lambda1 0.7999999999999998 Lambda2 0.7499999999999998 [dLambda -0.050000000000000044]
TCL: Setting parameter firsttimestep to 0
TCL: Setting parameter alchLambda to 0.7999999999999998
Info: NONBONDED TABLE R-SQUARED SPACING: 0.0625
Info: NONBONDED TABLE SIZE: 705 POINTS
TCL: Setting parameter alchLambda2 to 0.7499999999999998
Info: NONBONDED TABLE R-SQUARED SPACING: 0.0625
Info: NONBONDED TABLE SIZE: 705 POINTS
TCL: Running for 1500000 steps
ETITLE: TS BOND ANGLE DIHED IMPRP ELECT VDW BOUNDARY MISC KINETIC TOTAL TEMP POTENTIAL TOTALAVG TEMPAVG PRESSURE GPRESSURE VOLUME PRESSAVG GPRESSAVG
ENERGY: 0 3.6758 9.9236 1.3722 0.0000 -10782.4818 1409.7091 0.0000 0.0000 1745.4176 -7612.3834 293.8064 -9357.8010 -7612.3834 293.8064 -282.5969 -204.3061 30338.0876 -282.5969 -204.3061
ENERGY: 300000 1.1093 12.0188 1.6122 0.0000 -10746.7709 1470.5011 0.0000 0.0000 1770.3176 -7491.2119 297.9978 -9261.5295 -7547.5051 296.6118 361.6858 380.7054 30713.4479 -31.0151 32.9128
ENERGY: 600000 0.6055 6.6075 3.2169 0.0000 -10990.2346 1563.0368 0.0000 0.0000 1785.6532 -7631.1148 300.5792 -9416.7680 -7535.6034 299.9501 736.1994 773.6377 30495.1645 12.7785 72.2706
ENERGY: 900000 0.4412 7.8215 2.8152 0.0000 -10829.5340 1479.5951 0.0000 0.0000 1780.9491 -7557.9119 299.7874 -9338.8609 -7548.9672 299.4053 29.1656 133.4307 31122.1387 -31.4023 31.1364
ENERGY: 1200000 2.1045 4.7019 2.6183 0.0000 -10832.6505 1458.3864 0.0000 0.0000 1756.1294 -7608.7100 295.6095 -9364.8394 -7545.7037 299.1643 -92.8585 -34.1750 30607.9980 -155.9385 -100.9969
ENERGY: 1500000 1.3753 5.2884 1.6339 0.0000 -10843.2840 1464.2466 0.0000 0.0000 1824.6598 -7546.0799 307.1452 -9370.7397 -7543.7063 300.0706 40.2965 125.6506 30729.1811 -194.1345 -139.6927
TCL: Running FEP window   6: Lambda1 0.7499999999999998 Lambda2 0.6999999999999997 [dLambda -0.050000000000000044]
TCL: Setting parameter firsttimestep to 0
TCL: Setting parameter alchLambda to 0.7499999999999998
Info: NONBONDED TABLE R-SQUARED SPACING: 0.0625
Info: NONBONDED TABLE SIZE: 705 POINTS
TCL: Setting parameter alchLambda2 to 0.6999999999999997
Info: NONBONDED TABLE R-SQUARED SPACING: 0.0625
Info: NONBONDED TABLE SIZE: 705 POINTS
TCL: Running for 1500000 steps
ETITLE: TS BOND ANGLE DIHED IMPRP ELECT VDW BOUNDARY MISC KINETIC TOTAL TEMP POTENTIAL TOTALAVG TEMPAVG PRESSURE GPRESSURE VOLUME PRESSAVG GPRESSAVG
ENERGY: 0 1.3753 5.2884 1.6339 0.0000 -10843.2447 1464.5215 0.0000 0.0000 1823.7676 -7546.6579 306.9950 -9370.4255 -7546.6579 306.9950 49.1760 124.6112 30729.1811 49.1760 124.6112
ENERGY: 300000 2.3466 5.9934 3.3885 0.0000 -10824.6698 1431.5541 0.0000 0.0000 1823.3590 -7558.0282 306.9262 -9381.3872 -7543.3863 303.6987 -411.6748 -376.3309 30793.5785 -160.1397 -108.4315
ENERGY: 600000 0.6224 6.6821 2.0014 0.0000 -10849.2978 1491.7247 0.0000 0.0000 1752.7173 -7595.5498 295.0351 -9348.2671 -7555.5972 300.7951 264.0675 288.1200 30780.0089 -26.7619 21.4134
ENERGY: 900000 1.2854 8.3732 2.0014 0.0000 -10779.5809 1446.0668 0.0000 0.0000 1748.0757 -7573.7784 294.2538 -9321.8541 -7557.4405 300.6147 -140.8338 -33.0244 30898.8302 -61.5097 -5.5925
ENERGY: 1200000 1.4599 12.1993 1.4843 0.0000 -10798.3175 1431.8733 0.0000 0.0000 1783.5520 -7567.7486 300.2255 -9351.3007 -7561.2935 300.3844 -84.2272 -17.0625 30595.7903 -36.9301 18.9726
ENERGY: 1500000 1.5505 5.4767 1.7699 0.0000 -10805.3054 1554.3327 0.0000 0.0000 1791.8195 -7450.3562 301.6172 -9242.1757 -7557.0466 300.0740 1318.0984 1347.5604 30294.5486 54.8410 107.9361
TCL: Running FEP window   7: Lambda1 0.6999999999999997 Lambda2 0.6499999999999997 [dLambda -0.050000000000000044]
TCL: Setting parameter firsttimestep to 0
TCL: Setting parameter alchLambda to 0.6999999999999997
Info: NONBONDED TABLE R-SQUARED SPACING: 0.0625
Info: NONBONDED TABLE SIZE: 705 POINTS
TCL: Setting parameter alchLambda2 to 0.6499999999999997
Info: NONBONDED TABLE R-SQUARED SPACING: 0.0625
Info: NONBONDED TABLE SIZE: 705 POINTS
TCL: Running for 1500000 steps
ETITLE: TS BOND ANGLE DIHED IMPRP ELECT VDW BOUNDARY MISC KINETIC TOTAL TEMP POTENTIAL TOTALAVG TEMPAVG PRESSURE GPRESSURE VOLUME PRESSAVG GPRESSAVG
ENERGY: 0 1.5505 5.4767 1.7699 0.0000 -10805.2897 1554.0080 0.0000 0.0000 1790.9226 -7451.5621 301.4662 -9242.4847 -7451.5621 301.4662 1243.9372 1335.8249 30294.5486 1243.9372 1335.8249
ENERGY: 300000 0.5537 6.2787 2.3480 0.0000 -10791.9312 1424.5079 0.0000 0.0000 1815.5571 -7542.6858 305.6129 -9358.2429 -7517.7737 304.7946 -324.2263 -210.7897 30501.4952 563.7613 662.4610
ENERGY: 600000 0.7122 11.8553 1.6764 0.0000 -10822.4811 1469.0191 0.0000 0.0000 1735.3045 -7603.9134 292.1040 -9339.2179 -7545.3241 299.4902 -218.7885 -161.7676 31100.1270 298.6487 382.2559
ENERGY: 900000 2.2936 8.2989 2.3049 0.0000 -10909.0910 1548.3126 0.0000 0.0000 1741.1394 -7606.7415 293.0862 -9347.8809 -7555.3763 298.9038 739.9906 854.3113 30263.4779 307.4899 390.6695
ENERGY: 1200000 1.5229 4.0865 2.3815 0.0000 -10905.3319 1529.3243 0.0000 0.0000 1757.7007 -7610.3159 295.8740 -9368.0167 -7554.5042 298.7448 500.7787 535.2099 30261.3844 280.3936 357.2636
ENERGY: 1500000 1.4770 5.2957 1.8284 0.0000 -10742.2545 1395.3249 0.0000 0.0000 1799.5488 -7538.7798 302.9183 -9338.3286 -7553.0453 299.2664 -213.5709 -116.2481 30365.9915 167.7277 247.7276
TCL: Running FEP window   8: Lambda1 0.6499999999999997 Lambda2 0.5999999999999996 [dLambda -0.050000000000000044]
TCL: Setting parameter firsttimestep to 0
TCL: Setting parameter alchLambda to 0.6499999999999997
Info: NONBONDED TABLE R-SQUARED SPACING: 0.0625
Info: NONBONDED TABLE SIZE: 705 POINTS
TCL: Setting parameter alchLambda2 to 0.5999999999999996
Info: NONBONDED TABLE R-SQUARED SPACING: 0.0625
Info: NONBONDED TABLE SIZE: 705 POINTS
TCL: Running for 1500000 steps
ETITLE: TS BOND ANGLE DIHED IMPRP ELECT VDW BOUNDARY MISC KINETIC TOTAL TEMP POTENTIAL TOTALAVG TEMPAVG PRESSURE GPRESSURE VOLUME PRESSAVG GPRESSAVG
ENERGY: 0 1.4770 5.2957 1.8284 0.0000 -10742.2004 1395.6214 0.0000 0.0000 1798.6728 -7539.3052 302.7708 -9337.9780 -7539.3052 302.7708 -210.7078 -120.9453 30365.9915 -210.7078 -120.9453
ENERGY: 300000 0.1942 11.7838 1.6885 0.0000 -10774.2334 1476.7327 0.0000 0.0000 1807.3330 -7476.5011 304.2286 -9283.8341 -7528.0247 299.7706 359.1207 431.0116 30783.5004 39.3439 95.2554
ENERGY: 600000 2.9501 9.4397 2.7824 0.0000 -10970.4603 1611.7409 0.0000 0.0000 1826.4652 -7517.0820 307.4491 -9343.5472 -7553.9295 300.2697 1322.4024 1439.5089 30445.2871 285.7270 346.4553
ENERGY: 900000 1.5703 9.4265 3.0444 0.0000 -10716.2745 1348.6542 0.0000 0.0000 1794.7927 -7558.7864 302.1177 -9353.5791 -7550.0810 300.7141 -881.7006 -855.4147 30794.2886 -5.9751 45.1924
ENERGY: 1200000 1.6566 6.0880 1.1599 0.0000 -11048.1670 1579.6959 0.0000 0.0000 1765.3129 -7694.2537 297.1553 -9459.5666 -7556.2756 302.1979 734.2327 800.1334 30756.1730 51.3610 106.7069
ENERGY: 1500000 1.8340 9.8547 3.4878 0.0000 -10944.7007 1493.5861 0.0000 0.0000 1790.0406 -7645.8975 301.3177 -9435.9381 -7566.3225 301.6445 6.4900 102.4540 30870.8575 -3.3525 55.6378
TCL: Running FEP window   9: Lambda1 0.5999999999999996 Lambda2 0.5499999999999996 [dLambda -0.050000000000000044]
TCL: Setting parameter firsttimestep to 0
TCL: Setting parameter alchLambda to 0.5999999999999996
Info: NONBONDED TABLE R-SQUARED SPACING: 0.0625
Info: NONBONDED TABLE SIZE: 705 POINTS
TCL: Setting parameter alchLambda2 to 0.5499999999999996
Info: NONBONDED TABLE R-SQUARED SPACING: 0.0625
Info: NONBONDED TABLE SIZE: 705 POINTS
TCL: Running for 1500000 steps
ETITLE: TS BOND ANGLE DIHED IMPRP ELECT VDW BOUNDARY MISC KINETIC TOTAL TEMP POTENTIAL TOTALAVG TEMPAVG PRESSURE GPRESSURE VOLUME PRESSAVG GPRESSAVG
ENERGY: 0 1.8340 9.8547 3.4878 0.0000 -10944.6911 1493.7777 0.0000 0.0000 1789.1456 -7646.5913 301.1671 -9435.7369 -7646.5913 301.1671 7.5860 96.7651 30870.8575 7.5860 96.7651
ENERGY: 300000 2.9356 5.7448 1.6384 0.0000 -10670.1624 1416.2491 0.0000 0.0000 1760.8230 -7482.7715 296.3995 -9243.5945 -7623.6835 292.5524 -322.3367 -316.9865 31245.4750 -115.1940 -77.2852
ENERGY: 600000 1.2856 6.4433 1.9382 0.0000 -10801.9117 1384.3193 0.0000 0.0000 1791.8056 -7616.1198 301.6148 -9407.9253 -7598.0536 294.1941 -838.9262 -748.3293 31070.5033 -246.3254 -181.4768
ENERGY: 900000 0.2552 9.8928 3.6627 0.0000 -10800.1017 1439.7133 0.0000 0.0000 1768.4922 -7578.0855 297.6905 -9346.5777 -7590.1553 295.8695 -360.7464 -299.0986 31059.6001 -137.7836 -73.8293
ENERGY: 1200000 3.2970 10.8678 2.2668 0.0000 -10766.4962 1409.5823 0.0000 0.0000 1768.7868 -7571.6954 297.7401 -9340.4823 -7578.5573 296.3526 -173.5158 -119.7907 30453.6728 -157.8934 -97.8909
ENERGY: 1500000 0.7142 7.3238 1.2360 0.0000 -10844.3792 1498.9483 0.0000 0.0000 1751.5228 -7584.6341 294.8340 -9336.1569 -7581.3542 296.1299 114.1185 142.2767 31196.5299 -79.2979 -23.9534
TCL: Running FEP window  10: Lambda1 0.5499999999999996 Lambda2 0.4999999999999996 [dLambda -0.04999999999999999]
TCL: Setting parameter firsttimestep to 0
TCL: Setting parameter alchLambda to 0.5499999999999996
Info: NONBONDED TABLE R-SQUARED SPACING: 0.0625
Info: NONBONDED TABLE SIZE: 705 POINTS
TCL: Setting parameter alchLambda2 to 0.4999999999999996
Info: NONBONDED TABLE R-SQUARED SPACING: 0.0625
Info: NONBONDED TABLE SIZE: 705 POINTS
TCL: Running for 1500000 steps
ETITLE: TS BOND ANGLE DIHED IMPRP ELECT VDW BOUNDARY MISC KINETIC TOTAL TEMP POTENTIAL TOTALAVG TEMPAVG PRESSURE GPRESSURE VOLUME PRESSAVG GPRESSAVG
ENERGY: 0 0.7142 7.3238 1.2360 0.0000 -10844.3750 1499.4808 0.0000 0.0000 1750.6346 -7584.9856 294.6845 -9335.6203 -7584.9856 294.6845 62.2628 142.6715 31196.5299 62.2628 142.6715
ENERGY: 300000 0.9493 5.9579 3.6103 0.0000 -10735.0418 1431.0191 0.0000 0.0000 1774.8064 -7518.6988 298.7534 -9293.5052 -7543.7905 300.2119 -65.6782 -6.8359 30762.1390 49.9907 77.1558
ENERGY: 600000 0.4910 9.1592 2.2870 0.0000 -10892.0045 1488.7454 0.0000 0.0000 1799.2545 -7592.0673 302.8687 -9391.3218 -7565.1255 299.3300 172.9495 197.0726 30615.8664 -26.2848 7.5153
ENERGY: 900000 2.6714 10.4676 2.8075 0.0000 -10819.7765 1415.9672 0.0000 0.0000 1721.0363 -7666.8265 289.7022 -9387.8628 -7555.1150 300.1240 -442.7747 -343.8181 30603.6579 49.9978 100.6572
ENERGY: 1200000 1.0604 7.1434 1.2896 0.0000 -10718.8624 1430.8514 0.0000 0.0000 1773.5783 -7504.9393 298.5466 -9278.5176 -7542.3825 300.5674 53.2822 71.2108 30652.0312 12.6285 67.3634
ENERGY: 1500000 2.0852 8.9941 2.1463 0.0000 -10722.7342 1342.1739 0.0000 0.0000 1729.2380 -7638.0967 291.0828 -9367.3347 -7554.8418 299.9852 -780.3326 -726.6308 30471.3622 -105.6562 -48.4790
TCL: Running FEP window  11: Lambda1 0.4999999999999996 Lambda2 0.4499999999999996 [dLambda -0.04999999999999999]
TCL: Setting parameter firsttimestep to 0
TCL: Setting parameter alchLambda to 0.4999999999999996
Info: NONBONDED TABLE R-SQUARED SPACING: 0.0625
Info: NONBONDED TABLE SIZE: 705 POINTS
TCL: Setting parameter alchLambda2 to 0.4499999999999996
Info: NONBONDED TABLE R-SQUARED SPACING: 0.0625
Info: NONBONDED TABLE SIZE: 705 POINTS
TCL: Running for 1500000 steps
ETITLE: TS BOND ANGLE DIHED IMPRP ELECT VDW BOUNDARY MISC KINETIC TOTAL TEMP POTENTIAL TOTALAVG TEMPAVG PRESSURE GPRESSURE VOLUME PRESSAVG GPRESSAVG
ENERGY: 0 2.0852 8.9941 2.1463 0.0000 -10722.6805 1342.4993 0.0000 0.0000 1728.3847 -7638.5710 290.9392 -9366.9557 -7638.5710 290.9392 -800.0076 -728.1502 30471.3622 -800.0076 -728.1502
ENERGY: 300000 0.8266 5.3502 1.5341 0.0000 -10687.2770 1352.9189 0.0000 0.0000 1811.6613 -7514.9858 304.9572 -9326.6471 -7573.3007 298.5246 -512.3458 -448.9634 30735.2153 -380.1713 -324.5369
ENERGY: 600000 3.2198 8.8995 1.2209 0.0000 -10849.3229 1496.9732 0.0000 0.0000 1791.5580 -7547.4515 301.5732 -9339.0095 -7571.9265 299.8610 733.1310 756.1011 29995.7407 -84.4372 -42.6346
ENERGY: 900000 0.0839 8.2859 4.8016 0.0000 -10681.0400 1426.0066 0.0000 0.0000 1813.3769 -7428.4851 305.2460 -9241.8620 -7564.0468 300.1251 221.1989 222.0003 30607.2771 -142.9651 -92.6979
ENERGY: 1200000 0.9835 4.8163 1.1773 0.0000 -10784.8595 1442.8941 0.0000 0.0000 1782.8596 -7552.1287 300.1090 -9334.9883 -7564.1656 300.2226 225.3722 220.7878 30384.6896 -139.1091 -90.0833
ENERGY: 1500000 0.8719 11.8394 2.2139 0.0000 -10867.0831 1471.2024 0.0000 0.0000 1792.0008 -7588.9547 301.6477 -9380.9555 -7565.5024 300.0601 22.9228 114.4743 30617.4297 -128.2454 -77.2222
TCL: Running FEP window  12: Lambda1 0.4499999999999996 Lambda2 0.39999999999999963 [dLambda -0.04999999999999999]
TCL: Setting parameter firsttimestep to 0
TCL: Setting parameter alchLambda to 0.4499999999999996
Info: NONBONDED TABLE R-SQUARED SPACING: 0.0625
Info: NONBONDED TABLE SIZE: 705 POINTS
TCL: Setting parameter alchLambda2 to 0.39999999999999963
Info: NONBONDED TABLE R-SQUARED SPACING: 0.0625
Info: NONBONDED TABLE SIZE: 705 POINTS
TCL: Running for 1500000 steps
ETITLE: TS BOND ANGLE DIHED IMPRP ELECT VDW BOUNDARY MISC KINETIC TOTAL TEMP POTENTIAL TOTALAVG TEMPAVG PRESSURE GPRESSURE VOLUME PRESSAVG GPRESSAVG
ENERGY: 0 0.8719 11.8394 2.2139 0.0000 -10867.0828 1471.4612 0.0000 0.0000 1791.1237 -7589.5727 301.5001 -9380.6964 -7589.5727 301.5001 37.9114 115.1386 30617.4297 37.9114 115.1386
ENERGY: 300000 0.1928 9.0285 1.8244 0.0000 -10869.7111 1465.0086 0.0000 0.0000 1778.5463 -7615.1104 299.3829 -9393.6567 -7590.4090 301.1292 -103.1230 -19.3425 30531.4526 85.8040 152.0140
ENERGY: 600000 0.7482 10.7776 2.3248 0.0000 -10879.9515 1504.5920 0.0000 0.0000 1782.5257 -7578.9832 300.0528 -9361.5089 -7570.8767 303.0029 69.5477 170.2471 31030.9311 53.1947 121.7827
ENERGY: 900000 0.3463 9.2000 1.9686 0.0000 -10923.7629 1546.9171 0.0000 0.0000 1821.0677 -7544.2632 306.5405 -9365.3309 -7579.0999 302.3653 741.8786 772.1723 30790.0154 109.0456 175.8513
ENERGY: 1200000 2.6425 6.7206 1.0817 0.0000 -10869.6009 1438.3634 0.0000 0.0000 1783.4600 -7637.3327 300.2100 -9420.7927 -7578.3618 301.2214 -357.7476 -259.6037 30440.1090 77.2537 140.7937
ENERGY: 1500000 0.4757 7.5833 1.7512 0.0000 -10779.5511 1415.4855 0.0000 0.0000 1786.4605 -7567.7949 300.7151 -9354.2554 -7584.9488 300.2362 -802.5354 -680.5443 31443.5977 35.2220 104.4655
TCL: Running FEP window  13: Lambda1 0.39999999999999963 Lambda2 0.34999999999999964 [dLambda -0.04999999999999999]
TCL: Setting parameter firsttimestep to 0
TCL: Setting parameter alchLambda to 0.39999999999999963
Info: NONBONDED TABLE R-SQUARED SPACING: 0.0625
Info: NONBONDED TABLE SIZE: 705 POINTS
TCL: Setting parameter alchLambda2 to 0.34999999999999964
Info: NONBONDED TABLE R-SQUARED SPACING: 0.0625
Info: NONBONDED TABLE SIZE: 705 POINTS
TCL: Running for 1500000 steps
ETITLE: TS BOND ANGLE DIHED IMPRP ELECT VDW BOUNDARY MISC KINETIC TOTAL TEMP POTENTIAL TOTALAVG TEMPAVG PRESSURE GPRESSURE VOLUME PRESSAVG GPRESSAVG
ENERGY: 0 0.4757 7.5833 1.7512 0.0000 -10779.5518 1415.8425 0.0000 0.0000 1785.5265 -7568.3726 300.5579 -9353.8991 -7568.3726 300.5579 -758.3544 -683.1116 31443.5977 -758.3544 -683.1116
ENERGY: 300000 2.8062 5.6627 1.0939 0.0000 -10743.1710 1406.9251 0.0000 0.0000 1765.0471 -7561.6359 297.1106 -9326.6831 -7547.8182 298.5811 -374.6672 -341.8337 30559.1431 -207.7409 -152.0513
ENERGY: 600000 1.3675 7.3720 1.8349 0.0000 -10816.9320 1425.6589 0.0000 0.0000 1803.7088 -7576.9899 303.6185 -9380.6986 -7548.2012 300.1517 -393.4699 -338.4776 30811.9335 -282.1528 -221.6175
ENERGY: 900000 0.8208 9.7081 4.8146 0.0000 -10904.3117 1452.7225 0.0000 0.0000 1819.6350 -7616.6107 306.2994 -9436.2458 -7564.3128 300.2203 -123.0872 -40.9801 30359.4428 -54.5489 1.3389
ENERGY: 1200000 1.1301 7.5511 1.5998 0.0000 -10801.4501 1392.8628 0.0000 0.0000 1842.6342 -7555.6720 310.1708 -9398.3061 -7562.7716 301.3444 -439.2829 -414.8598 30357.6447 -194.2090 -144.2600
ENERGY: 1500000 1.2786 5.9224 1.6694 0.0000 -10738.0216 1435.2157 0.0000 0.0000 1766.9311 -7527.0044 297.4277 -9293.9355 -7554.0818 300.8723 -134.6217 -63.8658 30806.6375 -215.7908 -167.2845
TCL: Running FEP window  14: Lambda1 0.34999999999999964 Lambda2 0.29999999999999966 [dLambda -0.04999999999999999]
TCL: Setting parameter firsttimestep to 0
TCL: Setting parameter alchLambda to 0.34999999999999964
Info: NONBONDED TABLE R-SQUARED SPACING: 0.0625
Info: NONBONDED TABLE SIZE: 705 POINTS
TCL: Setting parameter alchLambda2 to 0.29999999999999966
Info: NONBONDED TABLE R-SQUARED SPACING: 0.0625
Info: NONBONDED TABLE SIZE: 705 POINTS
TCL: Running for 1500000 steps
ETITLE: TS BOND ANGLE DIHED IMPRP ELECT VDW BOUNDARY MISC KINETIC TOTAL TEMP POTENTIAL TOTALAVG TEMPAVG PRESSURE GPRESSURE VOLUME PRESSAVG GPRESSAVG
ENERGY: 0 1.2786 5.9224 1.6694 0.0000 -10738.0212 1435.3608 0.0000 0.0000 1766.0352 -7527.7547 297.2769 -9293.7899 -7527.7547 297.2769 -136.4551 -66.4591 30806.6375 -136.4551 -66.4591
ENERGY: 300000 0.5024 8.4909 4.7792 0.0000 -10764.1071 1442.9315 0.0000 0.0000 1775.8114 -7531.5917 298.9225 -9307.4031 -7515.2515 300.5198 -52.4615 43.6346 30620.0839 -140.2078 -69.8656
ENERGY: 600000 1.0193 6.7177 2.4152 0.0000 -10908.7616 1534.2866 0.0000 0.0000 1795.8589 -7568.4640 302.2971 -9364.3228 -7538.6953 302.2074 629.5478 709.1473 30515.9034 -10.7080 57.3484
ENERGY: 900000 1.7176 8.2165 1.9376 0.0000 -10856.8823 1456.8941 0.0000 0.0000 1809.0238 -7579.0926 304.5132 -9388.1165 -7530.5748 303.5499 -446.7132 -356.5488 31050.4702 -109.3672 -36.7784
ENERGY: 1200000 0.3363 6.7522 2.4210 0.0000 -10885.9081 1447.7582 0.0000 0.0000 1721.1894 -7707.4511 289.7280 -9428.6405 -7540.4566 301.4496 -255.9170 -276.9799 30606.8626 -130.3895 -66.7978
ENERGY: 1500000 1.6721 11.7757 3.1585 0.0000 -10819.8524 1448.7795 0.0000 0.0000 1817.2374 -7537.2293 305.8958 -9354.4667 -7542.9192 301.5989 -72.5963 -19.5478 30613.8022 -88.1119 -25.1888
TCL: Running FEP window  15: Lambda1 0.29999999999999966 Lambda2 0.24999999999999967 [dLambda -0.04999999999999999]
TCL: Setting parameter firsttimestep to 0
TCL: Setting parameter alchLambda to 0.29999999999999966
Info: NONBONDED TABLE R-SQUARED SPACING: 0.0625
Info: NONBONDED TABLE SIZE: 705 POINTS
TCL: Setting parameter alchLambda2 to 0.24999999999999967
Info: NONBONDED TABLE R-SQUARED SPACING: 0.0625
Info: NONBONDED TABLE SIZE: 705 POINTS
TCL: Running for 1500000 steps
ETITLE: TS BOND ANGLE DIHED IMPRP ELECT VDW BOUNDARY MISC KINETIC TOTAL TEMP POTENTIAL TOTALAVG TEMPAVG PRESSURE GPRESSURE VOLUME PRESSAVG GPRESSAVG
ENERGY: 0 1.6721 11.7757 3.1585 0.0000 -10819.8516 1448.1350 0.0000 0.0000 1816.3630 -7538.7473 305.7486 -9355.1103 -7538.7473 305.7486 -91.0092 -30.5818 30613.8022 -91.0092 -30.5818
ENERGY: 300000 0.7409 8.6264 1.8162 0.0000 -10862.1512 1486.5469 0.0000 0.0000 1800.5197 -7563.9012 303.0817 -9364.4209 -7558.7410 302.7941 354.7382 444.1684 30345.2661 313.4145 371.5730
ENERGY: 600000 1.0507 6.6324 2.0995 0.0000 -10926.4549 1552.0536 0.0000 0.0000 1777.1122 -7587.5064 299.1415 -9364.6186 -7569.0129 301.1285 966.6194 1048.6426 30300.2281 267.5644 335.7525
ENERGY: 900000 1.4928 6.0143 2.6648 0.0000 -10869.1990 1495.8008 0.0000 0.0000 1794.7519 -7568.4744 302.1108 -9363.2262 -7568.7452 301.5415 261.3680 366.2809 30745.2979 265.1336 320.9514
ENERGY: 1200000 2.5982 9.2672 2.3545 0.0000 -10707.1328 1409.2171 0.0000 0.0000 1763.1911 -7520.5047 296.7982 -9283.6958 -7564.4750 300.4657 -40.8816 -11.6539 30264.5284 232.5835 286.5617
ENERGY: 1500000 0.3651 8.0913 1.0250 0.0000 -10786.3430 1441.9555 0.0000 0.0000 1769.2855 -7565.6205 297.8240 -9334.9061 -7555.1175 300.7923 14.6555 94.6330 30371.3622 204.5436 262.0184
TCL: Running FEP window  16: Lambda1 0.24999999999999967 Lambda2 0.19999999999999968 [dLambda -0.04999999999999999]
TCL: Setting parameter firsttimestep to 0
TCL: Setting parameter alchLambda to 0.24999999999999967
Info: NONBONDED TABLE R-SQUARED SPACING: 0.0625
Info: NONBONDED TABLE SIZE: 705 POINTS
TCL: Setting parameter alchLambda2 to 0.19999999999999968
Info: NONBONDED TABLE R-SQUARED SPACING: 0.0625
Info: NONBONDED TABLE SIZE: 705 POINTS
TCL: Running for 1500000 steps
ETITLE: TS BOND ANGLE DIHED IMPRP ELECT VDW BOUNDARY MISC KINETIC TOTAL TEMP POTENTIAL TOTALAVG TEMPAVG PRESSURE GPRESSURE VOLUME PRESSAVG GPRESSAVG
ENERGY: 0 0.3652 8.0913 1.0250 0.0000 -10786.3427 1442.0761 0.0000 0.0000 1768.4221 -7566.3631 297.6787 -9334.7852 -7566.3631 297.6787 15.5766 88.7664 30371.3622 15.5766 88.7664
ENERGY: 300000 0.5095 9.5980 1.0193 0.0000 -10810.4738 1482.3132 0.0000 0.0000 1806.8779 -7510.1558 304.1520 -9317.0338 -7551.5664 302.0456 291.1968 367.3908 30683.9788 163.4028 237.0638
ENERGY: 600000 0.2452 7.0542 2.4716 0.0000 -10891.4604 1514.8723 0.0000 0.0000 1790.3626 -7576.4546 301.3719 -9366.8172 -7561.3513 303.1620 480.6800 532.0912 30618.0097 113.1688 189.7994
ENERGY: 900000 0.3233 6.1025 2.1403 0.0000 -10824.8266 1488.1434 0.0000 0.0000 1771.9821 -7556.1350 298.2780 -9328.1171 -7554.9776 302.2231 312.5565 314.8781 30764.2544 101.2866 178.6530
ENERGY: 1200000 2.5759 9.4219 1.9489 0.0000 -10818.8841 1430.2160 0.0000 0.0000 1782.1832 -7592.5383 299.9951 -9374.7215 -7557.1326 301.6955 -468.4775 -418.6257 30948.4816 4.4344 78.3226
ENERGY: 1500000 2.6987 9.1588 1.9196 0.0000 -10936.5748 1524.7028 0.0000 0.0000 1745.9559 -7652.1391 293.8970 -9398.0950 -7562.8990 301.4990 370.3869 391.7710 30219.6308 21.7976 91.7090
TCL: Running FEP window  17: Lambda1 0.19999999999999968 Lambda2 0.1499999999999997 [dLambda -0.04999999999999999]
TCL: Setting parameter firsttimestep to 0
TCL: Setting parameter alchLambda to 0.19999999999999968
Info: NONBONDED TABLE R-SQUARED SPACING: 0.0625
Info: NONBONDED TABLE SIZE: 705 POINTS
TCL: Setting parameter alchLambda2 to 0.1499999999999997
Info: NONBONDED TABLE R-SQUARED SPACING: 0.0625
Info: NONBONDED TABLE SIZE: 705 POINTS
TCL: Running for 1500000 steps
ETITLE: TS BOND ANGLE DIHED IMPRP ELECT VDW BOUNDARY MISC KINETIC TOTAL TEMP POTENTIAL TOTALAVG TEMPAVG PRESSURE GPRESSURE VOLUME PRESSAVG GPRESSAVG
ENERGY: 0 2.6987 9.1588 1.9196 0.0000 -10936.5731 1525.0250 0.0000 0.0000 1745.0860 -7652.6851 293.7505 -9397.7711 -7652.6851 293.7505 298.7319 389.8761 30219.6308 298.7319 389.8761
ENERGY: 300000 1.0484 4.5033 3.3179 0.0000 -10943.6861 1556.7531 0.0000 0.0000 1832.6707 -7545.3928 308.4937 -9378.0635 -7580.0395 298.4873 695.2159 812.7577 30506.8851 160.4924 236.4177
ENERGY: 600000 0.4604 6.1189 1.0347 0.0000 -10871.0190 1502.1244 0.0000 0.0000 1817.1036 -7544.1769 305.8733 -9361.2805 -7577.7168 298.9765 487.6957 596.3247 30304.3794 182.5822 258.4906
ENERGY: 900000 1.5426 6.1245 2.9457 0.0000 -10737.9439 1330.1154 0.0000 0.0000 1792.0692 -7605.1466 301.6592 -9397.2158 -7583.0551 300.6782 -1279.1808 -1191.5427 30726.7126 -66.0451 8.4685
ENERGY: 1200000 2.7828 12.3103 2.5871 0.0000 -10821.5848 1472.1051 0.0000 0.0000 1740.5989 -7591.2005 292.9952 -9331.7994 -7582.6177 299.8345 327.2857 296.7342 30274.5636 -156.7210 -95.2747
ENERGY: 1500000 0.3827 12.8091 3.9735 0.0000 -10902.7863 1497.0401 0.0000 0.0000 1736.7535 -7651.8273 292.3479 -9388.5809 -7583.5491 299.3980 192.2702 242.2126 30573.2769 -157.6657 -97.3801
TCL: Running FEP window  18: Lambda1 0.1499999999999997 Lambda2 0.09999999999999969 [dLambda -0.05 ]
TCL: Setting parameter firsttimestep to 0
TCL: Setting parameter alchLambda to 0.1499999999999997
Info: NONBONDED TABLE R-SQUARED SPACING: 0.0625
Info: NONBONDED TABLE SIZE: 705 POINTS
TCL: Setting parameter alchLambda2 to 0.09999999999999969
Info: NONBONDED TABLE R-SQUARED SPACING: 0.0625
Info: NONBONDED TABLE SIZE: 705 POINTS
TCL: Running for 1500000 steps
ETITLE: TS BOND ANGLE DIHED IMPRP ELECT VDW BOUNDARY MISC KINETIC TOTAL TEMP POTENTIAL TOTALAVG TEMPAVG PRESSURE GPRESSURE VOLUME PRESSAVG GPRESSAVG
ENERGY: 0 0.3827 12.8091 3.9735 0.0000 -10902.7877 1496.2813 0.0000 0.0000 1735.8656 -7653.4755 292.1985 -9389.3411 -7653.4755 292.1985 146.6017 238.0295 30573.2769 146.6017 238.0295
ENERGY: 300000 0.8699 5.1823 2.7710 0.0000 -10677.5670 1412.7501 0.0000 0.0000 1724.1608 -7531.8328 290.2282 -9255.9937 -7561.2449 297.8824 -221.0874 -195.9444 31025.3141 161.6540 226.1597
ENERGY: 600000 2.5050 6.7990 1.8745 0.0000 -10810.6046 1474.8830 0.0000 0.0000 1860.5519 -7463.9913 313.1869 -9324.5432 -7551.2158 299.1315 39.9072 89.5321 30577.1802 57.3526 115.2748
ENERGY: 900000 1.2471 10.2742 2.5351 0.0000 -10844.1647 1435.9250 0.0000 0.0000 1767.0456 -7627.1376 297.4470 -9394.1832 -7564.0999 297.4323 -416.2365 -351.5083 30622.8294 41.5785 100.3853
ENERGY: 1200000 1.0587 9.2217 1.8090 0.0000 -10962.2663 1514.5269 0.0000 0.0000 1771.6546 -7663.9954 298.2228 -9435.6500 -7569.4302 297.4131 519.8209 561.2216 29882.4595 62.9705 114.8499
ENERGY: 1500000 0.2113 5.6848 2.2382 0.0000 -10839.1474 1474.2215 0.0000 0.0000 1785.3050 -7571.4866 300.5206 -9356.7916 -7569.9326 297.6495 183.6189 228.0599 30788.4108 62.7796 116.9414
TCL: Running FEP window  19: Lambda1 0.09999999999999969 Lambda2 0.049999999999999684 [dLambda -0.05 ]
TCL: Setting parameter firsttimestep to 0
TCL: Setting parameter alchLambda to 0.09999999999999969
Info: NONBONDED TABLE R-SQUARED SPACING: 0.0625
Info: NONBONDED TABLE SIZE: 705 POINTS
TCL: Setting parameter alchLambda2 to 0.049999999999999684
Info: NONBONDED TABLE R-SQUARED SPACING: 0.0625
Info: NONBONDED TABLE SIZE: 705 POINTS
TCL: Running for 1500000 steps
ETITLE: TS BOND ANGLE DIHED IMPRP ELECT VDW BOUNDARY MISC KINETIC TOTAL TEMP POTENTIAL TOTALAVG TEMPAVG PRESSURE GPRESSURE VOLUME PRESSAVG GPRESSAVG
ENERGY: 0 0.2113 5.6848 2.2382 0.0000 -10839.1466 1474.1274 0.0000 0.0000 1784.4177 -7572.4671 300.3713 -9356.8849 -7572.4671 300.3713 140.0539 225.2996 30788.4108 140.0539 225.2996
ENERGY: 300000 1.7571 4.3738 4.4765 0.0000 -10818.4237 1491.1288 0.0000 0.0000 1785.2100 -7531.4775 300.5046 -9316.6875 -7535.1754 301.7091 126.3391 206.7400 30768.0942 22.5929 100.3066
ENERGY: 600000 1.4271 8.2637 2.3527 0.0000 -10759.0363 1394.4867 0.0000 0.0000 1745.6741 -7606.8320 293.8495 -9352.5061 -7550.2846 298.9993 -624.3661 -495.4095 30486.7081 -157.2225 -70.6653
ENERGY: 900000 1.7490 7.6277 3.6192 0.0000 -10736.9974 1389.0617 0.0000 0.0000 1796.8237 -7538.1161 302.4595 -9334.9398 -7551.9449 299.3139 -556.3340 -490.2488 30548.9063 -157.3310 -73.4518
ENERGY: 1200000 1.3543 9.5113 2.2772 0.0000 -10794.8548 1414.0747 0.0000 0.0000 1788.6310 -7579.0063 301.0805 -9367.6373 -7554.0168 299.4873 -416.2934 -335.1981 30507.7028 -164.1549 -77.7762
ENERGY: 1500000 0.8406 8.7706 3.7045 0.0000 -10795.4128 1468.1224 0.0000 0.0000 1827.5252 -7486.4495 307.6275 -9313.9747 -7555.4816 299.8000 -15.3429 119.0989 30699.3388 -93.3918 -5.5802
TCL: Running FEP window  20: Lambda1 0.049999999999999684 Lambda2 0.0    [dLambda -0.049999999999999684]
TCL: Setting parameter firsttimestep to 0
TCL: Setting parameter alchLambda to 0.049999999999999684
Info: NONBONDED TABLE R-SQUARED SPACING: 0.0625
Info: NONBONDED TABLE SIZE: 705 POINTS
TCL: Setting parameter alchLambda2 to 0.0
Info: NONBONDED TABLE R-SQUARED SPACING: 0.0625
Info: NONBONDED TABLE SIZE: 705 POINTS
TCL: Running for 1500000 steps
ETITLE: TS BOND ANGLE DIHED IMPRP ELECT VDW BOUNDARY MISC KINETIC TOTAL TEMP POTENTIAL TOTALAVG TEMPAVG PRESSURE GPRESSURE VOLUME PRESSAVG GPRESSAVG
ENERGY: 0 0.8406 8.7706 3.7045 0.0000 -10795.4138 1467.9351 0.0000 0.0000 1826.6329 -7487.5300 307.4773 -9314.1630 -7487.5300 307.4773 26.7952 116.4774 30699.3388 26.7952 116.4774
ENERGY: 300000 0.1027 8.9016 2.2626 0.0000 -10878.9178 1537.1430 0.0000 0.0000 1766.7059 -7563.8021 297.3898 -9330.5080 -7544.2257 300.9966 851.5945 870.9266 30127.9866 67.3453 147.7358
ENERGY: 600000 0.8260 3.8515 1.9182 0.0000 -10957.8506 1566.2368 0.0000 0.0000 1792.7660 -7592.2520 301.7765 -9385.0180 -7575.5759 300.3581 807.0967 873.8659 30340.9199 105.7312 170.3156
ENERGY: 900000 1.1826 9.5186 1.9031 0.0000 -10808.1393 1460.0481 0.0000 0.0000 1712.5346 -7622.9522 288.2712 -9335.4868 -7574.5631 298.5944 -38.7052 -15.4455 30793.6863 -14.2426 41.7264
ENERGY: 1200000 0.2726 6.9254 1.7793 0.0000 -10783.8078 1478.3395 0.0000 0.0000 1809.0213 -7487.4697 304.5128 -9296.4910 -7563.2628 298.8597 375.4224 405.3006 30549.2422 -86.5878 -25.4794
ENERGY: 1500000 1.1825 4.1563 2.0856 0.0000 -10776.7626 1448.9898 0.0000 0.0000 1753.0757 -7567.2727 295.0954 -9320.3484 -7558.8154 299.6878 -216.1259 -99.0195 31009.9009 -40.2537 22.8269
TCL: Exiting due to exit command.
