Info: SIMULATION PARAMETERS:
Info: TIMESTEP               2
Info: NUMBER OF STEPS        0
Info: STEPS PER CYCLE        10
Info: PERIODIC CELL BASIS 1  30.0685 0 0
Info: PERIODIC CELL BASIS 2  0 30.3002 0
Info: PERIODIC CELL BASIS 3  0 0 32.3547
Info: PERIODIC CELL CENTER   0 0 0
Info: WRAPPING WATERS AROUND PERIODIC BOUNDARIES ON OUTPUT.
Info: WRAPPING ALL CLUSTERS AROUND PERIODIC BOUNDARIES ON OUTPUT.
Info: FIRST LDB TIMESTEP     50
Info: LAST LDB TIMESTEP     -1
Info: HOM BACKGROUND SCALING 1
Info: PME BACKGROUND SCALING 1
Info: MIN ATOMS PER PATCH    40
Info: EMPTY PATCH LOAD       40 ATOMS
Info: VELOCITY FILE          mobley_6973347_equil.vel
Info: CENTER OF MASS MOVING INITIALLY? NO
Info: DIELECTRIC             1
Info: EXCLUDE                SCALED ONE-FOUR
Info: 1-4 ELECTROSTATICS SCALED BY 0.833333
Info: MODIFIED 1-4 VDW PARAMETERS WILL BE USED
Info: DCD FILENAME           mobley_6973347_prod.dcd
Info: DCD FREQUENCY          100000
Info: DCD FIRST STEP         100000
Info: DCD FILE WILL CONTAIN UNIT CELL DATA
Info: XST FILENAME           mobley_6973347_prod.xst
Info: XST FREQUENCY          100000
Info: NO VELOCITY DCD OUTPUT
Info: NO FORCE DCD OUTPUT
Info: OUTPUT FILENAME        mobley_6973347_prod
Info: BINARY OUTPUT FILES WILL BE USED
Info: RESTART FILENAME       mobley_6973347_prod.restart
Info: RESTART FREQUENCY      100000
Info: BINARY RESTART FILES WILL BE USED
Info: CUTOFF                 9
Info: PAIRLIST DISTANCE      11
Info: PAIRLIST SHRINK RATE   0.01
Info: PAIRLIST GROW RATE     0.01
Info: PAIRLIST TRIGGER       0.3
Info: PAIRLISTS PER CYCLE    2
Info: PAIRLISTS ENABLED
Info: MARGIN                 2
Info: HYDROGEN GROUP CUTOFF  2.5
Info: PATCH DIMENSION        15.5
Info: ENERGY OUTPUT STEPS    100000
Info: ENERGY EVALUATION STEPS    100000
Info: OUTPUT ENERGY PRECISION 4
Info: CROSSTERM ENERGY INCLUDED IN DIHEDRAL
Info: TIMING OUTPUT STEPS    1000000
Info: PRESSURE OUTPUT STEPS  100000
Info: ALCHEMICAL FEP ON
Info: FEP CURRENT LAMBDA VALUE     1
Info: FEP COMPARISON LAMBDA VALUE  0.95
Info: FEP INTRA-ALCHEMICAL NON-BONDED INTERACTIONS WILL BE RETAINED
Info: FEP INTRA-ALCHEMICAL BONDED INTERACTIONS WILL BE RETAINED
Info: FEP VDW SHIFTING COEFFICIENT 5
Info: FEP ELEC. ACTIVE FOR ANNIHILATED PARTICLES BETWEEN LAMBDA = 0 AND LAMBDA = 0.5
Info: FEP ELEC. ACTIVE FOR EXNIHILATED PARTICLES BETWEEN LAMBDA = 0.5 AND LAMBDA = 1
Info: FEP VDW ACTIVE FOR ANNIHILATED PARTICLES BETWEEN LAMBDA = 0 AND LAMBDA = 1
Info: FEP VDW ACTIVE FOR EXNIHILATED PARTICLES BETWEEN LAMBDA = 0 AND LAMBDA = 1
Info: FEP BOND ACTIVE FOR ANNIHILATED PARTICLES BETWEEN LAMBDA = 1 AND LAMBDA = 1
Info: FEP BOND ACTIVE FOR EXNIHILATED PARTICLES BETWEEN LAMBDA = 0 AND LAMBDA = 0
Info: LANGEVIN DYNAMICS ACTIVE
Info: LANGEVIN TEMPERATURE   300
Info: LANGEVIN USING BBK INTEGRATOR
Info: LANGEVIN DAMPING COEFFICIENT IS 1 INVERSE PS
Info: LANGEVIN DYNAMICS APPLIED TO HYDROGENS
Info: LANGEVIN PISTON PRESSURE CONTROL ACTIVE
Info:        TARGET PRESSURE IS 1.01325 BAR
Info:     OSCILLATION PERIOD IS 50 FS
Info:             DECAY TIME IS 25 FS
Info:     PISTON TEMPERATURE IS 300 K
Info:       PRESSURE CONTROL IS GROUP-BASED
Info:    INITIAL STRAIN RATE IS -0.000157157 -0.000157157 -0.000157157
Info:       CELL FLUCTUATION IS ISOTROPIC
Info: PARTICLE MESH EWALD (PME) ACTIVE
Info: PME TOLERANCE               1e-06
Info: PME EWALD COEFFICIENT       0.348832
Info: PME INTERPOLATION ORDER     4
Info: PME GRID DIMENSIONS         32 32 36
Info: PME MAXIMUM GRID SPACING    1
Info: PME CALCULATION WILL BE PERFORMED ON GPU
Info: FULL ELECTROSTATIC EVALUATION FREQUENCY      2
Info: USING VERLET I (r-RESPA) MTS SCHEME.
Info: C1 SPLITTING OF LONG RANGE ELECTROSTATICS
Info: PLACING ATOMS IN PATCHES BY HYDROGEN GROUPS
Info: RIGID BONDS TO HYDROGEN : ALL
Info:         ERROR TOLERANCE : 1e-08
Info:          MAX ITERATIONS : 100
Info: RIGID WATER USING SETTLE ALGORITHM
Info: RANDOM NUMBER SEED     1743763593
Info: USE HYDROGEN BONDS?    NO
Info: Using AMBER format force field!
Info: AMBER PARM FILE        mobley_6973347.prmtop
Info: COORDINATE PDB         mobley_6973347.pdb
Info: Exclusions will be read from PARM file!
Info: SCNB (VDW SCALING)     2
Info: USING ARITHMETIC MEAN TO COMBINE L-J SIGMA PARAMETERS
Info: BINARY COORDINATES     mobley_6973347_equil.coor
Info: SUMMARY OF PARAMETERS:
Info: 9 BONDS
Info: 11 ANGLES
Info:   11 HARMONIC
Info:   0 COSINE-BASED
Info: 15 DIHEDRAL
Info: 0 IMPROPER
Info: 0 CROSSTERM
Info: 0 VDW
Info: 36 VDW_PAIRS
Info: 0 NBTHOLE_PAIRS
Info: To read alchdata from file: mobley_6973347.pdb
Info: To read alchflag data from column: 5
Info: STRUCTURE SUMMARY:
Info: 2921 ATOMS
Info: 2920 BONDS
Info: 22 ANGLES
Info: 34 DIHEDRALS
Info: 0 IMPROPERS
Info: 0 CROSSTERMS
Info: 2962 EXCLUSIONS
Info: 2915 RIGID BONDS
Info: ALCH: 0 ATOMS TO DISAPPEAR IN FINAL STATE
Info: ALCH: 14 ATOMS TO APPEAR IN FINAL STATE
Info: 5848 DEGREES OF FREEDOM
Info: 975 HYDROGEN GROUPS
Info: 4 ATOMS IN LARGEST HYDROGEN GROUP
Info: 975 MIGRATION GROUPS
Info: 4 ATOMS IN LARGEST MIGRATION GROUP
Info: TOTAL MASS = 17545.6 amu
Info: TOTAL CHARGE = 0.000100005 e
Info: MASS DENSITY = 0.988401 g/cm^3
Info: ATOM DENSITY = 0.0990916 atoms/A^3
Info: ADDED 0 IMPLICIT EXCLUSIONS
Info: NONBONDED TABLE R-SQUARED SPACING: 0.0625
Info: NONBONDED TABLE SIZE: 705 POINTS
Info: REMOVING COM VELOCITY 0.0513039 -0.1155 -0.100737
Info: Use 3D box decompostion in PME FFT.
Info: Updated CUDA force table with 4096 elements.
Info: Updated CUDA LJ table with 8 x 8 elements.
Info: Found 17 unique exclusion lists needing 32 bytes
TCL: Running for 1500000 steps
ETITLE: TS BOND ANGLE DIHED IMPRP ELECT VDW BOUNDARY MISC KINETIC TOTAL TEMP POTENTIAL TOTALAVG TEMPAVG PRESSURE GPRESSURE VOLUME PRESSAVG GPRESSAVG
ENERGY: 0 1.0277 8.6012 5.8678 0.0000 -10735.6825 1483.8804 0.0000 0.0000 1769.1079 -7467.1975 304.4650 -9236.3054 -7467.1975 304.4650 755.7242 837.1858 29477.7640 755.7242 837.1858
ENERGY: 300000 1.8092 11.1025 4.6779 0.0000 -10620.0611 1419.9781 0.0000 0.0000 1786.3414 -7396.1520 307.4309 -9182.4934 -7410.9947 304.5295 -10.2529 -13.6863 30156.9749 287.9870 337.6919
ENERGY: 600000 2.4970 5.3473 6.7194 0.0000 -10634.9552 1394.0876 0.0000 0.0000 1714.2537 -7512.0502 295.0245 -9226.3039 -7426.4125 303.7444 -93.2334 -55.5343 29843.3066 121.1489 166.7199
ENERGY: 900000 1.5207 6.2885 5.2514 0.0000 -10645.4067 1384.3658 0.0000 0.0000 1733.3372 -7514.6431 298.3088 -9247.9803 -7440.1741 301.0957 -379.3720 -371.6244 29877.5993 -78.6183 -25.2589
ENERGY: 1200000 2.8891 7.7627 7.3319 0.0000 -10765.9851 1512.1494 0.0000 0.0000 1756.6232 -7479.2289 302.3163 -9235.8521 -7443.1923 301.4213 567.7879 688.5157 29841.0035 -38.0014 26.5978
ENERGY: 1500000 4.4953 11.9413 5.6445 0.0000 -10715.3457 1473.9606 0.0000 0.0000 1690.3243 -7528.9797 290.9063 -9219.3040 -7447.1001 301.2812 156.5398 215.7575 29995.8060 63.4024 129.4329
TCL: Running FEP window   2: Lambda1 0.95   Lambda2 0.8999999999999999 [dLambda -0.050000000000000044]
TCL: Setting parameter firsttimestep to 0
TCL: Setting parameter alchLambda to 0.95
Info: NONBONDED TABLE R-SQUARED SPACING: 0.0625
Info: NONBONDED TABLE SIZE: 705 POINTS
TCL: Setting parameter alchLambda2 to 0.8999999999999999
Info: NONBONDED TABLE R-SQUARED SPACING: 0.0625
Info: NONBONDED TABLE SIZE: 705 POINTS
TCL: Running for 1500000 steps
ETITLE: TS BOND ANGLE DIHED IMPRP ELECT VDW BOUNDARY MISC KINETIC TOTAL TEMP POTENTIAL TOTALAVG TEMPAVG PRESSURE GPRESSURE VOLUME PRESSAVG GPRESSAVG
ENERGY: 0 4.4953 11.9413 5.6445 0.0000 -10714.1836 1473.9236 0.0000 0.0000 1689.4538 -7528.7251 290.7564 -9218.1789 -7528.7251 290.7564 135.1576 210.1117 29995.8060 135.1576 210.1117
ENERGY: 300000 1.9773 3.7688 6.3429 0.0000 -10496.9065 1375.9996 0.0000 0.0000 1799.9779 -7308.8399 309.7777 -9108.8178 -7441.1339 296.4502 -237.5208 -140.1167 30277.8286 -43.6005 26.0255
ENERGY: 600000 3.8615 6.3096 5.0020 0.0000 -10640.8967 1388.2497 0.0000 0.0000 1713.4927 -7523.9812 294.8936 -9237.4739 -7464.8838 296.7114 -474.5324 -441.4708 29920.5993 -106.2811 -43.4052
ENERGY: 900000 2.2468 10.3382 5.0299 0.0000 -10669.2424 1440.2984 0.0000 0.0000 1693.7529 -7517.5763 291.4963 -9211.3292 -7472.8989 297.0910 -89.1953 -38.3494 30211.4602 -3.5373 58.4678
ENERGY: 1200000 0.8961 4.2325 6.0715 0.0000 -10771.8138 1503.5309 0.0000 0.0000 1733.3972 -7523.6856 298.3191 -9257.0828 -7473.5345 297.5880 493.7441 549.0902 29772.4206 63.4405 118.8171
ENERGY: 1500000 3.1360 5.6727 4.0219 0.0000 -10724.6744 1492.8772 0.0000 0.0000 1700.2266 -7518.7400 292.6105 -9218.9666 -7467.1489 297.2735 497.6255 567.0627 29806.2059 65.9552 124.6889
TCL: Running FEP window   3: Lambda1 0.8999999999999999 Lambda2 0.8499999999999999 [dLambda -0.050000000000000044]
TCL: Setting parameter firsttimestep to 0
TCL: Setting parameter alchLambda to 0.8999999999999999
Info: NONBONDED TABLE R-SQUARED SPACING: 0.0625
Info: NONBONDED TABLE SIZE: 705 POINTS
TCL: Setting parameter alchLambda2 to 0.8499999999999999
Info: NONBONDED TABLE R-SQUARED SPACING: 0.0625
Info: NONBONDED TABLE SIZE: 705 POINTS
TCL: Running for 1500000 steps
ETITLE: TS BOND ANGLE DIHED IMPRP ELECT VDW BOUNDARY MISC KINETIC TOTAL TEMP POTENTIAL TOTALAVG TEMPAVG PRESSURE GPRESSURE VOLUME PRESSAVG GPRESSAVG
ENERGY: 0 3.1360 5.6727 4.0219 0.0000 -10723.4810 1491.4568 0.0000 0.0000 1699.3355 -7519.8582 292.4571 -9219.1936 -7519.8582 292.4571 456.1643 541.2271 29806.2059 456.1643 541.2271
ENERGY: 300000 0.5634 5.1225 6.6702 0.0000 -10644.5173 1429.6497 0.0000 0.0000 1787.4254 -7415.0861 307.6174 -9202.5115 -7422.2976 300.6051 134.3887 116.8340 29806.5144 177.0698 223.9640
ENERGY: 600000 2.2695 7.5304 7.0540 0.0000 -10582.3079 1394.3753 0.0000 0.0000 1796.6750 -7374.4037 309.2093 -9171.0787 -7423.1034 302.3363 -76.1022 -44.2702 30244.6906 184.6354 250.6496
ENERGY: 900000 3.4639 8.2595 7.8819 0.0000 -10664.5702 1495.9169 0.0000 0.0000 1773.1788 -7375.8693 305.1656 -9149.0481 -7411.4407 302.3617 834.5731 886.3559 29751.4826 259.6198 316.8375
ENERGY: 1200000 2.5504 7.0242 6.0370 0.0000 -10666.7039 1434.3974 0.0000 0.0000 1718.5708 -7498.1241 295.7675 -9216.6948 -7418.0365 301.4639 -21.6004 14.4440 30298.0317 200.0774 248.1923
ENERGY: 1500000 1.2892 10.2543 4.9433 0.0000 -10661.6391 1474.2078 0.0000 0.0000 1753.0783 -7417.8662 301.7063 -9170.9445 -7424.1287 301.1171 320.4602 455.1885 30078.8266 229.5176 287.5006
TCL: Running FEP window   4: Lambda1 0.8499999999999999 Lambda2 0.7999999999999998 [dLambda -0.050000000000000044]
TCL: Setting parameter firsttimestep to 0
TCL: Setting parameter alchLambda to 0.8499999999999999
Info: NONBONDED TABLE R-SQUARED SPACING: 0.0625
Info: NONBONDED TABLE SIZE: 705 POINTS
TCL: Setting parameter alchLambda2 to 0.7999999999999998
Info: NONBONDED TABLE R-SQUARED SPACING: 0.0625
Info: NONBONDED TABLE SIZE: 705 POINTS
TCL: Running for 1500000 steps
ETITLE: TS BOND ANGLE DIHED IMPRP ELECT VDW BOUNDARY MISC KINETIC TOTAL TEMP POTENTIAL TOTALAVG TEMPAVG PRESSURE GPRESSURE VOLUME PRESSAVG GPRESSAVG
ENERGY: 0 1.2893 10.2543 4.9433 0.0000 -10660.5076 1473.9236 0.0000 0.0000 1752.1929 -7417.9042 301.5539 -9170.0971 -7417.9042 301.5539 352.1935 448.3459 30078.8266 352.1935 448.3459
ENERGY: 300000 0.9331 6.6873 5.8800 0.0000 -10660.9559 1438.4910 0.0000 0.0000 1713.6143 -7495.3501 294.9145 -9208.9644 -7444.4570 298.8586 135.2029 113.5429 29898.6286 -18.4433 23.6351
ENERGY: 600000 2.3183 4.5869 5.8249 0.0000 -10650.2839 1422.0421 0.0000 0.0000 1709.7551 -7505.7566 294.2503 -9215.5117 -7448.8062 297.1683 50.8750 82.0889 29934.4372 -73.6581 -20.1978
ENERGY: 900000 1.9915 5.5074 5.3863 0.0000 -10438.1899 1340.8777 0.0000 0.0000 1739.0352 -7345.3920 299.2894 -9084.4271 -7423.5889 298.1924 -736.8928 -641.1331 30828.0386 -227.1686 -169.4582
ENERGY: 1200000 0.2409 4.1720 9.7604 0.0000 -10520.7267 1368.5292 0.0000 0.0000 1742.9674 -7395.0569 299.9662 -9138.0243 -7423.2797 299.0285 -528.1926 -426.8185 30415.6907 -299.2349 -237.8635
ENERGY: 1500000 0.7778 3.9393 6.9376 0.0000 -10700.6280 1425.8963 0.0000 0.0000 1725.4023 -7537.6748 296.9432 -9263.0771 -7430.5336 298.7902 -41.1862 -34.7946 29605.8973 -229.4305 -168.5584
TCL: Running FEP window   5: Lambda1 0.7999999999999998 Lambda2 0.7499999999999998 [dLambda -0.050000000000000044]
TCL: Setting parameter firsttimestep to 0
TCL: Setting parameter alchLambda to 0.7999999999999998
Info: NONBONDED TABLE R-SQUARED SPACING: 0.0625
Info: NONBONDED TABLE SIZE: 705 POINTS
TCL: Setting parameter alchLambda2 to 0.7499999999999998
Info: NONBONDED TABLE R-SQUARED SPACING: 0.0625
Info: NONBONDED TABLE SIZE: 705 POINTS
TCL: Running for 1500000 steps
ETITLE: TS BOND ANGLE DIHED IMPRP ELECT VDW BOUNDARY MISC KINETIC TOTAL TEMP POTENTIAL TOTALAVG TEMPAVG PRESSURE GPRESSURE VOLUME PRESSAVG GPRESSAVG
ENERGY: 0 0.7778 3.9393 6.9376 0.0000 -10699.5431 1425.8322 0.0000 0.0000 1724.5206 -7537.5356 296.7915 -9262.0563 -7537.5356 296.7915 -125.8428 -43.4039 29605.8973 -125.8428 -43.4039
ENERGY: 300000 0.5452 4.9741 6.2482 0.0000 -10547.2748 1372.7608 0.0000 0.0000 1747.4614 -7415.2852 300.7396 -9162.7466 -7449.7427 298.8901 -632.4310 -609.1600 30610.5741 -44.2307 16.4749
ENERGY: 600000 1.1406 3.9304 6.0062 0.0000 -10730.3913 1499.0243 0.0000 0.0000 1732.2664 -7488.0235 298.1245 -9220.2899 -7448.0073 298.1912 578.8402 702.3791 29767.8737 50.3200 122.3177
ENERGY: 900000 3.8521 8.3283 4.1343 0.0000 -10787.8277 1564.6529 0.0000 0.0000 1722.8811 -7483.9790 296.5093 -9206.8601 -7445.5391 298.4205 1241.4468 1269.4416 29606.9330 -63.4011 9.5843
ENERGY: 1200000 1.0202 3.6109 5.4687 0.0000 -10741.4905 1476.0248 0.0000 0.0000 1717.9484 -7537.4175 295.6604 -9255.3659 -7449.6121 298.0106 121.7799 193.4848 30068.1786 -41.5498 28.6777
ENERGY: 1500000 2.2766 6.2326 6.4958 0.0000 -10576.4805 1362.9850 0.0000 0.0000 1760.7820 -7437.7085 303.0321 -9198.4906 -7453.6564 297.9710 -623.0121 -537.5036 30276.1442 -88.7553 -18.3738
TCL: Running FEP window   6: Lambda1 0.7499999999999998 Lambda2 0.6999999999999997 [dLambda -0.050000000000000044]
TCL: Setting parameter firsttimestep to 0
TCL: Setting parameter alchLambda to 0.7499999999999998
Info: NONBONDED TABLE R-SQUARED SPACING: 0.0625
Info: NONBONDED TABLE SIZE: 705 POINTS
TCL: Setting parameter alchLambda2 to 0.6999999999999997
Info: NONBONDED TABLE R-SQUARED SPACING: 0.0625
Info: NONBONDED TABLE SIZE: 705 POINTS
TCL: Running for 1500000 steps
ETITLE: TS BOND ANGLE DIHED IMPRP ELECT VDW BOUNDARY MISC KINETIC TOTAL TEMP POTENTIAL TOTALAVG TEMPAVG PRESSURE GPRESSURE VOLUME PRESSAVG GPRESSAVG
ENERGY: 0 2.2766 6.2326 6.4958 0.0000 -10575.9449 1363.3397 0.0000 0.0000 1759.8963 -7437.7039 302.8796 -9197.6002 -7437.7039 302.8796 -626.8172 -539.8954 30276.1442 -626.8172 -539.8954
ENERGY: 300000 0.7751 6.2726 5.5119 0.0000 -10556.3311 1436.2963 0.0000 0.0000 1772.1247 -7335.3505 304.9842 -9107.4752 -7394.3764 302.9307 157.8457 309.5709 30447.1202 -193.3229 -89.4143
ENERGY: 600000 1.1456 4.9443 4.6182 0.0000 -10492.5258 1296.8074 0.0000 0.0000 1719.3659 -7465.6444 295.9043 -9185.0103 -7417.2688 300.3698 -1011.2517 -981.6879 30128.5363 -169.7983 -103.8129
ENERGY: 900000 3.1751 5.0615 6.3124 0.0000 -10627.2843 1420.7396 0.0000 0.0000 1790.4514 -7401.5443 308.1382 -9191.9958 -7426.8480 301.1208 228.6497 283.4921 29908.5508 -127.6816 -56.4350
ENERGY: 1200000 0.9923 5.3855 6.2056 0.0000 -10560.0974 1357.6281 0.0000 0.0000 1731.5748 -7458.3111 298.0055 -9189.8859 -7422.2963 300.2200 -397.7165 -309.8964 29782.4187 -184.6544 -125.3316
ENERGY: 1500000 2.7845 9.2821 7.4843 0.0000 -10524.5797 1399.7346 0.0000 0.0000 1831.5350 -7273.7592 315.2087 -9105.2942 -7422.0795 300.6292 99.3329 132.4099 30362.0838 -136.4972 -78.1074
TCL: Running FEP window   7: Lambda1 0.6999999999999997 Lambda2 0.6499999999999997 [dLambda -0.050000000000000044]
TCL: Setting parameter firsttimestep to 0
TCL: Setting parameter alchLambda to 0.6999999999999997
Info: NONBONDED TABLE R-SQUARED SPACING: 0.0625
Info: NONBONDED TABLE SIZE: 705 POINTS
TCL: Setting parameter alchLambda2 to 0.6499999999999997
Info: NONBONDED TABLE R-SQUARED SPACING: 0.0625
Info: NONBONDED TABLE SIZE: 705 POINTS
TCL: Running for 1500000 steps
ETITLE: TS BOND ANGLE DIHED IMPRP ELECT VDW BOUNDARY MISC KINETIC TOTAL TEMP POTENTIAL TOTALAVG TEMPAVG PRESSURE GPRESSURE VOLUME PRESSAVG GPRESSAVG
ENERGY: 0 2.7845 9.2821 7.4843 0.0000 -10523.7229 1399.3095 0.0000 0.0000 1830.6939 -7274.1686 315.0640 -9104.8626 -7274.1686 315.0640 48.5358 120.1395 30362.0838 48.5358 120.1395
ENERGY: 300000 1.9757 5.1202 5.1270 0.0000 -10557.4120 1340.4019 0.0000 0.0000 1726.3112 -7478.4760 297.0996 -9204.7872 -7412.5447 305.1654 -781.7054 -726.0655 30444.8087 -306.2710 -265.2145
ENERGY: 600000 1.1119 9.1428 5.7747 0.0000 -10685.9751 1452.3741 0.0000 0.0000 1733.2237 -7484.3480 298.2893 -9217.5717 -7415.9138 303.2538 269.5108 329.5258 29645.2311 -331.4724 -286.4546
ENERGY: 900000 0.9254 6.3687 7.1166 0.0000 -10622.3853 1494.7010 0.0000 0.0000 1754.6494 -7358.6242 301.9767 -9113.2737 -7410.3956 303.7070 718.8751 788.1742 30196.2629 -222.8490 -180.2447
ENERGY: 1200000 0.2996 6.2684 5.6725 0.0000 -10491.2363 1325.8040 0.0000 0.0000 1769.0719 -7384.1200 304.4588 -9153.1919 -7415.5963 303.0736 -763.4812 -616.0772 30284.9892 -230.7956 -172.7221
ENERGY: 1500000 0.8456 5.2366 5.6317 0.0000 -10474.5389 1362.2233 0.0000 0.0000 1701.9263 -7398.6754 292.9030 -9100.6017 -7416.0013 302.2337 -419.1949 -350.7166 30201.1735 -254.3880 -190.2518
TCL: Running FEP window   8: Lambda1 0.6499999999999997 Lambda2 0.5999999999999996 [dLambda -0.050000000000000044]
TCL: Setting parameter firsttimestep to 0
TCL: Setting parameter alchLambda to 0.6499999999999997
Info: NONBONDED TABLE R-SQUARED SPACING: 0.0625
Info: NONBONDED TABLE SIZE: 705 POINTS
TCL: Setting parameter alchLambda2 to 0.5999999999999996
Info: NONBONDED TABLE R-SQUARED SPACING: 0.0625
Info: NONBONDED TABLE SIZE: 705 POINTS
TCL: Running for 1500000 steps
ETITLE: TS BOND ANGLE DIHED IMPRP ELECT VDW BOUNDARY MISC KINETIC TOTAL TEMP POTENTIAL TOTALAVG TEMPAVG PRESSURE GPRESSURE VOLUME PRESSAVG GPRESSAVG
ENERGY: 0 0.8456 5.2366 5.6317 0.0000 -10474.0221 1362.5865 0.0000 0.0000 1701.0921 -7398.6296 292.7594 -9099.7217 -7398.6296 292.7594 -434.1947 -354.0820 30201.1735 -434.1947 -354.0820
ENERGY: 300000 0.7262 7.6251 6.6327 0.0000 -10649.6150 1529.6452 0.0000 0.0000 1791.3692 -7313.6166 308.2962 -9104.9857 -7395.6155 299.5339 999.3571 1056.5000 30000.4161 -56.0074 7.8696
ENERGY: 600000 2.1596 5.3007 5.3262 0.0000 -10651.5135 1437.6571 0.0000 0.0000 1683.3259 -7517.7440 289.7018 -9201.0699 -7422.2203 297.6415 36.9847 47.3056 30096.3618 -103.0180 -52.1322
ENERGY: 900000 1.6843 9.9560 5.8632 0.0000 -10543.4947 1333.9178 0.0000 0.0000 1724.7767 -7467.2968 296.8355 -9192.0735 -7436.0298 297.8210 -1037.8124 -937.6290 30141.5831 -252.7464 -197.9613
ENERGY: 1200000 0.4489 5.9729 5.9310 0.0000 -10643.0726 1402.1060 0.0000 0.0000 1746.8336 -7481.7801 300.6316 -9228.6138 -7443.3730 298.4841 -394.0046 -317.6598 30289.4362 -234.1494 -179.5462
ENERGY: 1500000 0.4313 5.0500 4.8933 0.0000 -10565.3787 1392.9938 0.0000 0.0000 1753.6367 -7408.3735 301.8024 -9162.0102 -7423.5997 300.1544 -620.3349 -504.4384 30540.1723 -237.5586 -183.7797
TCL: Running FEP window   9: Lambda1 0.5999999999999996 Lambda2 0.5499999999999996 [dLambda -0.050000000000000044]
TCL: Setting parameter firsttimestep to 0
TCL: Setting parameter alchLambda to 0.5999999999999996
Info: NONBONDED TABLE R-SQUARED SPACING: 0.0625
Info: NONBONDED TABLE SIZE: 705 POINTS
TCL: Setting parameter alchLambda2 to 0.5499999999999996
Info: NONBONDED TABLE R-SQUARED SPACING: 0.0625
Info: NONBONDED TABLE SIZE: 705 POINTS
TCL: Running for 1500000 steps
ETITLE: TS BOND ANGLE DIHED IMPRP ELECT VDW BOUNDARY MISC KINETIC TOTAL TEMP POTENTIAL TOTALAVG TEMPAVG PRESSURE GPRESSURE VOLUME PRESSAVG GPRESSAVG
ENERGY: 0 0.4313 5.0500 4.8933 0.0000 -10563.8995 1392.9986 0.0000 0.0000 1752.8019 -7407.7243 301.6587 -9160.5262 -7407.7243 301.6587 -590.9793 -506.5965 30540.1723 -590.9793 -506.5965
ENERGY: 300000 1.3550 7.0681 4.6723 0.0000 -10598.7656 1391.6275 0.0000 0.0000 1751.1284 -7442.9142 301.3707 -9194.0426 -7429.8530 300.5948 -296.7459 -230.9672 29974.7694 -423.3011 -335.8354
ENERGY: 600000 0.5418 5.0815 5.8864 0.0000 -10518.2278 1442.2241 0.0000 0.0000 1773.9934 -7290.5005 305.3058 -9064.4939 -7406.2357 300.9585 501.2228 572.0813 30139.2838 -249.4576 -167.5937
ENERGY: 900000 3.9745 3.5773 6.1823 0.0000 -10658.7254 1431.4020 0.0000 0.0000 1725.0112 -7488.5782 296.8759 -9213.5894 -7425.6758 299.8493 -270.3612 -270.3912 30550.6450 -100.8945 -42.3465
ENERGY: 1200000 1.2196 7.4012 4.2348 0.0000 -10517.7281 1383.8502 0.0000 0.0000 1755.5434 -7365.4789 302.1305 -9121.0223 -7417.3469 299.9808 -313.5939 -193.1809 30495.6780 -189.3114 -124.8770
ENERGY: 1500000 0.4664 7.3152 5.2886 0.0000 -10475.0027 1314.1809 0.0000 0.0000 1698.0137 -7449.7378 292.2296 -9147.7515 -7426.7126 299.7790 -1005.9806 -999.4195 30487.3599 -222.9727 -164.6946
TCL: Running FEP window  10: Lambda1 0.5499999999999996 Lambda2 0.4999999999999996 [dLambda -0.04999999999999999]
TCL: Setting parameter firsttimestep to 0
TCL: Setting parameter alchLambda to 0.5499999999999996
Info: NONBONDED TABLE R-SQUARED SPACING: 0.0625
Info: NONBONDED TABLE SIZE: 705 POINTS
TCL: Setting parameter alchLambda2 to 0.4999999999999996
Info: NONBONDED TABLE R-SQUARED SPACING: 0.0625
Info: NONBONDED TABLE SIZE: 705 POINTS
TCL: Running for 1500000 steps
ETITLE: TS BOND ANGLE DIHED IMPRP ELECT VDW BOUNDARY MISC KINETIC TOTAL TEMP POTENTIAL TOTALAVG TEMPAVG PRESSURE GPRESSURE VOLUME PRESSAVG GPRESSAVG
ENERGY: 0 0.4664 7.3152 5.2886 0.0000 -10473.8492 1314.0957 0.0000 0.0000 1697.1682 -7449.5151 292.0841 -9146.6833 -7449.5151 292.0841 -1095.9379 -1003.1165 30487.3599 -1095.9379 -1003.1165
ENERGY: 300000 1.6117 6.8093 5.6411 0.0000 -10700.0348 1556.9577 0.0000 0.0000 1754.3321 -7374.6829 301.9221 -9129.0150 -7419.9597 297.8502 1096.8927 1166.9214 30197.4969 -342.7436 -261.9538
ENERGY: 600000 0.9029 3.7850 7.0578 0.0000 -10613.7253 1423.2561 0.0000 0.0000 1774.2997 -7404.4237 305.3585 -9178.7234 -7422.2022 300.3824 228.0055 333.6306 29857.4742 -102.1438 -23.2617
ENERGY: 900000 1.1557 9.0477 5.1859 0.0000 -10671.7035 1430.2440 0.0000 0.0000 1715.1224 -7510.9478 295.1740 -9226.0702 -7442.8125 298.3061 -353.6952 -300.6516 30241.3818 -111.3434 -41.0107
ENERGY: 1200000 1.9997 5.9563 6.4750 0.0000 -10714.9460 1489.0433 0.0000 0.0000 1712.6748 -7498.7970 294.7528 -9211.4718 -7439.1285 298.2675 477.8250 465.7855 29902.6644 47.0760 109.5736
ENERGY: 1500000 0.5384 4.4688 4.5132 0.0000 -10450.6243 1326.5658 0.0000 0.0000 1760.0378 -7354.5003 302.9040 -9114.5381 -7434.8171 297.7548 -884.5323 -779.2602 30514.9389 -82.2852 -14.1651
TCL: Running FEP window  11: Lambda1 0.4999999999999996 Lambda2 0.4499999999999996 [dLambda -0.04999999999999999]
TCL: Setting parameter firsttimestep to 0
TCL: Setting parameter alchLambda to 0.4999999999999996
Info: NONBONDED TABLE R-SQUARED SPACING: 0.0625
Info: NONBONDED TABLE SIZE: 705 POINTS
TCL: Setting parameter alchLambda2 to 0.4499999999999996
Info: NONBONDED TABLE R-SQUARED SPACING: 0.0625
Info: NONBONDED TABLE SIZE: 705 POINTS
TCL: Running for 1500000 steps
ETITLE: TS BOND ANGLE DIHED IMPRP ELECT VDW BOUNDARY MISC KINETIC TOTAL TEMP POTENTIAL TOTALAVG TEMPAVG PRESSURE GPRESSURE VOLUME PRESSAVG GPRESSAVG
ENERGY: 0 0.5384 4.4688 4.5132 0.0000 -10450.5106 1326.8233 0.0000 0.0000 1759.1831 -7354.9839 302.7569 -9114.1670 -7354.9839 302.7569 -873.1189 -783.0120 30514.9389 -873.1189 -783.0120
ENERGY: 300000 1.7523 6.1188 6.8216 0.0000 -10533.4093 1383.2245 0.0000 0.0000 1716.2616 -7419.2305 295.3701 -9135.4921 -7434.5515 299.1199 -205.1319 -99.9625 29973.2823 -315.0414 -214.2330
ENERGY: 600000 0.6612 3.9033 5.0850 0.0000 -10659.5620 1444.1916 0.0000 0.0000 1766.3195 -7439.4013 303.9851 -9205.7209 -7426.3324 301.1799 237.2276 301.5558 29918.3344 -211.2637 -135.0481
ENERGY: 900000 2.7719 5.7417 4.3324 0.0000 -10559.4233 1342.0540 0.0000 0.0000 1725.9787 -7478.5445 297.0424 -9204.5232 -7435.4456 300.4260 -1096.5757 -988.9109 30410.3023 -233.6890 -160.4452
ENERGY: 1200000 1.6469 9.5408 4.6112 0.0000 -10693.5768 1477.8901 0.0000 0.0000 1753.1372 -7446.7506 301.7164 -9199.8878 -7433.9052 299.8266 603.0134 674.8500 29416.7319 -66.4916 5.1859
ENERGY: 1500000 1.5027 7.2571 5.3248 0.0000 -10523.4988 1389.8986 0.0000 0.0000 1757.0164 -7362.4992 302.3840 -9119.5156 -7436.3515 299.5136 -349.4923 -277.3483 30433.2995 -114.9657 -45.5953
TCL: Running FEP window  12: Lambda1 0.4499999999999996 Lambda2 0.39999999999999963 [dLambda -0.04999999999999999]
TCL: Setting parameter firsttimestep to 0
TCL: Setting parameter alchLambda to 0.4499999999999996
Info: NONBONDED TABLE R-SQUARED SPACING: 0.0625
Info: NONBONDED TABLE SIZE: 705 POINTS
TCL: Setting parameter alchLambda2 to 0.39999999999999963
Info: NONBONDED TABLE R-SQUARED SPACING: 0.0625
Info: NONBONDED TABLE SIZE: 705 POINTS
TCL: Running for 1500000 steps
ETITLE: TS BOND ANGLE DIHED IMPRP ELECT VDW BOUNDARY MISC KINETIC TOTAL TEMP POTENTIAL TOTALAVG TEMPAVG PRESSURE GPRESSURE VOLUME PRESSAVG GPRESSAVG
ENERGY: 0 1.5027 7.2571 5.3248 0.0000 -10523.4994 1390.5247 0.0000 0.0000 1756.1053 -7362.7848 302.2272 -9118.8901 -7362.7848 302.2272 -358.5602 -276.9748 30433.2995 -358.5602 -276.9748
ENERGY: 300000 0.6479 5.4232 5.3914 0.0000 -10541.4105 1367.2609 0.0000 0.0000 1777.8975 -7384.7896 305.9777 -9162.6871 -7427.9302 299.2105 -248.9898 -224.8954 29786.7765 -245.6720 -183.3614
ENERGY: 600000 0.4162 3.5184 5.6700 0.0000 -10668.9180 1448.4671 0.0000 0.0000 1736.2534 -7474.5929 298.8107 -9210.8463 -7418.7506 301.0173 195.8609 239.2622 29892.2770 -57.5843 -0.0656
ENERGY: 900000 0.9213 6.3678 6.6960 0.0000 -10582.0539 1340.1185 0.0000 0.0000 1753.2409 -7474.7093 301.7343 -9227.9502 -7420.9349 301.0308 -649.2483 -593.0528 29782.5262 -206.8727 -143.1301
ENERGY: 1200000 1.4403 4.1893 5.6477 0.0000 -10586.0387 1400.6994 0.0000 0.0000 1699.2494 -7474.8126 292.4423 -9174.0620 -7413.8777 301.2232 -384.8880 -265.7815 30101.0313 -277.6398 -215.7075
ENERGY: 1500000 0.5977 3.6092 5.9690 0.0000 -10679.0871 1458.6789 0.0000 0.0000 1742.2125 -7468.0198 299.8363 -9210.2323 -7419.0796 301.0482 188.6076 278.6413 29890.4092 -273.5515 -213.1399
TCL: Running FEP window  13: Lambda1 0.39999999999999963 Lambda2 0.34999999999999964 [dLambda -0.04999999999999999]
TCL: Setting parameter firsttimestep to 0
TCL: Setting parameter alchLambda to 0.39999999999999963
Info: NONBONDED TABLE R-SQUARED SPACING: 0.0625
Info: NONBONDED TABLE SIZE: 705 POINTS
TCL: Setting parameter alchLambda2 to 0.34999999999999964
Info: NONBONDED TABLE R-SQUARED SPACING: 0.0625
Info: NONBONDED TABLE SIZE: 705 POINTS
TCL: Running for 1500000 steps
ETITLE: TS BOND ANGLE DIHED IMPRP ELECT VDW BOUNDARY MISC KINETIC TOTAL TEMP POTENTIAL TOTALAVG TEMPAVG PRESSURE GPRESSURE VOLUME PRESSAVG GPRESSAVG
ENERGY: 0 0.5977 3.6092 5.9690 0.0000 -10679.0876 1459.0563 0.0000 0.0000 1741.3407 -7468.5147 299.6862 -9209.8553 -7468.5147 299.6862 179.0962 276.3553 29890.4092 179.0962 276.3553
ENERGY: 300000 1.2054 11.3130 6.4270 0.0000 -10483.6484 1336.2543 0.0000 0.0000 1733.8869 -7394.5617 298.4034 -9128.4486 -7457.5649 296.1695 -979.8624 -863.2969 30453.0317 -160.7634 -67.4356
ENERGY: 600000 1.6110 5.5456 7.4705 0.0000 -10626.5903 1440.6441 0.0000 0.0000 1698.0125 -7473.3065 292.2294 -9171.3190 -7453.7182 296.3450 -93.8392 44.6144 30054.1473 -187.6061 -91.5601
ENERGY: 900000 1.1921 8.7412 6.8980 0.0000 -10551.7518 1364.9050 0.0000 0.0000 1768.1943 -7401.8213 304.3077 -9170.0156 -7446.1642 298.6867 -352.1544 -244.2854 29919.3614 -161.6128 -73.2194
ENERGY: 1200000 1.6098 6.3822 4.9715 0.0000 -10535.0347 1366.1294 0.0000 0.0000 1766.3709 -7389.5709 303.9939 -9155.9418 -7449.0225 299.0725 -394.8733 -298.9487 30042.6055 -160.2050 -70.6477
ENERGY: 1500000 1.7293 4.1417 6.2399 0.0000 -10644.5609 1415.0210 0.0000 0.0000 1711.1634 -7506.2656 294.4927 -9217.4290 -7447.5756 298.4745 -516.1518 -438.2846 30300.6808 -180.7094 -91.9739
TCL: Running FEP window  14: Lambda1 0.34999999999999964 Lambda2 0.29999999999999966 [dLambda -0.04999999999999999]
TCL: Setting parameter firsttimestep to 0
TCL: Setting parameter alchLambda to 0.34999999999999964
Info: NONBONDED TABLE R-SQUARED SPACING: 0.0625
Info: NONBONDED TABLE SIZE: 705 POINTS
TCL: Setting parameter alchLambda2 to 0.29999999999999966
Info: NONBONDED TABLE R-SQUARED SPACING: 0.0625
Info: NONBONDED TABLE SIZE: 705 POINTS
TCL: Running for 1500000 steps
ETITLE: TS BOND ANGLE DIHED IMPRP ELECT VDW BOUNDARY MISC KINETIC TOTAL TEMP POTENTIAL TOTALAVG TEMPAVG PRESSURE GPRESSURE VOLUME PRESSAVG GPRESSAVG
ENERGY: 0 1.7293 4.1417 6.2399 0.0000 -10644.5612 1415.4584 0.0000 0.0000 1710.2953 -7506.6965 294.3433 -9216.9919 -7506.6965 294.3433 -518.0661 -438.3349 30300.6808 -518.0661 -438.3349
ENERGY: 300000 0.8914 4.1353 5.7930 0.0000 -10496.3056 1404.3909 0.0000 0.0000 1742.0424 -7339.0527 299.8070 -9081.0951 -7413.9114 299.7681 72.6304 195.7581 30086.6460 -235.1543 -160.2020
ENERGY: 600000 0.6547 7.6427 5.3417 0.0000 -10549.3826 1370.8583 0.0000 0.0000 1716.3266 -7448.5585 295.3813 -9164.8851 -7400.1280 300.6302 -546.3990 -475.2486 30235.3942 -406.8926 -330.7373
ENERGY: 900000 1.0578 6.3883 4.9811 0.0000 -10696.1986 1441.0012 0.0000 0.0000 1724.7921 -7517.9781 296.8382 -9242.7703 -7411.6580 300.0363 -106.5656 -42.6762 29864.5789 -261.4330 -185.5500
ENERGY: 1200000 1.7019 5.5151 5.6107 0.0000 -10604.5072 1434.5391 0.0000 0.0000 1725.3524 -7431.7879 296.9346 -9157.1403 -7416.3367 299.5000 -1.9672 75.6184 29835.8687 -184.9182 -107.3923
ENERGY: 1500000 0.8511 6.0966 6.1840 0.0000 -10514.7551 1348.9956 0.0000 0.0000 1743.0166 -7409.6111 299.9746 -9152.6278 -7412.0728 299.7620 -315.9428 -252.8634 29830.8442 -158.3939 -83.7187
TCL: Running FEP window  15: Lambda1 0.29999999999999966 Lambda2 0.24999999999999967 [dLambda -0.04999999999999999]
TCL: Setting parameter firsttimestep to 0
TCL: Setting parameter alchLambda to 0.29999999999999966
Info: NONBONDED TABLE R-SQUARED SPACING: 0.0625
Info: NONBONDED TABLE SIZE: 705 POINTS
TCL: Setting parameter alchLambda2 to 0.24999999999999967
Info: NONBONDED TABLE R-SQUARED SPACING: 0.0625
Info: NONBONDED TABLE SIZE: 705 POINTS
TCL: Running for 1500000 steps
ETITLE: TS BOND ANGLE DIHED IMPRP ELECT VDW BOUNDARY MISC KINETIC TOTAL TEMP POTENTIAL TOTALAVG TEMPAVG PRESSURE GPRESSURE VOLUME PRESSAVG GPRESSAVG
ENERGY: 0 0.8511 6.0966 6.1840 0.0000 -10514.7565 1348.9664 0.0000 0.0000 1742.1239 -7410.5345 299.8210 -9152.6584 -7410.5345 299.8210 -351.3350 -257.0980 29830.8442 -351.3350 -257.0980
ENERGY: 300000 1.5494 6.6631 5.8474 0.0000 -10537.0147 1360.3362 0.0000 0.0000 1734.7546 -7427.8640 298.5527 -9162.6186 -7418.3363 300.1285 -461.3245 -363.4171 29843.6007 -164.5108 -95.5432
ENERGY: 600000 1.4436 8.5345 6.4135 0.0000 -10616.0356 1469.8764 0.0000 0.0000 1763.4133 -7366.3544 303.4849 -9129.7677 -7404.7102 302.3553 460.5341 467.4056 30001.5373 -123.6976 -57.2238
ENERGY: 900000 1.4588 2.7834 5.8784 0.0000 -10527.9722 1389.6181 0.0000 0.0000 1715.0052 -7413.2282 295.1539 -9128.2334 -7407.0186 301.1204 -419.9076 -342.9624 30378.9494 -157.3183 -80.4830
ENERGY: 1200000 0.7710 3.7128 6.6192 0.0000 -10467.2780 1382.0330 0.0000 0.0000 1749.4942 -7324.6479 301.0894 -9074.1421 -7408.0038 300.5465 65.9030 158.3539 29654.1303 -147.1744 -73.9590
ENERGY: 1500000 1.5792 5.0486 8.3217 0.0000 -10544.7786 1431.5642 0.0000 0.0000 1764.2486 -7334.0163 303.6287 -9098.2649 -7408.3330 300.9082 400.3788 467.3295 29850.4494 -14.9148 50.1533
TCL: Running FEP window  16: Lambda1 0.24999999999999967 Lambda2 0.19999999999999968 [dLambda -0.04999999999999999]
TCL: Setting parameter firsttimestep to 0
TCL: Setting parameter alchLambda to 0.24999999999999967
Info: NONBONDED TABLE R-SQUARED SPACING: 0.0625
Info: NONBONDED TABLE SIZE: 705 POINTS
TCL: Setting parameter alchLambda2 to 0.19999999999999968
Info: NONBONDED TABLE R-SQUARED SPACING: 0.0625
Info: NONBONDED TABLE SIZE: 705 POINTS
TCL: Running for 1500000 steps
ETITLE: TS BOND ANGLE DIHED IMPRP ELECT VDW BOUNDARY MISC KINETIC TOTAL TEMP POTENTIAL TOTALAVG TEMPAVG PRESSURE GPRESSURE VOLUME PRESSAVG GPRESSAVG
ENERGY: 0 1.5792 5.0486 8.3217 0.0000 -10544.7789 1432.0207 0.0000 0.0000 1763.3486 -7334.4601 303.4738 -9097.8087 -7334.4601 303.4738 371.4482 465.3165 29850.4494 371.4482 465.3165
ENERGY: 300000 3.2992 3.4203 5.1404 0.0000 -10614.5104 1412.7380 0.0000 0.0000 1760.3083 -7429.6042 302.9506 -9189.9125 -7366.2294 303.6609 151.7543 232.9809 29783.1721 65.9777 154.1835
ENERGY: 600000 2.0290 5.0533 5.6384 0.0000 -10698.9300 1463.5798 0.0000 0.0000 1743.0765 -7479.5530 299.9850 -9222.6295 -7397.2434 301.9178 395.4027 474.6972 29508.0747 287.5628 368.4942
ENERGY: 900000 0.8817 4.2198 4.9226 0.0000 -10693.7909 1438.4705 0.0000 0.0000 1767.5769 -7477.7194 304.2015 -9245.2963 -7411.9613 302.1291 -245.5802 -211.4865 30208.1554 104.9135 176.3798
ENERGY: 1200000 0.4894 6.1457 6.8978 0.0000 -10616.6151 1412.0514 0.0000 0.0000 1748.0518 -7442.9790 300.8412 -9191.0308 -7416.0347 301.2723 -356.5655 -269.0147 30373.7166 16.5879 87.2163
ENERGY: 1500000 1.5077 4.0738 5.8599 0.0000 -10685.4012 1423.9647 0.0000 0.0000 1781.3985 -7468.5966 306.5802 -9249.9951 -7409.6292 301.7032 -399.9887 -367.2683 30231.3870 -2.8829 63.4143
TCL: Running FEP window  17: Lambda1 0.19999999999999968 Lambda2 0.1499999999999997 [dLambda -0.04999999999999999]
TCL: Setting parameter firsttimestep to 0
TCL: Setting parameter alchLambda to 0.19999999999999968
Info: NONBONDED TABLE R-SQUARED SPACING: 0.0625
Info: NONBONDED TABLE SIZE: 705 POINTS
TCL: Setting parameter alchLambda2 to 0.1499999999999997
Info: NONBONDED TABLE R-SQUARED SPACING: 0.0625
Info: NONBONDED TABLE SIZE: 705 POINTS
TCL: Running for 1500000 steps
ETITLE: TS BOND ANGLE DIHED IMPRP ELECT VDW BOUNDARY MISC KINETIC TOTAL TEMP POTENTIAL TOTALAVG TEMPAVG PRESSURE GPRESSURE VOLUME PRESSAVG GPRESSAVG
ENERGY: 0 1.5077 4.0738 5.8599 0.0000 -10685.4011 1424.1964 0.0000 0.0000 1780.5314 -7469.2320 306.4310 -9249.7634 -7469.2320 306.4310 -451.7595 -366.8993 30231.3870 -451.7595 -366.8993
ENERGY: 300000 3.4770 7.6659 7.1555 0.0000 -10529.3877 1341.3006 0.0000 0.0000 1756.3546 -7413.4341 302.2701 -9169.7887 -7474.4168 298.5421 -851.8191 -806.7803 30270.9575 -377.9355 -306.4604
ENERGY: 600000 1.7041 4.5254 4.6392 0.0000 -10746.4912 1469.2646 0.0000 0.0000 1747.8254 -7518.5325 300.8022 -9266.3579 -7456.0695 299.7187 124.5646 191.0332 29738.0271 -415.8240 -355.7002
ENERGY: 900000 2.5271 8.7757 7.8031 0.0000 -10574.4451 1433.4553 0.0000 0.0000 1744.9321 -7376.9518 300.3043 -9121.8839 -7443.2827 299.6660 116.3535 151.3651 30145.6990 -265.1249 -213.1291
ENERGY: 1200000 4.4890 5.6162 7.0668 0.0000 -10585.8822 1503.3897 0.0000 0.0000 1768.1287 -7297.1919 304.2965 -9065.3206 -7440.1589 299.1111 907.8094 918.4257 30268.9630 -44.1407 7.7584
ENERGY: 1500000 1.5756 4.2028 6.2900 0.0000 -10718.5789 1458.0227 0.0000 0.0000 1724.8389 -7523.6490 296.8462 -9248.4879 -7447.6822 299.1549 45.5424 119.0516 30061.2471 -99.6898 -40.1901
TCL: Running FEP window  18: Lambda1 0.1499999999999997 Lambda2 0.09999999999999969 [dLambda -0.05 ]
TCL: Setting parameter firsttimestep to 0
TCL: Setting parameter alchLambda to 0.1499999999999997
Info: NONBONDED TABLE R-SQUARED SPACING: 0.0625
Info: NONBONDED TABLE SIZE: 705 POINTS
TCL: Setting parameter alchLambda2 to 0.09999999999999969
Info: NONBONDED TABLE R-SQUARED SPACING: 0.0625
Info: NONBONDED TABLE SIZE: 705 POINTS
TCL: Running for 1500000 steps
ETITLE: TS BOND ANGLE DIHED IMPRP ELECT VDW BOUNDARY MISC KINETIC TOTAL TEMP POTENTIAL TOTALAVG TEMPAVG PRESSURE GPRESSURE VOLUME PRESSAVG GPRESSAVG
ENERGY: 0 1.5756 4.2028 6.2900 0.0000 -10718.5791 1458.0883 0.0000 0.0000 1723.9669 -7524.4555 296.6962 -9248.4223 -7524.4555 296.6962 23.2963 114.2234 30061.2471 23.2963 114.2234
ENERGY: 300000 0.6167 5.3476 4.2742 0.0000 -10551.2142 1422.4902 0.0000 0.0000 1734.9238 -7383.5618 298.5819 -9118.4857 -7460.7517 295.0495 255.9809 276.3333 29860.3426 162.8269 237.1259
ENERGY: 600000 1.5113 4.4463 5.3871 0.0000 -10593.0047 1386.3693 0.0000 0.0000 1784.5439 -7410.7467 307.1215 -9195.2907 -7462.0174 297.6406 -207.3270 -231.9241 29774.2166 25.2558 81.3449
ENERGY: 900000 1.2322 6.1509 5.7879 0.0000 -10672.4593 1471.1063 0.0000 0.0000 1718.7161 -7469.4658 295.7925 -9188.1820 -7455.6028 298.0936 303.3643 350.0309 29984.4252 143.0732 198.2279
ENERGY: 1200000 3.8571 7.8012 5.2691 0.0000 -10601.9814 1419.9435 0.0000 0.0000 1779.5025 -7385.6080 306.2539 -9165.1105 -7444.9699 299.3081 28.7605 99.1358 29895.0113 0.1518 55.4282
ENERGY: 1500000 1.4838 7.1132 6.5459 0.0000 -10491.1384 1357.5815 0.0000 0.0000 1775.7574 -7342.6566 305.6094 -9118.4140 -7433.9353 299.6139 -147.4408 -120.3470 29736.8383 -56.4992 -0.3789
TCL: Running FEP window  19: Lambda1 0.09999999999999969 Lambda2 0.049999999999999684 [dLambda -0.05 ]
TCL: Setting parameter firsttimestep to 0
TCL: Setting parameter alchLambda to 0.09999999999999969
Info: NONBONDED TABLE R-SQUARED SPACING: 0.0625
Info: NONBONDED TABLE SIZE: 705 POINTS
TCL: Setting parameter alchLambda2 to 0.049999999999999684
Info: NONBONDED TABLE R-SQUARED SPACING: 0.0625
Info: NONBONDED TABLE SIZE: 705 POINTS
TCL: Running for 1500000 steps
ETITLE: TS BOND ANGLE DIHED IMPRP ELECT VDW BOUNDARY MISC KINETIC TOTAL TEMP POTENTIAL TOTALAVG TEMPAVG PRESSURE GPRESSURE VOLUME PRESSAVG GPRESSAVG
ENERGY: 0 1.4838 7.1132 6.5459 0.0000 -10491.1381 1356.1453 0.0000 0.0000 1774.9181 -7344.9318 305.4649 -9119.8499 -7344.9318 305.4649 -190.9055 -126.3062 29736.8383 -190.9055 -126.3062
ENERGY: 300000 2.0439 6.6362 5.2492 0.0000 -10493.3100 1385.8777 0.0000 0.0000 1749.0155 -7344.4875 301.0071 -9093.5031 -7391.3519 300.2650 -36.7727 14.0634 30031.3744 -93.8610 -31.5933
ENERGY: 600000 1.7676 9.0806 6.2387 0.0000 -10562.3187 1381.3519 0.0000 0.0000 1704.1849 -7459.6950 293.2917 -9163.8799 -7399.7696 300.4521 -418.8855 -362.7986 30071.6143 -124.0097 -60.9190
ENERGY: 900000 1.3924 5.6805 5.5880 0.0000 -10600.0475 1456.7672 0.0000 0.0000 1674.2642 -7456.3552 288.1423 -9130.6194 -7404.7518 299.9375 199.1760 256.9673 30229.6785 -207.9353 -150.5224
ENERGY: 1200000 0.8152 5.5009 5.2916 0.0000 -10556.1760 1383.1261 0.0000 0.0000 1713.1970 -7448.2451 294.8427 -9161.4421 -7408.0515 299.7243 -434.7213 -440.4189 30141.3482 -156.6515 -102.6700
ENERGY: 1500000 1.2598 3.7385 6.0108 0.0000 -10604.3533 1416.1251 0.0000 0.0000 1744.6407 -7432.5784 300.2541 -9177.2191 -7422.0984 299.0497 -96.9636 -125.9568 29969.6697 -160.8431 -105.0214
TCL: Running FEP window  20: Lambda1 0.049999999999999684 Lambda2 0.0    [dLambda -0.049999999999999684]
TCL: Setting parameter firsttimestep to 0
TCL: Setting parameter alchLambda to 0.049999999999999684
Info: NONBONDED TABLE R-SQUARED SPACING: 0.0625
Info: NONBONDED TABLE SIZE: 705 POINTS
TCL: Setting parameter alchLambda2 to 0.0
Info: NONBONDED TABLE R-SQUARED SPACING: 0.0625
Info: NONBONDED TABLE SIZE: 705 POINTS
TCL: Running for 1500000 steps
ETITLE: TS BOND ANGLE DIHED IMPRP ELECT VDW BOUNDARY MISC KINETIC TOTAL TEMP POTENTIAL TOTALAVG TEMPAVG PRESSURE GPRESSURE VOLUME PRESSAVG GPRESSAVG
ENERGY: 0 1.2599 3.7385 6.0108 0.0000 -10604.3513 1415.3536 0.0000 0.0000 1743.7817 -7434.2068 300.1063 -9177.9885 -7434.2068 300.1063 -191.5356 -132.5621 29969.6697 -191.5356 -132.5621
ENERGY: 300000 0.6857 7.0246 4.3480 0.0000 -10683.9708 1485.9679 0.0000 0.0000 1711.9632 -7473.9815 294.6303 -9185.9447 -7445.8039 303.5519 445.3265 518.4340 29611.9028 333.3389 387.3618
ENERGY: 600000 1.1357 6.8524 6.7657 0.0000 -10605.4107 1480.8197 0.0000 0.0000 1787.6902 -7322.1469 307.6630 -9109.8371 -7422.7375 302.1278 390.8176 424.2887 30703.2704 61.2959 121.3432
ENERGY: 900000 2.4923 5.5507 5.5267 0.0000 -10540.6474 1418.5003 0.0000 0.0000 1759.6021 -7348.9752 302.8290 -9108.5773 -7411.8829 302.3205 -106.8113 44.7214 30124.1760 -24.5253 45.0179
ENERGY: 1200000 1.1892 9.4054 5.3959 0.0000 -10829.9312 1531.5073 0.0000 0.0000 1747.3026 -7535.1308 300.7123 -9282.4335 -7426.7894 302.1205 619.7169 651.2509 29760.0769 34.6085 99.3315
ENERGY: 1500000 1.4537 3.9865 5.5780 0.0000 -10667.9160 1420.2442 0.0000 0.0000 1728.3742 -7508.2795 297.4547 -9236.6536 -7432.1940 301.4560 -140.7428 -122.5653 29780.6293 27.7452 93.2190
TCL: Exiting due to exit command.
