Info: SIMULATION PARAMETERS:
Info: TIMESTEP               2
Info: NUMBER OF STEPS        0
Info: STEPS PER CYCLE        10
Info: PERIODIC CELL BASIS 1  30.8219 0 0
Info: PERIODIC CELL BASIS 2  0 28.0019 0
Info: PERIODIC CELL BASIS 3  0 0 34.5969
Info: PERIODIC CELL CENTER   0 0 0
Info: WRAPPING WATERS AROUND PERIODIC BOUNDARIES ON OUTPUT.
Info: WRAPPING ALL CLUSTERS AROUND PERIODIC BOUNDARIES ON OUTPUT.
Info: FIRST LDB TIMESTEP     50
Info: LAST LDB TIMESTEP     -1
Info: HOM BACKGROUND SCALING 1
Info: PME BACKGROUND SCALING 1
Info: MIN ATOMS PER PATCH    40
Info: EMPTY PATCH LOAD       40 ATOMS
Info: VELOCITY FILE          mobley_4609460_equil.vel
Info: CENTER OF MASS MOVING INITIALLY? NO
Info: DIELECTRIC             1
Info: EXCLUDE                SCALED ONE-FOUR
Info: 1-4 ELECTROSTATICS SCALED BY 0.833333
Info: MODIFIED 1-4 VDW PARAMETERS WILL BE USED
Info: DCD FILENAME           mobley_4609460_prod.dcd
Info: DCD FREQUENCY          100000
Info: DCD FIRST STEP         100000
Info: DCD FILE WILL CONTAIN UNIT CELL DATA
Info: XST FILENAME           mobley_4609460_prod.xst
Info: XST FREQUENCY          100000
Info: NO VELOCITY DCD OUTPUT
Info: NO FORCE DCD OUTPUT
Info: OUTPUT FILENAME        mobley_4609460_prod
Info: BINARY OUTPUT FILES WILL BE USED
Info: RESTART FILENAME       mobley_4609460_prod.restart
Info: RESTART FREQUENCY      100000
Info: BINARY RESTART FILES WILL BE USED
Info: CUTOFF                 9
Info: PAIRLIST DISTANCE      11
Info: PAIRLIST SHRINK RATE   0.01
Info: PAIRLIST GROW RATE     0.01
Info: PAIRLIST TRIGGER       0.3
Info: PAIRLISTS PER CYCLE    2
Info: PAIRLISTS ENABLED
Info: MARGIN                 2
Info: HYDROGEN GROUP CUTOFF  2.5
Info: PATCH DIMENSION        15.5
Info: ENERGY OUTPUT STEPS    100000
Info: ENERGY EVALUATION STEPS    100000
Info: OUTPUT ENERGY PRECISION 4
Info: CROSSTERM ENERGY INCLUDED IN DIHEDRAL
Info: TIMING OUTPUT STEPS    1000000
Info: PRESSURE OUTPUT STEPS  100000
Info: ALCHEMICAL FEP ON
Info: FEP CURRENT LAMBDA VALUE     0
Info: FEP COMPARISON LAMBDA VALUE  0.05
Info: FEP INTRA-ALCHEMICAL NON-BONDED INTERACTIONS WILL BE RETAINED
Info: FEP INTRA-ALCHEMICAL BONDED INTERACTIONS WILL BE RETAINED
Info: FEP VDW SHIFTING COEFFICIENT 5
Info: FEP ELEC. ACTIVE FOR ANNIHILATED PARTICLES BETWEEN LAMBDA = 0 AND LAMBDA = 0.5
Info: FEP ELEC. ACTIVE FOR EXNIHILATED PARTICLES BETWEEN LAMBDA = 0.5 AND LAMBDA = 1
Info: FEP VDW ACTIVE FOR ANNIHILATED PARTICLES BETWEEN LAMBDA = 0 AND LAMBDA = 1
Info: FEP VDW ACTIVE FOR EXNIHILATED PARTICLES BETWEEN LAMBDA = 0 AND LAMBDA = 1
Info: FEP BOND ACTIVE FOR ANNIHILATED PARTICLES BETWEEN LAMBDA = 1 AND LAMBDA = 1
Info: FEP BOND ACTIVE FOR EXNIHILATED PARTICLES BETWEEN LAMBDA = 0 AND LAMBDA = 0
Info: LANGEVIN DYNAMICS ACTIVE
Info: LANGEVIN TEMPERATURE   300
Info: LANGEVIN USING BBK INTEGRATOR
Info: LANGEVIN DAMPING COEFFICIENT IS 1 INVERSE PS
Info: LANGEVIN DYNAMICS APPLIED TO HYDROGENS
Info: LANGEVIN PISTON PRESSURE CONTROL ACTIVE
Info:        TARGET PRESSURE IS 1.01325 BAR
Info:     OSCILLATION PERIOD IS 50 FS
Info:             DECAY TIME IS 25 FS
Info:     PISTON TEMPERATURE IS 300 K
Info:       PRESSURE CONTROL IS GROUP-BASED
Info:    INITIAL STRAIN RATE IS 7.8049e-05 7.8049e-05 7.8049e-05
Info:       CELL FLUCTUATION IS ISOTROPIC
Info: PARTICLE MESH EWALD (PME) ACTIVE
Info: PME TOLERANCE               1e-06
Info: PME EWALD COEFFICIENT       0.348832
Info: PME INTERPOLATION ORDER     4
Info: PME GRID DIMENSIONS         32 32 36
Info: PME MAXIMUM GRID SPACING    1
Info: PME CALCULATION WILL BE PERFORMED ON GPU
Info: FULL ELECTROSTATIC EVALUATION FREQUENCY      2
Info: USING VERLET I (r-RESPA) MTS SCHEME.
Info: C1 SPLITTING OF LONG RANGE ELECTROSTATICS
Info: PLACING ATOMS IN PATCHES BY HYDROGEN GROUPS
Info: RIGID BONDS TO HYDROGEN : ALL
Info:         ERROR TOLERANCE : 1e-08
Info:          MAX ITERATIONS : 100
Info: RIGID WATER USING SETTLE ALGORITHM
Info: RANDOM NUMBER SEED     1743877117
Info: USE HYDROGEN BONDS?    NO
Info: Using AMBER format force field!
Info: AMBER PARM FILE        mobley_4609460.prmtop
Info: COORDINATE PDB         mobley_4609460.pdb
Info: Exclusions will be read from PARM file!
Info: SCNB (VDW SCALING)     2
Info: USING ARITHMETIC MEAN TO COMBINE L-J SIGMA PARAMETERS
Info: BINARY COORDINATES     mobley_4609460_equil.coor
Info: SUMMARY OF PARAMETERS:
Info: 13 BONDS
Info: 15 ANGLES
Info:   15 HARMONIC
Info:   0 COSINE-BASED
Info: 12 DIHEDRAL
Info: 0 IMPROPER
Info: 0 CROSSTERM
Info: 0 VDW
Info: 55 VDW_PAIRS
Info: 0 NBTHOLE_PAIRS
Info: To read alchdata from file: mobley_4609460.pdb
Info: To read alchflag data from column: 5
Info: STRUCTURE SUMMARY:
Info: 2929 ATOMS
Info: 2929 BONDS
Info: 35 ANGLES
Info: 56 DIHEDRALS
Info: 0 IMPROPERS
Info: 0 CROSSTERMS
Info: 3005 EXCLUSIONS
Info: 2917 RIGID BONDS
Info: ALCH: 0 ATOMS TO DISAPPEAR IN FINAL STATE
Info: ALCH: 22 ATOMS TO APPEAR IN FINAL STATE
Info: 5870 DEGREES OF FREEDOM
Info: 981 HYDROGEN GROUPS
Info: 4 ATOMS IN LARGEST HYDROGEN GROUP
Info: 981 MIGRATION GROUPS
Info: 4 ATOMS IN LARGEST MIGRATION GROUP
Info: TOTAL MASS = 17623.7 amu
Info: TOTAL CHARGE = 5.96046e-08 e
Info: MASS DENSITY = 0.980106 g/cm^3
Info: ATOM DENSITY = 0.0980927 atoms/A^3
Info: ADDED 0 IMPLICIT EXCLUSIONS
Info: NONBONDED TABLE R-SQUARED SPACING: 0.0625
Info: NONBONDED TABLE SIZE: 705 POINTS
Info: REMOVING COM VELOCITY -0.304656 -0.217622 -0.109471
Info: Use 3D box decompostion in PME FFT.
Info: Updated CUDA force table with 4096 elements.
Info: Updated CUDA LJ table with 10 x 10 elements.
Info: Found 24 unique exclusion lists needing 72 bytes
TCL: Running for 1500000 steps
ETITLE: TS BOND ANGLE DIHED IMPRP ELECT VDW BOUNDARY MISC KINETIC TOTAL TEMP POTENTIAL TOTALAVG TEMPAVG PRESSURE GPRESSURE VOLUME PRESSAVG GPRESSAVG
ENERGY: 0 2.6020 6.6934 8.2031 0.0000 -10628.2913 1430.4166 0.0000 0.0000 1755.8488 -7424.5274 301.0505 -9180.3762 -7424.5274 301.0505 156.8677 243.4800 29859.5051 156.8677 243.4800
ENERGY: 300000 2.7953 10.2542 4.9052 0.0000 -10713.8924 1469.1394 0.0000 0.0000 1787.2571 -7439.5412 306.4357 -9226.7983 -7427.3793 299.5781 356.1211 415.4382 29574.7984 84.1197 154.4655
ENERGY: 600000 2.2354 5.7145 8.2149 0.0000 -10708.8334 1508.0492 0.0000 0.0000 1767.7007 -7416.9188 303.0826 -9184.6194 -7392.9846 303.3657 436.0281 565.7942 29924.4302 128.0514 215.6301
ENERGY: 900000 1.9180 8.7332 5.8143 0.0000 -10567.3694 1428.9383 0.0000 0.0000 1763.1383 -7358.8272 302.3004 -9121.9655 -7403.3309 302.4866 -80.8999 58.3336 30367.4511 74.0780 157.0991
ENERGY: 1200000 5.1938 5.8194 4.1403 0.0000 -10485.1245 1369.1630 0.0000 0.0000 1839.9943 -7260.8137 315.4778 -9100.8080 -7402.5624 302.5397 -418.4731 -356.8807 30272.7299 -42.8396 35.5930
ENERGY: 1500000 3.9736 5.4285 5.1451 0.0000 -10585.8718 1404.9451 0.0000 0.0000 1737.4666 -7428.9130 297.8988 -9166.3795 -7410.8947 302.0887 -276.5148 -221.1415 30244.4423 -79.7180 -3.0332
TCL: Running FEP window   2: Lambda1 0.05   Lambda2 0.1    [dLambda 0.05  ]
TCL: Setting parameter firsttimestep to 0
TCL: Setting parameter alchLambda to 0.05
Info: NONBONDED TABLE R-SQUARED SPACING: 0.0625
Info: NONBONDED TABLE SIZE: 705 POINTS
TCL: Setting parameter alchLambda2 to 0.1
Info: NONBONDED TABLE R-SQUARED SPACING: 0.0625
Info: NONBONDED TABLE SIZE: 705 POINTS
TCL: Running for 1500000 steps
ETITLE: TS BOND ANGLE DIHED IMPRP ELECT VDW BOUNDARY MISC KINETIC TOTAL TEMP POTENTIAL TOTALAVG TEMPAVG PRESSURE GPRESSURE VOLUME PRESSAVG GPRESSAVG
ENERGY: 0 3.9735 5.4285 5.1451 0.0000 -10585.8720 1412.2934 0.0000 0.0000 1736.6130 -7422.4184 297.7524 -9159.0314 -7422.4184 297.7524 -307.9467 -211.8353 30244.4423 -307.9467 -211.8353
ENERGY: 300000 4.1470 7.6534 6.5894 0.0000 -10808.7354 1594.7841 0.0000 0.0000 1795.3270 -7400.2346 307.8193 -9195.5616 -7385.7401 302.8048 1266.6114 1305.1451 29979.4184 327.2864 381.4941
ENERGY: 600000 2.0575 3.8202 7.5334 0.0000 -10660.1367 1481.4586 0.0000 0.0000 1749.1063 -7416.1607 299.8945 -9165.2671 -7391.5253 303.1654 365.6702 516.7484 29823.0440 265.2720 336.8804
ENERGY: 900000 3.3157 2.3793 7.9114 0.0000 -10732.1740 1430.1862 0.0000 0.0000 1724.2606 -7564.1208 295.6346 -9288.3814 -7420.1414 301.9642 -521.8961 -475.5184 30162.6424 100.9008 162.8077
ENERGY: 1200000 6.8031 11.1548 7.2633 0.0000 -10554.0130 1374.1893 0.0000 0.0000 1765.0628 -7389.5398 302.6303 -9154.6026 -7408.2190 302.3230 6.5204 8.3710 29750.3095 63.0892 116.8810
ENERGY: 1500000 2.2300 8.4439 5.5317 0.0000 -10530.5954 1399.6174 0.0000 0.0000 1713.1479 -7401.6245 293.7292 -9114.7724 -7403.5036 301.5047 -413.4796 -294.4311 30140.1838 -58.1685 -1.1542
TCL: Running FEP window   3: Lambda1 0.1    Lambda2 0.15000000000000002 [dLambda 0.05000000000000002]
TCL: Setting parameter firsttimestep to 0
TCL: Setting parameter alchLambda to 0.1
Info: NONBONDED TABLE R-SQUARED SPACING: 0.0625
Info: NONBONDED TABLE SIZE: 705 POINTS
TCL: Setting parameter alchLambda2 to 0.15000000000000002
Info: NONBONDED TABLE R-SQUARED SPACING: 0.0625
Info: NONBONDED TABLE SIZE: 705 POINTS
TCL: Running for 1500000 steps
ETITLE: TS BOND ANGLE DIHED IMPRP ELECT VDW BOUNDARY MISC KINETIC TOTAL TEMP POTENTIAL TOTALAVG TEMPAVG PRESSURE GPRESSURE VOLUME PRESSAVG GPRESSAVG
ENERGY: 0 2.2300 8.4439 5.5317 0.0000 -10530.5946 1402.7802 0.0000 0.0000 1712.3228 -7399.2860 293.5877 -9111.6088 -7399.2860 293.5877 -372.7590 -280.4520 30140.1838 -372.7590 -280.4520
ENERGY: 300000 6.1066 12.1500 4.4996 0.0000 -10577.4257 1386.9838 0.0000 0.0000 1786.5008 -7381.1850 306.3060 -9167.6857 -7430.3125 296.5204 -342.7325 -270.3837 29879.1543 -387.2010 -295.0836
ENERGY: 600000 3.8688 4.7011 5.9870 0.0000 -10792.9375 1501.3102 0.0000 0.0000 1721.6608 -7555.4094 295.1888 -9277.0703 -7453.1080 296.8795 285.1343 350.9667 29830.9383 -115.4130 -42.5983
ENERGY: 900000 2.5701 8.6744 5.0043 0.0000 -10632.8220 1439.8214 0.0000 0.0000 1765.4762 -7411.2756 302.7012 -9176.7518 -7438.7891 298.2616 241.6359 340.9403 29905.7683 -79.8147 -14.8078
ENERGY: 1200000 2.1617 4.2950 5.6352 0.0000 -10706.5160 1492.1122 0.0000 0.0000 1727.0780 -7475.2339 296.1176 -9202.3119 -7426.3235 299.4460 327.7261 394.6421 29914.9201 -76.4852 -11.0783
ENERGY: 1500000 4.6804 4.7850 6.5195 0.0000 -10708.4245 1441.7790 0.0000 0.0000 1792.4691 -7458.1915 307.3293 -9250.6605 -7426.7552 300.8498 -206.2676 -148.2059 29920.7666 -33.5425 32.6882
TCL: Running FEP window   4: Lambda1 0.15000000000000002 Lambda2 0.2    [dLambda 0.04999999999999999]
TCL: Setting parameter firsttimestep to 0
TCL: Setting parameter alchLambda to 0.15000000000000002
Info: NONBONDED TABLE R-SQUARED SPACING: 0.0625
Info: NONBONDED TABLE SIZE: 705 POINTS
TCL: Setting parameter alchLambda2 to 0.2
Info: NONBONDED TABLE R-SQUARED SPACING: 0.0625
Info: NONBONDED TABLE SIZE: 705 POINTS
TCL: Running for 1500000 steps
ETITLE: TS BOND ANGLE DIHED IMPRP ELECT VDW BOUNDARY MISC KINETIC TOTAL TEMP POTENTIAL TOTALAVG TEMPAVG PRESSURE GPRESSURE VOLUME PRESSAVG GPRESSAVG
ENERGY: 0 4.6804 4.7850 6.5195 0.0000 -10708.4271 1442.7611 0.0000 0.0000 1791.6184 -7458.0627 307.1834 -9249.6811 -7458.0627 307.1834 -213.9782 -142.5702 29920.7666 -213.9782 -142.5702
ENERGY: 300000 2.9140 11.1172 4.1853 0.0000 -10514.0730 1322.4208 0.0000 0.0000 1699.3034 -7474.1323 291.3555 -9173.4357 -7454.9741 298.1897 -773.5760 -700.0836 29921.0599 36.6603 113.0363
ENERGY: 600000 4.6419 6.6606 7.0576 0.0000 -10652.1314 1420.4754 0.0000 0.0000 1743.3832 -7469.9128 298.9132 -9213.2960 -7441.6351 299.0560 -478.8859 -444.9109 30316.3058 -97.6742 -33.2113
ENERGY: 900000 2.6532 6.7146 6.1308 0.0000 -10588.4764 1413.0358 0.0000 0.0000 1730.9248 -7429.0173 296.7772 -9159.9421 -7440.8686 298.3759 -54.7387 10.0192 29742.7955 -75.3279 -11.4745
ENERGY: 1200000 3.8142 9.6292 7.7510 0.0000 -10486.4802 1400.7991 0.0000 0.0000 1791.2392 -7273.2476 307.1184 -9064.4868 -7427.3939 298.9007 -1.0987 24.4692 30226.7205 -31.7215 24.6338
ENERGY: 1500000 2.5977 5.7624 6.5266 0.0000 -10589.5722 1394.7659 0.0000 0.0000 1797.2965 -7382.6231 308.1570 -9179.9195 -7418.5482 299.8486 -49.4092 30.4817 29851.3815 24.4970 89.5922
TCL: Running FEP window   5: Lambda1 0.2    Lambda2 0.25   [dLambda 0.04999999999999999]
TCL: Setting parameter firsttimestep to 0
TCL: Setting parameter alchLambda to 0.2
Info: NONBONDED TABLE R-SQUARED SPACING: 0.0625
Info: NONBONDED TABLE SIZE: 705 POINTS
TCL: Setting parameter alchLambda2 to 0.25
Info: NONBONDED TABLE R-SQUARED SPACING: 0.0625
Info: NONBONDED TABLE SIZE: 705 POINTS
TCL: Running for 1500000 steps
ETITLE: TS BOND ANGLE DIHED IMPRP ELECT VDW BOUNDARY MISC KINETIC TOTAL TEMP POTENTIAL TOTALAVG TEMPAVG PRESSURE GPRESSURE VOLUME PRESSAVG GPRESSAVG
ENERGY: 0 2.5977 5.7624 6.5266 0.0000 -10589.5726 1394.4007 0.0000 0.0000 1796.4311 -7383.8541 308.0086 -9180.2852 -7383.8541 308.0086 -52.1180 36.3821 29851.3815 -52.1180 36.3821
ENERGY: 300000 2.6327 4.0753 6.5282 0.0000 -10620.8801 1404.4558 0.0000 0.0000 1757.2437 -7445.9445 301.2897 -9203.1882 -7385.2715 303.2327 -337.0193 -346.5829 30027.1431 -365.5852 -292.8970
ENERGY: 600000 5.6671 11.2250 10.7792 0.0000 -10618.0849 1416.2071 0.0000 0.0000 1708.0455 -7466.1610 292.8544 -9174.2065 -7437.9334 299.0095 -257.5565 -251.8702 30066.1057 -210.2139 -154.1842
ENERGY: 900000 4.1275 5.1277 9.5878 0.0000 -10501.3199 1337.6286 0.0000 0.0000 1736.1308 -7408.7175 297.6698 -9144.8483 -7453.2207 297.9367 -873.6926 -780.3443 30175.2415 -142.2006 -75.8027
ENERGY: 1200000 3.2413 6.9259 9.9072 0.0000 -10536.3504 1390.2252 0.0000 0.0000 1732.7462 -7393.3046 297.0895 -9126.0508 -7433.4586 298.1550 -115.5329 -66.7421 29739.6861 -204.6167 -135.7815
ENERGY: 1500000 5.8487 5.9913 5.8948 0.0000 -10608.1795 1431.4892 0.0000 0.0000 1776.9941 -7381.9615 304.6760 -9158.9556 -7434.2541 297.7582 -13.7691 -29.9280 30250.4532 -193.6215 -136.2906
TCL: Running FEP window   6: Lambda1 0.25   Lambda2 0.3    [dLambda 0.04999999999999999]
TCL: Setting parameter firsttimestep to 0
TCL: Setting parameter alchLambda to 0.25
Info: NONBONDED TABLE R-SQUARED SPACING: 0.0625
Info: NONBONDED TABLE SIZE: 705 POINTS
TCL: Setting parameter alchLambda2 to 0.3
Info: NONBONDED TABLE R-SQUARED SPACING: 0.0625
Info: NONBONDED TABLE SIZE: 705 POINTS
TCL: Running for 1500000 steps
ETITLE: TS BOND ANGLE DIHED IMPRP ELECT VDW BOUNDARY MISC KINETIC TOTAL TEMP POTENTIAL TOTALAVG TEMPAVG PRESSURE GPRESSURE VOLUME PRESSAVG GPRESSAVG
ENERGY: 0 5.8487 5.9913 5.8948 0.0000 -10608.1794 1431.9909 0.0000 0.0000 1776.1254 -7382.3284 304.5271 -9158.4538 -7382.3284 304.5271 -107.9893 -20.6177 30250.4532 -107.9893 -20.6177
ENERGY: 300000 3.6792 8.8822 6.2909 0.0000 -10733.6068 1522.5339 0.0000 0.0000 1734.7994 -7457.4214 297.4415 -9192.2208 -7438.2196 301.0014 784.7696 836.1116 29346.6644 329.1210 375.5069
ENERGY: 600000 5.9183 6.0904 11.0515 0.0000 -10607.8638 1408.8698 0.0000 0.0000 1717.9943 -7457.9395 294.5602 -9175.9338 -7418.5140 299.9130 -286.0436 -210.9978 30288.6732 -74.3602 -17.3159
ENERGY: 900000 3.2234 9.6244 5.4925 0.0000 -10655.7598 1462.3558 0.0000 0.0000 1736.8664 -7438.1972 297.7959 -9175.0636 -7415.7588 297.9284 153.3522 298.3681 29872.3726 -41.2566 16.4415
ENERGY: 1200000 3.7716 5.9525 6.1209 0.0000 -10665.8123 1470.5915 0.0000 0.0000 1753.1327 -7426.2431 300.5848 -9179.3758 -7418.9425 298.7953 130.6929 213.2241 30133.9982 -4.5598 61.9880
ENERGY: 1500000 2.7224 7.0728 5.7487 0.0000 -10597.4224 1464.0072 0.0000 0.0000 1679.6301 -7438.2412 287.9824 -9117.8713 -7424.2053 298.1879 287.1232 380.2832 30119.9928 2.4245 68.8262
TCL: Running FEP window   7: Lambda1 0.3    Lambda2 0.35   [dLambda 0.04999999999999999]
TCL: Setting parameter firsttimestep to 0
TCL: Setting parameter alchLambda to 0.3
Info: NONBONDED TABLE R-SQUARED SPACING: 0.0625
Info: NONBONDED TABLE SIZE: 705 POINTS
TCL: Setting parameter alchLambda2 to 0.35
Info: NONBONDED TABLE R-SQUARED SPACING: 0.0625
Info: NONBONDED TABLE SIZE: 705 POINTS
TCL: Running for 1500000 steps
ETITLE: TS BOND ANGLE DIHED IMPRP ELECT VDW BOUNDARY MISC KINETIC TOTAL TEMP POTENTIAL TOTALAVG TEMPAVG PRESSURE GPRESSURE VOLUME PRESSAVG GPRESSAVG
ENERGY: 0 2.7224 7.0728 5.7487 0.0000 -10597.4249 1463.9877 0.0000 0.0000 1678.7544 -7439.1390 287.8322 -9117.8933 -7439.1390 287.8322 300.1344 383.5564 30119.9928 300.1344 383.5564
ENERGY: 300000 2.5624 9.0102 7.8999 0.0000 -10619.3426 1434.9182 0.0000 0.0000 1794.9067 -7370.0452 307.7472 -9164.9519 -7362.4235 300.4080 -50.8806 -35.0307 30374.9177 255.3866 308.1464
ENERGY: 600000 0.9992 5.5233 4.4473 0.0000 -10451.2030 1300.5478 0.0000 0.0000 1776.1090 -7363.5764 304.5243 -9139.6854 -7387.2689 301.5262 -755.7290 -727.6079 30038.7651 113.3395 151.6730
ENERGY: 900000 1.2936 6.2178 5.8619 0.0000 -10665.2793 1465.5966 0.0000 0.0000 1820.3654 -7365.9440 312.1123 -9186.3094 -7380.5170 303.0310 201.4949 279.5966 30110.2046 122.7313 164.5756
ENERGY: 1200000 3.0678 9.3233 7.0063 0.0000 -10607.8420 1435.7766 0.0000 0.0000 1727.1840 -7425.4839 296.1358 -9152.6679 -7390.1510 302.0136 106.0457 202.8810 30005.1192 197.6586 247.3066
ENERGY: 1500000 2.0683 6.4394 5.8006 0.0000 -10747.1167 1507.3826 0.0000 0.0000 1760.3716 -7465.0542 301.8260 -9225.4258 -7400.2057 301.6724 788.7965 857.7478 29667.5703 219.0395 278.4624
TCL: Running FEP window   8: Lambda1 0.35   Lambda2 0.39999999999999997 [dLambda 0.04999999999999999]
TCL: Setting parameter firsttimestep to 0
TCL: Setting parameter alchLambda to 0.35
Info: NONBONDED TABLE R-SQUARED SPACING: 0.0625
Info: NONBONDED TABLE SIZE: 705 POINTS
TCL: Setting parameter alchLambda2 to 0.39999999999999997
Info: NONBONDED TABLE R-SQUARED SPACING: 0.0625
Info: NONBONDED TABLE SIZE: 705 POINTS
TCL: Running for 1500000 steps
ETITLE: TS BOND ANGLE DIHED IMPRP ELECT VDW BOUNDARY MISC KINETIC TOTAL TEMP POTENTIAL TOTALAVG TEMPAVG PRESSURE GPRESSURE VOLUME PRESSAVG GPRESSAVG
ENERGY: 0 2.0683 6.4394 5.8006 0.0000 -10747.1168 1507.6179 0.0000 0.0000 1759.5158 -7465.6748 301.6793 -9225.1906 -7465.6748 301.6793 777.4924 864.9971 29667.5703 777.4924 864.9971
ENERGY: 300000 2.3393 5.7795 3.4222 0.0000 -10684.0885 1463.2348 0.0000 0.0000 1753.1178 -7456.1949 300.5823 -9209.3127 -7440.6152 301.2591 362.6343 426.6522 29868.3985 -109.6230 -19.9549
ENERGY: 600000 2.0101 4.4979 6.7208 0.0000 -10658.6227 1442.3627 0.0000 0.0000 1783.3630 -7419.6682 305.7680 -9203.0312 -7423.5976 302.5251 132.1752 176.5904 29906.5924 -69.8565 16.4006
ENERGY: 900000 2.5328 5.9588 6.9217 0.0000 -10568.0915 1423.0896 0.0000 0.0000 1802.7310 -7326.8575 309.0888 -9129.5886 -7421.6400 302.4302 76.8665 154.5980 30041.9672 -147.3588 -68.6837
ENERGY: 1200000 2.8123 9.0301 6.7939 0.0000 -10571.6180 1353.7699 0.0000 0.0000 1706.2457 -7492.9660 292.5458 -9199.2117 -7427.6161 301.0567 -887.2691 -773.2989 30236.0294 -200.6400 -126.5290
ENERGY: 1500000 4.8945 8.5644 7.0729 0.0000 -10619.0266 1424.4340 0.0000 0.0000 1701.6717 -7472.3893 291.7615 -9174.0609 -7427.6861 300.5950 -181.2816 -89.9388 30136.3008 -202.6868 -131.4091
TCL: Running FEP window   9: Lambda1 0.39999999999999997 Lambda2 0.44999999999999996 [dLambda 0.04999999999999999]
TCL: Setting parameter firsttimestep to 0
TCL: Setting parameter alchLambda to 0.39999999999999997
Info: NONBONDED TABLE R-SQUARED SPACING: 0.0625
Info: NONBONDED TABLE SIZE: 705 POINTS
TCL: Setting parameter alchLambda2 to 0.44999999999999996
Info: NONBONDED TABLE R-SQUARED SPACING: 0.0625
Info: NONBONDED TABLE SIZE: 705 POINTS
TCL: Running for 1500000 steps
ETITLE: TS BOND ANGLE DIHED IMPRP ELECT VDW BOUNDARY MISC KINETIC TOTAL TEMP POTENTIAL TOTALAVG TEMPAVG PRESSURE GPRESSURE VOLUME PRESSAVG GPRESSAVG
ENERGY: 0 4.8945 8.5644 7.0729 0.0000 -10619.0284 1423.9542 0.0000 0.0000 1700.8274 -7473.7151 291.6168 -9174.5425 -7473.7151 291.6168 -175.0505 -86.6175 30136.3008 -175.0505 -86.6175
ENERGY: 300000 4.1560 11.0918 8.7338 0.0000 -10722.2326 1484.3189 0.0000 0.0000 1717.6772 -7496.2549 294.5058 -9213.9321 -7438.1348 297.8042 155.5961 199.7905 30052.2037 95.4204 163.8581
ENERGY: 600000 2.8066 6.1307 7.2506 0.0000 -10690.4856 1469.9208 0.0000 0.0000 1708.4580 -7495.9188 292.9251 -9204.3767 -7440.8064 299.2722 253.7220 334.7473 29896.1584 192.3195 261.4737
ENERGY: 900000 1.5682 6.1540 3.8823 0.0000 -10654.4622 1462.7657 0.0000 0.0000 1724.7909 -7455.3010 295.7255 -9180.0919 -7441.9736 297.9280 176.1688 233.5110 30398.2135 186.5644 259.3974
ENERGY: 1200000 2.8521 4.3978 4.8703 0.0000 -10512.4540 1408.1869 0.0000 0.0000 1712.8990 -7379.2479 293.6865 -9092.1469 -7421.9869 298.6612 -135.2365 -51.7091 30260.9143 88.6976 153.8602
ENERGY: 1500000 4.1583 2.9543 5.5311 0.0000 -10563.9621 1415.4387 0.0000 0.0000 1693.3869 -7442.4929 290.3411 -9135.8798 -7429.4925 298.9653 -339.6563 -314.3044 30375.1471 69.9506 132.7483
TCL: Running FEP window  10: Lambda1 0.44999999999999996 Lambda2 0.49999999999999994 [dLambda 0.04999999999999999]
TCL: Setting parameter firsttimestep to 0
TCL: Setting parameter alchLambda to 0.44999999999999996
Info: NONBONDED TABLE R-SQUARED SPACING: 0.0625
Info: NONBONDED TABLE SIZE: 705 POINTS
TCL: Setting parameter alchLambda2 to 0.49999999999999994
Info: NONBONDED TABLE R-SQUARED SPACING: 0.0625
Info: NONBONDED TABLE SIZE: 705 POINTS
TCL: Running for 1500000 steps
ETITLE: TS BOND ANGLE DIHED IMPRP ELECT VDW BOUNDARY MISC KINETIC TOTAL TEMP POTENTIAL TOTALAVG TEMPAVG PRESSURE GPRESSURE VOLUME PRESSAVG GPRESSAVG
ENERGY: 0 4.1583 2.9543 5.5311 0.0000 -10563.9628 1415.2598 0.0000 0.0000 1692.5717 -7443.4876 290.2013 -9136.0593 -7443.4876 290.2013 -405.2956 -309.1135 30375.1471 -405.2956 -309.1135
ENERGY: 300000 2.4084 5.7402 7.7358 0.0000 -10550.8273 1376.6636 0.0000 0.0000 1729.3069 -7428.9725 296.4998 -9158.2795 -7440.6761 296.7725 -360.5937 -292.4081 30033.9506 -270.8248 -183.8471
ENERGY: 600000 6.2186 6.2167 5.4986 0.0000 -10400.3405 1332.4737 0.0000 0.0000 1713.9280 -7336.0049 293.8630 -9049.9328 -7403.2738 298.0954 -425.3186 -409.1105 29758.1788 -23.4886 60.1357
ENERGY: 900000 2.5300 6.5563 6.8939 0.0000 -10578.0338 1432.1068 0.0000 0.0000 1703.1250 -7426.8219 292.0107 -9129.9469 -7406.3936 297.9651 -35.8041 30.4885 30239.1727 -61.2963 12.2771
ENERGY: 1200000 3.8604 5.3893 6.4321 0.0000 -10549.6527 1444.2882 0.0000 0.0000 1781.5468 -7308.1359 305.4566 -9089.6827 -7395.8390 298.6245 341.4805 340.6156 29991.1792 75.1715 135.5597
ENERGY: 1500000 3.2726 8.4127 9.1660 0.0000 -10622.1436 1447.0193 0.0000 0.0000 1724.8908 -7429.3822 295.7426 -9154.2730 -7402.9053 297.8916 44.4399 85.9865 30323.3512 6.3046 66.4789
TCL: Running FEP window  11: Lambda1 0.49999999999999994 Lambda2 0.5499999999999999 [dLambda 0.04999999999999999]
TCL: Setting parameter firsttimestep to 0
TCL: Setting parameter alchLambda to 0.49999999999999994
Info: NONBONDED TABLE R-SQUARED SPACING: 0.0625
Info: NONBONDED TABLE SIZE: 705 POINTS
TCL: Setting parameter alchLambda2 to 0.5499999999999999
Info: NONBONDED TABLE R-SQUARED SPACING: 0.0625
Info: NONBONDED TABLE SIZE: 705 POINTS
TCL: Running for 1500000 steps
ETITLE: TS BOND ANGLE DIHED IMPRP ELECT VDW BOUNDARY MISC KINETIC TOTAL TEMP POTENTIAL TOTALAVG TEMPAVG PRESSURE GPRESSURE VOLUME PRESSAVG GPRESSAVG
ENERGY: 0 3.2726 8.4127 9.1660 0.0000 -10622.1447 1446.8062 0.0000 0.0000 1724.0102 -7430.4769 295.5916 -9154.4872 -7430.4769 295.5916 21.0997 93.4310 30323.3512 21.0997 93.4310
ENERGY: 300000 5.1020 6.8851 9.2380 0.0000 -10755.5533 1485.1223 0.0000 0.0000 1712.4941 -7536.7118 293.6171 -9249.2059 -7455.8375 296.8567 163.3118 226.4732 29979.9391 221.1821 257.0051
ENERGY: 600000 7.8298 10.6665 8.1554 0.0000 -10657.5689 1411.9841 0.0000 0.0000 1719.3368 -7499.5964 294.7903 -9218.9332 -7460.3047 298.3259 -405.8162 -338.8879 30036.8870 -1.5596 39.7218
ENERGY: 900000 4.8422 7.8622 6.9784 0.0000 -10614.9210 1495.4328 0.0000 0.0000 1767.0181 -7332.7872 302.9656 -9099.8053 -7427.7469 299.9428 872.7042 922.6779 29941.8569 70.7182 114.3604
ENERGY: 1200000 1.7741 10.7081 5.0742 0.0000 -10685.3151 1483.5309 0.0000 0.0000 1690.3767 -7493.8511 289.8250 -9184.2278 -7437.7993 299.0715 545.2867 606.9220 29565.1708 123.6761 170.5684
ENERGY: 1500000 3.8906 4.3273 3.8935 0.0000 -10385.1666 1290.4533 0.0000 0.0000 1757.8616 -7324.7404 301.3956 -9082.6020 -7418.3613 300.2520 -953.1758 -874.4507 30519.4603 36.3538 83.1378
TCL: Running FEP window  12: Lambda1 0.5499999999999999 Lambda2 0.6    [dLambda 0.050000000000000044]
TCL: Setting parameter firsttimestep to 0
TCL: Setting parameter alchLambda to 0.5499999999999999
Info: NONBONDED TABLE R-SQUARED SPACING: 0.0625
Info: NONBONDED TABLE SIZE: 705 POINTS
TCL: Setting parameter alchLambda2 to 0.6
Info: NONBONDED TABLE R-SQUARED SPACING: 0.0625
Info: NONBONDED TABLE SIZE: 705 POINTS
TCL: Running for 1500000 steps
ETITLE: TS BOND ANGLE DIHED IMPRP ELECT VDW BOUNDARY MISC KINETIC TOTAL TEMP POTENTIAL TOTALAVG TEMPAVG PRESSURE GPRESSURE VOLUME PRESSAVG GPRESSAVG
ENERGY: 0 3.8906 4.3273 3.8935 0.0000 -10385.4933 1290.7787 0.0000 0.0000 1757.0053 -7325.5980 301.2488 -9082.6033 -7325.5980 301.2488 -943.7812 -865.7343 30519.4603 -943.7812 -865.7343
ENERGY: 300000 6.0999 5.4108 4.4467 0.0000 -10689.9627 1434.3569 0.0000 0.0000 1776.4061 -7463.2423 304.5752 -9239.6484 -7423.8901 299.6470 -290.5844 -161.8791 30147.8746 -16.1879 87.2096
ENERGY: 600000 5.0633 8.2865 5.2783 0.0000 -10574.3642 1404.1199 0.0000 0.0000 1734.4236 -7417.1925 297.3770 -9151.6161 -7424.5769 299.6807 -69.0442 -1.3127 29851.7453 -50.7160 36.6217
ENERGY: 900000 5.9964 7.3890 6.0587 0.0000 -10523.2966 1348.7633 0.0000 0.0000 1838.8844 -7316.2048 315.2875 -9155.0892 -7410.9833 300.4803 -488.9861 -435.4895 30410.4312 -148.2129 -72.1944
ENERGY: 1200000 3.4344 7.8465 5.4371 0.0000 -10813.2423 1561.0875 0.0000 0.0000 1745.5270 -7489.9098 299.2808 -9235.4368 -7424.8429 299.2889 953.6013 963.5600 30076.9279 -159.7111 -94.6672
ENERGY: 1500000 2.5549 9.2596 6.3352 0.0000 -10694.2621 1435.0838 0.0000 0.0000 1700.1492 -7540.8793 291.5005 -9241.0285 -7429.9649 299.8067 -250.8839 -181.9523 30098.3547 -179.5440 -116.8817
TCL: Running FEP window  13: Lambda1 0.6    Lambda2 0.65   [dLambda 0.050000000000000044]
TCL: Setting parameter firsttimestep to 0
TCL: Setting parameter alchLambda to 0.6
Info: NONBONDED TABLE R-SQUARED SPACING: 0.0625
Info: NONBONDED TABLE SIZE: 705 POINTS
TCL: Setting parameter alchLambda2 to 0.65
Info: NONBONDED TABLE R-SQUARED SPACING: 0.0625
Info: NONBONDED TABLE SIZE: 705 POINTS
TCL: Running for 1500000 steps
ETITLE: TS BOND ANGLE DIHED IMPRP ELECT VDW BOUNDARY MISC KINETIC TOTAL TEMP POTENTIAL TOTALAVG TEMPAVG PRESSURE GPRESSURE VOLUME PRESSAVG GPRESSAVG
ENERGY: 0 2.5549 9.2596 6.3352 0.0000 -10695.1120 1435.1391 0.0000 0.0000 1699.2668 -7542.5563 291.3492 -9241.8231 -7542.5563 291.3492 -269.7628 -173.1763 30098.3547 -269.7628 -173.1763
ENERGY: 300000 3.1977 10.7303 8.3522 0.0000 -10686.8086 1510.0288 0.0000 0.0000 1756.2900 -7398.2095 301.1262 -9154.4995 -7413.6934 300.4983 828.4684 873.8728 29770.0422 -132.4466 -71.2416
ENERGY: 600000 5.3897 5.2448 7.1233 0.0000 -10656.7368 1444.5875 0.0000 0.0000 1753.9276 -7440.4640 300.7211 -9194.3916 -7432.5605 300.0771 -24.0609 -2.9375 30401.3846 -194.0459 -133.3352
ENERGY: 900000 6.3379 11.4209 7.2462 0.0000 -10612.9927 1384.9073 0.0000 0.0000 1740.5130 -7462.5675 298.4211 -9203.0805 -7428.5048 300.2594 -794.8148 -730.9745 30205.1269 -171.5978 -107.3025
ENERGY: 1200000 3.9999 9.2128 5.3404 0.0000 -10543.4455 1394.8977 0.0000 0.0000 1780.5743 -7349.4204 305.2899 -9129.9947 -7418.0652 301.2370 -288.8324 -278.0148 30390.7726 -85.7488 -22.4114
ENERGY: 1500000 3.3214 9.5200 5.6786 0.0000 -10448.8315 1310.1707 0.0000 0.0000 1779.0212 -7341.1196 305.0236 -9120.1407 -7410.4662 301.3753 -735.6118 -636.7692 30211.7354 -149.4066 -79.6284
TCL: Running FEP window  14: Lambda1 0.65   Lambda2 0.7000000000000001 [dLambda 0.050000000000000044]
TCL: Setting parameter firsttimestep to 0
TCL: Setting parameter alchLambda to 0.65
Info: NONBONDED TABLE R-SQUARED SPACING: 0.0625
Info: NONBONDED TABLE SIZE: 705 POINTS
TCL: Setting parameter alchLambda2 to 0.7000000000000001
Info: NONBONDED TABLE R-SQUARED SPACING: 0.0625
Info: NONBONDED TABLE SIZE: 705 POINTS
TCL: Running for 1500000 steps
ETITLE: TS BOND ANGLE DIHED IMPRP ELECT VDW BOUNDARY MISC KINETIC TOTAL TEMP POTENTIAL TOTALAVG TEMPAVG PRESSURE GPRESSURE VOLUME PRESSAVG GPRESSAVG
ENERGY: 0 3.3214 9.5200 5.6786 0.0000 -10450.0594 1310.8174 0.0000 0.0000 1778.1715 -7342.5504 304.8779 -9120.7220 -7342.5504 304.8779 -718.1959 -620.8880 30211.7354 -718.1959 -620.8880
ENERGY: 300000 3.0694 5.8106 6.6678 0.0000 -10511.8078 1333.2438 0.0000 0.0000 1748.0469 -7414.9694 299.7128 -9163.0163 -7397.8568 299.1554 -671.9930 -644.5423 30025.9319 -361.7715 -290.8368
ENERGY: 600000 3.8464 12.4690 10.2539 0.0000 -10702.3826 1455.1930 0.0000 0.0000 1798.8825 -7421.7378 308.4289 -9220.6203 -7401.0001 302.0927 -81.5057 16.1717 29985.5009 -132.8674 -57.2445
ENERGY: 900000 5.1032 6.1790 9.0589 0.0000 -10431.9166 1363.7340 0.0000 0.0000 1783.6018 -7264.2398 305.8089 -9047.8416 -7382.0273 302.0551 -114.2361 -89.8624 30193.1853 -170.3762 -106.9630
ENERGY: 1200000 4.7784 6.6027 5.9003 0.0000 -10623.5034 1453.7042 0.0000 0.0000 1721.5551 -7430.9628 295.1707 -9152.5179 -7384.2444 301.0843 70.6285 150.2660 30476.8458 -218.8105 -155.5032
ENERGY: 1500000 2.1756 7.4113 4.2610 0.0000 -10639.8105 1441.9864 0.0000 0.0000 1777.5802 -7406.3962 304.7765 -9183.9763 -7388.6721 300.9821 256.4690 352.6057 30079.2241 -115.9506 -51.0216
TCL: Running FEP window  15: Lambda1 0.7000000000000001 Lambda2 0.7500000000000001 [dLambda 0.050000000000000044]
TCL: Setting parameter firsttimestep to 0
TCL: Setting parameter alchLambda to 0.7000000000000001
Info: NONBONDED TABLE R-SQUARED SPACING: 0.0625
Info: NONBONDED TABLE SIZE: 705 POINTS
TCL: Setting parameter alchLambda2 to 0.7500000000000001
Info: NONBONDED TABLE R-SQUARED SPACING: 0.0625
Info: NONBONDED TABLE SIZE: 705 POINTS
TCL: Running for 1500000 steps
ETITLE: TS BOND ANGLE DIHED IMPRP ELECT VDW BOUNDARY MISC KINETIC TOTAL TEMP POTENTIAL TOTALAVG TEMPAVG PRESSURE GPRESSURE VOLUME PRESSAVG GPRESSAVG
ENERGY: 0 2.1756 7.4113 4.2610 0.0000 -10640.6601 1442.7981 0.0000 0.0000 1776.7286 -7407.2857 304.6305 -9184.0143 -7407.2857 304.6305 279.5374 373.1272 30079.2241 279.5374 373.1272
ENERGY: 300000 2.4442 6.8023 5.7471 0.0000 -10575.9149 1379.1566 0.0000 0.0000 1712.3115 -7469.4532 293.5858 -9181.7647 -7444.3531 298.4865 -826.3494 -757.3518 30910.9032 -212.6844 -147.2830
ENERGY: 600000 1.1061 6.2823 3.9594 0.0000 -10463.6081 1353.7425 0.0000 0.0000 1761.7848 -7336.7329 302.0683 -9098.5177 -7425.2924 298.7099 -346.2827 -234.6430 30271.0713 -245.9163 -180.0173
ENERGY: 900000 7.6540 4.9270 8.4920 0.0000 -10514.7877 1394.8977 0.0000 0.0000 1745.8615 -7352.9555 299.3382 -9098.8170 -7423.6982 298.9772 -356.9740 -292.8205 30878.4695 -91.3816 -31.2028
ENERGY: 1200000 3.3906 6.4870 5.3551 0.0000 -10539.7263 1425.4394 0.0000 0.0000 1805.4570 -7293.5972 309.5561 -9099.0542 -7412.1463 299.6846 45.3207 105.7727 30627.7516 -59.5176 4.6390
ENERGY: 1500000 1.6366 6.4432 9.7491 0.0000 -10857.9266 1575.4215 0.0000 0.0000 1753.5040 -7511.1722 300.6485 -9264.6762 -7415.1100 300.1596 851.9016 951.8340 29893.9004 -2.7703 60.3380
TCL: Running FEP window  16: Lambda1 0.7500000000000001 Lambda2 0.8000000000000002 [dLambda 0.050000000000000044]
TCL: Setting parameter firsttimestep to 0
TCL: Setting parameter alchLambda to 0.7500000000000001
Info: NONBONDED TABLE R-SQUARED SPACING: 0.0625
Info: NONBONDED TABLE SIZE: 705 POINTS
TCL: Setting parameter alchLambda2 to 0.8000000000000002
Info: NONBONDED TABLE R-SQUARED SPACING: 0.0625
Info: NONBONDED TABLE SIZE: 705 POINTS
TCL: Running for 1500000 steps
ETITLE: TS BOND ANGLE DIHED IMPRP ELECT VDW BOUNDARY MISC KINETIC TOTAL TEMP POTENTIAL TOTALAVG TEMPAVG PRESSURE GPRESSURE VOLUME PRESSAVG GPRESSAVG
ENERGY: 0 1.6366 6.4432 9.7491 0.0000 -10858.5272 1575.4238 0.0000 0.0000 1752.6197 -7512.6549 300.4969 -9265.2746 -7512.6549 300.4969 868.7739 961.6603 29893.9004 868.7739 961.6603
ENERGY: 300000 5.6488 10.4266 4.9631 0.0000 -10556.4771 1364.2515 0.0000 0.0000 1782.9071 -7388.2800 305.6898 -9171.1871 -7437.8244 300.0060 -674.6081 -602.0456 30246.3989 88.0868 168.4099
ENERGY: 600000 5.5992 7.0862 6.5392 0.0000 -10730.1754 1453.9947 0.0000 0.0000 1729.4453 -7527.5107 296.5235 -9256.9560 -7438.1126 300.4226 56.7116 108.0669 29718.0400 169.4828 234.6201
ENERGY: 900000 3.5140 6.9195 4.4458 0.0000 -10649.5210 1421.8472 0.0000 0.0000 1712.4264 -7500.3681 293.6055 -9212.7945 -7437.5661 299.6264 -217.7284 -270.6109 30450.0158 183.1176 232.7755
ENERGY: 1200000 2.8839 6.8142 5.2301 0.0000 -10661.9140 1454.5843 0.0000 0.0000 1789.3928 -7403.0086 306.8019 -9192.4014 -7419.5460 300.3911 -78.7466 -18.4975 30545.4212 23.3381 75.9982
ENERGY: 1500000 5.6654 6.1910 6.5985 0.0000 -10598.8516 1413.5756 0.0000 0.0000 1674.9863 -7491.8349 287.1862 -9166.8212 -7428.9336 299.6938 115.3574 150.2981 30029.3281 1.2813 57.2435
TCL: Running FEP window  17: Lambda1 0.8000000000000002 Lambda2 0.8500000000000002 [dLambda 0.050000000000000044]
TCL: Setting parameter firsttimestep to 0
TCL: Setting parameter alchLambda to 0.8000000000000002
Info: NONBONDED TABLE R-SQUARED SPACING: 0.0625
Info: NONBONDED TABLE SIZE: 705 POINTS
TCL: Setting parameter alchLambda2 to 0.8500000000000002
Info: NONBONDED TABLE R-SQUARED SPACING: 0.0625
Info: NONBONDED TABLE SIZE: 705 POINTS
TCL: Running for 1500000 steps
ETITLE: TS BOND ANGLE DIHED IMPRP ELECT VDW BOUNDARY MISC KINETIC TOTAL TEMP POTENTIAL TOTALAVG TEMPAVG PRESSURE GPRESSURE VOLUME PRESSAVG GPRESSAVG
ENERGY: 0 5.6654 6.1910 6.5985 0.0000 -10601.2703 1416.2291 0.0000 0.0000 1674.1019 -7492.4844 287.0346 -9166.5864 -7492.4844 287.0346 107.9390 186.4492 30029.3281 107.9390 186.4492
ENERGY: 300000 5.3830 5.4104 8.5984 0.0000 -10703.0111 1485.6330 0.0000 0.0000 1731.6884 -7466.2978 296.9081 -9197.9863 -7454.1210 294.9065 311.2025 357.3796 30195.2278 175.8664 255.8792
ENERGY: 600000 3.9786 8.2176 4.9130 0.0000 -10543.0101 1353.6756 0.0000 0.0000 1789.8405 -7382.3848 306.8786 -9172.2253 -7444.1556 297.9501 -561.9913 -480.7277 30225.7513 140.4683 205.1567
ENERGY: 900000 2.0279 7.3085 10.1262 0.0000 -10530.7736 1369.8709 0.0000 0.0000 1732.7778 -7408.6624 297.0949 -9141.4401 -7437.8446 298.7089 -203.8411 -99.5931 29861.5380 81.6213 147.5359
ENERGY: 1200000 2.4330 6.1784 11.3171 0.0000 -10580.1693 1419.3879 0.0000 0.0000 1790.4875 -7350.3654 306.9895 -9140.8529 -7440.3635 298.3340 -127.4549 -39.7184 30297.9691 84.3639 146.6214
ENERGY: 1500000 2.2035 5.4919 8.0308 0.0000 -10568.4740 1382.2285 0.0000 0.0000 1770.3376 -7400.1817 303.5347 -9170.5193 -7440.2899 298.7787 -202.8797 -170.3356 30161.2835 73.9769 131.3702
TCL: Running FEP window  18: Lambda1 0.8500000000000002 Lambda2 0.9000000000000002 [dLambda 0.050000000000000044]
TCL: Setting parameter firsttimestep to 0
TCL: Setting parameter alchLambda to 0.8500000000000002
Info: NONBONDED TABLE R-SQUARED SPACING: 0.0625
Info: NONBONDED TABLE SIZE: 705 POINTS
TCL: Setting parameter alchLambda2 to 0.9000000000000002
Info: NONBONDED TABLE R-SQUARED SPACING: 0.0625
Info: NONBONDED TABLE SIZE: 705 POINTS
TCL: Running for 1500000 steps
ETITLE: TS BOND ANGLE DIHED IMPRP ELECT VDW BOUNDARY MISC KINETIC TOTAL TEMP POTENTIAL TOTALAVG TEMPAVG PRESSURE GPRESSURE VOLUME PRESSAVG GPRESSAVG
ENERGY: 0 2.2036 5.4919 8.0308 0.0000 -10570.9075 1383.4851 0.0000 0.0000 1769.4753 -7402.2209 303.3869 -9171.6961 -7402.2209 303.3869 -220.9931 -146.3692 30161.2835 -220.9931 -146.3692
ENERGY: 300000 3.4715 10.2605 6.3515 0.0000 -10666.7836 1432.7683 0.0000 0.0000 1809.5228 -7404.4090 310.2533 -9213.9318 -7401.8640 304.7730 94.3599 156.4043 30146.4784 -38.4512 40.2365
ENERGY: 600000 2.8724 4.5538 9.4806 0.0000 -10677.4114 1402.4255 0.0000 0.0000 1769.6445 -7488.4346 303.4159 -9258.0791 -7424.5511 303.6066 -189.7349 -67.2179 29744.2194 -112.7751 -45.1097
ENERGY: 900000 4.0993 6.5732 9.0092 0.0000 -10556.5836 1438.8604 0.0000 0.0000 1692.7536 -7405.2879 290.2325 -9098.0415 -7418.2093 302.2005 42.0367 136.0386 30448.7092 -79.9751 -17.5053
ENERGY: 1200000 5.5303 7.9383 7.7773 0.0000 -10466.7000 1331.1979 0.0000 0.0000 1751.0250 -7363.2313 300.2235 -9114.2563 -7418.9992 301.3557 -680.3170 -590.3393 30468.1311 -110.6503 -52.7263
ENERGY: 1500000 4.1897 5.3087 3.7231 0.0000 -10432.0240 1281.4759 0.0000 0.0000 1805.3565 -7331.9702 309.5389 -9137.3267 -7414.7465 302.4275 -739.7651 -733.8029 30241.0356 -100.4535 -43.6619
TCL: Running FEP window  19: Lambda1 0.9000000000000002 Lambda2 0.9500000000000003 [dLambda 0.050000000000000044]
TCL: Setting parameter firsttimestep to 0
TCL: Setting parameter alchLambda to 0.9000000000000002
Info: NONBONDED TABLE R-SQUARED SPACING: 0.0625
Info: NONBONDED TABLE SIZE: 705 POINTS
TCL: Setting parameter alchLambda2 to 0.9500000000000003
Info: NONBONDED TABLE R-SQUARED SPACING: 0.0625
Info: NONBONDED TABLE SIZE: 705 POINTS
TCL: Running for 1500000 steps
ETITLE: TS BOND ANGLE DIHED IMPRP ELECT VDW BOUNDARY MISC KINETIC TOTAL TEMP POTENTIAL TOTALAVG TEMPAVG PRESSURE GPRESSURE VOLUME PRESSAVG GPRESSAVG
ENERGY: 0 4.1896 5.3087 3.7231 0.0000 -10433.2983 1282.2923 0.0000 0.0000 1804.5026 -7333.2820 309.3925 -9137.7846 -7333.2820 309.3925 -802.8491 -711.1452 30241.0356 -802.8491 -711.1452
ENERGY: 300000 7.1232 11.4363 8.2637 0.0000 -10721.9352 1452.8017 0.0000 0.0000 1808.5899 -7433.7205 310.0933 -9242.3104 -7386.9648 305.2334 303.0890 277.7215 29928.6640 -259.2672 -218.4828
ENERGY: 600000 3.6762 9.4321 6.3064 0.0000 -10618.9162 1412.8496 0.0000 0.0000 1696.3882 -7490.2637 290.8557 -9186.6519 -7406.9161 303.0495 82.8667 186.3213 29578.5793 -55.9158 8.0584
ENERGY: 900000 4.1108 6.1978 5.1939 0.0000 -10541.3563 1368.9354 0.0000 0.0000 1711.9790 -7444.9394 293.5288 -9156.9184 -7402.1376 302.6743 -331.5645 -250.4063 29970.3470 -73.9018 -12.3719
ENERGY: 1200000 3.2557 9.9982 4.5855 0.0000 -10668.2969 1453.6209 0.0000 0.0000 1775.5828 -7421.2537 304.4340 -9196.8365 -7408.2183 301.7314 33.2704 173.3545 30157.8283 -125.1143 -57.9838
ENERGY: 1500000 4.2935 5.8049 6.2008 0.0000 -10577.7310 1393.1083 0.0000 0.0000 1785.9556 -7382.3679 306.2125 -9168.3234 -7402.4348 301.7266 -57.5721 -30.3488 29944.4625 -137.1130 -67.5964
TCL: Running FEP window  20: Lambda1 0.9500000000000003 Lambda2 1.0    [dLambda 0.04999999999999971]
TCL: Setting parameter firsttimestep to 0
TCL: Setting parameter alchLambda to 0.9500000000000003
Info: NONBONDED TABLE R-SQUARED SPACING: 0.0625
Info: NONBONDED TABLE SIZE: 705 POINTS
TCL: Setting parameter alchLambda2 to 1.0
Info: NONBONDED TABLE R-SQUARED SPACING: 0.0625
Info: NONBONDED TABLE SIZE: 705 POINTS
TCL: Running for 1500000 steps
ETITLE: TS BOND ANGLE DIHED IMPRP ELECT VDW BOUNDARY MISC KINETIC TOTAL TEMP POTENTIAL TOTALAVG TEMPAVG PRESSURE GPRESSURE VOLUME PRESSAVG GPRESSAVG
ENERGY: 0 4.2935 5.8049 6.2008 0.0000 -10579.4342 1393.5558 0.0000 0.0000 1785.0694 -7384.5096 306.0606 -9169.5791 -7384.5096 306.0606 -92.8599 -14.2057 29944.4625 -92.8599 -14.2057
ENERGY: 300000 3.3332 8.4217 5.3406 0.0000 -10726.4046 1526.7594 0.0000 0.0000 1750.9976 -7431.5522 300.2188 -9182.5498 -7400.9202 301.1581 784.2914 865.0148 30157.6589 551.3266 590.6272
ENERGY: 600000 5.8726 5.9831 11.6532 0.0000 -10549.7695 1395.2631 0.0000 0.0000 1751.5288 -7379.4689 300.3098 -9130.9976 -7408.3961 300.3585 -329.0959 -195.4289 30616.4521 189.9831 243.2762
ENERGY: 900000 3.3281 10.9278 5.2184 0.0000 -10388.8029 1261.2622 0.0000 0.0000 1743.1019 -7364.9645 298.8650 -9108.0664 -7410.6054 300.1679 -1280.2264 -1189.7613 30871.0422 -48.8887 16.9516
ENERGY: 1200000 8.0690 6.5843 8.1703 0.0000 -10681.6672 1440.6804 0.0000 0.0000 1757.8469 -7460.3163 301.3931 -9218.1632 -7430.7141 299.3653 7.2375 114.9906 29985.8551 -33.4913 38.6290
ENERGY: 1500000 3.4865 11.2845 4.0437 0.0000 -10629.7270 1434.1259 0.0000 0.0000 1766.8772 -7409.9092 302.9414 -9176.7864 -7429.3996 299.7117 49.0409 112.9314 30215.4170 -21.0134 47.4081
TCL: Exiting due to exit command.
