Info: SIMULATION PARAMETERS:
Info: TIMESTEP               2
Info: NUMBER OF STEPS        0
Info: STEPS PER CYCLE        10
Info: PERIODIC CELL BASIS 1  31.8198 0 0
Info: PERIODIC CELL BASIS 2  0 31.3795 0
Info: PERIODIC CELL BASIS 3  0 0 30.4157
Info: PERIODIC CELL CENTER   0 0 0
Info: WRAPPING WATERS AROUND PERIODIC BOUNDARIES ON OUTPUT.
Info: WRAPPING ALL CLUSTERS AROUND PERIODIC BOUNDARIES ON OUTPUT.
Info: FIRST LDB TIMESTEP     50
Info: LAST LDB TIMESTEP     -1
Info: HOM BACKGROUND SCALING 1
Info: PME BACKGROUND SCALING 1
Info: MIN ATOMS PER PATCH    40
Info: EMPTY PATCH LOAD       40 ATOMS
Info: VELOCITY FILE          mobley_8011706_equil.vel
Info: CENTER OF MASS MOVING INITIALLY? NO
Info: DIELECTRIC             1
Info: EXCLUDE                SCALED ONE-FOUR
Info: 1-4 ELECTROSTATICS SCALED BY 0.833333
Info: MODIFIED 1-4 VDW PARAMETERS WILL BE USED
Info: DCD FILENAME           mobley_8011706_prod.dcd
Info: DCD FREQUENCY          100000
Info: DCD FIRST STEP         100000
Info: DCD FILE WILL CONTAIN UNIT CELL DATA
Info: XST FILENAME           mobley_8011706_prod.xst
Info: XST FREQUENCY          100000
Info: NO VELOCITY DCD OUTPUT
Info: NO FORCE DCD OUTPUT
Info: OUTPUT FILENAME        mobley_8011706_prod
Info: BINARY OUTPUT FILES WILL BE USED
Info: RESTART FILENAME       mobley_8011706_prod.restart
Info: RESTART FREQUENCY      100000
Info: BINARY RESTART FILES WILL BE USED
Info: CUTOFF                 9
Info: PAIRLIST DISTANCE      11
Info: PAIRLIST SHRINK RATE   0.01
Info: PAIRLIST GROW RATE     0.01
Info: PAIRLIST TRIGGER       0.3
Info: PAIRLISTS PER CYCLE    2
Info: PAIRLISTS ENABLED
Info: MARGIN                 2
Info: HYDROGEN GROUP CUTOFF  2.5
Info: PATCH DIMENSION        15.5
Info: ENERGY OUTPUT STEPS    100000
Info: ENERGY EVALUATION STEPS    100000
Info: OUTPUT ENERGY PRECISION 4
Info: CROSSTERM ENERGY INCLUDED IN DIHEDRAL
Info: TIMING OUTPUT STEPS    1000000
Info: PRESSURE OUTPUT STEPS  100000
Info: ALCHEMICAL FEP ON
Info: FEP CURRENT LAMBDA VALUE     0
Info: FEP COMPARISON LAMBDA VALUE  0.05
Info: FEP INTRA-ALCHEMICAL NON-BONDED INTERACTIONS WILL BE RETAINED
Info: FEP INTRA-ALCHEMICAL BONDED INTERACTIONS WILL BE RETAINED
Info: FEP VDW SHIFTING COEFFICIENT 5
Info: FEP ELEC. ACTIVE FOR ANNIHILATED PARTICLES BETWEEN LAMBDA = 0 AND LAMBDA = 0.5
Info: FEP ELEC. ACTIVE FOR EXNIHILATED PARTICLES BETWEEN LAMBDA = 0.5 AND LAMBDA = 1
Info: FEP VDW ACTIVE FOR ANNIHILATED PARTICLES BETWEEN LAMBDA = 0 AND LAMBDA = 1
Info: FEP VDW ACTIVE FOR EXNIHILATED PARTICLES BETWEEN LAMBDA = 0 AND LAMBDA = 1
Info: FEP BOND ACTIVE FOR ANNIHILATED PARTICLES BETWEEN LAMBDA = 1 AND LAMBDA = 1
Info: FEP BOND ACTIVE FOR EXNIHILATED PARTICLES BETWEEN LAMBDA = 0 AND LAMBDA = 0
Info: LANGEVIN DYNAMICS ACTIVE
Info: LANGEVIN TEMPERATURE   300
Info: LANGEVIN USING BBK INTEGRATOR
Info: LANGEVIN DAMPING COEFFICIENT IS 1 INVERSE PS
Info: LANGEVIN DYNAMICS APPLIED TO HYDROGENS
Info: LANGEVIN PISTON PRESSURE CONTROL ACTIVE
Info:        TARGET PRESSURE IS 1.01325 BAR
Info:     OSCILLATION PERIOD IS 50 FS
Info:             DECAY TIME IS 25 FS
Info:     PISTON TEMPERATURE IS 300 K
Info:       PRESSURE CONTROL IS GROUP-BASED
Info:    INITIAL STRAIN RATE IS -0.000548219 -0.000548219 -0.000548219
Info:       CELL FLUCTUATION IS ISOTROPIC
Info: PARTICLE MESH EWALD (PME) ACTIVE
Info: PME TOLERANCE               1e-06
Info: PME EWALD COEFFICIENT       0.348832
Info: PME INTERPOLATION ORDER     4
Info: PME GRID DIMENSIONS         32 32 32
Info: PME MAXIMUM GRID SPACING    1
Info: PME CALCULATION WILL BE PERFORMED ON GPU
Info: FULL ELECTROSTATIC EVALUATION FREQUENCY      2
Info: USING VERLET I (r-RESPA) MTS SCHEME.
Info: C1 SPLITTING OF LONG RANGE ELECTROSTATICS
Info: PLACING ATOMS IN PATCHES BY HYDROGEN GROUPS
Info: RIGID BONDS TO HYDROGEN : ALL
Info:         ERROR TOLERANCE : 1e-08
Info:          MAX ITERATIONS : 100
Info: RIGID WATER USING SETTLE ALGORITHM
Info: RANDOM NUMBER SEED     1743725045
Info: USE HYDROGEN BONDS?    NO
Info: Using AMBER format force field!
Info: AMBER PARM FILE        mobley_8011706.prmtop
Info: COORDINATE PDB         mobley_8011706.pdb
Info: Exclusions will be read from PARM file!
Info: SCNB (VDW SCALING)     2
Info: USING ARITHMETIC MEAN TO COMBINE L-J SIGMA PARAMETERS
Info: BINARY COORDINATES     mobley_8011706_equil.coor
Info: SUMMARY OF PARAMETERS:
Info: 7 BONDS
Info: 7 ANGLES
Info:   7 HARMONIC
Info:   0 COSINE-BASED
Info: 4 DIHEDRAL
Info: 0 IMPROPER
Info: 0 CROSSTERM
Info: 0 VDW
Info: 36 VDW_PAIRS
Info: 0 NBTHOLE_PAIRS
Info: To read alchdata from file: mobley_8011706.pdb
Info: To read alchflag data from column: 5
Info: STRUCTURE SUMMARY:
Info: 2949 ATOMS
Info: 2948 BONDS
Info: 18 ANGLES
Info: 18 DIHEDRALS
Info: 0 IMPROPERS
Info: 0 CROSSTERMS
Info: 2982 EXCLUSIONS
Info: 2944 RIGID BONDS
Info: ALCH: 0 ATOMS TO DISAPPEAR IN FINAL STATE
Info: ALCH: 12 ATOMS TO APPEAR IN FINAL STATE
Info: 5903 DEGREES OF FREEDOM
Info: 984 HYDROGEN GROUPS
Info: 4 ATOMS IN LARGEST HYDROGEN GROUP
Info: 984 MIGRATION GROUPS
Info: 4 ATOMS IN LARGEST MIGRATION GROUP
Info: TOTAL MASS = 17710.8 amu
Info: TOTAL CHARGE = -0.000200003 e
Info: MASS DENSITY = 0.968399 g/cm^3
Info: ATOM DENSITY = 0.097103 atoms/A^3
Info: ADDED 0 IMPLICIT EXCLUSIONS
Info: NONBONDED TABLE R-SQUARED SPACING: 0.0625
Info: NONBONDED TABLE SIZE: 705 POINTS
Info: REDUCING NUMBER OF PATCHES TO IMPROVE LOAD BALANCE
Info: REMOVING COM VELOCITY 0.0646473 -0.0880349 -0.22659
Info: Use 3D box decompostion in PME FFT.
Info: Updated CUDA force table with 4096 elements.
Info: Updated CUDA LJ table with 8 x 8 elements.
Info: Found 15 unique exclusion lists needing 28 bytes
TCL: Running for 1500000 steps
ETITLE: TS BOND ANGLE DIHED IMPRP ELECT VDW BOUNDARY MISC KINETIC TOTAL TEMP POTENTIAL TOTALAVG TEMPAVG PRESSURE GPRESSURE VOLUME PRESSAVG GPRESSAVG
ENERGY: 0 0.5614 5.4532 0.9599 0.0000 -10685.0413 1452.8080 0.0000 0.0000 1750.2987 -7474.9602 298.4213 -9225.2589 -7474.9602 298.4213 63.9385 148.6131 30369.7992 63.9385 148.6131
ENERGY: 300000 0.7023 3.6508 1.7387 0.0000 -10682.6450 1450.6166 0.0000 0.0000 1779.9884 -7445.9483 303.4833 -9225.9367 -7502.3197 297.3197 110.1354 236.1601 30305.0404 -183.8945 -118.9777
ENERGY: 600000 3.2753 5.9510 1.3539 0.0000 -10722.4297 1417.2166 0.0000 0.0000 1728.3326 -7566.3005 294.6761 -9294.6331 -7494.9506 297.7369 -443.7754 -362.8492 30318.1641 -289.1287 -220.1901
ENERGY: 900000 1.3588 3.6825 1.2261 0.0000 -10648.8699 1353.3624 0.0000 0.0000 1791.1859 -7498.0542 305.3924 -9289.2401 -7489.0439 299.5667 -799.1693 -698.6057 30213.9189 -364.8434 -288.4353
ENERGY: 1200000 0.9082 7.6551 0.9406 0.0000 -10514.5006 1299.8902 0.0000 0.0000 1737.0170 -7468.0896 296.1568 -9205.1065 -7487.4598 299.6977 -950.8745 -882.0669 30179.6710 -351.4127 -274.5867
ENERGY: 1500000 2.1799 6.1053 1.1206 0.0000 -10636.2795 1364.0135 0.0000 0.0000 1732.3101 -7530.5502 295.3543 -9262.8603 -7492.9226 299.3782 -388.2547 -385.6767 29719.4445 -317.6835 -248.9835
TCL: Running FEP window   2: Lambda1 0.05   Lambda2 0.1    [dLambda 0.05  ]
TCL: Setting parameter firsttimestep to 0
TCL: Setting parameter alchLambda to 0.05
Info: NONBONDED TABLE R-SQUARED SPACING: 0.0625
Info: NONBONDED TABLE SIZE: 705 POINTS
TCL: Setting parameter alchLambda2 to 0.1
Info: NONBONDED TABLE R-SQUARED SPACING: 0.0625
Info: NONBONDED TABLE SIZE: 705 POINTS
TCL: Running for 1500000 steps
ETITLE: TS BOND ANGLE DIHED IMPRP ELECT VDW BOUNDARY MISC KINETIC TOTAL TEMP POTENTIAL TOTALAVG TEMPAVG PRESSURE GPRESSURE VOLUME PRESSAVG GPRESSAVG
ENERGY: 0 2.1799 6.1053 1.1206 0.0000 -10636.2805 1366.0660 0.0000 0.0000 1731.4371 -7529.3717 295.2054 -9260.8088 -7529.3717 295.2054 -457.6764 -380.6688 29719.4445 -457.6764 -380.6688
ENERGY: 300000 2.2172 3.5997 1.0083 0.0000 -10753.2723 1469.3055 0.0000 0.0000 1757.3333 -7519.8083 299.6207 -9277.1416 -7510.8984 299.8102 304.8126 395.7716 29842.5863 -71.3147 -19.8362
ENERGY: 600000 2.5974 4.9966 0.8375 0.0000 -10685.2181 1442.7519 0.0000 0.0000 1783.8028 -7450.2320 304.1336 -9234.0348 -7513.3451 299.9260 286.8114 358.3253 30000.2696 -164.4007 -93.6444
ENERGY: 900000 0.8671 2.4731 0.5559 0.0000 -10667.9471 1423.2919 0.0000 0.0000 1733.6823 -7507.0769 295.5882 -9240.7592 -7502.5112 299.7502 -100.7420 -25.0098 30199.6878 -140.2631 -64.5577
ENERGY: 1200000 1.4023 4.2930 0.8183 0.0000 -10726.3031 1468.4925 0.0000 0.0000 1738.6727 -7512.6243 296.4391 -9251.2970 -7500.6989 300.0724 24.7297 92.3977 30425.3297 -217.0843 -141.2904
ENERGY: 1500000 0.9818 4.6873 1.5342 0.0000 -10762.5187 1453.5379 0.0000 0.0000 1743.2063 -7558.5712 297.2120 -9301.7775 -7504.4917 299.5509 -93.8734 -17.9334 30314.5117 -135.5831 -54.6487
TCL: Running FEP window   3: Lambda1 0.1    Lambda2 0.15000000000000002 [dLambda 0.05000000000000002]
TCL: Setting parameter firsttimestep to 0
TCL: Setting parameter alchLambda to 0.1
Info: NONBONDED TABLE R-SQUARED SPACING: 0.0625
Info: NONBONDED TABLE SIZE: 705 POINTS
TCL: Setting parameter alchLambda2 to 0.15000000000000002
Info: NONBONDED TABLE R-SQUARED SPACING: 0.0625
Info: NONBONDED TABLE SIZE: 705 POINTS
TCL: Running for 1500000 steps
ETITLE: TS BOND ANGLE DIHED IMPRP ELECT VDW BOUNDARY MISC KINETIC TOTAL TEMP POTENTIAL TOTALAVG TEMPAVG PRESSURE GPRESSURE VOLUME PRESSAVG GPRESSAVG
ENERGY: 0 0.9818 4.6873 1.5342 0.0000 -10762.5205 1453.5168 0.0000 0.0000 1742.2974 -7559.5030 297.0571 -9301.8004 -7559.5030 297.0571 -102.3120 -15.1395 30314.5117 -102.3120 -15.1395
ENERGY: 300000 1.9521 2.9893 0.1686 0.0000 -10675.7565 1467.0617 0.0000 0.0000 1723.3692 -7480.2155 293.8299 -9203.5847 -7499.5053 295.8176 135.3617 187.6096 30331.7749 -179.6401 -117.9426
ENERGY: 600000 1.9948 4.7153 2.2000 0.0000 -10751.8033 1442.8071 0.0000 0.0000 1734.6075 -7565.4786 295.7460 -9300.0861 -7514.8482 296.1284 -119.5971 -100.2794 30287.2206 -142.1030 -99.1270
ENERGY: 900000 1.1049 4.5951 0.6548 0.0000 -10809.3183 1553.0146 0.0000 0.0000 1777.5530 -7472.3959 303.0681 -9249.9489 -7515.8213 297.6553 739.6429 778.4596 30206.6063 -110.7217 -58.8969
ENERGY: 1200000 0.5018 5.3964 0.2562 0.0000 -10595.5064 1358.4284 0.0000 0.0000 1736.9519 -7493.9717 296.1457 -9230.9236 -7515.7701 298.4532 -863.6683 -804.4652 30824.0855 -71.7385 -15.1010
ENERGY: 1500000 1.5498 4.5963 0.4409 0.0000 -10673.9256 1429.5819 0.0000 0.0000 1765.5558 -7472.2010 301.0226 -9237.7567 -7495.4315 299.3686 -263.5980 -148.9645 30261.0331 6.1066 68.9732
TCL: Running FEP window   4: Lambda1 0.15000000000000002 Lambda2 0.2    [dLambda 0.04999999999999999]
TCL: Setting parameter firsttimestep to 0
TCL: Setting parameter alchLambda to 0.15000000000000002
Info: NONBONDED TABLE R-SQUARED SPACING: 0.0625
Info: NONBONDED TABLE SIZE: 705 POINTS
TCL: Setting parameter alchLambda2 to 0.2
Info: NONBONDED TABLE R-SQUARED SPACING: 0.0625
Info: NONBONDED TABLE SIZE: 705 POINTS
TCL: Running for 1500000 steps
ETITLE: TS BOND ANGLE DIHED IMPRP ELECT VDW BOUNDARY MISC KINETIC TOTAL TEMP POTENTIAL TOTALAVG TEMPAVG PRESSURE GPRESSURE VOLUME PRESSAVG GPRESSAVG
ENERGY: 0 1.5498 4.5963 0.4409 0.0000 -10673.9242 1431.1058 0.0000 0.0000 1764.6794 -7471.5521 300.8731 -9236.2315 -7471.5521 300.8731 -226.9655 -142.0117 30261.0331 -226.9655 -142.0117
ENERGY: 300000 0.1721 6.1244 1.4398 0.0000 -10554.1228 1370.5622 0.0000 0.0000 1768.3750 -7407.4493 301.5032 -9175.8243 -7461.6133 302.6023 -685.5932 -639.3276 30905.1397 -465.8640 -385.0858
ENERGY: 600000 0.6214 4.3390 0.3677 0.0000 -10657.7066 1423.3038 0.0000 0.0000 1758.5554 -7470.5194 299.8290 -9229.0748 -7470.1993 301.6844 103.5594 200.9119 29900.6442 -389.9285 -309.5709
ENERGY: 900000 1.1845 6.6362 0.3260 0.0000 -10687.2340 1441.1894 0.0000 0.0000 1772.5747 -7465.3233 302.2193 -9237.8980 -7469.3086 300.3337 244.4138 247.2426 30105.7843 -293.2679 -236.6239
ENERGY: 1200000 1.9041 2.8965 2.4241 0.0000 -10700.8504 1428.1388 0.0000 0.0000 1773.9899 -7491.4971 302.4605 -9265.4870 -7476.1019 300.9493 -318.0656 -272.9108 30614.3628 -339.2572 -282.8585
ENERGY: 1500000 0.2681 2.2943 0.2669 0.0000 -10658.5821 1359.6212 0.0000 0.0000 1775.8028 -7520.3288 302.7697 -9296.1316 -7485.1071 300.6863 -679.3163 -640.9924 30213.6914 -338.6312 -280.2424
TCL: Running FEP window   5: Lambda1 0.2    Lambda2 0.25   [dLambda 0.04999999999999999]
TCL: Setting parameter firsttimestep to 0
TCL: Setting parameter alchLambda to 0.2
Info: NONBONDED TABLE R-SQUARED SPACING: 0.0625
Info: NONBONDED TABLE SIZE: 705 POINTS
TCL: Setting parameter alchLambda2 to 0.25
Info: NONBONDED TABLE R-SQUARED SPACING: 0.0625
Info: NONBONDED TABLE SIZE: 705 POINTS
TCL: Running for 1500000 steps
ETITLE: TS BOND ANGLE DIHED IMPRP ELECT VDW BOUNDARY MISC KINETIC TOTAL TEMP POTENTIAL TOTALAVG TEMPAVG PRESSURE GPRESSURE VOLUME PRESSAVG GPRESSAVG
ENERGY: 0 0.2681 2.2943 0.2669 0.0000 -10658.5805 1359.4523 0.0000 0.0000 1774.9124 -7521.3866 302.6178 -9296.2989 -7521.3866 302.6178 -736.7393 -640.5410 30213.6914 -736.7393 -640.5410
ENERGY: 300000 5.7099 6.5344 0.5471 0.0000 -10678.7691 1452.6415 0.0000 0.0000 1803.8138 -7409.5223 307.5455 -9213.3362 -7488.0964 302.6201 -106.4743 -50.8505 30524.9729 -212.2550 -117.4586
ENERGY: 600000 1.6375 6.6450 1.1340 0.0000 -10636.1518 1391.6869 0.0000 0.0000 1735.5252 -7499.5232 295.9024 -9235.0484 -7502.6974 300.0430 -340.4149 -312.9294 30327.9353 -139.8480 -63.3920
ENERGY: 900000 1.1712 2.8499 1.0559 0.0000 -10838.9201 1559.5344 0.0000 0.0000 1807.7204 -7466.5884 308.2115 -9274.3087 -7503.3083 300.3182 811.9854 829.5779 30302.6383 -173.1064 -105.6064
ENERGY: 1200000 0.4550 2.7282 0.2803 0.0000 -10752.2844 1478.4684 0.0000 0.0000 1811.4458 -7458.9067 308.8467 -9270.3525 -7485.9206 300.3638 70.9645 108.4480 30661.6587 -131.6906 -69.8234
ENERGY: 1500000 1.0818 6.0759 1.5706 0.0000 -10674.2135 1430.7998 0.0000 0.0000 1772.8380 -7461.8474 302.2642 -9234.6855 -7472.3755 300.4907 -356.8274 -326.1676 30632.1279 -210.0518 -146.6587
TCL: Running FEP window   6: Lambda1 0.25   Lambda2 0.3    [dLambda 0.04999999999999999]
TCL: Setting parameter firsttimestep to 0
TCL: Setting parameter alchLambda to 0.25
Info: NONBONDED TABLE R-SQUARED SPACING: 0.0625
Info: NONBONDED TABLE SIZE: 705 POINTS
TCL: Setting parameter alchLambda2 to 0.3
Info: NONBONDED TABLE R-SQUARED SPACING: 0.0625
Info: NONBONDED TABLE SIZE: 705 POINTS
TCL: Running for 1500000 steps
ETITLE: TS BOND ANGLE DIHED IMPRP ELECT VDW BOUNDARY MISC KINETIC TOTAL TEMP POTENTIAL TOTALAVG TEMPAVG PRESSURE GPRESSURE VOLUME PRESSAVG GPRESSAVG
ENERGY: 0 1.0818 6.0759 1.5706 0.0000 -10674.2137 1431.0321 0.0000 0.0000 1771.9732 -7462.4802 302.1167 -9234.4534 -7462.4802 302.1167 -402.9747 -320.6502 30632.1279 -402.9747 -320.6502
ENERGY: 300000 0.9076 7.2461 1.7183 0.0000 -10768.6274 1532.5636 0.0000 0.0000 1755.4954 -7470.6965 299.3073 -9226.1919 -7487.6187 298.4732 738.5952 777.9316 30290.3794 -35.7529 25.3339
ENERGY: 600000 0.4525 1.6107 0.3855 0.0000 -10643.3113 1419.1256 0.0000 0.0000 1786.9372 -7434.7998 304.6680 -9221.7370 -7494.2653 298.9300 -344.9221 -202.5433 30866.0567 -83.9209 -25.1572
ENERGY: 900000 1.3372 3.8710 1.7148 0.0000 -10640.6639 1447.0472 0.0000 0.0000 1810.0534 -7376.6403 308.6093 -9186.6937 -7493.2609 299.1281 399.0901 489.3999 30163.9251 18.4716 74.8984
ENERGY: 1200000 2.2596 5.6096 0.1450 0.0000 -10684.8438 1401.5963 0.0000 0.0000 1706.9885 -7568.2447 291.0370 -9275.2333 -7495.4033 298.9587 -592.6752 -515.6073 30479.9502 37.4255 91.9721
ENERGY: 1500000 1.1238 5.2416 0.8007 0.0000 -10656.1688 1466.3156 0.0000 0.0000 1707.9797 -7474.7076 291.2060 -9182.6872 -7494.4162 299.2308 146.8229 216.8010 30548.7359 44.5741 102.3665
TCL: Running FEP window   7: Lambda1 0.3    Lambda2 0.35   [dLambda 0.04999999999999999]
TCL: Setting parameter firsttimestep to 0
TCL: Setting parameter alchLambda to 0.3
Info: NONBONDED TABLE R-SQUARED SPACING: 0.0625
Info: NONBONDED TABLE SIZE: 705 POINTS
TCL: Setting parameter alchLambda2 to 0.35
Info: NONBONDED TABLE R-SQUARED SPACING: 0.0625
Info: NONBONDED TABLE SIZE: 705 POINTS
TCL: Running for 1500000 steps
ETITLE: TS BOND ANGLE DIHED IMPRP ELECT VDW BOUNDARY MISC KINETIC TOTAL TEMP POTENTIAL TOTALAVG TEMPAVG PRESSURE GPRESSURE VOLUME PRESSAVG GPRESSAVG
ENERGY: 0 1.1238 5.2416 0.8007 0.0000 -10656.1696 1466.0672 0.0000 0.0000 1707.1109 -7475.8255 291.0579 -9182.9364 -7475.8255 291.0579 133.3164 217.1397 30548.7359 133.3164 217.1397
ENERGY: 300000 2.0086 3.2843 1.2464 0.0000 -10564.3841 1346.3118 0.0000 0.0000 1789.6941 -7421.8389 305.1381 -9211.5330 -7490.7498 300.0149 -598.0557 -534.9132 30356.6564 18.8455 87.4892
ENERGY: 600000 1.1512 3.2485 0.8751 0.0000 -10594.4301 1386.3497 0.0000 0.0000 1753.4328 -7449.3729 298.9556 -9202.8057 -7494.6014 299.8097 -629.9321 -557.1320 30845.9911 11.7345 68.4258
ENERGY: 900000 3.1940 6.5055 0.6084 0.0000 -10553.8459 1340.6091 0.0000 0.0000 1827.0422 -7375.8867 311.5058 -9202.9289 -7485.7023 300.6536 -820.5713 -796.6661 30534.0525 -183.6972 -130.2889
ENERGY: 1200000 0.4114 3.9769 0.5553 0.0000 -10785.9379 1479.8480 0.0000 0.0000 1702.0841 -7599.0623 290.2008 -9301.1463 -7492.8297 299.3143 190.9610 193.2591 30131.7453 -132.3260 -82.7438
ENERGY: 1500000 0.4786 2.8735 1.5800 0.0000 -10412.6610 1267.9684 0.0000 0.0000 1762.4904 -7377.2701 300.4999 -9139.7605 -7479.2210 299.7485 -1120.9014 -1003.5812 30447.5593 -168.5979 -113.0263
TCL: Running FEP window   8: Lambda1 0.35   Lambda2 0.39999999999999997 [dLambda 0.04999999999999999]
TCL: Setting parameter firsttimestep to 0
TCL: Setting parameter alchLambda to 0.35
Info: NONBONDED TABLE R-SQUARED SPACING: 0.0625
Info: NONBONDED TABLE SIZE: 705 POINTS
TCL: Setting parameter alchLambda2 to 0.39999999999999997
Info: NONBONDED TABLE R-SQUARED SPACING: 0.0625
Info: NONBONDED TABLE SIZE: 705 POINTS
TCL: Running for 1500000 steps
ETITLE: TS BOND ANGLE DIHED IMPRP ELECT VDW BOUNDARY MISC KINETIC TOTAL TEMP POTENTIAL TOTALAVG TEMPAVG PRESSURE GPRESSURE VOLUME PRESSAVG GPRESSAVG
ENERGY: 0 0.4786 2.8735 1.5800 0.0000 -10412.6602 1268.0404 0.0000 0.0000 1761.6295 -7378.0582 300.3531 -9139.6877 -7378.0582 300.3531 -1081.5754 -1000.5642 30447.5593 -1081.5754 -1000.5642
ENERGY: 300000 1.4115 3.3886 2.6587 0.0000 -10725.2910 1475.1509 0.0000 0.0000 1780.0326 -7462.6486 303.4908 -9242.6813 -7443.5629 301.9215 362.3413 363.4356 30275.0068 -15.7381 48.2178
ENERGY: 600000 1.6195 3.1344 0.6252 0.0000 -10611.5448 1367.5187 0.0000 0.0000 1729.6464 -7509.0006 294.9001 -9238.6470 -7474.7458 299.1312 -716.5796 -650.1826 30305.0688 -0.8552 53.6780
ENERGY: 900000 0.3342 3.8732 0.6110 0.0000 -10718.9355 1423.1049 0.0000 0.0000 1740.8525 -7550.1596 296.8107 -9291.0121 -7495.0482 299.1241 -429.2816 -400.4180 30626.5280 -125.6547 -76.2978
ENERGY: 1200000 0.7362 6.3794 0.5200 0.0000 -10725.3525 1486.3598 0.0000 0.0000 1781.7156 -7449.6415 303.7778 -9231.3571 -7485.6402 299.3853 565.1543 648.1536 29918.6312 -94.7864 -37.3624
ENERGY: 1500000 1.3215 2.2448 0.7567 0.0000 -10577.0928 1341.4945 0.0000 0.0000 1738.9067 -7492.3687 296.4790 -9231.2754 -7488.1815 299.0804 -792.1327 -690.3814 30333.9238 -164.3212 -97.7519
TCL: Running FEP window   9: Lambda1 0.39999999999999997 Lambda2 0.44999999999999996 [dLambda 0.04999999999999999]
TCL: Setting parameter firsttimestep to 0
TCL: Setting parameter alchLambda to 0.39999999999999997
Info: NONBONDED TABLE R-SQUARED SPACING: 0.0625
Info: NONBONDED TABLE SIZE: 705 POINTS
TCL: Setting parameter alchLambda2 to 0.44999999999999996
Info: NONBONDED TABLE R-SQUARED SPACING: 0.0625
Info: NONBONDED TABLE SIZE: 705 POINTS
TCL: Running for 1500000 steps
ETITLE: TS BOND ANGLE DIHED IMPRP ELECT VDW BOUNDARY MISC KINETIC TOTAL TEMP POTENTIAL TOTALAVG TEMPAVG PRESSURE GPRESSURE VOLUME PRESSAVG GPRESSAVG
ENERGY: 0 1.3215 2.2448 0.7567 0.0000 -10577.0920 1341.0831 0.0000 0.0000 1738.0127 -7493.6732 296.3265 -9231.6859 -7493.6732 296.3265 -785.9299 -693.0673 30333.9238 -785.9299 -693.0673
ENERGY: 300000 0.1271 2.6161 1.4561 0.0000 -10580.1114 1371.7257 0.0000 0.0000 1758.1898 -7445.9965 299.7667 -9204.1863 -7490.1899 296.8520 -397.1791 -379.5348 30521.7345 -304.9569 -249.2093
ENERGY: 600000 0.7977 2.7841 2.2387 0.0000 -10703.1497 1413.2900 0.0000 0.0000 1783.8133 -7500.2260 304.1354 -9284.0393 -7486.5599 298.0581 -171.4179 -104.0132 30103.3847 -287.9665 -224.3797
ENERGY: 900000 2.0248 3.3106 0.8465 0.0000 -10706.9756 1418.6451 0.0000 0.0000 1730.6794 -7551.4692 295.0762 -9282.1485 -7489.8757 299.4719 -231.3862 -105.7261 30137.0943 -172.9368 -112.7687
ENERGY: 1200000 3.5198 5.7650 1.6751 0.0000 -10785.3853 1478.5365 0.0000 0.0000 1785.8639 -7510.0248 304.4850 -9295.8887 -7475.8609 301.1659 52.5294 99.0548 30309.0007 -105.5141 -50.1799
ENERGY: 1500000 0.2190 4.9211 1.2366 0.0000 -10688.1912 1390.4788 0.0000 0.0000 1783.8362 -7507.4996 304.1393 -9291.3357 -7472.8199 301.1329 -473.7483 -404.2518 30282.2153 -81.1134 -23.6861
TCL: Running FEP window  10: Lambda1 0.44999999999999996 Lambda2 0.49999999999999994 [dLambda 0.04999999999999999]
TCL: Setting parameter firsttimestep to 0
TCL: Setting parameter alchLambda to 0.44999999999999996
Info: NONBONDED TABLE R-SQUARED SPACING: 0.0625
Info: NONBONDED TABLE SIZE: 705 POINTS
TCL: Setting parameter alchLambda2 to 0.49999999999999994
Info: NONBONDED TABLE R-SQUARED SPACING: 0.0625
Info: NONBONDED TABLE SIZE: 705 POINTS
TCL: Running for 1500000 steps
ETITLE: TS BOND ANGLE DIHED IMPRP ELECT VDW BOUNDARY MISC KINETIC TOTAL TEMP POTENTIAL TOTALAVG TEMPAVG PRESSURE GPRESSURE VOLUME PRESSAVG GPRESSAVG
ENERGY: 0 0.2190 4.9211 1.2366 0.0000 -10688.1895 1390.0775 0.0000 0.0000 1782.9681 -7508.7671 303.9913 -9291.7353 -7508.7671 303.9913 -485.3668 -406.2581 30282.2153 -485.3668 -406.2581
ENERGY: 300000 0.5572 3.8256 1.3653 0.0000 -10755.6751 1414.2429 0.0000 0.0000 1716.6780 -7619.0060 292.6890 -9335.6841 -7505.5513 297.2649 -407.5491 -364.1841 30378.5901 -472.1519 -429.5920
ENERGY: 600000 0.7564 2.3080 0.7129 0.0000 -10884.2001 1592.1282 0.0000 0.0000 1713.8275 -7574.4672 292.2030 -9288.2947 -7497.8120 298.2164 1106.3604 1179.5583 29829.2415 -171.9840 -128.0097
ENERGY: 900000 1.2196 3.1083 0.6544 0.0000 -10784.6108 1545.9555 0.0000 0.0000 1723.0917 -7510.5814 293.7825 -9233.6731 -7497.5348 298.0670 443.0497 556.6511 30881.3263 22.4343 72.1046
ENERGY: 1200000 0.7663 3.0359 1.2121 0.0000 -10647.6750 1412.9757 0.0000 0.0000 1695.2254 -7534.4597 289.0314 -9229.6851 -7493.4138 298.2536 -188.6280 -189.4176 30530.2255 -7.9468 40.5585
ENERGY: 1500000 2.0537 3.0579 1.9842 0.0000 -10646.6200 1426.8439 0.0000 0.0000 1788.1190 -7424.5612 304.8695 -9212.6802 -7491.6056 298.1919 -180.3082 -31.9465 30382.9751 85.7388 139.3753
TCL: Running FEP window  11: Lambda1 0.49999999999999994 Lambda2 0.5499999999999999 [dLambda 0.04999999999999999]
TCL: Setting parameter firsttimestep to 0
TCL: Setting parameter alchLambda to 0.49999999999999994
Info: NONBONDED TABLE R-SQUARED SPACING: 0.0625
Info: NONBONDED TABLE SIZE: 705 POINTS
TCL: Setting parameter alchLambda2 to 0.5499999999999999
Info: NONBONDED TABLE R-SQUARED SPACING: 0.0625
Info: NONBONDED TABLE SIZE: 705 POINTS
TCL: Running for 1500000 steps
ETITLE: TS BOND ANGLE DIHED IMPRP ELECT VDW BOUNDARY MISC KINETIC TOTAL TEMP POTENTIAL TOTALAVG TEMPAVG PRESSURE GPRESSURE VOLUME PRESSAVG GPRESSAVG
ENERGY: 0 2.0537 3.0579 1.9842 0.0000 -10646.6204 1426.5793 0.0000 0.0000 1787.2096 -7425.7356 304.7145 -9212.9452 -7425.7356 304.7145 -124.3408 -26.5729 30382.9751 -124.3408 -26.5729
ENERGY: 300000 0.5909 4.5985 1.8508 0.0000 -10644.1792 1365.4001 0.0000 0.0000 1754.1410 -7517.5979 299.0764 -9271.7389 -7506.0431 299.5526 -532.2101 -508.2980 30202.0593 -451.3999 -399.9171
ENERGY: 600000 1.6766 11.1482 0.6036 0.0000 -10788.5421 1515.7768 0.0000 0.0000 1764.7750 -7494.5619 300.8894 -9259.3368 -7491.1120 300.1300 507.2562 540.9710 30669.0800 -206.7723 -157.4955
ENERGY: 900000 1.1556 6.2890 0.5590 0.0000 -10626.6256 1414.3440 0.0000 0.0000 1752.6332 -7451.6447 298.8193 -9204.2779 -7502.7751 298.2902 -56.6507 -8.5003 30570.5506 -224.6926 -176.2827
ENERGY: 1200000 0.9936 3.6109 1.2541 0.0000 -10787.3295 1457.4877 0.0000 0.0000 1780.7630 -7543.2202 303.6154 -9323.9832 -7492.8155 300.1799 312.3804 375.8022 29603.5197 -135.0537 -84.9418
ENERGY: 1500000 0.5951 5.7681 0.9859 0.0000 -10638.8663 1417.6056 0.0000 0.0000 1775.7118 -7438.1997 302.7541 -9213.9116 -7492.0493 299.6937 -87.4637 -39.8276 30052.0459 -256.4388 -205.7033
TCL: Running FEP window  12: Lambda1 0.5499999999999999 Lambda2 0.6    [dLambda 0.050000000000000044]
TCL: Setting parameter firsttimestep to 0
TCL: Setting parameter alchLambda to 0.5499999999999999
Info: NONBONDED TABLE R-SQUARED SPACING: 0.0625
Info: NONBONDED TABLE SIZE: 705 POINTS
TCL: Setting parameter alchLambda2 to 0.6
Info: NONBONDED TABLE R-SQUARED SPACING: 0.0625
Info: NONBONDED TABLE SIZE: 705 POINTS
TCL: Running for 1500000 steps
ETITLE: TS BOND ANGLE DIHED IMPRP ELECT VDW BOUNDARY MISC KINETIC TOTAL TEMP POTENTIAL TOTALAVG TEMPAVG PRESSURE GPRESSURE VOLUME PRESSAVG GPRESSAVG
ENERGY: 0 0.5951 5.7681 0.9859 0.0000 -10639.2212 1417.3250 0.0000 0.0000 1774.8112 -7439.7359 302.6006 -9214.5471 -7439.7359 302.6006 -114.7594 -38.2189 30052.0459 -114.7594 -38.2189
ENERGY: 300000 0.8690 2.2387 0.5219 0.0000 -10626.1298 1450.1492 0.0000 0.0000 1751.0527 -7421.2982 298.5498 -9172.3510 -7458.4972 302.1766 357.6308 409.5441 30489.9869 107.5804 186.3207
ENERGY: 600000 1.0742 5.3596 1.7376 0.0000 -10612.6426 1418.5971 0.0000 0.0000 1793.4832 -7392.3909 305.7841 -9185.8740 -7470.6469 300.3995 344.6370 393.8336 29729.7572 200.8299 258.8258
ENERGY: 900000 2.2859 1.9324 0.4934 0.0000 -10686.7721 1479.5480 0.0000 0.0000 1796.5371 -7405.9754 306.3048 -9202.5125 -7478.7476 300.8440 384.8049 481.7268 30277.5421 146.6296 213.2687
ENERGY: 1200000 0.2472 4.6987 0.5856 0.0000 -10587.0428 1374.2742 0.0000 0.0000 1789.2588 -7417.9783 305.0639 -9207.2371 -7477.2273 301.7853 -399.3611 -229.1032 30234.2157 108.2043 178.9528
ENERGY: 1500000 1.2953 3.8404 1.0263 0.0000 -10615.5153 1377.6325 0.0000 0.0000 1785.5441 -7446.1768 304.4305 -9231.7209 -7470.0980 302.0413 -390.9895 -304.8447 30017.2809 49.7060 115.1560
TCL: Running FEP window  13: Lambda1 0.6    Lambda2 0.65   [dLambda 0.050000000000000044]
TCL: Setting parameter firsttimestep to 0
TCL: Setting parameter alchLambda to 0.6
Info: NONBONDED TABLE R-SQUARED SPACING: 0.0625
Info: NONBONDED TABLE SIZE: 705 POINTS
TCL: Setting parameter alchLambda2 to 0.65
Info: NONBONDED TABLE R-SQUARED SPACING: 0.0625
Info: NONBONDED TABLE SIZE: 705 POINTS
TCL: Running for 1500000 steps
ETITLE: TS BOND ANGLE DIHED IMPRP ELECT VDW BOUNDARY MISC KINETIC TOTAL TEMP POTENTIAL TOTALAVG TEMPAVG PRESSURE GPRESSURE VOLUME PRESSAVG GPRESSAVG
ENERGY: 0 1.2953 3.8404 1.0263 0.0000 -10615.2890 1378.2365 0.0000 0.0000 1784.6491 -7446.2415 304.2779 -9230.8906 -7446.2415 304.2779 -382.2749 -293.5905 30017.2809 -382.2749 -293.5905
ENERGY: 300000 2.1850 3.2509 0.3228 0.0000 -10811.4555 1493.4493 0.0000 0.0000 1747.1046 -7565.1429 297.8767 -9312.2475 -7502.9441 299.2801 176.3507 239.3745 30580.1610 9.9829 104.4135
ENERGY: 600000 0.5607 4.0224 2.3434 0.0000 -10718.9336 1436.7659 0.0000 0.0000 1757.4456 -7517.7957 299.6398 -9275.2413 -7509.7428 297.6353 -38.0069 -53.7909 30504.2719 -56.8350 7.8163
ENERGY: 900000 2.7539 4.0449 0.1597 0.0000 -10719.5583 1470.2308 0.0000 0.0000 1740.8243 -7501.5447 296.8059 -9242.3690 -7514.4821 297.0375 163.1794 212.2490 30385.7496 -92.6679 -26.8640
ENERGY: 1200000 0.2678 5.6363 0.6934 0.0000 -10628.0273 1376.9719 0.0000 0.0000 1763.4717 -7480.9861 300.6672 -9244.4578 -7513.2538 296.8476 -608.8840 -549.6989 30572.3421 -139.7486 -70.8411
ENERGY: 1500000 1.3029 9.6548 0.4569 0.0000 -10521.5691 1324.3540 0.0000 0.0000 1772.1451 -7413.6554 302.1460 -9185.8005 -7500.0475 298.1282 -718.9478 -700.5495 30670.4497 -131.9565 -66.9509
TCL: Running FEP window  14: Lambda1 0.65   Lambda2 0.7000000000000001 [dLambda 0.050000000000000044]
TCL: Setting parameter firsttimestep to 0
TCL: Setting parameter alchLambda to 0.65
Info: NONBONDED TABLE R-SQUARED SPACING: 0.0625
Info: NONBONDED TABLE SIZE: 705 POINTS
TCL: Setting parameter alchLambda2 to 0.7000000000000001
Info: NONBONDED TABLE R-SQUARED SPACING: 0.0625
Info: NONBONDED TABLE SIZE: 705 POINTS
TCL: Running for 1500000 steps
ETITLE: TS BOND ANGLE DIHED IMPRP ELECT VDW BOUNDARY MISC KINETIC TOTAL TEMP POTENTIAL TOTALAVG TEMPAVG PRESSURE GPRESSURE VOLUME PRESSAVG GPRESSAVG
ENERGY: 0 1.3029 9.6548 0.4569 0.0000 -10521.7199 1324.3826 0.0000 0.0000 1771.2742 -7414.6485 301.9975 -9185.9227 -7414.6485 301.9975 -773.5421 -696.0244 30670.4497 -773.5421 -696.0244
ENERGY: 300000 1.1133 2.1186 0.8289 0.0000 -10741.1538 1462.7319 0.0000 0.0000 1753.6081 -7520.7530 298.9855 -9274.3611 -7473.9607 301.6831 110.1803 148.9651 30612.0909 -341.6028 -281.6673
ENERGY: 600000 1.2015 3.6204 0.3267 0.0000 -10694.0443 1419.3537 0.0000 0.0000 1803.2188 -7466.3231 307.4440 -9269.5418 -7469.4384 303.1261 -231.8755 -162.4373 30212.2415 -284.9732 -219.5591
ENERGY: 900000 3.4016 2.6756 2.1894 0.0000 -10657.2556 1395.2608 0.0000 0.0000 1747.9527 -7505.7756 298.0213 -9253.7283 -7469.7616 302.6486 -594.7970 -574.1533 31042.4680 -198.3615 -140.0441
ENERGY: 1200000 1.4982 4.8902 0.8517 0.0000 -10776.3990 1463.1438 0.0000 0.0000 1790.8477 -7515.1672 305.3348 -9306.0150 -7477.0443 302.8808 267.2719 237.3726 30081.4779 -166.6992 -114.8604
ENERGY: 1500000 3.4261 4.4699 1.5975 0.0000 -10563.7763 1388.5403 0.0000 0.0000 1775.1602 -7390.5822 302.6601 -9165.7424 -7479.0559 302.3740 -543.7102 -420.7090 30787.1660 -236.3423 -174.2807
TCL: Running FEP window  15: Lambda1 0.7000000000000001 Lambda2 0.7500000000000001 [dLambda 0.050000000000000044]
TCL: Setting parameter firsttimestep to 0
TCL: Setting parameter alchLambda to 0.7000000000000001
Info: NONBONDED TABLE R-SQUARED SPACING: 0.0625
Info: NONBONDED TABLE SIZE: 705 POINTS
TCL: Setting parameter alchLambda2 to 0.7500000000000001
Info: NONBONDED TABLE R-SQUARED SPACING: 0.0625
Info: NONBONDED TABLE SIZE: 705 POINTS
TCL: Running for 1500000 steps
ETITLE: TS BOND ANGLE DIHED IMPRP ELECT VDW BOUNDARY MISC KINETIC TOTAL TEMP POTENTIAL TOTALAVG TEMPAVG PRESSURE GPRESSURE VOLUME PRESSAVG GPRESSAVG
ENERGY: 0 3.4261 4.4699 1.5975 0.0000 -10564.2893 1389.3441 0.0000 0.0000 1774.2746 -7391.1771 302.5091 -9165.4517 -7391.1771 302.5091 -497.9248 -405.0454 30787.1660 -497.9248 -405.0454
ENERGY: 300000 2.1034 6.7658 0.6186 0.0000 -10725.2802 1475.5241 0.0000 0.0000 1758.0940 -7482.1744 299.7503 -9240.2683 -7467.9393 301.5419 146.3988 242.7278 30700.3596 -311.1052 -245.3382
ENERGY: 600000 1.4057 1.8606 0.6074 0.0000 -10801.7234 1476.3635 0.0000 0.0000 1727.1125 -7594.3736 294.4681 -9321.4862 -7516.9927 298.8171 14.3266 86.7780 30260.1400 -303.3046 -226.4966
ENERGY: 900000 1.0206 4.1656 0.6339 0.0000 -10791.1470 1468.8556 0.0000 0.0000 1685.0544 -7631.4168 287.2973 -9316.4712 -7521.4456 298.5019 -223.2539 -94.1987 30468.0615 -317.5954 -244.8371
ENERGY: 1200000 1.3857 2.6503 0.3863 0.0000 -10740.3619 1487.2065 0.0000 0.0000 1734.3820 -7514.3511 295.7075 -9248.7331 -7511.2539 298.3642 461.7262 488.6798 29935.1034 -258.2467 -196.2216
ENERGY: 1500000 2.0429 5.0991 0.9369 0.0000 -10628.4230 1411.3741 0.0000 0.0000 1800.1932 -7408.7769 306.9281 -9208.9701 -7499.3337 299.3299 244.6198 247.0613 30069.5556 -197.8072 -140.4563
TCL: Running FEP window  16: Lambda1 0.7500000000000001 Lambda2 0.8000000000000002 [dLambda 0.050000000000000044]
TCL: Setting parameter firsttimestep to 0
TCL: Setting parameter alchLambda to 0.7500000000000001
Info: NONBONDED TABLE R-SQUARED SPACING: 0.0625
Info: NONBONDED TABLE SIZE: 705 POINTS
TCL: Setting parameter alchLambda2 to 0.8000000000000002
Info: NONBONDED TABLE R-SQUARED SPACING: 0.0625
Info: NONBONDED TABLE SIZE: 705 POINTS
TCL: Running for 1500000 steps
ETITLE: TS BOND ANGLE DIHED IMPRP ELECT VDW BOUNDARY MISC KINETIC TOTAL TEMP POTENTIAL TOTALAVG TEMPAVG PRESSURE GPRESSURE VOLUME PRESSAVG GPRESSAVG
ENERGY: 0 2.0429 5.0991 0.9369 0.0000 -10629.5119 1411.3715 0.0000 0.0000 1799.2644 -7410.7972 306.7698 -9210.0616 -7410.7972 306.7698 185.7721 252.0569 30069.5556 185.7721 252.0569
ENERGY: 300000 0.6855 2.3001 2.1867 0.0000 -10610.5163 1410.8940 0.0000 0.0000 1733.7214 -7460.7286 295.5949 -9194.4500 -7461.7984 301.9274 -333.7825 -251.4840 30958.9013 84.5762 166.1953
ENERGY: 600000 1.5329 5.2233 2.0178 0.0000 -10678.9739 1396.3476 0.0000 0.0000 1772.1326 -7501.7197 302.1439 -9273.8523 -7472.8746 302.8196 -328.6647 -226.9959 30072.4647 165.3619 248.9073
ENERGY: 900000 4.5685 5.8791 0.5411 0.0000 -10583.1462 1365.0552 0.0000 0.0000 1775.6685 -7431.4339 302.7467 -9207.1023 -7470.0105 301.0380 -563.5053 -514.4272 30413.4784 115.9714 191.6436
ENERGY: 1200000 0.4182 6.8388 1.2050 0.0000 -10793.2258 1478.3371 0.0000 0.0000 1742.3234 -7564.1034 297.0615 -9306.4268 -7478.4000 301.1628 265.5922 275.7141 30128.5227 151.9743 221.1000
ENERGY: 1500000 3.3178 2.6277 1.4584 0.0000 -10641.4199 1390.3078 0.0000 0.0000 1756.9916 -7486.7166 299.5624 -9243.7082 -7478.6323 300.7868 -663.3957 -511.4754 30490.5352 80.1252 152.6080
TCL: Running FEP window  17: Lambda1 0.8000000000000002 Lambda2 0.8500000000000002 [dLambda 0.050000000000000044]
TCL: Setting parameter firsttimestep to 0
TCL: Setting parameter alchLambda to 0.8000000000000002
Info: NONBONDED TABLE R-SQUARED SPACING: 0.0625
Info: NONBONDED TABLE SIZE: 705 POINTS
TCL: Setting parameter alchLambda2 to 0.8500000000000002
Info: NONBONDED TABLE R-SQUARED SPACING: 0.0625
Info: NONBONDED TABLE SIZE: 705 POINTS
TCL: Running for 1500000 steps
ETITLE: TS BOND ANGLE DIHED IMPRP ELECT VDW BOUNDARY MISC KINETIC TOTAL TEMP POTENTIAL TOTALAVG TEMPAVG PRESSURE GPRESSURE VOLUME PRESSAVG GPRESSAVG
ENERGY: 0 3.3178 2.6277 1.4584 0.0000 -10642.7851 1390.2332 0.0000 0.0000 1756.1303 -7489.0177 299.4155 -9245.1480 -7489.0177 299.4155 -586.4753 -508.0216 30490.5352 -586.4753 -508.0216
ENERGY: 300000 3.9101 5.3490 0.5672 0.0000 -10651.6638 1403.5996 0.0000 0.0000 1818.3029 -7419.9350 310.0158 -9238.2379 -7448.3385 302.0633 -9.0908 109.3873 29876.0550 -47.6330 26.9112
ENERGY: 600000 1.5222 3.4500 1.0421 0.0000 -10611.9508 1390.5409 0.0000 0.0000 1750.2129 -7465.1827 298.4066 -9215.3956 -7461.5715 302.7680 -539.6078 -421.4424 30580.7605 -65.4116 1.1593
ENERGY: 900000 2.2127 5.3953 0.3609 0.0000 -10593.9970 1379.9564 0.0000 0.0000 1739.1729 -7466.8987 296.5243 -9206.0716 -7478.0339 300.3584 -539.6928 -370.7534 30430.8620 -73.5856 9.8805
ENERGY: 1200000 0.2824 5.8630 1.0732 0.0000 -10713.3628 1452.2197 0.0000 0.0000 1787.9332 -7465.9913 304.8379 -9253.9246 -7483.8609 299.9542 246.2296 290.3042 30127.9655 92.5917 170.7624
ENERGY: 1500000 1.0372 7.5079 0.5346 0.0000 -10628.9835 1391.3652 0.0000 0.0000 1709.1580 -7519.3806 291.4069 -9228.5387 -7488.6213 299.8161 -342.3389 -263.5426 30294.5115 43.4372 115.4479
TCL: Running FEP window  18: Lambda1 0.8500000000000002 Lambda2 0.9000000000000002 [dLambda 0.050000000000000044]
TCL: Setting parameter firsttimestep to 0
TCL: Setting parameter alchLambda to 0.8500000000000002
Info: NONBONDED TABLE R-SQUARED SPACING: 0.0625
Info: NONBONDED TABLE SIZE: 705 POINTS
TCL: Setting parameter alchLambda2 to 0.9000000000000002
Info: NONBONDED TABLE R-SQUARED SPACING: 0.0625
Info: NONBONDED TABLE SIZE: 705 POINTS
TCL: Running for 1500000 steps
ETITLE: TS BOND ANGLE DIHED IMPRP ELECT VDW BOUNDARY MISC KINETIC TOTAL TEMP POTENTIAL TOTALAVG TEMPAVG PRESSURE GPRESSURE VOLUME PRESSAVG GPRESSAVG
ENERGY: 0 1.0372 7.5079 0.5346 0.0000 -10631.1397 1392.6521 0.0000 0.0000 1708.2710 -7521.1370 291.2557 -9229.4080 -7521.1370 291.2557 -330.3388 -245.9087 30294.5115 -330.3388 -245.9087
ENERGY: 300000 1.9969 1.7299 0.8272 0.0000 -10706.0509 1431.6690 0.0000 0.0000 1784.8370 -7484.9910 304.3100 -9269.8280 -7459.5177 302.8411 -250.7912 -191.0210 30662.7740 50.0891 102.5666
ENERGY: 600000 0.8327 2.9768 0.2932 0.0000 -10605.0270 1427.1839 0.0000 0.0000 1790.5299 -7383.2106 305.2806 -9173.7405 -7434.2540 302.8140 13.1549 62.3911 30857.0186 -2.8929 61.7106
ENERGY: 900000 0.2651 5.5896 1.7096 0.0000 -10706.7740 1399.7995 0.0000 0.0000 1745.3851 -7554.0252 297.5835 -9299.4102 -7453.8734 302.7872 -250.2339 -216.1431 29955.3534 -65.5660 3.7740
ENERGY: 1200000 1.3173 6.3135 0.6952 0.0000 -10620.0852 1357.9056 0.0000 0.0000 1714.8098 -7539.0438 292.3705 -9253.8535 -7458.8513 301.9531 -810.2802 -720.6604 30462.2269 -139.6449 -72.6600
ENERGY: 1500000 1.9404 4.6534 1.0795 0.0000 -10549.4303 1340.0576 0.0000 0.0000 1777.5912 -7424.1082 303.0746 -9201.6994 -7464.7486 302.8238 -565.4820 -476.8011 30486.2703 -197.5574 -130.5109
TCL: Running FEP window  19: Lambda1 0.9000000000000002 Lambda2 0.9500000000000003 [dLambda 0.050000000000000044]
TCL: Setting parameter firsttimestep to 0
TCL: Setting parameter alchLambda to 0.9000000000000002
Info: NONBONDED TABLE R-SQUARED SPACING: 0.0625
Info: NONBONDED TABLE SIZE: 705 POINTS
TCL: Setting parameter alchLambda2 to 0.9500000000000003
Info: NONBONDED TABLE R-SQUARED SPACING: 0.0625
Info: NONBONDED TABLE SIZE: 705 POINTS
TCL: Running for 1500000 steps
ETITLE: TS BOND ANGLE DIHED IMPRP ELECT VDW BOUNDARY MISC KINETIC TOTAL TEMP POTENTIAL TOTALAVG TEMPAVG PRESSURE GPRESSURE VOLUME PRESSAVG GPRESSAVG
ENERGY: 0 1.9404 4.6534 1.0795 0.0000 -10551.0864 1340.0362 0.0000 0.0000 1776.7166 -7426.6603 302.9254 -9203.3769 -7426.6603 302.9254 -563.3785 -472.8378 30486.2703 -563.3785 -472.8378
ENERGY: 300000 1.2505 3.3046 0.3560 0.0000 -10501.3402 1289.9776 0.0000 0.0000 1760.1122 -7446.3392 300.0944 -9206.4514 -7478.6328 299.2661 -1029.8090 -903.7140 30376.1638 -369.5470 -296.8676
ENERGY: 600000 2.5753 4.6279 1.7653 0.0000 -10677.3082 1339.4047 0.0000 0.0000 1771.6771 -7557.2579 302.0662 -9328.9350 -7481.4167 300.5107 -1009.6534 -1000.9708 30334.0278 -586.4695 -515.4899
ENERGY: 900000 0.4818 8.3634 1.6485 0.0000 -10748.5989 1472.7606 0.0000 0.0000 1791.3331 -7474.0115 305.4175 -9265.3445 -7479.3116 301.9738 511.4652 530.2397 30001.7755 -367.3693 -304.0074
ENERGY: 1200000 0.8267 2.0676 0.1514 0.0000 -10571.1801 1359.9856 0.0000 0.0000 1727.2103 -7480.9385 294.4848 -9208.1488 -7485.6331 300.6234 -505.8907 -393.1381 30488.3057 -352.6121 -281.9525
ENERGY: 1500000 0.2161 4.1080 1.6510 0.0000 -10746.9591 1460.1421 0.0000 0.0000 1754.8682 -7525.9736 299.2003 -9280.8418 -7479.4816 301.0973 180.0728 342.7830 29965.9229 -302.2497 -225.9407
TCL: Running FEP window  20: Lambda1 0.9500000000000003 Lambda2 1.0    [dLambda 0.04999999999999971]
TCL: Setting parameter firsttimestep to 0
TCL: Setting parameter alchLambda to 0.9500000000000003
Info: NONBONDED TABLE R-SQUARED SPACING: 0.0625
Info: NONBONDED TABLE SIZE: 705 POINTS
TCL: Setting parameter alchLambda2 to 1.0
Info: NONBONDED TABLE R-SQUARED SPACING: 0.0625
Info: NONBONDED TABLE SIZE: 705 POINTS
TCL: Running for 1500000 steps
ETITLE: TS BOND ANGLE DIHED IMPRP ELECT VDW BOUNDARY MISC KINETIC TOTAL TEMP POTENTIAL TOTALAVG TEMPAVG PRESSURE GPRESSURE VOLUME PRESSAVG GPRESSAVG
ENERGY: 0 0.2161 4.1080 1.6510 0.0000 -10748.2716 1461.0566 0.0000 0.0000 1754.0037 -7527.2362 299.0530 -9281.2399 -7527.2362 299.0530 256.4911 361.0564 29965.9229 256.4911 361.0564
ENERGY: 300000 2.4469 4.4444 1.4605 0.0000 -10675.0619 1403.7249 0.0000 0.0000 1812.9013 -7450.0839 309.0948 -9262.9851 -7516.3052 300.9534 -240.6784 -194.4470 30492.5160 -247.1521 -174.6643
ENERGY: 600000 1.4779 3.5019 0.5281 0.0000 -10719.1638 1392.4140 0.0000 0.0000 1751.2732 -7569.9687 298.5874 -9321.2420 -7512.0031 301.5303 -654.3370 -606.3523 30365.7223 -312.2199 -242.2403
ENERGY: 900000 1.5244 2.8397 0.5209 0.0000 -10687.8293 1460.0680 0.0000 0.0000 1755.1959 -7467.6803 299.2562 -9222.8762 -7514.0755 300.3454 308.8551 346.6566 30494.1949 -288.2377 -230.0429
ENERGY: 1200000 2.7702 4.5835 1.4210 0.0000 -10717.2575 1446.2484 0.0000 0.0000 1755.3965 -7506.8379 299.2904 -9262.2343 -7523.3842 300.1531 18.8425 106.3679 30292.6674 -317.7401 -259.2841
ENERGY: 1500000 2.7313 4.4198 1.6175 0.0000 -10576.7762 1407.5342 0.0000 0.0000 1726.1721 -7434.3013 294.3078 -9160.4734 -7524.1841 299.7393 -16.1465 18.9373 30427.9311 -216.1523 -162.3518
TCL: Exiting due to exit command.
