Info: SIMULATION PARAMETERS:
Info: TIMESTEP               2
Info: NUMBER OF STEPS        0
Info: STEPS PER CYCLE        10
Info: PERIODIC CELL BASIS 1  30.2397 0 0
Info: PERIODIC CELL BASIS 2  0 29.4502 0
Info: PERIODIC CELL BASIS 3  0 0 33.9278
Info: PERIODIC CELL CENTER   0 0 0
Info: WRAPPING WATERS AROUND PERIODIC BOUNDARIES ON OUTPUT.
Info: WRAPPING ALL CLUSTERS AROUND PERIODIC BOUNDARIES ON OUTPUT.
Info: FIRST LDB TIMESTEP     50
Info: LAST LDB TIMESTEP     -1
Info: HOM BACKGROUND SCALING 1
Info: PME BACKGROUND SCALING 1
Info: MIN ATOMS PER PATCH    40
Info: EMPTY PATCH LOAD       40 ATOMS
Info: VELOCITY FILE          mobley_9942801_equil.vel
Info: CENTER OF MASS MOVING INITIALLY? NO
Info: DIELECTRIC             1
Info: EXCLUDE                SCALED ONE-FOUR
Info: 1-4 ELECTROSTATICS SCALED BY 0.833333
Info: MODIFIED 1-4 VDW PARAMETERS WILL BE USED
Info: DCD FILENAME           mobley_9942801_prod.dcd
Info: DCD FREQUENCY          100000
Info: DCD FIRST STEP         100000
Info: DCD FILE WILL CONTAIN UNIT CELL DATA
Info: XST FILENAME           mobley_9942801_prod.xst
Info: XST FREQUENCY          100000
Info: NO VELOCITY DCD OUTPUT
Info: NO FORCE DCD OUTPUT
Info: OUTPUT FILENAME        mobley_9942801_prod
Info: BINARY OUTPUT FILES WILL BE USED
Info: RESTART FILENAME       mobley_9942801_prod.restart
Info: RESTART FREQUENCY      100000
Info: BINARY RESTART FILES WILL BE USED
Info: CUTOFF                 9
Info: PAIRLIST DISTANCE      11
Info: PAIRLIST SHRINK RATE   0.01
Info: PAIRLIST GROW RATE     0.01
Info: PAIRLIST TRIGGER       0.3
Info: PAIRLISTS PER CYCLE    2
Info: PAIRLISTS ENABLED
Info: MARGIN                 2
Info: HYDROGEN GROUP CUTOFF  2.5
Info: PATCH DIMENSION        15.5
Info: ENERGY OUTPUT STEPS    100000
Info: ENERGY EVALUATION STEPS    100000
Info: OUTPUT ENERGY PRECISION 4
Info: CROSSTERM ENERGY INCLUDED IN DIHEDRAL
Info: TIMING OUTPUT STEPS    1000000
Info: PRESSURE OUTPUT STEPS  100000
Info: ALCHEMICAL FEP ON
Info: FEP CURRENT LAMBDA VALUE     0
Info: FEP COMPARISON LAMBDA VALUE  0.05
Info: FEP INTRA-ALCHEMICAL NON-BONDED INTERACTIONS WILL BE RETAINED
Info: FEP INTRA-ALCHEMICAL BONDED INTERACTIONS WILL BE RETAINED
Info: FEP VDW SHIFTING COEFFICIENT 5
Info: FEP ELEC. ACTIVE FOR ANNIHILATED PARTICLES BETWEEN LAMBDA = 0 AND LAMBDA = 0.5
Info: FEP ELEC. ACTIVE FOR EXNIHILATED PARTICLES BETWEEN LAMBDA = 0.5 AND LAMBDA = 1
Info: FEP VDW ACTIVE FOR ANNIHILATED PARTICLES BETWEEN LAMBDA = 0 AND LAMBDA = 1
Info: FEP VDW ACTIVE FOR EXNIHILATED PARTICLES BETWEEN LAMBDA = 0 AND LAMBDA = 1
Info: FEP BOND ACTIVE FOR ANNIHILATED PARTICLES BETWEEN LAMBDA = 1 AND LAMBDA = 1
Info: FEP BOND ACTIVE FOR EXNIHILATED PARTICLES BETWEEN LAMBDA = 0 AND LAMBDA = 0
Info: LANGEVIN DYNAMICS ACTIVE
Info: LANGEVIN TEMPERATURE   300
Info: LANGEVIN USING BBK INTEGRATOR
Info: LANGEVIN DAMPING COEFFICIENT IS 1 INVERSE PS
Info: LANGEVIN DYNAMICS APPLIED TO HYDROGENS
Info: LANGEVIN PISTON PRESSURE CONTROL ACTIVE
Info:        TARGET PRESSURE IS 1.01325 BAR
Info:     OSCILLATION PERIOD IS 50 FS
Info:             DECAY TIME IS 25 FS
Info:     PISTON TEMPERATURE IS 300 K
Info:       PRESSURE CONTROL IS GROUP-BASED
Info:    INITIAL STRAIN RATE IS 0.000333819 0.000333819 0.000333819
Info:       CELL FLUCTUATION IS ISOTROPIC
Info: PARTICLE MESH EWALD (PME) ACTIVE
Info: PME TOLERANCE               1e-06
Info: PME EWALD COEFFICIENT       0.348832
Info: PME INTERPOLATION ORDER     4
Info: PME GRID DIMENSIONS         32 32 36
Info: PME MAXIMUM GRID SPACING    1
Info: PME CALCULATION WILL BE PERFORMED ON GPU
Info: FULL ELECTROSTATIC EVALUATION FREQUENCY      2
Info: USING VERLET I (r-RESPA) MTS SCHEME.
Info: C1 SPLITTING OF LONG RANGE ELECTROSTATICS
Info: PLACING ATOMS IN PATCHES BY HYDROGEN GROUPS
Info: RIGID BONDS TO HYDROGEN : ALL
Info:         ERROR TOLERANCE : 1e-08
Info:          MAX ITERATIONS : 100
Info: RIGID WATER USING SETTLE ALGORITHM
Info: RANDOM NUMBER SEED     1743787821
Info: USE HYDROGEN BONDS?    NO
Info: Using AMBER format force field!
Info: AMBER PARM FILE        mobley_9942801.prmtop
Info: COORDINATE PDB         mobley_9942801.pdb
Info: Exclusions will be read from PARM file!
Info: SCNB (VDW SCALING)     2
Info: USING ARITHMETIC MEAN TO COMBINE L-J SIGMA PARAMETERS
Info: BINARY COORDINATES     mobley_9942801_equil.coor
Info: SUMMARY OF PARAMETERS:
Info: 7 BONDS
Info: 7 ANGLES
Info:   7 HARMONIC
Info:   0 COSINE-BASED
Info: 5 DIHEDRAL
Info: 0 IMPROPER
Info: 0 CROSSTERM
Info: 0 VDW
Info: 21 VDW_PAIRS
Info: 0 NBTHOLE_PAIRS
Info: To read alchdata from file: mobley_9942801.pdb
Info: To read alchflag data from column: 5
Info: STRUCTURE SUMMARY:
Info: 2916 ATOMS
Info: 2916 BONDS
Info: 36 ANGLES
Info: 51 DIHEDRALS
Info: 0 IMPROPERS
Info: 0 CROSSTERMS
Info: 2994 EXCLUSIONS
Info: 2907 RIGID BONDS
Info: ALCH: 0 ATOMS TO DISAPPEAR IN FINAL STATE
Info: ALCH: 21 ATOMS TO APPEAR IN FINAL STATE
Info: 5841 DEGREES OF FREEDOM
Info: 974 HYDROGEN GROUPS
Info: 4 ATOMS IN LARGEST HYDROGEN GROUP
Info: 974 MIGRATION GROUPS
Info: 4 ATOMS IN LARGEST MIGRATION GROUP
Info: TOTAL MASS = 17505.6 amu
Info: TOTAL CHARGE = 0.000200041 e
Info: MASS DENSITY = 0.96209 g/cm^3
Info: ATOM DENSITY = 0.0965087 atoms/A^3
Info: ADDED 0 IMPLICIT EXCLUSIONS
Info: NONBONDED TABLE R-SQUARED SPACING: 0.0625
Info: NONBONDED TABLE SIZE: 705 POINTS
Info: REMOVING COM VELOCITY -0.0100402 0.0844363 0.235052
Info: Use 3D box decompostion in PME FFT.
Info: Updated CUDA force table with 4096 elements.
Info: Updated CUDA LJ table with 6 x 6 elements.
Info: Found 23 unique exclusion lists needing 68 bytes
TCL: Running for 1500000 steps
ETITLE: TS BOND ANGLE DIHED IMPRP ELECT VDW BOUNDARY MISC KINETIC TOTAL TEMP POTENTIAL TOTALAVG TEMPAVG PRESSURE GPRESSURE VOLUME PRESSAVG GPRESSAVG
ENERGY: 0 3.0884 6.7459 3.6554 0.0000 -10585.6504 1420.2068 0.0000 0.0000 1737.0281 -7414.9259 299.3023 -9151.9540 -7414.9259 299.3023 -343.2393 -272.0387 30214.9031 -343.2393 -272.0387
ENERGY: 300000 1.0277 6.4146 3.0162 0.0000 -10626.2152 1464.4489 0.0000 0.0000 1734.0661 -7417.2417 298.7919 -9151.3078 -7383.5142 299.8550 266.9114 326.6927 29829.7237 134.3825 194.5355
ENERGY: 600000 1.3748 6.8213 2.5293 0.0000 -10484.4873 1369.9177 0.0000 0.0000 1712.0719 -7391.7722 295.0021 -9103.8441 -7378.4446 298.7299 -492.4335 -451.3702 29967.6053 -76.1344 -5.4868
ENERGY: 900000 2.2018 4.4857 3.7992 0.0000 -10422.8447 1329.9791 0.0000 0.0000 1731.8071 -7350.5718 298.4027 -9082.3789 -7371.4514 300.4349 -770.2112 -710.6765 29911.5454 -234.0570 -160.8719
ENERGY: 1200000 2.8472 5.0232 3.4719 0.0000 -10579.8823 1477.9632 0.0000 0.0000 1753.7777 -7336.7991 302.1883 -9090.5768 -7368.6102 300.7440 796.7535 858.8638 29107.8832 -153.9669 -81.7044
ENERGY: 1500000 4.1661 5.3579 2.2860 0.0000 -10361.3940 1399.9355 0.0000 0.0000 1848.1056 -7101.5428 318.4417 -8949.6485 -7351.5738 301.8835 343.9339 329.8528 29989.9585 -118.3633 -49.0090
TCL: Running FEP window   2: Lambda1 0.05   Lambda2 0.1    [dLambda 0.05  ]
TCL: Setting parameter firsttimestep to 0
TCL: Setting parameter alchLambda to 0.05
Info: NONBONDED TABLE R-SQUARED SPACING: 0.0625
Info: NONBONDED TABLE SIZE: 705 POINTS
TCL: Setting parameter alchLambda2 to 0.1
Info: NONBONDED TABLE R-SQUARED SPACING: 0.0625
Info: NONBONDED TABLE SIZE: 705 POINTS
TCL: Running for 1500000 steps
ETITLE: TS BOND ANGLE DIHED IMPRP ELECT VDW BOUNDARY MISC KINETIC TOTAL TEMP POTENTIAL TOTALAVG TEMPAVG PRESSURE GPRESSURE VOLUME PRESSAVG GPRESSAVG
ENERGY: 0 4.1661 5.3579 2.2860 0.0000 -10361.3941 1403.7111 0.0000 0.0000 1847.2259 -7098.6470 318.2901 -8945.8730 -7098.6470 318.2901 253.3555 336.9830 29989.9585 253.3555 336.9830
ENERGY: 300000 1.5715 6.1432 3.8331 0.0000 -10595.3263 1432.8775 0.0000 0.0000 1702.2880 -7448.6130 293.3163 -9150.9010 -7332.6044 302.8290 -190.3949 -109.7843 30090.6545 113.6774 185.2889
ENERGY: 600000 6.1916 9.9831 2.7058 0.0000 -10375.1442 1334.0835 0.0000 0.0000 1763.0561 -7259.1243 303.7871 -9022.1804 -7322.7891 305.3276 -563.4228 -524.7524 30019.6406 -7.1159 69.3021
ENERGY: 900000 3.4403 6.2979 1.6728 0.0000 -10573.1781 1412.3451 0.0000 0.0000 1739.3744 -7410.0475 299.7066 -9149.4219 -7335.4460 303.5176 -294.8454 -277.8998 29699.6089 46.9458 107.3216
ENERGY: 1200000 2.6362 7.0332 6.1099 0.0000 -10619.5791 1391.2652 0.0000 0.0000 1713.6539 -7498.8807 295.2747 -9212.5346 -7364.9282 302.1014 -479.1353 -424.7256 29484.7043 -6.2786 49.4914
ENERGY: 1500000 3.0582 6.9967 4.4247 0.0000 -10468.8688 1320.0982 0.0000 0.0000 1763.5071 -7370.7840 303.8648 -9134.2911 -7373.7709 302.1185 -816.7332 -780.9589 29823.9277 -26.5012 27.0279
TCL: Running FEP window   3: Lambda1 0.1    Lambda2 0.15000000000000002 [dLambda 0.05000000000000002]
TCL: Setting parameter firsttimestep to 0
TCL: Setting parameter alchLambda to 0.1
Info: NONBONDED TABLE R-SQUARED SPACING: 0.0625
Info: NONBONDED TABLE SIZE: 705 POINTS
TCL: Setting parameter alchLambda2 to 0.15000000000000002
Info: NONBONDED TABLE R-SQUARED SPACING: 0.0625
Info: NONBONDED TABLE SIZE: 705 POINTS
TCL: Running for 1500000 steps
ETITLE: TS BOND ANGLE DIHED IMPRP ELECT VDW BOUNDARY MISC KINETIC TOTAL TEMP POTENTIAL TOTALAVG TEMPAVG PRESSURE GPRESSURE VOLUME PRESSAVG GPRESSAVG
ENERGY: 0 3.0582 6.9967 4.4247 0.0000 -10468.8679 1320.5950 0.0000 0.0000 1762.6186 -7371.1747 303.7117 -9133.7933 -7371.1747 303.7117 -874.3269 -776.0255 29823.9277 -874.3269 -776.0255
ENERGY: 300000 2.9572 9.6955 3.1028 0.0000 -10634.2945 1466.9174 0.0000 0.0000 1703.7796 -7447.8421 293.5733 -9151.6217 -7397.8110 300.8692 200.3965 247.0153 29865.1260 -186.0832 -105.1187
ENERGY: 600000 2.9093 5.3448 0.7975 0.0000 -10440.6567 1347.2180 0.0000 0.0000 1703.1467 -7381.2403 293.4643 -9084.3870 -7399.5169 300.0153 -648.9856 -564.4413 30116.8950 -29.7598 48.2343
ENERGY: 900000 3.4761 6.5101 1.5948 0.0000 -10596.1622 1409.3760 0.0000 0.0000 1734.4504 -7440.7548 298.8581 -9175.2052 -7393.2375 299.2268 -172.3735 -159.8343 29981.8915 -67.1438 0.6092
ENERGY: 1200000 7.5175 7.4250 2.7191 0.0000 -10563.8180 1430.6636 0.0000 0.0000 1800.5559 -7314.9369 310.2486 -9115.4927 -7382.1349 300.6222 -211.7302 -168.2505 29929.5291 -119.8662 -48.2835
ENERGY: 1500000 3.3057 6.4332 4.7492 0.0000 -10690.6222 1458.7838 0.0000 0.0000 1746.8360 -7470.5143 300.9923 -9217.3503 -7378.3017 301.4307 -112.3475 1.0230 29705.1916 -25.4442 47.7194
TCL: Running FEP window   4: Lambda1 0.15000000000000002 Lambda2 0.2    [dLambda 0.04999999999999999]
TCL: Setting parameter firsttimestep to 0
TCL: Setting parameter alchLambda to 0.15000000000000002
Info: NONBONDED TABLE R-SQUARED SPACING: 0.0625
Info: NONBONDED TABLE SIZE: 705 POINTS
TCL: Setting parameter alchLambda2 to 0.2
Info: NONBONDED TABLE R-SQUARED SPACING: 0.0625
Info: NONBONDED TABLE SIZE: 705 POINTS
TCL: Running for 1500000 steps
ETITLE: TS BOND ANGLE DIHED IMPRP ELECT VDW BOUNDARY MISC KINETIC TOTAL TEMP POTENTIAL TOTALAVG TEMPAVG PRESSURE GPRESSURE VOLUME PRESSAVG GPRESSAVG
ENERGY: 0 3.3057 6.4331 4.7492 0.0000 -10690.6216 1459.8520 0.0000 0.0000 1746.0043 -7470.2772 300.8489 -9216.2816 -7470.2772 300.8489 -75.7344 9.4147 29705.1916 -75.7344 9.4147
ENERGY: 300000 3.7628 13.2610 3.4909 0.0000 -10586.2432 1404.0463 0.0000 0.0000 1737.9156 -7423.7666 299.4552 -9161.6822 -7414.1014 302.8699 43.5993 130.6890 29341.3246 -49.6172 29.1925
ENERGY: 600000 3.6178 10.2150 4.2956 0.0000 -10715.3265 1593.9477 0.0000 0.0000 1711.6442 -7391.6062 294.9285 -9103.2504 -7410.4440 300.0551 1723.0678 1797.4977 29095.4755 269.9778 335.8164
ENERGY: 900000 2.2053 9.2022 4.0661 0.0000 -10616.3825 1447.9088 0.0000 0.0000 1752.5922 -7400.4080 301.9841 -9153.0001 -7405.7315 300.0331 533.8296 545.0608 29226.6516 345.3240 410.1944
ENERGY: 1200000 0.6634 8.4429 2.3344 0.0000 -10583.2973 1478.4670 0.0000 0.0000 1715.9253 -7377.4643 295.6661 -9093.3896 -7396.5453 300.0382 474.6735 540.9580 29815.4153 245.4926 312.5109
ENERGY: 1500000 2.0846 6.5721 4.0144 0.0000 -10488.0742 1390.2770 0.0000 0.0000 1753.1223 -7332.0037 302.0754 -9085.1261 -7383.8243 300.5706 -267.7309 -262.4303 29919.0343 173.6257 239.3201
TCL: Running FEP window   5: Lambda1 0.2    Lambda2 0.25   [dLambda 0.04999999999999999]
TCL: Setting parameter firsttimestep to 0
TCL: Setting parameter alchLambda to 0.2
Info: NONBONDED TABLE R-SQUARED SPACING: 0.0625
Info: NONBONDED TABLE SIZE: 705 POINTS
TCL: Setting parameter alchLambda2 to 0.25
Info: NONBONDED TABLE R-SQUARED SPACING: 0.0625
Info: NONBONDED TABLE SIZE: 705 POINTS
TCL: Running for 1500000 steps
ETITLE: TS BOND ANGLE DIHED IMPRP ELECT VDW BOUNDARY MISC KINETIC TOTAL TEMP POTENTIAL TOTALAVG TEMPAVG PRESSURE GPRESSURE VOLUME PRESSAVG GPRESSAVG
ENERGY: 0 2.0846 6.5721 4.0144 0.0000 -10488.0754 1391.4303 0.0000 0.0000 1752.2548 -7331.7191 301.9259 -9083.9739 -7331.7191 301.9259 -339.8864 -255.6404 29919.0343 -339.8864 -255.6404
ENERGY: 300000 2.5595 4.6686 2.0845 0.0000 -10509.2343 1395.0247 0.0000 0.0000 1737.5684 -7367.3287 299.3954 -9104.8970 -7352.9181 298.3666 -34.2042 20.1311 29803.3097 -118.6851 -69.7603
ENERGY: 600000 1.6384 4.8462 4.3743 0.0000 -10548.0494 1425.9443 0.0000 0.0000 1696.5553 -7414.6909 292.3285 -9111.2462 -7391.5637 296.5624 34.8456 64.0366 30047.7794 108.1314 146.4685
ENERGY: 900000 4.2568 6.2448 2.0512 0.0000 -10653.9791 1496.2522 0.0000 0.0000 1765.2816 -7379.8925 304.1706 -9145.1741 -7388.6722 298.2576 751.6506 758.8702 29543.7300 187.6564 225.0147
ENERGY: 1200000 2.6408 6.9554 3.1327 0.0000 -10671.0593 1500.9901 0.0000 0.0000 1716.3999 -7440.9403 295.7479 -9157.3402 -7386.5590 298.4941 457.2510 580.1286 29656.6878 132.9405 172.7865
ENERGY: 1500000 2.2665 4.9581 1.5281 0.0000 -10558.4675 1427.9314 0.0000 0.0000 1764.1013 -7357.6821 303.9672 -9121.7834 -7383.5989 298.3980 -139.2578 -84.4645 30021.1488 77.8177 127.9819
TCL: Running FEP window   6: Lambda1 0.25   Lambda2 0.3    [dLambda 0.04999999999999999]
TCL: Setting parameter firsttimestep to 0
TCL: Setting parameter alchLambda to 0.25
Info: NONBONDED TABLE R-SQUARED SPACING: 0.0625
Info: NONBONDED TABLE SIZE: 705 POINTS
TCL: Setting parameter alchLambda2 to 0.3
Info: NONBONDED TABLE R-SQUARED SPACING: 0.0625
Info: NONBONDED TABLE SIZE: 705 POINTS
TCL: Running for 1500000 steps
ETITLE: TS BOND ANGLE DIHED IMPRP ELECT VDW BOUNDARY MISC KINETIC TOTAL TEMP POTENTIAL TOTALAVG TEMPAVG PRESSURE GPRESSURE VOLUME PRESSAVG GPRESSAVG
ENERGY: 0 2.2665 4.9581 1.5281 0.0000 -10558.4675 1427.5040 0.0000 0.0000 1763.2391 -7358.9718 303.8186 -9122.2109 -7358.9718 303.8186 -162.2058 -79.7645 30021.1488 -162.2058 -79.7645
ENERGY: 300000 3.7600 5.1892 2.7131 0.0000 -10661.2829 1478.9785 0.0000 0.0000 1715.7188 -7454.9233 295.6305 -9170.6421 -7430.1657 297.4961 152.4248 195.0381 29822.0121 -315.8564 -243.2459
ENERGY: 600000 4.2433 7.0270 2.9345 0.0000 -10606.6070 1399.9675 0.0000 0.0000 1771.7896 -7420.6451 305.2919 -9192.4347 -7422.7384 299.0618 34.1422 103.5182 29322.2581 -240.1233 -175.9120
ENERGY: 900000 1.9792 6.0446 2.0216 0.0000 -10636.5899 1448.6066 0.0000 0.0000 1772.0362 -7405.9018 305.3344 -9177.9379 -7417.9961 299.7305 314.4938 370.7316 29602.3068 -263.8128 -199.5878
ENERGY: 1200000 1.3557 5.4438 3.6155 0.0000 -10462.1619 1361.0432 0.0000 0.0000 1823.5017 -7267.2019 314.2023 -9090.7036 -7409.8167 300.6252 -514.6729 -452.7293 30426.3297 -229.8957 -157.7142
ENERGY: 1500000 2.0073 7.9810 1.1553 0.0000 -10467.1843 1378.0701 0.0000 0.0000 1713.8332 -7364.1374 295.3056 -9077.9706 -7404.3393 300.2254 -147.3419 -179.4745 29969.9995 -227.1400 -164.7621
TCL: Running FEP window   7: Lambda1 0.3    Lambda2 0.35   [dLambda 0.04999999999999999]
TCL: Setting parameter firsttimestep to 0
TCL: Setting parameter alchLambda to 0.3
Info: NONBONDED TABLE R-SQUARED SPACING: 0.0625
Info: NONBONDED TABLE SIZE: 705 POINTS
TCL: Setting parameter alchLambda2 to 0.35
Info: NONBONDED TABLE R-SQUARED SPACING: 0.0625
Info: NONBONDED TABLE SIZE: 705 POINTS
TCL: Running for 1500000 steps
ETITLE: TS BOND ANGLE DIHED IMPRP ELECT VDW BOUNDARY MISC KINETIC TOTAL TEMP POTENTIAL TOTALAVG TEMPAVG PRESSURE GPRESSURE VOLUME PRESSAVG GPRESSAVG
ENERGY: 0 2.0073 7.9810 1.1553 0.0000 -10467.1812 1377.9390 0.0000 0.0000 1712.9838 -7365.1149 295.1593 -9078.0987 -7365.1149 295.1593 -251.9839 -175.8264 29969.9995 -251.9839 -175.8264
ENERGY: 300000 2.2039 6.3870 4.2386 0.0000 -10383.0366 1380.2137 0.0000 0.0000 1725.5813 -7264.4123 297.3299 -8989.9935 -7356.9629 298.3908 150.4686 164.4080 30009.8188 -340.0963 -282.7008
ENERGY: 600000 3.0720 6.2084 6.3972 0.0000 -10618.6524 1462.0813 0.0000 0.0000 1766.1802 -7374.7133 304.3254 -9140.8935 -7356.0772 299.2907 430.6553 497.2875 29574.4168 -62.8847 -16.5109
ENERGY: 900000 3.4701 8.1638 1.6393 0.0000 -10547.0970 1404.6063 0.0000 0.0000 1734.1845 -7395.0331 298.8123 -9129.2176 -7360.1653 300.4020 -198.0920 -153.4161 29803.7941 -18.4650 38.6817
ENERGY: 1200000 2.5097 5.1932 3.4681 0.0000 -10468.0345 1385.8535 0.0000 0.0000 1756.2716 -7314.7384 302.6181 -9071.0100 -7352.3422 300.6132 -386.0631 -403.3283 30297.5709 -120.5829 -68.6039
ENERGY: 1500000 1.8402 5.3816 5.2671 0.0000 -10307.0187 1274.0912 0.0000 0.0000 1717.7262 -7302.7124 295.9764 -9020.4386 -7353.0485 300.2916 -1257.6535 -1182.7244 30657.2749 -276.7386 -210.8258
TCL: Running FEP window   8: Lambda1 0.35   Lambda2 0.39999999999999997 [dLambda 0.04999999999999999]
TCL: Setting parameter firsttimestep to 0
TCL: Setting parameter alchLambda to 0.35
Info: NONBONDED TABLE R-SQUARED SPACING: 0.0625
Info: NONBONDED TABLE SIZE: 705 POINTS
TCL: Setting parameter alchLambda2 to 0.39999999999999997
Info: NONBONDED TABLE R-SQUARED SPACING: 0.0625
Info: NONBONDED TABLE SIZE: 705 POINTS
TCL: Running for 1500000 steps
ETITLE: TS BOND ANGLE DIHED IMPRP ELECT VDW BOUNDARY MISC KINETIC TOTAL TEMP POTENTIAL TOTALAVG TEMPAVG PRESSURE GPRESSURE VOLUME PRESSAVG GPRESSAVG
ENERGY: 0 1.8402 5.3816 5.2671 0.0000 -10307.0181 1274.3949 0.0000 0.0000 1716.8764 -7303.2579 295.8300 -9020.1343 -7303.2579 295.8300 -1250.8437 -1174.6550 30657.2749 -1250.8437 -1174.6550
ENERGY: 300000 2.7688 7.4308 1.6313 0.0000 -10550.2937 1387.8302 0.0000 0.0000 1764.5960 -7386.0367 304.0524 -9150.6326 -7321.3096 302.5495 -302.9675 -207.4439 29810.1175 -249.9244 -165.4659
ENERGY: 600000 2.3425 8.1176 3.0124 0.0000 -10547.6861 1391.9972 0.0000 0.0000 1783.7768 -7358.4397 307.3574 -9142.2165 -7315.3154 304.2224 -427.8836 -346.2764 30015.7389 -155.8742 -79.0468
ENERGY: 900000 4.4631 7.8687 4.9973 0.0000 -10495.8447 1389.5057 0.0000 0.0000 1745.8106 -7343.1992 300.8156 -9089.0098 -7338.7178 301.9472 -372.3235 -292.5331 30379.1863 -87.0012 -9.0020
ENERGY: 1200000 3.2709 4.8586 5.3863 0.0000 -10473.4721 1420.9542 0.0000 0.0000 1738.2907 -7300.7114 299.5198 -9039.0020 -7336.8404 301.7794 258.5394 332.7171 30256.8946 -29.2799 45.3754
ENERGY: 1500000 1.1416 6.0649 2.7639 0.0000 -10529.0925 1402.0520 0.0000 0.0000 1777.6787 -7339.3914 306.3067 -9117.0701 -7341.5519 301.2984 -177.9307 -138.4137 30114.6035 -25.9386 50.4832
TCL: Running FEP window   9: Lambda1 0.39999999999999997 Lambda2 0.44999999999999996 [dLambda 0.04999999999999999]
TCL: Setting parameter firsttimestep to 0
TCL: Setting parameter alchLambda to 0.39999999999999997
Info: NONBONDED TABLE R-SQUARED SPACING: 0.0625
Info: NONBONDED TABLE SIZE: 705 POINTS
TCL: Setting parameter alchLambda2 to 0.44999999999999996
Info: NONBONDED TABLE R-SQUARED SPACING: 0.0625
Info: NONBONDED TABLE SIZE: 705 POINTS
TCL: Running for 1500000 steps
ETITLE: TS BOND ANGLE DIHED IMPRP ELECT VDW BOUNDARY MISC KINETIC TOTAL TEMP POTENTIAL TOTALAVG TEMPAVG PRESSURE GPRESSURE VOLUME PRESSAVG GPRESSAVG
ENERGY: 0 1.1416 6.0649 2.7639 0.0000 -10529.0927 1402.2200 0.0000 0.0000 1776.8313 -7340.0710 306.1606 -9116.9023 -7340.0710 306.1606 -222.3483 -132.2653 30114.6035 -222.3483 -132.2653
ENERGY: 300000 1.8127 8.0287 1.8932 0.0000 -10595.0359 1471.5812 0.0000 0.0000 1714.1661 -7397.5540 295.3630 -9111.7201 -7348.5376 303.0044 327.7982 334.9730 29999.4843 -23.1592 30.9676
ENERGY: 600000 2.7843 5.2488 3.4010 0.0000 -10497.1574 1402.5794 0.0000 0.0000 1713.4244 -7369.7195 295.2352 -9083.1439 -7360.5093 301.0666 -113.1230 25.4223 29771.7293 28.5077 85.7547
ENERGY: 900000 3.6629 9.0435 4.9575 0.0000 -10608.5100 1448.6981 0.0000 0.0000 1736.6133 -7405.5348 299.2308 -9142.1481 -7388.7209 299.3661 238.9403 252.4078 29877.6802 85.6143 128.1729
ENERGY: 1200000 2.4206 8.3041 3.3877 0.0000 -10473.0091 1411.8790 0.0000 0.0000 1740.2431 -7306.7748 299.8562 -9047.0178 -7386.6350 298.4994 -88.9596 -18.3545 30230.4200 93.5155 142.7393
ENERGY: 1500000 2.6989 6.7592 4.0393 0.0000 -10498.1475 1480.9945 0.0000 0.0000 1705.8091 -7297.8465 293.9230 -9003.6556 -7371.6460 299.0999 450.7307 514.6192 30125.2380 80.8698 137.0820
TCL: Running FEP window  10: Lambda1 0.44999999999999996 Lambda2 0.49999999999999994 [dLambda 0.04999999999999999]
TCL: Setting parameter firsttimestep to 0
TCL: Setting parameter alchLambda to 0.44999999999999996
Info: NONBONDED TABLE R-SQUARED SPACING: 0.0625
Info: NONBONDED TABLE SIZE: 705 POINTS
TCL: Setting parameter alchLambda2 to 0.49999999999999994
Info: NONBONDED TABLE R-SQUARED SPACING: 0.0625
Info: NONBONDED TABLE SIZE: 705 POINTS
TCL: Running for 1500000 steps
ETITLE: TS BOND ANGLE DIHED IMPRP ELECT VDW BOUNDARY MISC KINETIC TOTAL TEMP POTENTIAL TOTALAVG TEMPAVG PRESSURE GPRESSURE VOLUME PRESSAVG GPRESSAVG
ENERGY: 0 2.6989 6.7592 4.0393 0.0000 -10498.1476 1480.5320 0.0000 0.0000 1704.9515 -7299.1667 293.7753 -9004.1183 -7299.1667 293.7753 431.0688 518.1859 30125.2380 431.0688 518.1859
ENERGY: 300000 1.6692 6.8207 1.2559 0.0000 -10465.7070 1354.0434 0.0000 0.0000 1741.4210 -7360.4968 300.0592 -9101.9178 -7340.4820 298.5636 -512.9359 -424.0847 30003.4076 29.2442 101.2957
ENERGY: 600000 1.7732 4.6849 1.5991 0.0000 -10537.8698 1425.2769 0.0000 0.0000 1741.6225 -7362.9132 300.0939 -9104.5357 -7339.9414 301.0465 176.0603 248.6564 29656.0375 161.6860 233.1978
ENERGY: 900000 4.5081 9.5353 5.8550 0.0000 -10442.4405 1342.3165 0.0000 0.0000 1716.0754 -7364.1502 295.6920 -9080.2256 -7360.2290 300.5898 -754.0310 -747.8284 30016.2402 -2.4657 58.7485
ENERGY: 1200000 3.4400 8.2031 4.1513 0.0000 -10565.6594 1446.7077 0.0000 0.0000 1713.0028 -7390.1544 295.1625 -9103.1572 -7364.5834 300.9484 242.7733 253.1520 29899.4360 34.3741 92.4769
ENERGY: 1500000 1.6047 6.5659 3.3721 0.0000 -10618.3603 1421.8686 0.0000 0.0000 1730.5315 -7454.4174 298.1829 -9184.9489 -7374.1307 300.2635 58.5950 133.0196 29469.9907 14.0554 73.9153
TCL: Running FEP window  11: Lambda1 0.49999999999999994 Lambda2 0.5499999999999999 [dLambda 0.04999999999999999]
TCL: Setting parameter firsttimestep to 0
TCL: Setting parameter alchLambda to 0.49999999999999994
Info: NONBONDED TABLE R-SQUARED SPACING: 0.0625
Info: NONBONDED TABLE SIZE: 705 POINTS
TCL: Setting parameter alchLambda2 to 0.5499999999999999
Info: NONBONDED TABLE R-SQUARED SPACING: 0.0625
Info: NONBONDED TABLE SIZE: 705 POINTS
TCL: Running for 1500000 steps
ETITLE: TS BOND ANGLE DIHED IMPRP ELECT VDW BOUNDARY MISC KINETIC TOTAL TEMP POTENTIAL TOTALAVG TEMPAVG PRESSURE GPRESSURE VOLUME PRESSAVG GPRESSAVG
ENERGY: 0 1.6047 6.5659 3.3721 0.0000 -10618.3606 1422.8938 0.0000 0.0000 1729.6763 -7454.2478 298.0355 -9183.9240 -7454.2478 298.0355 87.7174 151.0864 29469.9907 87.7174 151.0864
ENERGY: 300000 4.1805 6.3752 2.3352 0.0000 -10471.6235 1359.3342 0.0000 0.0000 1770.2918 -7329.1065 305.0339 -9099.3984 -7379.3611 301.5543 -719.1140 -628.6383 30177.3579 -540.1068 -447.2108
ENERGY: 600000 6.5770 10.5164 4.6948 0.0000 -10531.7586 1388.9689 0.0000 0.0000 1780.2216 -7340.7799 306.7448 -9121.0015 -7365.4515 300.8624 -482.5569 -395.8962 30196.5075 -547.0241 -469.5911
ENERGY: 900000 3.7104 6.7179 5.7077 0.0000 -10607.4027 1465.2649 0.0000 0.0000 1743.5544 -7382.4473 300.4268 -9126.0017 -7373.7692 301.1577 340.0605 295.2083 29816.2830 -306.5087 -245.5187
ENERGY: 1200000 2.0329 13.8130 3.3559 0.0000 -10533.4435 1458.9490 0.0000 0.0000 1745.4018 -7309.8908 300.7451 -9055.2926 -7368.1644 300.2618 463.3859 575.4662 29886.8125 -289.4742 -221.3730
ENERGY: 1500000 2.6241 3.2825 5.4095 0.0000 -10473.1538 1367.5683 0.0000 0.0000 1732.1359 -7362.1336 298.4593 -9094.2694 -7367.8964 300.1936 -299.7098 -183.7433 30252.9919 -299.6647 -228.3414
TCL: Running FEP window  12: Lambda1 0.5499999999999999 Lambda2 0.6    [dLambda 0.050000000000000044]
TCL: Setting parameter firsttimestep to 0
TCL: Setting parameter alchLambda to 0.5499999999999999
Info: NONBONDED TABLE R-SQUARED SPACING: 0.0625
Info: NONBONDED TABLE SIZE: 705 POINTS
TCL: Setting parameter alchLambda2 to 0.6
Info: NONBONDED TABLE R-SQUARED SPACING: 0.0625
Info: NONBONDED TABLE SIZE: 705 POINTS
TCL: Running for 1500000 steps
ETITLE: TS BOND ANGLE DIHED IMPRP ELECT VDW BOUNDARY MISC KINETIC TOTAL TEMP POTENTIAL TOTALAVG TEMPAVG PRESSURE GPRESSURE VOLUME PRESSAVG GPRESSAVG
ENERGY: 0 2.6241 3.2825 5.4095 0.0000 -10473.4291 1367.1083 0.0000 0.0000 1731.2865 -7363.7182 298.3130 -9095.0048 -7363.7182 298.3130 -256.5217 -182.9383 30252.9919 -256.5217 -182.9383
ENERGY: 300000 0.7802 4.3420 1.7359 0.0000 -10643.9615 1471.9396 0.0000 0.0000 1687.5522 -7477.6118 290.7772 -9165.1639 -7384.0015 298.0711 592.1579 639.1003 29320.2496 128.2380 176.5467
ENERGY: 600000 1.0042 4.7633 1.8188 0.0000 -10449.1018 1368.2530 0.0000 0.0000 1725.3694 -7347.8931 297.2934 -9073.2626 -7366.3321 299.7689 -457.4175 -410.6156 30598.0219 66.0638 129.9527
ENERGY: 900000 3.5556 11.4986 3.6947 0.0000 -10623.3529 1507.8882 0.0000 0.0000 1693.3048 -7403.4110 291.7684 -9096.7158 -7378.8200 299.1031 561.9713 599.8230 30108.6116 185.8953 244.2911
ENERGY: 1200000 3.9132 7.6067 5.1708 0.0000 -10690.5408 1455.2901 0.0000 0.0000 1699.8633 -7518.6967 292.8985 -9218.5600 -7373.4315 300.0506 34.2941 93.6571 29642.9546 198.6142 255.9977
ENERGY: 1500000 2.6870 5.2021 1.1099 0.0000 -10504.4356 1436.3163 0.0000 0.0000 1678.8961 -7380.2243 289.2857 -9059.1203 -7366.8705 299.4870 226.5734 262.5851 30109.9292 225.3971 279.1870
TCL: Running FEP window  13: Lambda1 0.6    Lambda2 0.65   [dLambda 0.050000000000000044]
TCL: Setting parameter firsttimestep to 0
TCL: Setting parameter alchLambda to 0.6
Info: NONBONDED TABLE R-SQUARED SPACING: 0.0625
Info: NONBONDED TABLE SIZE: 705 POINTS
TCL: Setting parameter alchLambda2 to 0.65
Info: NONBONDED TABLE R-SQUARED SPACING: 0.0625
Info: NONBONDED TABLE SIZE: 705 POINTS
TCL: Running for 1500000 steps
ETITLE: TS BOND ANGLE DIHED IMPRP ELECT VDW BOUNDARY MISC KINETIC TOTAL TEMP POTENTIAL TOTALAVG TEMPAVG PRESSURE GPRESSURE VOLUME PRESSAVG GPRESSAVG
ENERGY: 0 2.6869 5.2021 1.1099 0.0000 -10504.6036 1437.1738 0.0000 0.0000 1678.0618 -7380.3690 289.1420 -9058.4308 -7380.3690 289.1420 203.4014 276.9839 30109.9292 203.4014 276.9839
ENERGY: 300000 4.4568 8.2892 0.9406 0.0000 -10577.3984 1477.4966 0.0000 0.0000 1779.5891 -7306.6262 306.6358 -9086.2153 -7393.1556 299.6149 358.8476 408.7557 30185.8986 109.9259 161.9072
ENERGY: 600000 1.7033 8.0982 2.7149 0.0000 -10577.8167 1420.2432 0.0000 0.0000 1742.0355 -7403.0217 300.1651 -9145.0572 -7379.8389 299.8056 -24.9209 9.0441 30004.9846 56.9800 95.2846
ENERGY: 900000 3.2757 7.0372 5.0286 0.0000 -10496.8797 1370.7278 0.0000 0.0000 1779.1133 -7331.6971 306.5539 -9110.8103 -7370.8810 300.7913 -410.8986 -433.5657 30246.9226 -19.3092 16.2787
ENERGY: 1200000 3.0993 6.2792 1.2845 0.0000 -10583.9256 1447.1136 0.0000 0.0000 1793.1022 -7333.0468 308.9642 -9126.1490 -7366.9291 300.7514 393.2029 438.2507 29961.0280 47.8223 81.2761
ENERGY: 1500000 2.7565 10.0022 5.0229 0.0000 -10487.0481 1367.8083 0.0000 0.0000 1736.0770 -7365.3812 299.1384 -9101.4582 -7365.3310 300.5610 -405.8855 -354.1239 29979.3629 64.6588 103.4114
TCL: Running FEP window  14: Lambda1 0.65   Lambda2 0.7000000000000001 [dLambda 0.050000000000000044]
TCL: Setting parameter firsttimestep to 0
TCL: Setting parameter alchLambda to 0.65
Info: NONBONDED TABLE R-SQUARED SPACING: 0.0625
Info: NONBONDED TABLE SIZE: 705 POINTS
TCL: Setting parameter alchLambda2 to 0.7000000000000001
Info: NONBONDED TABLE R-SQUARED SPACING: 0.0625
Info: NONBONDED TABLE SIZE: 705 POINTS
TCL: Running for 1500000 steps
ETITLE: TS BOND ANGLE DIHED IMPRP ELECT VDW BOUNDARY MISC KINETIC TOTAL TEMP POTENTIAL TOTALAVG TEMPAVG PRESSURE GPRESSURE VOLUME PRESSAVG GPRESSAVG
ENERGY: 0 2.7565 10.0022 5.0229 0.0000 -10487.4708 1367.6296 0.0000 0.0000 1735.1740 -7366.8855 298.9828 -9102.0595 -7366.8855 298.9828 -433.0707 -348.5461 29979.3629 -433.0707 -348.5461
ENERGY: 300000 1.5446 6.5732 2.4512 0.0000 -10451.0540 1398.9720 0.0000 0.0000 1750.1958 -7291.3172 301.5712 -9041.5130 -7315.8006 303.8154 31.2065 123.7791 30081.3065 -17.4026 44.8562
ENERGY: 600000 4.3246 9.5580 1.3152 0.0000 -10503.2754 1383.7575 0.0000 0.0000 1723.9833 -7380.3369 297.0546 -9104.3202 -7329.8345 302.5816 -244.1176 -290.4790 30134.1573 -50.1279 -11.3463
ENERGY: 900000 1.8697 8.8033 3.1679 0.0000 -10620.2110 1507.3634 0.0000 0.0000 1712.4725 -7386.5343 295.0712 -9099.0068 -7328.2942 300.7220 863.0883 926.1265 29952.2790 25.4709 73.8493
ENERGY: 1200000 2.9030 7.1810 2.3767 0.0000 -10562.4648 1396.1792 0.0000 0.0000 1716.5023 -7437.3225 295.7655 -9153.8249 -7343.0559 300.3994 -142.3853 -58.0532 29346.5457 -26.9139 27.1624
ENERGY: 1500000 2.1268 6.1699 1.7368 0.0000 -10598.8835 1428.8590 0.0000 0.0000 1747.7850 -7412.2060 301.1558 -9159.9910 -7349.0851 300.9946 -160.1124 -17.9194 29815.0657 74.7287 131.1021
TCL: Running FEP window  15: Lambda1 0.7000000000000001 Lambda2 0.7500000000000001 [dLambda 0.050000000000000044]
TCL: Setting parameter firsttimestep to 0
TCL: Setting parameter alchLambda to 0.7000000000000001
Info: NONBONDED TABLE R-SQUARED SPACING: 0.0625
Info: NONBONDED TABLE SIZE: 705 POINTS
TCL: Setting parameter alchLambda2 to 0.7500000000000001
Info: NONBONDED TABLE R-SQUARED SPACING: 0.0625
Info: NONBONDED TABLE SIZE: 705 POINTS
TCL: Running for 1500000 steps
ETITLE: TS BOND ANGLE DIHED IMPRP ELECT VDW BOUNDARY MISC KINETIC TOTAL TEMP POTENTIAL TOTALAVG TEMPAVG PRESSURE GPRESSURE VOLUME PRESSAVG GPRESSAVG
ENERGY: 0 2.1268 6.1699 1.7368 0.0000 -10599.6724 1428.5472 0.0000 0.0000 1746.9184 -7414.1733 301.0064 -9161.0917 -7414.1733 301.0064 -103.3364 -15.1477 29815.0657 -103.3364 -15.1477
ENERGY: 300000 1.3785 7.8373 1.8093 0.0000 -10614.5185 1405.1196 0.0000 0.0000 1749.8461 -7448.5278 301.5109 -9198.3738 -7385.6528 301.8097 -451.5480 -411.4180 30250.4950 -274.8359 -206.4131
ENERGY: 600000 3.1784 6.9936 2.2454 0.0000 -10643.9779 1505.9934 0.0000 0.0000 1733.0876 -7392.4795 298.6233 -9125.5671 -7395.0897 302.6282 674.1921 753.0140 29960.2810 -2.2037 63.3764
ENERGY: 900000 3.6888 9.2531 1.0349 0.0000 -10544.0656 1449.6069 0.0000 0.0000 1723.1348 -7357.3471 296.9084 -9080.4819 -7389.5399 301.6750 344.8375 427.7699 29783.0380 6.5825 72.9690
ENERGY: 1200000 3.7576 4.4463 6.4982 0.0000 -10537.7769 1371.6652 0.0000 0.0000 1719.4932 -7431.9164 296.2809 -9151.4096 -7382.0145 301.1746 -521.5108 -494.3114 29819.3261 -41.3171 24.0423
ENERGY: 1500000 3.2892 9.2312 3.3082 0.0000 -10478.2647 1406.9819 0.0000 0.0000 1766.9946 -7288.4596 304.4657 -9055.4542 -7383.3883 300.7586 340.2213 410.0083 29563.7336 -9.1264 50.6490
TCL: Running FEP window  16: Lambda1 0.7500000000000001 Lambda2 0.8000000000000002 [dLambda 0.050000000000000044]
TCL: Setting parameter firsttimestep to 0
TCL: Setting parameter alchLambda to 0.7500000000000001
Info: NONBONDED TABLE R-SQUARED SPACING: 0.0625
Info: NONBONDED TABLE SIZE: 705 POINTS
TCL: Setting parameter alchLambda2 to 0.8000000000000002
Info: NONBONDED TABLE R-SQUARED SPACING: 0.0625
Info: NONBONDED TABLE SIZE: 705 POINTS
TCL: Running for 1500000 steps
ETITLE: TS BOND ANGLE DIHED IMPRP ELECT VDW BOUNDARY MISC KINETIC TOTAL TEMP POTENTIAL TOTALAVG TEMPAVG PRESSURE GPRESSURE VOLUME PRESSAVG GPRESSAVG
ENERGY: 0 3.2892 9.2312 3.3082 0.0000 -10478.6188 1407.3380 0.0000 0.0000 1766.1675 -7289.2847 304.3232 -9055.4522 -7289.2847 304.3232 339.1770 427.3150 29563.7336 339.1770 427.3150
ENERGY: 300000 3.3169 7.1018 4.3946 0.0000 -10438.2751 1375.9352 0.0000 0.0000 1715.4585 -7332.0681 295.5857 -9047.5266 -7342.9924 298.5633 -118.8787 -14.4720 29875.6807 174.6211 261.2246
ENERGY: 600000 2.7905 8.3104 2.6208 0.0000 -10518.0191 1351.1098 0.0000 0.0000 1767.4577 -7385.7299 304.5455 -9153.1876 -7342.9484 301.0316 -765.9552 -746.2673 30210.5984 127.3937 201.7766
ENERGY: 900000 3.3905 6.3461 3.5301 0.0000 -10550.2581 1411.9805 0.0000 0.0000 1674.4922 -7450.5186 288.5269 -9125.0108 -7370.2951 298.7349 -222.9506 -175.3559 30128.0420 71.1656 141.1805
ENERGY: 1200000 5.2557 8.9487 1.8486 0.0000 -10469.7658 1350.8489 0.0000 0.0000 1802.4120 -7300.4521 310.5684 -9102.8640 -7366.1172 300.0974 -621.3070 -455.5405 30242.4013 -66.0923 10.2506
ENERGY: 1500000 2.2386 11.0706 7.5577 0.0000 -10572.8172 1409.0847 0.0000 0.0000 1755.1134 -7387.7522 302.4185 -9142.8656 -7366.5852 300.3793 -292.1359 -247.6920 30076.8423 -108.9379 -37.4873
TCL: Running FEP window  17: Lambda1 0.8000000000000002 Lambda2 0.8500000000000002 [dLambda 0.050000000000000044]
TCL: Setting parameter firsttimestep to 0
TCL: Setting parameter alchLambda to 0.8000000000000002
Info: NONBONDED TABLE R-SQUARED SPACING: 0.0625
Info: NONBONDED TABLE SIZE: 705 POINTS
TCL: Setting parameter alchLambda2 to 0.8500000000000002
Info: NONBONDED TABLE R-SQUARED SPACING: 0.0625
Info: NONBONDED TABLE SIZE: 705 POINTS
TCL: Running for 1500000 steps
ETITLE: TS BOND ANGLE DIHED IMPRP ELECT VDW BOUNDARY MISC KINETIC TOTAL TEMP POTENTIAL TOTALAVG TEMPAVG PRESSURE GPRESSURE VOLUME PRESSAVG GPRESSAVG
ENERGY: 0 2.2386 11.0706 7.5577 0.0000 -10573.4502 1410.1665 0.0000 0.0000 1754.2226 -7388.1942 302.2650 -9142.4168 -7388.1942 302.2650 -313.2569 -224.2315 30076.8423 -313.2569 -224.2315
ENERGY: 300000 3.0664 6.5768 5.1830 0.0000 -10369.4418 1315.1504 0.0000 0.0000 1781.5784 -7257.8867 306.9786 -9039.4652 -7320.4700 304.6544 -717.1131 -746.2658 30601.0664 -530.4169 -500.0125
ENERGY: 600000 3.5033 9.2660 3.6540 0.0000 -10612.0727 1453.2919 0.0000 0.0000 1769.4032 -7372.9543 304.8807 -9142.3575 -7345.2446 304.0402 175.7721 218.3373 29752.6619 -302.4566 -264.6315
ENERGY: 900000 3.5910 5.9844 2.4877 0.0000 -10542.9870 1416.2021 0.0000 0.0000 1672.6023 -7442.1195 288.2013 -9114.7218 -7366.8882 301.3344 -84.0819 -35.0717 29737.0868 -256.3797 -210.5126
ENERGY: 1200000 2.2484 10.8644 2.7354 0.0000 -10446.2575 1390.6500 0.0000 0.0000 1743.0569 -7296.7023 300.3411 -9039.7592 -7364.0467 301.4593 -79.5751 -27.7969 30188.9762 -176.7383 -137.8243
ENERGY: 1500000 5.1275 9.8042 3.5327 0.0000 -10403.5959 1343.5472 0.0000 0.0000 1719.2686 -7322.3157 296.2422 -9041.5843 -7367.1779 300.9988 -629.2676 -617.4472 30423.1521 -196.8737 -149.9583
TCL: Running FEP window  18: Lambda1 0.8500000000000002 Lambda2 0.9000000000000002 [dLambda 0.050000000000000044]
TCL: Setting parameter firsttimestep to 0
TCL: Setting parameter alchLambda to 0.8500000000000002
Info: NONBONDED TABLE R-SQUARED SPACING: 0.0625
Info: NONBONDED TABLE SIZE: 705 POINTS
TCL: Setting parameter alchLambda2 to 0.9000000000000002
Info: NONBONDED TABLE R-SQUARED SPACING: 0.0625
Info: NONBONDED TABLE SIZE: 705 POINTS
TCL: Running for 1500000 steps
ETITLE: TS BOND ANGLE DIHED IMPRP ELECT VDW BOUNDARY MISC KINETIC TOTAL TEMP POTENTIAL TOTALAVG TEMPAVG PRESSURE GPRESSURE VOLUME PRESSAVG GPRESSAVG
ENERGY: 0 5.1274 9.8042 3.5327 0.0000 -10403.6380 1343.1065 0.0000 0.0000 1718.4230 -7323.6441 296.0965 -9042.0672 -7323.6441 296.0965 -688.3706 -610.9312 30423.1521 -688.3706 -610.9312
ENERGY: 300000 3.1114 8.5676 3.9802 0.0000 -10610.5641 1427.9278 0.0000 0.0000 1785.4000 -7381.5772 307.6371 -9166.9772 -7374.1748 301.0390 -294.5195 -159.5816 30032.7147 -147.4119 -74.6801
ENERGY: 600000 7.7257 6.6663 7.9742 0.0000 -10729.7891 1524.3022 0.0000 0.0000 1767.7197 -7415.4010 304.5907 -9183.1207 -7380.8026 301.2637 594.9377 682.9420 29690.2678 157.1808 223.6099
ENERGY: 900000 3.4052 7.6308 4.7431 0.0000 -10606.7919 1430.0491 0.0000 0.0000 1755.1062 -7405.8576 302.4173 -9160.9637 -7373.1785 301.2724 -113.3139 -75.9933 29927.4942 15.5561 80.2952
ENERGY: 1200000 4.9667 5.6399 2.7912 0.0000 -10524.8851 1367.5145 0.0000 0.0000 1719.3496 -7424.6233 296.2561 -9143.9729 -7385.9532 299.3084 -786.7444 -682.1537 29997.2771 -77.7708 -16.4054
ENERGY: 1500000 5.4216 7.7474 1.6521 0.0000 -10657.0589 1470.1082 0.0000 0.0000 1705.2758 -7466.8537 293.8311 -9172.1295 -7384.9871 299.6199 251.9536 303.7774 29785.1098 -28.5628 24.5712
TCL: Running FEP window  19: Lambda1 0.9000000000000002 Lambda2 0.9500000000000003 [dLambda 0.050000000000000044]
TCL: Setting parameter firsttimestep to 0
TCL: Setting parameter alchLambda to 0.9000000000000002
Info: NONBONDED TABLE R-SQUARED SPACING: 0.0625
Info: NONBONDED TABLE SIZE: 705 POINTS
TCL: Setting parameter alchLambda2 to 0.9500000000000003
Info: NONBONDED TABLE R-SQUARED SPACING: 0.0625
Info: NONBONDED TABLE SIZE: 705 POINTS
TCL: Running for 1500000 steps
ETITLE: TS BOND ANGLE DIHED IMPRP ELECT VDW BOUNDARY MISC KINETIC TOTAL TEMP POTENTIAL TOTALAVG TEMPAVG PRESSURE GPRESSURE VOLUME PRESSAVG GPRESSAVG
ENERGY: 0 5.4216 7.7474 1.6521 0.0000 -10657.7777 1469.9791 0.0000 0.0000 1704.4462 -7468.5311 293.6882 -9172.9773 -7468.5311 293.6882 224.8520 312.6040 29785.1098 224.8520 312.6040
ENERGY: 300000 1.8927 10.7823 4.5401 0.0000 -10390.1860 1338.7940 0.0000 0.0000 1761.9536 -7272.2232 303.5971 -9034.1768 -7376.5408 299.7014 -432.5484 -384.0471 30264.7903 35.8600 95.9931
ENERGY: 600000 2.5906 7.4534 3.3994 0.0000 -10671.3809 1477.5056 0.0000 0.0000 1757.1609 -7423.2711 302.7713 -9180.4319 -7368.7006 299.3974 453.7806 395.1912 29823.1647 -97.7741 -58.0649
ENERGY: 900000 2.4999 8.4013 2.4314 0.0000 -10556.9331 1480.9469 0.0000 0.0000 1799.3309 -7263.3227 310.0375 -9062.6536 -7377.1933 299.9426 816.5368 845.6961 29725.9712 64.5596 106.2358
ENERGY: 1200000 2.1892 7.4948 2.9354 0.0000 -10467.1286 1424.1620 0.0000 0.0000 1756.1681 -7274.1791 302.6002 -9030.3472 -7361.7662 301.5613 279.4063 342.4526 30156.6464 -22.2887 27.1443
ENERGY: 1500000 1.3309 7.0995 2.0255 0.0000 -10720.8733 1491.3954 0.0000 0.0000 1697.2009 -7521.8211 292.4398 -9219.0220 -7366.3106 301.0432 114.7470 236.4997 29865.5215 32.2469 89.3453
TCL: Running FEP window  20: Lambda1 0.9500000000000003 Lambda2 1.0    [dLambda 0.04999999999999971]
TCL: Setting parameter firsttimestep to 0
TCL: Setting parameter alchLambda to 0.9500000000000003
Info: NONBONDED TABLE R-SQUARED SPACING: 0.0625
Info: NONBONDED TABLE SIZE: 705 POINTS
TCL: Setting parameter alchLambda2 to 1.0
Info: NONBONDED TABLE R-SQUARED SPACING: 0.0625
Info: NONBONDED TABLE SIZE: 705 POINTS
TCL: Running for 1500000 steps
ETITLE: TS BOND ANGLE DIHED IMPRP ELECT VDW BOUNDARY MISC KINETIC TOTAL TEMP POTENTIAL TOTALAVG TEMPAVG PRESSURE GPRESSURE VOLUME PRESSAVG GPRESSAVG
ENERGY: 0 1.3309 7.0995 2.0255 0.0000 -10721.2523 1492.2981 0.0000 0.0000 1696.2723 -7522.2260 292.2798 -9218.4983 -7522.2260 292.2798 172.3724 265.0380 29865.5215 172.3724 265.0380
ENERGY: 300000 1.0939 9.8500 3.7580 0.0000 -10492.4318 1409.6118 0.0000 0.0000 1723.9227 -7344.1954 297.0441 -9068.1181 -7427.7040 296.7142 -104.0001 13.3311 30050.2231 -170.0371 -98.1840
ENERGY: 600000 7.0633 9.3633 1.8770 0.0000 -10685.3106 1459.2513 0.0000 0.0000 1741.4644 -7466.2913 300.0667 -9207.7556 -7421.9650 296.7652 -73.7490 1.2151 29847.2970 -88.5041 -21.8632
ENERGY: 900000 2.1594 6.1064 2.6619 0.0000 -10482.3371 1395.9059 0.0000 0.0000 1730.3836 -7345.1199 298.1574 -9075.5035 -7397.6289 299.6484 70.4197 144.7529 30047.8108 -59.2679 6.1440
ENERGY: 1200000 2.7105 7.1870 3.1529 0.0000 -10395.8217 1341.8612 0.0000 0.0000 1715.1482 -7325.7619 295.5322 -9040.9101 -7390.3640 298.8422 -446.1617 -389.6546 30240.3745 -115.3498 -55.9304
ENERGY: 1500000 2.8500 5.7144 0.9616 0.0000 -10675.7367 1479.7222 0.0000 0.0000 1737.3512 -7449.1373 299.3580 -9186.4885 -7394.5334 299.1116 115.2808 208.3226 30086.8999 4.5181 65.9260
TCL: Exiting due to exit command.
