Info: SIMULATION PARAMETERS:
Info: TIMESTEP               2
Info: NUMBER OF STEPS        0
Info: STEPS PER CYCLE        10
Info: PERIODIC CELL BASIS 1  30.0685 0 0
Info: PERIODIC CELL BASIS 2  0 30.3002 0
Info: PERIODIC CELL BASIS 3  0 0 32.3547
Info: PERIODIC CELL CENTER   0 0 0
Info: WRAPPING WATERS AROUND PERIODIC BOUNDARIES ON OUTPUT.
Info: WRAPPING ALL CLUSTERS AROUND PERIODIC BOUNDARIES ON OUTPUT.
Info: FIRST LDB TIMESTEP     50
Info: LAST LDB TIMESTEP     -1
Info: HOM BACKGROUND SCALING 1
Info: PME BACKGROUND SCALING 1
Info: MIN ATOMS PER PATCH    40
Info: EMPTY PATCH LOAD       40 ATOMS
Info: VELOCITY FILE          mobley_6973347_equil.vel
Info: CENTER OF MASS MOVING INITIALLY? NO
Info: DIELECTRIC             1
Info: EXCLUDE                SCALED ONE-FOUR
Info: 1-4 ELECTROSTATICS SCALED BY 0.833333
Info: MODIFIED 1-4 VDW PARAMETERS WILL BE USED
Info: DCD FILENAME           mobley_6973347_prod.dcd
Info: DCD FREQUENCY          100000
Info: DCD FIRST STEP         100000
Info: DCD FILE WILL CONTAIN UNIT CELL DATA
Info: XST FILENAME           mobley_6973347_prod.xst
Info: XST FREQUENCY          100000
Info: NO VELOCITY DCD OUTPUT
Info: NO FORCE DCD OUTPUT
Info: OUTPUT FILENAME        mobley_6973347_prod
Info: BINARY OUTPUT FILES WILL BE USED
Info: RESTART FILENAME       mobley_6973347_prod.restart
Info: RESTART FREQUENCY      100000
Info: BINARY RESTART FILES WILL BE USED
Info: CUTOFF                 9
Info: PAIRLIST DISTANCE      11
Info: PAIRLIST SHRINK RATE   0.01
Info: PAIRLIST GROW RATE     0.01
Info: PAIRLIST TRIGGER       0.3
Info: PAIRLISTS PER CYCLE    2
Info: PAIRLISTS ENABLED
Info: MARGIN                 2
Info: HYDROGEN GROUP CUTOFF  2.5
Info: PATCH DIMENSION        15.5
Info: ENERGY OUTPUT STEPS    100000
Info: ENERGY EVALUATION STEPS    100000
Info: OUTPUT ENERGY PRECISION 4
Info: CROSSTERM ENERGY INCLUDED IN DIHEDRAL
Info: TIMING OUTPUT STEPS    1000000
Info: PRESSURE OUTPUT STEPS  100000
Info: ALCHEMICAL FEP ON
Info: FEP CURRENT LAMBDA VALUE     0
Info: FEP COMPARISON LAMBDA VALUE  0.05
Info: FEP INTRA-ALCHEMICAL NON-BONDED INTERACTIONS WILL BE RETAINED
Info: FEP INTRA-ALCHEMICAL BONDED INTERACTIONS WILL BE RETAINED
Info: FEP VDW SHIFTING COEFFICIENT 5
Info: FEP ELEC. ACTIVE FOR ANNIHILATED PARTICLES BETWEEN LAMBDA = 0 AND LAMBDA = 0.5
Info: FEP ELEC. ACTIVE FOR EXNIHILATED PARTICLES BETWEEN LAMBDA = 0.5 AND LAMBDA = 1
Info: FEP VDW ACTIVE FOR ANNIHILATED PARTICLES BETWEEN LAMBDA = 0 AND LAMBDA = 1
Info: FEP VDW ACTIVE FOR EXNIHILATED PARTICLES BETWEEN LAMBDA = 0 AND LAMBDA = 1
Info: FEP BOND ACTIVE FOR ANNIHILATED PARTICLES BETWEEN LAMBDA = 1 AND LAMBDA = 1
Info: FEP BOND ACTIVE FOR EXNIHILATED PARTICLES BETWEEN LAMBDA = 0 AND LAMBDA = 0
Info: LANGEVIN DYNAMICS ACTIVE
Info: LANGEVIN TEMPERATURE   300
Info: LANGEVIN USING BBK INTEGRATOR
Info: LANGEVIN DAMPING COEFFICIENT IS 1 INVERSE PS
Info: LANGEVIN DYNAMICS APPLIED TO HYDROGENS
Info: LANGEVIN PISTON PRESSURE CONTROL ACTIVE
Info:        TARGET PRESSURE IS 1.01325 BAR
Info:     OSCILLATION PERIOD IS 50 FS
Info:             DECAY TIME IS 25 FS
Info:     PISTON TEMPERATURE IS 300 K
Info:       PRESSURE CONTROL IS GROUP-BASED
Info:    INITIAL STRAIN RATE IS -0.000157157 -0.000157157 -0.000157157
Info:       CELL FLUCTUATION IS ISOTROPIC
Info: PARTICLE MESH EWALD (PME) ACTIVE
Info: PME TOLERANCE               1e-06
Info: PME EWALD COEFFICIENT       0.348832
Info: PME INTERPOLATION ORDER     4
Info: PME GRID DIMENSIONS         32 32 36
Info: PME MAXIMUM GRID SPACING    1
Info: PME CALCULATION WILL BE PERFORMED ON GPU
Info: FULL ELECTROSTATIC EVALUATION FREQUENCY      2
Info: USING VERLET I (r-RESPA) MTS SCHEME.
Info: C1 SPLITTING OF LONG RANGE ELECTROSTATICS
Info: PLACING ATOMS IN PATCHES BY HYDROGEN GROUPS
Info: RIGID BONDS TO HYDROGEN : ALL
Info:         ERROR TOLERANCE : 1e-08
Info:          MAX ITERATIONS : 100
Info: RIGID WATER USING SETTLE ALGORITHM
Info: RANDOM NUMBER SEED     1743744029
Info: USE HYDROGEN BONDS?    NO
Info: Using AMBER format force field!
Info: AMBER PARM FILE        mobley_6973347.prmtop
Info: COORDINATE PDB         mobley_6973347.pdb
Info: Exclusions will be read from PARM file!
Info: SCNB (VDW SCALING)     2
Info: USING ARITHMETIC MEAN TO COMBINE L-J SIGMA PARAMETERS
Info: BINARY COORDINATES     mobley_6973347_equil.coor
Info: SUMMARY OF PARAMETERS:
Info: 9 BONDS
Info: 11 ANGLES
Info:   11 HARMONIC
Info:   0 COSINE-BASED
Info: 15 DIHEDRAL
Info: 0 IMPROPER
Info: 0 CROSSTERM
Info: 0 VDW
Info: 36 VDW_PAIRS
Info: 0 NBTHOLE_PAIRS
Info: To read alchdata from file: mobley_6973347.pdb
Info: To read alchflag data from column: 5
Info: STRUCTURE SUMMARY:
Info: 2921 ATOMS
Info: 2920 BONDS
Info: 22 ANGLES
Info: 34 DIHEDRALS
Info: 0 IMPROPERS
Info: 0 CROSSTERMS
Info: 2962 EXCLUSIONS
Info: 2915 RIGID BONDS
Info: ALCH: 0 ATOMS TO DISAPPEAR IN FINAL STATE
Info: ALCH: 14 ATOMS TO APPEAR IN FINAL STATE
Info: 5848 DEGREES OF FREEDOM
Info: 975 HYDROGEN GROUPS
Info: 4 ATOMS IN LARGEST HYDROGEN GROUP
Info: 975 MIGRATION GROUPS
Info: 4 ATOMS IN LARGEST MIGRATION GROUP
Info: TOTAL MASS = 17545.6 amu
Info: TOTAL CHARGE = 0.000100005 e
Info: MASS DENSITY = 0.988401 g/cm^3
Info: ATOM DENSITY = 0.0990916 atoms/A^3
Info: ADDED 0 IMPLICIT EXCLUSIONS
Info: NONBONDED TABLE R-SQUARED SPACING: 0.0625
Info: NONBONDED TABLE SIZE: 705 POINTS
Info: REMOVING COM VELOCITY 0.0513039 -0.1155 -0.100737
Info: Use 3D box decompostion in PME FFT.
Info: Updated CUDA force table with 4096 elements.
Info: Updated CUDA LJ table with 8 x 8 elements.
Info: Found 17 unique exclusion lists needing 32 bytes
TCL: Running for 1500000 steps
ETITLE: TS BOND ANGLE DIHED IMPRP ELECT VDW BOUNDARY MISC KINETIC TOTAL TEMP POTENTIAL TOTALAVG TEMPAVG PRESSURE GPRESSURE VOLUME PRESSAVG GPRESSAVG
ENERGY: 0 1.0277 8.6012 5.8678 0.0000 -10727.0290 1494.3005 0.0000 0.0000 1769.1079 -7448.1239 304.4650 -9217.2317 -7448.1239 304.4650 785.3874 866.7863 29477.7640 785.3874 866.7863
ENERGY: 300000 1.7412 5.1667 7.2868 0.0000 -10543.0413 1371.6197 0.0000 0.0000 1734.1482 -7423.0786 298.4484 -9157.2269 -7452.7432 297.7725 -552.5847 -499.8433 30181.4690 78.5634 135.0345
ENERGY: 600000 1.7974 6.5786 6.1056 0.0000 -10601.7952 1453.4808 0.0000 0.0000 1754.8310 -7379.0017 302.0079 -9133.8327 -7424.4346 299.4295 544.0226 593.0556 29468.0419 -13.2281 53.4503
ENERGY: 900000 0.4638 10.4617 5.2111 0.0000 -10523.4961 1340.5434 0.0000 0.0000 1781.2302 -7385.5860 306.5512 -9166.8161 -7417.0268 300.6159 -644.5110 -611.8703 30048.1232 -44.6415 21.4034
ENERGY: 1200000 1.8490 4.5823 8.9333 0.0000 -10744.4358 1448.7978 0.0000 0.0000 1764.0618 -7516.2116 303.5965 -9280.2733 -7423.8095 301.2951 -34.9648 61.5538 29468.7100 18.3089 84.0792
ENERGY: 1500000 1.2717 5.8942 5.9358 0.0000 -10535.0553 1355.3210 0.0000 0.0000 1763.3480 -7403.2847 303.4737 -9166.6327 -7414.6273 302.1650 -285.4318 -282.8820 29596.8626 -1.7029 57.5313
TCL: Running FEP window   2: Lambda1 0.05   Lambda2 0.1    [dLambda 0.05  ]
TCL: Setting parameter firsttimestep to 0
TCL: Setting parameter alchLambda to 0.05
Info: NONBONDED TABLE R-SQUARED SPACING: 0.0625
Info: NONBONDED TABLE SIZE: 705 POINTS
TCL: Setting parameter alchLambda2 to 0.1
Info: NONBONDED TABLE R-SQUARED SPACING: 0.0625
Info: NONBONDED TABLE SIZE: 705 POINTS
TCL: Running for 1500000 steps
ETITLE: TS BOND ANGLE DIHED IMPRP ELECT VDW BOUNDARY MISC KINETIC TOTAL TEMP POTENTIAL TOTALAVG TEMPAVG PRESSURE GPRESSURE VOLUME PRESSAVG GPRESSAVG
ENERGY: 0 1.2717 5.8942 5.9358 0.0000 -10535.0538 1354.8845 0.0000 0.0000 1762.4731 -7404.5946 303.3231 -9167.0677 -7404.5946 303.3231 -363.0314 -281.4840 29596.8626 -363.0314 -281.4840
ENERGY: 300000 0.9747 3.7393 5.7900 0.0000 -10553.9410 1330.3923 0.0000 0.0000 1748.9671 -7464.0775 300.9987 -9213.0447 -7438.3602 304.0164 -813.1143 -826.9360 29948.6629 -274.3480 -238.4971
ENERGY: 600000 0.8155 6.4571 5.7696 0.0000 -10517.2911 1331.0178 0.0000 0.0000 1776.7039 -7396.5272 305.7723 -9173.2311 -7417.5299 303.2378 -637.0529 -693.6648 29915.2459 -130.0077 -95.1861
ENERGY: 900000 2.5614 5.0623 6.2927 0.0000 -10638.9564 1440.3265 0.0000 0.0000 1684.8493 -7499.8642 289.9640 -9184.7135 -7428.8498 300.9994 30.4084 106.5613 29943.4360 -147.9675 -102.3689
ENERGY: 1200000 0.6799 6.3539 5.9246 0.0000 -10427.9047 1310.9200 0.0000 0.0000 1748.4416 -7355.5847 300.9083 -9104.0263 -7425.2227 301.0596 -620.3920 -558.8524 30114.2387 -210.7936 -165.2712
ENERGY: 1500000 0.6909 6.2590 5.6368 0.0000 -10560.0614 1363.8695 0.0000 0.0000 1700.9453 -7482.6599 292.7341 -9183.6052 -7430.5534 300.1305 -591.1138 -598.1286 30152.8220 -210.1176 -162.7748
TCL: Running FEP window   3: Lambda1 0.1    Lambda2 0.15000000000000002 [dLambda 0.05000000000000002]
TCL: Setting parameter firsttimestep to 0
TCL: Setting parameter alchLambda to 0.1
Info: NONBONDED TABLE R-SQUARED SPACING: 0.0625
Info: NONBONDED TABLE SIZE: 705 POINTS
TCL: Setting parameter alchLambda2 to 0.15000000000000002
Info: NONBONDED TABLE R-SQUARED SPACING: 0.0625
Info: NONBONDED TABLE SIZE: 705 POINTS
TCL: Running for 1500000 steps
ETITLE: TS BOND ANGLE DIHED IMPRP ELECT VDW BOUNDARY MISC KINETIC TOTAL TEMP POTENTIAL TOTALAVG TEMPAVG PRESSURE GPRESSURE VOLUME PRESSAVG GPRESSAVG
ENERGY: 0 0.6909 6.2590 5.6368 0.0000 -10560.0609 1365.6836 0.0000 0.0000 1700.0774 -7481.7132 292.5848 -9181.7906 -7481.7132 292.5848 -685.4947 -591.9758 30152.8220 -685.4947 -591.9758
ENERGY: 300000 2.1037 5.1468 5.8439 0.0000 -10565.4749 1361.9231 0.0000 0.0000 1746.5088 -7443.9486 300.5757 -9190.4574 -7462.1894 296.9767 -633.3638 -581.6056 29778.9387 -473.6547 -406.5455
ENERGY: 600000 2.4918 5.9424 5.9866 0.0000 -10495.5864 1341.6739 0.0000 0.0000 1724.3421 -7415.1495 296.7607 -9139.4916 -7430.2608 298.9584 -885.8322 -817.2449 30476.9540 -391.4770 -325.3786
ENERGY: 900000 1.8380 6.0189 6.6023 0.0000 -10539.0618 1374.1083 0.0000 0.0000 1801.3447 -7349.1495 310.0130 -9150.4942 -7421.6387 300.2508 -316.2658 -242.4584 29624.8430 -386.9245 -316.1279
ENERGY: 1200000 1.4937 2.6001 6.6702 0.0000 -10451.8647 1312.9865 0.0000 0.0000 1725.7538 -7402.3603 297.0037 -9128.1141 -7422.2684 299.9870 -930.1972 -827.3381 30109.2206 -450.1607 -385.1025
ENERGY: 1500000 1.0291 4.1070 5.4219 0.0000 -10637.0826 1418.9771 0.0000 0.0000 1761.3463 -7446.2012 303.1292 -9207.5475 -7423.0183 299.9546 -464.5387 -469.3991 30864.6756 -396.6957 -338.0470
TCL: Running FEP window   4: Lambda1 0.15000000000000002 Lambda2 0.2    [dLambda 0.04999999999999999]
TCL: Setting parameter firsttimestep to 0
TCL: Setting parameter alchLambda to 0.15000000000000002
Info: NONBONDED TABLE R-SQUARED SPACING: 0.0625
Info: NONBONDED TABLE SIZE: 705 POINTS
TCL: Setting parameter alchLambda2 to 0.2
Info: NONBONDED TABLE R-SQUARED SPACING: 0.0625
Info: NONBONDED TABLE SIZE: 705 POINTS
TCL: Running for 1500000 steps
ETITLE: TS BOND ANGLE DIHED IMPRP ELECT VDW BOUNDARY MISC KINETIC TOTAL TEMP POTENTIAL TOTALAVG TEMPAVG PRESSURE GPRESSURE VOLUME PRESSAVG GPRESSAVG
ENERGY: 0 1.0291 4.1070 5.4219 0.0000 -10637.0838 1419.1623 0.0000 0.0000 1760.4850 -7446.8785 302.9810 -9207.3635 -7446.8785 302.9810 -552.5036 -464.6641 30864.6756 -552.5036 -464.6641
ENERGY: 300000 0.4832 5.3553 6.7212 0.0000 -10524.8175 1426.8774 0.0000 0.0000 1773.0071 -7312.3732 305.1360 -9085.3804 -7387.7821 302.6232 297.2225 353.8358 29665.4748 -327.4331 -249.7574
ENERGY: 600000 1.4402 4.9096 4.4149 0.0000 -10748.7238 1522.3286 0.0000 0.0000 1726.1038 -7489.5266 297.0639 -9215.6304 -7405.7539 301.3592 724.5565 796.2418 29653.2690 -87.8777 -25.0010
ENERGY: 900000 0.8752 3.9145 5.3280 0.0000 -10584.6744 1382.2897 0.0000 0.0000 1742.3978 -7449.8692 299.8682 -9192.2670 -7408.0098 301.2353 -664.2074 -632.8831 30312.3980 -71.0438 -11.4403
ENERGY: 1200000 2.3169 5.9166 5.3875 0.0000 -10722.4123 1463.8166 0.0000 0.0000 1755.8769 -7489.0977 302.1879 -9244.9746 -7420.3129 301.1240 114.7919 185.8408 29904.0184 -85.9825 -28.0517
ENERGY: 1500000 0.1769 3.4332 6.3328 0.0000 -10431.0202 1314.0598 0.0000 0.0000 1740.7496 -7366.2680 299.5845 -9107.0176 -7414.7879 301.3870 -586.8917 -527.9040 29968.7465 -161.9004 -97.9448
TCL: Running FEP window   5: Lambda1 0.2    Lambda2 0.25   [dLambda 0.04999999999999999]
TCL: Setting parameter firsttimestep to 0
TCL: Setting parameter alchLambda to 0.2
Info: NONBONDED TABLE R-SQUARED SPACING: 0.0625
Info: NONBONDED TABLE SIZE: 705 POINTS
TCL: Setting parameter alchLambda2 to 0.25
Info: NONBONDED TABLE R-SQUARED SPACING: 0.0625
Info: NONBONDED TABLE SIZE: 705 POINTS
TCL: Running for 1500000 steps
ETITLE: TS BOND ANGLE DIHED IMPRP ELECT VDW BOUNDARY MISC KINETIC TOTAL TEMP POTENTIAL TOTALAVG TEMPAVG PRESSURE GPRESSURE VOLUME PRESSAVG GPRESSAVG
ENERGY: 0 0.1769 3.4332 6.3328 0.0000 -10431.0204 1315.3858 0.0000 0.0000 1739.8702 -7365.8216 299.4331 -9105.6918 -7365.8216 299.4331 -598.5163 -522.2261 29968.7465 -598.5163 -522.2261
ENERGY: 300000 1.8243 5.1749 6.0503 0.0000 -10561.8116 1401.5363 0.0000 0.0000 1720.3168 -7426.9089 296.0680 -9147.2258 -7407.3362 298.4129 -411.4951 -380.6737 30207.1677 -112.6157 -60.4661
ENERGY: 600000 1.9892 7.8389 6.5528 0.0000 -10649.7864 1516.3246 0.0000 0.0000 1714.0947 -7402.9862 294.9972 -9117.0809 -7415.9307 299.7748 1089.5030 1159.0653 29585.9507 142.9925 206.7731
ENERGY: 900000 0.7821 7.2038 7.0330 0.0000 -10637.0735 1443.6403 0.0000 0.0000 1760.4957 -7417.9186 302.9828 -9178.4143 -7414.2554 300.0637 112.5974 200.5095 29994.5252 200.8111 264.2533
ENERGY: 1200000 2.6205 5.7805 5.7968 0.0000 -10576.7817 1435.4968 0.0000 0.0000 1729.2943 -7397.7928 297.6130 -9127.0871 -7419.3134 299.8665 255.8079 260.8289 30088.7959 193.9305 247.8248
ENERGY: 1500000 1.5969 4.6214 8.6408 0.0000 -10492.1230 1343.0715 0.0000 0.0000 1787.2911 -7346.9013 307.5943 -9134.1924 -7407.2816 301.1867 -395.8423 -382.8164 30054.7324 181.5619 230.3706
TCL: Running FEP window   6: Lambda1 0.25   Lambda2 0.3    [dLambda 0.04999999999999999]
TCL: Setting parameter firsttimestep to 0
TCL: Setting parameter alchLambda to 0.25
Info: NONBONDED TABLE R-SQUARED SPACING: 0.0625
Info: NONBONDED TABLE SIZE: 705 POINTS
TCL: Setting parameter alchLambda2 to 0.3
Info: NONBONDED TABLE R-SQUARED SPACING: 0.0625
Info: NONBONDED TABLE SIZE: 705 POINTS
TCL: Running for 1500000 steps
ETITLE: TS BOND ANGLE DIHED IMPRP ELECT VDW BOUNDARY MISC KINETIC TOTAL TEMP POTENTIAL TOTALAVG TEMPAVG PRESSURE GPRESSURE VOLUME PRESSAVG GPRESSAVG
ENERGY: 0 1.5969 4.6214 8.6408 0.0000 -10492.1239 1344.2731 0.0000 0.0000 1786.4405 -7346.5512 307.4479 -9132.9917 -7346.5512 307.4479 -455.8558 -376.7265 30054.7324 -455.8558 -376.7265
ENERGY: 300000 2.3956 5.7011 5.3132 0.0000 -10566.0897 1390.8039 0.0000 0.0000 1777.0495 -7384.8263 305.8317 -9161.8758 -7441.3599 303.2350 -137.0206 -95.1738 29989.5224 -102.2880 -28.4787
ENERGY: 600000 0.7031 4.7602 4.5991 0.0000 -10617.2730 1448.0584 0.0000 0.0000 1752.0834 -7407.0689 301.5351 -9159.1523 -7435.7092 302.2178 194.1134 244.5500 30225.6543 -70.7625 -8.6811
ENERGY: 900000 1.1377 4.5435 5.3451 0.0000 -10546.3057 1395.1703 0.0000 0.0000 1755.7161 -7384.3929 302.1602 -9140.1090 -7430.2674 302.5365 -278.9657 -218.5858 30289.9129 -114.8860 -45.2738
ENERGY: 1200000 1.7404 6.3192 5.4001 0.0000 -10627.2318 1464.3062 0.0000 0.0000 1765.0475 -7384.4185 303.7662 -9149.4660 -7423.7085 302.1691 354.6610 462.9516 29930.7078 -73.1660 1.0409
ENERGY: 1500000 0.8680 7.5013 5.2160 0.0000 -10630.8056 1450.1622 0.0000 0.0000 1756.8817 -7410.1764 302.3608 -9167.0581 -7424.3645 302.2916 187.5726 281.6293 29725.8705 -64.9825 10.3030
TCL: Running FEP window   7: Lambda1 0.3    Lambda2 0.35   [dLambda 0.04999999999999999]
TCL: Setting parameter firsttimestep to 0
TCL: Setting parameter alchLambda to 0.3
Info: NONBONDED TABLE R-SQUARED SPACING: 0.0625
Info: NONBONDED TABLE SIZE: 705 POINTS
TCL: Setting parameter alchLambda2 to 0.35
Info: NONBONDED TABLE R-SQUARED SPACING: 0.0625
Info: NONBONDED TABLE SIZE: 705 POINTS
TCL: Running for 1500000 steps
ETITLE: TS BOND ANGLE DIHED IMPRP ELECT VDW BOUNDARY MISC KINETIC TOTAL TEMP POTENTIAL TOTALAVG TEMPAVG PRESSURE GPRESSURE VOLUME PRESSAVG GPRESSAVG
ENERGY: 0 0.8680 7.5013 5.2160 0.0000 -10630.8037 1450.1359 0.0000 0.0000 1755.9806 -7411.1018 302.2058 -9167.0824 -7411.1018 302.2058 216.1770 285.0127 29725.8705 216.1770 285.0127
ENERGY: 300000 0.7603 5.8922 4.8317 0.0000 -10640.4621 1419.7940 0.0000 0.0000 1721.7380 -7487.4457 296.3126 -9209.1837 -7419.6568 299.3750 -318.9654 -239.1274 30183.3689 182.9036 252.3172
ENERGY: 600000 2.2351 7.5376 5.5249 0.0000 -10647.6593 1478.8737 0.0000 0.0000 1726.8000 -7426.6879 297.1838 -9153.4880 -7424.0439 298.7697 329.4535 412.4881 29905.8437 163.8808 235.4344
ENERGY: 900000 1.2072 2.9079 4.9563 0.0000 -10584.6761 1403.1413 0.0000 0.0000 1788.0553 -7384.4082 307.7258 -9172.4636 -7425.0664 299.8985 -125.5986 -143.0232 30199.3060 153.8223 210.1017
ENERGY: 1200000 1.0611 5.4910 6.2686 0.0000 -10632.0724 1442.0976 0.0000 0.0000 1664.4666 -7512.6875 286.4561 -9177.1541 -7432.3192 298.8473 117.3414 148.2871 29940.1681 58.1576 112.9700
ENERGY: 1500000 0.7278 3.5472 5.4488 0.0000 -10545.9126 1380.5486 0.0000 0.0000 1799.8707 -7355.7694 309.7593 -9155.6401 -7430.6046 300.0885 -484.4884 -418.5149 30303.9632 -12.6087 41.7947
TCL: Running FEP window   8: Lambda1 0.35   Lambda2 0.39999999999999997 [dLambda 0.04999999999999999]
TCL: Setting parameter firsttimestep to 0
TCL: Setting parameter alchLambda to 0.35
Info: NONBONDED TABLE R-SQUARED SPACING: 0.0625
Info: NONBONDED TABLE SIZE: 705 POINTS
TCL: Setting parameter alchLambda2 to 0.39999999999999997
Info: NONBONDED TABLE R-SQUARED SPACING: 0.0625
Info: NONBONDED TABLE SIZE: 705 POINTS
TCL: Running for 1500000 steps
ETITLE: TS BOND ANGLE DIHED IMPRP ELECT VDW BOUNDARY MISC KINETIC TOTAL TEMP POTENTIAL TOTALAVG TEMPAVG PRESSURE GPRESSURE VOLUME PRESSAVG GPRESSAVG
ENERGY: 0 0.7278 3.5472 5.4488 0.0000 -10545.9123 1382.6641 0.0000 0.0000 1798.9856 -7354.5387 309.6070 -9153.5243 -7354.5387 309.6070 -492.5028 -402.8837 30303.9632 -492.5028 -402.8837
ENERGY: 300000 1.4929 5.7633 5.5167 0.0000 -10566.1045 1434.0287 0.0000 0.0000 1738.6197 -7380.6832 299.2179 -9119.3029 -7413.6322 300.3907 43.3422 85.8962 30572.9999 -267.5824 -219.8362
ENERGY: 600000 0.4717 3.6961 5.7864 0.0000 -10501.9447 1346.4731 0.0000 0.0000 1754.5154 -7391.0019 301.9536 -9145.5174 -7426.3007 299.6435 -565.0060 -531.1403 30060.2864 -156.1425 -80.0120
ENERGY: 900000 1.1175 4.1372 7.8326 0.0000 -10618.9019 1435.1945 0.0000 0.0000 1751.7979 -7418.8221 301.4859 -9170.6200 -7425.7233 298.0742 256.1314 349.4101 29583.3120 -184.0082 -99.6961
ENERGY: 1200000 2.5106 3.7509 6.8034 0.0000 -10748.8894 1541.7578 0.0000 0.0000 1774.0985 -7419.9682 305.3239 -9194.0667 -7430.7722 298.8687 748.7674 844.6985 30198.3208 -49.4619 27.9145
ENERGY: 1500000 1.6750 4.5493 4.5026 0.0000 -10475.0331 1370.1880 0.0000 0.0000 1740.4071 -7353.7111 299.5256 -9094.1182 -7416.1619 299.8834 -377.3017 -316.6361 30426.8754 -32.0645 42.0772
TCL: Running FEP window   9: Lambda1 0.39999999999999997 Lambda2 0.44999999999999996 [dLambda 0.04999999999999999]
TCL: Setting parameter firsttimestep to 0
TCL: Setting parameter alchLambda to 0.39999999999999997
Info: NONBONDED TABLE R-SQUARED SPACING: 0.0625
Info: NONBONDED TABLE SIZE: 705 POINTS
TCL: Setting parameter alchLambda2 to 0.44999999999999996
Info: NONBONDED TABLE R-SQUARED SPACING: 0.0625
Info: NONBONDED TABLE SIZE: 705 POINTS
TCL: Running for 1500000 steps
ETITLE: TS BOND ANGLE DIHED IMPRP ELECT VDW BOUNDARY MISC KINETIC TOTAL TEMP POTENTIAL TOTALAVG TEMPAVG PRESSURE GPRESSURE VOLUME PRESSAVG GPRESSAVG
ENERGY: 0 1.6750 4.5493 4.5026 0.0000 -10475.0348 1370.5465 0.0000 0.0000 1739.5412 -7354.2201 299.3765 -9093.7613 -7354.2201 299.3765 -392.5965 -311.3903 30426.8754 -392.5965 -311.3903
ENERGY: 300000 1.2459 7.8720 7.1038 0.0000 -10545.6987 1441.7267 0.0000 0.0000 1761.9432 -7325.8071 303.2319 -9087.7503 -7385.8205 300.3079 252.3482 302.2070 30312.3084 244.2371 321.0075
ENERGY: 600000 0.6577 6.5226 6.0688 0.0000 -10656.2491 1439.3744 0.0000 0.0000 1748.4558 -7455.1698 300.9107 -9203.6256 -7412.2532 299.2947 95.4498 155.5855 29940.0093 120.7020 193.5903
ENERGY: 900000 1.4017 9.5810 7.1194 0.0000 -10523.0491 1381.2884 0.0000 0.0000 1730.7726 -7392.8859 297.8674 -9123.6585 -7416.6619 298.8232 -160.3877 -113.9136 30108.5425 -13.0325 48.4510
ENERGY: 1200000 2.7071 3.5445 7.7612 0.0000 -10685.2560 1468.5522 0.0000 0.0000 1743.7536 -7458.9374 300.1015 -9202.6910 -7432.8750 297.6841 152.9203 160.3455 30146.2097 -65.3907 -7.9289
ENERGY: 1500000 0.4302 3.8463 6.0749 0.0000 -10698.3600 1472.7249 0.0000 0.0000 1663.2850 -7551.9987 286.2528 -9215.2836 -7444.1459 297.3338 51.4278 164.2019 30020.4344 -71.9465 -5.5713
TCL: Running FEP window  10: Lambda1 0.44999999999999996 Lambda2 0.49999999999999994 [dLambda 0.04999999999999999]
TCL: Setting parameter firsttimestep to 0
TCL: Setting parameter alchLambda to 0.44999999999999996
Info: NONBONDED TABLE R-SQUARED SPACING: 0.0625
Info: NONBONDED TABLE SIZE: 705 POINTS
TCL: Setting parameter alchLambda2 to 0.49999999999999994
Info: NONBONDED TABLE R-SQUARED SPACING: 0.0625
Info: NONBONDED TABLE SIZE: 705 POINTS
TCL: Running for 1500000 steps
ETITLE: TS BOND ANGLE DIHED IMPRP ELECT VDW BOUNDARY MISC KINETIC TOTAL TEMP POTENTIAL TOTALAVG TEMPAVG PRESSURE GPRESSURE VOLUME PRESSAVG GPRESSAVG
ENERGY: 0 0.4302 3.8464 6.0749 0.0000 -10698.3597 1473.3396 0.0000 0.0000 1662.4353 -7552.2333 286.1065 -9214.6687 -7552.2333 286.1065 78.9887 173.2298 30020.4344 78.9887 173.2298
ENERGY: 300000 3.2437 7.6018 4.3488 0.0000 -10559.4706 1371.1445 0.0000 0.0000 1770.0377 -7403.0941 304.6250 -9173.1318 -7458.7997 300.3392 -473.7713 -418.0048 29767.1227 -253.6545 -181.2667
ENERGY: 600000 2.0598 8.0062 6.0233 0.0000 -10598.5769 1388.5234 0.0000 0.0000 1723.2701 -7470.6942 296.5762 -9193.9642 -7474.0746 298.9480 -263.6278 -221.3937 30089.0471 -250.4637 -173.6774
ENERGY: 900000 1.8740 3.6689 5.8508 0.0000 -10495.3816 1341.8221 0.0000 0.0000 1696.1051 -7446.0607 291.9011 -9142.1658 -7453.1377 298.3181 -735.5672 -727.3058 30297.3998 -336.5498 -274.9040
ENERGY: 1200000 0.7716 6.8782 6.7390 0.0000 -10627.3321 1425.4962 0.0000 0.0000 1733.2987 -7454.1485 298.3022 -9187.4472 -7457.4803 297.1017 96.4681 164.9119 29695.3695 -244.4268 -183.7967
ENERGY: 1500000 0.9599 2.6207 6.0675 0.0000 -10476.3341 1310.0457 0.0000 0.0000 1724.1769 -7432.4634 296.7323 -9156.6403 -7455.2475 296.6303 -1196.5906 -1152.0750 30774.9625 -276.8180 -219.9087
TCL: Running FEP window  11: Lambda1 0.49999999999999994 Lambda2 0.5499999999999999 [dLambda 0.04999999999999999]
TCL: Setting parameter firsttimestep to 0
TCL: Setting parameter alchLambda to 0.49999999999999994
Info: NONBONDED TABLE R-SQUARED SPACING: 0.0625
Info: NONBONDED TABLE SIZE: 705 POINTS
TCL: Setting parameter alchLambda2 to 0.5499999999999999
Info: NONBONDED TABLE R-SQUARED SPACING: 0.0625
Info: NONBONDED TABLE SIZE: 705 POINTS
TCL: Running for 1500000 steps
ETITLE: TS BOND ANGLE DIHED IMPRP ELECT VDW BOUNDARY MISC KINETIC TOTAL TEMP POTENTIAL TOTALAVG TEMPAVG PRESSURE GPRESSURE VOLUME PRESSAVG GPRESSAVG
ENERGY: 0 0.9599 2.6207 6.0675 0.0000 -10476.3319 1310.2636 0.0000 0.0000 1723.3034 -7433.1168 296.5820 -9156.4202 -7433.1168 296.5820 -1232.5020 -1143.8865 30774.9625 -1232.5020 -1143.8865
ENERGY: 300000 2.5500 4.5251 6.1881 0.0000 -10560.2822 1437.7290 0.0000 0.0000 1678.6563 -7430.6337 288.8982 -9109.2900 -7410.1476 293.1821 290.3779 292.2427 29946.5075 -292.8961 -261.3893
ENERGY: 600000 0.6985 4.1651 5.5719 0.0000 -10633.2671 1426.6555 0.0000 0.0000 1757.5577 -7438.6184 302.4772 -9196.1762 -7425.0537 295.7201 -10.5045 4.3650 30117.9570 -255.9583 -213.2523
ENERGY: 900000 2.1969 6.7839 6.2116 0.0000 -10517.5091 1385.5718 0.0000 0.0000 1747.6096 -7369.1354 300.7651 -9116.7450 -7418.8179 297.8505 -194.5200 -84.2638 30067.9870 -202.9956 -144.7254
ENERGY: 1200000 3.0862 6.6545 6.4983 0.0000 -10640.5090 1461.4022 0.0000 0.0000 1688.7381 -7474.1297 290.6333 -9162.8678 -7424.7213 297.9544 -47.7323 23.0198 30363.4538 -147.8775 -81.5099
ENERGY: 1500000 0.4552 2.9701 5.7423 0.0000 -10558.1908 1358.0683 0.0000 0.0000 1774.2383 -7416.7166 305.3479 -9190.9548 -7420.8457 299.1135 -592.4893 -484.8929 30023.1073 -164.0841 -97.6646
TCL: Running FEP window  12: Lambda1 0.5499999999999999 Lambda2 0.6    [dLambda 0.050000000000000044]
TCL: Setting parameter firsttimestep to 0
TCL: Setting parameter alchLambda to 0.5499999999999999
Info: NONBONDED TABLE R-SQUARED SPACING: 0.0625
Info: NONBONDED TABLE SIZE: 705 POINTS
TCL: Setting parameter alchLambda2 to 0.6
Info: NONBONDED TABLE R-SQUARED SPACING: 0.0625
Info: NONBONDED TABLE SIZE: 705 POINTS
TCL: Running for 1500000 steps
ETITLE: TS BOND ANGLE DIHED IMPRP ELECT VDW BOUNDARY MISC KINETIC TOTAL TEMP POTENTIAL TOTALAVG TEMPAVG PRESSURE GPRESSURE VOLUME PRESSAVG GPRESSAVG
ENERGY: 0 0.4552 2.9701 5.7423 0.0000 -10558.0338 1358.8350 0.0000 0.0000 1773.3396 -7416.6916 305.1933 -9190.0312 -7416.6916 305.1933 -563.6239 -468.5733 30023.1073 -563.6239 -468.5733
ENERGY: 300000 1.0582 3.9719 5.4133 0.0000 -10662.2811 1476.8494 0.0000 0.0000 1793.1944 -7381.7939 308.6103 -9174.9883 -7375.7066 308.1027 459.6768 516.1085 30003.0213 102.3284 157.6442
ENERGY: 600000 1.5971 5.8822 6.9011 0.0000 -10489.0062 1357.5051 0.0000 0.0000 1751.7023 -7365.4184 301.4695 -9117.1207 -7390.8271 305.7230 -567.0584 -502.9147 30460.9242 82.9868 149.4562
ENERGY: 900000 2.3888 2.8746 5.9755 0.0000 -10693.8837 1504.3102 0.0000 0.0000 1783.6136 -7394.7209 306.9614 -9178.3345 -7398.7905 304.8256 699.1065 763.1634 29844.9560 28.2778 87.8032
ENERGY: 1200000 0.8254 4.3283 5.3279 0.0000 -10511.0596 1400.2364 0.0000 0.0000 1774.0774 -7326.2641 305.3202 -9100.3416 -7406.5393 304.1840 -178.8672 -84.7860 30334.0345 87.6849 148.6983
ENERGY: 1500000 1.3836 7.1715 5.3008 0.0000 -10590.3131 1331.7562 0.0000 0.0000 1735.0794 -7509.6216 298.6086 -9244.7010 -7417.4508 303.7007 -1066.6308 -1024.7543 29974.0266 -45.2494 17.0322
TCL: Running FEP window  13: Lambda1 0.6    Lambda2 0.65   [dLambda 0.050000000000000044]
TCL: Setting parameter firsttimestep to 0
TCL: Setting parameter alchLambda to 0.6
Info: NONBONDED TABLE R-SQUARED SPACING: 0.0625
Info: NONBONDED TABLE SIZE: 705 POINTS
TCL: Setting parameter alchLambda2 to 0.65
Info: NONBONDED TABLE R-SQUARED SPACING: 0.0625
Info: NONBONDED TABLE SIZE: 705 POINTS
TCL: Running for 1500000 steps
ETITLE: TS BOND ANGLE DIHED IMPRP ELECT VDW BOUNDARY MISC KINETIC TOTAL TEMP POTENTIAL TOTALAVG TEMPAVG PRESSURE GPRESSURE VOLUME PRESSAVG GPRESSAVG
ENERGY: 0 1.3836 7.1715 5.3008 0.0000 -10590.3685 1331.3811 0.0000 0.0000 1734.2048 -7510.9267 298.4581 -9245.1315 -7510.9267 298.4581 -1097.4484 -1019.6100 29974.0266 -1097.4484 -1019.6100
ENERGY: 300000 0.9093 4.5282 5.6749 0.0000 -10523.2007 1377.0993 0.0000 0.0000 1769.3579 -7365.6310 304.5080 -9134.9889 -7432.7952 299.0333 -126.4592 -42.6883 29992.9195 -419.7761 -365.8760
ENERGY: 600000 1.2063 4.7646 5.4685 0.0000 -10647.3073 1432.6566 0.0000 0.0000 1800.7448 -7402.4664 309.9097 -9203.2112 -7427.4893 302.1163 164.1494 195.0971 30036.7379 -263.1846 -204.2157
ENERGY: 900000 0.8534 6.7371 5.7728 0.0000 -10710.4002 1455.7858 0.0000 0.0000 1777.4075 -7463.8436 305.8934 -9241.2511 -7436.9182 301.8442 -92.6663 3.3438 30273.8464 -274.8917 -219.8134
ENERGY: 1200000 1.7794 6.0322 5.4602 0.0000 -10556.4039 1435.2005 0.0000 0.0000 1773.2439 -7334.6877 305.1768 -9107.9317 -7434.2966 301.2149 -93.8784 -3.6847 30487.7839 -168.3223 -115.5788
ENERGY: 1500000 1.8539 5.9835 4.3272 0.0000 -10484.0339 1357.0192 0.0000 0.0000 1742.2545 -7372.5955 299.8435 -9114.8500 -7432.1394 300.8269 -262.0871 -220.4920 30190.5724 -209.4097 -157.0378
TCL: Running FEP window  14: Lambda1 0.65   Lambda2 0.7000000000000001 [dLambda 0.050000000000000044]
TCL: Setting parameter firsttimestep to 0
TCL: Setting parameter alchLambda to 0.65
Info: NONBONDED TABLE R-SQUARED SPACING: 0.0625
Info: NONBONDED TABLE SIZE: 705 POINTS
TCL: Setting parameter alchLambda2 to 0.7000000000000001
Info: NONBONDED TABLE R-SQUARED SPACING: 0.0625
Info: NONBONDED TABLE SIZE: 705 POINTS
TCL: Running for 1500000 steps
ETITLE: TS BOND ANGLE DIHED IMPRP ELECT VDW BOUNDARY MISC KINETIC TOTAL TEMP POTENTIAL TOTALAVG TEMPAVG PRESSURE GPRESSURE VOLUME PRESSAVG GPRESSAVG
ENERGY: 0 1.8539 5.9835 4.3272 0.0000 -10484.2289 1356.7044 0.0000 0.0000 1741.3812 -7373.9787 299.6932 -9115.3599 -7373.9787 299.6932 -275.4523 -215.4922 30190.5724 -275.4523 -215.4922
ENERGY: 300000 0.4937 8.6923 4.5060 0.0000 -10694.0349 1484.4464 0.0000 0.0000 1708.8442 -7487.0523 294.0935 -9195.8965 -7507.9479 292.6495 403.5568 464.6087 30026.8988 8.7077 59.9903
ENERGY: 600000 1.7082 5.9814 7.1846 0.0000 -10560.4212 1354.2716 0.0000 0.0000 1661.8012 -7529.4743 285.9974 -9191.2755 -7507.0099 292.6625 -508.6218 -487.0950 29922.3169 -129.2915 -79.1819
ENERGY: 900000 2.0709 7.8220 5.9711 0.0000 -10633.6765 1435.2336 0.0000 0.0000 1702.2201 -7480.3589 292.9535 -9182.5789 -7490.4914 293.7128 254.1320 285.2890 29707.3345 53.7472 96.3141
ENERGY: 1200000 2.0063 7.7142 6.5721 0.0000 -10627.7542 1404.5993 0.0000 0.0000 1763.4227 -7443.4394 303.4866 -9206.8621 -7480.5338 295.6844 -531.3984 -425.3438 30579.2242 5.4298 52.6046
ENERGY: 1500000 0.3167 4.1041 6.3693 0.0000 -10603.4159 1384.6577 0.0000 0.0000 1687.3103 -7520.6579 290.3875 -9207.9682 -7473.3901 296.8602 -432.7322 -373.7056 30069.9292 -107.5320 -51.7847
TCL: Running FEP window  15: Lambda1 0.7000000000000001 Lambda2 0.7500000000000001 [dLambda 0.050000000000000044]
TCL: Setting parameter firsttimestep to 0
TCL: Setting parameter alchLambda to 0.7000000000000001
Info: NONBONDED TABLE R-SQUARED SPACING: 0.0625
Info: NONBONDED TABLE SIZE: 705 POINTS
TCL: Setting parameter alchLambda2 to 0.7500000000000001
Info: NONBONDED TABLE R-SQUARED SPACING: 0.0625
Info: NONBONDED TABLE SIZE: 705 POINTS
TCL: Running for 1500000 steps
ETITLE: TS BOND ANGLE DIHED IMPRP ELECT VDW BOUNDARY MISC KINETIC TOTAL TEMP POTENTIAL TOTALAVG TEMPAVG PRESSURE GPRESSURE VOLUME PRESSAVG GPRESSAVG
ENERGY: 0 0.3167 4.1041 6.3693 0.0000 -10603.6329 1386.1030 0.0000 0.0000 1686.4775 -7520.2624 290.2442 -9206.7399 -7520.2624 290.2442 -435.1158 -354.0288 30069.9292 -435.1158 -354.0288
ENERGY: 300000 4.4880 5.6098 5.5230 0.0000 -10498.5598 1368.5610 0.0000 0.0000 1741.3674 -7373.0106 299.6908 -9114.3780 -7433.7268 298.8888 -491.3988 -374.4243 30296.2962 -436.8959 -362.6489
ENERGY: 600000 1.1130 3.1347 4.3360 0.0000 -10568.6787 1396.3298 0.0000 0.0000 1756.0724 -7407.6929 302.2216 -9163.7653 -7443.5528 298.2279 3.9218 34.8112 29809.2376 -101.3586 -33.4674
ENERGY: 900000 3.4925 6.2904 7.8401 0.0000 -10547.3751 1408.4157 0.0000 0.0000 1700.2881 -7421.0482 292.6210 -9121.3363 -7439.1934 297.5091 91.5917 113.8396 29899.5144 -46.5155 14.8880
ENERGY: 1200000 0.5961 7.0325 7.4851 0.0000 -10522.8492 1398.8694 0.0000 0.0000 1754.4014 -7354.4647 301.9340 -9108.8661 -7430.8794 299.0683 149.8609 226.4841 30036.5744 -16.1777 47.5947
ENERGY: 1500000 3.7610 3.0387 5.2850 0.0000 -10526.4836 1400.5963 0.0000 0.0000 1765.2791 -7348.5235 303.8060 -9113.8026 -7422.4799 299.9410 133.1686 204.9735 29801.6711 35.1989 96.3417
TCL: Running FEP window  16: Lambda1 0.7500000000000001 Lambda2 0.8000000000000002 [dLambda 0.050000000000000044]
TCL: Setting parameter firsttimestep to 0
TCL: Setting parameter alchLambda to 0.7500000000000001
Info: NONBONDED TABLE R-SQUARED SPACING: 0.0625
Info: NONBONDED TABLE SIZE: 705 POINTS
TCL: Setting parameter alchLambda2 to 0.8000000000000002
Info: NONBONDED TABLE R-SQUARED SPACING: 0.0625
Info: NONBONDED TABLE SIZE: 705 POINTS
TCL: Running for 1500000 steps
ETITLE: TS BOND ANGLE DIHED IMPRP ELECT VDW BOUNDARY MISC KINETIC TOTAL TEMP POTENTIAL TOTALAVG TEMPAVG PRESSURE GPRESSURE VOLUME PRESSAVG GPRESSAVG
ENERGY: 0 3.7610 3.0387 5.2850 0.0000 -10528.1898 1401.7999 0.0000 0.0000 1764.4416 -7349.8635 303.6619 -9114.3051 -7349.8635 303.6619 145.8770 223.2215 29801.6711 145.8770 223.2215
ENERGY: 300000 0.8080 5.4112 5.2292 0.0000 -10597.5471 1429.0515 0.0000 0.0000 1738.6773 -7418.3699 299.2278 -9157.0472 -7442.6063 298.6852 57.5330 54.7453 30234.6745 -183.2777 -153.9119
ENERGY: 600000 0.8491 8.6557 5.0039 0.0000 -10651.9728 1424.0120 0.0000 0.0000 1775.5706 -7437.8816 305.5772 -9213.4521 -7438.6284 300.3102 83.8801 114.9032 30036.1295 -248.4929 -212.7477
ENERGY: 900000 0.3148 5.5974 5.5764 0.0000 -10640.0482 1458.5841 0.0000 0.0000 1773.1357 -7396.8398 305.1582 -9169.9755 -7439.7603 301.3548 -10.2195 106.2604 30517.2355 -129.0704 -77.0541
ENERGY: 1200000 0.9293 5.6268 5.0097 0.0000 -10487.1897 1370.3861 0.0000 0.0000 1822.8940 -7282.3439 313.7216 -9105.2379 -7425.6179 302.5380 -320.8491 -274.8327 30601.3189 -38.5902 17.6983
ENERGY: 1500000 1.0062 3.9712 6.0690 0.0000 -10603.2326 1436.3782 0.0000 0.0000 1746.8302 -7408.9778 300.6310 -9155.8080 -7429.1218 301.6721 -8.3012 86.6789 30190.7604 10.3632 62.8570
TCL: Running FEP window  17: Lambda1 0.8000000000000002 Lambda2 0.8500000000000002 [dLambda 0.050000000000000044]
TCL: Setting parameter firsttimestep to 0
TCL: Setting parameter alchLambda to 0.8000000000000002
Info: NONBONDED TABLE R-SQUARED SPACING: 0.0625
Info: NONBONDED TABLE SIZE: 705 POINTS
TCL: Setting parameter alchLambda2 to 0.8500000000000002
Info: NONBONDED TABLE R-SQUARED SPACING: 0.0625
Info: NONBONDED TABLE SIZE: 705 POINTS
TCL: Running for 1500000 steps
ETITLE: TS BOND ANGLE DIHED IMPRP ELECT VDW BOUNDARY MISC KINETIC TOTAL TEMP POTENTIAL TOTALAVG TEMPAVG PRESSURE GPRESSURE VOLUME PRESSAVG GPRESSAVG
ENERGY: 0 1.0062 3.9712 6.0690 0.0000 -10604.5524 1436.5399 0.0000 0.0000 1746.0032 -7410.9629 300.4886 -9156.9661 -7410.9629 300.4886 13.8414 97.5079 30190.7604 13.8414 97.5079
ENERGY: 300000 0.7894 6.0964 5.6185 0.0000 -10696.1485 1457.6756 0.0000 0.0000 1746.9817 -7478.9869 300.6570 -9225.9686 -7418.8892 301.6986 324.1540 345.4203 29881.6431 58.8774 125.8863
ENERGY: 600000 1.8454 6.1156 4.6394 0.0000 -10722.2458 1497.5138 0.0000 0.0000 1754.8683 -7457.2632 302.0143 -9212.1316 -7443.6536 299.7239 396.0487 523.3547 30116.5447 126.9223 191.6353
ENERGY: 900000 1.1540 7.2546 6.1711 0.0000 -10671.2155 1472.1082 0.0000 0.0000 1713.6762 -7470.8515 294.9251 -9184.5277 -7446.1374 299.2725 72.2324 218.2066 30386.3471 43.7446 116.5566
ENERGY: 1200000 0.7138 5.9194 6.2492 0.0000 -10657.8531 1440.1242 0.0000 0.0000 1714.0698 -7490.7767 294.9929 -9204.8465 -7441.8114 298.9618 269.0724 277.4931 29847.6017 17.1075 80.7950
ENERGY: 1500000 1.6791 7.9608 5.9981 0.0000 -10712.0446 1475.2943 0.0000 0.0000 1824.2725 -7396.8399 313.9588 -9221.1124 -7441.2613 299.5058 473.9164 532.9925 30001.9755 -6.6041 56.3748
TCL: Running FEP window  18: Lambda1 0.8500000000000002 Lambda2 0.9000000000000002 [dLambda 0.050000000000000044]
TCL: Setting parameter firsttimestep to 0
TCL: Setting parameter alchLambda to 0.8500000000000002
Info: NONBONDED TABLE R-SQUARED SPACING: 0.0625
Info: NONBONDED TABLE SIZE: 705 POINTS
TCL: Setting parameter alchLambda2 to 0.9000000000000002
Info: NONBONDED TABLE R-SQUARED SPACING: 0.0625
Info: NONBONDED TABLE SIZE: 705 POINTS
TCL: Running for 1500000 steps
ETITLE: TS BOND ANGLE DIHED IMPRP ELECT VDW BOUNDARY MISC KINETIC TOTAL TEMP POTENTIAL TOTALAVG TEMPAVG PRESSURE GPRESSURE VOLUME PRESSAVG GPRESSAVG
ENERGY: 0 1.6791 7.9608 5.9981 0.0000 -10713.3199 1475.9410 0.0000 0.0000 1823.3998 -7398.3412 313.8087 -9221.7410 -7398.3412 313.8087 452.3519 545.0338 30001.9755 452.3519 545.0338
ENERGY: 300000 2.3578 6.3549 4.2593 0.0000 -10602.5078 1400.0353 0.0000 0.0000 1744.2998 -7445.2009 300.1955 -9189.5006 -7432.8105 303.6547 -76.9609 -26.2812 29922.5453 -64.1749 -18.9011
ENERGY: 600000 0.9947 6.8706 6.3926 0.0000 -10681.0765 1446.7027 0.0000 0.0000 1717.9471 -7502.1689 295.6602 -9220.1159 -7427.6171 303.2179 376.5996 437.2735 29543.5664 31.3053 81.6964
ENERGY: 900000 0.9465 5.3374 5.4662 0.0000 -10540.6357 1364.7494 0.0000 0.0000 1742.6098 -7421.5264 299.9046 -9164.1363 -7407.4701 304.5136 -482.6831 -442.9308 30260.9224 -0.7255 55.0484
ENERGY: 1200000 3.4341 5.3003 7.7017 0.0000 -10535.2859 1403.8056 0.0000 0.0000 1701.3963 -7413.6480 292.8117 -9115.0443 -7406.7162 303.9367 46.6697 146.9386 29956.7360 80.3794 135.8110
ENERGY: 1500000 2.1578 3.8525 8.5908 0.0000 -10685.2892 1475.8932 0.0000 0.0000 1738.3613 -7456.4336 299.1735 -9194.7949 -7417.6558 303.8185 270.1658 339.5179 30157.5132 47.9516 105.7746
TCL: Running FEP window  19: Lambda1 0.9000000000000002 Lambda2 0.9500000000000003 [dLambda 0.050000000000000044]
TCL: Setting parameter firsttimestep to 0
TCL: Setting parameter alchLambda to 0.9000000000000002
Info: NONBONDED TABLE R-SQUARED SPACING: 0.0625
Info: NONBONDED TABLE SIZE: 705 POINTS
TCL: Setting parameter alchLambda2 to 0.9500000000000003
Info: NONBONDED TABLE R-SQUARED SPACING: 0.0625
Info: NONBONDED TABLE SIZE: 705 POINTS
TCL: Running for 1500000 steps
ETITLE: TS BOND ANGLE DIHED IMPRP ELECT VDW BOUNDARY MISC KINETIC TOTAL TEMP POTENTIAL TOTALAVG TEMPAVG PRESSURE GPRESSURE VOLUME PRESSAVG GPRESSAVG
ENERGY: 0 2.1578 3.8525 8.5908 0.0000 -10686.2163 1476.4354 0.0000 0.0000 1737.4750 -7457.7048 299.0209 -9195.1797 -7457.7048 299.0209 280.2310 356.2937 30157.5132 280.2310 356.2937
ENERGY: 300000 1.6843 7.4998 5.4568 0.0000 -10612.4781 1405.8764 0.0000 0.0000 1758.3870 -7433.5740 302.6199 -9191.9610 -7439.5218 298.8069 -205.4581 -176.2013 30086.6704 -225.7611 -192.6895
ENERGY: 600000 1.9321 4.1707 5.5481 0.0000 -10598.6307 1404.8515 0.0000 0.0000 1778.9073 -7403.2211 306.1515 -9182.1283 -7422.4333 300.6529 -239.0697 -116.0561 30111.0609 -186.8935 -134.8363
ENERGY: 900000 0.9638 6.2337 4.9126 0.0000 -10554.3269 1398.2941 0.0000 0.0000 1732.0345 -7411.8881 298.0846 -9143.9226 -7409.1424 300.5548 -418.4113 -299.2897 30488.8235 -186.1910 -122.3454
ENERGY: 1200000 0.5882 2.3639 7.4055 0.0000 -10641.2260 1336.1546 0.0000 0.0000 1766.4630 -7528.2509 304.0098 -9294.7139 -7424.1055 301.0758 -1201.2425 -1046.9359 30307.9854 -190.6641 -116.2577
ENERGY: 1500000 0.8442 4.7199 10.3974 0.0000 -10509.4911 1356.5212 0.0000 0.0000 1708.6253 -7428.3831 294.0559 -9137.0084 -7429.8000 300.3471 -645.3260 -634.9430 30428.3582 -149.4750 -80.8412
TCL: Running FEP window  20: Lambda1 0.9500000000000003 Lambda2 1.0    [dLambda 0.04999999999999971]
TCL: Setting parameter firsttimestep to 0
TCL: Setting parameter alchLambda to 0.9500000000000003
Info: NONBONDED TABLE R-SQUARED SPACING: 0.0625
Info: NONBONDED TABLE SIZE: 705 POINTS
TCL: Setting parameter alchLambda2 to 1.0
Info: NONBONDED TABLE R-SQUARED SPACING: 0.0625
Info: NONBONDED TABLE SIZE: 705 POINTS
TCL: Running for 1500000 steps
ETITLE: TS BOND ANGLE DIHED IMPRP ELECT VDW BOUNDARY MISC KINETIC TOTAL TEMP POTENTIAL TOTALAVG TEMPAVG PRESSURE GPRESSURE VOLUME PRESSAVG GPRESSAVG
ENERGY: 0 0.8442 4.7199 10.3974 0.0000 -10510.8926 1357.5690 0.0000 0.0000 1707.7128 -7429.6493 293.8988 -9137.3621 -7429.6493 293.8988 -687.5822 -612.6079 30428.3582 -687.5822 -612.6079
ENERGY: 300000 2.9530 5.6029 7.0039 0.0000 -10610.1972 1390.3970 0.0000 0.0000 1740.2898 -7463.9506 299.5053 -9204.2404 -7426.1990 297.7468 -294.4421 -256.2139 29900.4059 -540.2751 -481.5746
ENERGY: 600000 1.0134 4.8615 6.5410 0.0000 -10546.0508 1376.0842 0.0000 0.0000 1728.4969 -7429.0538 297.4758 -9157.5507 -7424.8333 299.4495 -237.2615 -226.5253 30348.6255 -475.8427 -443.9443
ENERGY: 900000 1.1019 5.0809 5.6506 0.0000 -10678.9312 1471.7314 0.0000 0.0000 1753.6715 -7441.6950 301.8084 -9195.3666 -7421.4201 301.0091 461.2536 566.4192 29872.7547 -283.7922 -238.2489
ENERGY: 1200000 1.2079 5.6068 6.5760 0.0000 -10611.5736 1403.7482 0.0000 0.0000 1759.6337 -7434.8010 302.8345 -9194.4347 -7419.6590 301.5481 -205.6277 -161.4474 30163.4734 -249.9515 -206.6821
ENERGY: 1500000 2.4507 6.0707 5.4243 0.0000 -10694.5877 1443.0105 0.0000 0.0000 1761.4453 -7476.1862 303.1462 -9237.6315 -7427.7951 301.1395 55.0298 153.3356 29987.1806 -196.7190 -144.3092
TCL: Exiting due to exit command.
