Info: SIMULATION PARAMETERS:
Info: TIMESTEP               2
Info: NUMBER OF STEPS        0
Info: STEPS PER CYCLE        10
Info: PERIODIC CELL BASIS 1  32.3267 0 0
Info: PERIODIC CELL BASIS 2  0 28.08 0
Info: PERIODIC CELL BASIS 3  0 0 32.8594
Info: PERIODIC CELL CENTER   0 0 0
Info: WRAPPING WATERS AROUND PERIODIC BOUNDARIES ON OUTPUT.
Info: WRAPPING ALL CLUSTERS AROUND PERIODIC BOUNDARIES ON OUTPUT.
Info: FIRST LDB TIMESTEP     50
Info: LAST LDB TIMESTEP     -1
Info: HOM BACKGROUND SCALING 1
Info: PME BACKGROUND SCALING 1
Info: MIN ATOMS PER PATCH    40
Info: EMPTY PATCH LOAD       40 ATOMS
Info: VELOCITY FILE          mobley_6201330_equil.vel
Info: CENTER OF MASS MOVING INITIALLY? NO
Info: DIELECTRIC             1
Info: EXCLUDE                SCALED ONE-FOUR
Info: 1-4 ELECTROSTATICS SCALED BY 0.833333
Info: MODIFIED 1-4 VDW PARAMETERS WILL BE USED
Info: DCD FILENAME           mobley_6201330_prod.dcd
Info: DCD FREQUENCY          100000
Info: DCD FIRST STEP         100000
Info: DCD FILE WILL CONTAIN UNIT CELL DATA
Info: XST FILENAME           mobley_6201330_prod.xst
Info: XST FREQUENCY          100000
Info: NO VELOCITY DCD OUTPUT
Info: NO FORCE DCD OUTPUT
Info: OUTPUT FILENAME        mobley_6201330_prod
Info: BINARY OUTPUT FILES WILL BE USED
Info: RESTART FILENAME       mobley_6201330_prod.restart
Info: RESTART FREQUENCY      100000
Info: BINARY RESTART FILES WILL BE USED
Info: CUTOFF                 9
Info: PAIRLIST DISTANCE      11
Info: PAIRLIST SHRINK RATE   0.01
Info: PAIRLIST GROW RATE     0.01
Info: PAIRLIST TRIGGER       0.3
Info: PAIRLISTS PER CYCLE    2
Info: PAIRLISTS ENABLED
Info: MARGIN                 2
Info: HYDROGEN GROUP CUTOFF  2.5
Info: PATCH DIMENSION        15.5
Info: ENERGY OUTPUT STEPS    100000
Info: ENERGY EVALUATION STEPS    100000
Info: OUTPUT ENERGY PRECISION 4
Info: CROSSTERM ENERGY INCLUDED IN DIHEDRAL
Info: TIMING OUTPUT STEPS    1000000
Info: PRESSURE OUTPUT STEPS  100000
Info: ALCHEMICAL FEP ON
Info: FEP CURRENT LAMBDA VALUE     0
Info: FEP COMPARISON LAMBDA VALUE  0.05
Info: FEP INTRA-ALCHEMICAL NON-BONDED INTERACTIONS WILL BE RETAINED
Info: FEP INTRA-ALCHEMICAL BONDED INTERACTIONS WILL BE RETAINED
Info: FEP VDW SHIFTING COEFFICIENT 5
Info: FEP ELEC. ACTIVE FOR ANNIHILATED PARTICLES BETWEEN LAMBDA = 0 AND LAMBDA = 0.5
Info: FEP ELEC. ACTIVE FOR EXNIHILATED PARTICLES BETWEEN LAMBDA = 0.5 AND LAMBDA = 1
Info: FEP VDW ACTIVE FOR ANNIHILATED PARTICLES BETWEEN LAMBDA = 0 AND LAMBDA = 1
Info: FEP VDW ACTIVE FOR EXNIHILATED PARTICLES BETWEEN LAMBDA = 0 AND LAMBDA = 1
Info: FEP BOND ACTIVE FOR ANNIHILATED PARTICLES BETWEEN LAMBDA = 1 AND LAMBDA = 1
Info: FEP BOND ACTIVE FOR EXNIHILATED PARTICLES BETWEEN LAMBDA = 0 AND LAMBDA = 0
Info: LANGEVIN DYNAMICS ACTIVE
Info: LANGEVIN TEMPERATURE   300
Info: LANGEVIN USING BBK INTEGRATOR
Info: LANGEVIN DAMPING COEFFICIENT IS 1 INVERSE PS
Info: LANGEVIN DYNAMICS APPLIED TO HYDROGENS
Info: LANGEVIN PISTON PRESSURE CONTROL ACTIVE
Info:        TARGET PRESSURE IS 1.01325 BAR
Info:     OSCILLATION PERIOD IS 50 FS
Info:             DECAY TIME IS 25 FS
Info:     PISTON TEMPERATURE IS 300 K
Info:       PRESSURE CONTROL IS GROUP-BASED
Info:    INITIAL STRAIN RATE IS 0.00048184 0.00048184 0.00048184
Info:       CELL FLUCTUATION IS ISOTROPIC
Info: PARTICLE MESH EWALD (PME) ACTIVE
Info: PME TOLERANCE               1e-06
Info: PME EWALD COEFFICIENT       0.348832
Info: PME INTERPOLATION ORDER     4
Info: PME GRID DIMENSIONS         36 32 36
Info: PME MAXIMUM GRID SPACING    1
Info: PME CALCULATION WILL BE PERFORMED ON GPU
Info: FULL ELECTROSTATIC EVALUATION FREQUENCY      2
Info: USING VERLET I (r-RESPA) MTS SCHEME.
Info: C1 SPLITTING OF LONG RANGE ELECTROSTATICS
Info: PLACING ATOMS IN PATCHES BY HYDROGEN GROUPS
Info: RIGID BONDS TO HYDROGEN : ALL
Info:         ERROR TOLERANCE : 1e-08
Info:          MAX ITERATIONS : 100
Info: RIGID WATER USING SETTLE ALGORITHM
Info: RANDOM NUMBER SEED     1743945266
Info: USE HYDROGEN BONDS?    NO
Info: Using AMBER format force field!
Info: AMBER PARM FILE        mobley_6201330.prmtop
Info: COORDINATE PDB         mobley_6201330.pdb
Info: Exclusions will be read from PARM file!
Info: SCNB (VDW SCALING)     2
Info: USING ARITHMETIC MEAN TO COMBINE L-J SIGMA PARAMETERS
Info: BINARY COORDINATES     mobley_6201330_equil.coor
Info: SUMMARY OF PARAMETERS:
Info: 13 BONDS
Info: 16 ANGLES
Info:   16 HARMONIC
Info:   0 COSINE-BASED
Info: 14 DIHEDRAL
Info: 0 IMPROPER
Info: 0 CROSSTERM
Info: 0 VDW
Info: 55 VDW_PAIRS
Info: 0 NBTHOLE_PAIRS
Info: To read alchdata from file: mobley_6201330.pdb
Info: To read alchflag data from column: 5
Info: STRUCTURE SUMMARY:
Info: 2923 ATOMS
Info: 2923 BONDS
Info: 41 ANGLES
Info: 64 DIHEDRALS
Info: 0 IMPROPERS
Info: 0 CROSSTERMS
Info: 3014 EXCLUSIONS
Info: 2910 RIGID BONDS
Info: ALCH: 0 ATOMS TO DISAPPEAR IN FINAL STATE
Info: ALCH: 25 ATOMS TO APPEAR IN FINAL STATE
Info: 5859 DEGREES OF FREEDOM
Info: 979 HYDROGEN GROUPS
Info: 4 ATOMS IN LARGEST HYDROGEN GROUP
Info: 979 MIGRATION GROUPS
Info: 4 ATOMS IN LARGEST MIGRATION GROUP
Info: TOTAL MASS = 17583.7 amu
Info: TOTAL CHARGE = 3.72529e-08 e
Info: MASS DENSITY = 0.978924 g/cm^3
Info: ATOM DENSITY = 0.0979962 atoms/A^3
Info: ADDED 0 IMPLICIT EXCLUSIONS
Info: NONBONDED TABLE R-SQUARED SPACING: 0.0625
Info: NONBONDED TABLE SIZE: 705 POINTS
Info: REMOVING COM VELOCITY 0.187587 0.108363 0.087877
Info: Use 3D box decompostion in PME FFT.
Info: Updated CUDA force table with 4096 elements.
Info: Updated CUDA LJ table with 10 x 10 elements.
Info: Found 27 unique exclusion lists needing 92 bytes
TCL: Running for 1500000 steps
ETITLE: TS BOND ANGLE DIHED IMPRP ELECT VDW BOUNDARY MISC KINETIC TOTAL TEMP POTENTIAL TOTALAVG TEMPAVG PRESSURE GPRESSURE VOLUME PRESSAVG GPRESSAVG
ENERGY: 0 3.9688 9.6054 3.7196 0.0000 -10608.5985 1440.3561 0.0000 0.0000 1753.7294 -7397.2192 301.2517 -9150.9486 -7397.2192 301.2517 -86.9082 -5.6758 29827.6749 -86.9082 -5.6758
ENERGY: 300000 4.2551 10.5583 11.6048 0.0000 -10666.9237 1555.7632 0.0000 0.0000 1734.8274 -7349.9150 298.0047 -9084.7424 -7362.5301 300.8909 1027.2563 1001.6218 29833.7072 382.5238 410.2276
ENERGY: 600000 3.2868 7.9085 4.7402 0.0000 -10484.4213 1399.1491 0.0000 0.0000 1688.5102 -7380.8265 290.0485 -9069.3367 -7349.3628 299.9535 -94.2728 -49.0613 30069.5644 274.2827 315.8925
ENERGY: 900000 2.2274 8.8692 12.7796 0.0000 -10457.3419 1334.8360 0.0000 0.0000 1764.0681 -7334.5617 303.0276 -9098.6298 -7360.5120 300.6921 -720.1249 -638.6990 30029.8416 140.9643 192.8145
ENERGY: 1200000 4.4521 7.5668 6.3237 0.0000 -10536.7320 1390.1406 0.0000 0.0000 1756.9112 -7371.3377 301.7982 -9128.2489 -7364.1947 300.8814 -254.3704 -180.6252 29858.4557 71.0210 121.6970
ENERGY: 1500000 4.2689 7.4882 6.7508 0.0000 -10693.7326 1476.4559 0.0000 0.0000 1709.1440 -7489.6248 293.5929 -9198.7688 -7378.2232 299.5163 48.5259 176.7534 29700.1380 -21.3548 32.8194
TCL: Running FEP window   2: Lambda1 0.05   Lambda2 0.1    [dLambda 0.05  ]
TCL: Setting parameter firsttimestep to 0
TCL: Setting parameter alchLambda to 0.05
Info: NONBONDED TABLE R-SQUARED SPACING: 0.0625
Info: NONBONDED TABLE SIZE: 705 POINTS
TCL: Setting parameter alchLambda2 to 0.1
Info: NONBONDED TABLE R-SQUARED SPACING: 0.0625
Info: NONBONDED TABLE SIZE: 705 POINTS
TCL: Running for 1500000 steps
ETITLE: TS BOND ANGLE DIHED IMPRP ELECT VDW BOUNDARY MISC KINETIC TOTAL TEMP POTENTIAL TOTALAVG TEMPAVG PRESSURE GPRESSURE VOLUME PRESSAVG GPRESSAVG
ENERGY: 0 4.2689 7.4882 6.7508 0.0000 -10693.7334 1478.6360 0.0000 0.0000 1708.2448 -7488.3446 293.4384 -9196.5895 -7488.3446 293.4384 91.1367 185.0703 29700.1380 91.1367 185.0703
ENERGY: 300000 4.1458 9.4498 7.4538 0.0000 -10508.0745 1393.5675 0.0000 0.0000 1788.7686 -7304.6889 307.2706 -9093.4576 -7408.9778 297.1806 -252.7486 -195.8244 30000.4992 82.8390 153.9152
ENERGY: 600000 2.4400 7.9499 4.4203 0.0000 -10543.4129 1401.7925 0.0000 0.0000 1771.8308 -7354.9794 304.3611 -9126.8101 -7384.1751 300.4206 -194.1153 -67.6090 29693.4413 69.0917 142.5515
ENERGY: 900000 4.2943 10.2166 10.2384 0.0000 -10665.3686 1457.1694 0.0000 0.0000 1738.2150 -7445.2350 298.5866 -9183.4499 -7386.3569 300.0452 84.4266 84.1202 29888.0270 34.2162 97.8507
ENERGY: 1200000 2.4023 9.6893 4.1066 0.0000 -10736.4609 1568.3184 0.0000 0.0000 1765.1163 -7386.8280 303.2077 -9151.9443 -7391.6231 299.9046 1287.8613 1396.9185 29478.3180 42.9985 119.5884
ENERGY: 1500000 6.0642 7.9613 8.3935 0.0000 -10466.1135 1367.2179 0.0000 0.0000 1742.7195 -7333.7571 299.3604 -9076.4766 -7392.6397 299.6253 -443.7987 -401.9963 30007.9498 29.1697 104.8324
TCL: Running FEP window   3: Lambda1 0.1    Lambda2 0.15000000000000002 [dLambda 0.05000000000000002]
TCL: Setting parameter firsttimestep to 0
TCL: Setting parameter alchLambda to 0.1
Info: NONBONDED TABLE R-SQUARED SPACING: 0.0625
Info: NONBONDED TABLE SIZE: 705 POINTS
TCL: Setting parameter alchLambda2 to 0.15000000000000002
Info: NONBONDED TABLE R-SQUARED SPACING: 0.0625
Info: NONBONDED TABLE SIZE: 705 POINTS
TCL: Running for 1500000 steps
ETITLE: TS BOND ANGLE DIHED IMPRP ELECT VDW BOUNDARY MISC KINETIC TOTAL TEMP POTENTIAL TOTALAVG TEMPAVG PRESSURE GPRESSURE VOLUME PRESSAVG GPRESSAVG
ENERGY: 0 6.0642 7.9614 8.3935 0.0000 -10466.1144 1368.3747 0.0000 0.0000 1741.8395 -7333.4812 299.2093 -9075.3207 -7333.4812 299.2093 -482.4013 -397.4104 30007.9498 -482.4013 -397.4104
ENERGY: 300000 2.9522 6.7217 5.5053 0.0000 -10687.0798 1473.2525 0.0000 0.0000 1765.4133 -7433.2348 303.2587 -9198.6481 -7365.5676 300.4900 371.4424 410.0672 29617.8785 -39.6843 28.1642
ENERGY: 600000 5.4322 9.4753 4.6241 0.0000 -10543.6561 1437.2738 0.0000 0.0000 1766.5208 -7320.3298 303.4490 -9086.8506 -7341.2485 302.3127 72.6681 60.7966 29875.1617 37.3031 90.5101
ENERGY: 900000 3.3039 8.1340 10.3907 0.0000 -10395.6157 1264.1115 0.0000 0.0000 1748.7078 -7360.9678 300.3891 -9109.6756 -7350.3788 301.7213 -1464.4471 -1418.7148 30184.9423 -242.3024 -195.2448
ENERGY: 1200000 3.5608 10.3152 6.6557 0.0000 -10579.4755 1415.2040 0.0000 0.0000 1731.7384 -7412.0014 297.4741 -9143.7398 -7360.4951 301.4663 -157.9340 -189.6014 29616.6911 -249.9611 -207.2107
ENERGY: 1500000 7.9640 9.3532 6.5039 0.0000 -10512.9622 1369.2692 0.0000 0.0000 1734.5666 -7385.3053 297.9599 -9119.8719 -7357.0943 301.7933 -466.4959 -374.9809 30282.1172 -215.6600 -172.1152
TCL: Running FEP window   4: Lambda1 0.15000000000000002 Lambda2 0.2    [dLambda 0.04999999999999999]
TCL: Setting parameter firsttimestep to 0
TCL: Setting parameter alchLambda to 0.15000000000000002
Info: NONBONDED TABLE R-SQUARED SPACING: 0.0625
Info: NONBONDED TABLE SIZE: 705 POINTS
TCL: Setting parameter alchLambda2 to 0.2
Info: NONBONDED TABLE R-SQUARED SPACING: 0.0625
Info: NONBONDED TABLE SIZE: 705 POINTS
TCL: Running for 1500000 steps
ETITLE: TS BOND ANGLE DIHED IMPRP ELECT VDW BOUNDARY MISC KINETIC TOTAL TEMP POTENTIAL TOTALAVG TEMPAVG PRESSURE GPRESSURE VOLUME PRESSAVG GPRESSAVG
ENERGY: 0 7.9640 9.3532 6.5039 0.0000 -10512.9612 1368.9654 0.0000 0.0000 1733.6958 -7386.4789 297.8103 -9120.1746 -7386.4789 297.8103 -466.1603 -373.5247 30282.1172 -466.1603 -373.5247
ENERGY: 300000 8.9168 4.7540 6.4215 0.0000 -10634.0214 1454.6906 0.0000 0.0000 1721.1333 -7438.1052 295.6524 -9159.2385 -7374.9091 299.5589 34.5369 74.5012 29886.8272 -280.4726 -214.2807
ENERGY: 600000 3.8644 11.3836 4.1321 0.0000 -10526.3503 1391.0122 0.0000 0.0000 1750.8683 -7365.0897 300.7602 -9115.9580 -7374.8072 300.5704 -346.0482 -304.7779 30039.4849 -259.3122 -197.8002
ENERGY: 900000 4.7675 11.8329 4.0227 0.0000 -10519.6090 1404.5527 0.0000 0.0000 1755.8365 -7338.5967 301.6136 -9094.4331 -7393.7888 299.6160 154.2469 185.5473 29777.3894 -300.8042 -236.6367
ENERGY: 1200000 5.4398 7.2099 6.3312 0.0000 -10509.8770 1422.0173 0.0000 0.0000 1692.2118 -7376.6671 290.6843 -9068.8789 -7393.2374 299.4913 325.2466 389.2302 29540.0286 -208.7234 -152.1309
ENERGY: 1500000 3.6376 4.5535 7.4078 0.0000 -10510.2086 1386.2008 0.0000 0.0000 1714.9852 -7393.4238 294.5963 -9108.4089 -7395.4242 299.1002 -131.4889 -70.4034 29733.2841 -235.3796 -174.8295
TCL: Running FEP window   5: Lambda1 0.2    Lambda2 0.25   [dLambda 0.04999999999999999]
TCL: Setting parameter firsttimestep to 0
TCL: Setting parameter alchLambda to 0.2
Info: NONBONDED TABLE R-SQUARED SPACING: 0.0625
Info: NONBONDED TABLE SIZE: 705 POINTS
TCL: Setting parameter alchLambda2 to 0.25
Info: NONBONDED TABLE R-SQUARED SPACING: 0.0625
Info: NONBONDED TABLE SIZE: 705 POINTS
TCL: Running for 1500000 steps
ETITLE: TS BOND ANGLE DIHED IMPRP ELECT VDW BOUNDARY MISC KINETIC TOTAL TEMP POTENTIAL TOTALAVG TEMPAVG PRESSURE GPRESSURE VOLUME PRESSAVG GPRESSAVG
ENERGY: 0 3.6376 4.5535 7.4078 0.0000 -10510.2092 1387.4687 0.0000 0.0000 1714.1314 -7393.0102 294.4496 -9107.1415 -7393.0102 294.4496 -152.7034 -60.7975 29733.2841 -152.7034 -60.7975
ENERGY: 300000 8.5660 10.6942 10.1269 0.0000 -10526.4081 1331.7656 0.0000 0.0000 1698.8940 -7466.3614 291.8322 -9165.2554 -7419.2846 296.2399 -973.4151 -957.7561 29994.0777 -286.5567 -246.0887
ENERGY: 600000 4.5164 9.1659 7.7480 0.0000 -10651.8528 1534.1359 0.0000 0.0000 1779.8691 -7316.4176 305.7419 -9096.2867 -7384.1835 301.4034 1197.7699 1237.4700 29638.8938 -238.0403 -191.9273
ENERGY: 900000 2.8803 8.0965 6.4027 0.0000 -10651.7052 1508.7852 0.0000 0.0000 1757.8343 -7367.7061 301.9568 -9125.5405 -7387.1085 301.6386 760.7408 777.4108 29685.9372 63.9372 107.2382
ENERGY: 1200000 2.3316 5.9154 9.5274 0.0000 -10739.6646 1545.6916 0.0000 0.0000 1768.7196 -7407.4790 303.8267 -9176.1986 -7391.1879 301.9611 949.4167 913.2656 30113.3540 100.0907 134.5052
ENERGY: 1500000 7.5622 9.9032 6.2992 0.0000 -10594.1465 1446.4247 0.0000 0.0000 1799.4216 -7324.5356 309.1006 -9123.9572 -7382.5385 301.7740 149.7824 231.6802 29755.6300 83.0393 120.5548
TCL: Running FEP window   6: Lambda1 0.25   Lambda2 0.3    [dLambda 0.04999999999999999]
TCL: Setting parameter firsttimestep to 0
TCL: Setting parameter alchLambda to 0.25
Info: NONBONDED TABLE R-SQUARED SPACING: 0.0625
Info: NONBONDED TABLE SIZE: 705 POINTS
TCL: Setting parameter alchLambda2 to 0.3
Info: NONBONDED TABLE R-SQUARED SPACING: 0.0625
Info: NONBONDED TABLE SIZE: 705 POINTS
TCL: Running for 1500000 steps
ETITLE: TS BOND ANGLE DIHED IMPRP ELECT VDW BOUNDARY MISC KINETIC TOTAL TEMP POTENTIAL TOTALAVG TEMPAVG PRESSURE GPRESSURE VOLUME PRESSAVG GPRESSAVG
ENERGY: 0 7.5622 9.9032 6.2992 0.0000 -10594.1458 1447.6052 0.0000 0.0000 1798.5737 -7324.2022 308.9549 -9122.7759 -7324.2022 308.9549 158.1656 245.7305 29755.6300 158.1656 245.7305
ENERGY: 300000 3.4147 7.3900 4.9513 0.0000 -10710.1942 1530.7988 0.0000 0.0000 1772.1721 -7391.4672 304.4197 -9163.6394 -7354.6387 303.7113 762.7046 704.3003 30036.6469 -7.3684 71.3648
ENERGY: 600000 8.2454 10.2230 5.6759 0.0000 -10546.9121 1412.0743 0.0000 0.0000 1769.8825 -7340.8111 304.0264 -9110.6936 -7355.2006 302.2306 -180.9996 -155.8984 30227.4904 -31.9173 30.3411
ENERGY: 900000 2.3211 7.3073 5.2960 0.0000 -10547.1363 1435.5241 0.0000 0.0000 1759.9964 -7336.6913 302.3282 -9096.6877 -7365.9327 300.4427 564.7805 595.6682 29630.3810 14.9587 72.1671
ENERGY: 1200000 4.2422 15.1407 3.6516 0.0000 -10572.9194 1459.0726 0.0000 0.0000 1724.6679 -7366.1444 296.2596 -9090.8123 -7365.7859 300.3868 603.4777 696.5916 29412.8391 59.2488 123.1072
ENERGY: 1500000 8.2306 7.0818 8.0197 0.0000 -10581.1374 1479.0054 0.0000 0.0000 1745.1810 -7333.6189 299.7832 -9078.7998 -7356.1687 300.5674 155.6403 250.1999 30103.0903 -25.3902 39.8862
TCL: Running FEP window   7: Lambda1 0.3    Lambda2 0.35   [dLambda 0.04999999999999999]
TCL: Setting parameter firsttimestep to 0
TCL: Setting parameter alchLambda to 0.3
Info: NONBONDED TABLE R-SQUARED SPACING: 0.0625
Info: NONBONDED TABLE SIZE: 705 POINTS
TCL: Setting parameter alchLambda2 to 0.35
Info: NONBONDED TABLE R-SQUARED SPACING: 0.0625
Info: NONBONDED TABLE SIZE: 705 POINTS
TCL: Running for 1500000 steps
ETITLE: TS BOND ANGLE DIHED IMPRP ELECT VDW BOUNDARY MISC KINETIC TOTAL TEMP POTENTIAL TOTALAVG TEMPAVG PRESSURE GPRESSURE VOLUME PRESSAVG GPRESSAVG
ENERGY: 0 8.2306 7.0818 8.0197 0.0000 -10581.1359 1479.2137 0.0000 0.0000 1744.3401 -7334.2500 299.6388 -9078.5901 -7334.2500 299.6388 178.6860 257.7574 30103.0903 178.6860 257.7574
ENERGY: 300000 2.8560 6.3789 7.2536 0.0000 -10642.1915 1480.0105 0.0000 0.0000 1753.3468 -7392.3457 301.1859 -9145.6925 -7391.8101 300.2754 446.0357 495.5383 29908.2317 -25.6629 48.5178
ENERGY: 600000 4.9904 7.6962 9.9742 0.0000 -10443.7191 1361.0322 0.0000 0.0000 1780.4123 -7279.6138 305.8352 -9060.0261 -7353.2008 301.4273 -216.6198 -156.6526 30076.2418 20.2389 81.4446
ENERGY: 900000 5.7584 8.2622 9.0659 0.0000 -10678.5367 1546.0353 0.0000 0.0000 1771.5425 -7337.8725 304.3116 -9109.4149 -7360.4143 300.9814 868.3926 902.9575 30158.2498 46.7333 97.4966
ENERGY: 1200000 1.9167 9.9934 5.0373 0.0000 -10444.1888 1384.0632 0.0000 0.0000 1721.3419 -7321.8362 295.6882 -9043.1781 -7355.6319 301.1244 26.8927 51.9487 29955.2012 103.4404 147.8446
ENERGY: 1500000 3.1606 7.9836 6.8902 0.0000 -10485.6477 1306.2194 0.0000 0.0000 1762.0558 -7399.3380 302.6820 -9161.3938 -7358.2100 301.7299 -1243.6186 -1197.4689 30342.1816 -1.7130 49.0256
TCL: Running FEP window   8: Lambda1 0.35   Lambda2 0.39999999999999997 [dLambda 0.04999999999999999]
TCL: Setting parameter firsttimestep to 0
TCL: Setting parameter alchLambda to 0.35
Info: NONBONDED TABLE R-SQUARED SPACING: 0.0625
Info: NONBONDED TABLE SIZE: 705 POINTS
TCL: Setting parameter alchLambda2 to 0.39999999999999997
Info: NONBONDED TABLE R-SQUARED SPACING: 0.0625
Info: NONBONDED TABLE SIZE: 705 POINTS
TCL: Running for 1500000 steps
ETITLE: TS BOND ANGLE DIHED IMPRP ELECT VDW BOUNDARY MISC KINETIC TOTAL TEMP POTENTIAL TOTALAVG TEMPAVG PRESSURE GPRESSURE VOLUME PRESSAVG GPRESSAVG
ENERGY: 0 3.1606 7.9836 6.8902 0.0000 -10485.6462 1305.6364 0.0000 0.0000 1761.1924 -7400.7829 302.5337 -9161.9753 -7400.7829 302.5337 -1272.8575 -1192.0410 30342.1816 -1272.8575 -1192.0410
ENERGY: 300000 3.9564 10.7118 5.6498 0.0000 -10723.3932 1517.4573 0.0000 0.0000 1724.1049 -7461.5129 296.1628 -9185.6178 -7412.9478 296.7385 436.5557 490.3813 30026.8989 -125.2799 -54.3934
ENERGY: 600000 4.4874 8.2303 11.0482 0.0000 -10445.2403 1405.6451 0.0000 0.0000 1729.2252 -7286.6040 297.0424 -9015.8292 -7398.4123 296.8417 179.6798 238.7534 30354.4964 -139.8702 -69.9329
ENERGY: 900000 2.6832 11.3171 9.6388 0.0000 -10514.4641 1407.6510 0.0000 0.0000 1773.6161 -7309.5579 304.6678 -9083.1740 -7371.3353 299.1951 -48.1850 67.9482 30102.4963 -161.3042 -90.0994
ENERGY: 1200000 3.8224 4.6369 7.3051 0.0000 -10571.2016 1440.0022 0.0000 0.0000 1727.9216 -7387.5135 296.8185 -9115.4351 -7385.5464 298.7981 308.2806 348.3409 30014.9639 -139.2101 -73.0847
ENERGY: 1500000 7.3565 9.8994 5.8041 0.0000 -10664.2783 1487.4068 0.0000 0.0000 1737.3179 -7416.4935 298.4325 -9153.8114 -7382.5921 298.3619 216.7251 302.9831 30163.4895 -92.2563 -27.7950
TCL: Running FEP window   9: Lambda1 0.39999999999999997 Lambda2 0.44999999999999996 [dLambda 0.04999999999999999]
TCL: Setting parameter firsttimestep to 0
TCL: Setting parameter alchLambda to 0.39999999999999997
Info: NONBONDED TABLE R-SQUARED SPACING: 0.0625
Info: NONBONDED TABLE SIZE: 705 POINTS
TCL: Setting parameter alchLambda2 to 0.44999999999999996
Info: NONBONDED TABLE R-SQUARED SPACING: 0.0625
Info: NONBONDED TABLE SIZE: 705 POINTS
TCL: Running for 1500000 steps
ETITLE: TS BOND ANGLE DIHED IMPRP ELECT VDW BOUNDARY MISC KINETIC TOTAL TEMP POTENTIAL TOTALAVG TEMPAVG PRESSURE GPRESSURE VOLUME PRESSAVG GPRESSAVG
ENERGY: 0 7.3565 9.8994 5.8041 0.0000 -10664.2781 1488.3316 0.0000 0.0000 1736.4843 -7416.4022 298.2893 -9152.8865 -7416.4022 298.2893 241.4364 317.1695 30163.4895 241.4364 317.1695
ENERGY: 300000 2.2728 8.0052 7.4242 0.0000 -10666.3902 1485.7790 0.0000 0.0000 1779.2233 -7383.6857 305.6310 -9162.9090 -7386.1863 301.3392 240.7895 270.9591 30096.7836 -104.1922 -54.0619
ENERGY: 600000 7.0002 8.5075 6.5324 0.0000 -10432.7536 1337.5841 0.0000 0.0000 1691.7997 -7381.3297 290.6135 -9073.1294 -7387.0263 300.2513 -824.7207 -796.2919 30382.7029 -7.9623 47.0104
ENERGY: 900000 7.0938 6.7082 5.8307 0.0000 -10535.5010 1385.8714 0.0000 0.0000 1758.5869 -7371.4100 302.0861 -9129.9970 -7395.3542 298.5633 -603.0025 -494.3616 30347.4016 -72.6406 -15.5351
ENERGY: 1200000 3.0114 7.7094 5.9900 0.0000 -10527.9930 1356.0991 0.0000 0.0000 1669.6091 -7485.5741 286.8017 -9155.1832 -7396.5161 299.0888 -667.0822 -645.1647 29992.9574 -133.3473 -80.9950
ENERGY: 1500000 4.2379 7.6487 7.5094 0.0000 -10430.2314 1365.3943 0.0000 0.0000 1698.2645 -7347.1765 291.7240 -9045.4410 -7386.9963 299.5663 -183.9119 -117.1572 29883.4079 -112.2630 -59.2447
TCL: Running FEP window  10: Lambda1 0.44999999999999996 Lambda2 0.49999999999999994 [dLambda 0.04999999999999999]
TCL: Setting parameter firsttimestep to 0
TCL: Setting parameter alchLambda to 0.44999999999999996
Info: NONBONDED TABLE R-SQUARED SPACING: 0.0625
Info: NONBONDED TABLE SIZE: 705 POINTS
TCL: Setting parameter alchLambda2 to 0.49999999999999994
Info: NONBONDED TABLE R-SQUARED SPACING: 0.0625
Info: NONBONDED TABLE SIZE: 705 POINTS
TCL: Running for 1500000 steps
ETITLE: TS BOND ANGLE DIHED IMPRP ELECT VDW BOUNDARY MISC KINETIC TOTAL TEMP POTENTIAL TOTALAVG TEMPAVG PRESSURE GPRESSURE VOLUME PRESSAVG GPRESSAVG
ENERGY: 0 4.2379 7.6487 7.5094 0.0000 -10430.2325 1365.6411 0.0000 0.0000 1697.3942 -7347.8012 291.5745 -9045.1954 -7347.8012 291.5745 -189.4213 -107.3801 29883.4079 -189.4213 -107.3801
ENERGY: 300000 4.1372 9.4311 7.6236 0.0000 -10588.7017 1454.9344 0.0000 0.0000 1714.5286 -7398.0468 294.5179 -9112.5754 -7377.1796 293.7299 -119.3716 -72.8227 30393.2785 -151.6237 -95.5488
ENERGY: 600000 8.8826 7.3688 4.9666 0.0000 -10377.1723 1318.2717 0.0000 0.0000 1712.6973 -7324.9852 294.2033 -9037.6826 -7390.2773 295.1714 -716.1041 -733.1990 30338.9159 -103.4409 -52.5716
ENERGY: 900000 0.8368 11.4335 7.1215 0.0000 -10615.4497 1491.7228 0.0000 0.0000 1751.1207 -7353.2144 300.8036 -9104.3351 -7380.9239 297.3044 500.4198 605.3033 30349.9730 31.2476 98.2801
ENERGY: 1200000 1.4608 6.0933 6.2360 0.0000 -10398.7299 1376.4600 0.0000 0.0000 1774.6403 -7233.8395 304.8437 -9008.4798 -7376.2295 297.8711 13.4540 14.4798 30542.6897 57.7891 113.4405
ENERGY: 1500000 7.4299 9.8749 9.6435 0.0000 -10595.6887 1462.8071 0.0000 0.0000 1737.9498 -7367.9835 298.5411 -9105.9333 -7378.6273 297.7251 182.5038 255.8306 29927.9973 111.1050 164.0179
TCL: Running FEP window  11: Lambda1 0.49999999999999994 Lambda2 0.5499999999999999 [dLambda 0.04999999999999999]
TCL: Setting parameter firsttimestep to 0
TCL: Setting parameter alchLambda to 0.49999999999999994
Info: NONBONDED TABLE R-SQUARED SPACING: 0.0625
Info: NONBONDED TABLE SIZE: 705 POINTS
TCL: Setting parameter alchLambda2 to 0.5499999999999999
Info: NONBONDED TABLE R-SQUARED SPACING: 0.0625
Info: NONBONDED TABLE SIZE: 705 POINTS
TCL: Running for 1500000 steps
ETITLE: TS BOND ANGLE DIHED IMPRP ELECT VDW BOUNDARY MISC KINETIC TOTAL TEMP POTENTIAL TOTALAVG TEMPAVG PRESSURE GPRESSURE VOLUME PRESSAVG GPRESSAVG
ENERGY: 0 7.4299 9.8749 9.6435 0.0000 -10595.6885 1462.4400 0.0000 0.0000 1737.0675 -7369.2326 298.3895 -9106.3001 -7369.2326 298.3895 185.0146 262.3961 29927.9973 185.0146 262.3961
ENERGY: 300000 4.0589 9.6589 8.4183 0.0000 -10607.6403 1466.0693 0.0000 0.0000 1747.9030 -7371.5319 300.2508 -9119.4349 -7352.7069 299.8847 362.3369 407.9643 29934.4399 98.1003 185.8378
ENERGY: 600000 4.7978 5.3247 6.9364 0.0000 -10606.3450 1478.5261 0.0000 0.0000 1757.9113 -7352.8486 301.9700 -9110.7599 -7354.4309 299.6125 348.3371 409.1285 30168.5213 10.8157 84.5170
ENERGY: 900000 3.2667 7.6083 6.9616 0.0000 -10519.5943 1375.5314 0.0000 0.0000 1732.5372 -7393.6891 297.6113 -9126.2263 -7362.2050 299.6521 -432.0905 -340.6325 30004.0941 -146.1003 -69.4651
ENERGY: 1200000 2.7106 8.4578 9.5260 0.0000 -10617.1187 1400.9844 0.0000 0.0000 1716.6985 -7478.7414 294.8906 -9195.4399 -7362.3288 299.6320 -554.6666 -474.4411 30305.9114 -251.1186 -174.3933
ENERGY: 1500000 2.8330 9.4938 6.4756 0.0000 -10507.3127 1415.5829 0.0000 0.0000 1735.7028 -7337.2244 298.1551 -9072.9273 -7354.9570 299.5461 137.6280 154.1484 30297.4229 -198.2468 -127.5158
TCL: Running FEP window  12: Lambda1 0.5499999999999999 Lambda2 0.6    [dLambda 0.050000000000000044]
TCL: Setting parameter firsttimestep to 0
TCL: Setting parameter alchLambda to 0.5499999999999999
Info: NONBONDED TABLE R-SQUARED SPACING: 0.0625
Info: NONBONDED TABLE SIZE: 705 POINTS
TCL: Setting parameter alchLambda2 to 0.6
Info: NONBONDED TABLE R-SQUARED SPACING: 0.0625
Info: NONBONDED TABLE SIZE: 705 POINTS
TCL: Running for 1500000 steps
ETITLE: TS BOND ANGLE DIHED IMPRP ELECT VDW BOUNDARY MISC KINETIC TOTAL TEMP POTENTIAL TOTALAVG TEMPAVG PRESSURE GPRESSURE VOLUME PRESSAVG GPRESSAVG
ENERGY: 0 2.8330 9.4938 6.4756 0.0000 -10507.0280 1415.2701 0.0000 0.0000 1734.8751 -7338.0804 298.0129 -9072.9555 -7338.0804 298.0129 86.2723 161.6813 30297.4229 86.2723 161.6813
ENERGY: 300000 4.1817 5.2470 6.5022 0.0000 -10536.4950 1391.1865 0.0000 0.0000 1772.0308 -7357.3469 304.3954 -9129.3777 -7400.1499 300.2748 -365.6279 -297.2720 30314.5369 -70.6884 -10.8917
ENERGY: 600000 4.0279 11.1407 6.3034 0.0000 -10612.3239 1409.1039 0.0000 0.0000 1753.4122 -7428.3358 301.1972 -9181.7479 -7394.1235 300.7472 13.8424 102.7686 29608.0720 -268.4626 -196.1344
ENERGY: 900000 2.3388 10.1952 9.1541 0.0000 -10480.9631 1354.0726 0.0000 0.0000 1746.9794 -7358.2230 300.0922 -9105.2024 -7387.0533 300.7080 -259.5916 -229.2151 29818.0335 -287.1125 -217.9883
ENERGY: 1200000 3.9148 7.1557 5.9347 0.0000 -10628.8104 1460.4767 0.0000 0.0000 1729.3208 -7422.0077 297.0588 -9151.3285 -7384.3566 300.3171 214.3880 256.8640 30253.5640 -165.8588 -100.6627
ENERGY: 1500000 6.6603 11.1460 7.9111 0.0000 -10597.9227 1430.5909 0.0000 0.0000 1715.0377 -7426.5767 294.6053 -9141.6143 -7384.5209 300.3783 377.7544 464.1076 29683.8504 -178.8997 -111.0304
TCL: Running FEP window  13: Lambda1 0.6    Lambda2 0.65   [dLambda 0.050000000000000044]
TCL: Setting parameter firsttimestep to 0
TCL: Setting parameter alchLambda to 0.6
Info: NONBONDED TABLE R-SQUARED SPACING: 0.0625
Info: NONBONDED TABLE SIZE: 705 POINTS
TCL: Setting parameter alchLambda2 to 0.65
Info: NONBONDED TABLE R-SQUARED SPACING: 0.0625
Info: NONBONDED TABLE SIZE: 705 POINTS
TCL: Running for 1500000 steps
ETITLE: TS BOND ANGLE DIHED IMPRP ELECT VDW BOUNDARY MISC KINETIC TOTAL TEMP POTENTIAL TOTALAVG TEMPAVG PRESSURE GPRESSURE VOLUME PRESSAVG GPRESSAVG
ENERGY: 0 6.6602 11.1460 7.9111 0.0000 -10598.8294 1430.4362 0.0000 0.0000 1714.1937 -7428.4821 294.4603 -9142.6758 -7428.4821 294.4603 382.7314 470.9052 29683.8504 382.7314 470.9052
ENERGY: 300000 2.2726 9.7080 5.0668 0.0000 -10528.2078 1512.4255 0.0000 0.0000 1708.5125 -7290.2225 293.4844 -8998.7350 -7368.4568 299.4361 1286.4979 1384.0457 29819.0006 588.5378 666.0029
ENERGY: 600000 5.1412 8.5735 5.6150 0.0000 -10365.6652 1257.4685 0.0000 0.0000 1818.5532 -7270.3140 312.3870 -9088.8671 -7351.6378 303.7127 -1294.2859 -1158.0102 30194.2163 59.8591 142.0700
ENERGY: 900000 3.8776 10.2220 8.2170 0.0000 -10515.0915 1411.4517 0.0000 0.0000 1749.7220 -7331.6011 300.5633 -9081.3231 -7356.9436 302.3493 -221.6188 -144.1087 30403.6350 5.4546 80.9980
ENERGY: 1200000 4.2250 5.9083 6.0138 0.0000 -10401.9299 1288.6768 0.0000 0.0000 1708.1967 -7388.9093 293.4302 -9097.1060 -7360.3494 301.6945 -1187.2402 -1146.2239 30100.9092 -67.1115 8.7422
ENERGY: 1500000 3.3643 9.6016 6.4036 0.0000 -10556.7216 1380.8251 0.0000 0.0000 1725.6548 -7430.8722 296.4291 -9156.5270 -7373.5737 300.7803 -543.5304 -467.6874 30531.5831 -83.9346 -11.7389
TCL: Running FEP window  14: Lambda1 0.65   Lambda2 0.7000000000000001 [dLambda 0.050000000000000044]
TCL: Setting parameter firsttimestep to 0
TCL: Setting parameter alchLambda to 0.65
Info: NONBONDED TABLE R-SQUARED SPACING: 0.0625
Info: NONBONDED TABLE SIZE: 705 POINTS
TCL: Setting parameter alchLambda2 to 0.7000000000000001
Info: NONBONDED TABLE R-SQUARED SPACING: 0.0625
Info: NONBONDED TABLE SIZE: 705 POINTS
TCL: Running for 1500000 steps
ETITLE: TS BOND ANGLE DIHED IMPRP ELECT VDW BOUNDARY MISC KINETIC TOTAL TEMP POTENTIAL TOTALAVG TEMPAVG PRESSURE GPRESSURE VOLUME PRESSAVG GPRESSAVG
ENERGY: 0 3.3643 9.6016 6.4036 0.0000 -10557.1630 1380.3561 0.0000 0.0000 1724.8110 -7432.6265 296.2841 -9157.4375 -7432.6265 296.2841 -552.5661 -460.9225 30531.5831 -552.5661 -460.9225
ENERGY: 300000 4.1776 7.1105 4.6168 0.0000 -10530.2170 1403.4132 0.0000 0.0000 1772.1106 -7338.7883 304.4092 -9110.8989 -7391.0884 296.4646 -211.5405 -135.7628 30080.2546 -418.0835 -373.2224
ENERGY: 600000 2.9978 7.5451 7.9149 0.0000 -10616.7157 1486.9971 0.0000 0.0000 1741.5459 -7369.7149 299.1588 -9111.2607 -7399.5517 296.9819 1058.4186 1004.1594 29643.9223 -36.9735 -2.1191
ENERGY: 900000 3.2692 9.5404 6.5366 0.0000 -10518.7407 1370.9145 0.0000 0.0000 1776.0158 -7352.4642 305.0800 -9128.4801 -7392.2254 297.7891 -179.9878 -138.9726 30034.6790 -158.5319 -122.2503
ENERGY: 1200000 5.6110 13.6654 7.4775 0.0000 -10730.1629 1539.5599 0.0000 0.0000 1759.9090 -7403.9402 302.3132 -9163.8492 -7392.4722 298.2439 1104.0999 1155.0733 29854.7644 -30.3817 18.2730
ENERGY: 1500000 2.0703 10.6366 8.1910 0.0000 -10493.2338 1338.6750 0.0000 0.0000 1711.0049 -7422.6559 293.9126 -9133.6608 -7395.3915 298.5037 -724.4581 -645.7748 30207.9782 -81.1502 -22.2683
TCL: Running FEP window  15: Lambda1 0.7000000000000001 Lambda2 0.7500000000000001 [dLambda 0.050000000000000044]
TCL: Setting parameter firsttimestep to 0
TCL: Setting parameter alchLambda to 0.7000000000000001
Info: NONBONDED TABLE R-SQUARED SPACING: 0.0625
Info: NONBONDED TABLE SIZE: 705 POINTS
TCL: Setting parameter alchLambda2 to 0.7500000000000001
Info: NONBONDED TABLE R-SQUARED SPACING: 0.0625
Info: NONBONDED TABLE SIZE: 705 POINTS
TCL: Running for 1500000 steps
ETITLE: TS BOND ANGLE DIHED IMPRP ELECT VDW BOUNDARY MISC KINETIC TOTAL TEMP POTENTIAL TOTALAVG TEMPAVG PRESSURE GPRESSURE VOLUME PRESSAVG GPRESSAVG
ENERGY: 0 2.0703 10.6366 8.1910 0.0000 -10493.7919 1338.5873 0.0000 0.0000 1710.1442 -7424.1624 293.7647 -9134.3066 -7424.1624 293.7647 -734.4608 -631.9976 30207.9782 -734.4608 -631.9976
ENERGY: 300000 3.2978 11.9190 7.6171 0.0000 -10638.6771 1377.0946 0.0000 0.0000 1762.7948 -7475.9538 302.8089 -9238.7486 -7426.5804 296.9790 -721.9305 -636.1096 30118.6356 -181.4457 -91.1695
ENERGY: 600000 3.8939 8.6048 6.9308 0.0000 -10515.1758 1359.4718 0.0000 0.0000 1730.6252 -7405.6493 297.2829 -9136.2745 -7429.8636 297.4958 -526.8991 -493.9946 29929.5998 -133.0763 -58.4943
ENERGY: 900000 3.1811 8.8263 9.0247 0.0000 -10607.6194 1447.7710 0.0000 0.0000 1756.4396 -7382.3768 301.7172 -9138.8163 -7414.3861 297.8638 263.1319 316.8274 30094.8320 -97.0358 -19.4006
ENERGY: 1200000 3.6688 7.7363 5.2044 0.0000 -10549.4265 1381.0000 0.0000 0.0000 1750.0712 -7401.7458 300.6233 -9151.8170 -7409.8794 298.8123 -390.4521 -315.0772 30223.4040 -131.5845 -52.8129
ENERGY: 1500000 4.9340 7.7907 7.2703 0.0000 -10487.3553 1291.4504 0.0000 0.0000 1702.8827 -7473.0273 292.5173 -9175.9099 -7403.7442 298.4655 -1522.3093 -1447.4042 30365.9513 -140.6455 -63.9917
TCL: Running FEP window  16: Lambda1 0.7500000000000001 Lambda2 0.8000000000000002 [dLambda 0.050000000000000044]
TCL: Setting parameter firsttimestep to 0
TCL: Setting parameter alchLambda to 0.7500000000000001
Info: NONBONDED TABLE R-SQUARED SPACING: 0.0625
Info: NONBONDED TABLE SIZE: 705 POINTS
TCL: Setting parameter alchLambda2 to 0.8000000000000002
Info: NONBONDED TABLE R-SQUARED SPACING: 0.0625
Info: NONBONDED TABLE SIZE: 705 POINTS
TCL: Running for 1500000 steps
ETITLE: TS BOND ANGLE DIHED IMPRP ELECT VDW BOUNDARY MISC KINETIC TOTAL TEMP POTENTIAL TOTALAVG TEMPAVG PRESSURE GPRESSURE VOLUME PRESSAVG GPRESSAVG
ENERGY: 0 4.9340 7.7907 7.2703 0.0000 -10489.0138 1290.9752 0.0000 0.0000 1702.0378 -7476.0057 292.3722 -9178.0436 -7476.0057 292.3722 -1533.0315 -1443.6173 30365.9513 -1533.0315 -1443.6173
ENERGY: 300000 6.9904 7.0226 4.9045 0.0000 -10655.7277 1418.1846 0.0000 0.0000 1760.9246 -7457.7009 302.4877 -9218.6255 -7441.8010 298.3716 -99.5094 -34.8711 29787.0530 -597.2601 -533.2239
ENERGY: 600000 6.3379 8.4765 3.8137 0.0000 -10591.4032 1423.4254 0.0000 0.0000 1810.5912 -7338.7585 311.0193 -9149.3497 -7391.2336 299.6780 -242.9277 -248.5915 30238.9573 -723.7178 -669.7518
ENERGY: 900000 2.7962 5.5870 7.3216 0.0000 -10575.2554 1414.6874 0.0000 0.0000 1722.1925 -7422.6706 295.8343 -9144.8632 -7392.3612 299.8218 124.5576 170.6444 29863.9943 -564.8422 -501.1655
ENERGY: 1200000 7.5462 7.3297 7.3019 0.0000 -10664.4533 1478.8806 0.0000 0.0000 1760.5182 -7402.8767 302.4178 -9163.3949 -7388.6267 299.7203 253.0557 387.3111 30211.2199 -559.8044 -491.5116
ENERGY: 1500000 4.6916 12.1991 7.9170 0.0000 -10670.0966 1523.1277 0.0000 0.0000 1765.5825 -7356.5786 303.2878 -9122.1611 -7392.6168 300.0576 982.7490 1061.8079 29783.3011 -310.0293 -236.8981
TCL: Running FEP window  17: Lambda1 0.8000000000000002 Lambda2 0.8500000000000002 [dLambda 0.050000000000000044]
TCL: Setting parameter firsttimestep to 0
TCL: Setting parameter alchLambda to 0.8000000000000002
Info: NONBONDED TABLE R-SQUARED SPACING: 0.0625
Info: NONBONDED TABLE SIZE: 705 POINTS
TCL: Setting parameter alchLambda2 to 0.8500000000000002
Info: NONBONDED TABLE R-SQUARED SPACING: 0.0625
Info: NONBONDED TABLE SIZE: 705 POINTS
TCL: Running for 1500000 steps
ETITLE: TS BOND ANGLE DIHED IMPRP ELECT VDW BOUNDARY MISC KINETIC TOTAL TEMP POTENTIAL TOTALAVG TEMPAVG PRESSURE GPRESSURE VOLUME PRESSAVG GPRESSAVG
ENERGY: 0 4.6916 12.1991 7.9170 0.0000 -10673.2058 1524.2762 0.0000 0.0000 1764.7064 -7359.4154 303.1373 -9124.1218 -7359.4154 303.1373 1009.8533 1086.2933 29783.3011 1009.8533 1086.2933
ENERGY: 300000 5.7622 4.5527 5.2710 0.0000 -10551.8681 1394.7017 0.0000 0.0000 1793.7096 -7347.8709 308.1194 -9141.5805 -7327.2398 305.9760 -48.2374 -28.6753 30060.0281 425.7903 477.6320
ENERGY: 600000 4.5260 8.6291 12.1380 0.0000 -10433.2308 1363.6048 0.0000 0.0000 1705.6863 -7338.6466 292.9989 -9044.3330 -7351.8916 302.8665 -191.9424 -87.3798 30195.7551 21.2883 79.1316
ENERGY: 900000 2.4757 6.3724 6.1702 0.0000 -10570.9144 1420.9188 0.0000 0.0000 1805.9423 -7329.0349 310.2207 -9134.9773 -7349.6209 304.1801 128.7718 173.4406 29981.4368 8.0484 65.2297
ENERGY: 1200000 4.2172 13.7105 6.4180 0.0000 -10771.9588 1500.7577 0.0000 0.0000 1754.4361 -7492.4192 301.3731 -9246.8553 -7369.2350 304.0784 340.4524 437.0173 29741.6198 -51.7111 12.0276
ENERGY: 1500000 4.2058 11.4925 6.9172 0.0000 -10707.8977 1493.4593 0.0000 0.0000 1681.0767 -7510.7462 288.7716 -9191.8229 -7375.0080 303.0336 290.8261 438.8277 29967.8526 -49.0889 11.7481
TCL: Running FEP window  18: Lambda1 0.8500000000000002 Lambda2 0.9000000000000002 [dLambda 0.050000000000000044]
TCL: Setting parameter firsttimestep to 0
TCL: Setting parameter alchLambda to 0.8500000000000002
Info: NONBONDED TABLE R-SQUARED SPACING: 0.0625
Info: NONBONDED TABLE SIZE: 705 POINTS
TCL: Setting parameter alchLambda2 to 0.9000000000000002
Info: NONBONDED TABLE R-SQUARED SPACING: 0.0625
Info: NONBONDED TABLE SIZE: 705 POINTS
TCL: Running for 1500000 steps
ETITLE: TS BOND ANGLE DIHED IMPRP ELECT VDW BOUNDARY MISC KINETIC TOTAL TEMP POTENTIAL TOTALAVG TEMPAVG PRESSURE GPRESSURE VOLUME PRESSAVG GPRESSAVG
ENERGY: 0 4.2058 11.4925 6.9172 0.0000 -10709.9144 1493.8119 0.0000 0.0000 1680.1888 -7513.2983 288.6190 -9193.4870 -7513.2983 288.6190 365.7361 452.5547 29967.8526 365.7361 452.5547
ENERGY: 300000 7.8708 12.3222 6.3363 0.0000 -10645.5073 1406.9750 0.0000 0.0000 1779.7542 -7432.2488 305.7222 -9212.0030 -7421.7236 301.4702 -653.7899 -604.8669 30331.8677 178.2261 227.8068
ENERGY: 600000 6.0912 8.0110 5.8537 0.0000 -10556.4908 1385.9063 0.0000 0.0000 1736.7355 -7413.8930 298.3325 -9150.6285 -7410.9181 300.1085 -407.7466 -316.8592 30014.8990 36.3769 92.5850
ENERGY: 900000 5.0341 7.6976 5.9779 0.0000 -10502.2899 1333.0034 0.0000 0.0000 1741.6905 -7408.8865 299.1837 -9150.5769 -7418.7240 299.5623 -947.8104 -921.9940 30393.2715 -149.8697 -99.7323
ENERGY: 1200000 5.3656 8.2414 5.6893 0.0000 -10659.5584 1400.8288 0.0000 0.0000 1802.3037 -7437.1296 309.5957 -9239.4332 -7409.7531 300.5064 -235.4513 -160.4545 29785.0011 -153.6674 -91.3517
ENERGY: 1500000 2.9043 8.5168 7.2046 0.0000 -10563.2229 1454.0971 0.0000 0.0000 1726.8703 -7363.6297 296.6379 -9090.5000 -7401.1265 299.5031 500.0192 509.7919 29871.5259 -144.9705 -89.6205
TCL: Running FEP window  19: Lambda1 0.9000000000000002 Lambda2 0.9500000000000003 [dLambda 0.050000000000000044]
TCL: Setting parameter firsttimestep to 0
TCL: Setting parameter alchLambda to 0.9000000000000002
Info: NONBONDED TABLE R-SQUARED SPACING: 0.0625
Info: NONBONDED TABLE SIZE: 705 POINTS
TCL: Setting parameter alchLambda2 to 0.9500000000000003
Info: NONBONDED TABLE R-SQUARED SPACING: 0.0625
Info: NONBONDED TABLE SIZE: 705 POINTS
TCL: Running for 1500000 steps
ETITLE: TS BOND ANGLE DIHED IMPRP ELECT VDW BOUNDARY MISC KINETIC TOTAL TEMP POTENTIAL TOTALAVG TEMPAVG PRESSURE GPRESSURE VOLUME PRESSAVG GPRESSAVG
ENERGY: 0 2.9043 8.5168 7.2046 0.0000 -10565.3182 1455.3237 0.0000 0.0000 1726.0300 -7365.3388 296.4935 -9091.3688 -7365.3388 296.4935 468.6762 539.4546 29871.5259 468.6762 539.4546
ENERGY: 300000 4.3081 8.6309 7.4739 0.0000 -10536.3766 1371.5714 0.0000 0.0000 1742.5129 -7401.8794 299.3249 -9144.3923 -7415.2057 298.2462 -133.7034 -127.7552 30010.6276 -122.8319 -67.5622
ENERGY: 600000 4.7997 11.5954 5.0648 0.0000 -10637.6536 1445.8507 0.0000 0.0000 1730.2166 -7440.1265 297.2127 -9170.3430 -7409.0875 297.9074 -20.8203 37.6689 30303.0278 -66.4303 -13.8848
ENERGY: 900000 3.9554 16.2884 7.4136 0.0000 -10537.8380 1383.5997 0.0000 0.0000 1749.6800 -7376.9009 300.5561 -9126.5809 -7411.7472 297.8563 -177.6842 -121.3257 30002.7999 -200.5134 -139.7003
ENERGY: 1200000 3.0645 5.0139 7.3218 0.0000 -10463.2768 1385.8990 0.0000 0.0000 1764.9487 -7297.0289 303.1789 -9061.9776 -7411.0329 298.2176 288.9482 276.7920 29983.1663 -144.7307 -94.2277
ENERGY: 1500000 4.7829 9.4390 7.8467 0.0000 -10578.7042 1427.7387 0.0000 0.0000 1711.8438 -7417.0532 294.0567 -9128.8970 -7414.4462 298.2573 112.8638 178.6857 29909.4717 -153.0289 -100.2498
TCL: Running FEP window  20: Lambda1 0.9500000000000003 Lambda2 1.0    [dLambda 0.04999999999999971]
TCL: Setting parameter firsttimestep to 0
TCL: Setting parameter alchLambda to 0.9500000000000003
Info: NONBONDED TABLE R-SQUARED SPACING: 0.0625
Info: NONBONDED TABLE SIZE: 705 POINTS
TCL: Setting parameter alchLambda2 to 1.0
Info: NONBONDED TABLE R-SQUARED SPACING: 0.0625
Info: NONBONDED TABLE SIZE: 705 POINTS
TCL: Running for 1500000 steps
ETITLE: TS BOND ANGLE DIHED IMPRP ELECT VDW BOUNDARY MISC KINETIC TOTAL TEMP POTENTIAL TOTALAVG TEMPAVG PRESSURE GPRESSURE VOLUME PRESSAVG GPRESSAVG
ENERGY: 0 4.7829 9.4390 7.8467 0.0000 -10580.6241 1427.4534 0.0000 0.0000 1710.9409 -7420.1613 293.9016 -9131.1022 -7420.1613 293.9016 100.6913 186.2215 29909.4717 100.6913 186.2215
ENERGY: 300000 6.8729 15.8576 9.1586 0.0000 -10664.9469 1463.6665 0.0000 0.0000 1760.8629 -7408.5284 302.4770 -9169.3913 -7416.3156 296.5779 107.9582 158.1065 30621.8930 428.6077 482.9193
ENERGY: 600000 4.3021 6.3262 4.5401 0.0000 -10518.6693 1385.5627 0.0000 0.0000 1774.9707 -7342.9676 304.9005 -9117.9382 -7420.3026 297.8857 -211.0112 -185.9857 30454.4017 417.2454 451.6050
ENERGY: 900000 5.6622 9.3527 7.5901 0.0000 -10556.3751 1371.5270 0.0000 0.0000 1698.9107 -7463.3324 291.8350 -9162.2431 -7416.1832 298.0250 -230.2882 -223.2484 30016.0268 242.1108 270.0711
ENERGY: 1200000 10.9014 6.9417 5.3846 0.0000 -10534.6238 1346.7556 0.0000 0.0000 1745.7720 -7418.8684 299.8848 -9164.6404 -7413.7895 297.8737 -139.4962 -143.6972 29519.1085 93.0323 129.0823
ENERGY: 1500000 6.2023 4.5432 9.9329 0.0000 -10547.8670 1416.5973 0.0000 0.0000 1752.4458 -7358.1455 301.0312 -9110.5913 -7410.8301 297.9554 214.3283 249.1640 30120.6949 69.2032 104.0438
TCL: Exiting due to exit command.
