Info: SIMULATION PARAMETERS:
Info: TIMESTEP               2
Info: NUMBER OF STEPS        0
Info: STEPS PER CYCLE        10
Info: PERIODIC CELL BASIS 1  30.8306 0 0
Info: PERIODIC CELL BASIS 2  0 32.0996 0
Info: PERIODIC CELL BASIS 3  0 0 30.7813
Info: PERIODIC CELL CENTER   0 0 0
Info: WRAPPING WATERS AROUND PERIODIC BOUNDARIES ON OUTPUT.
Info: WRAPPING ALL CLUSTERS AROUND PERIODIC BOUNDARIES ON OUTPUT.
Info: FIRST LDB TIMESTEP     50
Info: LAST LDB TIMESTEP     -1
Info: HOM BACKGROUND SCALING 1
Info: PME BACKGROUND SCALING 1
Info: MIN ATOMS PER PATCH    40
Info: EMPTY PATCH LOAD       40 ATOMS
Info: VELOCITY FILE          mobley_6981465_equil.vel
Info: CENTER OF MASS MOVING INITIALLY? NO
Info: DIELECTRIC             1
Info: EXCLUDE                SCALED ONE-FOUR
Info: 1-4 ELECTROSTATICS SCALED BY 0.833333
Info: MODIFIED 1-4 VDW PARAMETERS WILL BE USED
Info: DCD FILENAME           mobley_6981465_prod.dcd
Info: DCD FREQUENCY          100000
Info: DCD FIRST STEP         100000
Info: DCD FILE WILL CONTAIN UNIT CELL DATA
Info: XST FILENAME           mobley_6981465_prod.xst
Info: XST FREQUENCY          100000
Info: NO VELOCITY DCD OUTPUT
Info: NO FORCE DCD OUTPUT
Info: OUTPUT FILENAME        mobley_6981465_prod
Info: BINARY OUTPUT FILES WILL BE USED
Info: RESTART FILENAME       mobley_6981465_prod.restart
Info: RESTART FREQUENCY      100000
Info: BINARY RESTART FILES WILL BE USED
Info: CUTOFF                 9
Info: PAIRLIST DISTANCE      11
Info: PAIRLIST SHRINK RATE   0.01
Info: PAIRLIST GROW RATE     0.01
Info: PAIRLIST TRIGGER       0.3
Info: PAIRLISTS PER CYCLE    2
Info: PAIRLISTS ENABLED
Info: MARGIN                 2
Info: HYDROGEN GROUP CUTOFF  2.5
Info: PATCH DIMENSION        15.5
Info: ENERGY OUTPUT STEPS    100000
Info: ENERGY EVALUATION STEPS    100000
Info: OUTPUT ENERGY PRECISION 4
Info: CROSSTERM ENERGY INCLUDED IN DIHEDRAL
Info: TIMING OUTPUT STEPS    1000000
Info: PRESSURE OUTPUT STEPS  100000
Info: ALCHEMICAL FEP ON
Info: FEP CURRENT LAMBDA VALUE     0
Info: FEP COMPARISON LAMBDA VALUE  0.05
Info: FEP INTRA-ALCHEMICAL NON-BONDED INTERACTIONS WILL BE RETAINED
Info: FEP INTRA-ALCHEMICAL BONDED INTERACTIONS WILL BE RETAINED
Info: FEP VDW SHIFTING COEFFICIENT 5
Info: FEP ELEC. ACTIVE FOR ANNIHILATED PARTICLES BETWEEN LAMBDA = 0 AND LAMBDA = 0.5
Info: FEP ELEC. ACTIVE FOR EXNIHILATED PARTICLES BETWEEN LAMBDA = 0.5 AND LAMBDA = 1
Info: FEP VDW ACTIVE FOR ANNIHILATED PARTICLES BETWEEN LAMBDA = 0 AND LAMBDA = 1
Info: FEP VDW ACTIVE FOR EXNIHILATED PARTICLES BETWEEN LAMBDA = 0 AND LAMBDA = 1
Info: FEP BOND ACTIVE FOR ANNIHILATED PARTICLES BETWEEN LAMBDA = 1 AND LAMBDA = 1
Info: FEP BOND ACTIVE FOR EXNIHILATED PARTICLES BETWEEN LAMBDA = 0 AND LAMBDA = 0
Info: LANGEVIN DYNAMICS ACTIVE
Info: LANGEVIN TEMPERATURE   300
Info: LANGEVIN USING BBK INTEGRATOR
Info: LANGEVIN DAMPING COEFFICIENT IS 1 INVERSE PS
Info: LANGEVIN DYNAMICS APPLIED TO HYDROGENS
Info: LANGEVIN PISTON PRESSURE CONTROL ACTIVE
Info:        TARGET PRESSURE IS 1.01325 BAR
Info:     OSCILLATION PERIOD IS 50 FS
Info:             DECAY TIME IS 25 FS
Info:     PISTON TEMPERATURE IS 300 K
Info:       PRESSURE CONTROL IS GROUP-BASED
Info:    INITIAL STRAIN RATE IS -0.000174471 -0.000174471 -0.000174471
Info:       CELL FLUCTUATION IS ISOTROPIC
Info: PARTICLE MESH EWALD (PME) ACTIVE
Info: PME TOLERANCE               1e-06
Info: PME EWALD COEFFICIENT       0.348832
Info: PME INTERPOLATION ORDER     4
Info: PME GRID DIMENSIONS         32 36 32
Info: PME MAXIMUM GRID SPACING    1
Info: PME CALCULATION WILL BE PERFORMED ON GPU
Info: FULL ELECTROSTATIC EVALUATION FREQUENCY      2
Info: USING VERLET I (r-RESPA) MTS SCHEME.
Info: C1 SPLITTING OF LONG RANGE ELECTROSTATICS
Info: PLACING ATOMS IN PATCHES BY HYDROGEN GROUPS
Info: RIGID BONDS TO HYDROGEN : ALL
Info:         ERROR TOLERANCE : 1e-08
Info:          MAX ITERATIONS : 100
Info: RIGID WATER USING SETTLE ALGORITHM
Info: RANDOM NUMBER SEED     1743773753
Info: USE HYDROGEN BONDS?    NO
Info: Using AMBER format force field!
Info: AMBER PARM FILE        mobley_6981465.prmtop
Info: COORDINATE PDB         mobley_6981465.pdb
Info: Exclusions will be read from PARM file!
Info: SCNB (VDW SCALING)     2
Info: USING ARITHMETIC MEAN TO COMBINE L-J SIGMA PARAMETERS
Info: BINARY COORDINATES     mobley_6981465_equil.coor
Info: SUMMARY OF PARAMETERS:
Info: 9 BONDS
Info: 11 ANGLES
Info:   11 HARMONIC
Info:   0 COSINE-BASED
Info: 16 DIHEDRAL
Info: 0 IMPROPER
Info: 0 CROSSTERM
Info: 0 VDW
Info: 36 VDW_PAIRS
Info: 0 NBTHOLE_PAIRS
Info: To read alchdata from file: mobley_6981465.pdb
Info: To read alchflag data from column: 5
Info: STRUCTURE SUMMARY:
Info: 2948 ATOMS
Info: 2947 BONDS
Info: 28 ANGLES
Info: 47 DIHEDRALS
Info: 0 IMPROPERS
Info: 0 CROSSTERMS
Info: 3004 EXCLUSIONS
Info: 2941 RIGID BONDS
Info: ALCH: 0 ATOMS TO DISAPPEAR IN FINAL STATE
Info: ALCH: 17 ATOMS TO APPEAR IN FINAL STATE
Info: 5903 DEGREES OF FREEDOM
Info: 984 HYDROGEN GROUPS
Info: 4 ATOMS IN LARGEST HYDROGEN GROUP
Info: 984 MIGRATION GROUPS
Info: 4 ATOMS IN LARGEST MIGRATION GROUP
Info: TOTAL MASS = 17703.8 amu
Info: TOTAL CHARGE = -4.47035e-08 e
Info: MASS DENSITY = 0.965066 g/cm^3
Info: ATOM DENSITY = 0.0967742 atoms/A^3
Info: ADDED 0 IMPLICIT EXCLUSIONS
Info: NONBONDED TABLE R-SQUARED SPACING: 0.0625
Info: NONBONDED TABLE SIZE: 705 POINTS
Info: REMOVING COM VELOCITY 0.0231661 0.154249 0.00514904
Info: Use 3D box decompostion in PME FFT.
Info: Updated CUDA force table with 4096 elements.
Info: Updated CUDA LJ table with 8 x 8 elements.
Info: Found 20 unique exclusion lists needing 48 bytes
TCL: Running for 1500000 steps
ETITLE: TS BOND ANGLE DIHED IMPRP ELECT VDW BOUNDARY MISC KINETIC TOTAL TEMP POTENTIAL TOTALAVG TEMPAVG PRESSURE GPRESSURE VOLUME PRESSAVG GPRESSAVG
ENERGY: 0 1.7471 4.6117 7.6879 0.0000 -10689.4926 1446.0368 0.0000 0.0000 1823.4868 -7405.9223 310.8996 -9229.4091 -7405.9223 310.8996 -85.4014 2.2873 30462.6678 -85.4014 2.2873
ENERGY: 300000 2.4338 10.2060 8.9917 0.0000 -10781.6680 1558.8742 0.0000 0.0000 1770.6884 -7430.4739 301.8977 -9201.1623 -7426.8132 305.7110 826.1599 898.6731 30238.8472 320.1596 407.9942
ENERGY: 600000 1.2570 8.0669 9.0708 0.0000 -10719.7300 1496.8588 0.0000 0.0000 1779.4841 -7424.9924 303.3973 -9204.4765 -7443.6314 303.0130 764.3594 829.1007 29984.0608 322.5989 396.4321
ENERGY: 900000 1.2781 4.5075 8.8502 0.0000 -10816.0199 1544.1260 0.0000 0.0000 1789.8692 -7467.3890 305.1679 -9257.2582 -7471.7951 302.6664 873.8463 959.0140 29920.9038 309.8102 377.7295
ENERGY: 1200000 3.6143 14.5955 7.2959 0.0000 -10793.2003 1419.8161 0.0000 0.0000 1778.2691 -7569.6094 303.1901 -9347.8784 -7489.9844 302.1961 -249.4377 -253.3208 29722.1652 210.7835 279.1338
ENERGY: 1500000 1.3636 7.4645 9.1415 0.0000 -10805.7522 1550.5932 0.0000 0.0000 1698.8141 -7538.3752 289.6433 -9237.1893 -7497.6994 300.5428 921.6266 970.6168 30012.0137 164.0507 227.8475
TCL: Running FEP window   2: Lambda1 0.05   Lambda2 0.1    [dLambda 0.05  ]
TCL: Setting parameter firsttimestep to 0
TCL: Setting parameter alchLambda to 0.05
Info: NONBONDED TABLE R-SQUARED SPACING: 0.0625
Info: NONBONDED TABLE SIZE: 705 POINTS
TCL: Setting parameter alchLambda2 to 0.1
Info: NONBONDED TABLE R-SQUARED SPACING: 0.0625
Info: NONBONDED TABLE SIZE: 705 POINTS
TCL: Running for 1500000 steps
ETITLE: TS BOND ANGLE DIHED IMPRP ELECT VDW BOUNDARY MISC KINETIC TOTAL TEMP POTENTIAL TOTALAVG TEMPAVG PRESSURE GPRESSURE VOLUME PRESSAVG GPRESSAVG
ENERGY: 0 1.3636 7.4645 9.1415 0.0000 -10805.7519 1551.7516 0.0000 0.0000 1697.9092 -7538.1214 289.4890 -9236.0306 -7538.1214 289.4890 893.5391 975.6356 30012.0137 893.5391 975.6356
ENERGY: 300000 3.5137 9.2534 8.0526 0.0000 -10720.6160 1463.4654 0.0000 0.0000 1796.5565 -7439.7743 306.3081 -9236.3309 -7543.1253 293.3908 360.7433 556.8835 29870.4879 400.1673 493.5273
ENERGY: 600000 1.9569 5.7470 7.8513 0.0000 -10651.7699 1367.7944 0.0000 0.0000 1721.4043 -7547.0161 293.4948 -9268.4204 -7517.6707 295.8507 -705.4666 -625.4275 30316.5006 -0.9615 92.9478
ENERGY: 900000 1.2749 4.3476 7.8165 0.0000 -10765.0481 1519.8719 0.0000 0.0000 1754.8063 -7476.9309 299.1898 -9231.7371 -7509.1498 296.9509 866.4643 918.2035 29842.7922 120.1637 200.9703
ENERGY: 1200000 1.2259 7.2040 9.7197 0.0000 -10747.6161 1511.5332 0.0000 0.0000 1793.1296 -7424.8037 305.7238 -9217.9333 -7499.8719 298.3188 719.5126 788.6437 29846.5426 115.5589 192.1371
ENERGY: 1500000 2.8935 6.0208 7.3921 0.0000 -10647.5019 1366.0309 0.0000 0.0000 1732.7561 -7532.4085 295.4303 -9265.1646 -7511.2762 298.0744 -348.1017 -335.8523 29966.9595 123.7185 188.3186
TCL: Running FEP window   3: Lambda1 0.1    Lambda2 0.15000000000000002 [dLambda 0.05000000000000002]
TCL: Setting parameter firsttimestep to 0
TCL: Setting parameter alchLambda to 0.1
Info: NONBONDED TABLE R-SQUARED SPACING: 0.0625
Info: NONBONDED TABLE SIZE: 705 POINTS
TCL: Setting parameter alchLambda2 to 0.15000000000000002
Info: NONBONDED TABLE R-SQUARED SPACING: 0.0625
Info: NONBONDED TABLE SIZE: 705 POINTS
TCL: Running for 1500000 steps
ETITLE: TS BOND ANGLE DIHED IMPRP ELECT VDW BOUNDARY MISC KINETIC TOTAL TEMP POTENTIAL TOTALAVG TEMPAVG PRESSURE GPRESSURE VOLUME PRESSAVG GPRESSAVG
ENERGY: 0 2.8935 6.0208 7.3921 0.0000 -10647.5019 1366.1885 0.0000 0.0000 1731.9100 -7533.0969 295.2860 -9265.0070 -7533.0969 295.2860 -407.8982 -332.4307 29966.9595 -407.8982 -332.4307
ENERGY: 300000 3.8745 7.9970 8.0314 0.0000 -10679.2806 1467.4410 0.0000 0.0000 1700.6154 -7491.3213 289.9504 -9191.9367 -7484.7176 298.4221 511.1328 537.0454 30357.2807 100.7988 151.1140
ENERGY: 600000 1.7221 7.7272 10.4170 0.0000 -10706.5301 1467.6897 0.0000 0.0000 1743.1299 -7475.8441 297.1990 -9218.9740 -7505.1323 297.8556 18.0926 157.1920 30406.5481 81.5082 151.4059
ENERGY: 900000 2.2489 7.2602 6.9121 0.0000 -10813.4023 1458.6301 0.0000 0.0000 1784.1602 -7554.1908 304.1946 -9338.3510 -7511.1450 299.0980 -22.0554 38.7597 29985.3895 126.0798 200.9785
ENERGY: 1200000 1.5310 11.1221 7.3864 0.0000 -10750.3751 1498.0575 0.0000 0.0000 1778.8148 -7453.4632 303.2832 -9232.2780 -7500.7771 299.7111 783.1468 808.0057 29579.2760 163.7692 225.7303
ENERGY: 1500000 3.3944 9.2570 9.6423 0.0000 -10774.2486 1494.3551 0.0000 0.0000 1780.9415 -7476.6583 303.6458 -9257.5998 -7494.4545 299.8425 374.7413 436.1082 30037.9838 88.3768 152.0679
TCL: Running FEP window   4: Lambda1 0.15000000000000002 Lambda2 0.2    [dLambda 0.04999999999999999]
TCL: Setting parameter firsttimestep to 0
TCL: Setting parameter alchLambda to 0.15000000000000002
Info: NONBONDED TABLE R-SQUARED SPACING: 0.0625
Info: NONBONDED TABLE SIZE: 705 POINTS
TCL: Setting parameter alchLambda2 to 0.2
Info: NONBONDED TABLE R-SQUARED SPACING: 0.0625
Info: NONBONDED TABLE SIZE: 705 POINTS
TCL: Running for 1500000 steps
ETITLE: TS BOND ANGLE DIHED IMPRP ELECT VDW BOUNDARY MISC KINETIC TOTAL TEMP POTENTIAL TOTALAVG TEMPAVG PRESSURE GPRESSURE VOLUME PRESSAVG GPRESSAVG
ENERGY: 0 3.3944 9.2570 9.6423 0.0000 -10774.2466 1495.5553 0.0000 0.0000 1780.0566 -7476.3410 303.4949 -9256.3976 -7476.3410 303.4949 350.9543 445.1408 30037.9838 350.9543 445.1408
ENERGY: 300000 1.0652 9.5342 7.3320 0.0000 -10737.9171 1443.2076 0.0000 0.0000 1747.4310 -7529.3472 297.9323 -9276.7782 -7501.1177 302.4824 -85.9838 -57.5146 30095.4047 -133.7296 -62.9089
ENERGY: 600000 2.1105 7.3007 8.6651 0.0000 -10710.2092 1468.5763 0.0000 0.0000 1808.2846 -7415.2720 308.3077 -9223.5566 -7468.7686 304.4298 66.0055 169.6124 30899.5367 -92.0267 -4.1247
ENERGY: 900000 1.9077 6.7149 8.0929 0.0000 -10728.8017 1471.2230 0.0000 0.0000 1752.7232 -7488.1401 298.8346 -9240.8632 -7485.6710 301.6036 286.3810 345.3626 30115.5339 -45.5345 31.6053
ENERGY: 1200000 1.6658 8.9382 8.5327 0.0000 -10880.7536 1539.4776 0.0000 0.0000 1773.0236 -7549.1158 302.2958 -9322.1394 -7493.5185 301.3565 676.7465 684.0546 30064.4914 -47.9516 31.8799
ENERGY: 1500000 1.3744 7.0853 6.3518 0.0000 -10796.2168 1499.9596 0.0000 0.0000 1727.2366 -7554.2090 294.4892 -9281.4456 -7498.6179 301.6123 313.1101 410.7353 30201.6245 -14.6686 64.4608
TCL: Running FEP window   5: Lambda1 0.2    Lambda2 0.25   [dLambda 0.04999999999999999]
TCL: Setting parameter firsttimestep to 0
TCL: Setting parameter alchLambda to 0.2
Info: NONBONDED TABLE R-SQUARED SPACING: 0.0625
Info: NONBONDED TABLE SIZE: 705 POINTS
TCL: Setting parameter alchLambda2 to 0.25
Info: NONBONDED TABLE R-SQUARED SPACING: 0.0625
Info: NONBONDED TABLE SIZE: 705 POINTS
TCL: Running for 1500000 steps
ETITLE: TS BOND ANGLE DIHED IMPRP ELECT VDW BOUNDARY MISC KINETIC TOTAL TEMP POTENTIAL TOTALAVG TEMPAVG PRESSURE GPRESSURE VOLUME PRESSAVG GPRESSAVG
ENERGY: 0 1.3744 7.0853 6.3518 0.0000 -10796.2174 1500.5954 0.0000 0.0000 1726.3546 -7554.4559 294.3389 -9280.8105 -7554.4559 294.3389 340.9820 416.1267 30201.6245 340.9820 416.1267
ENERGY: 300000 2.0299 6.2718 13.0728 0.0000 -10698.9027 1452.9406 0.0000 0.0000 1766.9650 -7457.6226 301.2628 -9224.5876 -7500.2331 296.8485 165.6492 234.3333 30056.8324 -130.1679 -67.4716
ENERGY: 600000 1.4247 6.6271 8.9531 0.0000 -10682.5271 1449.8566 0.0000 0.0000 1776.7552 -7438.9105 302.9320 -9215.6657 -7473.9970 300.1444 247.4435 306.3872 30058.0034 61.5692 123.3451
ENERGY: 900000 2.3608 9.4942 6.9632 0.0000 -10601.6332 1355.7046 0.0000 0.0000 1792.7807 -7434.3297 305.6643 -9227.1104 -7472.0799 301.0948 -512.2128 -401.7157 30230.1500 -2.1568 66.1824
ENERGY: 1200000 0.8636 3.9498 9.6378 0.0000 -10561.1271 1414.6243 0.0000 0.0000 1782.6616 -7349.3902 303.9391 -9132.0518 -7456.5364 302.4588 212.1865 242.2424 30168.4780 -41.9373 22.9738
ENERGY: 1500000 0.5826 5.4004 6.4839 0.0000 -10789.6149 1473.1220 0.0000 0.0000 1760.1500 -7543.8760 300.1009 -9304.0260 -7462.6933 301.0419 135.7133 139.4404 30095.5778 -35.4326 20.5180
TCL: Running FEP window   6: Lambda1 0.25   Lambda2 0.3    [dLambda 0.04999999999999999]
TCL: Setting parameter firsttimestep to 0
TCL: Setting parameter alchLambda to 0.25
Info: NONBONDED TABLE R-SQUARED SPACING: 0.0625
Info: NONBONDED TABLE SIZE: 705 POINTS
TCL: Setting parameter alchLambda2 to 0.3
Info: NONBONDED TABLE R-SQUARED SPACING: 0.0625
Info: NONBONDED TABLE SIZE: 705 POINTS
TCL: Running for 1500000 steps
ETITLE: TS BOND ANGLE DIHED IMPRP ELECT VDW BOUNDARY MISC KINETIC TOTAL TEMP POTENTIAL TOTALAVG TEMPAVG PRESSURE GPRESSURE VOLUME PRESSAVG GPRESSAVG
ENERGY: 0 0.5826 5.4004 6.4839 0.0000 -10789.6148 1473.5403 0.0000 0.0000 1759.2698 -7544.3378 299.9508 -9303.6076 -7544.3378 299.9508 57.4948 146.8402 30095.5778 57.4948 146.8402
ENERGY: 300000 1.9088 9.9651 8.0515 0.0000 -10703.5483 1473.9511 0.0000 0.0000 1783.7142 -7425.9577 304.1185 -9209.6718 -7519.9499 298.9326 354.1644 413.2523 30366.8538 310.3949 371.8984
ENERGY: 600000 0.9462 7.2026 6.4317 0.0000 -10853.1100 1586.2659 0.0000 0.0000 1747.5978 -7504.6658 297.9608 -9252.2636 -7503.2861 300.8470 1198.3682 1240.4038 30141.1530 291.0232 354.1875
ENERGY: 900000 1.7036 10.1542 8.5597 0.0000 -10655.3749 1422.9626 0.0000 0.0000 1788.0435 -7423.9514 304.8567 -9211.9949 -7482.2014 299.9763 -260.7681 -172.7299 30783.7878 163.7266 244.2707
ENERGY: 1200000 4.9629 5.3331 6.9118 0.0000 -10637.8287 1430.3534 0.0000 0.0000 1775.9516 -7414.3159 302.7950 -9190.2675 -7484.4592 299.6621 -61.3682 18.2925 30203.7766 121.4972 194.4775
ENERGY: 1500000 1.8733 5.6909 8.0523 0.0000 -10620.6737 1418.5626 0.0000 0.0000 1756.3790 -7430.1157 299.4579 -9186.4946 -7480.0347 299.8651 51.8360 58.2812 30459.5497 65.5271 133.0433
TCL: Running FEP window   7: Lambda1 0.3    Lambda2 0.35   [dLambda 0.04999999999999999]
TCL: Setting parameter firsttimestep to 0
TCL: Setting parameter alchLambda to 0.3
Info: NONBONDED TABLE R-SQUARED SPACING: 0.0625
Info: NONBONDED TABLE SIZE: 705 POINTS
TCL: Setting parameter alchLambda2 to 0.35
Info: NONBONDED TABLE R-SQUARED SPACING: 0.0625
Info: NONBONDED TABLE SIZE: 705 POINTS
TCL: Running for 1500000 steps
ETITLE: TS BOND ANGLE DIHED IMPRP ELECT VDW BOUNDARY MISC KINETIC TOTAL TEMP POTENTIAL TOTALAVG TEMPAVG PRESSURE GPRESSURE VOLUME PRESSAVG GPRESSAVG
ENERGY: 0 1.8733 5.6909 8.0523 0.0000 -10620.6736 1418.7025 0.0000 0.0000 1755.5175 -7430.8372 299.3111 -9186.3547 -7430.8372 299.3111 -17.8911 67.2544 30459.5497 -17.8911 67.2544
ENERGY: 300000 1.4065 11.3378 6.3664 0.0000 -10682.2497 1399.0648 0.0000 0.0000 1760.7097 -7503.3644 300.1963 -9264.0741 -7480.6154 299.9558 -405.9415 -363.7064 30380.7837 -74.1862 8.2188
ENERGY: 600000 1.8087 5.6113 7.6674 0.0000 -10784.5603 1448.4761 0.0000 0.0000 1811.6700 -7509.3267 308.8849 -9320.9967 -7479.3550 300.9416 -138.9899 -53.7615 30414.0961 -8.4798 60.7231
ENERGY: 900000 2.0632 7.6374 7.6201 0.0000 -10653.6213 1442.7099 0.0000 0.0000 1813.3495 -7380.2413 309.1713 -9193.5907 -7462.6304 301.6256 187.0879 300.0517 30354.1861 -19.9231 54.0251
ENERGY: 1200000 3.1895 10.7352 6.9010 0.0000 -10743.2808 1483.8900 0.0000 0.0000 1763.0748 -7475.4903 300.5996 -9238.5651 -7465.3968 301.0990 276.0811 305.2549 30332.1630 -121.0505 -48.2429
ENERGY: 1500000 1.3838 7.0925 6.9450 0.0000 -10594.4172 1357.3820 0.0000 0.0000 1748.1752 -7473.4386 298.0592 -9221.6138 -7467.7460 300.6188 -526.6146 -497.3425 30246.2873 -146.4005 -80.6643
TCL: Running FEP window   8: Lambda1 0.35   Lambda2 0.39999999999999997 [dLambda 0.04999999999999999]
TCL: Setting parameter firsttimestep to 0
TCL: Setting parameter alchLambda to 0.35
Info: NONBONDED TABLE R-SQUARED SPACING: 0.0625
Info: NONBONDED TABLE SIZE: 705 POINTS
TCL: Setting parameter alchLambda2 to 0.39999999999999997
Info: NONBONDED TABLE R-SQUARED SPACING: 0.0625
Info: NONBONDED TABLE SIZE: 705 POINTS
TCL: Running for 1500000 steps
ETITLE: TS BOND ANGLE DIHED IMPRP ELECT VDW BOUNDARY MISC KINETIC TOTAL TEMP POTENTIAL TOTALAVG TEMPAVG PRESSURE GPRESSURE VOLUME PRESSAVG GPRESSAVG
ENERGY: 0 1.3838 7.0925 6.9450 0.0000 -10594.4165 1357.6546 0.0000 0.0000 1747.3007 -7474.0397 297.9101 -9221.3405 -7474.0397 297.9101 -561.1573 -488.7554 30246.2873 -561.1573 -488.7554
ENERGY: 300000 1.7946 7.2810 7.2821 0.0000 -10633.9046 1371.4850 0.0000 0.0000 1726.7641 -7519.2978 294.4087 -9246.0618 -7505.1203 298.8024 -729.4116 -605.1668 30346.5413 -365.8992 -303.1874
ENERGY: 600000 2.7466 8.3839 7.2658 0.0000 -10724.7708 1416.6084 0.0000 0.0000 1735.4245 -7554.3417 295.8853 -9289.7661 -7507.5663 299.8158 -309.0933 -280.0970 30455.3274 -39.3940 11.5179
ENERGY: 900000 1.5464 9.1141 7.5503 0.0000 -10627.9016 1419.7634 0.0000 0.0000 1779.2136 -7410.7137 303.3512 -9189.9273 -7489.4042 300.5269 -26.0528 77.1652 30375.3215 -144.3871 -95.3161
ENERGY: 1200000 0.7109 6.0695 7.1678 0.0000 -10836.8958 1562.1718 0.0000 0.0000 1820.8053 -7439.9705 310.4425 -9260.7758 -7488.0707 300.6152 1078.5561 1136.6955 30066.1255 -22.0698 25.3970
ENERGY: 1500000 1.2616 7.8595 8.8170 0.0000 -10441.3263 1272.5613 0.0000 0.0000 1763.6618 -7387.1652 300.6996 -9150.8269 -7489.1254 300.1326 -1014.6948 -1044.5673 30589.0635 -165.6842 -122.6917
TCL: Running FEP window   9: Lambda1 0.39999999999999997 Lambda2 0.44999999999999996 [dLambda 0.04999999999999999]
TCL: Setting parameter firsttimestep to 0
TCL: Setting parameter alchLambda to 0.39999999999999997
Info: NONBONDED TABLE R-SQUARED SPACING: 0.0625
Info: NONBONDED TABLE SIZE: 705 POINTS
TCL: Setting parameter alchLambda2 to 0.44999999999999996
Info: NONBONDED TABLE R-SQUARED SPACING: 0.0625
Info: NONBONDED TABLE SIZE: 705 POINTS
TCL: Running for 1500000 steps
ETITLE: TS BOND ANGLE DIHED IMPRP ELECT VDW BOUNDARY MISC KINETIC TOTAL TEMP POTENTIAL TOTALAVG TEMPAVG PRESSURE GPRESSURE VOLUME PRESSAVG GPRESSAVG
ENERGY: 0 1.2616 7.8595 8.8170 0.0000 -10441.3264 1272.8710 0.0000 0.0000 1762.7762 -7387.7410 300.5487 -9150.5173 -7387.7410 300.5487 -1118.0672 -1037.3023 30589.0635 -1118.0672 -1037.3023
ENERGY: 300000 2.1501 6.0550 8.3559 0.0000 -10378.7240 1221.2013 0.0000 0.0000 1730.2267 -7410.7349 294.9991 -9140.9617 -7414.7445 297.6840 -1663.8160 -1611.2694 30901.5475 -756.0463 -693.8614
ENERGY: 600000 1.4745 5.9773 8.2693 0.0000 -10658.9529 1398.6113 0.0000 0.0000 1748.4319 -7496.1886 298.1030 -9244.6205 -7463.1213 298.0798 -270.5753 -207.5863 30343.7818 -743.0085 -674.1649
ENERGY: 900000 1.0162 7.9124 7.8637 0.0000 -10580.1072 1352.4914 0.0000 0.0000 1749.7208 -7461.1028 298.3227 -9210.8236 -7476.4205 298.1502 -758.6151 -732.6660 30738.5611 -541.4288 -481.7390
ENERGY: 1200000 2.7460 6.5802 7.1970 0.0000 -10787.4388 1436.2878 0.0000 0.0000 1823.1539 -7511.4739 310.8429 -9334.6278 -7481.8348 299.1292 -69.0326 -1.0306 29977.7624 -487.4093 -431.8068
ENERGY: 1500000 1.8327 5.6691 7.4674 0.0000 -10540.4818 1365.3645 0.0000 0.0000 1717.0921 -7443.0561 292.7596 -9160.1482 -7482.5276 299.0020 -631.0134 -516.0545 30719.8371 -372.8379 -319.9522
TCL: Running FEP window  10: Lambda1 0.44999999999999996 Lambda2 0.49999999999999994 [dLambda 0.04999999999999999]
TCL: Setting parameter firsttimestep to 0
TCL: Setting parameter alchLambda to 0.44999999999999996
Info: NONBONDED TABLE R-SQUARED SPACING: 0.0625
Info: NONBONDED TABLE SIZE: 705 POINTS
TCL: Setting parameter alchLambda2 to 0.49999999999999994
Info: NONBONDED TABLE R-SQUARED SPACING: 0.0625
Info: NONBONDED TABLE SIZE: 705 POINTS
TCL: Running for 1500000 steps
ETITLE: TS BOND ANGLE DIHED IMPRP ELECT VDW BOUNDARY MISC KINETIC TOTAL TEMP POTENTIAL TOTALAVG TEMPAVG PRESSURE GPRESSURE VOLUME PRESSAVG GPRESSAVG
ENERGY: 0 1.8327 5.6691 7.4674 0.0000 -10540.4825 1365.2059 0.0000 0.0000 1716.1725 -7444.1350 292.6028 -9160.3074 -7444.1350 292.6028 -590.8722 -510.6155 30719.8371 -590.8722 -510.6155
ENERGY: 300000 2.1401 5.2133 6.8636 0.0000 -10654.4979 1397.1064 0.0000 0.0000 1761.2964 -7481.8780 300.2963 -9243.1744 -7493.4003 298.4486 57.4483 112.9591 29713.5751 -178.4866 -135.4227
ENERGY: 600000 3.7330 10.0965 9.8303 0.0000 -10632.7347 1409.7500 0.0000 0.0000 1790.2358 -7409.0891 305.2304 -9199.3249 -7478.7396 299.2478 -50.4983 44.9656 30376.6671 -32.8323 24.5585
ENERGY: 900000 3.5819 7.0287 8.2442 0.0000 -10789.5373 1523.2828 0.0000 0.0000 1732.8887 -7514.5110 295.4529 -9247.3997 -7480.4279 298.4019 803.2096 905.6399 29950.8433 3.4460 66.2142
ENERGY: 1200000 0.9446 6.9263 7.6725 0.0000 -10703.0329 1425.7647 0.0000 0.0000 1784.7308 -7476.9940 304.2918 -9261.7248 -7475.3619 299.1680 79.4175 139.4751 29943.9748 21.7612 88.3829
ENERGY: 1500000 0.4918 7.8488 8.4844 0.0000 -10676.6893 1404.2776 0.0000 0.0000 1751.4268 -7504.1598 298.6136 -9255.5867 -7469.2161 300.2616 -298.3807 -196.6696 30249.6007 -14.1124 55.3689
TCL: Running FEP window  11: Lambda1 0.49999999999999994 Lambda2 0.5499999999999999 [dLambda 0.04999999999999999]
TCL: Setting parameter firsttimestep to 0
TCL: Setting parameter alchLambda to 0.49999999999999994
Info: NONBONDED TABLE R-SQUARED SPACING: 0.0625
Info: NONBONDED TABLE SIZE: 705 POINTS
TCL: Setting parameter alchLambda2 to 0.5499999999999999
Info: NONBONDED TABLE R-SQUARED SPACING: 0.0625
Info: NONBONDED TABLE SIZE: 705 POINTS
TCL: Running for 1500000 steps
ETITLE: TS BOND ANGLE DIHED IMPRP ELECT VDW BOUNDARY MISC KINETIC TOTAL TEMP POTENTIAL TOTALAVG TEMPAVG PRESSURE GPRESSURE VOLUME PRESSAVG GPRESSAVG
ENERGY: 0 0.4918 7.8488 8.4844 0.0000 -10676.6880 1404.2908 0.0000 0.0000 1750.5827 -7504.9895 298.4697 -9255.5722 -7504.9895 298.4697 -271.7544 -189.6591 30249.6007 -271.7544 -189.6591
ENERGY: 300000 0.9386 6.5644 8.1567 0.0000 -10708.9925 1430.2127 0.0000 0.0000 1757.8365 -7505.2835 299.7064 -9263.1200 -7517.3824 298.6569 -344.0220 -261.8638 30959.9461 -285.2093 -214.1969
ENERGY: 600000 3.6506 10.6787 6.9458 0.0000 -10709.3556 1340.4564 0.0000 0.0000 1771.5771 -7576.0470 302.0492 -9347.6242 -7520.9505 299.5834 -1320.7178 -1249.9581 30659.8638 -401.7989 -319.9829
ENERGY: 900000 4.1872 5.9049 7.3874 0.0000 -10573.7399 1357.5357 0.0000 0.0000 1771.3743 -7427.3504 302.0146 -9198.7247 -7513.2058 299.4664 -630.1273 -540.4693 30461.5546 -348.9683 -268.4120
ENERGY: 1200000 3.1136 7.0407 8.0476 0.0000 -10715.0070 1432.0672 0.0000 0.0000 1792.1298 -7472.6080 305.5534 -9264.7378 -7507.5581 299.5629 -250.5883 -153.0400 30477.0649 -278.5859 -194.6649
ENERGY: 1500000 1.5959 9.3545 6.7949 0.0000 -10750.0602 1486.2247 0.0000 0.0000 1824.0118 -7422.0784 310.9892 -9246.0903 -7494.5154 299.6346 193.5146 263.0817 30473.6412 -242.5000 -162.3570
TCL: Running FEP window  12: Lambda1 0.5499999999999999 Lambda2 0.6    [dLambda 0.050000000000000044]
TCL: Setting parameter firsttimestep to 0
TCL: Setting parameter alchLambda to 0.5499999999999999
Info: NONBONDED TABLE R-SQUARED SPACING: 0.0625
Info: NONBONDED TABLE SIZE: 705 POINTS
TCL: Setting parameter alchLambda2 to 0.6
Info: NONBONDED TABLE R-SQUARED SPACING: 0.0625
Info: NONBONDED TABLE SIZE: 705 POINTS
TCL: Running for 1500000 steps
ETITLE: TS BOND ANGLE DIHED IMPRP ELECT VDW BOUNDARY MISC KINETIC TOTAL TEMP POTENTIAL TOTALAVG TEMPAVG PRESSURE GPRESSURE VOLUME PRESSAVG GPRESSAVG
ENERGY: 0 1.5959 9.3545 6.7949 0.0000 -10749.9297 1486.6767 0.0000 0.0000 1823.1413 -7422.3664 310.8407 -9245.5077 -7422.3664 310.8407 182.4426 278.5319 30473.6412 182.4426 278.5319
ENERGY: 300000 3.4367 5.9834 7.7026 0.0000 -10730.8695 1437.6022 0.0000 0.0000 1763.4466 -7512.6981 300.6629 -9276.1447 -7518.1779 301.8973 156.1095 188.8299 30218.5245 -172.0702 -109.1434
ENERGY: 600000 1.1815 6.4661 8.1794 0.0000 -10699.1890 1493.0983 0.0000 0.0000 1790.7968 -7399.4670 305.3261 -9190.2638 -7489.7560 302.1327 725.7194 738.9075 30319.7982 -148.3735 -88.4587
ENERGY: 900000 0.5818 8.5044 8.5026 0.0000 -10712.3211 1425.7100 0.0000 0.0000 1732.4116 -7536.6107 295.3716 -9269.0222 -7513.7305 300.2320 -169.4492 -34.2189 30073.0173 -35.2376 36.2228
ENERGY: 1200000 2.1394 5.9840 7.5500 0.0000 -10784.0819 1448.8089 0.0000 0.0000 1802.5544 -7517.0451 307.3307 -9319.5996 -7508.3316 300.9823 -112.5423 -51.0804 30183.3844 -114.2474 -40.9023
ENERGY: 1500000 0.9202 8.4857 7.2691 0.0000 -10806.7565 1508.4272 0.0000 0.0000 1784.0255 -7497.6289 304.1716 -9281.6544 -7501.4332 301.4248 355.5319 441.8639 30226.9629 -13.7975 56.0809
TCL: Running FEP window  13: Lambda1 0.6    Lambda2 0.65   [dLambda 0.050000000000000044]
TCL: Setting parameter firsttimestep to 0
TCL: Setting parameter alchLambda to 0.6
Info: NONBONDED TABLE R-SQUARED SPACING: 0.0625
Info: NONBONDED TABLE SIZE: 705 POINTS
TCL: Setting parameter alchLambda2 to 0.65
Info: NONBONDED TABLE R-SQUARED SPACING: 0.0625
Info: NONBONDED TABLE SIZE: 705 POINTS
TCL: Running for 1500000 steps
ETITLE: TS BOND ANGLE DIHED IMPRP ELECT VDW BOUNDARY MISC KINETIC TOTAL TEMP POTENTIAL TOTALAVG TEMPAVG PRESSURE GPRESSURE VOLUME PRESSAVG GPRESSAVG
ENERGY: 0 0.9202 8.4857 7.2691 0.0000 -10806.4853 1508.8324 0.0000 0.0000 1783.1443 -7497.8337 304.0214 -9280.9780 -7497.8337 304.0214 380.7783 454.6973 30226.9629 380.7783 454.6973
ENERGY: 300000 2.5488 5.0633 7.8185 0.0000 -10853.3739 1524.6107 0.0000 0.0000 1803.5979 -7509.7347 307.5086 -9313.3326 -7497.9158 302.9037 734.0916 777.3688 30104.3550 -87.0695 -25.9492
ENERGY: 600000 1.0059 9.5509 8.4610 0.0000 -10611.3422 1343.2951 0.0000 0.0000 1739.5326 -7509.4966 296.5857 -9249.0293 -7479.5394 304.3536 -830.7270 -787.6490 30752.1863 -301.8069 -259.6669
ENERGY: 900000 1.2769 6.6552 7.9146 0.0000 -10707.4725 1448.3105 0.0000 0.0000 1777.1908 -7466.1246 303.0063 -9243.3154 -7480.1263 302.9184 264.1593 368.4738 30108.9172 -303.1280 -257.6508
ENERGY: 1200000 4.7044 7.7771 7.1140 0.0000 -10782.4495 1518.6865 0.0000 0.0000 1742.0356 -7502.1318 297.0124 -9244.1674 -7479.2305 302.4080 680.9493 755.3549 30050.5129 -193.8179 -139.1431
ENERGY: 1500000 1.2582 6.6854 7.5840 0.0000 -10803.6703 1492.1567 0.0000 0.0000 1753.9495 -7542.0365 299.0437 -9295.9861 -7481.3371 302.5426 292.3421 392.1424 30108.5340 -69.3266 -13.1308
TCL: Running FEP window  14: Lambda1 0.65   Lambda2 0.7000000000000001 [dLambda 0.050000000000000044]
TCL: Setting parameter firsttimestep to 0
TCL: Setting parameter alchLambda to 0.65
Info: NONBONDED TABLE R-SQUARED SPACING: 0.0625
Info: NONBONDED TABLE SIZE: 705 POINTS
TCL: Setting parameter alchLambda2 to 0.7000000000000001
Info: NONBONDED TABLE R-SQUARED SPACING: 0.0625
Info: NONBONDED TABLE SIZE: 705 POINTS
TCL: Running for 1500000 steps
ETITLE: TS BOND ANGLE DIHED IMPRP ELECT VDW BOUNDARY MISC KINETIC TOTAL TEMP POTENTIAL TOTALAVG TEMPAVG PRESSURE GPRESSURE VOLUME PRESSAVG GPRESSAVG
ENERGY: 0 1.2582 6.6854 7.5840 0.0000 -10804.4224 1492.9058 0.0000 0.0000 1753.0579 -7542.9312 298.8917 -9295.9891 -7542.9312 298.8917 324.2080 408.7809 30108.5340 324.2080 408.7809
ENERGY: 300000 1.1740 8.0950 8.5343 0.0000 -10729.3861 1432.5938 0.0000 0.0000 1766.5425 -7512.4464 301.1908 -9278.9890 -7488.8682 301.6056 -187.6460 -110.2790 30469.4572 -58.6980 -8.4775
ENERGY: 600000 2.4091 4.6289 8.5307 0.0000 -10705.5686 1433.8176 0.0000 0.0000 1840.0242 -7416.1581 313.7192 -9256.1823 -7475.8511 303.1416 138.8355 177.6462 30347.8029 103.8626 146.0689
ENERGY: 900000 2.0735 8.1496 8.1173 0.0000 -10533.5497 1372.3042 0.0000 0.0000 1796.0087 -7346.8964 306.2147 -9142.9051 -7466.9059 302.6347 -286.0810 -188.8024 30410.8195 -9.3316 36.1438
ENERGY: 1200000 2.0975 7.8566 6.4775 0.0000 -10523.9019 1359.8580 0.0000 0.0000 1720.5941 -7427.0182 293.3567 -9147.6122 -7469.3354 302.3195 -621.6720 -508.9346 30769.7541 -89.2242 -37.1568
ENERGY: 1500000 1.9359 4.0839 7.6767 0.0000 -10530.2804 1287.9200 0.0000 0.0000 1771.9244 -7456.7395 302.1084 -9228.6640 -7465.8297 301.6668 -1164.6666 -1088.6240 30227.6975 -199.7544 -138.8673
TCL: Running FEP window  15: Lambda1 0.7000000000000001 Lambda2 0.7500000000000001 [dLambda 0.050000000000000044]
TCL: Setting parameter firsttimestep to 0
TCL: Setting parameter alchLambda to 0.7000000000000001
Info: NONBONDED TABLE R-SQUARED SPACING: 0.0625
Info: NONBONDED TABLE SIZE: 705 POINTS
TCL: Setting parameter alchLambda2 to 0.7500000000000001
Info: NONBONDED TABLE R-SQUARED SPACING: 0.0625
Info: NONBONDED TABLE SIZE: 705 POINTS
TCL: Running for 1500000 steps
ETITLE: TS BOND ANGLE DIHED IMPRP ELECT VDW BOUNDARY MISC KINETIC TOTAL TEMP POTENTIAL TOTALAVG TEMPAVG PRESSURE GPRESSURE VOLUME PRESSAVG GPRESSAVG
ENERGY: 0 1.9359 4.0839 7.6767 0.0000 -10530.8309 1287.6478 0.0000 0.0000 1771.0238 -7458.4629 301.9548 -9229.4867 -7458.4629 301.9548 -1178.6306 -1082.4594 30227.6975 -1178.6306 -1082.4594
ENERGY: 300000 1.2459 8.1797 7.2699 0.0000 -10724.4128 1476.1735 0.0000 0.0000 1776.6850 -7454.8588 302.9201 -9231.5438 -7487.8468 300.4724 525.7887 595.7941 29935.8525 -26.1884 34.0425
ENERGY: 600000 0.6897 5.7141 8.9576 0.0000 -10719.9357 1407.6322 0.0000 0.0000 1804.8039 -7492.1383 307.7143 -9296.9421 -7488.1905 302.1008 -298.3750 -287.0660 30416.5795 34.7252 73.1332
ENERGY: 900000 2.9855 10.4089 6.9400 0.0000 -10695.7122 1465.4026 0.0000 0.0000 1740.6189 -7469.3562 296.7709 -9209.9751 -7487.4321 301.6114 648.3566 688.8506 29817.5225 149.4434 188.4436
ENERGY: 1200000 0.8286 8.8990 6.4569 0.0000 -10810.3261 1443.1567 0.0000 0.0000 1807.1957 -7543.7892 308.1221 -9350.9849 -7487.1518 302.4461 -134.0928 -52.4053 30256.6387 103.4767 143.6667
ENERGY: 1500000 0.9037 9.2351 8.1538 0.0000 -10657.1843 1462.2104 0.0000 0.0000 1834.1459 -7342.5353 312.7170 -9176.6812 -7485.1838 301.5351 414.9224 488.9577 30745.0014 127.6121 173.1336
TCL: Running FEP window  16: Lambda1 0.7500000000000001 Lambda2 0.8000000000000002 [dLambda 0.050000000000000044]
TCL: Setting parameter firsttimestep to 0
TCL: Setting parameter alchLambda to 0.7500000000000001
Info: NONBONDED TABLE R-SQUARED SPACING: 0.0625
Info: NONBONDED TABLE SIZE: 705 POINTS
TCL: Setting parameter alchLambda2 to 0.8000000000000002
Info: NONBONDED TABLE R-SQUARED SPACING: 0.0625
Info: NONBONDED TABLE SIZE: 705 POINTS
TCL: Running for 1500000 steps
ETITLE: TS BOND ANGLE DIHED IMPRP ELECT VDW BOUNDARY MISC KINETIC TOTAL TEMP POTENTIAL TOTALAVG TEMPAVG PRESSURE GPRESSURE VOLUME PRESSAVG GPRESSAVG
ENERGY: 0 0.9037 9.2351 8.1538 0.0000 -10658.0109 1462.1006 0.0000 0.0000 1833.2695 -7344.3482 312.5676 -9177.6177 -7344.3482 312.5676 408.0027 493.4385 30745.0014 408.0027 493.4385
ENERGY: 300000 3.0113 8.6528 8.2266 0.0000 -10621.1683 1378.8550 0.0000 0.0000 1770.8888 -7451.5339 301.9318 -9222.4227 -7463.1557 305.0107 -396.1301 -358.1487 30432.7057 96.8005 170.7303
ENERGY: 600000 1.0579 13.9704 6.9284 0.0000 -10798.1873 1435.5759 0.0000 0.0000 1808.8862 -7531.7684 308.4103 -9340.6547 -7472.7129 304.7821 -128.5938 10.3708 29932.4324 24.0135 100.5909
ENERGY: 900000 1.6400 5.9933 7.3952 0.0000 -10628.2289 1391.6183 0.0000 0.0000 1757.6482 -7463.9338 299.6743 -9221.5820 -7489.0412 302.7565 -208.7944 -113.3474 30410.8298 -98.7791 -25.9961
ENERGY: 1200000 1.1062 7.9209 7.0437 0.0000 -10652.6570 1404.3124 0.0000 0.0000 1714.9914 -7517.2824 292.4015 -9232.2737 -7491.8835 301.6985 -460.1877 -376.0327 31000.8907 -71.3172 7.2104
ENERGY: 1500000 2.0373 8.3201 7.9634 0.0000 -10579.0213 1302.1826 0.0000 0.0000 1773.6418 -7484.8761 302.4012 -9258.5178 -7491.4166 302.0202 -1177.7325 -1114.3223 30891.1680 -158.4406 -82.5126
TCL: Running FEP window  17: Lambda1 0.8000000000000002 Lambda2 0.8500000000000002 [dLambda 0.050000000000000044]
TCL: Setting parameter firsttimestep to 0
TCL: Setting parameter alchLambda to 0.8000000000000002
Info: NONBONDED TABLE R-SQUARED SPACING: 0.0625
Info: NONBONDED TABLE SIZE: 705 POINTS
TCL: Setting parameter alchLambda2 to 0.8500000000000002
Info: NONBONDED TABLE R-SQUARED SPACING: 0.0625
Info: NONBONDED TABLE SIZE: 705 POINTS
TCL: Running for 1500000 steps
ETITLE: TS BOND ANGLE DIHED IMPRP ELECT VDW BOUNDARY MISC KINETIC TOTAL TEMP POTENTIAL TOTALAVG TEMPAVG PRESSURE GPRESSURE VOLUME PRESSAVG GPRESSAVG
ENERGY: 0 2.0373 8.3201 7.9634 0.0000 -10580.0756 1302.0248 0.0000 0.0000 1772.7817 -7486.9482 302.2546 -9259.7299 -7486.9482 302.2546 -1182.9517 -1108.4657 30891.1680 -1182.9517 -1108.4657
ENERGY: 300000 5.0285 9.2730 6.8132 0.0000 -10773.7818 1433.4333 0.0000 0.0000 1718.6547 -7600.5791 293.0261 -9319.2338 -7544.3261 301.8896 -278.0522 -237.3644 30401.6274 -145.2790 -91.1130
ENERGY: 600000 1.5083 7.1619 9.3014 0.0000 -10816.7292 1481.2208 0.0000 0.0000 1686.7612 -7630.7756 287.5883 -9317.5368 -7541.1544 298.2919 394.6201 459.7543 29822.2791 18.2787 80.9559
ENERGY: 900000 0.4189 9.5772 8.3582 0.0000 -10872.9240 1549.8553 0.0000 0.0000 1748.1774 -7556.5371 298.0596 -9304.7145 -7521.4807 299.6992 632.1606 630.1870 30720.9197 146.7499 201.2342
ENERGY: 1200000 1.8419 5.3215 6.7182 0.0000 -10649.1681 1416.6004 0.0000 0.0000 1782.9025 -7435.7837 303.9801 -9218.6862 -7505.8572 300.0774 -5.3228 79.6947 30401.7523 91.8681 148.9662
ENERGY: 1500000 2.2038 8.7460 7.4690 0.0000 -10703.7457 1416.2597 0.0000 0.0000 1772.6622 -7496.4051 302.2342 -9269.0673 -7508.7556 300.4112 -87.4957 32.6091 30204.7376 98.8570 160.1626
TCL: Running FEP window  18: Lambda1 0.8500000000000002 Lambda2 0.9000000000000002 [dLambda 0.050000000000000044]
TCL: Setting parameter firsttimestep to 0
TCL: Setting parameter alchLambda to 0.8500000000000002
Info: NONBONDED TABLE R-SQUARED SPACING: 0.0625
Info: NONBONDED TABLE SIZE: 705 POINTS
TCL: Setting parameter alchLambda2 to 0.9000000000000002
Info: NONBONDED TABLE R-SQUARED SPACING: 0.0625
Info: NONBONDED TABLE SIZE: 705 POINTS
TCL: Running for 1500000 steps
ETITLE: TS BOND ANGLE DIHED IMPRP ELECT VDW BOUNDARY MISC KINETIC TOTAL TEMP POTENTIAL TOTALAVG TEMPAVG PRESSURE GPRESSURE VOLUME PRESSAVG GPRESSAVG
ENERGY: 0 2.2038 8.7460 7.4690 0.0000 -10704.7342 1416.8734 0.0000 0.0000 1771.7769 -7497.6652 302.0832 -9269.4421 -7497.6652 302.0832 -43.0462 48.8090 30204.7376 -43.0462 48.8090
ENERGY: 300000 0.5915 5.7180 8.1861 0.0000 -10790.6237 1456.4604 0.0000 0.0000 1772.8000 -7546.8678 302.2577 -9319.6677 -7485.7295 304.6289 -5.1666 73.4821 30020.9005 -170.2554 -105.5644
ENERGY: 600000 2.7466 6.5851 8.4407 0.0000 -10679.6948 1418.2036 0.0000 0.0000 1750.6138 -7493.1050 298.4750 -9243.7188 -7487.1375 302.5146 -272.5812 -205.9646 30608.3479 -80.9855 -27.4214
ENERGY: 900000 2.7576 6.5352 9.6909 0.0000 -10696.3311 1370.2356 0.0000 0.0000 1774.5377 -7532.5742 302.5540 -9307.1119 -7499.7828 302.4715 -666.9099 -692.5550 30573.7153 -12.7761 27.7832
ENERGY: 1200000 3.2925 3.7260 7.1954 0.0000 -10967.7049 1567.4721 0.0000 0.0000 1746.2065 -7639.8125 297.7236 -9386.0190 -7512.5050 301.8808 641.7387 693.0034 30278.3751 51.7001 90.7385
ENERGY: 1500000 1.9462 5.6751 7.5852 0.0000 -10690.3169 1390.7080 0.0000 0.0000 1770.4963 -7513.9061 301.8649 -9284.4024 -7514.0963 301.8648 -381.0706 -307.3659 30220.1371 6.6001 49.8271
TCL: Running FEP window  19: Lambda1 0.9000000000000002 Lambda2 0.9500000000000003 [dLambda 0.050000000000000044]
TCL: Setting parameter firsttimestep to 0
TCL: Setting parameter alchLambda to 0.9000000000000002
Info: NONBONDED TABLE R-SQUARED SPACING: 0.0625
Info: NONBONDED TABLE SIZE: 705 POINTS
TCL: Setting parameter alchLambda2 to 0.9500000000000003
Info: NONBONDED TABLE R-SQUARED SPACING: 0.0625
Info: NONBONDED TABLE SIZE: 705 POINTS
TCL: Running for 1500000 steps
ETITLE: TS BOND ANGLE DIHED IMPRP ELECT VDW BOUNDARY MISC KINETIC TOTAL TEMP POTENTIAL TOTALAVG TEMPAVG PRESSURE GPRESSURE VOLUME PRESSAVG GPRESSAVG
ENERGY: 0 1.9462 5.6751 7.5852 0.0000 -10691.5384 1391.6817 0.0000 0.0000 1769.6473 -7515.0029 301.7202 -9284.6502 -7515.0029 301.7202 -385.2339 -286.1931 30220.1371 -385.2339 -286.1931
ENERGY: 300000 1.7956 9.8640 7.4429 0.0000 -10809.5337 1493.5409 0.0000 0.0000 1720.5879 -7576.3025 293.3557 -9296.8903 -7530.8199 298.3752 131.7613 203.9797 30369.9311 -34.1227 41.5521
ENERGY: 600000 0.3874 6.0040 8.8055 0.0000 -10635.4183 1387.9915 0.0000 0.0000 1795.3966 -7436.8334 306.1103 -9232.2300 -7489.2466 301.3320 -435.1835 -377.4354 30870.1148 -135.5745 -68.6178
ENERGY: 900000 1.4059 8.8859 9.7057 0.0000 -10782.1209 1472.1397 0.0000 0.0000 1754.7990 -7535.1848 299.1886 -9289.9838 -7491.9910 301.2572 489.2934 476.1092 30011.8592 -98.3811 -49.1155
ENERGY: 1200000 2.1057 12.2121 7.6040 0.0000 -10646.6525 1436.0914 0.0000 0.0000 1712.2281 -7476.4113 291.9303 -9188.6394 -7497.0413 300.9130 293.0508 344.5078 29934.0727 -44.0111 9.1576
ENERGY: 1500000 1.3080 7.5355 8.4756 0.0000 -10728.5863 1437.3630 0.0000 0.0000 1827.3456 -7446.5585 311.5576 -9273.9041 -7489.8845 301.8797 158.1989 224.3775 30127.6204 -41.8016 13.2233
TCL: Running FEP window  20: Lambda1 0.9500000000000003 Lambda2 1.0    [dLambda 0.04999999999999971]
TCL: Setting parameter firsttimestep to 0
TCL: Setting parameter alchLambda to 0.9500000000000003
Info: NONBONDED TABLE R-SQUARED SPACING: 0.0625
Info: NONBONDED TABLE SIZE: 705 POINTS
TCL: Setting parameter alchLambda2 to 1.0
Info: NONBONDED TABLE R-SQUARED SPACING: 0.0625
Info: NONBONDED TABLE SIZE: 705 POINTS
TCL: Running for 1500000 steps
ETITLE: TS BOND ANGLE DIHED IMPRP ELECT VDW BOUNDARY MISC KINETIC TOTAL TEMP POTENTIAL TOTALAVG TEMPAVG PRESSURE GPRESSURE VOLUME PRESSAVG GPRESSAVG
ENERGY: 0 1.3080 7.5355 8.4756 0.0000 -10729.9510 1439.2083 0.0000 0.0000 1826.4095 -7447.0141 311.3979 -9273.4235 -7447.0141 311.3979 188.4974 259.2658 30127.6204 188.4974 259.2658
ENERGY: 300000 1.1795 9.6276 9.8369 0.0000 -10804.0421 1526.5586 0.0000 0.0000 1755.8663 -7500.9731 299.3705 -9256.8394 -7504.5911 301.2777 682.9208 660.6126 30442.9708 90.8390 120.8784
ENERGY: 600000 2.7060 7.5317 9.0655 0.0000 -10719.3645 1433.4863 0.0000 0.0000 1753.6876 -7512.8875 298.9991 -9266.5751 -7514.8766 300.6848 -17.5032 4.3388 30200.5898 14.9870 59.3153
ENERGY: 900000 4.2323 8.7585 9.7403 0.0000 -10684.1490 1433.2579 0.0000 0.0000 1770.3714 -7457.7886 301.8436 -9228.1600 -7507.0735 300.3573 173.5340 229.6554 30241.8898 24.8211 66.2282
ENERGY: 1200000 2.3878 13.8979 10.7116 0.0000 -10687.0237 1407.8105 0.0000 0.0000 1776.6398 -7475.5761 302.9124 -9252.2159 -7499.5041 300.7210 -429.9388 -323.7969 30857.0486 -62.1856 -8.7819
ENERGY: 1500000 1.3258 6.6092 10.0523 0.0000 -10587.2598 1376.2325 0.0000 0.0000 1778.6857 -7414.3544 303.2612 -9193.0402 -7503.5046 300.1993 -433.0692 -382.7137 31046.7175 -86.2160 -31.4588
TCL: Exiting due to exit command.
