Info: SIMULATION PARAMETERS:
Info: TIMESTEP               2
Info: NUMBER OF STEPS        0
Info: STEPS PER CYCLE        10
Info: PERIODIC CELL BASIS 1  31.5062 0 0
Info: PERIODIC CELL BASIS 2  0 31.3084 0
Info: PERIODIC CELL BASIS 3  0 0 30.5865
Info: PERIODIC CELL CENTER   0 0 0
Info: WRAPPING WATERS AROUND PERIODIC BOUNDARIES ON OUTPUT.
Info: WRAPPING ALL CLUSTERS AROUND PERIODIC BOUNDARIES ON OUTPUT.
Info: FIRST LDB TIMESTEP     50
Info: LAST LDB TIMESTEP     -1
Info: HOM BACKGROUND SCALING 1
Info: PME BACKGROUND SCALING 1
Info: MIN ATOMS PER PATCH    40
Info: EMPTY PATCH LOAD       40 ATOMS
Info: VELOCITY FILE          mobley_5627459_equil.vel
Info: CENTER OF MASS MOVING INITIALLY? NO
Info: DIELECTRIC             1
Info: EXCLUDE                SCALED ONE-FOUR
Info: 1-4 ELECTROSTATICS SCALED BY 0.833333
Info: MODIFIED 1-4 VDW PARAMETERS WILL BE USED
Info: DCD FILENAME           mobley_5627459_prod.dcd
Info: DCD FREQUENCY          100000
Info: DCD FIRST STEP         100000
Info: DCD FILE WILL CONTAIN UNIT CELL DATA
Info: XST FILENAME           mobley_5627459_prod.xst
Info: XST FREQUENCY          100000
Info: NO VELOCITY DCD OUTPUT
Info: NO FORCE DCD OUTPUT
Info: OUTPUT FILENAME        mobley_5627459_prod
Info: BINARY OUTPUT FILES WILL BE USED
Info: RESTART FILENAME       mobley_5627459_prod.restart
Info: RESTART FREQUENCY      100000
Info: BINARY RESTART FILES WILL BE USED
Info: CUTOFF                 9
Info: PAIRLIST DISTANCE      11
Info: PAIRLIST SHRINK RATE   0.01
Info: PAIRLIST GROW RATE     0.01
Info: PAIRLIST TRIGGER       0.3
Info: PAIRLISTS PER CYCLE    2
Info: PAIRLISTS ENABLED
Info: MARGIN                 2
Info: HYDROGEN GROUP CUTOFF  2.5
Info: PATCH DIMENSION        15.5
Info: ENERGY OUTPUT STEPS    100000
Info: ENERGY EVALUATION STEPS    100000
Info: OUTPUT ENERGY PRECISION 4
Info: CROSSTERM ENERGY INCLUDED IN DIHEDRAL
Info: TIMING OUTPUT STEPS    1000000
Info: PRESSURE OUTPUT STEPS  100000
Info: ALCHEMICAL FEP ON
Info: FEP CURRENT LAMBDA VALUE     1
Info: FEP COMPARISON LAMBDA VALUE  0.95
Info: FEP INTRA-ALCHEMICAL NON-BONDED INTERACTIONS WILL BE RETAINED
Info: FEP INTRA-ALCHEMICAL BONDED INTERACTIONS WILL BE RETAINED
Info: FEP VDW SHIFTING COEFFICIENT 5
Info: FEP ELEC. ACTIVE FOR ANNIHILATED PARTICLES BETWEEN LAMBDA = 0 AND LAMBDA = 0.5
Info: FEP ELEC. ACTIVE FOR EXNIHILATED PARTICLES BETWEEN LAMBDA = 0.5 AND LAMBDA = 1
Info: FEP VDW ACTIVE FOR ANNIHILATED PARTICLES BETWEEN LAMBDA = 0 AND LAMBDA = 1
Info: FEP VDW ACTIVE FOR EXNIHILATED PARTICLES BETWEEN LAMBDA = 0 AND LAMBDA = 1
Info: FEP BOND ACTIVE FOR ANNIHILATED PARTICLES BETWEEN LAMBDA = 1 AND LAMBDA = 1
Info: FEP BOND ACTIVE FOR EXNIHILATED PARTICLES BETWEEN LAMBDA = 0 AND LAMBDA = 0
Info: LANGEVIN DYNAMICS ACTIVE
Info: LANGEVIN TEMPERATURE   300
Info: LANGEVIN USING BBK INTEGRATOR
Info: LANGEVIN DAMPING COEFFICIENT IS 1 INVERSE PS
Info: LANGEVIN DYNAMICS APPLIED TO HYDROGENS
Info: LANGEVIN PISTON PRESSURE CONTROL ACTIVE
Info:        TARGET PRESSURE IS 1.01325 BAR
Info:     OSCILLATION PERIOD IS 50 FS
Info:             DECAY TIME IS 25 FS
Info:     PISTON TEMPERATURE IS 300 K
Info:       PRESSURE CONTROL IS GROUP-BASED
Info:    INITIAL STRAIN RATE IS -0.000330654 -0.000330654 -0.000330654
Info:       CELL FLUCTUATION IS ISOTROPIC
Info: PARTICLE MESH EWALD (PME) ACTIVE
Info: PME TOLERANCE               1e-06
Info: PME EWALD COEFFICIENT       0.348832
Info: PME INTERPOLATION ORDER     4
Info: PME GRID DIMENSIONS         32 32 32
Info: PME MAXIMUM GRID SPACING    1
Info: PME CALCULATION WILL BE PERFORMED ON GPU
Info: FULL ELECTROSTATIC EVALUATION FREQUENCY      2
Info: USING VERLET I (r-RESPA) MTS SCHEME.
Info: C1 SPLITTING OF LONG RANGE ELECTROSTATICS
Info: PLACING ATOMS IN PATCHES BY HYDROGEN GROUPS
Info: RIGID BONDS TO HYDROGEN : ALL
Info:         ERROR TOLERANCE : 1e-08
Info:          MAX ITERATIONS : 100
Info: RIGID WATER USING SETTLE ALGORITHM
Info: RANDOM NUMBER SEED     1743731074
Info: USE HYDROGEN BONDS?    NO
Info: Using AMBER format force field!
Info: AMBER PARM FILE        mobley_5627459.prmtop
Info: COORDINATE PDB         mobley_5627459.pdb
Info: Exclusions will be read from PARM file!
Info: SCNB (VDW SCALING)     2
Info: USING ARITHMETIC MEAN TO COMBINE L-J SIGMA PARAMETERS
Info: BINARY COORDINATES     mobley_5627459_equil.coor
Info: SUMMARY OF PARAMETERS:
Info: 7 BONDS
Info: 8 ANGLES
Info:   8 HARMONIC
Info:   0 COSINE-BASED
Info: 8 DIHEDRAL
Info: 0 IMPROPER
Info: 0 CROSSTERM
Info: 0 VDW
Info: 28 VDW_PAIRS
Info: 0 NBTHOLE_PAIRS
Info: To read alchdata from file: mobley_5627459.pdb
Info: To read alchflag data from column: 5
Info: STRUCTURE SUMMARY:
Info: 2968 ATOMS
Info: 2967 BONDS
Info: 21 ANGLES
Info: 27 DIHEDRALS
Info: 0 IMPROPERS
Info: 0 CROSSTERMS
Info: 3012 EXCLUSIONS
Info: 2963 RIGID BONDS
Info: ALCH: 0 ATOMS TO DISAPPEAR IN FINAL STATE
Info: ALCH: 13 ATOMS TO APPEAR IN FINAL STATE
Info: 5941 DEGREES OF FREEDOM
Info: 990 HYDROGEN GROUPS
Info: 4 ATOMS IN LARGEST HYDROGEN GROUP
Info: 990 MIGRATION GROUPS
Info: 4 ATOMS IN LARGEST MIGRATION GROUP
Info: TOTAL MASS = 17817.9 amu
Info: TOTAL CHARGE = 0.000200025 e
Info: MASS DENSITY = 0.980682 g/cm^3
Info: ATOM DENSITY = 0.0983733 atoms/A^3
Info: ADDED 0 IMPLICIT EXCLUSIONS
Info: NONBONDED TABLE R-SQUARED SPACING: 0.0625
Info: NONBONDED TABLE SIZE: 705 POINTS
Info: REDUCING NUMBER OF PATCHES TO IMPROVE LOAD BALANCE
Info: REMOVING COM VELOCITY 0.0548934 0.178386 -0.134822
Info: Use 3D box decompostion in PME FFT.
Info: Updated CUDA force table with 4096 elements.
Info: Updated CUDA LJ table with 7 x 7 elements.
Info: Found 16 unique exclusion lists needing 32 bytes
TCL: Running for 1500000 steps
ETITLE: TS BOND ANGLE DIHED IMPRP ELECT VDW BOUNDARY MISC KINETIC TOTAL TEMP POTENTIAL TOTALAVG TEMPAVG PRESSURE GPRESSURE VOLUME PRESSAVG GPRESSAVG
ENERGY: 0 1.1067 6.4822 0.5362 0.0000 -10775.1308 1461.0414 0.0000 0.0000 1756.5920 -7549.3723 297.5786 -9305.9643 -7549.3723 297.5786 197.2057 300.7522 30170.7824 197.2057 300.7522
ENERGY: 300000 1.1386 6.0984 0.3776 0.0000 -10639.0853 1401.1523 0.0000 0.0000 1780.5096 -7449.8089 301.6304 -9230.3185 -7491.4566 300.7919 -267.2402 -219.2015 30836.3907 112.4851 154.4678
ENERGY: 600000 0.5814 6.0926 0.7355 0.0000 -10749.6347 1430.2338 0.0000 0.0000 1787.6902 -7524.3011 302.8469 -9311.9913 -7494.5601 300.1238 -123.3489 4.7552 30675.1056 85.0919 140.8790
ENERGY: 900000 2.9259 3.6106 0.5843 0.0000 -10655.1334 1365.2938 0.0000 0.0000 1753.2341 -7529.4848 297.0098 -9282.7189 -7500.0526 300.3768 -598.0003 -492.4230 30707.6755 14.8721 69.3075
ENERGY: 1200000 2.2370 6.4557 2.5785 0.0000 -10755.7118 1439.3212 0.0000 0.0000 1766.1111 -7539.0083 299.1912 -9305.1194 -7509.0840 300.5235 -218.0038 -164.7705 30591.1527 -83.1031 -26.6238
ENERGY: 1500000 1.0404 7.2364 1.0041 0.0000 -10752.3329 1449.3129 0.0000 0.0000 1748.8111 -7544.9281 296.2605 -9293.7392 -7522.1562 299.7258 46.2946 94.5182 30419.4628 -31.3966 34.6884
TCL: Running FEP window   2: Lambda1 0.95   Lambda2 0.8999999999999999 [dLambda -0.050000000000000044]
TCL: Setting parameter firsttimestep to 0
TCL: Setting parameter alchLambda to 0.95
Info: NONBONDED TABLE R-SQUARED SPACING: 0.0625
Info: NONBONDED TABLE SIZE: 705 POINTS
TCL: Setting parameter alchLambda2 to 0.8999999999999999
Info: NONBONDED TABLE R-SQUARED SPACING: 0.0625
Info: NONBONDED TABLE SIZE: 705 POINTS
TCL: Running for 1500000 steps
ETITLE: TS BOND ANGLE DIHED IMPRP ELECT VDW BOUNDARY MISC KINETIC TOTAL TEMP POTENTIAL TOTALAVG TEMPAVG PRESSURE GPRESSURE VOLUME PRESSAVG GPRESSAVG
ENERGY: 0 1.0404 7.2364 1.0041 0.0000 -10751.3104 1448.8080 0.0000 0.0000 1747.9133 -7545.3082 296.1084 -9293.2216 -7545.3082 296.1084 -6.2551 78.9858 30419.4628 -6.2551 78.9858
ENERGY: 300000 3.7995 4.2181 0.4059 0.0000 -10859.7939 1482.5091 0.0000 0.0000 1776.6813 -7592.1800 300.9819 -9368.8613 -7524.5432 299.3320 22.7605 73.7691 30346.0316 -82.5446 -38.6527
ENERGY: 600000 2.0072 4.9161 0.6149 0.0000 -10915.0745 1498.8606 0.0000 0.0000 1724.3630 -7684.3127 292.1188 -9408.6757 -7545.9627 298.6810 -131.8052 -69.4148 30863.1595 34.7379 85.7680
ENERGY: 900000 0.7604 6.2466 1.0840 0.0000 -10834.7334 1514.4397 0.0000 0.0000 1797.3240 -7514.8787 304.4789 -9312.2026 -7538.7216 299.7812 163.0823 242.3157 31010.7462 -11.1200 42.9761
ENERGY: 1200000 1.5908 3.3774 3.6514 0.0000 -10725.9143 1437.2904 0.0000 0.0000 1765.1259 -7514.8784 299.0243 -9280.0043 -7539.3666 299.8224 -109.8866 -38.5580 30812.8042 -52.0482 3.1895
ENERGY: 1500000 2.6031 7.1292 0.5418 0.0000 -10694.0588 1398.0525 0.0000 0.0000 1815.9164 -7469.8158 307.6286 -9285.7322 -7535.5865 300.3832 -434.4815 -418.1179 31012.9723 -17.8487 36.8249
TCL: Running FEP window   3: Lambda1 0.8999999999999999 Lambda2 0.8499999999999999 [dLambda -0.050000000000000044]
TCL: Setting parameter firsttimestep to 0
TCL: Setting parameter alchLambda to 0.8999999999999999
Info: NONBONDED TABLE R-SQUARED SPACING: 0.0625
Info: NONBONDED TABLE SIZE: 705 POINTS
TCL: Setting parameter alchLambda2 to 0.8499999999999999
Info: NONBONDED TABLE R-SQUARED SPACING: 0.0625
Info: NONBONDED TABLE SIZE: 705 POINTS
TCL: Running for 1500000 steps
ETITLE: TS BOND ANGLE DIHED IMPRP ELECT VDW BOUNDARY MISC KINETIC TOTAL TEMP POTENTIAL TOTALAVG TEMPAVG PRESSURE GPRESSURE VOLUME PRESSAVG GPRESSAVG
ENERGY: 0 2.6031 7.1292 0.5418 0.0000 -10692.8147 1397.4641 0.0000 0.0000 1815.0302 -7470.0463 307.4785 -9285.0766 -7470.0463 307.4785 -522.5888 -432.1066 31012.9723 -522.5888 -432.1066
ENERGY: 300000 0.4826 5.2699 0.2289 0.0000 -10691.0437 1395.1571 0.0000 0.0000 1767.9042 -7522.0010 299.4950 -9289.9052 -7537.5752 301.3754 -577.5448 -483.5652 30833.5001 -260.4620 -193.7809
ENERGY: 600000 1.0916 4.8956 0.7617 0.0000 -10713.3029 1450.9881 0.0000 0.0000 1759.0706 -7496.4953 297.9985 -9255.5659 -7513.6927 302.0229 229.4460 198.4659 30337.0111 28.3320 66.6878
ENERGY: 900000 0.7578 6.2608 0.9592 0.0000 -10612.3361 1387.5058 0.0000 0.0000 1813.3486 -7403.5039 307.1936 -9216.8525 -7511.0850 301.4183 -521.1050 -447.6604 30885.1985 -89.4405 -43.3935
ENERGY: 1200000 0.1150 6.5600 2.2876 0.0000 -10863.8267 1538.2496 0.0000 0.0000 1784.6910 -7531.9234 302.3388 -9316.6144 -7518.7464 301.2610 577.3405 675.0112 30708.0430 4.3969 54.5697
ENERGY: 1500000 1.1551 9.2115 1.3737 0.0000 -10590.8731 1374.8737 0.0000 0.0000 1773.9584 -7430.3008 300.5206 -9204.2592 -7515.5707 301.4476 -505.0652 -447.0468 31079.3582 -75.0727 -17.7895
TCL: Running FEP window   4: Lambda1 0.8499999999999999 Lambda2 0.7999999999999998 [dLambda -0.050000000000000044]
TCL: Setting parameter firsttimestep to 0
TCL: Setting parameter alchLambda to 0.8499999999999999
Info: NONBONDED TABLE R-SQUARED SPACING: 0.0625
Info: NONBONDED TABLE SIZE: 705 POINTS
TCL: Setting parameter alchLambda2 to 0.7999999999999998
Info: NONBONDED TABLE R-SQUARED SPACING: 0.0625
Info: NONBONDED TABLE SIZE: 705 POINTS
TCL: Running for 1500000 steps
ETITLE: TS BOND ANGLE DIHED IMPRP ELECT VDW BOUNDARY MISC KINETIC TOTAL TEMP POTENTIAL TOTALAVG TEMPAVG PRESSURE GPRESSURE VOLUME PRESSAVG GPRESSAVG
ENERGY: 0 1.1551 9.2115 1.3737 0.0000 -10589.3460 1374.7690 0.0000 0.0000 1773.0949 -7429.7418 300.3743 -9202.8368 -7429.7418 300.3743 -557.5167 -451.9985 31079.3582 -557.5167 -451.9985
ENERGY: 300000 2.6909 3.2886 1.7537 0.0000 -10734.3655 1413.7975 0.0000 0.0000 1806.6119 -7506.2229 306.0523 -9312.8348 -7503.9766 301.2287 -226.3998 -198.9114 30549.7048 146.8101 202.7764
ENERGY: 600000 0.6849 6.2458 0.6369 0.0000 -10738.9751 1383.0805 0.0000 0.0000 1800.1495 -7548.1774 304.9576 -9348.3270 -7506.5834 301.5318 -536.8978 -466.4727 30381.3205 22.1378 100.4317
ENERGY: 900000 1.2157 6.4166 3.4666 0.0000 -10797.5224 1476.6131 0.0000 0.0000 1769.1020 -7540.7083 299.6979 -9309.8103 -7506.8768 301.5741 15.4998 102.5256 30903.0610 -102.2465 -27.2783
ENERGY: 1200000 0.7419 3.5862 0.5834 0.0000 -10851.8089 1520.3035 0.0000 0.0000 1759.4809 -7567.1130 298.0680 -9326.5939 -7515.4607 301.3214 593.1172 631.1125 30545.0724 -51.5421 23.1192
ENERGY: 1500000 2.6891 6.0801 1.2735 0.0000 -10809.5096 1413.8197 0.0000 0.0000 1769.5048 -7616.1424 299.7661 -9385.6472 -7516.7742 301.3755 -630.4550 -629.8104 30770.4747 -35.7751 31.5398
TCL: Running FEP window   5: Lambda1 0.7999999999999998 Lambda2 0.7499999999999998 [dLambda -0.050000000000000044]
TCL: Setting parameter firsttimestep to 0
TCL: Setting parameter alchLambda to 0.7999999999999998
Info: NONBONDED TABLE R-SQUARED SPACING: 0.0625
Info: NONBONDED TABLE SIZE: 705 POINTS
TCL: Setting parameter alchLambda2 to 0.7499999999999998
Info: NONBONDED TABLE R-SQUARED SPACING: 0.0625
Info: NONBONDED TABLE SIZE: 705 POINTS
TCL: Running for 1500000 steps
ETITLE: TS BOND ANGLE DIHED IMPRP ELECT VDW BOUNDARY MISC KINETIC TOTAL TEMP POTENTIAL TOTALAVG TEMPAVG PRESSURE GPRESSURE VOLUME PRESSAVG GPRESSAVG
ENERGY: 0 2.6891 6.0801 1.2735 0.0000 -10808.6168 1413.9702 0.0000 0.0000 1768.6006 -7616.0034 299.6130 -9384.6039 -7616.0034 299.6130 -723.8027 -634.8721 30770.4747 -723.8027 -634.8721
ENERGY: 300000 0.3092 3.3840 1.4340 0.0000 -10833.9285 1463.6289 0.0000 0.0000 1756.9030 -7608.2694 297.6313 -9365.1724 -7571.6775 300.7362 146.9086 114.8907 30545.4945 -171.7561 -120.3936
ENERGY: 600000 0.7252 4.1040 3.4286 0.0000 -11021.9552 1610.0072 0.0000 0.0000 1720.4999 -7683.1903 291.4644 -9403.6902 -7584.2993 300.0812 1292.2135 1325.4369 29828.1603 97.7131 156.9118
ENERGY: 900000 2.6683 7.8391 2.4755 0.0000 -10736.4009 1420.0069 0.0000 0.0000 1694.9539 -7608.4572 287.1367 -9303.4110 -7572.7231 299.0749 -465.0245 -395.5773 30922.4271 114.4118 175.8330
ENERGY: 1200000 1.7763 8.2264 2.2548 0.0000 -10729.2693 1396.4577 0.0000 0.0000 1754.3869 -7566.1672 297.2051 -9320.5541 -7556.0053 299.6995 -303.6204 -288.2440 30243.8545 153.6151 209.4156
ENERGY: 1500000 0.6737 4.1110 0.9858 0.0000 -10744.4263 1431.6807 0.0000 0.0000 1842.5430 -7464.4322 312.1393 -9306.9751 -7539.0313 301.0917 -22.3545 103.9043 30259.1655 96.6473 153.8923
TCL: Running FEP window   6: Lambda1 0.7499999999999998 Lambda2 0.6999999999999997 [dLambda -0.050000000000000044]
TCL: Setting parameter firsttimestep to 0
TCL: Setting parameter alchLambda to 0.7499999999999998
Info: NONBONDED TABLE R-SQUARED SPACING: 0.0625
Info: NONBONDED TABLE SIZE: 705 POINTS
TCL: Setting parameter alchLambda2 to 0.6999999999999997
Info: NONBONDED TABLE R-SQUARED SPACING: 0.0625
Info: NONBONDED TABLE SIZE: 705 POINTS
TCL: Running for 1500000 steps
ETITLE: TS BOND ANGLE DIHED IMPRP ELECT VDW BOUNDARY MISC KINETIC TOTAL TEMP POTENTIAL TOTALAVG TEMPAVG PRESSURE GPRESSURE VOLUME PRESSAVG GPRESSAVG
ENERGY: 0 0.6737 4.1110 0.9858 0.0000 -10743.5635 1431.6412 0.0000 0.0000 1841.6688 -7464.4830 311.9912 -9306.1518 -7464.4830 311.9912 -12.4546 96.2783 30259.1655 -12.4546 96.2783
ENERGY: 300000 0.8577 5.2274 1.7440 0.0000 -10839.2270 1492.4058 0.0000 0.0000 1772.5909 -7566.4012 300.2889 -9338.9921 -7539.5442 301.5221 151.4919 211.6017 30542.6465 91.1562 183.1583
ENERGY: 600000 1.9918 5.6923 1.7097 0.0000 -10627.2382 1367.3222 0.0000 0.0000 1799.3321 -7451.1902 304.8191 -9250.5223 -7527.9615 301.3302 -327.7954 -225.6714 30277.3750 -105.6455 -34.3621
ENERGY: 900000 5.3911 4.5122 0.4704 0.0000 -10753.8590 1498.7956 0.0000 0.0000 1808.2566 -7436.4333 306.3310 -9244.6898 -7507.3441 301.7337 469.4121 448.0215 30539.0266 -70.3759 -11.8608
ENERGY: 1200000 2.3302 5.6714 0.3681 0.0000 -10823.0912 1501.4985 0.0000 0.0000 1795.0421 -7518.1809 304.0923 -9313.2230 -7510.3854 302.1578 448.9356 506.1422 30379.6496 -80.8757 -20.6454
ENERGY: 1500000 2.2184 3.7513 2.2331 0.0000 -10842.6794 1466.3959 0.0000 0.0000 1737.8975 -7630.1831 294.4117 -9368.0806 -7515.1822 302.1566 -110.8360 -30.8688 30348.8462 -57.9667 4.1403
TCL: Running FEP window   7: Lambda1 0.6999999999999997 Lambda2 0.6499999999999997 [dLambda -0.050000000000000044]
TCL: Setting parameter firsttimestep to 0
TCL: Setting parameter alchLambda to 0.6999999999999997
Info: NONBONDED TABLE R-SQUARED SPACING: 0.0625
Info: NONBONDED TABLE SIZE: 705 POINTS
TCL: Setting parameter alchLambda2 to 0.6499999999999997
Info: NONBONDED TABLE R-SQUARED SPACING: 0.0625
Info: NONBONDED TABLE SIZE: 705 POINTS
TCL: Running for 1500000 steps
ETITLE: TS BOND ANGLE DIHED IMPRP ELECT VDW BOUNDARY MISC KINETIC TOTAL TEMP POTENTIAL TOTALAVG TEMPAVG PRESSURE GPRESSURE VOLUME PRESSAVG GPRESSAVG
ENERGY: 0 2.2184 3.7513 2.2331 0.0000 -10841.3757 1466.0017 0.0000 0.0000 1737.0431 -7630.1280 294.2669 -9367.1711 -7630.1280 294.2669 -122.2966 -42.6144 30348.8462 -122.2966 -42.6144
ENERGY: 300000 2.1218 3.4999 1.9960 0.0000 -10743.7328 1430.4363 0.0000 0.0000 1778.9685 -7526.7105 301.3694 -9305.6789 -7529.7928 300.3274 -335.5421 -290.0366 30635.0904 54.8127 116.8484
ENERGY: 600000 0.5221 5.0995 0.6765 0.0000 -10673.6918 1444.8307 0.0000 0.0000 1770.3365 -7452.2264 299.9070 -9222.5630 -7529.8422 299.5043 258.9540 308.7697 30473.9237 169.6306 228.9640
ENERGY: 900000 0.1190 3.3232 1.5666 0.0000 -10783.0390 1490.4596 0.0000 0.0000 1785.4587 -7502.1119 302.4688 -9287.5707 -7524.7794 300.5849 616.9875 749.0736 30007.4713 112.2459 180.8905
ENERGY: 1200000 1.5299 4.3761 1.0415 0.0000 -10868.2149 1541.1172 0.0000 0.0000 1755.8737 -7564.2766 297.4569 -9320.1503 -7523.4022 299.8790 671.2698 772.3756 30400.8912 102.9284 172.9418
ENERGY: 1500000 0.4689 6.0323 0.6845 0.0000 -10704.6230 1445.6973 0.0000 0.0000 1790.7321 -7461.0080 303.3622 -9251.7400 -7523.9303 299.5024 199.9789 215.6344 30470.3767 89.8795 156.8604
TCL: Running FEP window   8: Lambda1 0.6499999999999997 Lambda2 0.5999999999999996 [dLambda -0.050000000000000044]
TCL: Setting parameter firsttimestep to 0
TCL: Setting parameter alchLambda to 0.6499999999999997
Info: NONBONDED TABLE R-SQUARED SPACING: 0.0625
Info: NONBONDED TABLE SIZE: 705 POINTS
TCL: Setting parameter alchLambda2 to 0.5999999999999996
Info: NONBONDED TABLE R-SQUARED SPACING: 0.0625
Info: NONBONDED TABLE SIZE: 705 POINTS
TCL: Running for 1500000 steps
ETITLE: TS BOND ANGLE DIHED IMPRP ELECT VDW BOUNDARY MISC KINETIC TOTAL TEMP POTENTIAL TOTALAVG TEMPAVG PRESSURE GPRESSURE VOLUME PRESSAVG GPRESSAVG
ENERGY: 0 0.4689 6.0323 0.6845 0.0000 -10704.5161 1445.6215 0.0000 0.0000 1789.8548 -7461.8542 303.2136 -9251.7090 -7461.8542 303.2136 110.7100 208.3262 30470.3767 110.7100 208.3262
ENERGY: 300000 0.3385 2.8488 1.3194 0.0000 -10738.0356 1427.1481 0.0000 0.0000 1759.8703 -7546.5105 298.1340 -9306.3808 -7503.3216 300.8144 -72.7746 -12.6885 30465.0316 -229.2967 -157.5288
ENERGY: 600000 1.1721 8.5560 1.0049 0.0000 -10785.9049 1439.6681 0.0000 0.0000 1775.8645 -7559.6392 300.8435 -9335.5037 -7531.6458 300.0045 -114.7502 -60.6294 30234.0568 -21.7570 24.5548
ENERGY: 900000 3.1273 3.1937 1.0689 0.0000 -10699.7860 1394.1146 0.0000 0.0000 1741.8360 -7556.4456 295.0789 -9298.2816 -7528.9077 299.4127 -489.0645 -508.6173 30742.1569 -75.0522 -37.0023
ENERGY: 1200000 1.6385 4.7842 0.9379 0.0000 -10814.4157 1479.8632 0.0000 0.0000 1751.6322 -7575.5597 296.7384 -9327.1919 -7536.5197 297.9377 186.4330 177.3246 30472.4920 -41.3813 -8.5351
ENERGY: 1500000 1.2263 11.1764 0.6607 0.0000 -10806.6954 1432.9870 0.0000 0.0000 1772.0024 -7588.6425 300.1893 -9360.6450 -7540.3598 297.9545 -56.9172 11.9181 30019.1471 -40.2405 -2.1281
TCL: Running FEP window   9: Lambda1 0.5999999999999996 Lambda2 0.5499999999999996 [dLambda -0.050000000000000044]
TCL: Setting parameter firsttimestep to 0
TCL: Setting parameter alchLambda to 0.5999999999999996
Info: NONBONDED TABLE R-SQUARED SPACING: 0.0625
Info: NONBONDED TABLE SIZE: 705 POINTS
TCL: Setting parameter alchLambda2 to 0.5499999999999996
Info: NONBONDED TABLE R-SQUARED SPACING: 0.0625
Info: NONBONDED TABLE SIZE: 705 POINTS
TCL: Running for 1500000 steps
ETITLE: TS BOND ANGLE DIHED IMPRP ELECT VDW BOUNDARY MISC KINETIC TOTAL TEMP POTENTIAL TOTALAVG TEMPAVG PRESSURE GPRESSURE VOLUME PRESSAVG GPRESSAVG
ENERGY: 0 1.2263 11.1764 0.6607 0.0000 -10805.4942 1432.6540 0.0000 0.0000 1771.1477 -7588.6291 300.0445 -9359.7768 -7588.6291 300.0445 -71.9978 5.4855 30019.1471 -71.9978 5.4855
ENERGY: 300000 0.7255 7.7979 2.3822 0.0000 -10847.3037 1492.2176 0.0000 0.0000 1795.5032 -7548.6774 304.1705 -9344.1806 -7518.6572 301.5098 421.9081 453.4972 30032.6011 23.2426 92.3707
ENERGY: 600000 0.2201 4.3446 0.5533 0.0000 -10759.0053 1421.8990 0.0000 0.0000 1760.7228 -7571.2655 298.2784 -9331.9883 -7536.3977 300.4975 -229.0444 -200.4368 30502.8053 -71.1555 -16.0453
ENERGY: 900000 2.0915 6.4722 1.0172 0.0000 -10695.0007 1406.1584 0.0000 0.0000 1736.3634 -7542.8981 294.1518 -9279.2614 -7543.0020 300.6174 -341.5288 -295.3322 30776.0989 -89.0324 -39.6916
ENERGY: 1200000 1.6568 3.7485 0.3136 0.0000 -10947.6959 1521.4090 0.0000 0.0000 1796.4267 -7624.1412 304.3269 -9420.5679 -7537.2950 300.1857 511.7130 601.7912 29961.6169 -108.4553 -62.9380
ENERGY: 1500000 1.0938 5.0660 1.8712 0.0000 -10833.5648 1522.3569 0.0000 0.0000 1791.3760 -7511.8010 303.4713 -9303.1770 -7538.6634 299.9100 442.3127 469.9737 30671.7299 -125.0771 -84.1889
TCL: Running FEP window  10: Lambda1 0.5499999999999996 Lambda2 0.4999999999999996 [dLambda -0.04999999999999999]
TCL: Setting parameter firsttimestep to 0
TCL: Setting parameter alchLambda to 0.5499999999999996
Info: NONBONDED TABLE R-SQUARED SPACING: 0.0625
Info: NONBONDED TABLE SIZE: 705 POINTS
TCL: Setting parameter alchLambda2 to 0.4999999999999996
Info: NONBONDED TABLE R-SQUARED SPACING: 0.0625
Info: NONBONDED TABLE SIZE: 705 POINTS
TCL: Running for 1500000 steps
ETITLE: TS BOND ANGLE DIHED IMPRP ELECT VDW BOUNDARY MISC KINETIC TOTAL TEMP POTENTIAL TOTALAVG TEMPAVG PRESSURE GPRESSURE VOLUME PRESSAVG GPRESSAVG
ENERGY: 0 1.0938 5.0660 1.8712 0.0000 -10832.5330 1522.4423 0.0000 0.0000 1790.4810 -7511.5788 303.3197 -9302.0599 -7511.5788 303.3197 391.5811 468.3526 30671.7299 391.5811 468.3526
ENERGY: 300000 0.5439 7.5652 1.1178 0.0000 -10745.3632 1447.8174 0.0000 0.0000 1741.2343 -7547.0847 294.9769 -9288.3190 -7518.8473 298.8249 -55.3868 14.1931 30658.6789 -30.9966 33.7401
ENERGY: 600000 1.2307 5.3878 1.3240 0.0000 -10822.9274 1522.0213 0.0000 0.0000 1807.5517 -7485.4119 306.2115 -9292.9636 -7522.8420 299.2522 675.9624 754.0153 30134.8125 40.1187 111.9203
ENERGY: 900000 2.2738 5.5798 1.2506 0.0000 -10844.4977 1521.9583 0.0000 0.0000 1779.0204 -7534.4148 301.3781 -9313.4352 -7519.8188 299.2839 615.5459 689.3982 30456.1199 -43.8371 29.4107
ENERGY: 1200000 0.5067 6.6334 1.0908 0.0000 -10673.1816 1380.3833 0.0000 0.0000 1833.5096 -7451.0577 310.6090 -9284.5673 -7521.1423 299.5571 -481.7283 -371.6490 30641.9494 3.7264 79.2024
ENERGY: 1500000 1.4347 4.5990 2.2182 0.0000 -10784.6857 1434.7999 0.0000 0.0000 1777.0122 -7564.6218 301.0379 -9341.6339 -7536.4188 298.7065 -396.0063 -323.3008 30772.2448 -37.7715 34.3949
TCL: Running FEP window  11: Lambda1 0.4999999999999996 Lambda2 0.4499999999999996 [dLambda -0.04999999999999999]
TCL: Setting parameter firsttimestep to 0
TCL: Setting parameter alchLambda to 0.4999999999999996
Info: NONBONDED TABLE R-SQUARED SPACING: 0.0625
Info: NONBONDED TABLE SIZE: 705 POINTS
TCL: Setting parameter alchLambda2 to 0.4499999999999996
Info: NONBONDED TABLE R-SQUARED SPACING: 0.0625
Info: NONBONDED TABLE SIZE: 705 POINTS
TCL: Running for 1500000 steps
ETITLE: TS BOND ANGLE DIHED IMPRP ELECT VDW BOUNDARY MISC KINETIC TOTAL TEMP POTENTIAL TOTALAVG TEMPAVG PRESSURE GPRESSURE VOLUME PRESSAVG GPRESSAVG
ENERGY: 0 1.4347 4.5990 2.2182 0.0000 -10784.7426 1435.1651 0.0000 0.0000 1776.0878 -7565.2378 300.8813 -9341.3256 -7565.2378 300.8813 -401.8097 -325.0016 30772.2448 -401.8097 -325.0016
ENERGY: 300000 2.5055 5.1092 0.6823 0.0000 -10657.8123 1416.1945 0.0000 0.0000 1737.0601 -7496.2608 294.2698 -9233.3209 -7532.9547 298.8917 -157.5099 -58.5709 30620.9967 -223.0736 -145.2816
ENERGY: 600000 0.0754 4.8435 0.5604 0.0000 -10830.9537 1477.0490 0.0000 0.0000 1730.7580 -7617.6673 293.2022 -9348.4253 -7564.7694 297.0108 31.3553 92.3731 30657.1550 -176.6214 -111.2387
ENERGY: 900000 0.6716 5.3222 0.2682 0.0000 -10579.6840 1349.3038 0.0000 0.0000 1800.7614 -7423.3568 305.0612 -9224.1183 -7540.5795 299.2956 -321.8352 -258.2596 30228.7360 27.0758 83.9867
ENERGY: 1200000 0.2956 5.1403 1.0998 0.0000 -10678.3944 1374.5772 0.0000 0.0000 1778.5739 -7518.7076 301.3025 -9297.2815 -7536.8527 300.1196 -679.8503 -614.9335 30770.8906 -29.3896 34.4125
ENERGY: 1500000 2.6899 3.1333 2.9605 0.0000 -10816.7715 1481.0536 0.0000 0.0000 1694.5805 -7632.3537 287.0735 -9326.9342 -7531.6977 299.3259 93.7401 190.5683 30267.5904 -40.2599 22.7914
TCL: Running FEP window  12: Lambda1 0.4499999999999996 Lambda2 0.39999999999999963 [dLambda -0.04999999999999999]
TCL: Setting parameter firsttimestep to 0
TCL: Setting parameter alchLambda to 0.4499999999999996
Info: NONBONDED TABLE R-SQUARED SPACING: 0.0625
Info: NONBONDED TABLE SIZE: 705 POINTS
TCL: Setting parameter alchLambda2 to 0.39999999999999963
Info: NONBONDED TABLE R-SQUARED SPACING: 0.0625
Info: NONBONDED TABLE SIZE: 705 POINTS
TCL: Running for 1500000 steps
ETITLE: TS BOND ANGLE DIHED IMPRP ELECT VDW BOUNDARY MISC KINETIC TOTAL TEMP POTENTIAL TOTALAVG TEMPAVG PRESSURE GPRESSURE VOLUME PRESSAVG GPRESSAVG
ENERGY: 0 2.6899 3.1333 2.9605 0.0000 -10816.7708 1481.0457 0.0000 0.0000 1693.6903 -7633.2511 286.9226 -9326.9414 -7633.2511 286.9226 92.5584 183.3119 30267.5904 92.5584 183.3119
ENERGY: 300000 0.3348 2.3134 0.5574 0.0000 -10730.7668 1458.3524 0.0000 0.0000 1766.3612 -7502.8476 299.2336 -9269.2088 -7554.1284 294.1766 427.0097 501.1021 29987.6336 114.7271 203.9751
ENERGY: 600000 1.9776 6.9542 2.1198 0.0000 -10814.2288 1470.3281 0.0000 0.0000 1811.9837 -7520.8655 306.9624 -9332.8492 -7534.5928 298.6339 71.1172 136.9107 30530.3153 107.2582 193.3854
ENERGY: 900000 1.9303 4.1226 0.6512 0.0000 -10719.9703 1397.9715 0.0000 0.0000 1750.2826 -7565.0120 296.5098 -9315.2946 -7538.5862 297.6352 -520.8142 -486.3668 30770.2785 91.6650 161.1794
ENERGY: 1200000 1.9901 5.0238 1.4343 0.0000 -10777.8952 1513.6741 0.0000 0.0000 1725.2801 -7530.4928 292.2742 -9255.7729 -7537.5418 296.9878 480.3479 551.9866 30517.2655 116.7442 182.3094
ENERGY: 1500000 1.0154 8.0263 2.0839 0.0000 -10827.2464 1528.6335 0.0000 0.0000 1783.6213 -7503.8660 302.1576 -9287.4873 -7533.9974 298.2522 622.9819 687.3997 30477.4669 153.0630 223.1774
TCL: Running FEP window  13: Lambda1 0.39999999999999963 Lambda2 0.34999999999999964 [dLambda -0.04999999999999999]
TCL: Setting parameter firsttimestep to 0
TCL: Setting parameter alchLambda to 0.39999999999999963
Info: NONBONDED TABLE R-SQUARED SPACING: 0.0625
Info: NONBONDED TABLE SIZE: 705 POINTS
TCL: Setting parameter alchLambda2 to 0.34999999999999964
Info: NONBONDED TABLE R-SQUARED SPACING: 0.0625
Info: NONBONDED TABLE SIZE: 705 POINTS
TCL: Running for 1500000 steps
ETITLE: TS BOND ANGLE DIHED IMPRP ELECT VDW BOUNDARY MISC KINETIC TOTAL TEMP POTENTIAL TOTALAVG TEMPAVG PRESSURE GPRESSURE VOLUME PRESSAVG GPRESSAVG
ENERGY: 0 1.0154 8.0263 2.0839 0.0000 -10827.2456 1528.4560 0.0000 0.0000 1782.7210 -7504.9431 302.0051 -9287.6641 -7504.9431 302.0051 599.7119 682.5850 30477.4669 599.7119 682.5850
ENERGY: 300000 0.5402 8.4958 1.7117 0.0000 -10841.2168 1450.2992 0.0000 0.0000 1766.3710 -7613.7989 299.2353 -9380.1700 -7550.6098 301.6285 -365.2662 -301.4188 30667.4610 -7.6914 57.0726
ENERGY: 600000 0.6878 8.6361 1.3267 0.0000 -10893.5256 1496.3493 0.0000 0.0000 1765.9038 -7620.6220 299.1561 -9386.5257 -7575.1563 300.7892 217.1692 281.1712 30172.0588 170.6969 246.2722
ENERGY: 900000 0.6622 13.1051 0.8795 0.0000 -10625.8793 1350.0427 0.0000 0.0000 1711.1818 -7550.0080 289.8858 -9261.1898 -7569.7535 298.9501 -692.3495 -673.1194 30359.0690 0.3418 69.9646
ENERGY: 1200000 0.7046 3.8667 2.2644 0.0000 -10746.1948 1459.8897 0.0000 0.0000 1761.9113 -7517.5581 298.4798 -9279.4694 -7553.4790 298.3925 392.0209 407.6833 30206.9144 -95.3856 -26.1468
ENERGY: 1500000 1.0630 7.2780 1.1877 0.0000 -10691.4510 1391.0485 0.0000 0.0000 1858.2993 -7432.5745 314.8085 -9290.8738 -7546.8040 299.4820 -472.1687 -401.1148 30779.7620 -77.6908 -13.9212
TCL: Running FEP window  14: Lambda1 0.34999999999999964 Lambda2 0.29999999999999966 [dLambda -0.04999999999999999]
TCL: Setting parameter firsttimestep to 0
TCL: Setting parameter alchLambda to 0.34999999999999964
Info: NONBONDED TABLE R-SQUARED SPACING: 0.0625
Info: NONBONDED TABLE SIZE: 705 POINTS
TCL: Setting parameter alchLambda2 to 0.29999999999999966
Info: NONBONDED TABLE R-SQUARED SPACING: 0.0625
Info: NONBONDED TABLE SIZE: 705 POINTS
TCL: Running for 1500000 steps
ETITLE: TS BOND ANGLE DIHED IMPRP ELECT VDW BOUNDARY MISC KINETIC TOTAL TEMP POTENTIAL TOTALAVG TEMPAVG PRESSURE GPRESSURE VOLUME PRESSAVG GPRESSAVG
ENERGY: 0 1.0630 7.2780 1.1877 0.0000 -10691.4502 1391.3519 0.0000 0.0000 1857.4214 -7433.1481 314.6598 -9290.5696 -7433.1481 314.6598 -472.6397 -402.0740 30779.7620 -472.6397 -402.0740
ENERGY: 300000 0.7211 5.7184 0.4463 0.0000 -10829.3068 1512.2288 0.0000 0.0000 1753.2648 -7556.9274 297.0150 -9310.1921 -7500.0294 303.4849 573.0795 606.0542 30234.9388 20.3650 81.4766
ENERGY: 600000 1.6942 3.7884 0.4507 0.0000 -10594.3098 1321.4045 0.0000 0.0000 1754.0444 -7512.9276 297.1470 -9266.9720 -7516.8710 300.5257 -856.0548 -780.9035 30506.1647 -112.3379 -39.1011
ENERGY: 900000 2.5283 7.1736 2.3199 0.0000 -10670.7341 1418.8718 0.0000 0.0000 1796.0854 -7443.7551 304.2691 -9239.8406 -7502.7397 302.0109 -226.8607 -145.0071 30664.7510 -210.1708 -128.6407
ENERGY: 1200000 0.1235 6.4253 0.7122 0.0000 -10842.4788 1491.1249 0.0000 0.0000 1831.4596 -7512.6332 310.2617 -9344.0928 -7511.9238 302.9012 302.3252 360.8574 30177.1248 -145.2914 -63.9739
ENERGY: 1500000 1.2260 4.5277 0.9444 0.0000 -10824.5136 1512.9287 0.0000 0.0000 1757.5800 -7547.3069 297.7460 -9304.8869 -7518.4246 301.6031 357.1721 400.5638 30494.1818 -105.1001 -29.5502
TCL: Running FEP window  15: Lambda1 0.29999999999999966 Lambda2 0.24999999999999967 [dLambda -0.04999999999999999]
TCL: Setting parameter firsttimestep to 0
TCL: Setting parameter alchLambda to 0.29999999999999966
Info: NONBONDED TABLE R-SQUARED SPACING: 0.0625
Info: NONBONDED TABLE SIZE: 705 POINTS
TCL: Setting parameter alchLambda2 to 0.24999999999999967
Info: NONBONDED TABLE R-SQUARED SPACING: 0.0625
Info: NONBONDED TABLE SIZE: 705 POINTS
TCL: Running for 1500000 steps
ETITLE: TS BOND ANGLE DIHED IMPRP ELECT VDW BOUNDARY MISC KINETIC TOTAL TEMP POTENTIAL TOTALAVG TEMPAVG PRESSURE GPRESSURE VOLUME PRESSAVG GPRESSAVG
ENERGY: 0 1.2260 4.5277 0.9444 0.0000 -10824.5124 1512.8019 0.0000 0.0000 1756.7299 -7548.2825 297.6020 -9305.0124 -7548.2825 297.6020 316.5034 395.5813 30494.1818 316.5034 395.5813
ENERGY: 300000 0.1514 5.6447 0.7275 0.0000 -10838.0323 1528.2158 0.0000 0.0000 1761.9226 -7541.3704 298.4817 -9303.2931 -7532.7061 298.7794 677.1715 711.0544 30482.4459 374.8511 431.9201
ENERGY: 600000 1.1429 7.3851 1.4974 0.0000 -10775.9437 1422.0513 0.0000 0.0000 1765.8086 -7578.0585 299.1400 -9343.8670 -7548.9520 298.1097 -492.0468 -361.6499 30672.6083 132.4325 197.9631
ENERGY: 900000 0.7162 6.3399 0.4743 0.0000 -10819.9558 1514.8328 0.0000 0.0000 1761.4968 -7536.0958 298.4095 -9297.5925 -7532.9334 299.3381 527.2825 632.0912 30323.9133 148.6595 216.2107
ENERGY: 1200000 2.0834 6.1813 0.4981 0.0000 -10784.6090 1446.3811 0.0000 0.0000 1732.7238 -7596.7412 293.5352 -9329.4650 -7532.0097 299.2138 -99.9709 -102.4960 30392.8282 11.2321 79.8203
ENERGY: 1500000 1.2716 3.8555 0.3308 0.0000 -10690.6331 1423.1098 0.0000 0.0000 1771.1914 -7490.8738 300.0519 -9262.0653 -7528.0719 299.2621 -99.6220 -73.6901 30603.3962 -35.4606 32.5678
TCL: Running FEP window  16: Lambda1 0.24999999999999967 Lambda2 0.19999999999999968 [dLambda -0.04999999999999999]
TCL: Setting parameter firsttimestep to 0
TCL: Setting parameter alchLambda to 0.24999999999999967
Info: NONBONDED TABLE R-SQUARED SPACING: 0.0625
Info: NONBONDED TABLE SIZE: 705 POINTS
TCL: Setting parameter alchLambda2 to 0.19999999999999968
Info: NONBONDED TABLE R-SQUARED SPACING: 0.0625
Info: NONBONDED TABLE SIZE: 705 POINTS
TCL: Running for 1500000 steps
ETITLE: TS BOND ANGLE DIHED IMPRP ELECT VDW BOUNDARY MISC KINETIC TOTAL TEMP POTENTIAL TOTALAVG TEMPAVG PRESSURE GPRESSURE VOLUME PRESSAVG GPRESSAVG
ENERGY: 0 1.2716 3.8555 0.3308 0.0000 -10690.6322 1423.4115 0.0000 0.0000 1770.3363 -7491.4264 299.9070 -9261.7627 -7491.4264 299.9070 -165.1607 -75.0974 30603.3962 -165.1607 -75.0974
ENERGY: 300000 0.7824 4.3323 2.4651 0.0000 -10863.8887 1554.8156 0.0000 0.0000 1787.0489 -7514.4442 302.7382 -9301.4931 -7491.5530 303.7553 766.0318 873.9581 30269.1175 279.8833 371.0456
ENERGY: 600000 1.7937 4.6253 0.9399 0.0000 -10810.2216 1481.1198 0.0000 0.0000 1744.6368 -7577.1061 295.5533 -9321.7429 -7531.1055 301.7550 221.6945 326.2632 30085.1419 248.0016 327.7315
ENERGY: 900000 0.3934 4.5697 1.7511 0.0000 -10869.5984 1499.2879 0.0000 0.0000 1803.5073 -7560.0889 305.5264 -9363.5962 -7542.2916 301.5310 362.9439 447.3789 30053.8726 272.1753 351.1846
ENERGY: 1200000 6.0353 4.8609 1.8312 0.0000 -10628.0579 1347.4039 0.0000 0.0000 1842.5992 -7425.3274 312.1488 -9267.9266 -7520.4546 302.4720 -895.7887 -855.7805 30511.2641 84.8393 159.1438
ENERGY: 1500000 1.5093 5.0903 1.6183 0.0000 -10889.3482 1544.4625 0.0000 0.0000 1741.8412 -7594.8265 295.0797 -9336.6677 -7522.6362 301.8328 593.7071 607.8314 30397.3260 54.9909 121.0279
TCL: Running FEP window  17: Lambda1 0.19999999999999968 Lambda2 0.1499999999999997 [dLambda -0.04999999999999999]
TCL: Setting parameter firsttimestep to 0
TCL: Setting parameter alchLambda to 0.19999999999999968
Info: NONBONDED TABLE R-SQUARED SPACING: 0.0625
Info: NONBONDED TABLE SIZE: 705 POINTS
TCL: Setting parameter alchLambda2 to 0.1499999999999997
Info: NONBONDED TABLE R-SQUARED SPACING: 0.0625
Info: NONBONDED TABLE SIZE: 705 POINTS
TCL: Running for 1500000 steps
ETITLE: TS BOND ANGLE DIHED IMPRP ELECT VDW BOUNDARY MISC KINETIC TOTAL TEMP POTENTIAL TOTALAVG TEMPAVG PRESSURE GPRESSURE VOLUME PRESSAVG GPRESSAVG
ENERGY: 0 1.5093 5.0903 1.6183 0.0000 -10889.3481 1544.4596 0.0000 0.0000 1740.9339 -7595.7366 294.9260 -9336.6705 -7595.7366 294.9260 508.6055 603.4103 30397.3260 508.6055 603.4103
ENERGY: 300000 1.1298 5.3197 0.2681 0.0000 -10755.4825 1431.1427 0.0000 0.0000 1781.7194 -7535.9028 301.8354 -9317.6222 -7539.0638 298.4051 -110.1265 -37.2323 30175.7923 -219.5518 -135.6386
ENERGY: 600000 1.0478 4.8961 0.4242 0.0000 -10706.7491 1455.3412 0.0000 0.0000 1801.0673 -7443.9724 305.1131 -9245.0398 -7541.0366 297.8451 -186.8609 -107.4840 31013.4241 -102.7109 -20.6233
ENERGY: 900000 2.5511 2.7031 1.3903 0.0000 -10475.1425 1283.7348 0.0000 0.0000 1787.6831 -7397.0802 302.8457 -9184.7632 -7513.9414 298.6534 -1108.8080 -1049.6433 30934.9242 -268.0615 -191.4426
ENERGY: 1200000 1.8399 4.5345 0.5653 0.0000 -10728.0427 1397.6209 0.0000 0.0000 1820.1385 -7503.3436 308.3438 -9323.4821 -7509.6725 300.7060 -696.6142 -637.8567 30720.8360 -329.6692 -250.7202
ENERGY: 1500000 4.0335 7.1894 1.0065 0.0000 -10781.5177 1488.5241 0.0000 0.0000 1766.0756 -7514.6887 299.1852 -9280.7643 -7511.7711 300.3071 155.8343 260.0612 30390.7206 -200.3873 -119.8516
TCL: Running FEP window  18: Lambda1 0.1499999999999997 Lambda2 0.09999999999999969 [dLambda -0.05 ]
TCL: Setting parameter firsttimestep to 0
TCL: Setting parameter alchLambda to 0.1499999999999997
Info: NONBONDED TABLE R-SQUARED SPACING: 0.0625
Info: NONBONDED TABLE SIZE: 705 POINTS
TCL: Setting parameter alchLambda2 to 0.09999999999999969
Info: NONBONDED TABLE R-SQUARED SPACING: 0.0625
Info: NONBONDED TABLE SIZE: 705 POINTS
TCL: Running for 1500000 steps
ETITLE: TS BOND ANGLE DIHED IMPRP ELECT VDW BOUNDARY MISC KINETIC TOTAL TEMP POTENTIAL TOTALAVG TEMPAVG PRESSURE GPRESSURE VOLUME PRESSAVG GPRESSAVG
ENERGY: 0 4.0335 7.1894 1.0065 0.0000 -10781.5166 1488.0994 0.0000 0.0000 1765.2139 -7515.9740 299.0392 -9281.1879 -7515.9740 299.0392 173.3767 251.5513 30390.7206 173.3767 251.5513
ENERGY: 300000 1.0491 5.9246 0.5113 0.0000 -10782.7919 1489.9775 0.0000 0.0000 1761.5631 -7523.7662 298.4208 -9285.3293 -7506.7853 300.8658 328.7469 470.4542 30265.2414 294.9298 390.3480
ENERGY: 600000 0.1738 4.6926 0.4088 0.0000 -10752.5247 1463.4755 0.0000 0.0000 1765.6692 -7518.1048 299.1164 -9283.7739 -7513.1443 300.9370 308.7695 337.7785 30253.8821 246.9598 321.8516
ENERGY: 900000 0.5574 4.4287 1.0144 0.0000 -10805.6427 1477.4535 0.0000 0.0000 1763.4586 -7558.7299 298.7419 -9322.1885 -7519.9693 300.7603 -22.5005 20.0408 30590.7458 187.5913 255.3571
ENERGY: 1200000 1.2050 7.7674 0.8169 0.0000 -10805.6330 1552.6026 0.0000 0.0000 1702.6068 -7540.6342 288.4332 -9243.2409 -7519.8242 299.6238 1005.9992 1035.7860 30082.0477 245.4254 308.2243
ENERGY: 1500000 0.6484 3.9535 0.2829 0.0000 -10821.6111 1513.8016 0.0000 0.0000 1784.9275 -7517.9972 302.3788 -9302.9247 -7523.0182 299.6034 608.0155 696.5729 30021.3265 154.6008 217.3558
TCL: Running FEP window  19: Lambda1 0.09999999999999969 Lambda2 0.049999999999999684 [dLambda -0.05 ]
TCL: Setting parameter firsttimestep to 0
TCL: Setting parameter alchLambda to 0.09999999999999969
Info: NONBONDED TABLE R-SQUARED SPACING: 0.0625
Info: NONBONDED TABLE SIZE: 705 POINTS
TCL: Setting parameter alchLambda2 to 0.049999999999999684
Info: NONBONDED TABLE R-SQUARED SPACING: 0.0625
Info: NONBONDED TABLE SIZE: 705 POINTS
TCL: Running for 1500000 steps
ETITLE: TS BOND ANGLE DIHED IMPRP ELECT VDW BOUNDARY MISC KINETIC TOTAL TEMP POTENTIAL TOTALAVG TEMPAVG PRESSURE GPRESSURE VOLUME PRESSAVG GPRESSAVG
ENERGY: 0 0.6484 3.9535 0.2829 0.0000 -10821.6128 1513.4812 0.0000 0.0000 1784.0052 -7519.2416 302.2226 -9303.2468 -7519.2416 302.2226 610.3159 691.6601 30021.3265 610.3159 691.6601
ENERGY: 300000 5.3196 4.8164 2.4476 0.0000 -10721.8212 1425.7867 0.0000 0.0000 1751.5640 -7531.8869 296.7268 -9283.4509 -7535.1825 298.2953 -172.9815 -170.2232 30433.7253 -171.6387 -99.5329
ENERGY: 600000 2.0412 5.7099 0.7293 0.0000 -10644.2035 1395.0428 0.0000 0.0000 1811.4443 -7429.2359 306.8710 -9240.6803 -7531.6531 298.4189 -252.5684 -216.5759 30397.5695 -244.2110 -170.4853
ENERGY: 900000 1.2630 6.2163 0.7573 0.0000 -10744.1992 1443.3964 0.0000 0.0000 1825.6293 -7466.9370 309.2740 -9292.5663 -7518.7312 298.6259 105.6760 147.9654 30179.1993 -218.4652 -149.9838
ENERGY: 1200000 0.9325 6.0513 0.3933 0.0000 -10797.4004 1479.7930 0.0000 0.0000 1744.2217 -7566.0086 295.4830 -9310.2302 -7521.0693 299.0832 296.0516 341.8284 30024.1133 -192.5801 -127.0116
ENERGY: 1500000 1.5856 4.7202 0.5431 0.0000 -10685.6787 1452.0068 0.0000 0.0000 1816.4841 -7410.3390 307.7247 -9226.8230 -7518.0687 299.4298 260.4083 258.7857 30511.9954 -125.5321 -61.8509
TCL: Running FEP window  20: Lambda1 0.049999999999999684 Lambda2 0.0    [dLambda -0.049999999999999684]
TCL: Setting parameter firsttimestep to 0
TCL: Setting parameter alchLambda to 0.049999999999999684
Info: NONBONDED TABLE R-SQUARED SPACING: 0.0625
Info: NONBONDED TABLE SIZE: 705 POINTS
TCL: Setting parameter alchLambda2 to 0.0
Info: NONBONDED TABLE R-SQUARED SPACING: 0.0625
Info: NONBONDED TABLE SIZE: 705 POINTS
TCL: Running for 1500000 steps
ETITLE: TS BOND ANGLE DIHED IMPRP ELECT VDW BOUNDARY MISC KINETIC TOTAL TEMP POTENTIAL TOTALAVG TEMPAVG PRESSURE GPRESSURE VOLUME PRESSAVG GPRESSAVG
ENERGY: 0 1.5856 4.7201 0.5431 0.0000 -10685.6814 1450.6541 0.0000 0.0000 1815.5996 -7412.5788 307.5749 -9228.1784 -7412.5788 307.5749 181.6115 255.0797 30511.9954 181.6115 255.0797
ENERGY: 300000 0.7369 7.4223 1.2711 0.0000 -10814.6200 1521.9451 0.0000 0.0000 1773.6287 -7509.6159 300.4648 -9283.2446 -7531.1184 300.4550 474.4324 527.4521 30302.8420 391.7309 454.2623
ENERGY: 600000 0.1014 6.7049 1.2484 0.0000 -10772.8931 1460.8780 0.0000 0.0000 1739.5792 -7564.3812 294.6965 -9303.9604 -7515.0069 300.0587 158.9776 190.2774 30258.1050 219.2703 282.3752
ENERGY: 900000 0.2212 3.9691 1.7362 0.0000 -10651.2630 1417.0518 0.0000 0.0000 1792.9693 -7435.3154 303.7412 -9228.2848 -7515.9515 299.3560 77.8548 123.3831 30439.7534 106.9723 173.0877
ENERGY: 1200000 0.1163 5.3607 0.6818 0.0000 -10720.4889 1414.4222 0.0000 0.0000 1748.4863 -7551.4217 296.2055 -9299.9080 -7517.7430 300.5617 -137.9318 -98.7574 30288.0668 -17.3047 46.4962
ENERGY: 1500000 0.6857 5.3089 0.5225 0.0000 -10761.8155 1450.1087 0.0000 0.0000 1736.8149 -7568.3747 294.2283 -9305.1896 -7516.3729 300.3825 241.9846 275.4035 30098.5831 27.5600 90.2579
TCL: Exiting due to exit command.
