Info: SIMULATION PARAMETERS:
Info: TIMESTEP               2
Info: NUMBER OF STEPS        0
Info: STEPS PER CYCLE        10
Info: PERIODIC CELL BASIS 1  29.989 0 0
Info: PERIODIC CELL BASIS 2  0 32.0965 0
Info: PERIODIC CELL BASIS 3  0 0 31.318
Info: PERIODIC CELL CENTER   0 0 0
Info: WRAPPING WATERS AROUND PERIODIC BOUNDARIES ON OUTPUT.
Info: WRAPPING ALL CLUSTERS AROUND PERIODIC BOUNDARIES ON OUTPUT.
Info: FIRST LDB TIMESTEP     50
Info: LAST LDB TIMESTEP     -1
Info: HOM BACKGROUND SCALING 1
Info: PME BACKGROUND SCALING 1
Info: MIN ATOMS PER PATCH    40
Info: EMPTY PATCH LOAD       40 ATOMS
Info: VELOCITY FILE          mobley_7106722_equil.vel
Info: CENTER OF MASS MOVING INITIALLY? NO
Info: DIELECTRIC             1
Info: EXCLUDE                SCALED ONE-FOUR
Info: 1-4 ELECTROSTATICS SCALED BY 0.833333
Info: MODIFIED 1-4 VDW PARAMETERS WILL BE USED
Info: DCD FILENAME           mobley_7106722_prod.dcd
Info: DCD FREQUENCY          100000
Info: DCD FIRST STEP         100000
Info: DCD FILE WILL CONTAIN UNIT CELL DATA
Info: XST FILENAME           mobley_7106722_prod.xst
Info: XST FREQUENCY          100000
Info: NO VELOCITY DCD OUTPUT
Info: NO FORCE DCD OUTPUT
Info: OUTPUT FILENAME        mobley_7106722_prod
Info: BINARY OUTPUT FILES WILL BE USED
Info: RESTART FILENAME       mobley_7106722_prod.restart
Info: RESTART FREQUENCY      100000
Info: BINARY RESTART FILES WILL BE USED
Info: CUTOFF                 9
Info: PAIRLIST DISTANCE      11
Info: PAIRLIST SHRINK RATE   0.01
Info: PAIRLIST GROW RATE     0.01
Info: PAIRLIST TRIGGER       0.3
Info: PAIRLISTS PER CYCLE    2
Info: PAIRLISTS ENABLED
Info: MARGIN                 2
Info: HYDROGEN GROUP CUTOFF  2.5
Info: PATCH DIMENSION        15.5
Info: ENERGY OUTPUT STEPS    100000
Info: ENERGY EVALUATION STEPS    100000
Info: OUTPUT ENERGY PRECISION 4
Info: CROSSTERM ENERGY INCLUDED IN DIHEDRAL
Info: TIMING OUTPUT STEPS    1000000
Info: PRESSURE OUTPUT STEPS  100000
Info: ALCHEMICAL FEP ON
Info: FEP CURRENT LAMBDA VALUE     1
Info: FEP COMPARISON LAMBDA VALUE  0.95
Info: FEP INTRA-ALCHEMICAL NON-BONDED INTERACTIONS WILL BE RETAINED
Info: FEP INTRA-ALCHEMICAL BONDED INTERACTIONS WILL BE RETAINED
Info: FEP VDW SHIFTING COEFFICIENT 5
Info: FEP ELEC. ACTIVE FOR ANNIHILATED PARTICLES BETWEEN LAMBDA = 0 AND LAMBDA = 0.5
Info: FEP ELEC. ACTIVE FOR EXNIHILATED PARTICLES BETWEEN LAMBDA = 0.5 AND LAMBDA = 1
Info: FEP VDW ACTIVE FOR ANNIHILATED PARTICLES BETWEEN LAMBDA = 0 AND LAMBDA = 1
Info: FEP VDW ACTIVE FOR EXNIHILATED PARTICLES BETWEEN LAMBDA = 0 AND LAMBDA = 1
Info: FEP BOND ACTIVE FOR ANNIHILATED PARTICLES BETWEEN LAMBDA = 1 AND LAMBDA = 1
Info: FEP BOND ACTIVE FOR EXNIHILATED PARTICLES BETWEEN LAMBDA = 0 AND LAMBDA = 0
Info: LANGEVIN DYNAMICS ACTIVE
Info: LANGEVIN TEMPERATURE   300
Info: LANGEVIN USING BBK INTEGRATOR
Info: LANGEVIN DAMPING COEFFICIENT IS 1 INVERSE PS
Info: LANGEVIN DYNAMICS APPLIED TO HYDROGENS
Info: LANGEVIN PISTON PRESSURE CONTROL ACTIVE
Info:        TARGET PRESSURE IS 1.01325 BAR
Info:     OSCILLATION PERIOD IS 50 FS
Info:             DECAY TIME IS 25 FS
Info:     PISTON TEMPERATURE IS 300 K
Info:       PRESSURE CONTROL IS GROUP-BASED
Info:    INITIAL STRAIN RATE IS -0.000239672 -0.000239672 -0.000239672
Info:       CELL FLUCTUATION IS ISOTROPIC
Info: PARTICLE MESH EWALD (PME) ACTIVE
Info: PME TOLERANCE               1e-06
Info: PME EWALD COEFFICIENT       0.348832
Info: PME INTERPOLATION ORDER     4
Info: PME GRID DIMENSIONS         32 36 32
Info: PME MAXIMUM GRID SPACING    1
Info: PME CALCULATION WILL BE PERFORMED ON GPU
Info: FULL ELECTROSTATIC EVALUATION FREQUENCY      2
Info: USING VERLET I (r-RESPA) MTS SCHEME.
Info: C1 SPLITTING OF LONG RANGE ELECTROSTATICS
Info: PLACING ATOMS IN PATCHES BY HYDROGEN GROUPS
Info: RIGID BONDS TO HYDROGEN : ALL
Info:         ERROR TOLERANCE : 1e-08
Info:          MAX ITERATIONS : 100
Info: RIGID WATER USING SETTLE ALGORITHM
Info: RANDOM NUMBER SEED     1743871315
Info: USE HYDROGEN BONDS?    NO
Info: Using AMBER format force field!
Info: AMBER PARM FILE        mobley_7106722.prmtop
Info: COORDINATE PDB         mobley_7106722.pdb
Info: Exclusions will be read from PARM file!
Info: SCNB (VDW SCALING)     2
Info: USING ARITHMETIC MEAN TO COMBINE L-J SIGMA PARAMETERS
Info: BINARY COORDINATES     mobley_7106722_equil.coor
Info: SUMMARY OF PARAMETERS:
Info: 4 BONDS
Info: 3 ANGLES
Info:   3 HARMONIC
Info:   0 COSINE-BASED
Info: 5 DIHEDRAL
Info: 0 IMPROPER
Info: 0 CROSSTERM
Info: 0 VDW
Info: 10 VDW_PAIRS
Info: 0 NBTHOLE_PAIRS
Info: To read alchdata from file: mobley_7106722.pdb
Info: To read alchflag data from column: 5
Info: STRUCTURE SUMMARY:
Info: 2945 ATOMS
Info: 2944 BONDS
Info: 36 ANGLES
Info: 51 DIHEDRALS
Info: 0 IMPROPERS
Info: 0 CROSSTERMS
Info: 3025 EXCLUSIONS
Info: 2939 RIGID BONDS
Info: ALCH: 0 ATOMS TO DISAPPEAR IN FINAL STATE
Info: ALCH: 20 ATOMS TO APPEAR IN FINAL STATE
Info: 5896 DEGREES OF FREEDOM
Info: 981 HYDROGEN GROUPS
Info: 4 ATOMS IN LARGEST HYDROGEN GROUP
Info: 981 MIGRATION GROUPS
Info: 4 ATOMS IN LARGEST MIGRATION GROUP
Info: TOTAL MASS = 17651.8 amu
Info: TOTAL CHARGE = -0.00029999 e
Info: MASS DENSITY = 0.972374 g/cm^3
Info: ATOM DENSITY = 0.0976947 atoms/A^3
Info: ADDED 0 IMPLICIT EXCLUSIONS
Info: NONBONDED TABLE R-SQUARED SPACING: 0.0625
Info: NONBONDED TABLE SIZE: 705 POINTS
Info: REMOVING COM VELOCITY -0.101631 0.00318056 -0.00801796
Info: Use 3D box decompostion in PME FFT.
Info: Updated CUDA force table with 4096 elements.
Info: Updated CUDA LJ table with 4 x 4 elements.
Info: Found 23 unique exclusion lists needing 64 bytes
TCL: Running for 1500000 steps
ETITLE: TS BOND ANGLE DIHED IMPRP ELECT VDW BOUNDARY MISC KINETIC TOTAL TEMP POTENTIAL TOTALAVG TEMPAVG PRESSURE GPRESSURE VOLUME PRESSAVG GPRESSAVG
ENERGY: 0 2.0884 11.6739 4.1264 0.0000 -10699.6929 1430.2127 0.0000 0.0000 1745.8574 -7505.7341 298.0174 -9251.5915 -7505.7341 298.0174 -126.7563 -45.8955 30144.9381 -126.7563 -45.8955
ENERGY: 300000 0.7384 11.4348 3.5055 0.0000 -10697.1266 1447.3783 0.0000 0.0000 1751.3413 -7482.7283 298.9535 -9234.0696 -7484.9813 298.9256 -107.8008 -9.5517 30482.9132 -230.7061 -145.4192
ENERGY: 600000 3.2063 8.6948 3.6250 0.0000 -10688.7314 1436.3893 0.0000 0.0000 1733.4743 -7503.3416 295.9036 -9236.8159 -7487.0748 299.4612 52.5389 107.4862 30142.8886 -92.7839 -26.1667
ENERGY: 900000 3.3679 10.7369 4.0655 0.0000 -10596.4965 1373.7219 0.0000 0.0000 1733.5828 -7471.0215 295.9222 -9204.6043 -7468.4713 299.6646 -628.3413 -540.6878 30407.5900 -269.0469 -194.4867
ENERGY: 1200000 1.7732 5.2839 1.9345 0.0000 -10590.5322 1381.0590 0.0000 0.0000 1764.0169 -7436.4647 301.1173 -9200.4816 -7472.4510 299.7280 -215.2595 -187.9868 30085.8240 -243.6666 -176.8586
ENERGY: 1500000 0.9668 9.5148 2.5814 0.0000 -10739.3647 1504.1024 0.0000 0.0000 1782.2931 -7439.9061 304.2370 -9222.1993 -7465.1021 299.7731 640.4351 652.9665 30151.6362 -168.7211 -105.1765
TCL: Running FEP window   2: Lambda1 0.95   Lambda2 0.8999999999999999 [dLambda -0.050000000000000044]
TCL: Setting parameter firsttimestep to 0
TCL: Setting parameter alchLambda to 0.95
Info: NONBONDED TABLE R-SQUARED SPACING: 0.0625
Info: NONBONDED TABLE SIZE: 705 POINTS
TCL: Setting parameter alchLambda2 to 0.8999999999999999
Info: NONBONDED TABLE R-SQUARED SPACING: 0.0625
Info: NONBONDED TABLE SIZE: 705 POINTS
TCL: Running for 1500000 steps
ETITLE: TS BOND ANGLE DIHED IMPRP ELECT VDW BOUNDARY MISC KINETIC TOTAL TEMP POTENTIAL TOTALAVG TEMPAVG PRESSURE GPRESSURE VOLUME PRESSAVG GPRESSAVG
ENERGY: 0 0.9668 9.5148 2.5814 0.0000 -10739.3771 1504.5842 0.0000 0.0000 1781.4056 -7440.3243 304.0855 -9221.7299 -7440.3243 304.0855 576.9403 648.0195 30151.6362 576.9403 648.0195
ENERGY: 300000 1.3493 7.4823 2.7748 0.0000 -10568.7693 1361.7687 0.0000 0.0000 1799.4875 -7395.9066 307.1721 -9195.3941 -7422.0679 303.9036 -460.9144 -493.3651 30458.0193 26.4520 45.9080
ENERGY: 600000 3.3322 7.4258 3.9612 0.0000 -10636.8486 1388.8330 0.0000 0.0000 1732.4137 -7500.8827 295.7226 -9233.2965 -7437.7853 302.9696 -450.0202 -403.7150 30362.2462 -141.3301 -100.2315
ENERGY: 900000 1.4561 10.9707 3.4510 0.0000 -10714.2890 1479.9931 0.0000 0.0000 1749.9525 -7468.4656 298.7165 -9218.4181 -7434.7013 301.7021 235.1421 338.6542 30208.9890 -211.8657 -162.4720
ENERGY: 1200000 1.0264 11.9446 3.2117 0.0000 -10627.2957 1417.3028 0.0000 0.0000 1718.2816 -7475.5287 293.3103 -9193.8103 -7439.5044 301.4837 82.4658 178.6411 30027.3065 -241.6008 -182.7698
ENERGY: 1500000 2.6541 12.0073 3.1145 0.0000 -10617.4732 1370.4121 0.0000 0.0000 1863.2728 -7366.0124 318.0602 -9229.2852 -7436.3785 302.6705 -357.6623 -286.8637 30089.6189 -227.6616 -169.6304
TCL: Running FEP window   3: Lambda1 0.8999999999999999 Lambda2 0.8499999999999999 [dLambda -0.050000000000000044]
TCL: Setting parameter firsttimestep to 0
TCL: Setting parameter alchLambda to 0.8999999999999999
Info: NONBONDED TABLE R-SQUARED SPACING: 0.0625
Info: NONBONDED TABLE SIZE: 705 POINTS
TCL: Setting parameter alchLambda2 to 0.8499999999999999
Info: NONBONDED TABLE R-SQUARED SPACING: 0.0625
Info: NONBONDED TABLE SIZE: 705 POINTS
TCL: Running for 1500000 steps
ETITLE: TS BOND ANGLE DIHED IMPRP ELECT VDW BOUNDARY MISC KINETIC TOTAL TEMP POTENTIAL TOTALAVG TEMPAVG PRESSURE GPRESSURE VOLUME PRESSAVG GPRESSAVG
ENERGY: 0 2.6541 12.0073 3.1145 0.0000 -10617.4537 1370.4607 0.0000 0.0000 1862.3706 -7366.8465 317.9062 -9229.2171 -7366.8465 317.9062 -386.0545 -299.8273 30089.6189 -386.0545 -299.8273
ENERGY: 300000 1.5155 12.1448 1.9934 0.0000 -10762.1987 1514.3029 0.0000 0.0000 1768.8726 -7463.3696 301.9461 -9232.2422 -7417.3484 308.1955 646.7261 704.2404 30051.2348 232.0699 278.1441
ENERGY: 600000 1.0491 9.0037 2.6806 0.0000 -10650.7583 1479.4912 0.0000 0.0000 1782.0236 -7376.5102 304.1910 -9158.5338 -7404.6248 305.9070 446.4137 485.3336 30474.7826 250.0336 292.0390
ENERGY: 900000 1.4089 6.5069 2.4017 0.0000 -10681.6395 1421.0520 0.0000 0.0000 1701.1760 -7549.0941 290.3903 -9250.2701 -7439.5493 301.6515 -151.9850 -76.8631 30086.0389 44.5574 95.8061
ENERGY: 1200000 4.3194 9.6241 2.0934 0.0000 -10692.4729 1447.6094 0.0000 0.0000 1725.8400 -7502.9867 294.6005 -9228.8267 -7444.8230 301.2836 -53.3031 26.0779 30042.0725 -31.1856 28.2773
ENERGY: 1500000 0.7309 9.9913 3.1948 0.0000 -10449.3560 1373.1509 0.0000 0.0000 1786.0480 -7276.2401 304.8780 -9062.2881 -7436.2567 301.0439 -139.3669 -141.0820 30674.9254 -3.7142 51.7129
TCL: Running FEP window   4: Lambda1 0.8499999999999999 Lambda2 0.7999999999999998 [dLambda -0.050000000000000044]
TCL: Setting parameter firsttimestep to 0
TCL: Setting parameter alchLambda to 0.8499999999999999
Info: NONBONDED TABLE R-SQUARED SPACING: 0.0625
Info: NONBONDED TABLE SIZE: 705 POINTS
TCL: Setting parameter alchLambda2 to 0.7999999999999998
Info: NONBONDED TABLE R-SQUARED SPACING: 0.0625
Info: NONBONDED TABLE SIZE: 705 POINTS
TCL: Running for 1500000 steps
ETITLE: TS BOND ANGLE DIHED IMPRP ELECT VDW BOUNDARY MISC KINETIC TOTAL TEMP POTENTIAL TOTALAVG TEMPAVG PRESSURE GPRESSURE VOLUME PRESSAVG GPRESSAVG
ENERGY: 0 0.7309 9.9913 3.1948 0.0000 -10449.3448 1372.7818 0.0000 0.0000 1785.1360 -7277.5100 304.7223 -9062.6460 -7277.5100 304.7223 -232.3455 -157.1487 30674.9254 -232.3455 -157.1487
ENERGY: 300000 0.9410 10.7213 3.2987 0.0000 -10691.6533 1422.2582 0.0000 0.0000 1819.5191 -7434.9149 310.5915 -9254.4340 -7407.3181 302.3284 -241.1539 -151.9963 30475.2290 53.8714 133.3987
ENERGY: 600000 2.3504 5.9668 3.3169 0.0000 -10592.0454 1420.2690 0.0000 0.0000 1767.2236 -7392.9187 301.6646 -9160.1423 -7414.8539 300.8603 139.5630 121.9940 30428.0243 -62.7552 -9.1053
ENERGY: 900000 1.0812 11.7753 2.7722 0.0000 -10646.1914 1403.3744 0.0000 0.0000 1742.8271 -7484.3611 297.5002 -9227.1882 -7402.2988 302.6546 -241.2097 -199.6250 30312.4978 -107.4930 -46.9452
ENERGY: 1200000 0.8995 8.4105 2.3080 0.0000 -10616.7842 1431.1859 0.0000 0.0000 1724.7412 -7449.2389 294.4129 -9173.9802 -7417.3421 301.1473 121.1886 231.7994 30210.5553 -14.1624 49.0386
ENERGY: 1500000 1.3749 6.6529 2.6515 0.0000 -10699.8502 1442.8844 0.0000 0.0000 1731.2175 -7515.0690 295.5184 -9246.2866 -7431.2730 300.5465 165.2343 264.9503 29779.0207 15.1174 78.6521
TCL: Running FEP window   5: Lambda1 0.7999999999999998 Lambda2 0.7499999999999998 [dLambda -0.050000000000000044]
TCL: Setting parameter firsttimestep to 0
TCL: Setting parameter alchLambda to 0.7999999999999998
Info: NONBONDED TABLE R-SQUARED SPACING: 0.0625
Info: NONBONDED TABLE SIZE: 705 POINTS
TCL: Setting parameter alchLambda2 to 0.7499999999999998
Info: NONBONDED TABLE R-SQUARED SPACING: 0.0625
Info: NONBONDED TABLE SIZE: 705 POINTS
TCL: Running for 1500000 steps
ETITLE: TS BOND ANGLE DIHED IMPRP ELECT VDW BOUNDARY MISC KINETIC TOTAL TEMP POTENTIAL TOTALAVG TEMPAVG PRESSURE GPRESSURE VOLUME PRESSAVG GPRESSAVG
ENERGY: 0 1.3749 6.6529 2.6515 0.0000 -10699.8184 1443.1814 0.0000 0.0000 1730.3555 -7515.6022 295.3713 -9245.9577 -7515.6022 295.3713 180.2425 258.3304 29779.0207 180.2425 258.3304
ENERGY: 300000 0.5677 9.1713 2.5418 0.0000 -10813.7365 1553.7759 0.0000 0.0000 1753.9384 -7493.7414 299.3969 -9247.6798 -7477.4933 296.9382 860.0498 979.9475 30001.4216 269.6999 344.0104
ENERGY: 600000 2.6546 13.6668 4.6464 0.0000 -10741.0094 1473.4717 0.0000 0.0000 1762.9445 -7483.6254 300.9342 -9246.5699 -7471.0880 297.6317 28.4764 124.6936 30279.1504 44.5658 108.2428
ENERGY: 900000 1.0302 9.3897 3.7427 0.0000 -10648.1212 1457.1299 0.0000 0.0000 1733.3323 -7443.4965 295.8794 -9176.8288 -7473.5936 297.6979 446.3422 437.3268 30062.1393 175.8100 224.1303
ENERGY: 1200000 0.6355 5.9198 2.9112 0.0000 -10634.8378 1400.1123 0.0000 0.0000 1760.2734 -7464.9857 300.4782 -9225.2591 -7468.6026 298.0067 -556.5116 -404.2360 30661.4313 94.6745 147.0299
ENERGY: 1500000 4.8427 8.6395 2.4683 0.0000 -10741.2692 1432.4076 0.0000 0.0000 1787.4064 -7505.5046 305.1098 -9292.9110 -7470.2463 298.1803 -219.1296 -154.2106 30118.0510 132.8967 187.8373
TCL: Running FEP window   6: Lambda1 0.7499999999999998 Lambda2 0.6999999999999997 [dLambda -0.050000000000000044]
TCL: Setting parameter firsttimestep to 0
TCL: Setting parameter alchLambda to 0.7499999999999998
Info: NONBONDED TABLE R-SQUARED SPACING: 0.0625
Info: NONBONDED TABLE SIZE: 705 POINTS
TCL: Setting parameter alchLambda2 to 0.6999999999999997
Info: NONBONDED TABLE R-SQUARED SPACING: 0.0625
Info: NONBONDED TABLE SIZE: 705 POINTS
TCL: Running for 1500000 steps
ETITLE: TS BOND ANGLE DIHED IMPRP ELECT VDW BOUNDARY MISC KINETIC TOTAL TEMP POTENTIAL TOTALAVG TEMPAVG PRESSURE GPRESSURE VOLUME PRESSAVG GPRESSAVG
ENERGY: 0 4.8427 8.6395 2.4683 0.0000 -10741.2520 1432.5897 0.0000 0.0000 1786.5506 -7506.1612 304.9638 -9292.7118 -7506.1612 304.9638 -243.0263 -161.7166 30118.0510 -243.0263 -161.7166
ENERGY: 300000 0.8154 6.1532 3.7871 0.0000 -10756.1315 1445.7848 0.0000 0.0000 1746.8858 -7552.7051 298.1930 -9299.5909 -7478.9962 301.6095 149.8809 231.5563 29731.8415 72.3127 151.8725
ENERGY: 600000 1.8265 12.8374 2.5411 0.0000 -10672.8892 1416.7700 0.0000 0.0000 1769.3935 -7469.5207 302.0350 -9238.9143 -7463.4790 301.8064 -517.4125 -441.5218 30589.1497 -130.4525 -41.4590
ENERGY: 900000 4.8705 7.8781 2.9606 0.0000 -10572.3326 1426.5131 0.0000 0.0000 1753.7112 -7376.3991 299.3581 -9130.1103 -7433.4763 302.1722 54.5108 131.7916 30407.5778 9.5569 91.5242
ENERGY: 1200000 1.9098 8.2342 2.6335 0.0000 -10542.1910 1381.9861 0.0000 0.0000 1812.5873 -7334.8401 309.4082 -9147.4274 -7428.5721 301.9199 -428.1990 -359.9678 30684.2356 19.8497 100.1792
ENERGY: 1500000 1.4029 10.4066 2.4880 0.0000 -10781.1506 1558.1304 0.0000 0.0000 1735.6952 -7473.0275 296.2828 -9208.7227 -7439.5825 300.8169 729.5416 815.3814 30345.4112 49.7622 131.2418
TCL: Running FEP window   7: Lambda1 0.6999999999999997 Lambda2 0.6499999999999997 [dLambda -0.050000000000000044]
TCL: Setting parameter firsttimestep to 0
TCL: Setting parameter alchLambda to 0.6999999999999997
Info: NONBONDED TABLE R-SQUARED SPACING: 0.0625
Info: NONBONDED TABLE SIZE: 705 POINTS
TCL: Setting parameter alchLambda2 to 0.6499999999999997
Info: NONBONDED TABLE R-SQUARED SPACING: 0.0625
Info: NONBONDED TABLE SIZE: 705 POINTS
TCL: Running for 1500000 steps
ETITLE: TS BOND ANGLE DIHED IMPRP ELECT VDW BOUNDARY MISC KINETIC TOTAL TEMP POTENTIAL TOTALAVG TEMPAVG PRESSURE GPRESSURE VOLUME PRESSAVG GPRESSAVG
ENERGY: 0 1.4029 10.4066 2.4880 0.0000 -10781.1539 1558.4887 0.0000 0.0000 1734.7948 -7473.5729 296.1291 -9208.3677 -7473.5729 296.1291 726.7924 813.4963 30345.4112 726.7924 813.4963
ENERGY: 300000 3.0632 5.0823 4.0251 0.0000 -10582.2543 1409.8928 0.0000 0.0000 1760.9347 -7399.2561 300.5911 -9160.1909 -7437.6342 299.5067 -224.1709 -133.9024 30497.3389 169.6313 249.3004
ENERGY: 600000 0.4659 7.4399 2.1438 0.0000 -10650.1978 1448.4350 0.0000 0.0000 1753.5773 -7438.1359 299.3352 -9191.7132 -7434.7946 299.6502 159.0406 247.8984 30371.8331 70.2378 148.0267
ENERGY: 900000 1.4280 8.8389 1.9490 0.0000 -10715.4301 1459.4269 0.0000 0.0000 1784.3172 -7459.4701 304.5825 -9243.7874 -7440.1629 299.9799 31.7360 155.2226 30281.3069 88.5318 165.8754
ENERGY: 1200000 2.4247 6.6974 2.0457 0.0000 -10763.8396 1500.4722 0.0000 0.0000 1747.1783 -7505.0214 298.2429 -9252.1997 -7445.8339 300.0124 247.6074 319.2763 30238.6950 33.5751 109.8398
ENERGY: 1500000 2.4707 6.9318 2.3533 0.0000 -10622.1640 1418.9860 0.0000 0.0000 1722.1822 -7469.2399 293.9761 -9191.4221 -7445.6913 299.2469 15.2463 19.9134 30230.1066 27.6373 98.7230
TCL: Running FEP window   8: Lambda1 0.6499999999999997 Lambda2 0.5999999999999996 [dLambda -0.050000000000000044]
TCL: Setting parameter firsttimestep to 0
TCL: Setting parameter alchLambda to 0.6499999999999997
Info: NONBONDED TABLE R-SQUARED SPACING: 0.0625
Info: NONBONDED TABLE SIZE: 705 POINTS
TCL: Setting parameter alchLambda2 to 0.5999999999999996
Info: NONBONDED TABLE R-SQUARED SPACING: 0.0625
Info: NONBONDED TABLE SIZE: 705 POINTS
TCL: Running for 1500000 steps
ETITLE: TS BOND ANGLE DIHED IMPRP ELECT VDW BOUNDARY MISC KINETIC TOTAL TEMP POTENTIAL TOTALAVG TEMPAVG PRESSURE GPRESSURE VOLUME PRESSAVG GPRESSAVG
ENERGY: 0 2.4707 6.9318 2.3533 0.0000 -10622.1429 1419.3859 0.0000 0.0000 1721.3164 -7469.6848 293.8283 -9191.0012 -7469.6848 293.8283 -62.9873 19.2048 30230.1066 -62.9873 19.2048
ENERGY: 300000 1.1568 14.7498 2.5912 0.0000 -10778.4552 1513.4545 0.0000 0.0000 1775.7841 -7470.7189 303.1259 -9246.5030 -7447.9083 301.8053 531.1123 646.6138 29954.9650 -19.8110 59.9490
ENERGY: 600000 2.3233 10.4123 2.2677 0.0000 -10661.9075 1409.1047 0.0000 0.0000 1783.3947 -7454.4047 304.4251 -9237.7994 -7434.2497 301.7349 -14.2099 4.5328 29708.0944 136.7991 204.3645
ENERGY: 900000 0.6240 7.9142 4.0703 0.0000 -10683.8578 1493.4648 0.0000 0.0000 1778.5876 -7399.1969 303.6045 -9177.7845 -7442.3045 300.1711 471.8666 482.8149 30526.4699 194.9403 244.7341
ENERGY: 1200000 2.6895 11.0705 3.7072 0.0000 -10655.5505 1414.9237 0.0000 0.0000 1756.7093 -7466.4504 299.8699 -9223.1597 -7448.0031 299.9466 -342.3604 -302.8361 30426.5811 190.4227 244.9121
ENERGY: 1500000 1.0502 8.1375 2.1402 0.0000 -10626.5327 1428.6706 0.0000 0.0000 1744.6003 -7441.9340 297.8029 -9186.5343 -7443.8600 300.0207 -20.4208 18.0817 30557.6303 158.5341 214.1793
TCL: Running FEP window   9: Lambda1 0.5999999999999996 Lambda2 0.5499999999999996 [dLambda -0.050000000000000044]
TCL: Setting parameter firsttimestep to 0
TCL: Setting parameter alchLambda to 0.5999999999999996
Info: NONBONDED TABLE R-SQUARED SPACING: 0.0625
Info: NONBONDED TABLE SIZE: 705 POINTS
TCL: Setting parameter alchLambda2 to 0.5499999999999996
Info: NONBONDED TABLE R-SQUARED SPACING: 0.0625
Info: NONBONDED TABLE SIZE: 705 POINTS
TCL: Running for 1500000 steps
ETITLE: TS BOND ANGLE DIHED IMPRP ELECT VDW BOUNDARY MISC KINETIC TOTAL TEMP POTENTIAL TOTALAVG TEMPAVG PRESSURE GPRESSURE VOLUME PRESSAVG GPRESSAVG
ENERGY: 0 1.0502 8.1375 2.1402 0.0000 -10626.5767 1428.9746 0.0000 0.0000 1743.7514 -7442.5227 297.6580 -9186.2741 -7442.5227 297.6580 -70.3337 13.2376 30557.6303 -70.3337 13.2376
ENERGY: 300000 3.1852 11.6219 3.0237 0.0000 -10720.4741 1508.4705 0.0000 0.0000 1734.5594 -7459.6134 296.0889 -9194.1728 -7476.0855 296.3486 82.0602 186.1242 30798.7061 111.7925 192.8988
ENERGY: 600000 2.6789 6.9807 4.5761 0.0000 -10566.4797 1349.6827 0.0000 0.0000 1703.6121 -7498.9493 290.8062 -9202.5614 -7482.9969 295.8550 -786.0767 -736.3924 30435.1894 -164.1917 -82.5667
ENERGY: 900000 0.7600 10.6488 3.2112 0.0000 -10526.4799 1340.1898 0.0000 0.0000 1740.0429 -7431.6272 297.0249 -9171.6701 -7466.5489 296.3479 -1086.6123 -1015.1399 31202.1591 -128.0728 -56.5310
ENERGY: 1200000 0.5722 11.2964 3.3909 0.0000 -10589.7694 1334.8011 0.0000 0.0000 1772.2235 -7467.4853 302.5181 -9239.7089 -7461.3532 297.1814 -826.5022 -791.7329 30202.5051 -110.0698 -39.0309
ENERGY: 1500000 0.7584 8.1737 2.6640 0.0000 -10725.4098 1517.1497 0.0000 0.0000 1789.7787 -7406.8853 305.5148 -9196.6640 -7457.4821 298.4206 283.6891 411.8871 30900.4013 -118.3736 -44.7062
TCL: Running FEP window  10: Lambda1 0.5499999999999996 Lambda2 0.4999999999999996 [dLambda -0.04999999999999999]
TCL: Setting parameter firsttimestep to 0
TCL: Setting parameter alchLambda to 0.5499999999999996
Info: NONBONDED TABLE R-SQUARED SPACING: 0.0625
Info: NONBONDED TABLE SIZE: 705 POINTS
TCL: Setting parameter alchLambda2 to 0.4999999999999996
Info: NONBONDED TABLE R-SQUARED SPACING: 0.0625
Info: NONBONDED TABLE SIZE: 705 POINTS
TCL: Running for 1500000 steps
ETITLE: TS BOND ANGLE DIHED IMPRP ELECT VDW BOUNDARY MISC KINETIC TOTAL TEMP POTENTIAL TOTALAVG TEMPAVG PRESSURE GPRESSURE VOLUME PRESSAVG GPRESSAVG
ENERGY: 0 0.7584 8.1737 2.6640 0.0000 -10725.4134 1517.3102 0.0000 0.0000 1788.9067 -7407.6004 305.3659 -9196.5072 -7407.6004 305.3659 326.1342 404.2691 30900.4013 326.1342 404.2691
ENERGY: 300000 3.5386 7.3272 3.3182 0.0000 -10633.3915 1388.1056 0.0000 0.0000 1743.3880 -7487.7139 297.5959 -9231.1019 -7435.1449 302.4243 -743.4159 -703.5446 30582.9478 -188.9678 -107.5430
ENERGY: 600000 0.7382 8.6360 1.7789 0.0000 -10536.4388 1340.1780 0.0000 0.0000 1723.2933 -7461.8143 294.1657 -9185.1076 -7434.3007 298.2647 -659.1488 -610.9956 30317.7967 -141.1889 -67.7022
ENERGY: 900000 5.2545 8.3143 2.2136 0.0000 -10682.0814 1425.1296 0.0000 0.0000 1786.2429 -7454.9266 304.9112 -9241.1695 -7439.5087 298.4219 -183.2599 -77.3500 29967.8419 -97.9374 -20.1890
ENERGY: 1200000 0.7334 8.8775 2.0528 0.0000 -10603.1410 1413.2956 0.0000 0.0000 1713.8903 -7464.2913 292.5607 -9178.1817 -7452.7369 297.7039 -288.3064 -265.1188 30687.8754 -61.2457 13.7215
ENERGY: 1500000 1.7980 6.4820 2.5934 0.0000 -10532.2834 1353.8366 0.0000 0.0000 1763.8005 -7403.7729 301.0803 -9167.5734 -7441.6752 298.6995 -401.9206 -325.3500 30074.6043 -115.9927 -53.0833
TCL: Running FEP window  11: Lambda1 0.4999999999999996 Lambda2 0.4499999999999996 [dLambda -0.04999999999999999]
TCL: Setting parameter firsttimestep to 0
TCL: Setting parameter alchLambda to 0.4999999999999996
Info: NONBONDED TABLE R-SQUARED SPACING: 0.0625
Info: NONBONDED TABLE SIZE: 705 POINTS
TCL: Setting parameter alchLambda2 to 0.4499999999999996
Info: NONBONDED TABLE R-SQUARED SPACING: 0.0625
Info: NONBONDED TABLE SIZE: 705 POINTS
TCL: Running for 1500000 steps
ETITLE: TS BOND ANGLE DIHED IMPRP ELECT VDW BOUNDARY MISC KINETIC TOTAL TEMP POTENTIAL TOTALAVG TEMPAVG PRESSURE GPRESSURE VOLUME PRESSAVG GPRESSAVG
ENERGY: 0 1.7980 6.4820 2.5934 0.0000 -10532.2183 1354.1026 0.0000 0.0000 1762.9506 -7404.2916 300.9352 -9167.2422 -7404.2916 300.9352 -408.1641 -332.9002 30074.6043 -408.1641 -332.9002
ENERGY: 300000 1.1200 6.6633 6.1039 0.0000 -10612.0582 1434.1513 0.0000 0.0000 1739.2077 -7424.8120 296.8823 -9164.0197 -7444.6889 298.8439 87.3482 107.7041 30477.2872 -333.3496 -256.8542
ENERGY: 600000 2.8442 9.4435 2.3018 0.0000 -10594.6750 1380.3333 0.0000 0.0000 1740.7151 -7459.0370 297.1396 -9199.7521 -7437.1526 300.8694 -629.0423 -547.6587 30290.7133 -307.4091 -236.8187
ENERGY: 900000 2.6356 8.0775 4.6646 0.0000 -10621.0273 1446.2300 0.0000 0.0000 1754.5619 -7404.8576 299.5033 -9159.4196 -7434.6855 301.3910 335.3807 390.9127 29944.0760 -245.6663 -173.7995
ENERGY: 1200000 1.1263 7.6018 3.2017 0.0000 -10673.1725 1441.7756 0.0000 0.0000 1790.3736 -7429.0936 305.6163 -9219.4672 -7439.3971 300.8566 90.8137 148.1608 30289.9698 -135.0383 -58.0620
ENERGY: 1500000 3.0008 8.2281 3.7094 0.0000 -10487.6627 1355.4080 0.0000 0.0000 1787.1151 -7330.2014 305.0601 -9117.3165 -7419.0867 301.6897 -562.0472 -469.2360 30425.5611 -124.6647 -50.0538
TCL: Running FEP window  12: Lambda1 0.4499999999999996 Lambda2 0.39999999999999963 [dLambda -0.04999999999999999]
TCL: Setting parameter firsttimestep to 0
TCL: Setting parameter alchLambda to 0.4499999999999996
Info: NONBONDED TABLE R-SQUARED SPACING: 0.0625
Info: NONBONDED TABLE SIZE: 705 POINTS
TCL: Setting parameter alchLambda2 to 0.39999999999999963
Info: NONBONDED TABLE R-SQUARED SPACING: 0.0625
Info: NONBONDED TABLE SIZE: 705 POINTS
TCL: Running for 1500000 steps
ETITLE: TS BOND ANGLE DIHED IMPRP ELECT VDW BOUNDARY MISC KINETIC TOTAL TEMP POTENTIAL TOTALAVG TEMPAVG PRESSURE GPRESSURE VOLUME PRESSAVG GPRESSAVG
ENERGY: 0 3.0008 8.2281 3.7094 0.0000 -10487.6640 1355.4461 0.0000 0.0000 1786.2345 -7331.0451 304.9098 -9117.2796 -7331.0451 304.9098 -564.5007 -475.0705 30425.5611 -564.5007 -475.0705
ENERGY: 300000 1.9918 8.1940 3.2932 0.0000 -10607.7310 1439.1415 0.0000 0.0000 1743.5656 -7411.5450 297.6262 -9155.1106 -7424.4048 300.0835 -190.8763 -159.5100 30912.3855 -287.4036 -221.8922
ENERGY: 600000 2.1998 7.8602 5.8674 0.0000 -10544.7046 1392.0026 0.0000 0.0000 1823.9462 -7312.8283 311.3472 -9136.7745 -7432.7640 302.0626 -483.1176 -437.6683 30745.0951 -404.5916 -329.5492
ENERGY: 900000 0.2581 9.5953 2.0982 0.0000 -10858.5562 1580.9643 0.0000 0.0000 1795.7663 -7469.8738 306.5369 -9265.6401 -7422.3464 303.0893 890.0221 961.3159 30381.2407 -100.7381 -23.7434
ENERGY: 1200000 0.0968 6.9582 1.7483 0.0000 -10738.9154 1487.4329 0.0000 0.0000 1741.7209 -7500.9583 297.3113 -9242.6792 -7440.6288 300.7206 547.9509 579.8585 29858.2990 -104.4209 -32.8681
ENERGY: 1500000 1.9998 10.8285 2.7115 0.0000 -10503.7807 1337.2649 0.0000 0.0000 1776.0657 -7374.9103 303.1740 -9150.9760 -7418.7518 301.8373 -469.6005 -419.7465 30280.3688 -110.8508 -45.3269
TCL: Running FEP window  13: Lambda1 0.39999999999999963 Lambda2 0.34999999999999964 [dLambda -0.04999999999999999]
TCL: Setting parameter firsttimestep to 0
TCL: Setting parameter alchLambda to 0.39999999999999963
Info: NONBONDED TABLE R-SQUARED SPACING: 0.0625
Info: NONBONDED TABLE SIZE: 705 POINTS
TCL: Setting parameter alchLambda2 to 0.34999999999999964
Info: NONBONDED TABLE R-SQUARED SPACING: 0.0625
Info: NONBONDED TABLE SIZE: 705 POINTS
TCL: Running for 1500000 steps
ETITLE: TS BOND ANGLE DIHED IMPRP ELECT VDW BOUNDARY MISC KINETIC TOTAL TEMP POTENTIAL TOTALAVG TEMPAVG PRESSURE GPRESSURE VOLUME PRESSAVG GPRESSAVG
ENERGY: 0 1.9998 10.8285 2.7115 0.0000 -10503.7802 1337.3686 0.0000 0.0000 1775.1870 -7375.6847 303.0240 -9150.8718 -7375.6847 303.0240 -511.7877 -423.7725 30280.3688 -511.7877 -423.7725
ENERGY: 300000 2.8861 9.7658 2.1325 0.0000 -10612.3375 1377.3571 0.0000 0.0000 1792.0731 -7428.1228 305.9065 -9220.1959 -7380.5722 304.6530 -365.0644 -310.1187 29985.5669 -107.2053 -50.7572
ENERGY: 600000 1.1319 11.0107 3.5589 0.0000 -10595.3617 1395.9684 0.0000 0.0000 1762.0780 -7421.6138 300.7863 -9183.6917 -7405.4450 302.6152 -532.7539 -471.5089 30596.8925 -47.1058 19.0483
ENERGY: 900000 0.9016 10.6807 2.9736 0.0000 -10717.5118 1440.5143 0.0000 0.0000 1707.1369 -7555.3046 291.4079 -9262.4415 -7430.9636 301.1298 -256.8962 -166.0489 30170.1331 -73.7534 -7.6106
ENERGY: 1200000 1.1091 12.9599 3.2234 0.0000 -10675.1920 1500.7484 0.0000 0.0000 1794.0262 -7363.1250 306.2398 -9157.1512 -7420.0715 300.8870 628.4551 645.4457 30487.4349 -28.4054 34.5241
ENERGY: 1500000 1.3766 12.3474 2.1730 0.0000 -10768.6688 1508.1239 0.0000 0.0000 1755.1810 -7489.4669 299.6090 -9244.6480 -7422.7269 301.0618 287.7277 334.3051 30461.4029 45.4900 103.3252
TCL: Running FEP window  14: Lambda1 0.34999999999999964 Lambda2 0.29999999999999966 [dLambda -0.04999999999999999]
TCL: Setting parameter firsttimestep to 0
TCL: Setting parameter alchLambda to 0.34999999999999964
Info: NONBONDED TABLE R-SQUARED SPACING: 0.0625
Info: NONBONDED TABLE SIZE: 705 POINTS
TCL: Setting parameter alchLambda2 to 0.29999999999999966
Info: NONBONDED TABLE R-SQUARED SPACING: 0.0625
Info: NONBONDED TABLE SIZE: 705 POINTS
TCL: Running for 1500000 steps
ETITLE: TS BOND ANGLE DIHED IMPRP ELECT VDW BOUNDARY MISC KINETIC TOTAL TEMP POTENTIAL TOTALAVG TEMPAVG PRESSURE GPRESSURE VOLUME PRESSAVG GPRESSAVG
ENERGY: 0 1.3766 12.3474 2.1730 0.0000 -10768.6668 1508.7092 0.0000 0.0000 1754.3070 -7489.7536 299.4598 -9244.0606 -7489.7536 299.4598 248.1191 333.1015 30461.4029 248.1191 333.1015
ENERGY: 300000 2.6107 10.6599 3.4218 0.0000 -10709.9187 1437.3448 0.0000 0.0000 1781.2612 -7474.6202 304.0609 -9255.8814 -7435.3695 303.9650 -148.4306 -51.1498 29856.1472 -221.5535 -153.5366
ENERGY: 600000 1.7509 8.5634 2.2843 0.0000 -10667.8452 1478.8165 0.0000 0.0000 1744.9670 -7431.4631 297.8655 -9176.4302 -7452.3959 301.4732 571.2534 648.2097 29724.3039 6.4027 76.1384
ENERGY: 900000 1.2743 8.7163 2.9414 0.0000 -10647.0865 1433.5158 0.0000 0.0000 1781.3607 -7419.2779 304.0778 -9200.6386 -7449.7977 301.4208 237.1378 232.8810 29901.6611 44.7345 109.5036
ENERGY: 1200000 1.0821 11.3764 1.8892 0.0000 -10771.8461 1473.9761 0.0000 0.0000 1728.2635 -7555.2589 295.0142 -9283.5224 -7452.4598 301.1550 139.6487 180.4829 30017.3890 99.1733 162.0525
ENERGY: 1500000 0.9594 5.7749 3.8754 0.0000 -10781.4027 1492.4691 0.0000 0.0000 1776.4327 -7501.8912 303.2366 -9278.3239 -7453.5822 301.2904 114.0183 178.9644 30410.5231 142.0112 198.6191
TCL: Running FEP window  15: Lambda1 0.29999999999999966 Lambda2 0.24999999999999967 [dLambda -0.04999999999999999]
TCL: Setting parameter firsttimestep to 0
TCL: Setting parameter alchLambda to 0.29999999999999966
Info: NONBONDED TABLE R-SQUARED SPACING: 0.0625
Info: NONBONDED TABLE SIZE: 705 POINTS
TCL: Setting parameter alchLambda2 to 0.24999999999999967
Info: NONBONDED TABLE R-SQUARED SPACING: 0.0625
Info: NONBONDED TABLE SIZE: 705 POINTS
TCL: Running for 1500000 steps
ETITLE: TS BOND ANGLE DIHED IMPRP ELECT VDW BOUNDARY MISC KINETIC TOTAL TEMP POTENTIAL TOTALAVG TEMPAVG PRESSURE GPRESSURE VOLUME PRESSAVG GPRESSAVG
ENERGY: 0 0.9594 5.7749 3.8754 0.0000 -10781.4031 1492.6039 0.0000 0.0000 1775.5298 -7502.6597 303.0825 -9278.1895 -7502.6597 303.0825 92.1911 175.0036 30410.5231 92.1911 175.0036
ENERGY: 300000 2.1134 10.4502 2.3631 0.0000 -10554.2555 1361.6240 0.0000 0.0000 1795.2229 -7382.4819 306.4441 -9177.7049 -7435.7538 304.2006 -618.3496 -541.7829 30099.4092 -86.1747 -26.7309
ENERGY: 600000 2.0977 8.0328 5.3000 0.0000 -10693.0248 1485.7179 0.0000 0.0000 1803.1452 -7388.7312 307.7964 -9191.8764 -7432.2667 302.9202 334.2430 421.4912 30384.0990 -1.1085 66.7656
ENERGY: 900000 0.9399 9.3091 2.8132 0.0000 -10675.7755 1421.7062 0.0000 0.0000 1779.1939 -7461.8134 303.7080 -9241.0072 -7442.1792 303.7321 -196.6565 -108.7516 30078.3251 106.1365 188.3599
ENERGY: 1200000 1.5356 7.2827 2.9901 0.0000 -10534.1443 1339.1740 0.0000 0.0000 1709.1711 -7473.9907 291.7551 -9183.1618 -7455.1512 301.5973 -1010.8183 -916.1859 30572.1500 14.3945 96.9714
ENERGY: 1500000 1.4578 13.9600 2.3148 0.0000 -10506.4629 1307.6361 0.0000 0.0000 1775.7444 -7405.3497 303.1191 -9181.0941 -7451.9381 301.1851 -838.3004 -760.8013 30084.5730 -35.6571 43.4257
TCL: Running FEP window  16: Lambda1 0.24999999999999967 Lambda2 0.19999999999999968 [dLambda -0.04999999999999999]
TCL: Setting parameter firsttimestep to 0
TCL: Setting parameter alchLambda to 0.24999999999999967
Info: NONBONDED TABLE R-SQUARED SPACING: 0.0625
Info: NONBONDED TABLE SIZE: 705 POINTS
TCL: Setting parameter alchLambda2 to 0.19999999999999968
Info: NONBONDED TABLE R-SQUARED SPACING: 0.0625
Info: NONBONDED TABLE SIZE: 705 POINTS
TCL: Running for 1500000 steps
ETITLE: TS BOND ANGLE DIHED IMPRP ELECT VDW BOUNDARY MISC KINETIC TOTAL TEMP POTENTIAL TOTALAVG TEMPAVG PRESSURE GPRESSURE VOLUME PRESSAVG GPRESSAVG
ENERGY: 0 1.4579 13.9600 2.3148 0.0000 -10506.4638 1308.0504 0.0000 0.0000 1774.8806 -7405.8001 302.9717 -9180.6807 -7405.8001 302.9717 -843.4387 -762.3412 30084.5730 -843.4387 -762.3412
ENERGY: 300000 0.2768 7.3479 2.0469 0.0000 -10485.9510 1325.2593 0.0000 0.0000 1784.6769 -7366.3432 304.6439 -9151.0201 -7428.2491 301.1636 -636.5829 -595.1721 30376.0983 -236.6719 -203.0377
ENERGY: 600000 1.0622 12.7928 2.8175 0.0000 -10610.0488 1401.1175 0.0000 0.0000 1723.9411 -7468.3177 294.2763 -9192.2589 -7419.8891 300.4452 -299.8983 -263.7840 30381.2860 -249.9952 -200.4562
ENERGY: 900000 0.1784 7.6914 2.8972 0.0000 -10565.7144 1358.9060 0.0000 0.0000 1779.8359 -7416.2055 303.8176 -9196.0414 -7423.1675 300.4449 -475.2614 -435.8655 30166.0254 -248.2268 -185.9931
ENERGY: 1200000 1.2123 8.3312 2.5081 0.0000 -10638.7442 1411.3620 0.0000 0.0000 1755.5539 -7459.7767 299.6726 -9215.3306 -7429.7422 299.9539 109.6842 66.9387 29993.2490 -290.5881 -238.5407
ENERGY: 1500000 2.2718 9.4096 2.3378 0.0000 -10826.5287 1537.1495 0.0000 0.0000 1737.0827 -7538.2774 296.5196 -9275.3601 -7432.4149 300.0559 734.3177 808.7193 29599.4613 -230.4714 -175.7208
TCL: Running FEP window  17: Lambda1 0.19999999999999968 Lambda2 0.1499999999999997 [dLambda -0.04999999999999999]
TCL: Setting parameter firsttimestep to 0
TCL: Setting parameter alchLambda to 0.19999999999999968
Info: NONBONDED TABLE R-SQUARED SPACING: 0.0625
Info: NONBONDED TABLE SIZE: 705 POINTS
TCL: Setting parameter alchLambda2 to 0.1499999999999997
Info: NONBONDED TABLE R-SQUARED SPACING: 0.0625
Info: NONBONDED TABLE SIZE: 705 POINTS
TCL: Running for 1500000 steps
ETITLE: TS BOND ANGLE DIHED IMPRP ELECT VDW BOUNDARY MISC KINETIC TOTAL TEMP POTENTIAL TOTALAVG TEMPAVG PRESSURE GPRESSURE VOLUME PRESSAVG GPRESSAVG
ENERGY: 0 2.2718 9.4096 2.3378 0.0000 -10826.5286 1537.1071 0.0000 0.0000 1736.2217 -7539.1807 296.3726 -9275.4024 -7539.1807 296.3726 720.0730 805.1269 29599.4613 720.0730 805.1269
ENERGY: 300000 3.0962 9.9090 2.3854 0.0000 -10633.9490 1426.1557 0.0000 0.0000 1775.6354 -7416.7673 303.1005 -9192.4026 -7426.6182 302.9829 -42.6154 15.4977 30088.4902 250.2761 299.3407
ENERGY: 600000 0.5079 5.2277 1.6469 0.0000 -10754.4258 1531.8421 0.0000 0.0000 1681.7449 -7533.4563 287.0734 -9215.2012 -7460.2935 298.4796 525.3407 570.4990 30515.1006 178.7247 230.6192
ENERGY: 900000 0.9180 9.1942 1.8135 0.0000 -10603.1602 1324.6631 0.0000 0.0000 1737.0671 -7529.5044 296.5169 -9266.5715 -7467.7389 297.9856 -1057.8293 -993.4762 30230.4460 -16.9583 37.6499
ENERGY: 1200000 3.5345 7.9527 2.3155 0.0000 -10608.8880 1372.3280 0.0000 0.0000 1713.1311 -7509.6261 292.4311 -9222.7573 -7470.2594 297.6176 -563.3038 -588.8617 30202.1351 -121.9721 -72.7887
ENERGY: 1500000 1.9288 12.7040 1.7746 0.0000 -10582.8355 1449.0664 0.0000 0.0000 1768.8625 -7348.4993 301.9444 -9117.3618 -7456.5086 297.9142 260.2638 319.0178 30209.6758 -92.3310 -45.8438
TCL: Running FEP window  18: Lambda1 0.1499999999999997 Lambda2 0.09999999999999969 [dLambda -0.05 ]
TCL: Setting parameter firsttimestep to 0
TCL: Setting parameter alchLambda to 0.1499999999999997
Info: NONBONDED TABLE R-SQUARED SPACING: 0.0625
Info: NONBONDED TABLE SIZE: 705 POINTS
TCL: Setting parameter alchLambda2 to 0.09999999999999969
Info: NONBONDED TABLE R-SQUARED SPACING: 0.0625
Info: NONBONDED TABLE SIZE: 705 POINTS
TCL: Running for 1500000 steps
ETITLE: TS BOND ANGLE DIHED IMPRP ELECT VDW BOUNDARY MISC KINETIC TOTAL TEMP POTENTIAL TOTALAVG TEMPAVG PRESSURE GPRESSURE VOLUME PRESSAVG GPRESSAVG
ENERGY: 0 1.9288 12.7040 1.7746 0.0000 -10582.8352 1449.1184 0.0000 0.0000 1767.9767 -7349.3327 301.7932 -9117.3094 -7349.3327 301.7932 227.4631 314.3100 30209.6758 227.4631 314.3100
ENERGY: 300000 1.4725 6.4371 2.8019 0.0000 -10488.8129 1339.3363 0.0000 0.0000 1780.3440 -7358.4211 303.9043 -9138.7652 -7416.8677 300.4730 -609.8553 -498.9499 30300.7002 -300.5465 -198.9597
ENERGY: 600000 4.3214 9.1837 1.8872 0.0000 -10563.4877 1340.5980 0.0000 0.0000 1742.0025 -7465.4951 297.3594 -9207.4975 -7408.4068 300.1878 -663.2151 -579.7369 29882.3425 -140.3287 -58.2613
ENERGY: 900000 2.8971 10.4183 2.5540 0.0000 -10678.9884 1484.8987 0.0000 0.0000 1736.3876 -7441.8326 296.4009 -9178.2202 -7426.0330 299.3773 322.9789 404.2276 30298.8533 -39.8714 33.0754
ENERGY: 1200000 2.3812 9.1821 2.9362 0.0000 -10630.6647 1480.7578 0.0000 0.0000 1768.9421 -7366.4653 301.9580 -9135.4074 -7418.3997 300.0323 326.5400 350.6705 30442.7008 -67.0168 -2.6250
ENERGY: 1500000 2.2082 13.6976 5.4681 0.0000 -10729.9053 1459.6999 0.0000 0.0000 1768.5960 -7480.2356 301.8989 -9248.8316 -7416.9591 299.4734 153.2367 130.5417 30245.8237 -52.4657 3.2949
TCL: Running FEP window  19: Lambda1 0.09999999999999969 Lambda2 0.049999999999999684 [dLambda -0.05 ]
TCL: Setting parameter firsttimestep to 0
TCL: Setting parameter alchLambda to 0.09999999999999969
Info: NONBONDED TABLE R-SQUARED SPACING: 0.0625
Info: NONBONDED TABLE SIZE: 705 POINTS
TCL: Setting parameter alchLambda2 to 0.049999999999999684
Info: NONBONDED TABLE R-SQUARED SPACING: 0.0625
Info: NONBONDED TABLE SIZE: 705 POINTS
TCL: Running for 1500000 steps
ETITLE: TS BOND ANGLE DIHED IMPRP ELECT VDW BOUNDARY MISC KINETIC TOTAL TEMP POTENTIAL TOTALAVG TEMPAVG PRESSURE GPRESSURE VOLUME PRESSAVG GPRESSAVG
ENERGY: 0 2.2082 13.6976 5.4681 0.0000 -10729.9040 1458.9494 0.0000 0.0000 1767.6985 -7481.8822 301.7457 -9249.5807 -7481.8822 301.7457 55.3433 126.7296 30245.8237 55.3433 126.7296
ENERGY: 300000 1.2328 8.8773 1.7480 0.0000 -10621.4831 1403.8174 0.0000 0.0000 1736.1270 -7469.6806 296.3565 -9205.8076 -7445.6504 300.3585 -326.6842 -308.1577 30102.9939 -43.8574 -21.9166
ENERGY: 600000 0.5813 10.8771 2.0481 0.0000 -10613.9297 1395.8588 0.0000 0.0000 1770.0404 -7434.5239 302.1455 -9204.5644 -7429.4740 300.8817 -490.3871 -412.3808 30514.1776 -90.4067 -50.2371
ENERGY: 900000 2.3024 8.6618 2.0098 0.0000 -10621.9735 1430.8288 0.0000 0.0000 1754.0178 -7424.1529 299.4104 -9178.1707 -7432.7803 301.1181 201.8945 245.2095 29949.8942 12.6288 61.4101
ENERGY: 1200000 4.1339 7.4693 2.7610 0.0000 -10615.7181 1461.9072 0.0000 0.0000 1776.4528 -7362.9938 303.2401 -9139.4466 -7422.6390 301.4853 331.4116 410.6682 30416.6281 1.9731 50.9342
ENERGY: 1500000 2.5350 11.7138 3.1030 0.0000 -10680.6900 1465.3440 0.0000 0.0000 1809.3250 -7388.6693 308.8513 -9197.9943 -7427.2401 300.6389 572.7450 593.5108 29601.4675 5.5862 49.9328
TCL: Running FEP window  20: Lambda1 0.049999999999999684 Lambda2 0.0    [dLambda -0.049999999999999684]
TCL: Setting parameter firsttimestep to 0
TCL: Setting parameter alchLambda to 0.049999999999999684
Info: NONBONDED TABLE R-SQUARED SPACING: 0.0625
Info: NONBONDED TABLE SIZE: 705 POINTS
TCL: Setting parameter alchLambda2 to 0.0
Info: NONBONDED TABLE R-SQUARED SPACING: 0.0625
Info: NONBONDED TABLE SIZE: 705 POINTS
TCL: Running for 1500000 steps
ETITLE: TS BOND ANGLE DIHED IMPRP ELECT VDW BOUNDARY MISC KINETIC TOTAL TEMP POTENTIAL TOTALAVG TEMPAVG PRESSURE GPRESSURE VOLUME PRESSAVG GPRESSAVG
ENERGY: 0 2.5349 11.7138 3.1030 0.0000 -10680.6895 1464.9361 0.0000 0.0000 1808.4586 -7389.9430 308.7035 -9198.4017 -7389.9430 308.7035 515.2125 590.5418 29601.4675 515.2125 590.5418
ENERGY: 300000 2.5968 8.6138 3.5380 0.0000 -10664.0282 1469.4127 0.0000 0.0000 1785.4366 -7394.4303 304.7736 -9179.8668 -7399.7834 303.9833 260.3371 320.1926 29945.5063 117.0244 185.2713
ENERGY: 600000 2.0615 8.1245 2.9246 0.0000 -10615.9072 1387.1512 0.0000 0.0000 1775.8753 -7439.7700 303.1415 -9215.6453 -7427.3075 302.0265 -295.2614 -293.4334 30246.6557 75.3171 135.5988
ENERGY: 900000 0.6704 8.3800 4.4129 0.0000 -10520.7643 1297.0371 0.0000 0.0000 1710.1005 -7500.1634 291.9137 -9210.2639 -7415.4411 300.2158 -1292.0264 -1152.6299 30590.8799 -97.1155 -19.0430
ENERGY: 1200000 0.7613 17.2985 3.8802 0.0000 -10653.6986 1391.5935 0.0000 0.0000 1775.7146 -7464.4505 303.1140 -9240.1651 -7428.9322 300.2482 -473.6192 -395.6863 30072.9121 -130.1276 -54.8196
ENERGY: 1500000 4.7349 11.6234 2.0378 0.0000 -10712.0942 1396.3789 0.0000 0.0000 1720.9753 -7576.3439 293.7701 -9297.3191 -7442.5716 298.8036 -615.6920 -542.6526 29827.3144 -114.9072 -49.2767
TCL: Exiting due to exit command.
