Info: SIMULATION PARAMETERS:
Info: TIMESTEP               2
Info: NUMBER OF STEPS        0
Info: STEPS PER CYCLE        10
Info: PERIODIC CELL BASIS 1  31.0701 0 0
Info: PERIODIC CELL BASIS 2  0 30.6003 0
Info: PERIODIC CELL BASIS 3  0 0 31.7246
Info: PERIODIC CELL CENTER   0 0 0
Info: WRAPPING WATERS AROUND PERIODIC BOUNDARIES ON OUTPUT.
Info: WRAPPING ALL CLUSTERS AROUND PERIODIC BOUNDARIES ON OUTPUT.
Info: FIRST LDB TIMESTEP     50
Info: LAST LDB TIMESTEP     -1
Info: HOM BACKGROUND SCALING 1
Info: PME BACKGROUND SCALING 1
Info: MIN ATOMS PER PATCH    40
Info: EMPTY PATCH LOAD       40 ATOMS
Info: VELOCITY FILE          mobley_1674094_equil.vel
Info: CENTER OF MASS MOVING INITIALLY? NO
Info: DIELECTRIC             1
Info: EXCLUDE                SCALED ONE-FOUR
Info: 1-4 ELECTROSTATICS SCALED BY 0.833333
Info: MODIFIED 1-4 VDW PARAMETERS WILL BE USED
Info: DCD FILENAME           mobley_1674094_prod.dcd
Info: DCD FREQUENCY          100000
Info: DCD FIRST STEP         100000
Info: DCD FILE WILL CONTAIN UNIT CELL DATA
Info: XST FILENAME           mobley_1674094_prod.xst
Info: XST FREQUENCY          100000
Info: NO VELOCITY DCD OUTPUT
Info: NO FORCE DCD OUTPUT
Info: OUTPUT FILENAME        mobley_1674094_prod
Info: BINARY OUTPUT FILES WILL BE USED
Info: RESTART FILENAME       mobley_1674094_prod.restart
Info: RESTART FREQUENCY      100000
Info: BINARY RESTART FILES WILL BE USED
Info: CUTOFF                 9
Info: PAIRLIST DISTANCE      11
Info: PAIRLIST SHRINK RATE   0.01
Info: PAIRLIST GROW RATE     0.01
Info: PAIRLIST TRIGGER       0.3
Info: PAIRLISTS PER CYCLE    2
Info: PAIRLISTS ENABLED
Info: MARGIN                 2
Info: HYDROGEN GROUP CUTOFF  2.5
Info: PATCH DIMENSION        15.5
Info: ENERGY OUTPUT STEPS    100000
Info: ENERGY EVALUATION STEPS    100000
Info: OUTPUT ENERGY PRECISION 4
Info: CROSSTERM ENERGY INCLUDED IN DIHEDRAL
Info: TIMING OUTPUT STEPS    1000000
Info: PRESSURE OUTPUT STEPS  100000
Info: ALCHEMICAL FEP ON
Info: FEP CURRENT LAMBDA VALUE     1
Info: FEP COMPARISON LAMBDA VALUE  0.95
Info: FEP INTRA-ALCHEMICAL NON-BONDED INTERACTIONS WILL BE RETAINED
Info: FEP INTRA-ALCHEMICAL BONDED INTERACTIONS WILL BE RETAINED
Info: FEP VDW SHIFTING COEFFICIENT 5
Info: FEP ELEC. ACTIVE FOR ANNIHILATED PARTICLES BETWEEN LAMBDA = 0 AND LAMBDA = 0.5
Info: FEP ELEC. ACTIVE FOR EXNIHILATED PARTICLES BETWEEN LAMBDA = 0.5 AND LAMBDA = 1
Info: FEP VDW ACTIVE FOR ANNIHILATED PARTICLES BETWEEN LAMBDA = 0 AND LAMBDA = 1
Info: FEP VDW ACTIVE FOR EXNIHILATED PARTICLES BETWEEN LAMBDA = 0 AND LAMBDA = 1
Info: FEP BOND ACTIVE FOR ANNIHILATED PARTICLES BETWEEN LAMBDA = 1 AND LAMBDA = 1
Info: FEP BOND ACTIVE FOR EXNIHILATED PARTICLES BETWEEN LAMBDA = 0 AND LAMBDA = 0
Info: LANGEVIN DYNAMICS ACTIVE
Info: LANGEVIN TEMPERATURE   300
Info: LANGEVIN USING BBK INTEGRATOR
Info: LANGEVIN DAMPING COEFFICIENT IS 1 INVERSE PS
Info: LANGEVIN DYNAMICS APPLIED TO HYDROGENS
Info: LANGEVIN PISTON PRESSURE CONTROL ACTIVE
Info:        TARGET PRESSURE IS 1.01325 BAR
Info:     OSCILLATION PERIOD IS 50 FS
Info:             DECAY TIME IS 25 FS
Info:     PISTON TEMPERATURE IS 300 K
Info:       PRESSURE CONTROL IS GROUP-BASED
Info:    INITIAL STRAIN RATE IS -0.00038732 -0.00038732 -0.00038732
Info:       CELL FLUCTUATION IS ISOTROPIC
Info: PARTICLE MESH EWALD (PME) ACTIVE
Info: PME TOLERANCE               1e-06
Info: PME EWALD COEFFICIENT       0.348832
Info: PME INTERPOLATION ORDER     4
Info: PME GRID DIMENSIONS         32 32 32
Info: PME MAXIMUM GRID SPACING    1
Info: PME CALCULATION WILL BE PERFORMED ON GPU
Info: FULL ELECTROSTATIC EVALUATION FREQUENCY      2
Info: USING VERLET I (r-RESPA) MTS SCHEME.
Info: C1 SPLITTING OF LONG RANGE ELECTROSTATICS
Info: PLACING ATOMS IN PATCHES BY HYDROGEN GROUPS
Info: RIGID BONDS TO HYDROGEN : ALL
Info:         ERROR TOLERANCE : 1e-08
Info:          MAX ITERATIONS : 100
Info: RIGID WATER USING SETTLE ALGORITHM
Info: RANDOM NUMBER SEED     1743853279
Info: USE HYDROGEN BONDS?    NO
Info: Using AMBER format force field!
Info: AMBER PARM FILE        mobley_1674094.prmtop
Info: COORDINATE PDB         mobley_1674094.pdb
Info: Exclusions will be read from PARM file!
Info: SCNB (VDW SCALING)     2
Info: USING ARITHMETIC MEAN TO COMBINE L-J SIGMA PARAMETERS
Info: BINARY COORDINATES     mobley_1674094_equil.coor
Info: SUMMARY OF PARAMETERS:
Info: 7 BONDS
Info: 7 ANGLES
Info:   7 HARMONIC
Info:   0 COSINE-BASED
Info: 7 DIHEDRAL
Info: 0 IMPROPER
Info: 0 CROSSTERM
Info: 0 VDW
Info: 21 VDW_PAIRS
Info: 0 NBTHOLE_PAIRS
Info: To read alchdata from file: mobley_1674094.pdb
Info: To read alchflag data from column: 5
Info: STRUCTURE SUMMARY:
Info: 2917 ATOMS
Info: 2916 BONDS
Info: 26 ANGLES
Info: 33 DIHEDRALS
Info: 0 IMPROPERS
Info: 0 CROSSTERMS
Info: 2973 EXCLUSIONS
Info: 2911 RIGID BONDS
Info: ALCH: 0 ATOMS TO DISAPPEAR IN FINAL STATE
Info: ALCH: 16 ATOMS TO APPEAR IN FINAL STATE
Info: 5840 DEGREES OF FREEDOM
Info: 973 HYDROGEN GROUPS
Info: 4 ATOMS IN LARGEST HYDROGEN GROUP
Info: 973 MIGRATION GROUPS
Info: 4 ATOMS IN LARGEST MIGRATION GROUP
Info: TOTAL MASS = 17503.6 amu
Info: TOTAL CHARGE = 0.000199989 e
Info: MASS DENSITY = 0.963654 g/cm^3
Info: ATOM DENSITY = 0.0967099 atoms/A^3
Info: ADDED 0 IMPLICIT EXCLUSIONS
Info: NONBONDED TABLE R-SQUARED SPACING: 0.0625
Info: NONBONDED TABLE SIZE: 705 POINTS
Info: REMOVING COM VELOCITY -0.0836721 -0.0201265 0.00961714
Info: Use 3D box decompostion in PME FFT.
Info: Updated CUDA force table with 4096 elements.
Info: Updated CUDA LJ table with 6 x 6 elements.
Info: Found 19 unique exclusion lists needing 44 bytes
TCL: Running for 1500000 steps
ETITLE: TS BOND ANGLE DIHED IMPRP ELECT VDW BOUNDARY MISC KINETIC TOTAL TEMP POTENTIAL TOTALAVG TEMPAVG PRESSURE GPRESSURE VOLUME PRESSAVG GPRESSAVG
ENERGY: 0 2.4952 6.7476 2.1629 0.0000 -10501.9129 1289.7877 0.0000 0.0000 1723.7969 -7476.9226 297.0733 -9200.7195 -7476.9226 297.0733 -1311.6351 -1231.0507 30162.3857 -1311.6351 -1231.0507
ENERGY: 300000 0.5052 8.7373 1.4172 0.0000 -10489.3737 1371.7268 0.0000 0.0000 1674.1726 -7432.8145 288.5212 -9106.9871 -7418.6288 298.4775 -523.7453 -498.1014 30497.9203 -263.0583 -209.0444
ENERGY: 600000 2.2281 7.9055 1.2480 0.0000 -10468.2811 1345.5703 0.0000 0.0000 1719.7217 -7391.6074 296.3710 -9111.3291 -7387.7135 299.4484 -599.8711 -558.9196 30306.4011 -187.1850 -126.5798
ENERGY: 900000 2.7328 6.8404 0.9001 0.0000 -10600.3424 1444.3730 0.0000 0.0000 1677.9558 -7467.5404 289.1732 -9145.4962 -7386.8856 300.4160 167.4272 273.9612 29834.7408 -51.5895 14.7688
ENERGY: 1200000 1.5144 5.9040 1.3690 0.0000 -10451.6909 1358.7398 0.0000 0.0000 1744.1809 -7339.9827 300.5862 -9084.1636 -7390.2389 299.7084 -481.0099 -407.0635 30481.3679 -4.7787 57.8179
ENERGY: 1500000 0.8907 4.9329 0.9456 0.0000 -10508.7770 1395.0402 0.0000 0.0000 1783.6289 -7323.3388 307.3846 -9106.9677 -7384.5042 300.4913 214.5127 272.5333 29708.1874 56.7964 123.4568
TCL: Running FEP window   2: Lambda1 0.95   Lambda2 0.8999999999999999 [dLambda -0.050000000000000044]
TCL: Setting parameter firsttimestep to 0
TCL: Setting parameter alchLambda to 0.95
Info: NONBONDED TABLE R-SQUARED SPACING: 0.0625
Info: NONBONDED TABLE SIZE: 705 POINTS
TCL: Setting parameter alchLambda2 to 0.8999999999999999
Info: NONBONDED TABLE R-SQUARED SPACING: 0.0625
Info: NONBONDED TABLE SIZE: 705 POINTS
TCL: Running for 1500000 steps
ETITLE: TS BOND ANGLE DIHED IMPRP ELECT VDW BOUNDARY MISC KINETIC TOTAL TEMP POTENTIAL TOTALAVG TEMPAVG PRESSURE GPRESSURE VOLUME PRESSAVG GPRESSAVG
ENERGY: 0 0.8907 4.9329 0.9456 0.0000 -10508.3894 1394.9098 0.0000 0.0000 1782.7668 -7323.9437 307.2360 -9106.7105 -7323.9437 307.2360 154.8406 256.3750 29708.1874 154.8406 256.3750
ENERGY: 300000 4.0782 12.1269 2.2055 0.0000 -10460.0045 1339.2120 0.0000 0.0000 1705.9746 -7396.4073 294.0019 -9102.3819 -7389.2700 303.0621 -751.2736 -725.3848 30198.1043 -213.8018 -174.5038
ENERGY: 600000 0.6274 7.1162 0.7211 0.0000 -10533.3446 1392.7636 0.0000 0.0000 1765.3844 -7366.7320 304.2403 -9132.1164 -7388.6087 302.0087 -173.2817 -142.6422 29837.7592 -248.4946 -201.7423
ENERGY: 900000 1.1042 7.6192 0.9444 0.0000 -10772.3896 1485.4474 0.0000 0.0000 1726.7712 -7550.5032 297.5859 -9277.2745 -7393.3734 302.2375 516.9573 466.4317 29516.9809 -150.9909 -120.7092
ENERGY: 1200000 0.8238 5.3224 1.8063 0.0000 -10491.9325 1399.2352 0.0000 0.0000 1749.6285 -7335.1163 301.5250 -9084.7448 -7404.6557 300.9039 -1.7928 58.4199 30043.6273 -187.3762 -149.4629
ENERGY: 1500000 2.3456 8.1130 0.9700 0.0000 -10487.1997 1357.2975 0.0000 0.0000 1792.6177 -7325.8559 308.9337 -9118.4737 -7399.0281 301.5994 -469.2290 -448.7518 30234.0861 -127.5410 -90.3305
TCL: Running FEP window   3: Lambda1 0.8999999999999999 Lambda2 0.8499999999999999 [dLambda -0.050000000000000044]
TCL: Setting parameter firsttimestep to 0
TCL: Setting parameter alchLambda to 0.8999999999999999
Info: NONBONDED TABLE R-SQUARED SPACING: 0.0625
Info: NONBONDED TABLE SIZE: 705 POINTS
TCL: Setting parameter alchLambda2 to 0.8499999999999999
Info: NONBONDED TABLE R-SQUARED SPACING: 0.0625
Info: NONBONDED TABLE SIZE: 705 POINTS
TCL: Running for 1500000 steps
ETITLE: TS BOND ANGLE DIHED IMPRP ELECT VDW BOUNDARY MISC KINETIC TOTAL TEMP POTENTIAL TOTALAVG TEMPAVG PRESSURE GPRESSURE VOLUME PRESSAVG GPRESSAVG
ENERGY: 0 2.3456 8.1130 0.9700 0.0000 -10486.9336 1357.4503 0.0000 0.0000 1791.7615 -7326.2933 308.7861 -9118.0548 -7326.2933 308.7861 -535.1503 -457.7638 30234.0861 -535.1503 -457.7638
ENERGY: 300000 2.3642 9.1933 0.9604 0.0000 -10375.0069 1311.7550 0.0000 0.0000 1699.6347 -7351.0993 292.9093 -9050.7340 -7341.6262 300.3315 -854.7398 -870.1054 30624.2783 -522.4650 -468.6399
ENERGY: 600000 1.4740 6.6010 0.9829 0.0000 -10562.9650 1443.0161 0.0000 0.0000 1767.2892 -7343.6019 304.5686 -9110.8911 -7327.3917 301.8338 403.2810 437.5076 30138.0966 -285.9920 -239.8004
ENERGY: 900000 4.5961 8.4183 0.6805 0.0000 -10537.5123 1440.8884 0.0000 0.0000 1771.3326 -7311.5964 305.2655 -9082.9290 -7333.0309 301.9399 329.6471 363.4575 30085.1217 74.7341 122.3255
ENERGY: 1200000 3.1064 7.3198 1.1920 0.0000 -10492.1382 1386.9235 0.0000 0.0000 1788.2063 -7305.3901 308.1734 -9093.5965 -7347.7121 301.6216 -457.7261 -356.1613 30384.1544 -44.1229 9.9488
ENERGY: 1500000 1.2665 7.9572 1.3381 0.0000 -10539.9766 1398.8842 0.0000 0.0000 1763.8253 -7366.7053 303.9717 -9130.5306 -7349.3813 302.0549 -209.0982 -165.9913 30022.6729 -20.7815 40.5314
TCL: Running FEP window   4: Lambda1 0.8499999999999999 Lambda2 0.7999999999999998 [dLambda -0.050000000000000044]
TCL: Setting parameter firsttimestep to 0
TCL: Setting parameter alchLambda to 0.8499999999999999
Info: NONBONDED TABLE R-SQUARED SPACING: 0.0625
Info: NONBONDED TABLE SIZE: 705 POINTS
TCL: Setting parameter alchLambda2 to 0.7999999999999998
Info: NONBONDED TABLE R-SQUARED SPACING: 0.0625
Info: NONBONDED TABLE SIZE: 705 POINTS
TCL: Running for 1500000 steps
ETITLE: TS BOND ANGLE DIHED IMPRP ELECT VDW BOUNDARY MISC KINETIC TOTAL TEMP POTENTIAL TOTALAVG TEMPAVG PRESSURE GPRESSURE VOLUME PRESSAVG GPRESSAVG
ENERGY: 0 1.2665 7.9572 1.3381 0.0000 -10539.8011 1398.8191 0.0000 0.0000 1763.0191 -7367.4010 303.8327 -9130.4201 -7367.4010 303.8327 -258.5616 -177.1408 30022.6729 -258.5616 -177.1408
ENERGY: 300000 3.1716 9.2190 1.2122 0.0000 -10606.5498 1397.3187 0.0000 0.0000 1769.9961 -7425.6324 305.0351 -9195.6284 -7382.8242 303.7449 -307.8340 -257.7913 29993.9749 -200.1181 -156.9380
ENERGY: 600000 1.4191 7.8934 0.7505 0.0000 -10692.2152 1489.4856 0.0000 0.0000 1742.6642 -7450.0024 300.3248 -9192.6666 -7372.2954 303.2663 375.8792 440.6741 30173.5791 -155.2007 -100.5066
ENERGY: 900000 1.0453 6.0046 1.5069 0.0000 -10492.5198 1350.4093 0.0000 0.0000 1728.6657 -7404.8881 297.9124 -9133.5538 -7361.0690 304.1903 -802.7564 -731.5517 30404.9890 -189.4534 -132.9251
ENERGY: 1200000 1.9493 4.5395 1.0892 0.0000 -10575.6889 1464.2274 0.0000 0.0000 1805.7355 -7298.1481 311.1943 -9103.8836 -7363.2283 303.7249 532.0208 533.0867 29793.6618 -195.2691 -147.5421
ENERGY: 1500000 1.2363 7.4074 1.3370 0.0000 -10542.1302 1385.6841 0.0000 0.0000 1703.0990 -7443.3666 293.5063 -9146.4655 -7370.0428 302.8012 -239.1999 -177.8165 29972.8067 -242.7208 -190.8503
TCL: Running FEP window   5: Lambda1 0.7999999999999998 Lambda2 0.7499999999999998 [dLambda -0.050000000000000044]
TCL: Setting parameter firsttimestep to 0
TCL: Setting parameter alchLambda to 0.7999999999999998
Info: NONBONDED TABLE R-SQUARED SPACING: 0.0625
Info: NONBONDED TABLE SIZE: 705 POINTS
TCL: Setting parameter alchLambda2 to 0.7499999999999998
Info: NONBONDED TABLE R-SQUARED SPACING: 0.0625
Info: NONBONDED TABLE SIZE: 705 POINTS
TCL: Running for 1500000 steps
ETITLE: TS BOND ANGLE DIHED IMPRP ELECT VDW BOUNDARY MISC KINETIC TOTAL TEMP POTENTIAL TOTALAVG TEMPAVG PRESSURE GPRESSURE VOLUME PRESSAVG GPRESSAVG
ENERGY: 0 1.2363 7.4074 1.3370 0.0000 -10541.9525 1385.3845 0.0000 0.0000 1702.2179 -7444.3694 293.3545 -9146.5873 -7444.3694 293.3545 -282.6803 -192.5584 29972.8067 -282.6803 -192.5584
ENERGY: 300000 2.2761 8.0313 1.5472 0.0000 -10516.5456 1360.5707 0.0000 0.0000 1742.2919 -7401.8284 300.2607 -9144.1203 -7411.5378 297.4040 -730.8849 -691.2076 30678.0816 -208.5387 -145.8143
ENERGY: 600000 1.9505 4.4673 1.3399 0.0000 -10328.6825 1247.9192 0.0000 0.0000 1720.3624 -7352.6433 296.4814 -9073.0057 -7391.7739 299.0258 -1444.5980 -1297.0970 30530.3552 -286.9632 -209.7118
ENERGY: 900000 0.4626 7.3318 1.5286 0.0000 -10631.6907 1484.4813 0.0000 0.0000 1741.5474 -7396.3389 300.1324 -9137.8863 -7397.6127 298.3341 324.6620 448.5822 30169.6557 -231.7697 -153.5888
ENERGY: 1200000 4.1053 8.8053 1.4597 0.0000 -10510.5095 1389.5073 0.0000 0.0000 1768.2238 -7338.4081 304.7297 -9106.6319 -7391.6253 299.9847 -526.3371 -455.6433 30721.9630 -196.5830 -121.3761
ENERGY: 1500000 1.9959 9.8651 0.9341 0.0000 -10566.9506 1436.3606 0.0000 0.0000 1728.2518 -7389.5432 297.8410 -9117.7950 -7393.1117 299.5378 220.4966 291.6658 29724.1505 -116.8930 -45.4505
TCL: Running FEP window   6: Lambda1 0.7499999999999998 Lambda2 0.6999999999999997 [dLambda -0.050000000000000044]
TCL: Setting parameter firsttimestep to 0
TCL: Setting parameter alchLambda to 0.7499999999999998
Info: NONBONDED TABLE R-SQUARED SPACING: 0.0625
Info: NONBONDED TABLE SIZE: 705 POINTS
TCL: Setting parameter alchLambda2 to 0.6999999999999997
Info: NONBONDED TABLE R-SQUARED SPACING: 0.0625
Info: NONBONDED TABLE SIZE: 705 POINTS
TCL: Running for 1500000 steps
ETITLE: TS BOND ANGLE DIHED IMPRP ELECT VDW BOUNDARY MISC KINETIC TOTAL TEMP POTENTIAL TOTALAVG TEMPAVG PRESSURE GPRESSURE VOLUME PRESSAVG GPRESSAVG
ENERGY: 0 1.9959 9.8651 0.9341 0.0000 -10566.7624 1436.1752 0.0000 0.0000 1727.3686 -7390.4236 297.6888 -9117.7922 -7390.4236 297.6888 203.8528 278.5969 29724.1505 203.8528 278.5969
ENERGY: 300000 0.5935 9.0260 1.3078 0.0000 -10587.3331 1437.4468 0.0000 0.0000 1677.6756 -7461.2835 289.1249 -9138.9591 -7416.2469 295.7804 -67.7884 -61.8030 30408.8679 341.7684 391.3022
ENERGY: 600000 2.6353 9.7866 2.4756 0.0000 -10474.7656 1341.2960 0.0000 0.0000 1695.3160 -7423.2561 292.1650 -9118.5721 -7411.2341 296.2450 -656.8561 -599.6865 30122.0021 102.9390 157.0563
ENERGY: 900000 2.0529 3.7317 0.9331 0.0000 -10760.5297 1494.5201 0.0000 0.0000 1758.8425 -7500.4494 303.1130 -9259.2919 -7415.1508 298.3290 620.7712 706.6277 29335.1220 260.3774 316.6314
ENERGY: 1200000 0.9535 5.4183 1.1859 0.0000 -10592.9379 1455.6739 0.0000 0.0000 1826.9081 -7302.7982 314.8431 -9129.7063 -7398.4658 299.8907 352.6359 386.7051 30071.2963 225.0589 282.2124
ENERGY: 1500000 1.2407 10.6866 2.9246 0.0000 -10474.3599 1375.2701 0.0000 0.0000 1737.5587 -7346.6792 299.4450 -9084.2379 -7400.2244 299.7795 -328.3496 -301.3714 30535.9340 225.3681 279.1781
TCL: Running FEP window   7: Lambda1 0.6999999999999997 Lambda2 0.6499999999999997 [dLambda -0.050000000000000044]
TCL: Setting parameter firsttimestep to 0
TCL: Setting parameter alchLambda to 0.6999999999999997
Info: NONBONDED TABLE R-SQUARED SPACING: 0.0625
Info: NONBONDED TABLE SIZE: 705 POINTS
TCL: Setting parameter alchLambda2 to 0.6499999999999997
Info: NONBONDED TABLE R-SQUARED SPACING: 0.0625
Info: NONBONDED TABLE SIZE: 705 POINTS
TCL: Running for 1500000 steps
ETITLE: TS BOND ANGLE DIHED IMPRP ELECT VDW BOUNDARY MISC KINETIC TOTAL TEMP POTENTIAL TOTALAVG TEMPAVG PRESSURE GPRESSURE VOLUME PRESSAVG GPRESSAVG
ENERGY: 0 1.2407 10.6865 2.9246 0.0000 -10474.1922 1374.9028 0.0000 0.0000 1736.6981 -7347.7395 299.2967 -9084.4376 -7347.7395 299.2967 -392.8338 -316.2778 30535.9340 -392.8338 -316.2778
ENERGY: 300000 3.1762 5.7622 2.0124 0.0000 -10719.8427 1507.7548 0.0000 0.0000 1732.9121 -7468.2250 298.6442 -9201.1370 -7383.4987 298.4565 394.2306 505.8906 29626.0504 -128.0430 -38.0945
ENERGY: 600000 1.3639 3.9113 1.0077 0.0000 -10620.5063 1414.3011 0.0000 0.0000 1748.0783 -7451.8441 301.2579 -9199.9223 -7404.2580 298.5491 -215.0107 -122.0424 30054.9206 -253.1242 -163.2407
ENERGY: 900000 3.9298 7.2244 1.0290 0.0000 -10386.1284 1314.3452 0.0000 0.0000 1696.7871 -7362.8129 292.4185 -9059.6000 -7404.6655 298.1383 -777.4809 -684.5814 30476.4796 -257.0197 -177.6362
ENERGY: 1200000 0.4816 6.1296 1.5546 0.0000 -10511.2952 1457.8674 0.0000 0.0000 1665.2750 -7379.9869 286.9878 -9045.2619 -7411.7188 296.4470 458.5107 474.2657 30325.4708 -152.9436 -85.7623
ENERGY: 1500000 1.9205 6.8905 0.9945 0.0000 -10488.0803 1389.4463 0.0000 0.0000 1747.8557 -7340.9728 301.2195 -9088.8285 -7402.1538 297.1854 -177.5665 -149.6963 30030.6878 -107.7814 -46.0540
TCL: Running FEP window   8: Lambda1 0.6499999999999997 Lambda2 0.5999999999999996 [dLambda -0.050000000000000044]
TCL: Setting parameter firsttimestep to 0
TCL: Setting parameter alchLambda to 0.6499999999999997
Info: NONBONDED TABLE R-SQUARED SPACING: 0.0625
Info: NONBONDED TABLE SIZE: 705 POINTS
TCL: Setting parameter alchLambda2 to 0.5999999999999996
Info: NONBONDED TABLE R-SQUARED SPACING: 0.0625
Info: NONBONDED TABLE SIZE: 705 POINTS
TCL: Running for 1500000 steps
ETITLE: TS BOND ANGLE DIHED IMPRP ELECT VDW BOUNDARY MISC KINETIC TOTAL TEMP POTENTIAL TOTALAVG TEMPAVG PRESSURE GPRESSURE VOLUME PRESSAVG GPRESSAVG
ENERGY: 0 1.9205 6.8905 0.9945 0.0000 -10488.0216 1389.8329 0.0000 0.0000 1746.9913 -7341.3919 301.0705 -9088.3832 -7341.3919 301.0705 -230.4748 -155.2747 30030.6878 -230.4748 -155.2747
ENERGY: 300000 2.4560 6.6106 0.6710 0.0000 -10663.8063 1451.5939 0.0000 0.0000 1705.6141 -7496.8607 293.9398 -9202.4748 -7348.0946 303.5761 -20.0885 33.9603 30062.2633 151.2749 214.8258
ENERGY: 600000 0.5914 4.8354 1.0952 0.0000 -10593.3730 1398.6439 0.0000 0.0000 1721.6584 -7466.5488 296.7048 -9188.2072 -7358.8844 300.4964 -117.3938 -87.6773 29649.1255 -75.8411 -8.5554
ENERGY: 900000 1.9435 10.7075 2.4750 0.0000 -10584.0747 1385.8082 0.0000 0.0000 1770.5740 -7412.5665 305.1347 -9183.1405 -7361.3165 301.1497 -557.1938 -510.6515 30287.8269 -246.9281 -183.9455
ENERGY: 1200000 2.6958 8.8465 1.0550 0.0000 -10659.5058 1468.1357 0.0000 0.0000 1792.0133 -7386.7596 308.8295 -9178.7729 -7363.7102 301.6067 216.2976 235.6573 30457.0770 -211.3849 -160.9311
ENERGY: 1500000 1.2712 4.3382 1.5807 0.0000 -10543.4364 1420.0448 0.0000 0.0000 1769.9625 -7346.2390 305.0293 -9116.2015 -7368.6989 301.7376 -43.4201 50.0258 30054.4163 -250.0970 -201.8272
TCL: Running FEP window   9: Lambda1 0.5999999999999996 Lambda2 0.5499999999999996 [dLambda -0.050000000000000044]
TCL: Setting parameter firsttimestep to 0
TCL: Setting parameter alchLambda to 0.5999999999999996
Info: NONBONDED TABLE R-SQUARED SPACING: 0.0625
Info: NONBONDED TABLE SIZE: 705 POINTS
TCL: Setting parameter alchLambda2 to 0.5499999999999996
Info: NONBONDED TABLE R-SQUARED SPACING: 0.0625
Info: NONBONDED TABLE SIZE: 705 POINTS
TCL: Running for 1500000 steps
ETITLE: TS BOND ANGLE DIHED IMPRP ELECT VDW BOUNDARY MISC KINETIC TOTAL TEMP POTENTIAL TOTALAVG TEMPAVG PRESSURE GPRESSURE VOLUME PRESSAVG GPRESSAVG
ENERGY: 0 1.2712 4.3382 1.5807 0.0000 -10543.1042 1420.4955 0.0000 0.0000 1769.0672 -7346.3513 304.8750 -9115.4186 -7346.3513 304.8750 -28.8288 49.3215 30054.4163 -28.8288 49.3215
ENERGY: 300000 1.0733 6.6025 0.7170 0.0000 -10561.7244 1414.6591 0.0000 0.0000 1756.5132 -7382.1593 302.7115 -9138.6725 -7386.2758 302.5102 31.5198 150.4448 29719.1350 226.6455 311.2673
ENERGY: 600000 2.5210 5.2423 1.5068 0.0000 -10509.0006 1385.7376 0.0000 0.0000 1742.4126 -7371.5804 300.2815 -9113.9930 -7407.7097 299.7686 -307.8464 -221.3740 30124.7117 97.7314 170.9705
ENERGY: 900000 1.1413 8.9051 2.3597 0.0000 -10514.7129 1363.3172 0.0000 0.0000 1750.2412 -7388.7483 301.6306 -9138.9895 -7385.2757 299.6569 -467.8631 -428.1100 29907.4689 24.8857 97.0802
ENERGY: 1200000 2.9268 7.3675 1.1146 0.0000 -10508.7768 1380.5947 0.0000 0.0000 1716.7115 -7400.0616 295.8522 -9116.7731 -7382.0305 300.1644 -695.1010 -637.5691 30348.6466 6.0803 78.7508
ENERGY: 1500000 0.9729 6.5785 0.5797 0.0000 -10605.6743 1454.7051 0.0000 0.0000 1779.6698 -7363.1683 306.7023 -9142.8381 -7383.2197 300.0396 294.2570 307.6943 29995.2219 80.5967 147.9636
TCL: Running FEP window  10: Lambda1 0.5499999999999996 Lambda2 0.4999999999999996 [dLambda -0.04999999999999999]
TCL: Setting parameter firsttimestep to 0
TCL: Setting parameter alchLambda to 0.5499999999999996
Info: NONBONDED TABLE R-SQUARED SPACING: 0.0625
Info: NONBONDED TABLE SIZE: 705 POINTS
TCL: Setting parameter alchLambda2 to 0.4999999999999996
Info: NONBONDED TABLE R-SQUARED SPACING: 0.0625
Info: NONBONDED TABLE SIZE: 705 POINTS
TCL: Running for 1500000 steps
ETITLE: TS BOND ANGLE DIHED IMPRP ELECT VDW BOUNDARY MISC KINETIC TOTAL TEMP POTENTIAL TOTALAVG TEMPAVG PRESSURE GPRESSURE VOLUME PRESSAVG GPRESSAVG
ENERGY: 0 0.9729 6.5785 0.5797 0.0000 -10605.5084 1454.1127 0.0000 0.0000 1778.7790 -7364.4857 306.5487 -9143.2646 -7364.4857 306.5487 219.5412 295.2038 29995.2219 219.5412 295.2038
ENERGY: 300000 1.3383 8.2793 2.5529 0.0000 -10406.2414 1361.7458 0.0000 0.0000 1743.3426 -7288.9825 300.4418 -9032.3251 -7375.8104 297.6499 -254.2789 -214.6568 30201.7931 38.7675 92.1063
ENERGY: 600000 2.8163 9.0806 1.0076 0.0000 -10644.3056 1428.0933 0.0000 0.0000 1766.4386 -7436.8693 304.4220 -9203.3079 -7389.3868 299.1854 -162.2583 -132.4393 30070.2102 -101.2722 -36.4547
ENERGY: 900000 1.4152 9.1814 1.9548 0.0000 -10532.7874 1385.7621 0.0000 0.0000 1775.4370 -7359.0368 305.9728 -9134.4738 -7375.6053 301.0641 -127.7527 -14.3227 29583.1243 -102.9179 -30.5796
ENERGY: 1200000 1.2286 6.0502 1.5898 0.0000 -10705.5353 1501.7826 0.0000 0.0000 1731.9710 -7462.9132 298.4820 -9194.8842 -7380.7040 301.3116 592.0143 561.0658 29731.1443 -25.6512 43.4359
ENERGY: 1500000 3.6613 5.9718 2.9160 0.0000 -10532.8074 1390.7610 0.0000 0.0000 1758.1336 -7371.3636 302.9908 -9129.4972 -7375.4655 301.9711 -280.7797 -218.7454 30234.5622 -34.0741 28.1503
TCL: Running FEP window  11: Lambda1 0.4999999999999996 Lambda2 0.4499999999999996 [dLambda -0.04999999999999999]
TCL: Setting parameter firsttimestep to 0
TCL: Setting parameter alchLambda to 0.4999999999999996
Info: NONBONDED TABLE R-SQUARED SPACING: 0.0625
Info: NONBONDED TABLE SIZE: 705 POINTS
TCL: Setting parameter alchLambda2 to 0.4499999999999996
Info: NONBONDED TABLE R-SQUARED SPACING: 0.0625
Info: NONBONDED TABLE SIZE: 705 POINTS
TCL: Running for 1500000 steps
ETITLE: TS BOND ANGLE DIHED IMPRP ELECT VDW BOUNDARY MISC KINETIC TOTAL TEMP POTENTIAL TOTALAVG TEMPAVG PRESSURE GPRESSURE VOLUME PRESSAVG GPRESSAVG
ENERGY: 0 3.6613 5.9718 2.9160 0.0000 -10532.7289 1391.3035 0.0000 0.0000 1757.3015 -7371.5747 302.8474 -9128.8762 -7371.5747 302.8474 -287.4721 -217.8380 30234.5622 -287.4721 -217.8380
ENERGY: 300000 0.5089 7.3902 0.7697 0.0000 -10615.9769 1470.1547 0.0000 0.0000 1720.5374 -7416.6160 296.5116 -9137.1534 -7406.0172 297.8587 681.1392 750.7917 29485.2357 -191.9209 -125.2484
ENERGY: 600000 1.5091 8.4717 1.1013 0.0000 -10668.4706 1475.2021 0.0000 0.0000 1693.8078 -7488.3786 291.9051 -9182.1864 -7435.0629 295.7124 330.5692 443.3047 29637.7487 -9.6990 55.6101
ENERGY: 900000 1.0765 8.8795 1.0206 0.0000 -10431.9422 1335.3107 0.0000 0.0000 1722.9932 -7362.6616 296.9348 -9085.6548 -7423.1882 296.6276 -678.4007 -578.0807 30347.0075 -58.8652 13.5817
ENERGY: 1200000 3.2865 6.6362 1.1951 0.0000 -10539.2834 1383.2339 0.0000 0.0000 1783.8537 -7361.0780 307.4233 -9144.9317 -7415.8402 297.8037 -346.2448 -306.0865 29835.0477 -110.9880 -49.3616
ENERGY: 1500000 1.3144 3.7879 0.6578 0.0000 -10578.5452 1510.5324 0.0000 0.0000 1766.2211 -7296.0316 304.3845 -9062.2527 -7401.4322 298.7090 935.4008 1005.2460 30069.7400 -40.3289 21.8933
TCL: Running FEP window  12: Lambda1 0.4499999999999996 Lambda2 0.39999999999999963 [dLambda -0.04999999999999999]
TCL: Setting parameter firsttimestep to 0
TCL: Setting parameter alchLambda to 0.4499999999999996
Info: NONBONDED TABLE R-SQUARED SPACING: 0.0625
Info: NONBONDED TABLE SIZE: 705 POINTS
TCL: Setting parameter alchLambda2 to 0.39999999999999963
Info: NONBONDED TABLE R-SQUARED SPACING: 0.0625
Info: NONBONDED TABLE SIZE: 705 POINTS
TCL: Running for 1500000 steps
ETITLE: TS BOND ANGLE DIHED IMPRP ELECT VDW BOUNDARY MISC KINETIC TOTAL TEMP POTENTIAL TOTALAVG TEMPAVG PRESSURE GPRESSURE VOLUME PRESSAVG GPRESSAVG
ENERGY: 0 1.3144 3.7879 0.6578 0.0000 -10578.5449 1511.0179 0.0000 0.0000 1765.3656 -7296.4013 304.2371 -9061.7669 -7296.4013 304.2371 918.1700 1001.1515 30069.7400 918.1700 1001.1515
ENERGY: 300000 1.5255 7.6981 0.8668 0.0000 -10623.7464 1438.4949 0.0000 0.0000 1778.9336 -7396.2274 306.5754 -9175.1610 -7365.7848 305.2620 83.2209 130.3585 29706.0862 170.6156 233.0537
ENERGY: 600000 1.0918 8.7720 1.7155 0.0000 -10592.6706 1459.7460 0.0000 0.0000 1675.3583 -7445.9870 288.7256 -9121.3453 -7350.2410 303.0628 305.7973 327.0780 30025.4932 142.6949 206.6943
ENERGY: 900000 4.0837 7.1292 1.1907 0.0000 -10420.5154 1322.3085 0.0000 0.0000 1707.7656 -7378.0377 294.3105 -9085.8033 -7368.0961 300.4779 -633.1902 -526.5789 30071.4681 67.9894 130.9390
ENERGY: 1200000 0.0519 10.5316 0.7704 0.0000 -10579.3823 1455.5821 0.0000 0.0000 1760.3233 -7352.1230 303.3681 -9112.4463 -7378.7134 300.0558 592.2780 624.6131 29400.7370 73.2023 134.3823
ENERGY: 1500000 1.2021 4.7835 0.8991 0.0000 -10615.5658 1449.7032 0.0000 0.0000 1676.0169 -7482.9610 288.8391 -9158.9779 -7381.4320 299.8188 212.6766 236.9330 29749.8773 96.8674 156.4060
TCL: Running FEP window  13: Lambda1 0.39999999999999963 Lambda2 0.34999999999999964 [dLambda -0.04999999999999999]
TCL: Setting parameter firsttimestep to 0
TCL: Setting parameter alchLambda to 0.39999999999999963
Info: NONBONDED TABLE R-SQUARED SPACING: 0.0625
Info: NONBONDED TABLE SIZE: 705 POINTS
TCL: Setting parameter alchLambda2 to 0.34999999999999964
Info: NONBONDED TABLE R-SQUARED SPACING: 0.0625
Info: NONBONDED TABLE SIZE: 705 POINTS
TCL: Running for 1500000 steps
ETITLE: TS BOND ANGLE DIHED IMPRP ELECT VDW BOUNDARY MISC KINETIC TOTAL TEMP POTENTIAL TOTALAVG TEMPAVG PRESSURE GPRESSURE VOLUME PRESSAVG GPRESSAVG
ENERGY: 0 1.2021 4.7835 0.8991 0.0000 -10615.5664 1449.8842 0.0000 0.0000 1675.1949 -7483.6026 288.6974 -9158.7976 -7483.6026 288.6974 150.2767 231.4951 29749.8773 150.2767 231.4951
ENERGY: 300000 4.9897 6.8666 1.9389 0.0000 -10641.2959 1453.6141 0.0000 0.0000 1689.3146 -7484.5719 291.1308 -9173.8865 -7447.2420 293.6878 -74.0137 56.2230 29680.1505 -119.1830 -42.1865
ENERGY: 600000 2.1721 8.2534 1.1758 0.0000 -10642.2882 1457.8038 0.0000 0.0000 1654.4344 -7518.4488 285.1196 -9172.8831 -7443.6912 293.9328 -111.6075 -49.6653 30071.1362 -99.7276 -34.9860
ENERGY: 900000 3.5274 7.9786 1.6507 0.0000 -10537.0954 1397.2003 0.0000 0.0000 1728.9120 -7397.8264 297.9548 -9126.7384 -7438.0367 295.5624 -424.3997 -335.8799 29932.5510 -144.4840 -77.4824
ENERGY: 1200000 0.6663 3.8965 0.9508 0.0000 -10445.6348 1332.4021 0.0000 0.0000 1738.9163 -7368.8028 299.6789 -9107.7191 -7431.0066 296.2626 -643.1187 -529.8999 29943.7426 -180.3348 -103.2766
ENERGY: 1500000 1.9647 9.4396 1.4147 0.0000 -10494.0548 1411.2370 0.0000 0.0000 1773.4731 -7296.5258 305.6343 -9069.9989 -7423.4823 297.2022 32.4228 38.7555 30247.0997 -139.8033 -67.9220
TCL: Running FEP window  14: Lambda1 0.34999999999999964 Lambda2 0.29999999999999966 [dLambda -0.04999999999999999]
TCL: Setting parameter firsttimestep to 0
TCL: Setting parameter alchLambda to 0.34999999999999964
Info: NONBONDED TABLE R-SQUARED SPACING: 0.0625
Info: NONBONDED TABLE SIZE: 705 POINTS
TCL: Setting parameter alchLambda2 to 0.29999999999999966
Info: NONBONDED TABLE R-SQUARED SPACING: 0.0625
Info: NONBONDED TABLE SIZE: 705 POINTS
TCL: Running for 1500000 steps
ETITLE: TS BOND ANGLE DIHED IMPRP ELECT VDW BOUNDARY MISC KINETIC TOTAL TEMP POTENTIAL TOTALAVG TEMPAVG PRESSURE GPRESSURE VOLUME PRESSAVG GPRESSAVG
ENERGY: 0 1.9646 9.4396 1.4147 0.0000 -10494.0546 1411.6014 0.0000 0.0000 1772.6062 -7297.0280 305.4849 -9069.6342 -7297.0280 305.4849 -59.9151 35.6165 30247.0997 -59.9151 35.6165
ENERGY: 300000 1.9988 9.1810 1.3334 0.0000 -10579.2605 1433.4261 0.0000 0.0000 1816.3782 -7316.9429 313.0285 -9133.3211 -7331.6158 304.7929 340.4366 399.3979 29527.2301 28.4985 121.7164
ENERGY: 600000 0.9513 9.0019 1.4239 0.0000 -10480.2899 1429.4184 0.0000 0.0000 1747.8811 -7291.6133 301.2239 -9039.4944 -7349.0170 302.5913 345.2901 451.1127 30011.4917 -120.3331 -29.0372
ENERGY: 900000 1.5073 5.8186 0.8998 0.0000 -10529.0232 1414.9073 0.0000 0.0000 1765.2414 -7340.6487 304.2157 -9105.8901 -7354.0263 301.8100 180.6614 156.4228 29649.8009 -55.3029 31.0226
ENERGY: 1200000 3.2626 4.7851 1.0638 0.0000 -10423.2389 1352.0095 0.0000 0.0000 1769.6918 -7292.4261 304.9827 -9062.1179 -7354.2011 302.1248 -395.7565 -334.1110 30171.6111 -65.8749 6.8892
ENERGY: 1500000 0.6072 9.7617 1.4080 0.0000 -10389.7726 1301.4677 0.0000 0.0000 1720.8042 -7355.7237 296.5576 -9076.5280 -7358.8817 301.1399 -994.7638 -893.6406 30260.0000 -85.4014 -7.9605
TCL: Running FEP window  15: Lambda1 0.29999999999999966 Lambda2 0.24999999999999967 [dLambda -0.04999999999999999]
TCL: Setting parameter firsttimestep to 0
TCL: Setting parameter alchLambda to 0.29999999999999966
Info: NONBONDED TABLE R-SQUARED SPACING: 0.0625
Info: NONBONDED TABLE SIZE: 705 POINTS
TCL: Setting parameter alchLambda2 to 0.24999999999999967
Info: NONBONDED TABLE R-SQUARED SPACING: 0.0625
Info: NONBONDED TABLE SIZE: 705 POINTS
TCL: Running for 1500000 steps
ETITLE: TS BOND ANGLE DIHED IMPRP ELECT VDW BOUNDARY MISC KINETIC TOTAL TEMP POTENTIAL TOTALAVG TEMPAVG PRESSURE GPRESSURE VOLUME PRESSAVG GPRESSAVG
ENERGY: 0 0.6072 9.7617 1.4080 0.0000 -10389.7727 1301.1183 0.0000 0.0000 1719.9484 -7356.9291 296.4101 -9076.8775 -7356.9291 296.4101 -979.4107 -902.2161 30260.0000 -979.4107 -902.2161
ENERGY: 300000 3.4840 7.7576 0.6922 0.0000 -10678.0172 1506.2273 0.0000 0.0000 1725.6641 -7434.1920 297.3951 -9159.8561 -7351.5439 302.8833 469.6133 511.2199 29969.9045 -401.6877 -344.1332
ENERGY: 600000 1.6853 7.2624 1.8786 0.0000 -10633.0160 1414.5000 0.0000 0.0000 1756.1416 -7451.5482 302.6475 -9207.6898 -7385.8507 300.1947 -484.7029 -427.1336 30270.9941 -398.6996 -332.6264
ENERGY: 900000 3.7224 6.2992 1.6113 0.0000 -10408.6611 1386.8804 0.0000 0.0000 1706.7103 -7303.4375 294.1287 -9010.1478 -7390.6298 297.9074 -233.3839 -100.8052 30247.0434 -305.7417 -225.1525
ENERGY: 1200000 2.4352 5.7792 1.9294 0.0000 -10522.4339 1452.9675 0.0000 0.0000 1741.1896 -7318.1330 300.0707 -9059.3226 -7385.2734 298.1320 295.5596 401.6193 29984.2070 -175.6361 -98.6884
ENERGY: 1500000 2.6683 7.9051 2.9149 0.0000 -10523.9630 1383.1936 0.0000 0.0000 1718.5029 -7408.7782 296.1610 -9127.2811 -7390.8527 298.0822 -105.0326 -89.6854 29511.9624 -163.4531 -95.4764
TCL: Running FEP window  16: Lambda1 0.24999999999999967 Lambda2 0.19999999999999968 [dLambda -0.04999999999999999]
TCL: Setting parameter firsttimestep to 0
TCL: Setting parameter alchLambda to 0.24999999999999967
Info: NONBONDED TABLE R-SQUARED SPACING: 0.0625
Info: NONBONDED TABLE SIZE: 705 POINTS
TCL: Setting parameter alchLambda2 to 0.19999999999999968
Info: NONBONDED TABLE R-SQUARED SPACING: 0.0625
Info: NONBONDED TABLE SIZE: 705 POINTS
TCL: Running for 1500000 steps
ETITLE: TS BOND ANGLE DIHED IMPRP ELECT VDW BOUNDARY MISC KINETIC TOTAL TEMP POTENTIAL TOTALAVG TEMPAVG PRESSURE GPRESSURE VOLUME PRESSAVG GPRESSAVG
ENERGY: 0 2.6683 7.9051 2.9149 0.0000 -10523.9628 1383.5262 0.0000 0.0000 1717.6071 -7409.3413 296.0066 -9126.9484 -7409.3413 296.0066 -161.9564 -93.5380 29511.9624 -161.9564 -93.5380
ENERGY: 300000 1.8514 8.1731 0.7003 0.0000 -10563.1099 1441.9538 0.0000 0.0000 1773.2511 -7337.1802 305.5961 -9110.4313 -7360.9694 300.9513 274.8520 277.7908 29706.9066 -2.1499 55.7534
ENERGY: 600000 2.6245 6.5902 1.1081 0.0000 -10517.0818 1406.7825 0.0000 0.0000 1743.7304 -7356.2461 300.5086 -9099.9765 -7378.6097 300.3646 -265.5905 -270.8777 30578.4069 -142.8449 -81.5896
ENERGY: 900000 0.9557 10.7781 0.8251 0.0000 -10667.5501 1449.1351 0.0000 0.0000 1751.2492 -7454.6070 301.8043 -9205.8562 -7393.3888 299.6786 139.1964 200.8516 29487.2103 -176.0487 -110.6410
ENERGY: 1200000 0.7844 4.7490 1.4106 0.0000 -10583.4563 1429.1801 0.0000 0.0000 1750.5796 -7396.7526 301.6889 -9147.3322 -7398.5963 300.3145 225.5651 272.4463 29315.1681 -169.5286 -105.5615
ENERGY: 1500000 1.8982 9.5401 1.5320 0.0000 -10530.8317 1429.4947 0.0000 0.0000 1769.6289 -7318.7379 304.9718 -9088.3667 -7379.9822 301.2978 230.3753 293.1006 30093.1304 -141.3754 -74.8510
TCL: Running FEP window  17: Lambda1 0.19999999999999968 Lambda2 0.1499999999999997 [dLambda -0.04999999999999999]
TCL: Setting parameter firsttimestep to 0
TCL: Setting parameter alchLambda to 0.19999999999999968
Info: NONBONDED TABLE R-SQUARED SPACING: 0.0625
Info: NONBONDED TABLE SIZE: 705 POINTS
TCL: Setting parameter alchLambda2 to 0.1499999999999997
Info: NONBONDED TABLE R-SQUARED SPACING: 0.0625
Info: NONBONDED TABLE SIZE: 705 POINTS
TCL: Running for 1500000 steps
ETITLE: TS BOND ANGLE DIHED IMPRP ELECT VDW BOUNDARY MISC KINETIC TOTAL TEMP POTENTIAL TOTALAVG TEMPAVG PRESSURE GPRESSURE VOLUME PRESSAVG GPRESSAVG
ENERGY: 0 1.8982 9.5401 1.5320 0.0000 -10530.8310 1429.7143 0.0000 0.0000 1768.7721 -7319.3743 304.8242 -9088.1464 -7319.3743 304.8242 193.0485 289.9793 30093.1304 193.0485 289.9793
ENERGY: 300000 0.3880 5.3117 2.0744 0.0000 -10653.3752 1466.5023 0.0000 0.0000 1764.7848 -7414.3140 304.1370 -9179.0988 -7376.3980 300.3699 396.7348 412.2541 29595.0623 281.4428 313.5789
ENERGY: 600000 0.1442 9.7030 2.5856 0.0000 -10536.7467 1386.5898 0.0000 0.0000 1766.4482 -7371.2759 304.4237 -9137.7241 -7370.2090 302.1962 -324.2448 -257.4656 30055.7486 9.7779 54.6958
ENERGY: 900000 1.1970 4.4380 2.3162 0.0000 -10613.3503 1497.3903 0.0000 0.0000 1771.2998 -7336.7089 305.2598 -9108.0087 -7349.4739 303.0302 867.8635 913.5074 29501.6716 87.1162 127.6874
ENERGY: 1200000 0.1970 9.0030 1.1217 0.0000 -10552.8844 1436.9859 0.0000 0.0000 1711.8358 -7393.7409 295.0120 -9105.5768 -7355.7417 302.6146 -119.7786 -59.9234 30177.1233 126.6054 170.2046
ENERGY: 1500000 1.0612 10.0544 2.9889 0.0000 -10646.2831 1456.2575 0.0000 0.0000 1763.7663 -7412.1547 303.9615 -9175.9210 -7362.5007 302.2509 487.1845 546.9827 29256.7066 91.0604 137.2204
TCL: Running FEP window  18: Lambda1 0.1499999999999997 Lambda2 0.09999999999999969 [dLambda -0.05 ]
TCL: Setting parameter firsttimestep to 0
TCL: Setting parameter alchLambda to 0.1499999999999997
Info: NONBONDED TABLE R-SQUARED SPACING: 0.0625
Info: NONBONDED TABLE SIZE: 705 POINTS
TCL: Setting parameter alchLambda2 to 0.09999999999999969
Info: NONBONDED TABLE R-SQUARED SPACING: 0.0625
Info: NONBONDED TABLE SIZE: 705 POINTS
TCL: Running for 1500000 steps
ETITLE: TS BOND ANGLE DIHED IMPRP ELECT VDW BOUNDARY MISC KINETIC TOTAL TEMP POTENTIAL TOTALAVG TEMPAVG PRESSURE GPRESSURE VOLUME PRESSAVG GPRESSAVG
ENERGY: 0 1.0612 10.0544 2.9889 0.0000 -10646.2827 1456.6686 0.0000 0.0000 1762.9041 -7412.6054 303.8129 -9175.5095 -7412.6054 303.8129 462.8471 545.6557 29256.7066 462.8471 545.6557
ENERGY: 300000 3.4532 5.0460 0.5677 0.0000 -10596.4294 1407.6382 0.0000 0.0000 1761.6330 -7418.0914 303.5938 -9179.7243 -7432.4968 301.7292 -480.6268 -353.2622 30140.1845 -182.5663 -120.6786
ENERGY: 600000 1.7105 5.5136 1.0027 0.0000 -10565.4354 1409.9309 0.0000 0.0000 1746.3561 -7400.9217 300.9611 -9147.2777 -7402.0844 301.4528 44.4408 98.6849 29444.1304 -172.7230 -114.3549
ENERGY: 900000 1.8099 5.8579 1.0385 0.0000 -10671.7946 1488.3624 0.0000 0.0000 1705.1972 -7469.5287 293.8679 -9174.7259 -7411.1383 300.5626 405.3539 538.3679 29817.4573 -90.6382 -33.7775
ENERGY: 1200000 1.2262 8.8167 0.6471 0.0000 -10575.1739 1397.7967 0.0000 0.0000 1816.9661 -7349.7211 313.1298 -9166.6872 -7410.8342 300.5636 -125.4775 -85.1108 29729.8102 33.5959 89.3804
ENERGY: 1500000 1.3198 8.3655 2.1022 0.0000 -10613.9835 1471.0867 0.0000 0.0000 1698.1309 -7432.9784 292.6501 -9131.1093 -7401.6597 300.5378 125.2805 187.7958 30111.3847 147.5879 209.0167
TCL: Running FEP window  19: Lambda1 0.09999999999999969 Lambda2 0.049999999999999684 [dLambda -0.05 ]
TCL: Setting parameter firsttimestep to 0
TCL: Setting parameter alchLambda to 0.09999999999999969
Info: NONBONDED TABLE R-SQUARED SPACING: 0.0625
Info: NONBONDED TABLE SIZE: 705 POINTS
TCL: Setting parameter alchLambda2 to 0.049999999999999684
Info: NONBONDED TABLE R-SQUARED SPACING: 0.0625
Info: NONBONDED TABLE SIZE: 705 POINTS
TCL: Running for 1500000 steps
ETITLE: TS BOND ANGLE DIHED IMPRP ELECT VDW BOUNDARY MISC KINETIC TOTAL TEMP POTENTIAL TOTALAVG TEMPAVG PRESSURE GPRESSURE VOLUME PRESSAVG GPRESSAVG
ENERGY: 0 1.3198 8.3655 2.1022 0.0000 -10613.9839 1470.7671 0.0000 0.0000 1697.2306 -7434.1987 292.4950 -9131.4293 -7434.1987 292.4950 88.2370 184.0609 30111.3847 88.2370 184.0609
ENERGY: 300000 3.4461 6.7632 1.9971 0.0000 -10695.1348 1507.2266 0.0000 0.0000 1768.1003 -7407.6016 304.7084 -9175.7018 -7414.8576 300.0841 680.1743 767.5960 29457.6158 -180.8684 -110.0279
ENERGY: 600000 2.1494 2.9991 0.6857 0.0000 -10635.7956 1438.5199 0.0000 0.0000 1698.2388 -7493.2028 292.6687 -9191.4416 -7420.2256 297.9513 -59.4869 26.1241 29625.3080 -196.6984 -138.5939
ENERGY: 900000 1.4136 9.1239 0.9614 0.0000 -10597.8890 1359.1042 0.0000 0.0000 1784.2337 -7443.0522 307.4888 -9227.2859 -7391.2441 301.0512 -927.8993 -854.7181 30156.5555 -266.0394 -212.8265
ENERGY: 1200000 1.3241 5.9951 1.0763 0.0000 -10521.1558 1447.0867 0.0000 0.0000 1770.4451 -7295.2286 305.1125 -9065.6736 -7389.0758 301.4608 253.6130 336.2118 30173.4799 -183.6919 -132.7870
ENERGY: 1500000 2.1420 6.1802 2.5425 0.0000 -10598.6375 1458.0850 0.0000 0.0000 1732.4015 -7397.2862 298.5562 -9129.6878 -7391.7550 301.2399 76.4405 141.2027 29878.2197 -194.1723 -136.7808
TCL: Running FEP window  20: Lambda1 0.049999999999999684 Lambda2 0.0    [dLambda -0.049999999999999684]
TCL: Setting parameter firsttimestep to 0
TCL: Setting parameter alchLambda to 0.049999999999999684
Info: NONBONDED TABLE R-SQUARED SPACING: 0.0625
Info: NONBONDED TABLE SIZE: 705 POINTS
TCL: Setting parameter alchLambda2 to 0.0
Info: NONBONDED TABLE R-SQUARED SPACING: 0.0625
Info: NONBONDED TABLE SIZE: 705 POINTS
TCL: Running for 1500000 steps
ETITLE: TS BOND ANGLE DIHED IMPRP ELECT VDW BOUNDARY MISC KINETIC TOTAL TEMP POTENTIAL TOTALAVG TEMPAVG PRESSURE GPRESSURE VOLUME PRESSAVG GPRESSAVG
ENERGY: 0 2.1420 6.1802 2.5425 0.0000 -10598.6363 1457.9896 0.0000 0.0000 1731.5871 -7398.1949 298.4158 -9129.7820 -7398.1949 298.4158 57.3400 142.4137 29878.2197 57.3400 142.4137
ENERGY: 300000 1.7125 6.1502 0.8497 0.0000 -10536.9651 1460.9369 0.0000 0.0000 1730.2212 -7337.0946 298.1805 -9067.3158 -7341.2643 299.9702 154.2325 276.1621 30152.6141 -29.7610 30.2975
ENERGY: 600000 2.0590 12.2621 1.3462 0.0000 -10410.6931 1314.2747 0.0000 0.0000 1760.3206 -7320.4304 303.3677 -9080.7510 -7360.1314 300.2784 -757.5556 -635.4089 29895.0296 -135.1956 -65.8340
ENERGY: 900000 2.1261 3.2342 2.8057 0.0000 -10571.1603 1463.4907 0.0000 0.0000 1739.0460 -7360.4576 299.7013 -9099.5036 -7364.7161 300.0259 337.6452 401.8931 29907.1800 -75.0665 -13.7442
ENERGY: 1200000 3.8621 10.1904 1.1042 0.0000 -10369.1856 1276.8568 0.0000 0.0000 1799.5581 -7277.6140 310.1297 -9077.1721 -7352.5474 300.5775 -1179.1676 -1066.8678 30297.3615 -121.0505 -54.8172
ENERGY: 1500000 0.9632 5.5484 0.7622 0.0000 -10536.7595 1404.1373 0.0000 0.0000 1781.6588 -7343.6897 307.0450 -9125.3485 -7352.1453 300.7673 -157.3360 -128.9455 29833.2575 -164.5396 -94.3771
TCL: Exiting due to exit command.
