Info: SIMULATION PARAMETERS:
Info: TIMESTEP               2
Info: NUMBER OF STEPS        0
Info: STEPS PER CYCLE        10
Info: PERIODIC CELL BASIS 1  30.8414 0 0
Info: PERIODIC CELL BASIS 2  0 30.2014 0
Info: PERIODIC CELL BASIS 3  0 0 32.7888
Info: PERIODIC CELL CENTER   0 0 0
Info: WRAPPING WATERS AROUND PERIODIC BOUNDARIES ON OUTPUT.
Info: WRAPPING ALL CLUSTERS AROUND PERIODIC BOUNDARIES ON OUTPUT.
Info: FIRST LDB TIMESTEP     50
Info: LAST LDB TIMESTEP     -1
Info: HOM BACKGROUND SCALING 1
Info: PME BACKGROUND SCALING 1
Info: MIN ATOMS PER PATCH    40
Info: EMPTY PATCH LOAD       40 ATOMS
Info: VELOCITY FILE          mobley_5600967_equil.vel
Info: CENTER OF MASS MOVING INITIALLY? NO
Info: DIELECTRIC             1
Info: EXCLUDE                SCALED ONE-FOUR
Info: 1-4 ELECTROSTATICS SCALED BY 0.833333
Info: MODIFIED 1-4 VDW PARAMETERS WILL BE USED
Info: DCD FILENAME           mobley_5600967_prod.dcd
Info: DCD FREQUENCY          100000
Info: DCD FIRST STEP         100000
Info: DCD FILE WILL CONTAIN UNIT CELL DATA
Info: XST FILENAME           mobley_5600967_prod.xst
Info: XST FREQUENCY          100000
Info: NO VELOCITY DCD OUTPUT
Info: NO FORCE DCD OUTPUT
Info: OUTPUT FILENAME        mobley_5600967_prod
Info: BINARY OUTPUT FILES WILL BE USED
Info: RESTART FILENAME       mobley_5600967_prod.restart
Info: RESTART FREQUENCY      100000
Info: BINARY RESTART FILES WILL BE USED
Info: CUTOFF                 9
Info: PAIRLIST DISTANCE      11
Info: PAIRLIST SHRINK RATE   0.01
Info: PAIRLIST GROW RATE     0.01
Info: PAIRLIST TRIGGER       0.3
Info: PAIRLISTS PER CYCLE    2
Info: PAIRLISTS ENABLED
Info: MARGIN                 2
Info: HYDROGEN GROUP CUTOFF  2.5
Info: PATCH DIMENSION        15.5
Info: ENERGY OUTPUT STEPS    100000
Info: ENERGY EVALUATION STEPS    100000
Info: OUTPUT ENERGY PRECISION 4
Info: CROSSTERM ENERGY INCLUDED IN DIHEDRAL
Info: TIMING OUTPUT STEPS    1000000
Info: PRESSURE OUTPUT STEPS  100000
Info: ALCHEMICAL FEP ON
Info: FEP CURRENT LAMBDA VALUE     1
Info: FEP COMPARISON LAMBDA VALUE  0.95
Info: FEP INTRA-ALCHEMICAL NON-BONDED INTERACTIONS WILL BE RETAINED
Info: FEP INTRA-ALCHEMICAL BONDED INTERACTIONS WILL BE RETAINED
Info: FEP VDW SHIFTING COEFFICIENT 5
Info: FEP ELEC. ACTIVE FOR ANNIHILATED PARTICLES BETWEEN LAMBDA = 0 AND LAMBDA = 0.5
Info: FEP ELEC. ACTIVE FOR EXNIHILATED PARTICLES BETWEEN LAMBDA = 0.5 AND LAMBDA = 1
Info: FEP VDW ACTIVE FOR ANNIHILATED PARTICLES BETWEEN LAMBDA = 0 AND LAMBDA = 1
Info: FEP VDW ACTIVE FOR EXNIHILATED PARTICLES BETWEEN LAMBDA = 0 AND LAMBDA = 1
Info: FEP BOND ACTIVE FOR ANNIHILATED PARTICLES BETWEEN LAMBDA = 1 AND LAMBDA = 1
Info: FEP BOND ACTIVE FOR EXNIHILATED PARTICLES BETWEEN LAMBDA = 0 AND LAMBDA = 0
Info: LANGEVIN DYNAMICS ACTIVE
Info: LANGEVIN TEMPERATURE   300
Info: LANGEVIN USING BBK INTEGRATOR
Info: LANGEVIN DAMPING COEFFICIENT IS 1 INVERSE PS
Info: LANGEVIN DYNAMICS APPLIED TO HYDROGENS
Info: LANGEVIN PISTON PRESSURE CONTROL ACTIVE
Info:        TARGET PRESSURE IS 1.01325 BAR
Info:     OSCILLATION PERIOD IS 50 FS
Info:             DECAY TIME IS 25 FS
Info:     PISTON TEMPERATURE IS 300 K
Info:       PRESSURE CONTROL IS GROUP-BASED
Info:    INITIAL STRAIN RATE IS -0.000136935 -0.000136935 -0.000136935
Info:       CELL FLUCTUATION IS ISOTROPIC
Info: PARTICLE MESH EWALD (PME) ACTIVE
Info: PME TOLERANCE               1e-06
Info: PME EWALD COEFFICIENT       0.348832
Info: PME INTERPOLATION ORDER     4
Info: PME GRID DIMENSIONS         32 32 36
Info: PME MAXIMUM GRID SPACING    1
Info: PME CALCULATION WILL BE PERFORMED ON GPU
Info: FULL ELECTROSTATIC EVALUATION FREQUENCY      2
Info: USING VERLET I (r-RESPA) MTS SCHEME.
Info: C1 SPLITTING OF LONG RANGE ELECTROSTATICS
Info: PLACING ATOMS IN PATCHES BY HYDROGEN GROUPS
Info: RIGID BONDS TO HYDROGEN : ALL
Info:         ERROR TOLERANCE : 1e-08
Info:          MAX ITERATIONS : 100
Info: RIGID WATER USING SETTLE ALGORITHM
Info: RANDOM NUMBER SEED     1743897107
Info: USE HYDROGEN BONDS?    NO
Info: Using AMBER format force field!
Info: AMBER PARM FILE        mobley_5600967.prmtop
Info: COORDINATE PDB         mobley_5600967.pdb
Info: Exclusions will be read from PARM file!
Info: SCNB (VDW SCALING)     2
Info: USING ARITHMETIC MEAN TO COMBINE L-J SIGMA PARAMETERS
Info: BINARY COORDINATES     mobley_5600967_equil.coor
Info: SUMMARY OF PARAMETERS:
Info: 11 BONDS
Info: 13 ANGLES
Info:   13 HARMONIC
Info:   0 COSINE-BASED
Info: 8 DIHEDRAL
Info: 0 IMPROPER
Info: 0 CROSSTERM
Info: 0 VDW
Info: 45 VDW_PAIRS
Info: 0 NBTHOLE_PAIRS
Info: To read alchdata from file: mobley_5600967.pdb
Info: To read alchflag data from column: 5
Info: STRUCTURE SUMMARY:
Info: 2954 ATOMS
Info: 2954 BONDS
Info: 43 ANGLES
Info: 57 DIHEDRALS
Info: 0 IMPROPERS
Info: 0 CROSSTERMS
Info: 3043 EXCLUSIONS
Info: 2941 RIGID BONDS
Info: ALCH: 0 ATOMS TO DISAPPEAR IN FINAL STATE
Info: ALCH: 26 ATOMS TO APPEAR IN FINAL STATE
Info: 5921 DEGREES OF FREEDOM
Info: 989 HYDROGEN GROUPS
Info: 4 ATOMS IN LARGEST HYDROGEN GROUP
Info: 989 MIGRATION GROUPS
Info: 4 ATOMS IN LARGEST MIGRATION GROUP
Info: TOTAL MASS = 17762.8 amu
Info: TOTAL CHARGE = -0.000299979 e
Info: MASS DENSITY = 0.965793 g/cm^3
Info: ATOM DENSITY = 0.0967216 atoms/A^3
Info: ADDED 0 IMPLICIT EXCLUSIONS
Info: NONBONDED TABLE R-SQUARED SPACING: 0.0625
Info: NONBONDED TABLE SIZE: 705 POINTS
Info: REMOVING COM VELOCITY -0.0258404 -0.0858648 -0.0452165
Info: Use 3D box decompostion in PME FFT.
Info: Updated CUDA force table with 4096 elements.
Info: Updated CUDA LJ table with 9 x 9 elements.
Info: Found 28 unique exclusion lists needing 92 bytes
TCL: Running for 1500000 steps
ETITLE: TS BOND ANGLE DIHED IMPRP ELECT VDW BOUNDARY MISC KINETIC TOTAL TEMP POTENTIAL TOTALAVG TEMPAVG PRESSURE GPRESSURE VOLUME PRESSAVG GPRESSAVG
ENERGY: 0 4.6770 12.9970 9.3168 0.0000 -10669.9911 1409.5542 0.0000 0.0000 1733.0491 -7500.3970 294.5820 -9233.4461 -7500.3970 294.5820 -252.3739 -169.6768 30541.2801 -252.3739 -169.6768
ENERGY: 300000 2.9069 10.8165 16.4786 0.0000 -10666.3909 1461.5732 0.0000 0.0000 1765.3223 -7409.2933 300.0678 -9174.6156 -7449.5953 299.8840 346.1504 411.4055 30531.2668 4.5996 83.1160
ENERGY: 600000 5.2314 9.8223 6.7112 0.0000 -10709.9406 1448.8171 0.0000 0.0000 1808.3286 -7431.0300 307.3779 -9239.3587 -7459.7472 298.7049 80.9217 81.5935 30684.4754 -34.1553 46.3777
ENERGY: 900000 3.2050 11.5894 9.3410 0.0000 -10746.6654 1458.9113 0.0000 0.0000 1771.4927 -7492.1261 301.1166 -9263.6187 -7483.0739 298.8093 198.3107 331.4549 30181.7871 19.4177 99.1627
ENERGY: 1200000 6.4729 8.7428 10.0337 0.0000 -10767.4796 1416.0272 0.0000 0.0000 1741.8599 -7584.3431 296.0796 -9326.2031 -7493.9984 298.1288 -503.9351 -445.6581 30351.5278 -82.4499 -5.2283
ENERGY: 1500000 1.4301 12.0298 10.0339 0.0000 -10643.1783 1370.5002 0.0000 0.0000 1791.9550 -7457.2293 304.5948 -9249.1843 -7478.4970 299.1093 -539.5360 -536.3416 30906.1119 -64.8580 1.0802
TCL: Running FEP window   2: Lambda1 0.95   Lambda2 0.8999999999999999 [dLambda -0.050000000000000044]
TCL: Setting parameter firsttimestep to 0
TCL: Setting parameter alchLambda to 0.95
Info: NONBONDED TABLE R-SQUARED SPACING: 0.0625
Info: NONBONDED TABLE SIZE: 705 POINTS
TCL: Setting parameter alchLambda2 to 0.8999999999999999
Info: NONBONDED TABLE R-SQUARED SPACING: 0.0625
Info: NONBONDED TABLE SIZE: 705 POINTS
TCL: Running for 1500000 steps
ETITLE: TS BOND ANGLE DIHED IMPRP ELECT VDW BOUNDARY MISC KINETIC TOTAL TEMP POTENTIAL TOTALAVG TEMPAVG PRESSURE GPRESSURE VOLUME PRESSAVG GPRESSAVG
ENERGY: 0 1.4301 12.0298 10.0339 0.0000 -10641.3821 1370.4897 0.0000 0.0000 1791.0674 -7456.3312 304.4439 -9247.3986 -7456.3312 304.4439 -610.3119 -550.0887 30906.1119 -610.3119 -550.0887
ENERGY: 300000 5.9992 10.4525 14.2541 0.0000 -10598.0822 1413.7290 0.0000 0.0000 1780.8029 -7372.8444 302.6991 -9153.6473 -7411.4916 302.3964 -98.7287 -44.9466 30975.1470 -105.0768 -43.6746
ENERGY: 600000 2.6410 6.7342 9.7291 0.0000 -10656.2240 1388.6914 0.0000 0.0000 1841.1001 -7407.3283 312.9484 -9248.4283 -7415.3748 303.1970 -132.9215 -84.0175 29972.7794 -158.5171 -108.2979
ENERGY: 900000 2.9994 9.0478 17.9737 0.0000 -10548.5842 1362.9367 0.0000 0.0000 1730.7771 -7424.8495 294.1958 -9155.6266 -7423.6979 301.5001 -407.0239 -367.2379 30614.4805 -55.1576 -8.8492
ENERGY: 1200000 3.3206 9.2326 13.3749 0.0000 -10756.5140 1500.4339 0.0000 0.0000 1765.9135 -7464.2386 300.1682 -9230.1521 -7437.3501 300.3616 509.1094 553.4429 30264.0448 25.8636 80.0152
ENERGY: 1500000 4.5243 11.2935 6.1634 0.0000 -10567.7463 1394.0295 0.0000 0.0000 1763.3661 -7388.3695 299.7352 -9151.7356 -7441.8950 299.1880 -204.6081 -94.9196 30725.4802 68.6271 125.1838
TCL: Running FEP window   3: Lambda1 0.8999999999999999 Lambda2 0.8499999999999999 [dLambda -0.050000000000000044]
TCL: Setting parameter firsttimestep to 0
TCL: Setting parameter alchLambda to 0.8999999999999999
Info: NONBONDED TABLE R-SQUARED SPACING: 0.0625
Info: NONBONDED TABLE SIZE: 705 POINTS
TCL: Setting parameter alchLambda2 to 0.8499999999999999
Info: NONBONDED TABLE R-SQUARED SPACING: 0.0625
Info: NONBONDED TABLE SIZE: 705 POINTS
TCL: Running for 1500000 steps
ETITLE: TS BOND ANGLE DIHED IMPRP ELECT VDW BOUNDARY MISC KINETIC TOTAL TEMP POTENTIAL TOTALAVG TEMPAVG PRESSURE GPRESSURE VOLUME PRESSAVG GPRESSAVG
ENERGY: 0 4.5243 11.2935 6.1634 0.0000 -10565.7549 1393.6616 0.0000 0.0000 1762.4762 -7387.6359 299.5840 -9150.1121 -7387.6359 299.5840 -207.4488 -114.8184 30725.4802 -207.4488 -114.8184
ENERGY: 300000 5.0076 8.0021 11.9663 0.0000 -10772.4279 1469.6807 0.0000 0.0000 1790.6359 -7487.1353 304.3705 -9277.7713 -7384.1089 304.9950 -18.9021 70.3091 30351.8564 49.1000 137.3665
ENERGY: 600000 5.6638 11.1382 11.7924 0.0000 -10623.0971 1321.7457 0.0000 0.0000 1757.3576 -7515.3994 298.7139 -9272.7570 -7411.8956 303.4279 -996.7756 -919.9266 30067.0933 -60.4503 34.9639
ENERGY: 900000 5.2302 8.7730 12.1843 0.0000 -10711.3637 1437.8388 0.0000 0.0000 1741.3067 -7506.0307 295.9856 -9247.3374 -7437.5625 301.4159 -217.2869 -119.7293 30307.5542 -179.4501 -96.0152
ENERGY: 1200000 3.7975 8.2625 11.9485 0.0000 -10776.4321 1450.8181 0.0000 0.0000 1745.8151 -7555.7903 296.7519 -9301.6055 -7452.2298 300.3803 -68.6998 -32.8354 30579.9361 -76.3766 -6.0915
ENERGY: 1500000 4.8403 8.8908 12.4661 0.0000 -10567.4705 1326.9660 0.0000 0.0000 1781.7787 -7432.5285 302.8650 -9214.3073 -7448.8196 301.0295 -932.8967 -871.6477 30834.4182 -123.7535 -59.2726
TCL: Running FEP window   4: Lambda1 0.8499999999999999 Lambda2 0.7999999999999998 [dLambda -0.050000000000000044]
TCL: Setting parameter firsttimestep to 0
TCL: Setting parameter alchLambda to 0.8499999999999999
Info: NONBONDED TABLE R-SQUARED SPACING: 0.0625
Info: NONBONDED TABLE SIZE: 705 POINTS
TCL: Setting parameter alchLambda2 to 0.7999999999999998
Info: NONBONDED TABLE R-SQUARED SPACING: 0.0625
Info: NONBONDED TABLE SIZE: 705 POINTS
TCL: Running for 1500000 steps
ETITLE: TS BOND ANGLE DIHED IMPRP ELECT VDW BOUNDARY MISC KINETIC TOTAL TEMP POTENTIAL TOTALAVG TEMPAVG PRESSURE GPRESSURE VOLUME PRESSAVG GPRESSAVG
ENERGY: 0 4.8403 8.8908 12.4661 0.0000 -10565.8917 1327.3766 0.0000 0.0000 1780.9144 -7431.4034 302.7181 -9212.3179 -7431.4034 302.7181 -957.9401 -879.4454 30834.4182 -957.9401 -879.4454
ENERGY: 300000 5.2528 11.2818 13.2124 0.0000 -10534.7227 1345.4978 0.0000 0.0000 1755.4045 -7404.0735 298.3819 -9159.4780 -7419.6473 301.5662 -404.7558 -323.7905 30457.6028 -424.2148 -354.0763
ENERGY: 600000 9.8256 12.0618 6.8576 0.0000 -10498.9054 1416.6309 0.0000 0.0000 1815.6424 -7237.8872 308.6211 -9053.5296 -7385.2345 304.4805 234.1720 288.9126 30277.2781 -325.7467 -246.1134
ENERGY: 900000 6.3575 17.4758 12.1972 0.0000 -10737.3593 1493.5747 0.0000 0.0000 1769.2836 -7438.4706 300.7411 -9207.7542 -7398.5466 302.7446 443.6368 540.2013 30335.2518 -95.0769 -13.6560
ENERGY: 1200000 5.9823 8.4412 9.5394 0.0000 -10868.4137 1576.9023 0.0000 0.0000 1781.4751 -7486.0734 302.8134 -9267.5485 -7410.2014 302.6247 1010.2660 1111.6493 30124.6335 10.2911 88.9652
ENERGY: 1500000 6.3776 8.1721 9.2151 0.0000 -10641.2532 1407.7332 0.0000 0.0000 1798.7999 -7410.9552 305.7582 -9209.7551 -7414.1048 303.4431 -308.0730 -238.7357 30636.9248 -38.8194 40.3702
TCL: Running FEP window   5: Lambda1 0.7999999999999998 Lambda2 0.7499999999999998 [dLambda -0.050000000000000044]
TCL: Setting parameter firsttimestep to 0
TCL: Setting parameter alchLambda to 0.7999999999999998
Info: NONBONDED TABLE R-SQUARED SPACING: 0.0625
Info: NONBONDED TABLE SIZE: 705 POINTS
TCL: Setting parameter alchLambda2 to 0.7499999999999998
Info: NONBONDED TABLE R-SQUARED SPACING: 0.0625
Info: NONBONDED TABLE SIZE: 705 POINTS
TCL: Running for 1500000 steps
ETITLE: TS BOND ANGLE DIHED IMPRP ELECT VDW BOUNDARY MISC KINETIC TOTAL TEMP POTENTIAL TOTALAVG TEMPAVG PRESSURE GPRESSURE VOLUME PRESSAVG GPRESSAVG
ENERGY: 0 6.3776 8.1721 9.2151 0.0000 -10638.6017 1407.0980 0.0000 0.0000 1797.9241 -7409.8149 305.6094 -9207.7389 -7409.8149 305.6094 -331.9699 -257.4609 30636.9248 -331.9699 -257.4609
ENERGY: 300000 4.0208 9.7803 7.6325 0.0000 -10602.3804 1392.3660 0.0000 0.0000 1725.4494 -7463.1313 293.2902 -9188.5807 -7435.1615 301.7593 -171.1112 -111.8139 30188.5877 -99.5122 -19.8537
ENERGY: 600000 2.7891 9.3996 11.6692 0.0000 -10691.8616 1425.5086 0.0000 0.0000 1827.8437 -7414.6513 310.6951 -9242.4950 -7441.4309 301.6310 -116.6157 -82.8390 30486.3647 -99.4683 -37.0462
ENERGY: 900000 2.3787 8.2601 12.5905 0.0000 -10534.4542 1365.9999 0.0000 0.0000 1739.9752 -7405.2498 295.7593 -9145.2250 -7445.1083 300.6065 -314.7630 -172.0347 30346.7583 -89.2502 -28.4257
ENERGY: 1200000 4.5728 8.8204 14.7214 0.0000 -10608.9267 1362.3969 0.0000 0.0000 1765.0180 -7453.3972 300.0160 -9218.4151 -7445.8699 301.0310 -560.9770 -465.2373 30424.3741 -132.5498 -61.9117
ENERGY: 1500000 4.1575 12.3682 12.4405 0.0000 -10710.2093 1419.2591 0.0000 0.0000 1769.5862 -7492.3978 300.7925 -9261.9840 -7451.8877 300.5700 -147.9123 -17.9597 30544.3286 -207.3739 -132.2284
TCL: Running FEP window   6: Lambda1 0.7499999999999998 Lambda2 0.6999999999999997 [dLambda -0.050000000000000044]
TCL: Setting parameter firsttimestep to 0
TCL: Setting parameter alchLambda to 0.7499999999999998
Info: NONBONDED TABLE R-SQUARED SPACING: 0.0625
Info: NONBONDED TABLE SIZE: 705 POINTS
TCL: Setting parameter alchLambda2 to 0.6999999999999997
Info: NONBONDED TABLE R-SQUARED SPACING: 0.0625
Info: NONBONDED TABLE SIZE: 705 POINTS
TCL: Running for 1500000 steps
ETITLE: TS BOND ANGLE DIHED IMPRP ELECT VDW BOUNDARY MISC KINETIC TOTAL TEMP POTENTIAL TOTALAVG TEMPAVG PRESSURE GPRESSURE VOLUME PRESSAVG GPRESSAVG
ENERGY: 0 4.1575 12.3682 12.4405 0.0000 -10708.5521 1419.3925 0.0000 0.0000 1768.7141 -7491.4793 300.6443 -9260.1935 -7491.4793 300.6443 -100.8984 -26.2645 30544.3286 -100.8984 -26.2645
ENERGY: 300000 5.9466 6.6568 10.8282 0.0000 -10679.0959 1389.0131 0.0000 0.0000 1768.7276 -7497.9236 300.6466 -9266.6511 -7471.9855 300.4769 -490.1699 -459.6036 30480.5717 37.8051 84.9904
ENERGY: 600000 3.7023 8.5173 8.3855 0.0000 -10649.0585 1496.9812 0.0000 0.0000 1736.0378 -7395.4345 295.0900 -9131.4723 -7446.7212 299.6154 535.1518 550.8308 30695.9583 -74.5878 -40.2292
ENERGY: 900000 2.8147 12.4352 9.8043 0.0000 -10575.4892 1344.9436 0.0000 0.0000 1799.9868 -7405.5047 305.9600 -9205.4915 -7446.8530 299.7733 -528.3122 -392.3325 30074.5517 -129.4569 -76.7221
ENERGY: 1200000 11.7789 11.5575 11.2001 0.0000 -10858.0268 1589.7949 0.0000 0.0000 1731.3885 -7502.3069 294.2997 -9233.6953 -7440.9012 300.0817 914.2586 959.6977 30287.2254 -77.2346 -28.2608
ENERGY: 1500000 3.3932 10.2722 11.2552 0.0000 -10789.0357 1489.7786 0.0000 0.0000 1792.9637 -7481.3728 304.7662 -9274.3365 -7442.3930 300.2062 222.4745 300.6074 30298.3597 -41.3290 19.4169
TCL: Running FEP window   7: Lambda1 0.6999999999999997 Lambda2 0.6499999999999997 [dLambda -0.050000000000000044]
TCL: Setting parameter firsttimestep to 0
TCL: Setting parameter alchLambda to 0.6999999999999997
Info: NONBONDED TABLE R-SQUARED SPACING: 0.0625
Info: NONBONDED TABLE SIZE: 705 POINTS
TCL: Setting parameter alchLambda2 to 0.6499999999999997
Info: NONBONDED TABLE R-SQUARED SPACING: 0.0625
Info: NONBONDED TABLE SIZE: 705 POINTS
TCL: Running for 1500000 steps
ETITLE: TS BOND ANGLE DIHED IMPRP ELECT VDW BOUNDARY MISC KINETIC TOTAL TEMP POTENTIAL TOTALAVG TEMPAVG PRESSURE GPRESSURE VOLUME PRESSAVG GPRESSAVG
ENERGY: 0 3.3932 10.2722 11.2552 0.0000 -10787.2425 1490.0944 0.0000 0.0000 1792.0943 -7480.1332 304.6184 -9272.2275 -7480.1332 304.6184 202.7775 292.5016 30298.3597 202.7775 292.5016
ENERGY: 300000 2.7265 8.0663 10.7459 0.0000 -10668.7113 1389.1616 0.0000 0.0000 1796.0181 -7461.9928 305.2854 -9258.0109 -7487.4634 301.3784 -638.3765 -533.3453 30850.7497 -177.8247 -101.6333
ENERGY: 600000 3.2383 7.9400 13.0453 0.0000 -10774.1575 1513.9594 0.0000 0.0000 1754.0249 -7481.9497 298.1474 -9235.9745 -7485.5038 301.1019 279.4092 351.4867 30545.5298 -84.2798 -9.6436
ENERGY: 900000 1.6413 11.7019 9.8676 0.0000 -10659.2510 1422.2202 0.0000 0.0000 1787.8854 -7425.9347 303.9030 -9213.8201 -7481.8368 302.0139 -115.6913 -20.9304 30383.2115 2.1115 71.4723
ENERGY: 1200000 3.6426 8.9638 12.6116 0.0000 -10649.0929 1419.0883 0.0000 0.0000 1749.9053 -7454.8814 297.4472 -9204.7867 -7478.1641 300.9093 -148.5524 -177.4556 30651.2529 -13.4398 47.9986
ENERGY: 1500000 2.9263 10.3061 10.9189 0.0000 -10562.8333 1388.4236 0.0000 0.0000 1771.3910 -7378.8673 301.0993 -9150.2583 -7458.5347 301.6423 -401.1063 -329.0080 30537.4835 -32.9248 27.0461
TCL: Running FEP window   8: Lambda1 0.6499999999999997 Lambda2 0.5999999999999996 [dLambda -0.050000000000000044]
TCL: Setting parameter firsttimestep to 0
TCL: Setting parameter alchLambda to 0.6499999999999997
Info: NONBONDED TABLE R-SQUARED SPACING: 0.0625
Info: NONBONDED TABLE SIZE: 705 POINTS
TCL: Setting parameter alchLambda2 to 0.5999999999999996
Info: NONBONDED TABLE R-SQUARED SPACING: 0.0625
Info: NONBONDED TABLE SIZE: 705 POINTS
TCL: Running for 1500000 steps
ETITLE: TS BOND ANGLE DIHED IMPRP ELECT VDW BOUNDARY MISC KINETIC TOTAL TEMP POTENTIAL TOTALAVG TEMPAVG PRESSURE GPRESSURE VOLUME PRESSAVG GPRESSAVG
ENERGY: 0 2.9263 10.3061 10.9189 0.0000 -10562.4637 1389.0089 0.0000 0.0000 1770.5555 -7378.7480 300.9573 -9149.3035 -7378.7480 300.9573 -419.3751 -336.8827 30537.4835 -419.3751 -336.8827
ENERGY: 300000 3.4023 10.9068 13.8741 0.0000 -10669.0145 1436.6043 0.0000 0.0000 1820.1280 -7384.0990 309.3836 -9204.2270 -7388.8368 302.2268 -62.1568 -16.8852 30699.1281 -85.3237 -37.8742
ENERGY: 600000 2.6463 10.9322 7.5466 0.0000 -10645.8042 1440.4855 0.0000 0.0000 1770.3908 -7413.8027 300.9293 -9184.1935 -7394.7267 301.5564 304.6535 371.1374 30075.8379 -79.5298 -32.0479
ENERGY: 900000 3.8398 5.8337 12.2860 0.0000 -10830.1153 1495.5508 0.0000 0.0000 1750.1957 -7562.4093 297.4966 -9312.6050 -7428.4962 300.6996 378.4794 444.6478 29917.8098 35.3473 93.7876
ENERGY: 1200000 4.1585 7.4360 9.0505 0.0000 -10628.3539 1473.2096 0.0000 0.0000 1765.7691 -7368.7301 300.1437 -9134.4992 -7431.7861 300.2697 588.2508 663.6131 30290.9718 133.6319 199.5762
ENERGY: 1500000 4.6478 12.1820 8.3914 0.0000 -10737.5329 1435.3598 0.0000 0.0000 1733.5734 -7543.3784 294.6711 -9276.9519 -7439.6851 300.0128 -355.2735 -329.1836 30335.3203 57.9117 122.5398
TCL: Running FEP window   9: Lambda1 0.5999999999999996 Lambda2 0.5499999999999996 [dLambda -0.050000000000000044]
TCL: Setting parameter firsttimestep to 0
TCL: Setting parameter alchLambda to 0.5999999999999996
Info: NONBONDED TABLE R-SQUARED SPACING: 0.0625
Info: NONBONDED TABLE SIZE: 705 POINTS
TCL: Setting parameter alchLambda2 to 0.5499999999999996
Info: NONBONDED TABLE R-SQUARED SPACING: 0.0625
Info: NONBONDED TABLE SIZE: 705 POINTS
TCL: Running for 1500000 steps
ETITLE: TS BOND ANGLE DIHED IMPRP ELECT VDW BOUNDARY MISC KINETIC TOTAL TEMP POTENTIAL TOTALAVG TEMPAVG PRESSURE GPRESSURE VOLUME PRESSAVG GPRESSAVG
ENERGY: 0 4.6478 12.1820 8.3914 0.0000 -10736.6073 1435.7962 0.0000 0.0000 1732.6674 -7542.9224 294.5171 -9275.5898 -7542.9224 294.5171 -416.2219 -336.3453 30335.3203 -416.2219 -336.3453
ENERGY: 300000 5.5222 11.4178 9.6557 0.0000 -10703.8711 1427.1846 0.0000 0.0000 1804.7630 -7445.3277 306.7718 -9250.0907 -7442.2686 303.9879 -377.9041 -208.2411 30409.8841 57.7959 169.5403
ENERGY: 600000 4.0612 6.7810 15.1747 0.0000 -10590.7826 1389.3388 0.0000 0.0000 1788.1922 -7387.2346 303.9552 -9175.4269 -7438.8655 303.6202 -477.0481 -399.3831 30747.6844 -135.0218 -43.0495
ENERGY: 900000 10.1943 7.7393 15.2210 0.0000 -10618.2075 1439.5670 0.0000 0.0000 1809.6668 -7335.8191 307.6054 -9145.4859 -7444.3088 302.0832 112.3115 155.6080 30872.8074 -198.4341 -118.6151
ENERGY: 1200000 3.7264 13.1577 8.2961 0.0000 -10755.9636 1420.1474 0.0000 0.0000 1736.7995 -7573.8365 295.2195 -9310.6360 -7444.2275 301.1409 -241.9871 -235.1003 29851.1701 -197.9248 -124.4015
ENERGY: 1500000 4.1561 11.4772 11.7553 0.0000 -10652.3747 1423.5768 0.0000 0.0000 1788.4920 -7412.9173 304.0061 -9201.4093 -7442.0987 301.0928 -192.1936 -141.3901 30506.1519 -143.6716 -69.2149
TCL: Running FEP window  10: Lambda1 0.5499999999999996 Lambda2 0.4999999999999996 [dLambda -0.04999999999999999]
TCL: Setting parameter firsttimestep to 0
TCL: Setting parameter alchLambda to 0.5499999999999996
Info: NONBONDED TABLE R-SQUARED SPACING: 0.0625
Info: NONBONDED TABLE SIZE: 705 POINTS
TCL: Setting parameter alchLambda2 to 0.4999999999999996
Info: NONBONDED TABLE R-SQUARED SPACING: 0.0625
Info: NONBONDED TABLE SIZE: 705 POINTS
TCL: Running for 1500000 steps
ETITLE: TS BOND ANGLE DIHED IMPRP ELECT VDW BOUNDARY MISC KINETIC TOTAL TEMP POTENTIAL TOTALAVG TEMPAVG PRESSURE GPRESSURE VOLUME PRESSAVG GPRESSAVG
ENERGY: 0 4.1562 11.4772 11.7553 0.0000 -10651.0023 1423.4172 0.0000 0.0000 1787.6167 -7412.5798 303.8573 -9200.1965 -7412.5798 303.8573 -237.8715 -150.7067 30506.1519 -237.8715 -150.7067
ENERGY: 300000 2.2404 8.0757 12.0092 0.0000 -10473.8481 1299.6764 0.0000 0.0000 1753.0336 -7398.8128 297.9789 -9151.8464 -7421.8803 298.7842 -780.5379 -817.5989 30592.5912 -541.9150 -478.7135
ENERGY: 600000 5.4652 8.2241 12.1338 0.0000 -10608.5475 1399.1004 0.0000 0.0000 1731.0934 -7452.5306 294.2496 -9183.6240 -7443.6234 298.6876 -480.0936 -412.4794 30850.4272 -185.6108 -126.6989
ENERGY: 900000 5.0585 9.0502 14.8845 0.0000 -10548.8767 1386.8188 0.0000 0.0000 1773.2780 -7359.7866 301.4201 -9133.0646 -7432.3896 299.5344 -379.2382 -322.1762 30589.9741 -193.7473 -129.6412
ENERGY: 1200000 2.5430 11.2221 9.5480 0.0000 -10578.5821 1419.6353 0.0000 0.0000 1782.5310 -7353.1028 302.9929 -9135.6337 -7419.6352 299.8424 212.6465 291.2787 30277.1802 -159.3887 -93.9877
ENERGY: 1500000 3.7611 12.0233 9.9052 0.0000 -10656.2262 1393.9493 0.0000 0.0000 1815.7128 -7420.8745 308.6331 -9236.5874 -7422.8774 299.9864 -533.1193 -388.0115 30403.3269 -191.8250 -121.9737
TCL: Running FEP window  11: Lambda1 0.4999999999999996 Lambda2 0.4499999999999996 [dLambda -0.04999999999999999]
TCL: Setting parameter firsttimestep to 0
TCL: Setting parameter alchLambda to 0.4999999999999996
Info: NONBONDED TABLE R-SQUARED SPACING: 0.0625
Info: NONBONDED TABLE SIZE: 705 POINTS
TCL: Setting parameter alchLambda2 to 0.4499999999999996
Info: NONBONDED TABLE R-SQUARED SPACING: 0.0625
Info: NONBONDED TABLE SIZE: 705 POINTS
TCL: Running for 1500000 steps
ETITLE: TS BOND ANGLE DIHED IMPRP ELECT VDW BOUNDARY MISC KINETIC TOTAL TEMP POTENTIAL TOTALAVG TEMPAVG PRESSURE GPRESSURE VOLUME PRESSAVG GPRESSAVG
ENERGY: 0 3.7611 12.0233 9.9052 0.0000 -10656.4444 1394.3197 0.0000 0.0000 1814.8462 -7421.5889 308.4858 -9236.4351 -7421.5889 308.4858 -470.7709 -396.1198 30403.3269 -470.7709 -396.1198
ENERGY: 300000 6.5173 10.8062 11.6855 0.0000 -10607.3956 1356.2973 0.0000 0.0000 1753.3301 -7468.7593 298.0293 -9222.0894 -7421.5217 303.7064 -777.4276 -694.6975 30530.5213 -139.5646 -76.8696
ENERGY: 600000 5.9840 7.3312 9.3511 0.0000 -10728.1802 1487.9664 0.0000 0.0000 1787.4379 -7430.1095 303.8269 -9217.5475 -7427.1012 302.5691 574.1700 644.1699 30019.8443 37.5918 102.6658
ENERGY: 900000 3.9444 11.5517 12.9017 0.0000 -10608.9847 1391.9092 0.0000 0.0000 1738.5204 -7450.1573 295.5120 -9188.6777 -7435.1300 301.5694 -441.7886 -376.1207 30436.4156 -111.8134 -57.6762
ENERGY: 1200000 3.0812 8.6783 8.6866 0.0000 -10671.9357 1438.5796 0.0000 0.0000 1720.2671 -7492.6429 292.4093 -9212.9100 -7439.6533 300.5159 127.3813 151.5140 30098.9418 -51.5701 8.0325
ENERGY: 1500000 3.8191 12.2410 10.5424 0.0000 -10655.2632 1497.4680 0.0000 0.0000 1754.9601 -7376.2326 298.3064 -9131.1926 -7448.1779 299.3074 592.9153 661.6153 30538.2517 1.5754 60.0197
TCL: Running FEP window  12: Lambda1 0.4499999999999996 Lambda2 0.39999999999999963 [dLambda -0.04999999999999999]
TCL: Setting parameter firsttimestep to 0
TCL: Setting parameter alchLambda to 0.4499999999999996
Info: NONBONDED TABLE R-SQUARED SPACING: 0.0625
Info: NONBONDED TABLE SIZE: 705 POINTS
TCL: Setting parameter alchLambda2 to 0.39999999999999963
Info: NONBONDED TABLE R-SQUARED SPACING: 0.0625
Info: NONBONDED TABLE SIZE: 705 POINTS
TCL: Running for 1500000 steps
ETITLE: TS BOND ANGLE DIHED IMPRP ELECT VDW BOUNDARY MISC KINETIC TOTAL TEMP POTENTIAL TOTALAVG TEMPAVG PRESSURE GPRESSURE VOLUME PRESSAVG GPRESSAVG
ENERGY: 0 3.8191 12.2410 10.5424 0.0000 -10655.2619 1497.3900 0.0000 0.0000 1754.1041 -7377.1653 298.1609 -9131.2694 -7377.1653 298.1609 575.0276 653.1527 30538.2517 575.0276 653.1527
ENERGY: 300000 6.3199 10.6138 15.8517 0.0000 -10698.4228 1464.0074 0.0000 0.0000 1756.3726 -7445.2574 298.5465 -9201.6300 -7439.5949 297.4943 258.3175 379.9479 29910.4150 80.9944 130.4613
ENERGY: 600000 7.1164 7.0799 8.0369 0.0000 -10641.5762 1446.4340 0.0000 0.0000 1760.3765 -7412.5325 299.2271 -9172.9090 -7454.3745 297.9577 -64.0359 63.9996 30405.1851 264.0980 330.3144
ENERGY: 900000 5.7998 11.4186 7.8246 0.0000 -10676.3812 1402.1083 0.0000 0.0000 1764.9548 -7484.2751 300.0053 -9249.2299 -7451.1516 297.6785 -441.4152 -397.2373 30444.1300 68.2156 125.6010
ENERGY: 1200000 6.4677 8.3098 9.5222 0.0000 -10596.1315 1391.3031 0.0000 0.0000 1818.7217 -7361.8069 309.1445 -9180.5286 -7432.9964 299.1678 -446.9715 -339.9578 30357.3295 -41.0648 21.4945
ENERGY: 1500000 4.4372 9.2720 7.4383 0.0000 -10596.1732 1379.5345 0.0000 0.0000 1735.7117 -7459.7795 295.0346 -9195.4912 -7436.3244 298.9164 -584.7637 -569.0528 30847.0533 -73.1736 -15.4494
TCL: Running FEP window  13: Lambda1 0.39999999999999963 Lambda2 0.34999999999999964 [dLambda -0.04999999999999999]
TCL: Setting parameter firsttimestep to 0
TCL: Setting parameter alchLambda to 0.39999999999999963
Info: NONBONDED TABLE R-SQUARED SPACING: 0.0625
Info: NONBONDED TABLE SIZE: 705 POINTS
TCL: Setting parameter alchLambda2 to 0.34999999999999964
Info: NONBONDED TABLE R-SQUARED SPACING: 0.0625
Info: NONBONDED TABLE SIZE: 705 POINTS
TCL: Running for 1500000 steps
ETITLE: TS BOND ANGLE DIHED IMPRP ELECT VDW BOUNDARY MISC KINETIC TOTAL TEMP POTENTIAL TOTALAVG TEMPAVG PRESSURE GPRESSURE VOLUME PRESSAVG GPRESSAVG
ENERGY: 0 4.4371 9.2720 7.4383 0.0000 -10596.1720 1379.8695 0.0000 0.0000 1734.8592 -7460.2959 294.8897 -9195.1550 -7460.2959 294.8897 -657.0272 -575.1732 30847.0533 -657.0272 -575.1732
ENERGY: 300000 2.0507 10.8853 9.5272 0.0000 -10696.3229 1525.1673 0.0000 0.0000 1764.5479 -7384.1445 299.9361 -9148.6924 -7430.3306 300.1572 849.5705 866.5688 30366.7772 32.2687 59.3458
ENERGY: 600000 5.9531 11.7223 6.8430 0.0000 -10515.8809 1377.5662 0.0000 0.0000 1802.7537 -7311.0426 306.4303 -9113.7963 -7425.2088 300.0437 -219.0879 -200.3285 30543.5451 -143.3127 -108.8190
ENERGY: 900000 6.1735 11.3381 9.8428 0.0000 -10552.0441 1329.3231 0.0000 0.0000 1767.1307 -7428.2360 300.3751 -9195.3666 -7430.5054 299.5047 -1112.8358 -1057.6166 31068.6406 -236.1637 -197.6013
ENERGY: 1200000 6.3674 14.4994 14.4868 0.0000 -10636.0445 1434.6389 0.0000 0.0000 1792.0964 -7373.9555 304.6188 -9166.0519 -7429.8230 300.4294 13.8691 30.7871 30317.1677 -260.2484 -217.3611
ENERGY: 1500000 3.1246 9.5158 13.7705 0.0000 -10719.7338 1466.4671 0.0000 0.0000 1771.5894 -7455.2662 301.1330 -9226.8556 -7425.9044 299.9310 73.0370 124.9594 30159.1857 -197.3030 -158.8826
TCL: Running FEP window  14: Lambda1 0.34999999999999964 Lambda2 0.29999999999999966 [dLambda -0.04999999999999999]
TCL: Setting parameter firsttimestep to 0
TCL: Setting parameter alchLambda to 0.34999999999999964
Info: NONBONDED TABLE R-SQUARED SPACING: 0.0625
Info: NONBONDED TABLE SIZE: 705 POINTS
TCL: Setting parameter alchLambda2 to 0.29999999999999966
Info: NONBONDED TABLE R-SQUARED SPACING: 0.0625
Info: NONBONDED TABLE SIZE: 705 POINTS
TCL: Running for 1500000 steps
ETITLE: TS BOND ANGLE DIHED IMPRP ELECT VDW BOUNDARY MISC KINETIC TOTAL TEMP POTENTIAL TOTALAVG TEMPAVG PRESSURE GPRESSURE VOLUME PRESSAVG GPRESSAVG
ENERGY: 0 3.1246 9.5158 13.7705 0.0000 -10719.7338 1467.1414 0.0000 0.0000 1770.7173 -7455.4641 300.9848 -9226.1814 -7455.4641 300.9848 45.4160 122.7197 30159.1857 45.4160 122.7197
ENERGY: 300000 5.0035 9.2712 13.7750 0.0000 -10646.5174 1436.4128 0.0000 0.0000 1780.9878 -7401.0671 302.7306 -9182.0549 -7409.7388 302.8674 -71.4814 -57.0677 30434.2784 66.5458 112.4482
ENERGY: 600000 5.1276 10.3613 11.8489 0.0000 -10634.4937 1436.0310 0.0000 0.0000 1757.7132 -7413.4117 298.7744 -9171.1249 -7414.7831 301.3875 161.0088 238.8924 29862.4543 -3.5446 50.3625
ENERGY: 900000 10.7489 9.9802 8.7319 0.0000 -10644.5972 1402.0486 0.0000 0.0000 1829.3138 -7383.7738 310.9450 -9213.0876 -7416.3429 303.6915 -394.2999 -307.6957 30024.4855 62.8198 125.4740
ENERGY: 1200000 5.2230 6.9423 10.2089 0.0000 -10578.9553 1392.6125 0.0000 0.0000 1773.9622 -7390.0064 301.5364 -9163.9686 -7415.5248 303.2288 -370.3171 -300.4200 30577.1215 122.2580 182.3216
ENERGY: 1500000 6.1933 9.7396 10.3475 0.0000 -10557.1014 1338.1532 0.0000 0.0000 1802.6212 -7390.0465 306.4078 -9192.6677 -7416.6478 303.0987 -822.8593 -750.9870 30363.8416 -33.0611 26.9264
TCL: Running FEP window  15: Lambda1 0.29999999999999966 Lambda2 0.24999999999999967 [dLambda -0.04999999999999999]
TCL: Setting parameter firsttimestep to 0
TCL: Setting parameter alchLambda to 0.29999999999999966
Info: NONBONDED TABLE R-SQUARED SPACING: 0.0625
Info: NONBONDED TABLE SIZE: 705 POINTS
TCL: Setting parameter alchLambda2 to 0.24999999999999967
Info: NONBONDED TABLE R-SQUARED SPACING: 0.0625
Info: NONBONDED TABLE SIZE: 705 POINTS
TCL: Running for 1500000 steps
ETITLE: TS BOND ANGLE DIHED IMPRP ELECT VDW BOUNDARY MISC KINETIC TOTAL TEMP POTENTIAL TOTALAVG TEMPAVG PRESSURE GPRESSURE VOLUME PRESSAVG GPRESSAVG
ENERGY: 0 6.1933 9.7396 10.3475 0.0000 -10557.0990 1337.8609 0.0000 0.0000 1801.7157 -7391.2420 306.2539 -9192.9577 -7391.2420 306.2539 -841.7670 -759.5295 30363.8416 -841.7670 -759.5295
ENERGY: 300000 6.6832 10.1927 10.2689 0.0000 -10721.2557 1560.6215 0.0000 0.0000 1728.1670 -7405.3223 293.7521 -9133.4893 -7414.5526 302.2658 496.8497 586.4120 30806.6771 -45.1090 0.7957
ENERGY: 600000 3.1629 12.5827 11.8159 0.0000 -10658.6159 1480.6878 0.0000 0.0000 1834.8607 -7315.5058 311.8878 -9150.3666 -7414.0502 303.0457 554.4492 615.6827 30569.9002 -59.8223 -4.3574
ENERGY: 900000 4.1469 13.2095 9.7036 0.0000 -10605.0692 1418.7631 0.0000 0.0000 1749.1422 -7410.1039 297.3175 -9159.2461 -7416.6408 302.2359 -85.0557 -19.2827 30414.8930 -73.9691 -13.1832
ENERGY: 1200000 5.5616 15.0207 8.8416 0.0000 -10596.1217 1419.1074 0.0000 0.0000 1769.6852 -7377.9054 300.8094 -9147.5905 -7416.1120 302.6045 -12.1343 5.0302 30209.2857 -83.8221 -31.4562
ENERGY: 1500000 5.7130 12.5800 13.4073 0.0000 -10747.2845 1551.8474 0.0000 0.0000 1775.8129 -7387.9239 301.8509 -9163.7368 -7408.1606 302.9415 1157.8367 1186.7073 30316.0139 -24.6738 27.6833
TCL: Running FEP window  16: Lambda1 0.24999999999999967 Lambda2 0.19999999999999968 [dLambda -0.04999999999999999]
TCL: Setting parameter firsttimestep to 0
TCL: Setting parameter alchLambda to 0.24999999999999967
Info: NONBONDED TABLE R-SQUARED SPACING: 0.0625
Info: NONBONDED TABLE SIZE: 705 POINTS
TCL: Setting parameter alchLambda2 to 0.19999999999999968
Info: NONBONDED TABLE R-SQUARED SPACING: 0.0625
Info: NONBONDED TABLE SIZE: 705 POINTS
TCL: Running for 1500000 steps
ETITLE: TS BOND ANGLE DIHED IMPRP ELECT VDW BOUNDARY MISC KINETIC TOTAL TEMP POTENTIAL TOTALAVG TEMPAVG PRESSURE GPRESSURE VOLUME PRESSAVG GPRESSAVG
ENERGY: 0 5.7130 12.5800 13.4073 0.0000 -10747.2847 1552.4088 0.0000 0.0000 1774.9563 -7388.2194 301.7053 -9163.1756 -7388.2194 301.7053 1104.8179 1184.6105 30316.0139 1104.8179 1184.6105
ENERGY: 300000 6.6239 7.7184 9.3522 0.0000 -10708.7647 1465.8031 0.0000 0.0000 1832.6426 -7386.6245 311.5108 -9219.2671 -7388.9931 301.8265 403.9917 472.0583 30106.3418 557.5800 630.7868
ENERGY: 600000 4.8080 10.4481 13.5295 0.0000 -10657.2219 1448.6106 0.0000 0.0000 1789.9883 -7389.8374 304.2605 -9179.8257 -7405.3176 301.9396 1.7443 78.1904 30591.3789 245.9578 316.5417
ENERGY: 900000 5.7768 6.9741 11.6173 0.0000 -10542.9384 1265.6445 0.0000 0.0000 1749.0104 -7503.9154 297.2951 -9252.9258 -7429.4800 301.1883 -1638.2968 -1608.2913 30338.2788 -54.3243 21.8274
ENERGY: 1200000 4.8643 12.4714 13.6452 0.0000 -10635.7043 1430.0272 0.0000 0.0000 1754.1271 -7420.5692 298.1648 -9174.6963 -7423.4962 301.1501 -35.3816 39.9268 30361.0192 54.1375 133.2189
ENERGY: 1500000 2.3760 8.6414 12.7183 0.0000 -10706.3759 1455.6713 0.0000 0.0000 1758.3900 -7468.5788 298.8894 -9226.9688 -7435.0810 300.6550 136.6863 192.8200 30041.2842 59.0891 134.7100
TCL: Running FEP window  17: Lambda1 0.19999999999999968 Lambda2 0.1499999999999997 [dLambda -0.04999999999999999]
TCL: Setting parameter firsttimestep to 0
TCL: Setting parameter alchLambda to 0.19999999999999968
Info: NONBONDED TABLE R-SQUARED SPACING: 0.0625
Info: NONBONDED TABLE SIZE: 705 POINTS
TCL: Setting parameter alchLambda2 to 0.1499999999999997
Info: NONBONDED TABLE R-SQUARED SPACING: 0.0625
Info: NONBONDED TABLE SIZE: 705 POINTS
TCL: Running for 1500000 steps
ETITLE: TS BOND ANGLE DIHED IMPRP ELECT VDW BOUNDARY MISC KINETIC TOTAL TEMP POTENTIAL TOTALAVG TEMPAVG PRESSURE GPRESSURE VOLUME PRESSAVG GPRESSAVG
ENERGY: 0 2.3760 8.6414 12.7183 0.0000 -10706.3761 1456.0022 0.0000 0.0000 1757.4868 -7469.1514 298.7359 -9226.6382 -7469.1514 298.7359 99.8289 192.5427 30041.2842 99.8289 192.5427
ENERGY: 300000 2.8836 7.9155 9.5373 0.0000 -10681.9915 1426.0317 0.0000 0.0000 1780.7596 -7454.8639 302.6918 -9235.6235 -7455.7167 297.5283 -282.8768 -161.9895 30435.4746 -52.4773 61.1852
ENERGY: 600000 2.4686 12.8332 11.5763 0.0000 -10619.9944 1355.0758 0.0000 0.0000 1729.1405 -7508.9001 293.9176 -9238.0406 -7435.4547 298.4116 -687.3489 -569.9488 30191.4575 -40.1659 53.7577
ENERGY: 900000 4.4254 12.8935 7.8066 0.0000 -10659.4980 1493.3674 0.0000 0.0000 1780.8190 -7360.1860 302.7019 -9141.0050 -7426.5706 299.5180 823.9343 884.5827 30234.7605 -9.0986 71.8563
ENERGY: 1200000 9.0737 5.4028 12.0690 0.0000 -10660.6717 1424.5102 0.0000 0.0000 1778.6564 -7430.9596 302.3343 -9209.6160 -7426.7961 299.5164 -294.3111 -203.8491 30384.6684 -62.9199 19.4654
ENERGY: 1500000 5.9033 8.3695 11.6643 0.0000 -10692.7375 1500.0629 0.0000 0.0000 1772.7370 -7394.0005 301.3281 -9166.7375 -7423.1228 300.3495 644.9369 723.8543 29780.3498 47.8420 124.9169
TCL: Running FEP window  18: Lambda1 0.1499999999999997 Lambda2 0.09999999999999969 [dLambda -0.05 ]
TCL: Setting parameter firsttimestep to 0
TCL: Setting parameter alchLambda to 0.1499999999999997
Info: NONBONDED TABLE R-SQUARED SPACING: 0.0625
Info: NONBONDED TABLE SIZE: 705 POINTS
TCL: Setting parameter alchLambda2 to 0.09999999999999969
Info: NONBONDED TABLE R-SQUARED SPACING: 0.0625
Info: NONBONDED TABLE SIZE: 705 POINTS
TCL: Running for 1500000 steps
ETITLE: TS BOND ANGLE DIHED IMPRP ELECT VDW BOUNDARY MISC KINETIC TOTAL TEMP POTENTIAL TOTALAVG TEMPAVG PRESSURE GPRESSURE VOLUME PRESSAVG GPRESSAVG
ENERGY: 0 5.9033 8.3695 11.6643 0.0000 -10692.7379 1500.5742 0.0000 0.0000 1771.8729 -7394.3537 301.1812 -9166.2266 -7394.3537 301.1812 658.5856 723.4835 29780.3498 658.5856 723.4835
ENERGY: 300000 6.7278 10.2469 15.6322 0.0000 -10709.7065 1421.8088 0.0000 0.0000 1827.4441 -7427.8468 310.6272 -9255.2909 -7413.6141 301.9415 -424.1100 -311.2764 30237.2267 -8.7503 55.2811
ENERGY: 600000 4.3230 9.2163 14.1754 0.0000 -10505.9732 1334.0878 0.0000 0.0000 1692.7653 -7451.4054 287.7346 -9144.1707 -7421.0217 299.0859 -1011.1911 -951.4289 30741.1517 -349.5939 -284.6723
ENERGY: 900000 2.6493 9.4330 9.6027 0.0000 -10551.7082 1396.4552 0.0000 0.0000 1750.5812 -7382.9868 297.5621 -9133.5680 -7417.1914 299.3975 -167.2192 -86.7082 30174.2512 -259.1304 -197.8367
ENERGY: 1200000 4.9980 7.7579 15.4661 0.0000 -10643.2847 1421.4958 0.0000 0.0000 1734.2785 -7459.2884 294.7910 -9193.5669 -7418.9597 300.1035 -243.2420 -176.7732 29937.2602 -213.0962 -155.0842
ENERGY: 1500000 6.6799 10.8050 15.5392 0.0000 -10672.2934 1436.5614 0.0000 0.0000 1739.5053 -7463.2026 295.6794 -9202.7079 -7423.3690 299.3610 56.3495 149.1962 29652.5596 -167.0927 -110.1567
TCL: Running FEP window  19: Lambda1 0.09999999999999969 Lambda2 0.049999999999999684 [dLambda -0.05 ]
TCL: Setting parameter firsttimestep to 0
TCL: Setting parameter alchLambda to 0.09999999999999969
Info: NONBONDED TABLE R-SQUARED SPACING: 0.0625
Info: NONBONDED TABLE SIZE: 705 POINTS
TCL: Setting parameter alchLambda2 to 0.049999999999999684
Info: NONBONDED TABLE R-SQUARED SPACING: 0.0625
Info: NONBONDED TABLE SIZE: 705 POINTS
TCL: Running for 1500000 steps
ETITLE: TS BOND ANGLE DIHED IMPRP ELECT VDW BOUNDARY MISC KINETIC TOTAL TEMP POTENTIAL TOTALAVG TEMPAVG PRESSURE GPRESSURE VOLUME PRESSAVG GPRESSAVG
ENERGY: 0 6.6799 10.8050 15.5392 0.0000 -10672.2919 1436.8795 0.0000 0.0000 1738.6646 -7463.7237 295.5365 -9202.3883 -7463.7237 295.5365 69.1089 148.3045 29652.5596 69.1089 148.3045
ENERGY: 300000 4.1602 12.2744 12.2837 0.0000 -10660.8989 1452.6464 0.0000 0.0000 1772.5208 -7407.0134 301.2914 -9179.5343 -7449.7910 298.6321 463.9976 522.8806 30197.1322 492.8032 551.6027
ENERGY: 600000 3.1954 9.0793 13.9425 0.0000 -10778.8953 1538.8610 0.0000 0.0000 1767.8697 -7445.9474 300.5008 -9213.8170 -7443.5697 301.5357 801.8295 856.8846 29778.4561 432.5805 500.9741
ENERGY: 900000 3.1070 8.8774 9.4931 0.0000 -10701.3167 1439.6731 0.0000 0.0000 1771.1632 -7469.0030 301.0606 -9240.1662 -7450.4357 301.2984 -244.1560 -128.1613 30363.5714 299.1177 370.3087
ENERGY: 1200000 4.1136 7.7785 12.5964 0.0000 -10628.3846 1358.6210 0.0000 0.0000 1732.9447 -7512.3304 294.5642 -9245.2750 -7446.2432 300.2061 -828.3365 -735.4287 30332.8934 144.4324 216.8606
ENERGY: 1500000 7.0023 9.1146 15.0846 0.0000 -10603.9106 1371.1535 0.0000 0.0000 1731.1752 -7470.3804 294.2635 -9201.5556 -7446.1399 299.5325 -618.5844 -561.7435 29769.7014 97.9362 164.4593
TCL: Running FEP window  20: Lambda1 0.049999999999999684 Lambda2 0.0    [dLambda -0.049999999999999684]
TCL: Setting parameter firsttimestep to 0
TCL: Setting parameter alchLambda to 0.049999999999999684
Info: NONBONDED TABLE R-SQUARED SPACING: 0.0625
Info: NONBONDED TABLE SIZE: 705 POINTS
TCL: Setting parameter alchLambda2 to 0.0
Info: NONBONDED TABLE R-SQUARED SPACING: 0.0625
Info: NONBONDED TABLE SIZE: 705 POINTS
TCL: Running for 1500000 steps
ETITLE: TS BOND ANGLE DIHED IMPRP ELECT VDW BOUNDARY MISC KINETIC TOTAL TEMP POTENTIAL TOTALAVG TEMPAVG PRESSURE GPRESSURE VOLUME PRESSAVG GPRESSAVG
ENERGY: 0 7.0024 9.1146 15.0846 0.0000 -10603.9128 1368.2901 0.0000 0.0000 1730.3383 -7474.0828 294.1212 -9204.4211 -7474.0828 294.1212 -629.8813 -574.7987 29769.7014 -629.8813 -574.7987
ENERGY: 300000 2.1871 12.6443 10.6730 0.0000 -10600.1465 1392.6249 0.0000 0.0000 1789.1924 -7392.8247 304.1252 -9182.0172 -7425.4317 301.3545 -529.0367 -424.6844 30366.8793 -393.5672 -285.9411
ENERGY: 600000 2.8390 8.0293 10.1527 0.0000 -10572.4420 1401.8312 0.0000 0.0000 1728.7273 -7420.8626 293.8474 -9149.5899 -7441.3866 299.3774 -218.2153 -185.1443 30316.4725 -357.0525 -268.6085
ENERGY: 900000 8.0113 6.8036 15.1113 0.0000 -10675.6444 1412.7153 0.0000 0.0000 1746.8314 -7486.1715 296.9247 -9233.0029 -7462.5619 298.1327 -592.1360 -517.5395 30175.0587 -317.9832 -232.4958
ENERGY: 1200000 4.8833 8.4001 12.2311 0.0000 -10788.4990 1505.3979 0.0000 0.0000 1734.4684 -7523.1183 294.8232 -9257.5867 -7451.6299 297.4558 -56.9638 20.6654 30421.3344 -228.3727 -142.6511
ENERGY: 1500000 6.0719 9.5057 7.8465 0.0000 -10602.8877 1398.0172 0.0000 0.0000 1732.4566 -7448.9899 294.4813 -9181.4465 -7433.0484 297.9277 -547.5698 -530.9923 30569.0197 -222.9362 -144.5826
TCL: Exiting due to exit command.
