Info: SIMULATION PARAMETERS:
Info: TIMESTEP               2
Info: NUMBER OF STEPS        0
Info: STEPS PER CYCLE        10
Info: PERIODIC CELL BASIS 1  30.0103 0 0
Info: PERIODIC CELL BASIS 2  0 29.5337 0
Info: PERIODIC CELL BASIS 3  0 0 34.4407
Info: PERIODIC CELL CENTER   0 0 0
Info: WRAPPING WATERS AROUND PERIODIC BOUNDARIES ON OUTPUT.
Info: WRAPPING ALL CLUSTERS AROUND PERIODIC BOUNDARIES ON OUTPUT.
Info: FIRST LDB TIMESTEP     50
Info: LAST LDB TIMESTEP     -1
Info: HOM BACKGROUND SCALING 1
Info: PME BACKGROUND SCALING 1
Info: MIN ATOMS PER PATCH    40
Info: EMPTY PATCH LOAD       40 ATOMS
Info: VELOCITY FILE          mobley_632905_equil.vel
Info: CENTER OF MASS MOVING INITIALLY? NO
Info: DIELECTRIC             1
Info: EXCLUDE                SCALED ONE-FOUR
Info: 1-4 ELECTROSTATICS SCALED BY 0.833333
Info: MODIFIED 1-4 VDW PARAMETERS WILL BE USED
Info: DCD FILENAME           mobley_632905_prod.dcd
Info: DCD FREQUENCY          100000
Info: DCD FIRST STEP         100000
Info: DCD FILE WILL CONTAIN UNIT CELL DATA
Info: XST FILENAME           mobley_632905_prod.xst
Info: XST FREQUENCY          100000
Info: NO VELOCITY DCD OUTPUT
Info: NO FORCE DCD OUTPUT
Info: OUTPUT FILENAME        mobley_632905_prod
Info: BINARY OUTPUT FILES WILL BE USED
Info: RESTART FILENAME       mobley_632905_prod.restart
Info: RESTART FREQUENCY      100000
Info: BINARY RESTART FILES WILL BE USED
Info: CUTOFF                 9
Info: PAIRLIST DISTANCE      11
Info: PAIRLIST SHRINK RATE   0.01
Info: PAIRLIST GROW RATE     0.01
Info: PAIRLIST TRIGGER       0.3
Info: PAIRLISTS PER CYCLE    2
Info: PAIRLISTS ENABLED
Info: MARGIN                 2
Info: HYDROGEN GROUP CUTOFF  2.5
Info: PATCH DIMENSION        15.5
Info: ENERGY OUTPUT STEPS    100000
Info: ENERGY EVALUATION STEPS    100000
Info: OUTPUT ENERGY PRECISION 4
Info: CROSSTERM ENERGY INCLUDED IN DIHEDRAL
Info: TIMING OUTPUT STEPS    1000000
Info: PRESSURE OUTPUT STEPS  100000
Info: ALCHEMICAL FEP ON
Info: FEP CURRENT LAMBDA VALUE     1
Info: FEP COMPARISON LAMBDA VALUE  0.95
Info: FEP INTRA-ALCHEMICAL NON-BONDED INTERACTIONS WILL BE RETAINED
Info: FEP INTRA-ALCHEMICAL BONDED INTERACTIONS WILL BE RETAINED
Info: FEP VDW SHIFTING COEFFICIENT 5
Info: FEP ELEC. ACTIVE FOR ANNIHILATED PARTICLES BETWEEN LAMBDA = 0 AND LAMBDA = 0.5
Info: FEP ELEC. ACTIVE FOR EXNIHILATED PARTICLES BETWEEN LAMBDA = 0.5 AND LAMBDA = 1
Info: FEP VDW ACTIVE FOR ANNIHILATED PARTICLES BETWEEN LAMBDA = 0 AND LAMBDA = 1
Info: FEP VDW ACTIVE FOR EXNIHILATED PARTICLES BETWEEN LAMBDA = 0 AND LAMBDA = 1
Info: FEP BOND ACTIVE FOR ANNIHILATED PARTICLES BETWEEN LAMBDA = 1 AND LAMBDA = 1
Info: FEP BOND ACTIVE FOR EXNIHILATED PARTICLES BETWEEN LAMBDA = 0 AND LAMBDA = 0
Info: LANGEVIN DYNAMICS ACTIVE
Info: LANGEVIN TEMPERATURE   300
Info: LANGEVIN USING BBK INTEGRATOR
Info: LANGEVIN DAMPING COEFFICIENT IS 1 INVERSE PS
Info: LANGEVIN DYNAMICS APPLIED TO HYDROGENS
Info: LANGEVIN PISTON PRESSURE CONTROL ACTIVE
Info:        TARGET PRESSURE IS 1.01325 BAR
Info:     OSCILLATION PERIOD IS 50 FS
Info:             DECAY TIME IS 25 FS
Info:     PISTON TEMPERATURE IS 300 K
Info:       PRESSURE CONTROL IS GROUP-BASED
Info:    INITIAL STRAIN RATE IS -4.29677e-05 -4.29677e-05 -4.29677e-05
Info:       CELL FLUCTUATION IS ISOTROPIC
Info: PARTICLE MESH EWALD (PME) ACTIVE
Info: PME TOLERANCE               1e-06
Info: PME EWALD COEFFICIENT       0.348832
Info: PME INTERPOLATION ORDER     4
Info: PME GRID DIMENSIONS         32 32 36
Info: PME MAXIMUM GRID SPACING    1
Info: PME CALCULATION WILL BE PERFORMED ON GPU
Info: FULL ELECTROSTATIC EVALUATION FREQUENCY      2
Info: USING VERLET I (r-RESPA) MTS SCHEME.
Info: C1 SPLITTING OF LONG RANGE ELECTROSTATICS
Info: PLACING ATOMS IN PATCHES BY HYDROGEN GROUPS
Info: RIGID BONDS TO HYDROGEN : ALL
Info:         ERROR TOLERANCE : 1e-08
Info:          MAX ITERATIONS : 100
Info: RIGID WATER USING SETTLE ALGORITHM
Info: RANDOM NUMBER SEED     1743874598
Info: USE HYDROGEN BONDS?    NO
Info: Using AMBER format force field!
Info: AMBER PARM FILE        mobley_632905.prmtop
Info: COORDINATE PDB         mobley_632905.pdb
Info: Exclusions will be read from PARM file!
Info: SCNB (VDW SCALING)     2
Info: USING ARITHMETIC MEAN TO COMBINE L-J SIGMA PARAMETERS
Info: BINARY COORDINATES     mobley_632905_equil.coor
Info: SUMMARY OF PARAMETERS:
Info: 11 BONDS
Info: 12 ANGLES
Info:   12 HARMONIC
Info:   0 COSINE-BASED
Info: 10 DIHEDRAL
Info: 0 IMPROPER
Info: 0 CROSSTERM
Info: 0 VDW
Info: 45 VDW_PAIRS
Info: 0 NBTHOLE_PAIRS
Info: To read alchdata from file: mobley_632905.pdb
Info: To read alchflag data from column: 5
Info: STRUCTURE SUMMARY:
Info: 2985 ATOMS
Info: 2985 BONDS
Info: 34 ANGLES
Info: 52 DIHEDRALS
Info: 0 IMPROPERS
Info: 0 CROSSTERMS
Info: 3055 EXCLUSIONS
Info: 2974 RIGID BONDS
Info: ALCH: 0 ATOMS TO DISAPPEAR IN FINAL STATE
Info: ALCH: 21 ATOMS TO APPEAR IN FINAL STATE
Info: 5981 DEGREES OF FREEDOM
Info: 999 HYDROGEN GROUPS
Info: 4 ATOMS IN LARGEST HYDROGEN GROUP
Info: 999 MIGRATION GROUPS
Info: 4 ATOMS IN LARGEST MIGRATION GROUP
Info: TOTAL MASS = 17950 amu
Info: TOTAL CHARGE = -0.000200022 e
Info: MASS DENSITY = 0.976482 g/cm^3
Info: ATOM DENSITY = 0.0977879 atoms/A^3
Info: ADDED 0 IMPLICIT EXCLUSIONS
Info: NONBONDED TABLE R-SQUARED SPACING: 0.0625
Info: NONBONDED TABLE SIZE: 705 POINTS
Info: REMOVING COM VELOCITY 0.123584 -0.0431669 -0.127702
Info: Use 3D box decompostion in PME FFT.
Info: Updated CUDA force table with 4096 elements.
Info: Updated CUDA LJ table with 9 x 9 elements.
Info: Found 23 unique exclusion lists needing 60 bytes
TCL: Running for 1500000 steps
ETITLE: TS BOND ANGLE DIHED IMPRP ELECT VDW BOUNDARY MISC KINETIC TOTAL TEMP POTENTIAL TOTALAVG TEMPAVG PRESSURE GPRESSURE VOLUME PRESSAVG GPRESSAVG
ENERGY: 0 2.6724 10.8925 14.8051 0.0000 -10838.4202 1429.1381 0.0000 0.0000 1796.0578 -7584.8544 302.2295 -9380.9122 -7584.8544 302.2295 -259.8182 -164.9975 30525.2370 -259.8182 -164.9975
ENERGY: 300000 4.8616 6.2404 5.5161 0.0000 -10832.8166 1503.1913 0.0000 0.0000 1755.5941 -7557.4131 295.4205 -9313.0072 -7602.3198 297.1033 434.9378 489.7612 30722.7023 -158.2441 -96.0971
ENERGY: 600000 3.2040 3.5488 8.8759 0.0000 -10734.7402 1380.6707 0.0000 0.0000 1801.8273 -7536.6135 303.2004 -9338.4408 -7578.9773 297.7472 -567.2403 -453.5764 31049.4500 -240.5669 -173.3779
ENERGY: 900000 2.7056 6.2240 9.7653 0.0000 -10752.3336 1377.8858 0.0000 0.0000 1790.6612 -7565.0918 301.3214 -9355.7529 -7588.5650 298.7413 -517.5217 -517.0951 30671.8892 -188.6881 -128.3418
ENERGY: 1200000 1.5978 5.8113 9.0155 0.0000 -10920.9125 1568.6805 0.0000 0.0000 1803.4745 -7532.3330 303.4776 -9335.8075 -7577.7066 299.2603 1063.8017 1142.8056 30778.4410 -89.1737 -30.8851
ENERGY: 1500000 3.7357 9.0385 6.9550 0.0000 -10662.3370 1340.1669 0.0000 0.0000 1800.5216 -7501.9193 302.9807 -9302.4409 -7571.7087 299.9239 -648.7526 -548.5196 30771.6925 -88.3342 -28.1302
TCL: Running FEP window   2: Lambda1 0.95   Lambda2 0.8999999999999999 [dLambda -0.050000000000000044]
TCL: Setting parameter firsttimestep to 0
TCL: Setting parameter alchLambda to 0.95
Info: NONBONDED TABLE R-SQUARED SPACING: 0.0625
Info: NONBONDED TABLE SIZE: 705 POINTS
TCL: Setting parameter alchLambda2 to 0.8999999999999999
Info: NONBONDED TABLE R-SQUARED SPACING: 0.0625
Info: NONBONDED TABLE SIZE: 705 POINTS
TCL: Running for 1500000 steps
ETITLE: TS BOND ANGLE DIHED IMPRP ELECT VDW BOUNDARY MISC KINETIC TOTAL TEMP POTENTIAL TOTALAVG TEMPAVG PRESSURE GPRESSURE VOLUME PRESSAVG GPRESSAVG
ENERGY: 0 3.7357 9.0385 6.9550 0.0000 -10660.2627 1339.3956 0.0000 0.0000 1799.6483 -7501.4897 302.8337 -9301.1380 -7501.4897 302.8337 -670.4058 -572.7574 30771.6925 -670.4058 -572.7574
ENERGY: 300000 3.6468 6.4388 5.5264 0.0000 -10941.1207 1493.8507 0.0000 0.0000 1800.7945 -7630.8635 303.0266 -9431.6580 -7581.9354 300.2503 240.1853 255.7165 30765.3312 -161.3988 -92.9150
ENERGY: 600000 2.3688 7.4077 5.3912 0.0000 -10851.5924 1466.8708 0.0000 0.0000 1777.5382 -7592.0157 299.1132 -9369.5540 -7592.7449 301.3268 379.3812 426.7530 30225.7818 -226.5558 -156.7912
ENERGY: 900000 6.9862 8.9546 8.3342 0.0000 -10792.2704 1480.2382 0.0000 0.0000 1758.2129 -7529.5443 295.8612 -9287.7572 -7569.5591 299.9685 536.9073 546.5762 30454.2545 -132.0069 -73.7757
ENERGY: 1200000 2.0098 7.9484 8.3687 0.0000 -10812.5178 1411.7729 0.0000 0.0000 1761.4112 -7621.0068 296.3994 -9382.4180 -7573.8033 299.5241 -404.5675 -308.9078 30571.3818 -89.7804 -23.6828
ENERGY: 1500000 2.1180 4.6525 9.2024 0.0000 -10697.1535 1414.3230 0.0000 0.0000 1753.4948 -7513.3628 295.0673 -9266.8576 -7566.8599 300.0109 24.9098 117.4450 30631.9305 -110.9322 -48.9951
TCL: Running FEP window   3: Lambda1 0.8999999999999999 Lambda2 0.8499999999999999 [dLambda -0.050000000000000044]
TCL: Setting parameter firsttimestep to 0
TCL: Setting parameter alchLambda to 0.8999999999999999
Info: NONBONDED TABLE R-SQUARED SPACING: 0.0625
Info: NONBONDED TABLE SIZE: 705 POINTS
TCL: Setting parameter alchLambda2 to 0.8499999999999999
Info: NONBONDED TABLE R-SQUARED SPACING: 0.0625
Info: NONBONDED TABLE SIZE: 705 POINTS
TCL: Running for 1500000 steps
ETITLE: TS BOND ANGLE DIHED IMPRP ELECT VDW BOUNDARY MISC KINETIC TOTAL TEMP POTENTIAL TOTALAVG TEMPAVG PRESSURE GPRESSURE VOLUME PRESSAVG GPRESSAVG
ENERGY: 0 2.1180 4.6525 9.2024 0.0000 -10695.1173 1413.9338 0.0000 0.0000 1752.6019 -7512.6087 294.9170 -9265.2107 -7512.6087 294.9170 4.2638 100.4416 30631.9305 4.2638 100.4416
ENERGY: 300000 2.0759 7.2894 7.0814 0.0000 -10822.0982 1465.6587 0.0000 0.0000 1787.8856 -7552.1073 300.8544 -9339.9929 -7555.1154 297.8315 99.8006 161.7664 31019.2555 112.6411 195.5271
ENERGY: 600000 4.0517 9.2533 4.3081 0.0000 -10836.2457 1457.9237 0.0000 0.0000 1736.6750 -7624.0339 292.2370 -9360.7089 -7559.0324 298.4338 19.8279 43.4913 30919.8011 -157.0232 -82.0112
ENERGY: 900000 5.4190 7.3805 7.9042 0.0000 -10735.1326 1388.7929 0.0000 0.0000 1791.9111 -7533.7250 301.5317 -9325.6360 -7564.3032 298.4050 -573.2928 -487.1874 30778.9400 -153.9673 -72.9039
ENERGY: 1200000 5.9341 3.7906 8.3749 0.0000 -10741.2234 1415.3541 0.0000 0.0000 1753.3115 -7554.4582 295.0364 -9307.7697 -7552.8903 299.3679 -259.9662 -249.1251 31005.5175 -236.1070 -163.3021
ENERGY: 1500000 5.5694 9.1024 7.1784 0.0000 -10821.5599 1425.0631 0.0000 0.0000 1759.5655 -7615.0812 296.0888 -9374.6467 -7557.7532 298.8777 -160.8605 -99.5600 30439.5755 -225.9707 -156.5203
TCL: Running FEP window   4: Lambda1 0.8499999999999999 Lambda2 0.7999999999999998 [dLambda -0.050000000000000044]
TCL: Setting parameter firsttimestep to 0
TCL: Setting parameter alchLambda to 0.8499999999999999
Info: NONBONDED TABLE R-SQUARED SPACING: 0.0625
Info: NONBONDED TABLE SIZE: 705 POINTS
TCL: Setting parameter alchLambda2 to 0.7999999999999998
Info: NONBONDED TABLE R-SQUARED SPACING: 0.0625
Info: NONBONDED TABLE SIZE: 705 POINTS
TCL: Running for 1500000 steps
ETITLE: TS BOND ANGLE DIHED IMPRP ELECT VDW BOUNDARY MISC KINETIC TOTAL TEMP POTENTIAL TOTALAVG TEMPAVG PRESSURE GPRESSURE VOLUME PRESSAVG GPRESSAVG
ENERGY: 0 5.5694 9.1024 7.1784 0.0000 -10819.9048 1425.4447 0.0000 0.0000 1758.6763 -7613.9337 295.9392 -9372.6100 -7613.9337 295.9392 -197.9427 -107.3572 30439.5755 -197.9427 -107.3572
ENERGY: 300000 2.8181 6.4965 5.0930 0.0000 -10821.6820 1460.6552 0.0000 0.0000 1756.3599 -7590.2593 295.5494 -9346.6192 -7580.3686 297.8180 -38.8302 54.4328 31001.0852 51.2793 131.9836
ENERGY: 600000 5.2886 5.8508 10.8920 0.0000 -10805.6229 1400.2339 0.0000 0.0000 1784.2454 -7599.1122 300.2418 -9383.3576 -7586.9241 298.9615 -368.8105 -335.6637 30447.2578 -63.5690 9.0621
ENERGY: 900000 5.6458 6.0269 5.7288 0.0000 -10904.8895 1514.5502 0.0000 0.0000 1808.0543 -7564.8836 304.2482 -9372.9379 -7568.9084 301.1934 704.7121 777.3634 30512.8602 112.9887 188.7614
ENERGY: 1200000 3.2517 7.6731 4.5274 0.0000 -10808.7475 1428.2164 0.0000 0.0000 1794.8376 -7570.2412 302.0242 -9365.0788 -7561.7480 302.2907 -160.5044 -68.6925 30794.7460 216.8969 295.3243
ENERGY: 1500000 4.1375 7.3784 8.9111 0.0000 -10846.0112 1506.7833 0.0000 0.0000 1795.9067 -7522.8942 302.2041 -9318.8008 -7557.3325 302.5075 498.0918 558.7852 30545.5112 184.2474 261.4370
TCL: Running FEP window   5: Lambda1 0.7999999999999998 Lambda2 0.7499999999999998 [dLambda -0.050000000000000044]
TCL: Setting parameter firsttimestep to 0
TCL: Setting parameter alchLambda to 0.7999999999999998
Info: NONBONDED TABLE R-SQUARED SPACING: 0.0625
Info: NONBONDED TABLE SIZE: 705 POINTS
TCL: Setting parameter alchLambda2 to 0.7499999999999998
Info: NONBONDED TABLE R-SQUARED SPACING: 0.0625
Info: NONBONDED TABLE SIZE: 705 POINTS
TCL: Running for 1500000 steps
ETITLE: TS BOND ANGLE DIHED IMPRP ELECT VDW BOUNDARY MISC KINETIC TOTAL TEMP POTENTIAL TOTALAVG TEMPAVG PRESSURE GPRESSURE VOLUME PRESSAVG GPRESSAVG
ENERGY: 0 4.1375 7.3784 8.9111 0.0000 -10843.5608 1504.8693 0.0000 0.0000 1795.0164 -7523.2480 302.0543 -9318.2645 -7523.2480 302.0543 455.0660 526.5581 30545.5112 455.0660 526.5581
ENERGY: 300000 7.4235 9.8614 4.8788 0.0000 -10949.9665 1557.9245 0.0000 0.0000 1838.7274 -7531.1510 309.4097 -9369.8784 -7544.4322 305.0280 1108.2808 1215.8828 30024.3159 549.2277 603.5887
ENERGY: 600000 6.2664 12.2168 5.7556 0.0000 -10701.8161 1378.8984 0.0000 0.0000 1758.6563 -7540.0227 295.9358 -9298.6790 -7544.3977 302.9632 -268.1468 -244.4383 30627.9073 215.1314 254.9863
ENERGY: 900000 3.2253 9.3399 8.0136 0.0000 -10899.1512 1495.3404 0.0000 0.0000 1820.8562 -7562.3758 306.4024 -9383.2320 -7554.0593 302.7491 458.9877 513.2072 30217.2828 153.8398 190.5628
ENERGY: 1200000 3.2569 7.6807 6.4127 0.0000 -10805.5700 1422.5605 0.0000 0.0000 1751.7125 -7613.9467 294.7674 -9365.6592 -7566.5612 301.2466 -277.3056 -192.0595 30642.4571 -10.9063 35.3030
ENERGY: 1500000 1.7724 6.2474 9.9327 0.0000 -11052.0932 1619.2891 0.0000 0.0000 1771.4999 -7643.3516 298.0971 -9414.8515 -7570.6339 301.1269 1081.1160 1127.4387 30316.7453 80.8887 125.5333
TCL: Running FEP window   6: Lambda1 0.7499999999999998 Lambda2 0.6999999999999997 [dLambda -0.050000000000000044]
TCL: Setting parameter firsttimestep to 0
TCL: Setting parameter alchLambda to 0.7499999999999998
Info: NONBONDED TABLE R-SQUARED SPACING: 0.0625
Info: NONBONDED TABLE SIZE: 705 POINTS
TCL: Setting parameter alchLambda2 to 0.6999999999999997
Info: NONBONDED TABLE R-SQUARED SPACING: 0.0625
Info: NONBONDED TABLE SIZE: 705 POINTS
TCL: Running for 1500000 steps
ETITLE: TS BOND ANGLE DIHED IMPRP ELECT VDW BOUNDARY MISC KINETIC TOTAL TEMP POTENTIAL TOTALAVG TEMPAVG PRESSURE GPRESSURE VOLUME PRESSAVG GPRESSAVG
ENERGY: 0 1.7724 6.2474 9.9327 0.0000 -11050.1955 1619.4228 0.0000 0.0000 1770.5542 -7642.2658 297.9379 -9412.8201 -7642.2658 297.9379 1053.2614 1118.6360 30316.7453 1053.2614 1118.6360
ENERGY: 300000 5.0279 6.6334 6.9101 0.0000 -10689.0792 1390.3101 0.0000 0.0000 1776.4481 -7503.7497 298.9297 -9280.1978 -7591.8357 297.5275 -235.0429 -167.0917 30680.7104 506.6107 585.0979
ENERGY: 600000 2.8224 7.7913 4.9762 0.0000 -10877.3922 1489.3030 0.0000 0.0000 1831.0367 -7541.4626 308.1156 -9372.4993 -7564.2843 300.5177 534.1068 608.3102 30293.2095 391.2734 455.9969
ENERGY: 900000 3.4903 7.2387 15.0992 0.0000 -10761.1819 1411.2148 0.0000 0.0000 1784.4455 -7539.6933 300.2755 -9324.1389 -7544.0816 301.9880 -427.0781 -381.9500 31078.8802 283.1110 345.0715
ENERGY: 1200000 5.3120 6.9928 6.6132 0.0000 -10641.7619 1299.4543 0.0000 0.0000 1851.3404 -7472.0492 311.5321 -9323.3896 -7544.4708 302.0029 -1077.1424 -1057.4516 30546.1406 190.1442 253.4090
ENERGY: 1500000 5.4738 9.8290 10.2736 0.0000 -10854.8646 1506.4839 0.0000 0.0000 1799.7684 -7523.0359 302.8539 -9322.8043 -7543.7123 301.5988 457.1407 443.1569 30754.8929 186.6916 239.0699
TCL: Running FEP window   7: Lambda1 0.6999999999999997 Lambda2 0.6499999999999997 [dLambda -0.050000000000000044]
TCL: Setting parameter firsttimestep to 0
TCL: Setting parameter alchLambda to 0.6999999999999997
Info: NONBONDED TABLE R-SQUARED SPACING: 0.0625
Info: NONBONDED TABLE SIZE: 705 POINTS
TCL: Setting parameter alchLambda2 to 0.6499999999999997
Info: NONBONDED TABLE R-SQUARED SPACING: 0.0625
Info: NONBONDED TABLE SIZE: 705 POINTS
TCL: Running for 1500000 steps
ETITLE: TS BOND ANGLE DIHED IMPRP ELECT VDW BOUNDARY MISC KINETIC TOTAL TEMP POTENTIAL TOTALAVG TEMPAVG PRESSURE GPRESSURE VOLUME PRESSAVG GPRESSAVG
ENERGY: 0 5.4738 9.8290 10.2736 0.0000 -10854.3286 1507.1590 0.0000 0.0000 1798.8820 -7522.7112 302.7048 -9321.5933 -7522.7112 302.7048 370.3683 440.6139 30754.8929 370.3683 440.6139
ENERGY: 300000 4.2179 7.6801 5.8745 0.0000 -10852.0564 1492.0642 0.0000 0.0000 1780.0833 -7562.1363 299.5414 -9342.2197 -7555.3960 300.2257 235.2728 308.5147 30724.4055 8.7200 64.3635
ENERGY: 600000 2.6309 6.1323 4.7250 0.0000 -10819.5775 1454.3809 0.0000 0.0000 1745.3761 -7606.3324 293.7011 -9351.7085 -7545.9046 300.1910 -226.0825 -47.0030 30871.9221 -183.9751 -122.2695
ENERGY: 900000 3.8298 7.7090 7.7807 0.0000 -10843.2908 1480.9338 0.0000 0.0000 1845.1154 -7497.9220 310.4846 -9343.0374 -7544.0420 301.3908 679.1729 770.6088 30048.1429 -11.3155 44.5259
ENERGY: 1200000 6.3207 7.8647 6.6003 0.0000 -10885.9044 1520.9286 0.0000 0.0000 1803.4619 -7540.7283 303.4754 -9344.1902 -7540.9372 301.2543 510.6357 497.1742 30631.3797 -68.8910 -13.1998
ENERGY: 1500000 4.8846 8.9889 8.0781 0.0000 -10736.0129 1411.9955 0.0000 0.0000 1806.4026 -7495.6632 303.9703 -9302.0658 -7541.4857 301.4374 -127.2932 -109.7997 30945.1090 -25.8345 31.5385
TCL: Running FEP window   8: Lambda1 0.6499999999999997 Lambda2 0.5999999999999996 [dLambda -0.050000000000000044]
TCL: Setting parameter firsttimestep to 0
TCL: Setting parameter alchLambda to 0.6499999999999997
Info: NONBONDED TABLE R-SQUARED SPACING: 0.0625
Info: NONBONDED TABLE SIZE: 705 POINTS
TCL: Setting parameter alchLambda2 to 0.5999999999999996
Info: NONBONDED TABLE R-SQUARED SPACING: 0.0625
Info: NONBONDED TABLE SIZE: 705 POINTS
TCL: Running for 1500000 steps
ETITLE: TS BOND ANGLE DIHED IMPRP ELECT VDW BOUNDARY MISC KINETIC TOTAL TEMP POTENTIAL TOTALAVG TEMPAVG PRESSURE GPRESSURE VOLUME PRESSAVG GPRESSAVG
ENERGY: 0 4.8846 8.9889 8.0781 0.0000 -10734.7391 1411.7962 0.0000 0.0000 1805.5139 -7495.4774 303.8207 -9300.9913 -7495.4774 303.8207 -194.5172 -120.7439 30945.1090 -194.5172 -120.7439
ENERGY: 300000 2.8623 6.1625 7.1282 0.0000 -10569.4541 1337.0138 0.0000 0.0000 1764.1335 -7452.1538 296.8575 -9216.2873 -7505.5516 299.6080 -440.0405 -389.5341 30763.3098 -79.3942 -27.7763
ENERGY: 600000 2.8483 9.5767 6.6991 0.0000 -10953.7492 1541.7190 0.0000 0.0000 1746.2616 -7646.6445 293.8501 -9392.9061 -7541.3960 299.4890 883.4118 908.6604 30136.2600 54.0231 101.0295
ENERGY: 900000 3.7325 7.5999 8.1360 0.0000 -10845.1569 1475.4605 0.0000 0.0000 1759.3846 -7590.8435 296.0584 -9350.2281 -7539.1836 299.0794 93.1416 234.3867 30754.9130 3.5576 56.5838
ENERGY: 1200000 3.0283 8.5679 7.9279 0.0000 -10750.6002 1420.2303 0.0000 0.0000 1797.6417 -7513.2041 302.4961 -9310.8458 -7543.1665 298.6882 -223.3155 -114.9450 30865.4027 20.1755 72.6108
ENERGY: 1500000 4.4257 5.0824 6.5098 0.0000 -10842.7783 1474.5360 0.0000 0.0000 1806.4372 -7545.7871 303.9761 -9352.2243 -7548.9986 298.6253 111.7404 139.4209 30555.8031 21.6675 78.1954
TCL: Running FEP window   9: Lambda1 0.5999999999999996 Lambda2 0.5499999999999996 [dLambda -0.050000000000000044]
TCL: Setting parameter firsttimestep to 0
TCL: Setting parameter alchLambda to 0.5999999999999996
Info: NONBONDED TABLE R-SQUARED SPACING: 0.0625
Info: NONBONDED TABLE SIZE: 705 POINTS
TCL: Setting parameter alchLambda2 to 0.5499999999999996
Info: NONBONDED TABLE R-SQUARED SPACING: 0.0625
Info: NONBONDED TABLE SIZE: 705 POINTS
TCL: Running for 1500000 steps
ETITLE: TS BOND ANGLE DIHED IMPRP ELECT VDW BOUNDARY MISC KINETIC TOTAL TEMP POTENTIAL TOTALAVG TEMPAVG PRESSURE GPRESSURE VOLUME PRESSAVG GPRESSAVG
ENERGY: 0 4.4257 5.0824 6.5098 0.0000 -10841.2877 1473.9071 0.0000 0.0000 1805.5599 -7545.8027 303.8285 -9351.3627 -7545.8027 303.8285 49.7774 125.0480 30555.8031 49.7774 125.0480
ENERGY: 300000 1.3940 7.5888 9.4996 0.0000 -10733.1028 1402.3367 0.0000 0.0000 1796.9264 -7515.3575 302.3757 -9312.2838 -7572.5962 300.9946 -360.9532 -282.5347 30882.6627 438.2905 504.7671
ENERGY: 600000 1.9538 6.0444 5.8867 0.0000 -10819.1385 1455.0308 0.0000 0.0000 1783.7949 -7566.4279 300.1660 -9350.2228 -7551.2128 301.1559 -151.1034 -86.4202 30959.8860 316.9774 378.2369
ENERGY: 900000 4.4720 5.5034 8.9605 0.0000 -10701.2662 1395.8763 0.0000 0.0000 1752.2881 -7534.1660 294.8642 -9286.4541 -7551.2022 300.6295 -371.1016 -350.6637 30927.5508 84.4616 146.3942
ENERGY: 1200000 4.0587 7.9567 9.0553 0.0000 -10824.1876 1445.7856 0.0000 0.0000 1796.9972 -7560.3340 302.3876 -9357.3313 -7552.9972 300.1096 26.5279 65.0175 30453.4145 49.6881 115.6261
ENERGY: 1500000 2.0277 5.5825 11.5254 0.0000 -10736.4827 1375.8077 0.0000 0.0000 1783.6528 -7557.8865 300.1421 -9341.5394 -7549.8440 300.0025 -599.6176 -507.7396 30597.3745 16.0905 83.6044
TCL: Running FEP window  10: Lambda1 0.5499999999999996 Lambda2 0.4999999999999996 [dLambda -0.04999999999999999]
TCL: Setting parameter firsttimestep to 0
TCL: Setting parameter alchLambda to 0.5499999999999996
Info: NONBONDED TABLE R-SQUARED SPACING: 0.0625
Info: NONBONDED TABLE SIZE: 705 POINTS
TCL: Setting parameter alchLambda2 to 0.4999999999999996
Info: NONBONDED TABLE R-SQUARED SPACING: 0.0625
Info: NONBONDED TABLE SIZE: 705 POINTS
TCL: Running for 1500000 steps
ETITLE: TS BOND ANGLE DIHED IMPRP ELECT VDW BOUNDARY MISC KINETIC TOTAL TEMP POTENTIAL TOTALAVG TEMPAVG PRESSURE GPRESSURE VOLUME PRESSAVG GPRESSAVG
ENERGY: 0 2.0277 5.5825 11.5254 0.0000 -10734.8987 1375.7511 0.0000 0.0000 1782.7778 -7557.2341 299.9949 -9340.0119 -7557.2341 299.9949 -593.3561 -515.3076 30597.3745 -593.3561 -515.3076
ENERGY: 300000 3.4001 7.4780 7.0971 0.0000 -10819.1434 1476.1750 0.0000 0.0000 1752.8251 -7572.1680 294.9546 -9324.9931 -7577.5455 294.7756 -39.1485 40.7881 30897.9040 -72.9258 -10.7954
ENERGY: 600000 3.8686 8.7362 10.9323 0.0000 -10784.8538 1414.4231 0.0000 0.0000 1753.7921 -7593.1014 295.1173 -9346.8935 -7573.8929 296.6809 -431.2970 -384.7936 30780.5295 -191.5129 -131.8818
ENERGY: 900000 2.9169 8.0609 9.8245 0.0000 -10772.5983 1454.1511 0.0000 0.0000 1786.9813 -7510.6635 300.7022 -9297.6448 -7570.3976 297.1671 224.4782 290.1519 30621.9148 -140.6841 -85.9367
ENERGY: 1200000 9.5450 6.4819 9.8323 0.0000 -10775.3793 1426.6715 0.0000 0.0000 1789.8802 -7532.9685 301.1900 -9322.8487 -7568.6568 297.4214 -300.2359 -183.7273 30642.9499 -64.8680 -1.4694
ENERGY: 1500000 4.9627 8.0184 7.4938 0.0000 -10828.1345 1424.4009 0.0000 0.0000 1809.9416 -7573.3172 304.5658 -9383.2588 -7563.0393 298.6192 -417.5022 -325.5727 30943.9989 -63.0718 7.6959
TCL: Running FEP window  11: Lambda1 0.4999999999999996 Lambda2 0.4499999999999996 [dLambda -0.04999999999999999]
TCL: Setting parameter firsttimestep to 0
TCL: Setting parameter alchLambda to 0.4999999999999996
Info: NONBONDED TABLE R-SQUARED SPACING: 0.0625
Info: NONBONDED TABLE SIZE: 705 POINTS
TCL: Setting parameter alchLambda2 to 0.4499999999999996
Info: NONBONDED TABLE R-SQUARED SPACING: 0.0625
Info: NONBONDED TABLE SIZE: 705 POINTS
TCL: Running for 1500000 steps
ETITLE: TS BOND ANGLE DIHED IMPRP ELECT VDW BOUNDARY MISC KINETIC TOTAL TEMP POTENTIAL TOTALAVG TEMPAVG PRESSURE GPRESSURE VOLUME PRESSAVG GPRESSAVG
ENERGY: 0 4.9627 8.0184 7.4938 0.0000 -10827.9245 1424.8511 0.0000 0.0000 1809.0528 -7573.5458 304.4162 -9382.5986 -7573.5458 304.4162 -406.6571 -328.4464 30943.9989 -406.6571 -328.4464
ENERGY: 300000 4.0079 7.9617 9.3822 0.0000 -10878.3162 1512.4587 0.0000 0.0000 1804.6957 -7539.8099 303.6831 -9344.5057 -7525.7890 303.3056 178.5916 224.0137 31148.5993 -36.7128 30.7004
ENERGY: 600000 4.1445 10.1470 6.3060 0.0000 -10841.3790 1468.5131 0.0000 0.0000 1730.9078 -7621.3606 291.2665 -9352.2684 -7544.2085 299.7569 175.8638 239.9314 30371.7790 28.7844 103.3598
ENERGY: 900000 5.4560 5.1799 8.7453 0.0000 -10745.5942 1362.6084 0.0000 0.0000 1850.6663 -7512.9382 311.4187 -9363.6045 -7537.2679 301.9731 -655.8266 -593.3083 30593.4425 -97.0707 -25.5385
ENERGY: 1200000 1.6611 7.7266 5.3994 0.0000 -10736.2769 1444.0535 0.0000 0.0000 1789.8571 -7487.5791 301.1861 -9277.4362 -7535.1074 301.8940 -52.4021 18.7940 31003.5069 -92.7773 -16.2624
ENERGY: 1500000 2.4238 6.3915 7.0565 0.0000 -10742.2398 1394.9727 0.0000 0.0000 1725.7234 -7605.6718 290.3941 -9331.3952 -7543.3689 301.3631 -169.7008 -103.2529 30309.2525 -123.4052 -49.0495
TCL: Running FEP window  12: Lambda1 0.4499999999999996 Lambda2 0.39999999999999963 [dLambda -0.04999999999999999]
TCL: Setting parameter firsttimestep to 0
TCL: Setting parameter alchLambda to 0.4499999999999996
Info: NONBONDED TABLE R-SQUARED SPACING: 0.0625
Info: NONBONDED TABLE SIZE: 705 POINTS
TCL: Setting parameter alchLambda2 to 0.39999999999999963
Info: NONBONDED TABLE R-SQUARED SPACING: 0.0625
Info: NONBONDED TABLE SIZE: 705 POINTS
TCL: Running for 1500000 steps
ETITLE: TS BOND ANGLE DIHED IMPRP ELECT VDW BOUNDARY MISC KINETIC TOTAL TEMP POTENTIAL TOTALAVG TEMPAVG PRESSURE GPRESSURE VOLUME PRESSAVG GPRESSAVG
ENERGY: 0 2.4238 6.3915 7.0565 0.0000 -10742.2385 1395.6453 0.0000 0.0000 1724.8337 -7605.8876 290.2444 -9330.7213 -7605.8876 290.2444 -194.7244 -107.2874 30309.2525 -194.7244 -107.2874
ENERGY: 300000 2.7288 7.1795 8.4196 0.0000 -10884.3271 1538.3149 0.0000 0.0000 1746.9764 -7580.7079 293.9704 -9327.6843 -7615.9521 291.9422 456.9770 518.9503 30687.8857 353.4951 401.8433
ENERGY: 600000 4.1056 7.3219 6.3589 0.0000 -10699.2592 1392.4835 0.0000 0.0000 1821.5007 -7467.4886 306.5109 -9288.9893 -7559.9430 296.2579 -391.8222 -335.7917 30791.3200 -30.3560 19.8615
ENERGY: 900000 4.5882 8.2760 4.5071 0.0000 -10884.7515 1500.2934 0.0000 0.0000 1781.8249 -7585.2619 299.8345 -9367.0868 -7549.7401 298.2610 578.1692 563.0953 30226.4955 115.1194 164.3815
ENERGY: 1200000 1.8290 6.0984 8.7431 0.0000 -10867.4462 1494.7699 0.0000 0.0000 1738.0596 -7617.9461 292.4699 -9356.0057 -7560.3160 297.6331 29.3020 130.4892 30639.5265 40.5458 96.0123
ENERGY: 1500000 3.1529 5.5466 10.3686 0.0000 -10652.9799 1398.2633 0.0000 0.0000 1850.9283 -7384.7201 311.4628 -9235.6485 -7544.5229 298.6636 -217.0034 -159.3630 31006.9276 21.0140 72.8983
TCL: Running FEP window  13: Lambda1 0.39999999999999963 Lambda2 0.34999999999999964 [dLambda -0.04999999999999999]
TCL: Setting parameter firsttimestep to 0
TCL: Setting parameter alchLambda to 0.39999999999999963
Info: NONBONDED TABLE R-SQUARED SPACING: 0.0625
Info: NONBONDED TABLE SIZE: 705 POINTS
TCL: Setting parameter alchLambda2 to 0.34999999999999964
Info: NONBONDED TABLE R-SQUARED SPACING: 0.0625
Info: NONBONDED TABLE SIZE: 705 POINTS
TCL: Running for 1500000 steps
ETITLE: TS BOND ANGLE DIHED IMPRP ELECT VDW BOUNDARY MISC KINETIC TOTAL TEMP POTENTIAL TOTALAVG TEMPAVG PRESSURE GPRESSURE VOLUME PRESSAVG GPRESSAVG
ENERGY: 0 3.1529 5.5466 10.3686 0.0000 -10652.9801 1398.7448 0.0000 0.0000 1850.0816 -7385.0855 311.3203 -9235.1671 -7385.0855 311.3203 -254.3197 -163.9144 31006.9276 -254.3197 -163.9144
ENERGY: 300000 0.9555 6.9051 8.7172 0.0000 -10794.7766 1391.2950 0.0000 0.0000 1766.2845 -7620.6193 297.2195 -9386.9038 -7516.9241 305.2435 -372.3727 -389.4819 30205.0933 -213.1240 -196.8376
ENERGY: 600000 2.1937 5.9675 6.7654 0.0000 -10698.8860 1351.7956 0.0000 0.0000 1805.4379 -7526.7260 303.8080 -9332.1640 -7521.7790 306.3795 -736.0686 -683.3367 30704.3788 -251.6332 -214.1846
ENERGY: 900000 2.8006 6.4012 4.8388 0.0000 -11007.2735 1536.3069 0.0000 0.0000 1745.5771 -7711.3490 293.7349 -9456.9260 -7545.0602 303.7211 582.1385 637.9638 30021.2826 -200.8465 -157.4221
ENERGY: 1200000 3.4159 6.8090 10.1367 0.0000 -10739.8360 1376.0897 0.0000 0.0000 1801.2289 -7542.1558 303.0997 -9343.3848 -7541.8988 302.6631 -750.3395 -666.9617 30748.1879 -256.6204 -207.6476
ENERGY: 1500000 2.9074 9.3752 10.6819 0.0000 -10834.4238 1454.4578 0.0000 0.0000 1794.5808 -7562.4207 301.9810 -9357.0014 -7547.1552 301.8398 255.7701 339.8758 30077.7411 -191.5421 -140.1806
TCL: Running FEP window  14: Lambda1 0.34999999999999964 Lambda2 0.29999999999999966 [dLambda -0.04999999999999999]
TCL: Setting parameter firsttimestep to 0
TCL: Setting parameter alchLambda to 0.34999999999999964
Info: NONBONDED TABLE R-SQUARED SPACING: 0.0625
Info: NONBONDED TABLE SIZE: 705 POINTS
TCL: Setting parameter alchLambda2 to 0.29999999999999966
Info: NONBONDED TABLE R-SQUARED SPACING: 0.0625
Info: NONBONDED TABLE SIZE: 705 POINTS
TCL: Running for 1500000 steps
ETITLE: TS BOND ANGLE DIHED IMPRP ELECT VDW BOUNDARY MISC KINETIC TOTAL TEMP POTENTIAL TOTALAVG TEMPAVG PRESSURE GPRESSURE VOLUME PRESSAVG GPRESSAVG
ENERGY: 0 2.9074 9.3752 10.6819 0.0000 -10834.4242 1454.7269 0.0000 0.0000 1793.6962 -7563.0365 301.8321 -9356.7327 -7563.0365 301.8321 253.2939 337.2866 30077.7411 253.2939 337.2866
ENERGY: 300000 3.1722 7.0338 6.2836 0.0000 -10836.3127 1475.6967 0.0000 0.0000 1765.7910 -7578.3355 297.1364 -9344.1264 -7586.9039 297.5531 2.5685 74.9971 30715.8826 220.9929 278.6398
ENERGY: 600000 4.3476 11.8980 4.9202 0.0000 -10875.1116 1454.2582 0.0000 0.0000 1779.1081 -7620.5796 299.3773 -9399.6878 -7570.3654 297.7918 -356.5366 -346.8142 30661.0270 186.6917 238.8100
ENERGY: 900000 3.2268 7.7574 7.9465 0.0000 -10763.0933 1469.5420 0.0000 0.0000 1826.4475 -7448.1731 307.3433 -9274.6205 -7539.6514 300.1388 429.9458 547.6524 30399.5102 118.6781 176.2499
ENERGY: 1200000 4.9087 7.6111 9.3826 0.0000 -10711.1084 1387.7221 0.0000 0.0000 1819.5327 -7481.9511 306.1797 -9301.4838 -7538.4907 300.4103 -693.6139 -605.0945 31301.0355 -76.2772 -13.9019
ENERGY: 1500000 2.5897 6.1047 7.1768 0.0000 -10896.2758 1446.9351 0.0000 0.0000 1738.5309 -7694.9387 292.5492 -9433.4695 -7552.1749 299.8209 -404.4084 -384.0498 30560.9083 -82.8425 -22.5605
TCL: Running FEP window  15: Lambda1 0.29999999999999966 Lambda2 0.24999999999999967 [dLambda -0.04999999999999999]
TCL: Setting parameter firsttimestep to 0
TCL: Setting parameter alchLambda to 0.29999999999999966
Info: NONBONDED TABLE R-SQUARED SPACING: 0.0625
Info: NONBONDED TABLE SIZE: 705 POINTS
TCL: Setting parameter alchLambda2 to 0.24999999999999967
Info: NONBONDED TABLE R-SQUARED SPACING: 0.0625
Info: NONBONDED TABLE SIZE: 705 POINTS
TCL: Running for 1500000 steps
ETITLE: TS BOND ANGLE DIHED IMPRP ELECT VDW BOUNDARY MISC KINETIC TOTAL TEMP POTENTIAL TOTALAVG TEMPAVG PRESSURE GPRESSURE VOLUME PRESSAVG GPRESSAVG
ENERGY: 0 2.5897 6.1047 7.1768 0.0000 -10896.2756 1447.2402 0.0000 0.0000 1737.6668 -7695.4975 292.4038 -9433.1642 -7695.4975 292.4038 -455.0735 -386.8017 30560.9083 -455.0735 -386.8017
ENERGY: 300000 7.5838 5.0057 4.9036 0.0000 -10844.4050 1497.0186 0.0000 0.0000 1849.5222 -7480.3712 311.2262 -9329.8933 -7562.5846 302.1509 390.2699 489.3035 30162.3747 80.8655 142.9215
ENERGY: 600000 3.0519 8.2737 7.5856 0.0000 -10788.6802 1413.2933 0.0000 0.0000 1853.1558 -7503.3199 311.8376 -9356.4757 -7537.9872 303.5858 -452.0484 -399.5945 30699.8518 -90.5373 -33.3558
ENERGY: 900000 6.2156 5.9353 6.9480 0.0000 -10795.4787 1441.3479 0.0000 0.0000 1792.0848 -7542.9470 301.5610 -9335.0318 -7538.0455 303.6427 -252.4381 -164.4407 30787.8422 -200.0568 -143.6572
ENERGY: 1200000 4.2274 12.1466 6.2132 0.0000 -10680.1172 1368.6161 0.0000 0.0000 1879.1558 -7409.7581 316.2128 -9288.9140 -7528.6555 303.7838 -643.4812 -582.9331 31074.2443 -194.7684 -141.8262
ENERGY: 1500000 1.2143 6.0581 6.6667 0.0000 -10868.3943 1461.5338 0.0000 0.0000 1781.6942 -7611.2274 299.8125 -9392.9215 -7537.7620 302.8591 69.9945 74.5539 30526.3647 -195.8431 -144.0819
TCL: Running FEP window  16: Lambda1 0.24999999999999967 Lambda2 0.19999999999999968 [dLambda -0.04999999999999999]
TCL: Setting parameter firsttimestep to 0
TCL: Setting parameter alchLambda to 0.24999999999999967
Info: NONBONDED TABLE R-SQUARED SPACING: 0.0625
Info: NONBONDED TABLE SIZE: 705 POINTS
TCL: Setting parameter alchLambda2 to 0.19999999999999968
Info: NONBONDED TABLE R-SQUARED SPACING: 0.0625
Info: NONBONDED TABLE SIZE: 705 POINTS
TCL: Running for 1500000 steps
ETITLE: TS BOND ANGLE DIHED IMPRP ELECT VDW BOUNDARY MISC KINETIC TOTAL TEMP POTENTIAL TOTALAVG TEMPAVG PRESSURE GPRESSURE VOLUME PRESSAVG GPRESSAVG
ENERGY: 0 1.2143 6.0581 6.6667 0.0000 -10868.3936 1461.4560 0.0000 0.0000 1780.8233 -7612.1753 299.6660 -9392.9986 -7612.1753 299.6660 -12.4516 69.4735 30526.3647 -12.4516 69.4735
ENERGY: 300000 4.6368 4.2476 13.8755 0.0000 -10829.3165 1478.8292 0.0000 0.0000 1832.8939 -7494.8335 308.4281 -9327.7274 -7524.4079 304.5339 227.4343 265.7546 30539.1579 196.9193 257.7601
ENERGY: 600000 5.1035 7.6399 8.8880 0.0000 -10742.6163 1456.7451 0.0000 0.0000 1749.5345 -7514.7053 294.4009 -9264.2398 -7523.4871 302.3600 -60.5079 -26.4551 31023.9901 97.5143 148.1762
ENERGY: 900000 4.0534 6.5878 10.7640 0.0000 -10642.6972 1365.1251 0.0000 0.0000 1749.6056 -7506.5613 294.4128 -9256.1670 -7518.9784 300.0124 -661.3639 -568.6566 31038.3694 -107.6537 -58.8741
ENERGY: 1200000 3.2574 7.7948 8.1095 0.0000 -10817.8381 1486.6616 0.0000 0.0000 1791.9867 -7520.0280 301.5445 -9312.0148 -7519.8849 299.8950 348.8522 416.2455 30583.5303 -79.0710 -34.8343
ENERGY: 1500000 5.6216 7.7624 7.4184 0.0000 -10625.4203 1345.2269 0.0000 0.0000 1809.2436 -7450.1475 304.4484 -9259.3911 -7513.6047 300.6072 -667.1224 -583.3276 30675.4042 -107.3096 -65.1305
TCL: Running FEP window  17: Lambda1 0.19999999999999968 Lambda2 0.1499999999999997 [dLambda -0.04999999999999999]
TCL: Setting parameter firsttimestep to 0
TCL: Setting parameter alchLambda to 0.19999999999999968
Info: NONBONDED TABLE R-SQUARED SPACING: 0.0625
Info: NONBONDED TABLE SIZE: 705 POINTS
TCL: Setting parameter alchLambda2 to 0.1499999999999997
Info: NONBONDED TABLE R-SQUARED SPACING: 0.0625
Info: NONBONDED TABLE SIZE: 705 POINTS
TCL: Running for 1500000 steps
ETITLE: TS BOND ANGLE DIHED IMPRP ELECT VDW BOUNDARY MISC KINETIC TOTAL TEMP POTENTIAL TOTALAVG TEMPAVG PRESSURE GPRESSURE VOLUME PRESSAVG GPRESSAVG
ENERGY: 0 5.6216 7.7624 7.4184 0.0000 -10625.4210 1345.5521 0.0000 0.0000 1808.3725 -7450.6940 304.3018 -9259.0664 -7450.6940 304.3018 -666.2782 -583.2655 30675.4042 -666.2782 -583.2655
ENERGY: 300000 2.7772 6.7328 6.3340 0.0000 -10901.7611 1545.2531 0.0000 0.0000 1805.2916 -7535.3725 303.7833 -9340.6640 -7507.4964 303.4776 977.7209 981.9418 30200.7521 -51.5909 10.0120
ENERGY: 600000 2.0026 7.2814 7.7374 0.0000 -10845.5598 1500.4860 0.0000 0.0000 1772.4806 -7555.5717 298.2621 -9328.0524 -7520.6496 303.4641 307.3861 377.3588 30568.7563 50.3601 125.4079
ENERGY: 900000 6.4971 7.1101 8.2503 0.0000 -10888.0882 1507.7048 0.0000 0.0000 1808.4398 -7550.0860 304.3131 -9358.5258 -7542.1097 301.9639 342.4694 434.9693 30202.3959 -4.4903 74.3911
ENERGY: 1200000 3.5405 6.4731 5.0154 0.0000 -10776.4171 1466.5661 0.0000 0.0000 1729.2083 -7565.6136 290.9805 -9294.8219 -7542.9262 300.7416 183.0240 233.7079 30359.9900 1.4384 75.0708
ENERGY: 1500000 8.1510 10.4076 9.5301 0.0000 -10904.9136 1490.7482 0.0000 0.0000 1731.2280 -7654.8487 291.3204 -9386.0766 -7546.6677 300.4123 -121.5295 -11.7333 30702.9436 -25.9000 46.5218
TCL: Running FEP window  18: Lambda1 0.1499999999999997 Lambda2 0.09999999999999969 [dLambda -0.05 ]
TCL: Setting parameter firsttimestep to 0
TCL: Setting parameter alchLambda to 0.1499999999999997
Info: NONBONDED TABLE R-SQUARED SPACING: 0.0625
Info: NONBONDED TABLE SIZE: 705 POINTS
TCL: Setting parameter alchLambda2 to 0.09999999999999969
Info: NONBONDED TABLE R-SQUARED SPACING: 0.0625
Info: NONBONDED TABLE SIZE: 705 POINTS
TCL: Running for 1500000 steps
ETITLE: TS BOND ANGLE DIHED IMPRP ELECT VDW BOUNDARY MISC KINETIC TOTAL TEMP POTENTIAL TOTALAVG TEMPAVG PRESSURE GPRESSURE VOLUME PRESSAVG GPRESSAVG
ENERGY: 0 8.1510 10.4076 9.5301 0.0000 -10904.9132 1490.7430 0.0000 0.0000 1730.3319 -7655.7495 291.1696 -9386.0814 -7655.7495 291.1696 -109.4744 -18.8928 30702.9436 -109.4744 -18.8928
ENERGY: 300000 4.0680 5.7057 8.1533 0.0000 -10873.7488 1520.2437 0.0000 0.0000 1822.2196 -7513.3586 306.6319 -9335.5782 -7573.7378 301.0257 348.5234 322.4668 30808.3385 265.4418 323.1928
ENERGY: 600000 4.2719 10.8714 9.8289 0.0000 -10777.7999 1443.5989 0.0000 0.0000 1776.8559 -7532.3728 298.9984 -9309.2287 -7573.5730 300.9981 -171.9466 -126.0217 30661.2004 163.5313 207.3369
ENERGY: 900000 5.5939 9.1048 5.0578 0.0000 -10769.0620 1441.7316 0.0000 0.0000 1778.4733 -7529.1007 299.2705 -9307.5739 -7563.5065 299.7431 -263.4762 -222.8544 30918.2598 -14.4825 29.8406
ENERGY: 1200000 1.9897 5.7151 7.4488 0.0000 -10886.4637 1478.5028 0.0000 0.0000 1808.8843 -7583.9230 304.3879 -9392.8073 -7573.0089 300.0340 47.1091 125.1995 30668.8364 -47.9811 2.6164
ENERGY: 1500000 4.0088 5.4979 9.4575 0.0000 -10880.1642 1531.2622 0.0000 0.0000 1790.1455 -7539.7923 301.2346 -9329.9378 -7573.7338 299.4820 569.4780 690.3497 30521.8018 -62.3026 -4.4006
TCL: Running FEP window  19: Lambda1 0.09999999999999969 Lambda2 0.049999999999999684 [dLambda -0.05 ]
TCL: Setting parameter firsttimestep to 0
TCL: Setting parameter alchLambda to 0.09999999999999969
Info: NONBONDED TABLE R-SQUARED SPACING: 0.0625
Info: NONBONDED TABLE SIZE: 705 POINTS
TCL: Setting parameter alchLambda2 to 0.049999999999999684
Info: NONBONDED TABLE R-SQUARED SPACING: 0.0625
Info: NONBONDED TABLE SIZE: 705 POINTS
TCL: Running for 1500000 steps
ETITLE: TS BOND ANGLE DIHED IMPRP ELECT VDW BOUNDARY MISC KINETIC TOTAL TEMP POTENTIAL TOTALAVG TEMPAVG PRESSURE GPRESSURE VOLUME PRESSAVG GPRESSAVG
ENERGY: 0 4.0088 5.4979 9.4575 0.0000 -10880.1616 1531.3978 0.0000 0.0000 1789.2702 -7540.5294 301.0874 -9329.7996 -7540.5294 301.0874 602.6955 689.2629 30521.8018 602.6955 689.2629
ENERGY: 300000 6.1364 5.2909 10.2735 0.0000 -10944.4072 1546.1840 0.0000 0.0000 1755.8707 -7620.6516 295.4671 -9376.5223 -7558.1682 297.9040 533.5166 627.1227 30562.7120 98.8395 163.7464
ENERGY: 600000 2.4132 4.6952 11.5250 0.0000 -10776.4800 1356.2806 0.0000 0.0000 1756.1094 -7645.4565 295.5073 -9401.5659 -7553.9146 298.4072 -1114.6081 -1069.3457 30682.8984 -232.5769 -168.5366
ENERGY: 900000 2.0943 7.9159 5.2142 0.0000 -10727.7170 1345.9718 0.0000 0.0000 1776.1826 -7590.3382 298.8851 -9366.5209 -7571.4078 297.3761 -1035.8454 -994.9786 30804.5263 -313.7400 -251.7638
ENERGY: 1200000 5.7146 9.9977 6.0103 0.0000 -10879.5358 1468.3778 0.0000 0.0000 1748.4460 -7640.9894 294.2177 -9389.4354 -7579.1226 296.9224 -194.1428 -126.8593 30072.2314 -283.2688 -227.3580
ENERGY: 1500000 3.5933 8.1608 10.6874 0.0000 -10816.2922 1472.8655 0.0000 0.0000 1745.3128 -7575.6724 293.6905 -9320.9852 -7577.6859 296.5307 82.3217 134.3302 30479.4856 -153.6942 -101.9515
TCL: Running FEP window  20: Lambda1 0.049999999999999684 Lambda2 0.0    [dLambda -0.049999999999999684]
TCL: Setting parameter firsttimestep to 0
TCL: Setting parameter alchLambda to 0.049999999999999684
Info: NONBONDED TABLE R-SQUARED SPACING: 0.0625
Info: NONBONDED TABLE SIZE: 705 POINTS
TCL: Setting parameter alchLambda2 to 0.0
Info: NONBONDED TABLE R-SQUARED SPACING: 0.0625
Info: NONBONDED TABLE SIZE: 705 POINTS
TCL: Running for 1500000 steps
ETITLE: TS BOND ANGLE DIHED IMPRP ELECT VDW BOUNDARY MISC KINETIC TOTAL TEMP POTENTIAL TOTALAVG TEMPAVG PRESSURE GPRESSURE VOLUME PRESSAVG GPRESSAVG
ENERGY: 0 3.5933 8.1608 10.6874 0.0000 -10816.2918 1471.8831 0.0000 0.0000 1744.4585 -7577.5086 293.5467 -9321.9671 -7577.5086 293.5467 39.7500 124.1144 30479.4856 39.7500 124.1144
ENERGY: 300000 2.3713 6.8635 8.1955 0.0000 -10811.1487 1475.7685 0.0000 0.0000 1875.6392 -7442.3107 315.6210 -9317.9499 -7501.9819 305.3312 99.5238 96.7067 30663.2453 -185.7785 -130.5427
ENERGY: 600000 4.6625 5.3984 5.6263 0.0000 -10857.8867 1496.9705 0.0000 0.0000 1834.3953 -7510.8336 308.6807 -9345.2289 -7521.7930 304.9568 369.1467 432.5294 30376.7236 -75.8718 -33.2134
ENERGY: 900000 4.4280 11.1476 9.1414 0.0000 -10680.2742 1348.3783 0.0000 0.0000 1759.9051 -7547.2739 296.1460 -9307.1790 -7545.8048 301.6820 -793.3298 -750.4381 30760.5067 -170.8953 -121.1007
ENERGY: 1200000 3.9482 7.2673 8.4062 0.0000 -10949.4072 1570.7087 0.0000 0.0000 1768.2954 -7590.7815 297.5578 -9359.0769 -7548.2235 301.4931 811.9251 840.5207 30356.8271 -101.3966 -46.1984
ENERGY: 1500000 4.7336 9.6710 11.6439 0.0000 -10864.1024 1518.9007 0.0000 0.0000 1799.4827 -7519.6704 302.8058 -9319.1531 -7543.3644 301.1832 351.4190 485.2515 30411.3868 -22.2193 43.8401
TCL: Exiting due to exit command.
