Info: SIMULATION PARAMETERS:
Info: TIMESTEP               2
Info: NUMBER OF STEPS        0
Info: STEPS PER CYCLE        10
Info: PERIODIC CELL BASIS 1  30.4168 0 0
Info: PERIODIC CELL BASIS 2  0 29.7027 0
Info: PERIODIC CELL BASIS 3  0 0 33.3013
Info: PERIODIC CELL CENTER   0 0 0
Info: WRAPPING WATERS AROUND PERIODIC BOUNDARIES ON OUTPUT.
Info: WRAPPING ALL CLUSTERS AROUND PERIODIC BOUNDARIES ON OUTPUT.
Info: FIRST LDB TIMESTEP     50
Info: LAST LDB TIMESTEP     -1
Info: HOM BACKGROUND SCALING 1
Info: PME BACKGROUND SCALING 1
Info: MIN ATOMS PER PATCH    40
Info: EMPTY PATCH LOAD       40 ATOMS
Info: VELOCITY FILE          mobley_8772587_equil.vel
Info: CENTER OF MASS MOVING INITIALLY? NO
Info: DIELECTRIC             1
Info: EXCLUDE                SCALED ONE-FOUR
Info: 1-4 ELECTROSTATICS SCALED BY 0.833333
Info: MODIFIED 1-4 VDW PARAMETERS WILL BE USED
Info: DCD FILENAME           mobley_8772587_prod.dcd
Info: DCD FREQUENCY          100000
Info: DCD FIRST STEP         100000
Info: DCD FILE WILL CONTAIN UNIT CELL DATA
Info: XST FILENAME           mobley_8772587_prod.xst
Info: XST FREQUENCY          100000
Info: NO VELOCITY DCD OUTPUT
Info: NO FORCE DCD OUTPUT
Info: OUTPUT FILENAME        mobley_8772587_prod
Info: BINARY OUTPUT FILES WILL BE USED
Info: RESTART FILENAME       mobley_8772587_prod.restart
Info: RESTART FREQUENCY      100000
Info: BINARY RESTART FILES WILL BE USED
Info: CUTOFF                 9
Info: PAIRLIST DISTANCE      11
Info: PAIRLIST SHRINK RATE   0.01
Info: PAIRLIST GROW RATE     0.01
Info: PAIRLIST TRIGGER       0.3
Info: PAIRLISTS PER CYCLE    2
Info: PAIRLISTS ENABLED
Info: MARGIN                 2
Info: HYDROGEN GROUP CUTOFF  2.5
Info: PATCH DIMENSION        15.5
Info: ENERGY OUTPUT STEPS    100000
Info: ENERGY EVALUATION STEPS    100000
Info: OUTPUT ENERGY PRECISION 4
Info: CROSSTERM ENERGY INCLUDED IN DIHEDRAL
Info: TIMING OUTPUT STEPS    1000000
Info: PRESSURE OUTPUT STEPS  100000
Info: ALCHEMICAL FEP ON
Info: FEP CURRENT LAMBDA VALUE     0
Info: FEP COMPARISON LAMBDA VALUE  0.05
Info: FEP INTRA-ALCHEMICAL NON-BONDED INTERACTIONS WILL BE RETAINED
Info: FEP INTRA-ALCHEMICAL BONDED INTERACTIONS WILL BE RETAINED
Info: FEP VDW SHIFTING COEFFICIENT 5
Info: FEP ELEC. ACTIVE FOR ANNIHILATED PARTICLES BETWEEN LAMBDA = 0 AND LAMBDA = 0.5
Info: FEP ELEC. ACTIVE FOR EXNIHILATED PARTICLES BETWEEN LAMBDA = 0.5 AND LAMBDA = 1
Info: FEP VDW ACTIVE FOR ANNIHILATED PARTICLES BETWEEN LAMBDA = 0 AND LAMBDA = 1
Info: FEP VDW ACTIVE FOR EXNIHILATED PARTICLES BETWEEN LAMBDA = 0 AND LAMBDA = 1
Info: FEP BOND ACTIVE FOR ANNIHILATED PARTICLES BETWEEN LAMBDA = 1 AND LAMBDA = 1
Info: FEP BOND ACTIVE FOR EXNIHILATED PARTICLES BETWEEN LAMBDA = 0 AND LAMBDA = 0
Info: LANGEVIN DYNAMICS ACTIVE
Info: LANGEVIN TEMPERATURE   300
Info: LANGEVIN USING BBK INTEGRATOR
Info: LANGEVIN DAMPING COEFFICIENT IS 1 INVERSE PS
Info: LANGEVIN DYNAMICS APPLIED TO HYDROGENS
Info: LANGEVIN PISTON PRESSURE CONTROL ACTIVE
Info:        TARGET PRESSURE IS 1.01325 BAR
Info:     OSCILLATION PERIOD IS 50 FS
Info:             DECAY TIME IS 25 FS
Info:     PISTON TEMPERATURE IS 300 K
Info:       PRESSURE CONTROL IS GROUP-BASED
Info:    INITIAL STRAIN RATE IS 0.00017152 0.00017152 0.00017152
Info:       CELL FLUCTUATION IS ISOTROPIC
Info: PARTICLE MESH EWALD (PME) ACTIVE
Info: PME TOLERANCE               1e-06
Info: PME EWALD COEFFICIENT       0.348832
Info: PME INTERPOLATION ORDER     4
Info: PME GRID DIMENSIONS         32 32 36
Info: PME MAXIMUM GRID SPACING    1
Info: PME CALCULATION WILL BE PERFORMED ON GPU
Info: FULL ELECTROSTATIC EVALUATION FREQUENCY      2
Info: USING VERLET I (r-RESPA) MTS SCHEME.
Info: C1 SPLITTING OF LONG RANGE ELECTROSTATICS
Info: PLACING ATOMS IN PATCHES BY HYDROGEN GROUPS
Info: RIGID BONDS TO HYDROGEN : ALL
Info:         ERROR TOLERANCE : 1e-08
Info:          MAX ITERATIONS : 100
Info: RIGID WATER USING SETTLE ALGORITHM
Info: RANDOM NUMBER SEED     1743840413
Info: USE HYDROGEN BONDS?    NO
Info: Using AMBER format force field!
Info: AMBER PARM FILE        mobley_8772587.prmtop
Info: COORDINATE PDB         mobley_8772587.pdb
Info: Exclusions will be read from PARM file!
Info: SCNB (VDW SCALING)     2
Info: USING ARITHMETIC MEAN TO COMBINE L-J SIGMA PARAMETERS
Info: BINARY COORDINATES     mobley_8772587_equil.coor
Info: SUMMARY OF PARAMETERS:
Info: 6 BONDS
Info: 7 ANGLES
Info:   7 HARMONIC
Info:   0 COSINE-BASED
Info: 6 DIHEDRAL
Info: 0 IMPROPER
Info: 0 CROSSTERM
Info: 0 VDW
Info: 21 VDW_PAIRS
Info: 0 NBTHOLE_PAIRS
Info: To read alchdata from file: mobley_8772587.pdb
Info: To read alchflag data from column: 5
Info: STRUCTURE SUMMARY:
Info: 2918 ATOMS
Info: 2917 BONDS
Info: 24 ANGLES
Info: 29 DIHEDRALS
Info: 0 IMPROPERS
Info: 0 CROSSTERMS
Info: 2968 EXCLUSIONS
Info: 2913 RIGID BONDS
Info: ALCH: 0 ATOMS TO DISAPPEAR IN FINAL STATE
Info: ALCH: 14 ATOMS TO APPEAR IN FINAL STATE
Info: 5841 DEGREES OF FREEDOM
Info: 973 HYDROGEN GROUPS
Info: 4 ATOMS IN LARGEST HYDROGEN GROUP
Info: 973 MIGRATION GROUPS
Info: 4 ATOMS IN LARGEST MIGRATION GROUP
Info: TOTAL MASS = 17623.5 amu
Info: TOTAL CHARGE = 0.000100031 e
Info: MASS DENSITY = 0.972703 g/cm^3
Info: ATOM DENSITY = 0.0969872 atoms/A^3
Info: ADDED 0 IMPLICIT EXCLUSIONS
Info: NONBONDED TABLE R-SQUARED SPACING: 0.0625
Info: NONBONDED TABLE SIZE: 705 POINTS
Info: REMOVING COM VELOCITY -0.0445617 -0.146786 0.059953
Info: Use 3D box decompostion in PME FFT.
Info: Updated CUDA force table with 4096 elements.
Info: Updated CUDA LJ table with 6 x 6 elements.
Info: Found 17 unique exclusion lists needing 36 bytes
TCL: Running for 1500000 steps
ETITLE: TS BOND ANGLE DIHED IMPRP ELECT VDW BOUNDARY MISC KINETIC TOTAL TEMP POTENTIAL TOTALAVG TEMPAVG PRESSURE GPRESSURE VOLUME PRESSAVG GPRESSAVG
ENERGY: 0 0.5026 9.4743 3.0414 0.0000 -10486.1504 1404.0220 0.0000 0.0000 1664.6225 -7404.4877 286.8263 -9069.1102 -7404.4877 286.8263 -45.9040 15.6312 30086.4497 -45.9040 15.6312
ENERGY: 300000 1.5865 5.5532 1.4003 0.0000 -10551.3455 1438.8249 0.0000 0.0000 1740.4358 -7363.5447 299.8894 -9103.9805 -7396.6069 298.2048 238.4191 355.6862 29807.9819 128.0452 205.1501
ENERGY: 600000 3.4019 7.0735 1.3340 0.0000 -10612.5347 1502.6533 0.0000 0.0000 1763.3109 -7334.7610 303.8310 -9098.0719 -7398.3745 299.5031 894.6556 874.6105 29908.1555 116.0321 174.1061
ENERGY: 900000 0.2027 4.0211 2.3564 0.0000 -10605.9799 1404.3133 0.0000 0.0000 1744.0786 -7451.0079 300.5171 -9195.0865 -7406.0992 299.7423 -282.1598 -227.8344 29966.2835 4.0304 61.1345
ENERGY: 1200000 1.2896 3.8419 1.1182 0.0000 -10461.0656 1341.0922 0.0000 0.0000 1734.7796 -7378.9441 298.9148 -9113.7237 -7404.3146 298.8346 -689.8518 -616.3235 30078.3657 -85.1961 -27.5638
ENERGY: 1500000 1.2146 5.1182 2.1379 0.0000 -10544.6718 1411.7133 0.0000 0.0000 1782.3844 -7342.1035 307.1175 -9124.4879 -7393.8998 300.0458 122.4977 163.0428 29674.8959 -69.5270 -11.6031
TCL: Running FEP window   2: Lambda1 0.05   Lambda2 0.1    [dLambda 0.05  ]
TCL: Setting parameter firsttimestep to 0
TCL: Setting parameter alchLambda to 0.05
Info: NONBONDED TABLE R-SQUARED SPACING: 0.0625
Info: NONBONDED TABLE SIZE: 705 POINTS
TCL: Setting parameter alchLambda2 to 0.1
Info: NONBONDED TABLE R-SQUARED SPACING: 0.0625
Info: NONBONDED TABLE SIZE: 705 POINTS
TCL: Running for 1500000 steps
ETITLE: TS BOND ANGLE DIHED IMPRP ELECT VDW BOUNDARY MISC KINETIC TOTAL TEMP POTENTIAL TOTALAVG TEMPAVG PRESSURE GPRESSURE VOLUME PRESSAVG GPRESSAVG
ENERGY: 0 1.2146 5.1182 2.1379 0.0000 -10544.6724 1412.3982 0.0000 0.0000 1781.5151 -7342.2884 306.9677 -9123.8036 -7342.2884 306.9677 80.8108 169.4125 29674.8959 80.8108 169.4125
ENERGY: 300000 0.5871 6.5948 1.3008 0.0000 -10505.4157 1410.6394 0.0000 0.0000 1714.8005 -7371.4933 295.4723 -9086.2937 -7374.7050 301.5698 -56.3652 45.8142 29912.2021 169.6615 249.8352
ENERGY: 600000 0.7658 10.1729 2.8650 0.0000 -10724.1755 1497.2669 0.0000 0.0000 1781.9266 -7431.1784 307.0386 -9213.1050 -7402.5374 300.3095 380.7255 438.6509 29683.5884 83.7618 145.4949
ENERGY: 900000 1.7501 4.7629 1.4792 0.0000 -10566.3288 1406.6143 0.0000 0.0000 1715.6191 -7436.1031 295.6134 -9151.7223 -7416.3080 299.9104 -91.3860 -12.9814 29681.5032 178.6024 229.9727
ENERGY: 1200000 0.7337 6.3913 1.2086 0.0000 -10630.2845 1515.4916 0.0000 0.0000 1766.5777 -7339.8817 304.3939 -9106.4594 -7408.9913 300.7598 805.5943 875.9006 29744.4811 170.1741 224.3742
ENERGY: 1500000 0.7848 5.4084 1.1004 0.0000 -10583.3207 1403.1224 0.0000 0.0000 1770.2061 -7402.6986 305.0191 -9172.9047 -7397.3252 301.9715 -430.8249 -354.8840 30091.6122 100.0895 158.3134
TCL: Running FEP window   3: Lambda1 0.1    Lambda2 0.15000000000000002 [dLambda 0.05000000000000002]
TCL: Setting parameter firsttimestep to 0
TCL: Setting parameter alchLambda to 0.1
Info: NONBONDED TABLE R-SQUARED SPACING: 0.0625
Info: NONBONDED TABLE SIZE: 705 POINTS
TCL: Setting parameter alchLambda2 to 0.15000000000000002
Info: NONBONDED TABLE R-SQUARED SPACING: 0.0625
Info: NONBONDED TABLE SIZE: 705 POINTS
TCL: Running for 1500000 steps
ETITLE: TS BOND ANGLE DIHED IMPRP ELECT VDW BOUNDARY MISC KINETIC TOTAL TEMP POTENTIAL TOTALAVG TEMPAVG PRESSURE GPRESSURE VOLUME PRESSAVG GPRESSAVG
ENERGY: 0 0.7848 5.4084 1.1004 0.0000 -10583.3216 1404.6845 0.0000 0.0000 1769.3247 -7402.0188 304.8672 -9171.3435 -7402.0188 304.8672 -437.0536 -345.8320 30091.6122 -437.0536 -345.8320
ENERGY: 300000 1.1153 4.9720 0.6599 0.0000 -10596.2799 1392.7324 0.0000 0.0000 1778.6742 -7418.1261 306.4782 -9196.8003 -7419.0958 304.9728 -477.3523 -430.9410 29926.3413 -578.3186 -518.2126
ENERGY: 600000 4.6590 5.2376 1.1058 0.0000 -10599.5321 1433.7210 0.0000 0.0000 1703.1111 -7451.6975 293.4581 -9154.8086 -7420.0505 302.4073 -165.9067 -42.1279 30091.2363 -323.8404 -256.5026
ENERGY: 900000 1.3946 5.8513 1.0670 0.0000 -10451.6808 1368.9153 0.0000 0.0000 1760.2706 -7314.1819 303.3071 -9074.4525 -7394.8609 303.0315 -319.5211 -255.1020 29925.2112 -238.3787 -168.3318
ENERGY: 1200000 0.6308 4.9909 0.8204 0.0000 -10485.5041 1333.3073 0.0000 0.0000 1741.5424 -7404.2124 300.0801 -9145.7547 -7394.9992 302.3699 -949.2816 -924.5618 30309.3542 -227.4952 -157.8522
ENERGY: 1500000 0.7190 6.8388 2.1688 0.0000 -10682.2359 1401.8426 0.0000 0.0000 1747.6624 -7523.0042 301.1346 -9270.6666 -7402.6345 301.8979 -787.2874 -700.9468 30084.7705 -183.7109 -111.8165
TCL: Running FEP window   4: Lambda1 0.15000000000000002 Lambda2 0.2    [dLambda 0.04999999999999999]
TCL: Setting parameter firsttimestep to 0
TCL: Setting parameter alchLambda to 0.15000000000000002
Info: NONBONDED TABLE R-SQUARED SPACING: 0.0625
Info: NONBONDED TABLE SIZE: 705 POINTS
TCL: Setting parameter alchLambda2 to 0.2
Info: NONBONDED TABLE R-SQUARED SPACING: 0.0625
Info: NONBONDED TABLE SIZE: 705 POINTS
TCL: Running for 1500000 steps
ETITLE: TS BOND ANGLE DIHED IMPRP ELECT VDW BOUNDARY MISC KINETIC TOTAL TEMP POTENTIAL TOTALAVG TEMPAVG PRESSURE GPRESSURE VOLUME PRESSAVG GPRESSAVG
ENERGY: 0 0.7190 6.8388 2.1688 0.0000 -10682.2360 1402.2237 0.0000 0.0000 1746.7964 -7523.4893 300.9854 -9270.2857 -7523.4893 300.9854 -781.9476 -698.0189 30084.7705 -781.9476 -698.0189
ENERGY: 300000 0.7241 7.7771 1.5766 0.0000 -10599.0088 1503.3038 0.0000 0.0000 1734.3825 -7351.2447 298.8464 -9085.6272 -7425.3811 298.7594 814.5988 919.1259 29877.4239 -33.1363 39.8492
ENERGY: 600000 1.7217 7.6283 0.8868 0.0000 -10676.8249 1468.9932 0.0000 0.0000 1764.9501 -7432.6448 304.1134 -9197.5949 -7396.9084 299.5057 -48.3867 14.7345 30343.3373 -74.5293 -4.8213
ENERGY: 900000 0.4621 6.8560 1.9237 0.0000 -10608.2420 1502.8843 0.0000 0.0000 1765.8661 -7330.2497 304.2713 -9096.1158 -7389.2321 300.6804 719.1186 781.9676 29778.2742 -67.3135 0.6244
ENERGY: 1200000 0.6349 6.5883 1.2397 0.0000 -10551.0304 1332.3443 0.0000 0.0000 1797.0991 -7413.1241 309.6529 -9210.2232 -7399.1659 301.3000 -820.0728 -659.0160 29750.6969 -214.5807 -141.7477
ENERGY: 1500000 1.2496 5.8616 1.7309 0.0000 -10591.0673 1416.3055 0.0000 0.0000 1788.5307 -7377.3890 308.1765 -9165.9197 -7395.2851 301.4310 -243.1838 -151.4006 30102.8164 -208.6315 -139.9735
TCL: Running FEP window   5: Lambda1 0.2    Lambda2 0.25   [dLambda 0.04999999999999999]
TCL: Setting parameter firsttimestep to 0
TCL: Setting parameter alchLambda to 0.2
Info: NONBONDED TABLE R-SQUARED SPACING: 0.0625
Info: NONBONDED TABLE SIZE: 705 POINTS
TCL: Setting parameter alchLambda2 to 0.25
Info: NONBONDED TABLE R-SQUARED SPACING: 0.0625
Info: NONBONDED TABLE SIZE: 705 POINTS
TCL: Running for 1500000 steps
ETITLE: TS BOND ANGLE DIHED IMPRP ELECT VDW BOUNDARY MISC KINETIC TOTAL TEMP POTENTIAL TOTALAVG TEMPAVG PRESSURE GPRESSURE VOLUME PRESSAVG GPRESSAVG
ENERGY: 0 1.2496 5.8616 1.7309 0.0000 -10591.0678 1416.6744 0.0000 0.0000 1787.6367 -7377.9146 308.0225 -9165.5513 -7377.9146 308.0225 -247.0613 -148.1153 30102.8164 -247.0613 -148.1153
ENERGY: 300000 2.2466 7.3008 1.4063 0.0000 -10475.8446 1324.2245 0.0000 0.0000 1759.9701 -7380.6963 303.2554 -9140.6664 -7414.7465 300.3053 -739.4910 -695.0122 29791.2778 -127.1514 -68.5714
ENERGY: 600000 1.9391 4.9322 0.8385 0.0000 -10461.6986 1333.9050 0.0000 0.0000 1763.1956 -7356.8882 303.8111 -9120.0838 -7372.6188 301.9775 -767.2550 -683.4162 29980.1825 -88.4820 -45.3241
ENERGY: 900000 1.4067 5.0267 0.7328 0.0000 -10670.9737 1463.6516 0.0000 0.0000 1775.2348 -7424.9212 305.8856 -9200.1559 -7392.3304 301.7265 49.3960 74.9045 30151.1808 -25.7769 15.4076
ENERGY: 1200000 1.1444 6.2920 1.9643 0.0000 -10425.9039 1385.2730 0.0000 0.0000 1691.0196 -7340.2106 291.3747 -9031.2302 -7403.1210 300.0421 -269.2195 -200.4715 30389.5695 40.9441 89.9348
ENERGY: 1500000 0.7696 5.9314 0.9284 0.0000 -10651.6130 1507.0923 0.0000 0.0000 1743.7425 -7393.1489 300.4592 -9136.8914 -7398.1259 300.0538 795.7418 815.2878 29808.0770 142.4798 188.8437
TCL: Running FEP window   6: Lambda1 0.25   Lambda2 0.3    [dLambda 0.04999999999999999]
TCL: Setting parameter firsttimestep to 0
TCL: Setting parameter alchLambda to 0.25
Info: NONBONDED TABLE R-SQUARED SPACING: 0.0625
Info: NONBONDED TABLE SIZE: 705 POINTS
TCL: Setting parameter alchLambda2 to 0.3
Info: NONBONDED TABLE R-SQUARED SPACING: 0.0625
Info: NONBONDED TABLE SIZE: 705 POINTS
TCL: Running for 1500000 steps
ETITLE: TS BOND ANGLE DIHED IMPRP ELECT VDW BOUNDARY MISC KINETIC TOTAL TEMP POTENTIAL TOTALAVG TEMPAVG PRESSURE GPRESSURE VOLUME PRESSAVG GPRESSAVG
ENERGY: 0 0.7696 5.9314 0.9284 0.0000 -10651.6144 1509.1125 0.0000 0.0000 1742.9293 -7391.9432 300.3191 -9134.8725 -7391.9432 300.3191 744.6102 829.1720 29808.0770 744.6102 829.1720
ENERGY: 300000 0.6390 6.3034 1.2915 0.0000 -10475.4212 1339.9711 0.0000 0.0000 1760.1161 -7367.1000 303.2805 -9127.2161 -7451.3968 297.3464 -734.6749 -700.7966 30415.8203 -104.2644 -28.3372
ENERGY: 600000 2.0712 3.9334 0.9819 0.0000 -10500.3430 1340.4124 0.0000 0.0000 1816.2519 -7336.6921 312.9531 -9152.9440 -7413.9085 300.6185 -571.9942 -488.9793 29841.3325 -271.1894 -196.2345
ENERGY: 900000 1.5438 6.1377 0.7901 0.0000 -10419.4578 1380.6463 0.0000 0.0000 1737.7534 -7292.5865 299.4272 -9030.3399 -7402.8060 300.8014 -149.0989 -103.1777 30243.5646 -282.8892 -209.3780
ENERGY: 1200000 0.8900 7.8669 0.9850 0.0000 -10680.6737 1451.7142 0.0000 0.0000 1706.7590 -7512.4587 294.0867 -9219.2176 -7385.1849 301.5737 -144.9213 -104.4822 30053.1348 -266.2367 -193.1258
ENERGY: 1500000 1.1482 5.1527 0.5796 0.0000 -10561.9147 1396.7753 0.0000 0.0000 1731.1629 -7427.0962 298.2917 -9158.2590 -7388.6033 302.1413 -72.9260 3.5673 29519.1983 -199.8492 -126.0767
TCL: Running FEP window   7: Lambda1 0.3    Lambda2 0.35   [dLambda 0.04999999999999999]
TCL: Setting parameter firsttimestep to 0
TCL: Setting parameter alchLambda to 0.3
Info: NONBONDED TABLE R-SQUARED SPACING: 0.0625
Info: NONBONDED TABLE SIZE: 705 POINTS
TCL: Setting parameter alchLambda2 to 0.35
Info: NONBONDED TABLE R-SQUARED SPACING: 0.0625
Info: NONBONDED TABLE SIZE: 705 POINTS
TCL: Running for 1500000 steps
ETITLE: TS BOND ANGLE DIHED IMPRP ELECT VDW BOUNDARY MISC KINETIC TOTAL TEMP POTENTIAL TOTALAVG TEMPAVG PRESSURE GPRESSURE VOLUME PRESSAVG GPRESSAVG
ENERGY: 0 1.1482 5.1527 0.5796 0.0000 -10561.9151 1397.4578 0.0000 0.0000 1730.2795 -7427.2974 298.1394 -9157.5769 -7427.2974 298.1394 -74.1818 7.2307 29519.1983 -74.1818 7.2307
ENERGY: 300000 0.8601 7.2476 0.8360 0.0000 -10582.8583 1457.0055 0.0000 0.0000 1755.5094 -7361.3997 302.4867 -9116.9090 -7399.7636 302.4661 378.2665 426.8620 29796.1980 -64.9235 11.1885
ENERGY: 600000 0.9146 9.7970 0.8090 0.0000 -10616.9720 1455.7665 0.0000 0.0000 1794.9560 -7354.7289 309.2837 -9149.6849 -7407.1772 301.7757 435.6273 453.2947 29928.9407 -50.8430 23.0837
ENERGY: 900000 1.9087 5.5382 1.8326 0.0000 -10602.1064 1417.4585 0.0000 0.0000 1758.8225 -7416.5459 303.0576 -9175.3684 -7403.3509 302.5640 -184.9933 -138.1494 29692.1910 -76.6137 -12.1221
ENERGY: 1200000 1.0665 7.0310 0.9025 0.0000 -10536.8800 1402.7095 0.0000 0.0000 1731.6901 -7393.4804 298.3825 -9125.1705 -7406.1744 301.8143 -138.7806 -66.2550 29882.8202 -124.2981 -55.8396
ENERGY: 1500000 0.3122 2.9131 1.3050 0.0000 -10641.4713 1470.4509 0.0000 0.0000 1730.3554 -7436.1349 298.1525 -9166.4903 -7408.7225 301.1976 316.0581 344.9214 29772.2247 -120.1029 -56.0378
TCL: Running FEP window   8: Lambda1 0.35   Lambda2 0.39999999999999997 [dLambda 0.04999999999999999]
TCL: Setting parameter firsttimestep to 0
TCL: Setting parameter alchLambda to 0.35
Info: NONBONDED TABLE R-SQUARED SPACING: 0.0625
Info: NONBONDED TABLE SIZE: 705 POINTS
TCL: Setting parameter alchLambda2 to 0.39999999999999997
Info: NONBONDED TABLE R-SQUARED SPACING: 0.0625
Info: NONBONDED TABLE SIZE: 705 POINTS
TCL: Running for 1500000 steps
ETITLE: TS BOND ANGLE DIHED IMPRP ELECT VDW BOUNDARY MISC KINETIC TOTAL TEMP POTENTIAL TOTALAVG TEMPAVG PRESSURE GPRESSURE VOLUME PRESSAVG GPRESSAVG
ENERGY: 0 0.3122 2.9131 1.3050 0.0000 -10641.4711 1470.2899 0.0000 0.0000 1729.4454 -7437.2056 297.9957 -9166.6510 -7437.2056 297.9957 265.6248 347.9465 29772.2247 265.6248 347.9465
ENERGY: 300000 0.5918 6.9026 1.4327 0.0000 -10515.0846 1427.9741 0.0000 0.0000 1795.8535 -7282.3299 309.4383 -9078.1835 -7349.8307 303.1473 236.6510 356.9410 30072.3155 -184.2286 -118.4309
ENERGY: 600000 1.9649 5.8794 1.6309 0.0000 -10487.7013 1330.5649 0.0000 0.0000 1795.8281 -7351.8331 309.4339 -9147.6612 -7360.6630 302.7467 -918.6306 -824.7570 30273.9172 -387.5234 -315.3670
ENERGY: 900000 3.7939 6.3650 0.6872 0.0000 -10507.7345 1382.4086 0.0000 0.0000 1746.0057 -7368.4742 300.8492 -9114.4799 -7368.5403 300.5167 -573.6501 -429.9755 30080.2824 -287.0599 -202.7275
ENERGY: 1200000 1.3810 8.1399 0.9257 0.0000 -10506.0574 1377.5896 0.0000 0.0000 1747.8101 -7370.2111 301.1601 -9118.0212 -7376.1745 300.2478 -122.4484 -28.6093 29745.3221 -216.8158 -132.7821
ENERGY: 1500000 2.7189 4.9648 1.9221 0.0000 -10617.9051 1473.6286 0.0000 0.0000 1727.4632 -7407.2075 297.6542 -9134.6707 -7378.9979 300.0951 585.5154 613.7528 29829.0245 -137.6645 -61.8854
TCL: Running FEP window   9: Lambda1 0.39999999999999997 Lambda2 0.44999999999999996 [dLambda 0.04999999999999999]
TCL: Setting parameter firsttimestep to 0
TCL: Setting parameter alchLambda to 0.39999999999999997
Info: NONBONDED TABLE R-SQUARED SPACING: 0.0625
Info: NONBONDED TABLE SIZE: 705 POINTS
TCL: Setting parameter alchLambda2 to 0.44999999999999996
Info: NONBONDED TABLE R-SQUARED SPACING: 0.0625
Info: NONBONDED TABLE SIZE: 705 POINTS
TCL: Running for 1500000 steps
ETITLE: TS BOND ANGLE DIHED IMPRP ELECT VDW BOUNDARY MISC KINETIC TOTAL TEMP POTENTIAL TOTALAVG TEMPAVG PRESSURE GPRESSURE VOLUME PRESSAVG GPRESSAVG
ENERGY: 0 2.7189 4.9648 1.9221 0.0000 -10617.9048 1474.6516 0.0000 0.0000 1726.5631 -7407.0843 297.4991 -9133.6474 -7407.0843 297.4991 537.1950 626.6203 29829.0245 537.1950 626.6203
ENERGY: 300000 1.1117 7.5896 2.1306 0.0000 -10552.0418 1456.6003 0.0000 0.0000 1733.4981 -7351.1114 298.6940 -9084.6095 -7399.3071 301.6277 249.4955 366.5161 30115.9558 187.8057 246.6672
ENERGY: 600000 0.6382 7.1420 1.0792 0.0000 -10463.6259 1351.5524 0.0000 0.0000 1752.0796 -7351.1344 301.8958 -9103.2141 -7393.6561 301.0655 -220.3901 -288.0405 30012.8784 -27.3558 15.9898
ENERGY: 900000 0.7712 7.8642 0.9706 0.0000 -10463.3967 1326.0223 0.0000 0.0000 1680.7683 -7447.0001 289.6083 -9127.7684 -7379.9949 300.0198 -924.1656 -871.6997 30226.5417 -187.1419 -145.4804
ENERGY: 1200000 1.4542 6.0981 2.1159 0.0000 -10547.0770 1380.1856 0.0000 0.0000 1672.7230 -7484.5003 288.2221 -9157.2233 -7392.7443 298.3712 -304.0738 -204.1266 29496.9378 -171.4014 -122.2818
ENERGY: 1500000 0.8912 5.1304 1.5951 0.0000 -10407.4326 1337.3082 0.0000 0.0000 1738.0564 -7324.4513 299.4795 -9062.5077 -7386.2921 298.5316 -673.4896 -665.7991 30330.9135 -139.1555 -93.9688
TCL: Running FEP window  10: Lambda1 0.44999999999999996 Lambda2 0.49999999999999994 [dLambda 0.04999999999999999]
TCL: Setting parameter firsttimestep to 0
TCL: Setting parameter alchLambda to 0.44999999999999996
Info: NONBONDED TABLE R-SQUARED SPACING: 0.0625
Info: NONBONDED TABLE SIZE: 705 POINTS
TCL: Setting parameter alchLambda2 to 0.49999999999999994
Info: NONBONDED TABLE R-SQUARED SPACING: 0.0625
Info: NONBONDED TABLE SIZE: 705 POINTS
TCL: Running for 1500000 steps
ETITLE: TS BOND ANGLE DIHED IMPRP ELECT VDW BOUNDARY MISC KINETIC TOTAL TEMP POTENTIAL TOTALAVG TEMPAVG PRESSURE GPRESSURE VOLUME PRESSAVG GPRESSAVG
ENERGY: 0 0.8912 5.1304 1.5951 0.0000 -10407.4320 1337.4950 0.0000 0.0000 1737.2078 -7325.1124 299.3332 -9062.3202 -7325.1124 299.3332 -730.8846 -659.8918 30330.9135 -730.8846 -659.8918
ENERGY: 300000 1.5132 4.7332 0.8184 0.0000 -10543.2977 1404.5036 0.0000 0.0000 1766.7770 -7364.9523 304.4282 -9131.7294 -7387.6745 301.8439 -112.0657 -13.0852 29798.9953 -412.9313 -335.0859
ENERGY: 600000 2.2787 11.7211 1.7870 0.0000 -10685.7765 1463.2368 0.0000 0.0000 1738.5747 -7468.1783 299.5688 -9206.7531 -7394.5698 300.3792 123.9223 228.9531 29686.4662 -101.0843 -16.4417
ENERGY: 900000 1.0550 4.1192 0.8355 0.0000 -10522.6246 1403.0650 0.0000 0.0000 1733.1962 -7380.3536 298.6420 -9113.5498 -7398.2678 300.7285 110.2703 160.6545 29579.0976 -24.6573 43.9325
ENERGY: 1200000 3.6205 7.0603 1.1123 0.0000 -10502.5545 1337.0838 0.0000 0.0000 1736.1352 -7417.5424 299.1484 -9153.6776 -7402.2583 300.1125 -948.1714 -884.9278 29973.5066 -47.3603 17.5590
ENERGY: 1500000 0.5456 4.4221 1.6417 0.0000 -10487.3296 1347.4910 0.0000 0.0000 1722.4142 -7410.8150 296.7842 -9133.2292 -7400.0007 300.0687 -858.5878 -743.7138 30447.1350 23.5127 90.1971
TCL: Running FEP window  11: Lambda1 0.49999999999999994 Lambda2 0.5499999999999999 [dLambda 0.04999999999999999]
TCL: Setting parameter firsttimestep to 0
TCL: Setting parameter alchLambda to 0.49999999999999994
Info: NONBONDED TABLE R-SQUARED SPACING: 0.0625
Info: NONBONDED TABLE SIZE: 705 POINTS
TCL: Setting parameter alchLambda2 to 0.5499999999999999
Info: NONBONDED TABLE R-SQUARED SPACING: 0.0625
Info: NONBONDED TABLE SIZE: 705 POINTS
TCL: Running for 1500000 steps
ETITLE: TS BOND ANGLE DIHED IMPRP ELECT VDW BOUNDARY MISC KINETIC TOTAL TEMP POTENTIAL TOTALAVG TEMPAVG PRESSURE GPRESSURE VOLUME PRESSAVG GPRESSAVG
ENERGY: 0 0.5456 4.4221 1.6417 0.0000 -10487.3307 1347.8098 0.0000 0.0000 1721.5667 -7411.3447 296.6382 -9132.9114 -7411.3447 296.6382 -827.9891 -734.9966 30447.1350 -827.9891 -734.9966
ENERGY: 300000 2.7820 4.2659 1.0091 0.0000 -10472.3940 1361.0070 0.0000 0.0000 1775.6569 -7327.6730 305.9583 -9103.3299 -7406.5218 299.2148 -617.1733 -521.5421 30105.0638 -668.1951 -588.9152
ENERGY: 600000 1.2209 7.7381 2.0783 0.0000 -10539.6002 1406.5043 0.0000 0.0000 1748.0955 -7373.9632 301.2093 -9122.0587 -7380.4568 301.9659 -1.2860 48.5736 30030.5479 -464.9344 -399.0661
ENERGY: 900000 0.2039 6.2684 1.4174 0.0000 -10469.7081 1368.7901 0.0000 0.0000 1799.7927 -7293.2355 310.1171 -9093.0282 -7372.6095 303.8364 -299.6593 -228.7823 30123.0586 -236.1158 -179.2964
ENERGY: 1200000 0.2105 5.3487 0.6837 0.0000 -10542.7574 1399.0212 0.0000 0.0000 1728.3513 -7409.1421 297.8072 -9137.4934 -7381.6435 302.4808 -202.9760 -137.5568 30230.8609 -280.7910 -218.3128
ENERGY: 1500000 0.5646 7.0021 0.6629 0.0000 -10541.6011 1419.8044 0.0000 0.0000 1754.9035 -7358.6637 302.3823 -9113.5672 -7387.8411 302.0104 179.4374 217.3052 29806.2578 -252.1166 -190.6917
TCL: Running FEP window  12: Lambda1 0.5499999999999999 Lambda2 0.6    [dLambda 0.050000000000000044]
TCL: Setting parameter firsttimestep to 0
TCL: Setting parameter alchLambda to 0.5499999999999999
Info: NONBONDED TABLE R-SQUARED SPACING: 0.0625
Info: NONBONDED TABLE SIZE: 705 POINTS
TCL: Setting parameter alchLambda2 to 0.6
Info: NONBONDED TABLE R-SQUARED SPACING: 0.0625
Info: NONBONDED TABLE SIZE: 705 POINTS
TCL: Running for 1500000 steps
ETITLE: TS BOND ANGLE DIHED IMPRP ELECT VDW BOUNDARY MISC KINETIC TOTAL TEMP POTENTIAL TOTALAVG TEMPAVG PRESSURE GPRESSURE VOLUME PRESSAVG GPRESSAVG
ENERGY: 0 0.5646 7.0021 0.6629 0.0000 -10541.6378 1421.5418 0.0000 0.0000 1754.0425 -7357.8240 302.2340 -9111.8665 -7357.8240 302.2340 149.7468 234.1255 29806.2578 149.7468 234.1255
ENERGY: 300000 1.0913 3.2581 0.6382 0.0000 -10654.7554 1490.0759 0.0000 0.0000 1760.0925 -7399.5994 303.2764 -9159.6918 -7351.5902 302.8118 670.3087 738.5540 29551.4899 129.6286 196.1291
ENERGY: 600000 0.4161 9.7346 1.8920 0.0000 -10515.8638 1455.2549 0.0000 0.0000 1705.2570 -7343.3092 293.8279 -9048.5662 -7373.6315 299.2757 77.6381 134.3749 30846.8930 -200.3055 -128.4104
ENERGY: 900000 0.7677 6.7035 0.9278 0.0000 -10581.2327 1414.6250 0.0000 0.0000 1704.5103 -7453.6983 293.6992 -9158.2087 -7381.6404 298.2982 -128.8174 -65.8765 30000.5424 -295.9492 -238.1140
ENERGY: 1200000 2.3544 3.7481 2.3016 0.0000 -10598.9422 1407.4178 0.0000 0.0000 1731.9613 -7451.1588 298.4292 -9183.1202 -7389.3809 298.7785 -456.5763 -391.8566 30192.9305 -284.2357 -221.2128
ENERGY: 1500000 1.9163 7.0054 0.7971 0.0000 -10637.3048 1451.1772 0.0000 0.0000 1718.1655 -7458.2433 296.0521 -9176.4088 -7395.0464 299.1757 91.8566 118.8407 29969.7844 -137.4765 -80.3184
TCL: Running FEP window  13: Lambda1 0.6    Lambda2 0.65   [dLambda 0.050000000000000044]
TCL: Setting parameter firsttimestep to 0
TCL: Setting parameter alchLambda to 0.6
Info: NONBONDED TABLE R-SQUARED SPACING: 0.0625
Info: NONBONDED TABLE SIZE: 705 POINTS
TCL: Setting parameter alchLambda2 to 0.65
Info: NONBONDED TABLE R-SQUARED SPACING: 0.0625
Info: NONBONDED TABLE SIZE: 705 POINTS
TCL: Running for 1500000 steps
ETITLE: TS BOND ANGLE DIHED IMPRP ELECT VDW BOUNDARY MISC KINETIC TOTAL TEMP POTENTIAL TOTALAVG TEMPAVG PRESSURE GPRESSURE VOLUME PRESSAVG GPRESSAVG
ENERGY: 0 1.9163 7.0054 0.7971 0.0000 -10637.6804 1451.7733 0.0000 0.0000 1717.3054 -7458.8829 295.9039 -9176.1883 -7458.8829 295.9039 48.5117 134.5932 29969.7844 48.5117 134.5932
ENERGY: 300000 1.0272 3.3847 1.5599 0.0000 -10622.9421 1477.3952 0.0000 0.0000 1783.8192 -7355.7560 307.3647 -9139.5752 -7394.9132 302.2753 269.8624 377.0969 30252.0030 -282.6494 -193.8691
ENERGY: 600000 0.6828 8.2176 2.1266 0.0000 -10468.2107 1362.0640 0.0000 0.0000 1787.7179 -7307.4018 308.0365 -9095.1197 -7358.6573 302.8498 -387.3556 -320.7699 30413.9595 -206.1253 -135.2899
ENERGY: 900000 1.1748 6.5870 0.8328 0.0000 -10553.7223 1406.3273 0.0000 0.0000 1714.5597 -7424.2407 295.4308 -9138.8004 -7375.2396 301.6917 -209.9113 -88.0453 29968.5671 -148.7841 -68.2563
ENERGY: 1200000 2.7812 10.6311 2.8527 0.0000 -10703.7922 1530.6447 0.0000 0.0000 1705.7152 -7451.1674 293.9068 -9156.8826 -7390.3735 301.0894 1076.0296 1125.7841 29232.6402 -137.3705 -71.1054
ENERGY: 1500000 1.4194 6.7256 0.9633 0.0000 -10594.2353 1475.1152 0.0000 0.0000 1715.9100 -7394.1017 295.6635 -9110.0117 -7400.3643 300.2967 399.0331 423.4910 29913.7672 -69.3518 -4.8828
TCL: Running FEP window  14: Lambda1 0.65   Lambda2 0.7000000000000001 [dLambda 0.050000000000000044]
TCL: Setting parameter firsttimestep to 0
TCL: Setting parameter alchLambda to 0.65
Info: NONBONDED TABLE R-SQUARED SPACING: 0.0625
Info: NONBONDED TABLE SIZE: 705 POINTS
TCL: Setting parameter alchLambda2 to 0.7000000000000001
Info: NONBONDED TABLE R-SQUARED SPACING: 0.0625
Info: NONBONDED TABLE SIZE: 705 POINTS
TCL: Running for 1500000 steps
ETITLE: TS BOND ANGLE DIHED IMPRP ELECT VDW BOUNDARY MISC KINETIC TOTAL TEMP POTENTIAL TOTALAVG TEMPAVG PRESSURE GPRESSURE VOLUME PRESSAVG GPRESSAVG
ENERGY: 0 1.4194 6.7256 0.9633 0.0000 -10594.1742 1475.2173 0.0000 0.0000 1715.0603 -7394.7882 295.5171 -9109.8485 -7394.7882 295.5171 343.6177 433.0362 29913.7672 343.6177 433.0362
ENERGY: 300000 1.8212 8.1387 1.7786 0.0000 -10644.1275 1461.4170 0.0000 0.0000 1754.3543 -7416.6176 302.2877 -9170.9719 -7360.6253 302.5499 131.4646 193.0082 29932.4536 133.6997 203.1393
ENERGY: 600000 0.4506 5.2903 1.4340 0.0000 -10646.5018 1515.1634 0.0000 0.0000 1732.0538 -7392.1097 298.4452 -9124.1635 -7367.2231 301.8579 1120.2420 1173.3820 29665.9830 314.9633 381.8305
ENERGY: 900000 1.2707 7.1185 1.5814 0.0000 -10614.1510 1440.1303 0.0000 0.0000 1768.2755 -7395.7747 304.6864 -9164.0501 -7371.9512 302.3809 232.5048 257.9065 29805.8275 242.4226 302.7904
ENERGY: 1200000 3.8305 5.8897 0.9543 0.0000 -10539.7506 1451.3278 0.0000 0.0000 1765.4483 -7312.2999 304.1993 -9077.7483 -7382.5156 302.7336 499.1865 508.9071 29738.9660 176.1315 233.5959
ENERGY: 1500000 0.3589 4.7487 0.8773 0.0000 -10598.9233 1425.6430 0.0000 0.0000 1726.8134 -7440.4820 297.5422 -9167.2954 -7386.8860 301.7924 -77.3125 38.1790 29953.7622 96.4168 153.8316
TCL: Running FEP window  15: Lambda1 0.7000000000000001 Lambda2 0.7500000000000001 [dLambda 0.050000000000000044]
TCL: Setting parameter firsttimestep to 0
TCL: Setting parameter alchLambda to 0.7000000000000001
Info: NONBONDED TABLE R-SQUARED SPACING: 0.0625
Info: NONBONDED TABLE SIZE: 705 POINTS
TCL: Setting parameter alchLambda2 to 0.7500000000000001
Info: NONBONDED TABLE R-SQUARED SPACING: 0.0625
Info: NONBONDED TABLE SIZE: 705 POINTS
TCL: Running for 1500000 steps
ETITLE: TS BOND ANGLE DIHED IMPRP ELECT VDW BOUNDARY MISC KINETIC TOTAL TEMP POTENTIAL TOTALAVG TEMPAVG PRESSURE GPRESSURE VOLUME PRESSAVG GPRESSAVG
ENERGY: 0 0.3589 4.7487 0.8773 0.0000 -10599.2836 1425.2754 0.0000 0.0000 1725.9313 -7442.0921 297.3902 -9168.0233 -7442.0921 297.3902 -48.3126 42.8725 29953.7622 -48.3126 42.8725
ENERGY: 300000 0.7900 5.9395 1.1551 0.0000 -10486.4628 1400.0163 0.0000 0.0000 1676.8943 -7401.6675 288.9408 -9078.5619 -7390.5730 297.5976 -160.1256 -108.5222 30327.4954 -74.9569 -23.4024
ENERGY: 600000 0.5796 4.7639 0.7670 0.0000 -10641.3663 1441.9918 0.0000 0.0000 1754.0787 -7439.1853 302.2402 -9193.2640 -7395.7351 299.8803 71.0404 150.4716 29714.6092 -167.3464 -111.3790
ENERGY: 900000 2.1920 5.6767 1.2064 0.0000 -10566.6666 1412.3975 0.0000 0.0000 1748.7429 -7396.4511 301.3208 -9145.1940 -7402.8747 300.0985 -414.3484 -348.4285 30566.0502 -209.6645 -149.0604
ENERGY: 1200000 2.6713 4.4313 1.3224 0.0000 -10545.0326 1380.1875 0.0000 0.0000 1695.2336 -7461.1865 292.1008 -9156.4200 -7404.0683 299.8494 -427.2648 -358.1285 30035.3096 -221.0929 -157.4154
ENERGY: 1500000 0.5147 5.2320 0.9446 0.0000 -10559.6169 1422.6080 0.0000 0.0000 1730.7933 -7399.5244 298.2280 -9130.3177 -7407.4607 299.9771 118.7269 174.0481 30004.5610 -224.4971 -158.1316
TCL: Running FEP window  16: Lambda1 0.7500000000000001 Lambda2 0.8000000000000002 [dLambda 0.050000000000000044]
TCL: Setting parameter firsttimestep to 0
TCL: Setting parameter alchLambda to 0.7500000000000001
Info: NONBONDED TABLE R-SQUARED SPACING: 0.0625
Info: NONBONDED TABLE SIZE: 705 POINTS
TCL: Setting parameter alchLambda2 to 0.8000000000000002
Info: NONBONDED TABLE R-SQUARED SPACING: 0.0625
Info: NONBONDED TABLE SIZE: 705 POINTS
TCL: Running for 1500000 steps
ETITLE: TS BOND ANGLE DIHED IMPRP ELECT VDW BOUNDARY MISC KINETIC TOTAL TEMP POTENTIAL TOTALAVG TEMPAVG PRESSURE GPRESSURE VOLUME PRESSAVG GPRESSAVG
ENERGY: 0 0.5147 5.2320 0.9446 0.0000 -10560.0902 1422.3104 0.0000 0.0000 1729.8969 -7401.1917 298.0735 -9131.0885 -7401.1917 298.0735 110.6183 178.1740 30004.5610 110.6183 178.1740
ENERGY: 300000 0.4215 10.4089 0.8023 0.0000 -10574.1343 1409.4250 0.0000 0.0000 1712.6966 -7440.3800 295.1098 -9153.0766 -7420.3289 301.6214 179.3777 192.2749 29607.3820 34.0063 81.7392
ENERGY: 600000 1.3328 7.7041 1.0059 0.0000 -10480.6684 1401.9215 0.0000 0.0000 1739.2206 -7329.4835 299.6801 -9068.7041 -7393.4287 301.6835 -113.8665 -110.0916 30227.3018 -24.8559 26.8214
ENERGY: 900000 0.3740 8.5641 1.0651 0.0000 -10552.0686 1403.0066 0.0000 0.0000 1739.0471 -7400.0117 299.6502 -9139.0588 -7396.2452 300.7206 79.8674 187.2554 29884.6942 -39.6700 8.7977
ENERGY: 1200000 0.4266 3.8102 2.9213 0.0000 -10383.6258 1302.6416 0.0000 0.0000 1748.6069 -7325.2192 301.2974 -9073.8261 -7386.5998 300.1081 -704.7887 -685.9534 30268.9137 -30.3022 18.5121
ENERGY: 1500000 1.1940 6.4799 1.6506 0.0000 -10604.3117 1440.0469 0.0000 0.0000 1725.4544 -7429.4859 297.3080 -9154.9403 -7389.7972 299.7111 119.2981 194.5522 30189.5629 -13.6466 44.0508
TCL: Running FEP window  17: Lambda1 0.8000000000000002 Lambda2 0.8500000000000002 [dLambda 0.050000000000000044]
TCL: Setting parameter firsttimestep to 0
TCL: Setting parameter alchLambda to 0.8000000000000002
Info: NONBONDED TABLE R-SQUARED SPACING: 0.0625
Info: NONBONDED TABLE SIZE: 705 POINTS
TCL: Setting parameter alchLambda2 to 0.8500000000000002
Info: NONBONDED TABLE R-SQUARED SPACING: 0.0625
Info: NONBONDED TABLE SIZE: 705 POINTS
TCL: Running for 1500000 steps
ETITLE: TS BOND ANGLE DIHED IMPRP ELECT VDW BOUNDARY MISC KINETIC TOTAL TEMP POTENTIAL TOTALAVG TEMPAVG PRESSURE GPRESSURE VOLUME PRESSAVG GPRESSAVG
ENERGY: 0 1.1940 6.4799 1.6506 0.0000 -10604.3925 1439.7359 0.0000 0.0000 1724.6078 -7430.7243 297.1622 -9155.3321 -7430.7243 297.1622 135.5438 203.7546 30189.5629 135.5438 203.7546
ENERGY: 300000 2.9368 11.3075 2.6324 0.0000 -10558.8042 1434.6515 0.0000 0.0000 1759.7479 -7347.5281 303.2171 -9107.2760 -7391.0934 299.8372 213.5457 293.5274 29947.2062 -5.8766 32.3899
ENERGY: 600000 0.5688 10.8342 1.7473 0.0000 -10466.6212 1420.2928 0.0000 0.0000 1775.4253 -7257.7528 305.9184 -9033.1781 -7374.1504 300.7090 160.6134 186.1359 30299.5539 69.1719 107.2260
ENERGY: 900000 3.1489 4.9784 1.1499 0.0000 -10506.8887 1331.6507 0.0000 0.0000 1745.8054 -7420.1553 300.8147 -9165.9607 -7385.2024 300.6826 -857.2146 -850.9264 30102.9340 -111.6585 -65.6812
ENERGY: 1200000 0.7178 4.2064 1.0612 0.0000 -10451.5302 1366.0533 0.0000 0.0000 1757.0537 -7322.4379 302.7528 -9079.4915 -7387.2879 299.6358 -286.9474 -258.0720 30060.5761 -151.3280 -99.6457
ENERGY: 1500000 1.1925 7.7456 3.6969 0.0000 -10427.3275 1336.2163 0.0000 0.0000 1717.6212 -7360.8552 295.9583 -9078.4764 -7382.8445 299.6402 -558.5802 -480.3178 30403.2801 -238.3447 -181.8749
TCL: Running FEP window  18: Lambda1 0.8500000000000002 Lambda2 0.9000000000000002 [dLambda 0.050000000000000044]
TCL: Setting parameter firsttimestep to 0
TCL: Setting parameter alchLambda to 0.8500000000000002
Info: NONBONDED TABLE R-SQUARED SPACING: 0.0625
Info: NONBONDED TABLE SIZE: 705 POINTS
TCL: Setting parameter alchLambda2 to 0.9000000000000002
Info: NONBONDED TABLE R-SQUARED SPACING: 0.0625
Info: NONBONDED TABLE SIZE: 705 POINTS
TCL: Running for 1500000 steps
ETITLE: TS BOND ANGLE DIHED IMPRP ELECT VDW BOUNDARY MISC KINETIC TOTAL TEMP POTENTIAL TOTALAVG TEMPAVG PRESSURE GPRESSURE VOLUME PRESSAVG GPRESSAVG
ENERGY: 0 1.1925 7.7456 3.6969 0.0000 -10427.8346 1336.5080 0.0000 0.0000 1716.7581 -7361.9336 295.8096 -9078.6917 -7361.9336 295.8096 -557.1474 -467.8429 30403.2801 -557.1474 -467.8429
ENERGY: 300000 1.4083 7.2070 2.1375 0.0000 -10594.9274 1400.4674 0.0000 0.0000 1769.8812 -7413.8260 304.9631 -9183.7072 -7399.9124 298.0361 -193.6249 -168.6988 29997.2013 -134.7338 -76.4638
ENERGY: 600000 3.3111 6.5951 0.9078 0.0000 -10406.0743 1334.0934 0.0000 0.0000 1751.4566 -7309.7104 301.7884 -9061.1670 -7375.4579 299.9910 -902.4863 -782.6988 30804.7291 -221.0594 -154.2416
ENERGY: 900000 0.7408 7.9297 0.8506 0.0000 -10553.7459 1427.0036 0.0000 0.0000 1733.8237 -7383.3975 298.7501 -9117.2212 -7380.3360 300.8535 127.1029 172.3999 30105.1960 -206.6959 -138.8043
ENERGY: 1200000 0.7134 4.0580 1.2857 0.0000 -10457.4423 1328.6985 0.0000 0.0000 1751.1091 -7371.5778 301.7285 -9122.6869 -7383.6660 300.1559 -617.4403 -632.1847 30399.1213 -201.6629 -144.2847
ENERGY: 1500000 0.1867 5.8291 0.6122 0.0000 -10609.9063 1487.6189 0.0000 0.0000 1779.8436 -7335.8157 306.6797 -9115.6593 -7384.2008 300.3752 483.1753 518.4027 30322.2467 -140.5441 -84.8100
TCL: Running FEP window  19: Lambda1 0.9000000000000002 Lambda2 0.9500000000000003 [dLambda 0.050000000000000044]
TCL: Setting parameter firsttimestep to 0
TCL: Setting parameter alchLambda to 0.9000000000000002
Info: NONBONDED TABLE R-SQUARED SPACING: 0.0625
Info: NONBONDED TABLE SIZE: 705 POINTS
TCL: Setting parameter alchLambda2 to 0.9500000000000003
Info: NONBONDED TABLE R-SQUARED SPACING: 0.0625
Info: NONBONDED TABLE SIZE: 705 POINTS
TCL: Running for 1500000 steps
ETITLE: TS BOND ANGLE DIHED IMPRP ELECT VDW BOUNDARY MISC KINETIC TOTAL TEMP POTENTIAL TOTALAVG TEMPAVG PRESSURE GPRESSURE VOLUME PRESSAVG GPRESSAVG
ENERGY: 0 0.1867 5.8291 0.6122 0.0000 -10610.0862 1487.4626 0.0000 0.0000 1778.9596 -7337.0359 306.5274 -9115.9955 -7337.0359 306.5274 460.4620 526.4635 30322.2467 460.4620 526.4635
ENERGY: 300000 0.4850 5.1160 0.6195 0.0000 -10440.1326 1354.9452 0.0000 0.0000 1751.0757 -7327.8912 301.7228 -9078.9669 -7344.9357 307.2603 -546.2613 -472.0672 30621.0818 7.9593 76.5872
ENERGY: 600000 0.1255 5.8633 1.5129 0.0000 -10564.3762 1411.3606 0.0000 0.0000 1767.2245 -7378.2894 304.5053 -9145.5139 -7363.3278 304.8544 -50.1316 48.0170 30096.2294 49.4689 110.7127
ENERGY: 900000 1.7603 9.4106 4.0006 0.0000 -10541.0796 1421.0572 0.0000 0.0000 1730.2045 -7374.6463 298.1265 -9104.8508 -7363.0182 304.1645 116.6219 135.0974 29982.4993 -43.2355 27.2980
ENERGY: 1200000 0.3906 7.6324 2.0682 0.0000 -10391.3670 1264.1018 0.0000 0.0000 1744.7478 -7372.4263 300.6324 -9117.1741 -7369.1281 304.1245 -1234.5452 -1236.1931 30435.4293 -141.6669 -78.4720
ENERGY: 1500000 1.0916 7.7848 0.9822 0.0000 -10565.3348 1406.8163 0.0000 0.0000 1690.8034 -7457.8565 291.3374 -9148.6600 -7381.4117 302.4593 -236.0005 -193.0991 30100.4036 -138.3669 -72.1645
TCL: Running FEP window  20: Lambda1 0.9500000000000003 Lambda2 1.0    [dLambda 0.04999999999999971]
TCL: Setting parameter firsttimestep to 0
TCL: Setting parameter alchLambda to 0.9500000000000003
Info: NONBONDED TABLE R-SQUARED SPACING: 0.0625
Info: NONBONDED TABLE SIZE: 705 POINTS
TCL: Setting parameter alchLambda2 to 1.0
Info: NONBONDED TABLE R-SQUARED SPACING: 0.0625
Info: NONBONDED TABLE SIZE: 705 POINTS
TCL: Running for 1500000 steps
ETITLE: TS BOND ANGLE DIHED IMPRP ELECT VDW BOUNDARY MISC KINETIC TOTAL TEMP POTENTIAL TOTALAVG TEMPAVG PRESSURE GPRESSURE VOLUME PRESSAVG GPRESSAVG
ENERGY: 0 1.0916 7.7848 0.9822 0.0000 -10565.6918 1407.3788 0.0000 0.0000 1689.9199 -7458.5345 291.1852 -9148.4544 -7458.5345 291.1852 -261.1034 -178.0449 30100.4036 -261.1034 -178.0449
ENERGY: 300000 2.9037 8.1904 3.0577 0.0000 -10530.6724 1378.9512 0.0000 0.0000 1700.0859 -7437.4835 292.9369 -9137.5694 -7430.4407 295.6348 -484.7659 -439.6602 30302.4977 -204.9734 -137.3602
ENERGY: 600000 2.5845 7.3281 0.7869 0.0000 -10584.1948 1414.9565 0.0000 0.0000 1767.4790 -7391.0597 304.5492 -9158.5387 -7407.4836 299.4606 -48.1574 -59.0353 30147.5227 -216.2632 -164.0091
ENERGY: 900000 2.6424 5.9189 1.9702 0.0000 -10544.8130 1390.2726 0.0000 0.0000 1718.0712 -7425.9378 296.0359 -9144.0091 -7415.1864 298.8414 -343.7758 -234.8173 30295.9256 -3.1919 56.3443
ENERGY: 1200000 1.2182 8.1552 0.9933 0.0000 -10520.1492 1309.4495 0.0000 0.0000 1751.1474 -7449.1855 301.7351 -9200.3329 -7406.3244 300.0877 -1382.1215 -1360.1731 30676.2792 -13.3439 43.9629
ENERGY: 1500000 1.0086 6.9736 0.9460 0.0000 -10479.3157 1344.1916 0.0000 0.0000 1718.5640 -7407.6320 296.1208 -9126.1960 -7401.9416 299.9817 -478.1165 -415.3188 29869.2826 -65.3133 -10.3559
TCL: Exiting due to exit command.
