Info: SIMULATION PARAMETERS:
Info: TIMESTEP               2
Info: NUMBER OF STEPS        0
Info: STEPS PER CYCLE        10
Info: PERIODIC CELL BASIS 1  30.9067 0 0
Info: PERIODIC CELL BASIS 2  0 30.2446 0
Info: PERIODIC CELL BASIS 3  0 0 31.9564
Info: PERIODIC CELL CENTER   0 0 0
Info: WRAPPING WATERS AROUND PERIODIC BOUNDARIES ON OUTPUT.
Info: WRAPPING ALL CLUSTERS AROUND PERIODIC BOUNDARIES ON OUTPUT.
Info: FIRST LDB TIMESTEP     50
Info: LAST LDB TIMESTEP     -1
Info: HOM BACKGROUND SCALING 1
Info: PME BACKGROUND SCALING 1
Info: MIN ATOMS PER PATCH    40
Info: EMPTY PATCH LOAD       40 ATOMS
Info: VELOCITY FILE          mobley_6727159_equil.vel
Info: CENTER OF MASS MOVING INITIALLY? NO
Info: DIELECTRIC             1
Info: EXCLUDE                SCALED ONE-FOUR
Info: 1-4 ELECTROSTATICS SCALED BY 0.833333
Info: MODIFIED 1-4 VDW PARAMETERS WILL BE USED
Info: DCD FILENAME           mobley_6727159_prod.dcd
Info: DCD FREQUENCY          100000
Info: DCD FIRST STEP         100000
Info: DCD FILE WILL CONTAIN UNIT CELL DATA
Info: XST FILENAME           mobley_6727159_prod.xst
Info: XST FREQUENCY          100000
Info: NO VELOCITY DCD OUTPUT
Info: NO FORCE DCD OUTPUT
Info: OUTPUT FILENAME        mobley_6727159_prod
Info: BINARY OUTPUT FILES WILL BE USED
Info: RESTART FILENAME       mobley_6727159_prod.restart
Info: RESTART FREQUENCY      100000
Info: BINARY RESTART FILES WILL BE USED
Info: CUTOFF                 9
Info: PAIRLIST DISTANCE      11
Info: PAIRLIST SHRINK RATE   0.01
Info: PAIRLIST GROW RATE     0.01
Info: PAIRLIST TRIGGER       0.3
Info: PAIRLISTS PER CYCLE    2
Info: PAIRLISTS ENABLED
Info: MARGIN                 2
Info: HYDROGEN GROUP CUTOFF  2.5
Info: PATCH DIMENSION        15.5
Info: ENERGY OUTPUT STEPS    100000
Info: ENERGY EVALUATION STEPS    100000
Info: OUTPUT ENERGY PRECISION 4
Info: CROSSTERM ENERGY INCLUDED IN DIHEDRAL
Info: TIMING OUTPUT STEPS    1000000
Info: PRESSURE OUTPUT STEPS  100000
Info: ALCHEMICAL FEP ON
Info: FEP CURRENT LAMBDA VALUE     1
Info: FEP COMPARISON LAMBDA VALUE  0.95
Info: FEP INTRA-ALCHEMICAL NON-BONDED INTERACTIONS WILL BE RETAINED
Info: FEP INTRA-ALCHEMICAL BONDED INTERACTIONS WILL BE RETAINED
Info: FEP VDW SHIFTING COEFFICIENT 5
Info: FEP ELEC. ACTIVE FOR ANNIHILATED PARTICLES BETWEEN LAMBDA = 0 AND LAMBDA = 0.5
Info: FEP ELEC. ACTIVE FOR EXNIHILATED PARTICLES BETWEEN LAMBDA = 0.5 AND LAMBDA = 1
Info: FEP VDW ACTIVE FOR ANNIHILATED PARTICLES BETWEEN LAMBDA = 0 AND LAMBDA = 1
Info: FEP VDW ACTIVE FOR EXNIHILATED PARTICLES BETWEEN LAMBDA = 0 AND LAMBDA = 1
Info: FEP BOND ACTIVE FOR ANNIHILATED PARTICLES BETWEEN LAMBDA = 1 AND LAMBDA = 1
Info: FEP BOND ACTIVE FOR EXNIHILATED PARTICLES BETWEEN LAMBDA = 0 AND LAMBDA = 0
Info: LANGEVIN DYNAMICS ACTIVE
Info: LANGEVIN TEMPERATURE   300
Info: LANGEVIN USING BBK INTEGRATOR
Info: LANGEVIN DAMPING COEFFICIENT IS 1 INVERSE PS
Info: LANGEVIN DYNAMICS APPLIED TO HYDROGENS
Info: LANGEVIN PISTON PRESSURE CONTROL ACTIVE
Info:        TARGET PRESSURE IS 1.01325 BAR
Info:     OSCILLATION PERIOD IS 50 FS
Info:             DECAY TIME IS 25 FS
Info:     PISTON TEMPERATURE IS 300 K
Info:       PRESSURE CONTROL IS GROUP-BASED
Info:    INITIAL STRAIN RATE IS -3.09333e-05 -3.09333e-05 -3.09333e-05
Info:       CELL FLUCTUATION IS ISOTROPIC
Info: PARTICLE MESH EWALD (PME) ACTIVE
Info: PME TOLERANCE               1e-06
Info: PME EWALD COEFFICIENT       0.348832
Info: PME INTERPOLATION ORDER     4
Info: PME GRID DIMENSIONS         32 32 32
Info: PME MAXIMUM GRID SPACING    1
Info: PME CALCULATION WILL BE PERFORMED ON GPU
Info: FULL ELECTROSTATIC EVALUATION FREQUENCY      2
Info: USING VERLET I (r-RESPA) MTS SCHEME.
Info: C1 SPLITTING OF LONG RANGE ELECTROSTATICS
Info: PLACING ATOMS IN PATCHES BY HYDROGEN GROUPS
Info: RIGID BONDS TO HYDROGEN : ALL
Info:         ERROR TOLERANCE : 1e-08
Info:          MAX ITERATIONS : 100
Info: RIGID WATER USING SETTLE ALGORITHM
Info: RANDOM NUMBER SEED     1743900729
Info: USE HYDROGEN BONDS?    NO
Info: Using AMBER format force field!
Info: AMBER PARM FILE        mobley_6727159.prmtop
Info: COORDINATE PDB         mobley_6727159.pdb
Info: Exclusions will be read from PARM file!
Info: SCNB (VDW SCALING)     2
Info: USING ARITHMETIC MEAN TO COMBINE L-J SIGMA PARAMETERS
Info: BINARY COORDINATES     mobley_6727159_equil.coor
Info: SUMMARY OF PARAMETERS:
Info: 9 BONDS
Info: 10 ANGLES
Info:   10 HARMONIC
Info:   0 COSINE-BASED
Info: 9 DIHEDRAL
Info: 0 IMPROPER
Info: 0 CROSSTERM
Info: 0 VDW
Info: 36 VDW_PAIRS
Info: 0 NBTHOLE_PAIRS
Info: To read alchdata from file: mobley_6727159.pdb
Info: To read alchflag data from column: 5
Info: STRUCTURE SUMMARY:
Info: 2940 ATOMS
Info: 2939 BONDS
Info: 17 ANGLES
Info: 23 DIHEDRALS
Info: 0 IMPROPERS
Info: 0 CROSSTERMS
Info: 2973 EXCLUSIONS
Info: 2933 RIGID BONDS
Info: ALCH: 0 ATOMS TO DISAPPEAR IN FINAL STATE
Info: ALCH: 12 ATOMS TO APPEAR IN FINAL STATE
Info: 5887 DEGREES OF FREEDOM
Info: 983 HYDROGEN GROUPS
Info: 3 ATOMS IN LARGEST HYDROGEN GROUP
Info: 983 MIGRATION GROUPS
Info: 3 ATOMS IN LARGEST MIGRATION GROUP
Info: TOTAL MASS = 17690.7 amu
Info: TOTAL CHARGE = 0.000100009 e
Info: MASS DENSITY = 0.983436 g/cm^3
Info: ATOM DENSITY = 0.0984214 atoms/A^3
Info: ADDED 0 IMPLICIT EXCLUSIONS
Info: NONBONDED TABLE R-SQUARED SPACING: 0.0625
Info: NONBONDED TABLE SIZE: 705 POINTS
Info: REMOVING COM VELOCITY 0.0836472 -0.0534379 0.0430838
Info: Use 3D box decompostion in PME FFT.
Info: Updated CUDA force table with 4096 elements.
Info: Updated CUDA LJ table with 8 x 8 elements.
Info: Found 15 unique exclusion lists needing 28 bytes
TCL: Running for 1500000 steps
ETITLE: TS BOND ANGLE DIHED IMPRP ELECT VDW BOUNDARY MISC KINETIC TOTAL TEMP POTENTIAL TOTALAVG TEMPAVG PRESSURE GPRESSURE VOLUME PRESSAVG GPRESSAVG
ENERGY: 0 2.7248 4.6408 3.2186 0.0000 -10753.9910 1417.9544 0.0000 0.0000 1743.5994 -7581.8531 298.0870 -9325.4525 -7581.8531 298.0870 -325.7830 -242.8934 29871.5578 -325.7830 -242.8934
ENERGY: 300000 1.2919 5.0695 5.9128 0.0000 -10593.3872 1404.7894 0.0000 0.0000 1769.1453 -7407.1783 302.4544 -9176.3236 -7497.5799 303.0077 -155.6782 -71.6147 30422.7204 123.1876 212.1639
ENERGY: 600000 2.8933 4.9546 3.4860 0.0000 -10714.3367 1433.3029 0.0000 0.0000 1734.6510 -7535.0489 296.5572 -9269.6999 -7505.9514 299.3589 -64.1561 -42.2432 29979.1247 -26.9099 48.0937
ENERGY: 900000 3.2328 4.4131 3.6702 0.0000 -10644.4064 1421.5816 0.0000 0.0000 1750.8213 -7460.6873 299.3217 -9211.5086 -7494.3196 299.4637 -103.7205 -13.5393 30192.2906 -72.1477 12.7664
ENERGY: 1200000 1.7609 3.8730 2.0943 0.0000 -10538.4174 1325.5052 0.0000 0.0000 1767.2050 -7437.9790 302.1226 -9205.1840 -7485.1915 300.2175 -757.9964 -682.1043 30325.1236 -177.9859 -102.0120
ENERGY: 1500000 1.6991 6.0877 3.4215 0.0000 -10585.9897 1392.1280 0.0000 0.0000 1762.6466 -7420.0068 301.3433 -9182.6534 -7469.5296 301.6124 -250.9349 -204.9668 30561.0376 -143.5562 -75.7887
TCL: Running FEP window   2: Lambda1 0.95   Lambda2 0.8999999999999999 [dLambda -0.050000000000000044]
TCL: Setting parameter firsttimestep to 0
TCL: Setting parameter alchLambda to 0.95
Info: NONBONDED TABLE R-SQUARED SPACING: 0.0625
Info: NONBONDED TABLE SIZE: 705 POINTS
TCL: Setting parameter alchLambda2 to 0.8999999999999999
Info: NONBONDED TABLE R-SQUARED SPACING: 0.0625
Info: NONBONDED TABLE SIZE: 705 POINTS
TCL: Running for 1500000 steps
ETITLE: TS BOND ANGLE DIHED IMPRP ELECT VDW BOUNDARY MISC KINETIC TOTAL TEMP POTENTIAL TOTALAVG TEMPAVG PRESSURE GPRESSURE VOLUME PRESSAVG GPRESSAVG
ENERGY: 0 1.6991 6.0877 3.4215 0.0000 -10583.5881 1391.1580 0.0000 0.0000 1761.7485 -7419.4734 301.1898 -9181.2219 -7419.4734 301.1898 -312.7638 -222.5917 30561.0376 -312.7638 -222.5917
ENERGY: 300000 1.7076 2.6985 2.9882 0.0000 -10669.9268 1507.4664 0.0000 0.0000 1708.2495 -7446.8166 292.0436 -9155.0661 -7490.5256 296.6946 745.6292 849.0202 30367.9310 58.0043 130.8397
ENERGY: 600000 1.8584 1.4672 2.0961 0.0000 -10541.7876 1364.3267 0.0000 0.0000 1728.4871 -7443.5522 295.5034 -9172.0393 -7483.5334 299.5609 -219.2476 -163.7423 29988.2460 158.9469 219.9357
ENERGY: 900000 2.6920 11.5298 3.2183 0.0000 -10616.1816 1391.3217 0.0000 0.0000 1749.3347 -7458.0851 299.0675 -9207.4198 -7477.9015 300.2721 -53.6080 -16.4556 29806.4447 77.5619 127.8350
ENERGY: 1200000 2.8284 5.3027 2.1394 0.0000 -10699.1267 1439.7473 0.0000 0.0000 1738.4504 -7510.6585 297.2067 -9249.1089 -7479.9589 300.2005 -129.7699 -95.6138 30671.3108 40.0451 89.7216
ENERGY: 1500000 2.7606 6.2056 1.9891 0.0000 -10604.1529 1381.7548 0.0000 0.0000 1771.1692 -7440.2737 302.8004 -9211.4429 -7472.2810 300.4223 -280.3782 -252.5833 30370.2746 46.2083 95.0707
TCL: Running FEP window   3: Lambda1 0.8999999999999999 Lambda2 0.8499999999999999 [dLambda -0.050000000000000044]
TCL: Setting parameter firsttimestep to 0
TCL: Setting parameter alchLambda to 0.8999999999999999
Info: NONBONDED TABLE R-SQUARED SPACING: 0.0625
Info: NONBONDED TABLE SIZE: 705 POINTS
TCL: Setting parameter alchLambda2 to 0.8499999999999999
Info: NONBONDED TABLE R-SQUARED SPACING: 0.0625
Info: NONBONDED TABLE SIZE: 705 POINTS
TCL: Running for 1500000 steps
ETITLE: TS BOND ANGLE DIHED IMPRP ELECT VDW BOUNDARY MISC KINETIC TOTAL TEMP POTENTIAL TOTALAVG TEMPAVG PRESSURE GPRESSURE VOLUME PRESSAVG GPRESSAVG
ENERGY: 0 2.7606 6.2056 1.9891 0.0000 -10601.9608 1381.4968 0.0000 0.0000 1770.3353 -7439.1733 302.6578 -9209.5087 -7439.1733 302.6578 -338.2238 -263.0263 30370.2746 -338.2238 -263.0263
ENERGY: 300000 1.7445 5.2224 2.8437 0.0000 -10633.3156 1416.8662 0.0000 0.0000 1775.3800 -7431.2589 303.5202 -9206.6388 -7426.5725 301.9920 -143.8010 -122.5096 30501.8539 -305.5065 -223.2429
ENERGY: 600000 3.0666 5.1131 2.5209 0.0000 -10668.7357 1415.5439 0.0000 0.0000 1756.7959 -7485.6952 300.3431 -9242.4911 -7434.1165 303.1806 -116.8247 -155.4403 30195.8145 -10.2249 47.0791
ENERGY: 900000 2.4598 4.1862 5.2175 0.0000 -10633.8820 1336.6740 0.0000 0.0000 1743.2470 -7542.0975 298.0268 -9285.3445 -7445.9397 302.0458 -996.2863 -949.4073 30023.6225 -136.9310 -87.8957
ENERGY: 1200000 2.2789 3.3098 3.5287 0.0000 -10601.4416 1364.8156 0.0000 0.0000 1766.2253 -7461.2832 301.9552 -9227.5084 -7444.5589 300.7292 -458.3639 -435.4838 30119.5976 -106.4826 -57.9616
ENERGY: 1500000 3.2056 2.7455 2.7130 0.0000 -10691.4974 1447.9823 0.0000 0.0000 1809.5748 -7425.2762 309.3662 -9234.8510 -7444.0542 300.8118 -367.8128 -303.8790 31021.9714 -166.6032 -114.7465
TCL: Running FEP window   4: Lambda1 0.8499999999999999 Lambda2 0.7999999999999998 [dLambda -0.050000000000000044]
TCL: Setting parameter firsttimestep to 0
TCL: Setting parameter alchLambda to 0.8499999999999999
Info: NONBONDED TABLE R-SQUARED SPACING: 0.0625
Info: NONBONDED TABLE SIZE: 705 POINTS
TCL: Setting parameter alchLambda2 to 0.7999999999999998
Info: NONBONDED TABLE R-SQUARED SPACING: 0.0625
Info: NONBONDED TABLE SIZE: 705 POINTS
TCL: Running for 1500000 steps
ETITLE: TS BOND ANGLE DIHED IMPRP ELECT VDW BOUNDARY MISC KINETIC TOTAL TEMP POTENTIAL TOTALAVG TEMPAVG PRESSURE GPRESSURE VOLUME PRESSAVG GPRESSAVG
ENERGY: 0 3.2056 2.7455 2.7130 0.0000 -10689.7576 1447.9445 0.0000 0.0000 1808.6853 -7424.4637 309.2141 -9233.1490 -7424.4637 309.2141 -392.3735 -308.9203 31021.9714 -392.3735 -308.9203
ENERGY: 300000 5.5738 3.5105 5.1045 0.0000 -10615.0571 1391.0065 0.0000 0.0000 1780.9101 -7428.9517 304.4657 -9209.8618 -7466.4742 300.9351 -329.1868 -288.1235 30334.7380 -191.0470 -111.7066
ENERGY: 600000 2.4020 3.3839 2.3049 0.0000 -10660.6991 1438.7386 0.0000 0.0000 1751.9855 -7461.8840 299.5207 -9213.8695 -7487.4883 300.2288 -112.0983 -87.0057 30706.8630 -211.0240 -129.1181
ENERGY: 900000 1.9313 2.7954 2.4260 0.0000 -10642.1650 1403.4302 0.0000 0.0000 1711.0144 -7520.5675 292.5163 -9231.5820 -7474.5777 300.2308 -319.1449 -262.2281 30373.9485 -193.6613 -116.0422
ENERGY: 1200000 0.9603 3.9572 3.7889 0.0000 -10598.7265 1373.1534 0.0000 0.0000 1777.7717 -7439.0952 303.9291 -9216.8668 -7482.5151 300.0493 -356.0846 -400.6211 30340.5732 -164.8088 -100.7685
ENERGY: 1500000 0.2179 5.0732 2.3325 0.0000 -10625.5279 1417.8259 0.0000 0.0000 1767.5930 -7432.4854 302.1890 -9200.0784 -7474.4192 299.7768 56.9701 59.4223 30258.0425 -141.7652 -78.7148
TCL: Running FEP window   5: Lambda1 0.7999999999999998 Lambda2 0.7499999999999998 [dLambda -0.050000000000000044]
TCL: Setting parameter firsttimestep to 0
TCL: Setting parameter alchLambda to 0.7999999999999998
Info: NONBONDED TABLE R-SQUARED SPACING: 0.0625
Info: NONBONDED TABLE SIZE: 705 POINTS
TCL: Setting parameter alchLambda2 to 0.7499999999999998
Info: NONBONDED TABLE R-SQUARED SPACING: 0.0625
Info: NONBONDED TABLE SIZE: 705 POINTS
TCL: Running for 1500000 steps
ETITLE: TS BOND ANGLE DIHED IMPRP ELECT VDW BOUNDARY MISC KINETIC TOTAL TEMP POTENTIAL TOTALAVG TEMPAVG PRESSURE GPRESSURE VOLUME PRESSAVG GPRESSAVG
ENERGY: 0 0.2179 5.0732 2.3325 0.0000 -10624.4343 1417.9881 0.0000 0.0000 1766.7221 -7432.1004 302.0401 -9198.8225 -7432.1004 302.0401 -38.3505 54.5326 30258.0425 -38.3505 54.5326
ENERGY: 300000 0.8021 4.2855 2.0387 0.0000 -10590.3726 1416.8713 0.0000 0.0000 1745.1169 -7421.2581 298.3464 -9166.3750 -7457.2457 301.9105 -35.0561 47.7360 30085.9076 97.0011 194.3743
ENERGY: 600000 1.4886 5.2013 4.6266 0.0000 -10567.1984 1380.8925 0.0000 0.0000 1764.4791 -7410.5104 301.6566 -9174.9895 -7432.7007 302.8158 73.7765 93.7336 29790.0833 -52.8351 45.1355
ENERGY: 900000 2.7481 5.4679 1.9779 0.0000 -10522.1643 1353.9805 0.0000 0.0000 1762.1235 -7395.8664 301.2539 -9157.9899 -7431.2462 302.2923 -648.9366 -577.8731 30693.5996 -26.3296 57.0234
ENERGY: 1200000 1.3428 3.6395 3.7324 0.0000 -10582.1485 1413.5618 0.0000 0.0000 1740.4780 -7419.3939 297.5534 -9159.8719 -7434.2455 301.6940 -14.6262 22.0123 30359.7486 -49.2208 30.3631
ENERGY: 1500000 1.4576 2.6031 1.7008 0.0000 -10726.5738 1462.3130 0.0000 0.0000 1810.4193 -7448.0799 309.5106 -9258.4993 -7437.7864 301.7035 312.2499 340.3962 30068.3404 -87.2093 -14.4502
TCL: Running FEP window   6: Lambda1 0.7499999999999998 Lambda2 0.6999999999999997 [dLambda -0.050000000000000044]
TCL: Setting parameter firsttimestep to 0
TCL: Setting parameter alchLambda to 0.7499999999999998
Info: NONBONDED TABLE R-SQUARED SPACING: 0.0625
Info: NONBONDED TABLE SIZE: 705 POINTS
TCL: Setting parameter alchLambda2 to 0.6999999999999997
Info: NONBONDED TABLE R-SQUARED SPACING: 0.0625
Info: NONBONDED TABLE SIZE: 705 POINTS
TCL: Running for 1500000 steps
ETITLE: TS BOND ANGLE DIHED IMPRP ELECT VDW BOUNDARY MISC KINETIC TOTAL TEMP POTENTIAL TOTALAVG TEMPAVG PRESSURE GPRESSURE VOLUME PRESSAVG GPRESSAVG
ENERGY: 0 1.4576 2.6031 1.7008 0.0000 -10724.7801 1461.5917 0.0000 0.0000 1809.5319 -7447.8950 309.3589 -9257.4270 -7447.8950 309.3589 239.6877 328.1922 30068.3404 239.6877 328.1922
ENERGY: 300000 1.0269 4.1300 2.4530 0.0000 -10590.0359 1430.9879 0.0000 0.0000 1723.9378 -7427.5003 294.7257 -9151.4381 -7428.8285 300.2714 97.6296 212.2637 30180.7032 87.3137 148.2522
ENERGY: 600000 1.7431 4.1391 4.1115 0.0000 -10555.3252 1364.6244 0.0000 0.0000 1726.9834 -7453.7237 295.2463 -9180.7071 -7457.9688 297.6359 -370.7256 -369.2122 30378.2940 -54.9675 -7.7937
ENERGY: 900000 1.5475 4.0984 3.5796 0.0000 -10593.6904 1372.0132 0.0000 0.0000 1692.7390 -7519.7127 289.3919 -9212.4517 -7448.2226 297.1268 -452.1057 -374.4713 30215.6935 -175.7386 -121.2037
ENERGY: 1200000 0.9592 8.5288 2.0252 0.0000 -10637.6533 1426.7887 0.0000 0.0000 1766.7971 -7432.5543 302.0529 -9199.3513 -7444.1055 298.0596 -80.2469 -64.7288 30400.9493 -117.6902 -63.2955
ENERGY: 1500000 0.6865 2.5423 4.2461 0.0000 -10652.4830 1452.1298 0.0000 0.0000 1816.5397 -7376.3386 310.5569 -9192.8783 -7441.3437 299.1213 92.0275 169.2635 30576.2602 -103.0649 -53.0964
TCL: Running FEP window   7: Lambda1 0.6999999999999997 Lambda2 0.6499999999999997 [dLambda -0.050000000000000044]
TCL: Setting parameter firsttimestep to 0
TCL: Setting parameter alchLambda to 0.6999999999999997
Info: NONBONDED TABLE R-SQUARED SPACING: 0.0625
Info: NONBONDED TABLE SIZE: 705 POINTS
TCL: Setting parameter alchLambda2 to 0.6499999999999997
Info: NONBONDED TABLE R-SQUARED SPACING: 0.0625
Info: NONBONDED TABLE SIZE: 705 POINTS
TCL: Running for 1500000 steps
ETITLE: TS BOND ANGLE DIHED IMPRP ELECT VDW BOUNDARY MISC KINETIC TOTAL TEMP POTENTIAL TOTALAVG TEMPAVG PRESSURE GPRESSURE VOLUME PRESSAVG GPRESSAVG
ENERGY: 0 0.6865 2.5423 4.2461 0.0000 -10651.4946 1452.0867 0.0000 0.0000 1815.6836 -7376.2494 310.4106 -9191.9330 -7376.2494 310.4106 92.7138 166.4886 30576.2602 92.7138 166.4886
ENERGY: 300000 3.1111 6.6058 2.2180 0.0000 -10689.4434 1434.3517 0.0000 0.0000 1768.0261 -7475.1307 302.2630 -9243.1568 -7451.5727 300.7257 42.3032 68.5409 30083.3759 -492.3772 -440.6834
ENERGY: 600000 0.9139 3.3519 1.9070 0.0000 -10606.7683 1381.6014 0.0000 0.0000 1746.1236 -7472.8704 298.5186 -9218.9940 -7444.1877 299.8230 -379.8210 -345.5756 30152.7265 -441.8955 -394.1346
ENERGY: 900000 1.1987 6.7646 2.2580 0.0000 -10706.2536 1453.6888 0.0000 0.0000 1766.9900 -7475.3534 302.0859 -9242.3434 -7446.8673 300.3009 177.9256 237.9310 30129.8509 -440.8234 -379.9703
ENERGY: 1200000 2.8114 6.2150 2.2477 0.0000 -10566.8193 1335.4093 0.0000 0.0000 1736.1887 -7483.9473 296.8201 -9220.1360 -7449.5870 299.9711 -733.5152 -724.9915 30197.3268 -396.8552 -338.9527
ENERGY: 1500000 1.9539 5.3772 2.0433 0.0000 -10685.8309 1456.0190 0.0000 0.0000 1759.9159 -7460.5217 300.8765 -9220.4376 -7456.8098 299.7155 -49.6462 51.2125 30456.1107 -348.4908 -287.8525
TCL: Running FEP window   8: Lambda1 0.6499999999999997 Lambda2 0.5999999999999996 [dLambda -0.050000000000000044]
TCL: Setting parameter firsttimestep to 0
TCL: Setting parameter alchLambda to 0.6499999999999997
Info: NONBONDED TABLE R-SQUARED SPACING: 0.0625
Info: NONBONDED TABLE SIZE: 705 POINTS
TCL: Setting parameter alchLambda2 to 0.5999999999999996
Info: NONBONDED TABLE R-SQUARED SPACING: 0.0625
Info: NONBONDED TABLE SIZE: 705 POINTS
TCL: Running for 1500000 steps
ETITLE: TS BOND ANGLE DIHED IMPRP ELECT VDW BOUNDARY MISC KINETIC TOTAL TEMP POTENTIAL TOTALAVG TEMPAVG PRESSURE GPRESSURE VOLUME PRESSAVG GPRESSAVG
ENERGY: 0 1.9539 5.3772 2.0433 0.0000 -10685.4219 1455.9970 0.0000 0.0000 1759.0202 -7461.0304 300.7234 -9220.0507 -7461.0304 300.7234 -38.6569 44.7310 30456.1107 -38.6569 44.7310
ENERGY: 300000 0.9056 5.2436 2.4936 0.0000 -10651.4781 1458.3243 0.0000 0.0000 1797.8730 -7386.6381 307.3657 -9184.5111 -7454.1858 300.7493 325.4559 421.0184 30280.0875 196.8423 279.0781
ENERGY: 600000 2.0555 3.2818 1.9875 0.0000 -10802.2284 1465.5205 0.0000 0.0000 1787.0514 -7542.3316 305.5156 -9329.3830 -7472.8501 299.2749 38.3472 91.0925 30107.2919 90.9222 160.8947
ENERGY: 900000 2.2844 6.6504 2.8549 0.0000 -10691.2359 1425.8944 0.0000 0.0000 1712.2666 -7541.2851 292.7303 -9253.5517 -7480.0527 298.3692 -331.1401 -244.0433 30246.5394 -108.6410 -33.9029
ENERGY: 1200000 0.9153 2.9929 2.3902 0.0000 -10616.4206 1442.5108 0.0000 0.0000 1739.6514 -7427.9601 297.4121 -9167.6115 -7476.3917 299.1443 133.4973 172.9919 30456.4194 -85.4785 -15.2483
ENERGY: 1500000 1.8247 4.7272 4.3046 0.0000 -10648.8683 1421.5157 0.0000 0.0000 1787.8251 -7428.6710 305.6479 -9216.4961 -7473.0780 299.1395 -50.1325 52.0915 30094.2666 -136.0103 -66.7949
TCL: Running FEP window   9: Lambda1 0.5999999999999996 Lambda2 0.5499999999999996 [dLambda -0.050000000000000044]
TCL: Setting parameter firsttimestep to 0
TCL: Setting parameter alchLambda to 0.5999999999999996
Info: NONBONDED TABLE R-SQUARED SPACING: 0.0625
Info: NONBONDED TABLE SIZE: 705 POINTS
TCL: Setting parameter alchLambda2 to 0.5499999999999996
Info: NONBONDED TABLE R-SQUARED SPACING: 0.0625
Info: NONBONDED TABLE SIZE: 705 POINTS
TCL: Running for 1500000 steps
ETITLE: TS BOND ANGLE DIHED IMPRP ELECT VDW BOUNDARY MISC KINETIC TOTAL TEMP POTENTIAL TOTALAVG TEMPAVG PRESSURE GPRESSURE VOLUME PRESSAVG GPRESSAVG
ENERGY: 0 1.8247 4.7272 4.3046 0.0000 -10648.3153 1421.3179 0.0000 0.0000 1786.9814 -7429.1595 305.5036 -9216.1409 -7429.1595 305.5036 -37.1102 40.1223 30094.2666 -37.1102 40.1223
ENERGY: 300000 1.9417 6.7526 3.1652 0.0000 -10499.4436 1325.5874 0.0000 0.0000 1729.4837 -7432.5129 295.6738 -9161.9966 -7465.1835 299.1430 -787.0042 -763.0973 30150.8833 -380.4705 -345.1024
ENERGY: 600000 1.6914 5.2329 2.8103 0.0000 -10627.6812 1461.4336 0.0000 0.0000 1719.7329 -7436.7801 294.0068 -9156.5130 -7448.5350 299.3153 163.4712 213.7958 30438.5325 -123.2005 -84.6406
ENERGY: 900000 1.2610 4.4169 1.8222 0.0000 -10684.0668 1470.4708 0.0000 0.0000 1711.4647 -7494.6312 292.5933 -9206.0959 -7452.5224 299.8266 536.3739 500.2163 30000.3857 -114.0025 -74.5290
ENERGY: 1200000 2.4096 4.4906 2.4064 0.0000 -10468.3264 1360.0651 0.0000 0.0000 1768.6793 -7330.2755 302.3747 -9098.9548 -7440.5521 299.3673 -286.7455 -223.2175 30584.6513 -79.9327 -39.4798
ENERGY: 1500000 1.4479 3.3891 3.1239 0.0000 -10714.3742 1363.5994 0.0000 0.0000 1815.7024 -7527.1114 310.4138 -9342.8139 -7441.2158 300.4090 -678.6571 -615.9097 29985.7992 -146.0938 -102.3270
TCL: Running FEP window  10: Lambda1 0.5499999999999996 Lambda2 0.4999999999999996 [dLambda -0.04999999999999999]
TCL: Setting parameter firsttimestep to 0
TCL: Setting parameter alchLambda to 0.5499999999999996
Info: NONBONDED TABLE R-SQUARED SPACING: 0.0625
Info: NONBONDED TABLE SIZE: 705 POINTS
TCL: Setting parameter alchLambda2 to 0.4999999999999996
Info: NONBONDED TABLE R-SQUARED SPACING: 0.0625
Info: NONBONDED TABLE SIZE: 705 POINTS
TCL: Running for 1500000 steps
ETITLE: TS BOND ANGLE DIHED IMPRP ELECT VDW BOUNDARY MISC KINETIC TOTAL TEMP POTENTIAL TOTALAVG TEMPAVG PRESSURE GPRESSURE VOLUME PRESSAVG GPRESSAVG
ENERGY: 0 1.4479 3.3891 3.1239 0.0000 -10713.6493 1364.0843 0.0000 0.0000 1814.8301 -7526.7739 310.2647 -9341.6040 -7526.7739 310.2647 -713.2004 -617.1143 29985.7992 -713.2004 -617.1143
ENERGY: 300000 2.6945 3.0399 2.4749 0.0000 -10807.1823 1542.4486 0.0000 0.0000 1759.6418 -7496.8827 300.8296 -9256.5245 -7494.4989 304.9053 913.9324 1005.6355 30061.8493 44.5238 125.3762
ENERGY: 600000 1.1404 5.7704 3.2498 0.0000 -10735.1155 1480.3341 0.0000 0.0000 1781.6964 -7462.9244 304.6001 -9244.6208 -7463.7414 304.4598 185.7962 282.4797 30062.4960 -127.9366 -56.0823
ENERGY: 900000 2.3226 2.1266 3.8393 0.0000 -10739.1474 1417.6610 0.0000 0.0000 1771.7240 -7541.4740 302.8952 -9313.1980 -7479.5855 303.5666 -13.8211 98.3765 29715.9674 -120.3639 -50.2401
ENERGY: 1200000 2.0452 6.7802 2.4091 0.0000 -10577.6481 1371.5581 0.0000 0.0000 1798.7261 -7396.1295 307.5115 -9194.8557 -7466.5955 303.4677 -459.6106 -395.3185 30377.6067 -79.5545 -13.5054
ENERGY: 1500000 0.4978 3.6061 2.6986 0.0000 -10573.8256 1396.0450 0.0000 0.0000 1766.3694 -7404.6087 301.9798 -9170.9781 -7467.6443 302.7169 -168.8218 -155.8708 30225.0713 -154.8814 -91.5099
TCL: Running FEP window  11: Lambda1 0.4999999999999996 Lambda2 0.4499999999999996 [dLambda -0.04999999999999999]
TCL: Setting parameter firsttimestep to 0
TCL: Setting parameter alchLambda to 0.4999999999999996
Info: NONBONDED TABLE R-SQUARED SPACING: 0.0625
Info: NONBONDED TABLE SIZE: 705 POINTS
TCL: Setting parameter alchLambda2 to 0.4499999999999996
Info: NONBONDED TABLE R-SQUARED SPACING: 0.0625
Info: NONBONDED TABLE SIZE: 705 POINTS
TCL: Running for 1500000 steps
ETITLE: TS BOND ANGLE DIHED IMPRP ELECT VDW BOUNDARY MISC KINETIC TOTAL TEMP POTENTIAL TOTALAVG TEMPAVG PRESSURE GPRESSURE VOLUME PRESSAVG GPRESSAVG
ENERGY: 0 0.4978 3.6061 2.6986 0.0000 -10572.3899 1395.9416 0.0000 0.0000 1765.5092 -7404.1367 301.8327 -9169.6458 -7404.1367 301.8327 -220.9107 -159.7287 30225.0713 -220.9107 -159.7287
ENERGY: 300000 1.7591 4.9344 3.4358 0.0000 -10749.7949 1465.0165 0.0000 0.0000 1741.3342 -7533.3150 297.6998 -9274.6492 -7462.7885 301.3990 -108.6534 -42.2381 30484.5246 -226.6276 -174.3771
ENERGY: 600000 1.5613 2.7485 3.3295 0.0000 -10680.8993 1445.7426 0.0000 0.0000 1765.6567 -7461.8606 301.8579 -9227.5174 -7447.0832 301.9093 -12.4074 97.3251 30063.5788 -257.2186 -198.2790
ENERGY: 900000 0.7044 4.1557 2.0227 0.0000 -10687.2953 1427.8237 0.0000 0.0000 1719.7193 -7532.8695 294.0045 -9252.5888 -7475.3737 299.7419 -234.9224 -181.4248 30337.6621 -114.7291 -50.5869
ENERGY: 1200000 1.8613 6.6101 2.2656 0.0000 -10715.0027 1438.2279 0.0000 0.0000 1784.8180 -7481.2198 305.1338 -9266.0378 -7483.3881 299.2442 -57.5365 -37.4761 30108.9129 -148.2905 -84.0543
ENERGY: 1500000 1.7199 4.5074 5.0829 0.0000 -10514.4003 1325.8044 0.0000 0.0000 1699.9749 -7477.3108 290.6289 -9177.2857 -7480.1447 299.4101 -958.7859 -953.9238 30560.7980 -141.3665 -82.5973
TCL: Running FEP window  12: Lambda1 0.4499999999999996 Lambda2 0.39999999999999963 [dLambda -0.04999999999999999]
TCL: Setting parameter firsttimestep to 0
TCL: Setting parameter alchLambda to 0.4499999999999996
Info: NONBONDED TABLE R-SQUARED SPACING: 0.0625
Info: NONBONDED TABLE SIZE: 705 POINTS
TCL: Setting parameter alchLambda2 to 0.39999999999999963
Info: NONBONDED TABLE R-SQUARED SPACING: 0.0625
Info: NONBONDED TABLE SIZE: 705 POINTS
TCL: Running for 1500000 steps
ETITLE: TS BOND ANGLE DIHED IMPRP ELECT VDW BOUNDARY MISC KINETIC TOTAL TEMP POTENTIAL TOTALAVG TEMPAVG PRESSURE GPRESSURE VOLUME PRESSAVG GPRESSAVG
ENERGY: 0 1.7199 4.5074 5.0829 0.0000 -10514.4017 1326.1089 0.0000 0.0000 1699.0680 -7477.9146 290.4739 -9176.9826 -7477.9146 290.4739 -1043.5147 -956.5349 30560.7980 -1043.5147 -956.5349
ENERGY: 300000 0.9764 8.4344 2.9417 0.0000 -10636.5517 1449.5288 0.0000 0.0000 1802.5331 -7372.1372 308.1624 -9174.6703 -7451.9759 300.6612 341.0326 351.9644 30158.1354 -290.2939 -245.3332
ENERGY: 600000 1.4375 11.2520 3.5814 0.0000 -10589.3798 1438.8695 0.0000 0.0000 1740.5825 -7393.6569 297.5712 -9134.2394 -7450.6120 300.8163 401.1156 446.7530 30054.2481 -138.8222 -98.8995
ENERGY: 900000 0.7016 4.2494 2.8583 0.0000 -10505.3772 1312.6809 0.0000 0.0000 1722.4296 -7462.4575 294.4678 -9184.8871 -7445.5134 300.8167 -974.0362 -910.4658 30601.5310 -239.5670 -191.6380
ENERGY: 1200000 0.8793 8.4989 2.3294 0.0000 -10552.2031 1379.1464 0.0000 0.0000 1781.9461 -7379.4029 304.6428 -9161.3490 -7447.0989 300.5057 -549.3239 -478.3856 30684.2000 -331.6616 -276.1433
ENERGY: 1500000 2.5593 5.8961 5.3076 0.0000 -10531.8671 1309.5620 0.0000 0.0000 1693.5741 -7514.9680 289.5347 -9208.5421 -7451.9115 299.5157 -945.9027 -830.1800 29876.8036 -392.9537 -331.4124
TCL: Running FEP window  13: Lambda1 0.39999999999999963 Lambda2 0.34999999999999964 [dLambda -0.04999999999999999]
TCL: Setting parameter firsttimestep to 0
TCL: Setting parameter alchLambda to 0.39999999999999963
Info: NONBONDED TABLE R-SQUARED SPACING: 0.0625
Info: NONBONDED TABLE SIZE: 705 POINTS
TCL: Setting parameter alchLambda2 to 0.34999999999999964
Info: NONBONDED TABLE R-SQUARED SPACING: 0.0625
Info: NONBONDED TABLE SIZE: 705 POINTS
TCL: Running for 1500000 steps
ETITLE: TS BOND ANGLE DIHED IMPRP ELECT VDW BOUNDARY MISC KINETIC TOTAL TEMP POTENTIAL TOTALAVG TEMPAVG PRESSURE GPRESSURE VOLUME PRESSAVG GPRESSAVG
ENERGY: 0 2.5593 5.8961 5.3076 0.0000 -10531.8667 1309.3813 0.0000 0.0000 1692.6619 -7516.0604 289.3787 -9208.7223 -7516.0604 289.3787 -928.5737 -837.1468 29876.8036 -928.5737 -837.1468
ENERGY: 300000 1.1031 5.6210 7.0308 0.0000 -10709.6267 1449.6221 0.0000 0.0000 1679.6110 -7566.6387 287.1475 -9246.2497 -7497.9901 295.5446 -3.7339 50.1681 29952.8000 -53.3109 18.9303
ENERGY: 600000 0.4925 3.0341 2.2912 0.0000 -10775.8202 1494.0066 0.0000 0.0000 1761.0810 -7514.9148 301.0757 -9275.9958 -7471.2993 298.8051 171.5733 197.7862 30338.1965 -20.9511 41.6436
ENERGY: 900000 1.4716 3.5497 3.4770 0.0000 -10632.0097 1405.5566 0.0000 0.0000 1715.9014 -7502.0534 293.3517 -9217.9548 -7467.1021 298.7064 -319.7027 -185.9525 29988.3718 -71.4830 2.1542
ENERGY: 1200000 1.4809 7.8597 2.8327 0.0000 -10738.4123 1527.1813 0.0000 0.0000 1789.8719 -7409.1859 305.9978 -9199.0577 -7464.7920 299.5133 797.1302 847.3147 30173.6228 69.0289 141.9418
ENERGY: 1500000 1.8116 2.2170 3.9242 0.0000 -10781.1492 1487.6697 0.0000 0.0000 1749.6455 -7535.8812 299.1207 -9285.5267 -7463.5704 298.9985 58.1479 102.7038 30533.5187 76.9852 148.5295
TCL: Running FEP window  14: Lambda1 0.34999999999999964 Lambda2 0.29999999999999966 [dLambda -0.04999999999999999]
TCL: Setting parameter firsttimestep to 0
TCL: Setting parameter alchLambda to 0.34999999999999964
Info: NONBONDED TABLE R-SQUARED SPACING: 0.0625
Info: NONBONDED TABLE SIZE: 705 POINTS
TCL: Setting parameter alchLambda2 to 0.29999999999999966
Info: NONBONDED TABLE R-SQUARED SPACING: 0.0625
Info: NONBONDED TABLE SIZE: 705 POINTS
TCL: Running for 1500000 steps
ETITLE: TS BOND ANGLE DIHED IMPRP ELECT VDW BOUNDARY MISC KINETIC TOTAL TEMP POTENTIAL TOTALAVG TEMPAVG PRESSURE GPRESSURE VOLUME PRESSAVG GPRESSAVG
ENERGY: 0 1.8116 2.2170 3.9242 0.0000 -10781.1490 1487.9016 0.0000 0.0000 1748.7768 -7536.5179 298.9721 -9285.2946 -7536.5179 298.9721 28.3873 102.5593 30533.5187 28.3873 102.5593
ENERGY: 300000 1.9504 4.4785 3.4143 0.0000 -10723.3556 1502.2969 0.0000 0.0000 1765.1336 -7446.0819 301.7685 -9211.2155 -7448.4358 302.6316 564.8577 593.7104 30127.4789 106.4667 170.5250
ENERGY: 600000 1.2842 5.0970 5.1439 0.0000 -10661.6924 1447.9241 0.0000 0.0000 1689.7964 -7512.4467 288.8888 -9202.2431 -7456.4781 299.4386 169.0177 240.4959 29987.8950 8.4515 70.9442
ENERGY: 900000 1.2998 4.7421 3.3453 0.0000 -10650.5791 1412.9901 0.0000 0.0000 1714.8638 -7513.3381 293.1744 -9228.2019 -7467.0301 298.0961 -319.2007 -246.3501 29969.9602 -73.5365 -9.0297
ENERGY: 1200000 3.1401 5.5724 3.2160 0.0000 -10696.9137 1422.1490 0.0000 0.0000 1755.7205 -7507.1157 300.1592 -9262.8362 -7457.3917 299.4763 -465.0594 -325.4356 30541.0277 -66.3580 6.6818
ENERGY: 1500000 2.5958 3.9930 2.2618 0.0000 -10557.1853 1306.6411 0.0000 0.0000 1754.4837 -7487.2099 299.9478 -9241.6936 -7461.0644 299.8464 -1111.4567 -1059.8279 30482.4641 -139.8344 -68.6768
TCL: Running FEP window  15: Lambda1 0.29999999999999966 Lambda2 0.24999999999999967 [dLambda -0.04999999999999999]
TCL: Setting parameter firsttimestep to 0
TCL: Setting parameter alchLambda to 0.29999999999999966
Info: NONBONDED TABLE R-SQUARED SPACING: 0.0625
Info: NONBONDED TABLE SIZE: 705 POINTS
TCL: Setting parameter alchLambda2 to 0.24999999999999967
Info: NONBONDED TABLE R-SQUARED SPACING: 0.0625
Info: NONBONDED TABLE SIZE: 705 POINTS
TCL: Running for 1500000 steps
ETITLE: TS BOND ANGLE DIHED IMPRP ELECT VDW BOUNDARY MISC KINETIC TOTAL TEMP POTENTIAL TOTALAVG TEMPAVG PRESSURE GPRESSURE VOLUME PRESSAVG GPRESSAVG
ENERGY: 0 2.5958 3.9930 2.2618 0.0000 -10557.1861 1307.0714 0.0000 0.0000 1753.6171 -7487.6471 299.7996 -9241.2641 -7487.6471 299.7996 -1150.5680 -1061.2266 30482.4641 -1150.5680 -1061.2266
ENERGY: 300000 1.7201 6.0557 4.1308 0.0000 -10614.4534 1426.9777 0.0000 0.0000 1762.7774 -7412.7917 301.3657 -9175.5691 -7419.0046 300.6735 2.2535 90.4774 30258.4752 -56.5535 38.1144
ENERGY: 600000 0.9693 5.1310 5.7864 0.0000 -10840.0524 1513.8188 0.0000 0.0000 1802.1927 -7512.1544 308.1042 -9314.3470 -7443.4185 300.4301 497.5911 577.3762 29854.6206 77.7662 158.2392
ENERGY: 900000 1.9032 6.8357 2.4720 0.0000 -10519.9801 1346.6709 0.0000 0.0000 1796.5118 -7365.5866 307.1330 -9162.0984 -7437.2419 301.1560 -638.5193 -617.9896 30449.7284 65.0290 137.7438
ENERGY: 1200000 1.3915 2.5601 2.4838 0.0000 -10647.6166 1457.5505 0.0000 0.0000 1727.2759 -7456.3547 295.2963 -9183.6306 -7437.8937 300.6344 350.6523 401.2985 30085.4064 32.0387 102.5879
ENERGY: 1500000 2.0967 7.3139 6.5951 0.0000 -10816.3350 1505.0524 0.0000 0.0000 1774.7127 -7520.5641 303.4062 -9295.2769 -7448.7729 300.2684 355.6856 369.5341 29976.7959 3.4796 68.1116
TCL: Running FEP window  16: Lambda1 0.24999999999999967 Lambda2 0.19999999999999968 [dLambda -0.04999999999999999]
TCL: Setting parameter firsttimestep to 0
TCL: Setting parameter alchLambda to 0.24999999999999967
Info: NONBONDED TABLE R-SQUARED SPACING: 0.0625
Info: NONBONDED TABLE SIZE: 705 POINTS
TCL: Setting parameter alchLambda2 to 0.19999999999999968
Info: NONBONDED TABLE R-SQUARED SPACING: 0.0625
Info: NONBONDED TABLE SIZE: 705 POINTS
TCL: Running for 1500000 steps
ETITLE: TS BOND ANGLE DIHED IMPRP ELECT VDW BOUNDARY MISC KINETIC TOTAL TEMP POTENTIAL TOTALAVG TEMPAVG PRESSURE GPRESSURE VOLUME PRESSAVG GPRESSAVG
ENERGY: 0 2.0967 7.3139 6.5951 0.0000 -10816.3337 1504.8975 0.0000 0.0000 1773.8629 -7521.5677 303.2609 -9295.4306 -7521.5677 303.2609 286.1318 364.4585 29976.7959 286.1318 364.4585
ENERGY: 300000 2.3842 4.0757 2.5147 0.0000 -10696.4236 1436.5086 0.0000 0.0000 1762.4821 -7488.4582 301.3152 -9250.9403 -7472.3511 300.1432 -214.9409 -182.2667 30113.2909 -120.8744 -84.0088
ENERGY: 600000 2.8668 4.5807 2.3888 0.0000 -10632.8186 1403.1696 0.0000 0.0000 1753.3517 -7466.4610 299.7543 -9219.8127 -7471.9664 299.6749 -155.1194 -89.9526 30000.3391 -55.0886 9.9312
ENERGY: 900000 0.4839 5.1097 2.3897 0.0000 -10707.0801 1459.3744 0.0000 0.0000 1734.1382 -7505.5842 296.4695 -9239.7224 -7484.1839 298.0208 -103.1784 20.5202 30360.7290 -101.5243 -32.0563
ENERGY: 1200000 1.9305 9.0772 2.9495 0.0000 -10719.0581 1459.0707 0.0000 0.0000 1758.5577 -7487.4726 300.6443 -9246.0302 -7490.2473 297.1105 164.1916 205.8430 30181.5691 -35.2714 36.3387
ENERGY: 1500000 3.8311 6.0973 3.6938 0.0000 -10796.5534 1446.4576 0.0000 0.0000 1729.8552 -7606.6184 295.7373 -9336.4737 -7490.6365 297.0659 -198.3522 -200.4690 29964.1673 -92.6724 -32.0569
TCL: Running FEP window  17: Lambda1 0.19999999999999968 Lambda2 0.1499999999999997 [dLambda -0.04999999999999999]
TCL: Setting parameter firsttimestep to 0
TCL: Setting parameter alchLambda to 0.19999999999999968
Info: NONBONDED TABLE R-SQUARED SPACING: 0.0625
Info: NONBONDED TABLE SIZE: 705 POINTS
TCL: Setting parameter alchLambda2 to 0.1499999999999997
Info: NONBONDED TABLE R-SQUARED SPACING: 0.0625
Info: NONBONDED TABLE SIZE: 705 POINTS
TCL: Running for 1500000 steps
ETITLE: TS BOND ANGLE DIHED IMPRP ELECT VDW BOUNDARY MISC KINETIC TOTAL TEMP POTENTIAL TOTALAVG TEMPAVG PRESSURE GPRESSURE VOLUME PRESSAVG GPRESSAVG
ENERGY: 0 3.8311 6.0973 3.6938 0.0000 -10796.5532 1446.2408 0.0000 0.0000 1728.9873 -7607.7030 295.5889 -9336.6903 -7607.7030 295.5889 -303.0711 -206.4502 29964.1673 -303.0711 -206.4502
ENERGY: 300000 2.0342 4.0839 3.4306 0.0000 -10633.9037 1362.9441 0.0000 0.0000 1711.0100 -7550.4010 292.5155 -9261.4110 -7518.8656 298.0890 -822.6467 -820.4661 30324.6738 -224.7099 -172.1667
ENERGY: 600000 4.0376 4.7992 2.5145 0.0000 -10580.3362 1358.2336 0.0000 0.0000 1776.7876 -7433.9637 303.7609 -9210.7512 -7487.8435 300.4350 -594.4080 -470.7774 29903.4775 -249.2759 -173.8663
ENERGY: 900000 2.1111 3.6679 1.8896 0.0000 -10665.3504 1486.8752 0.0000 0.0000 1732.4498 -7438.3567 296.1809 -9170.8065 -7484.2456 299.9745 455.0210 573.1682 30038.1331 -50.3617 20.7369
ENERGY: 1200000 1.1491 8.4171 3.9246 0.0000 -10812.7306 1526.7690 0.0000 0.0000 1696.9400 -7575.5307 290.1101 -9272.4708 -7493.7347 299.3970 441.8878 528.0999 30246.1763 -1.4235 69.6156
ENERGY: 1500000 2.5808 2.9700 4.9699 0.0000 -10667.4961 1422.2065 0.0000 0.0000 1706.3664 -7528.4025 291.7216 -9234.7689 -7487.0560 298.8412 -215.5218 -181.3721 30090.7187 -6.2731 58.3383
TCL: Running FEP window  18: Lambda1 0.1499999999999997 Lambda2 0.09999999999999969 [dLambda -0.05 ]
TCL: Setting parameter firsttimestep to 0
TCL: Setting parameter alchLambda to 0.1499999999999997
Info: NONBONDED TABLE R-SQUARED SPACING: 0.0625
Info: NONBONDED TABLE SIZE: 705 POINTS
TCL: Setting parameter alchLambda2 to 0.09999999999999969
Info: NONBONDED TABLE R-SQUARED SPACING: 0.0625
Info: NONBONDED TABLE SIZE: 705 POINTS
TCL: Running for 1500000 steps
ETITLE: TS BOND ANGLE DIHED IMPRP ELECT VDW BOUNDARY MISC KINETIC TOTAL TEMP POTENTIAL TOTALAVG TEMPAVG PRESSURE GPRESSURE VOLUME PRESSAVG GPRESSAVG
ENERGY: 0 2.5808 2.9701 4.9699 0.0000 -10667.4964 1421.5397 0.0000 0.0000 1705.4855 -7529.9504 291.5710 -9235.4359 -7529.9504 291.5710 -256.2667 -185.5972 30090.7187 -256.2667 -185.5972
ENERGY: 300000 1.1710 5.1744 3.0107 0.0000 -10656.9462 1415.6810 0.0000 0.0000 1719.4045 -7512.5046 293.9506 -9231.9090 -7478.4156 298.1162 -225.6857 -144.9370 30136.0058 154.8094 212.4418
ENERGY: 600000 1.1417 6.2176 3.1535 0.0000 -10718.5404 1430.4177 0.0000 0.0000 1759.7703 -7517.8394 300.8516 -9277.6098 -7477.8693 297.4667 -214.9081 -132.7784 29938.7572 -27.7974 32.9226
ENERGY: 900000 2.1074 5.1556 3.7363 0.0000 -10589.3043 1419.4434 0.0000 0.0000 1778.5637 -7380.2978 304.0645 -9158.8615 -7470.7655 298.2262 -228.7144 -162.2073 30536.9205 -89.5127 -25.2668
ENERGY: 1200000 2.0265 4.8908 3.9500 0.0000 -10697.9759 1499.6664 0.0000 0.0000 1813.8799 -7373.5622 310.1022 -9187.4421 -7468.1975 299.3061 555.8451 591.3511 30382.7826 -36.4603 26.7095
ENERGY: 1500000 1.0630 4.2102 2.6324 0.0000 -10546.5949 1349.8927 0.0000 0.0000 1767.0470 -7421.7497 302.0956 -9188.7967 -7454.9822 299.3963 -770.4444 -707.5043 30721.0293 -82.0437 -18.8529
TCL: Running FEP window  19: Lambda1 0.09999999999999969 Lambda2 0.049999999999999684 [dLambda -0.05 ]
TCL: Setting parameter firsttimestep to 0
TCL: Setting parameter alchLambda to 0.09999999999999969
Info: NONBONDED TABLE R-SQUARED SPACING: 0.0625
Info: NONBONDED TABLE SIZE: 705 POINTS
TCL: Setting parameter alchLambda2 to 0.049999999999999684
Info: NONBONDED TABLE R-SQUARED SPACING: 0.0625
Info: NONBONDED TABLE SIZE: 705 POINTS
TCL: Running for 1500000 steps
ETITLE: TS BOND ANGLE DIHED IMPRP ELECT VDW BOUNDARY MISC KINETIC TOTAL TEMP POTENTIAL TOTALAVG TEMPAVG PRESSURE GPRESSURE VOLUME PRESSAVG GPRESSAVG
ENERGY: 0 1.0630 4.2102 2.6324 0.0000 -10546.5946 1349.5588 0.0000 0.0000 1766.1522 -7422.9781 301.9427 -9189.1302 -7422.9781 301.9427 -795.5669 -711.3724 30721.0293 -795.5669 -711.3724
ENERGY: 300000 3.0181 4.6855 2.7783 0.0000 -10687.9047 1470.8403 0.0000 0.0000 1784.9202 -7421.6623 305.1513 -9206.5825 -7435.4512 300.7394 393.1159 451.0725 29787.8705 -74.5288 16.3803
ENERGY: 600000 1.2833 2.6964 2.5407 0.0000 -10643.0919 1443.1393 0.0000 0.0000 1784.6839 -7408.7482 305.1109 -9193.4321 -7441.5237 301.3605 120.6112 175.3360 30128.5984 -87.6287 -3.8569
ENERGY: 900000 1.8776 10.3134 3.5587 0.0000 -10653.0873 1439.4964 0.0000 0.0000 1736.9589 -7460.8822 296.9518 -9197.8411 -7458.3780 300.4721 -80.2949 -90.0658 30425.4463 2.9030 73.4414
ENERGY: 1200000 2.5734 8.5788 3.2834 0.0000 -10620.2938 1439.6415 0.0000 0.0000 1721.3840 -7444.8327 294.2891 -9166.2167 -7452.9061 300.5774 -107.2006 -20.2104 30532.7401 -37.7679 35.4592
ENERGY: 1500000 4.3465 4.0886 2.4297 0.0000 -10721.8214 1455.6808 0.0000 0.0000 1746.6472 -7508.6286 298.6081 -9255.2758 -7457.7728 299.8844 -173.4222 -79.3331 30053.1132 -62.6402 14.5260
TCL: Running FEP window  20: Lambda1 0.049999999999999684 Lambda2 0.0    [dLambda -0.049999999999999684]
TCL: Setting parameter firsttimestep to 0
TCL: Setting parameter alchLambda to 0.049999999999999684
Info: NONBONDED TABLE R-SQUARED SPACING: 0.0625
Info: NONBONDED TABLE SIZE: 705 POINTS
TCL: Setting parameter alchLambda2 to 0.0
Info: NONBONDED TABLE R-SQUARED SPACING: 0.0625
Info: NONBONDED TABLE SIZE: 705 POINTS
TCL: Running for 1500000 steps
ETITLE: TS BOND ANGLE DIHED IMPRP ELECT VDW BOUNDARY MISC KINETIC TOTAL TEMP POTENTIAL TOTALAVG TEMPAVG PRESSURE GPRESSURE VOLUME PRESSAVG GPRESSAVG
ENERGY: 0 4.3465 4.0886 2.4297 0.0000 -10721.8229 1455.9425 0.0000 0.0000 1745.7292 -7509.2864 298.4511 -9255.0157 -7509.2864 298.4511 -170.0566 -80.9281 30053.1132 -170.0566 -80.9281
ENERGY: 300000 1.0561 3.4750 1.9028 0.0000 -10714.1877 1464.5502 0.0000 0.0000 1756.8153 -7486.3884 300.3464 -9243.2037 -7488.1418 302.5452 83.3051 174.8550 30279.6722 -55.1463 39.1075
ENERGY: 600000 1.4353 7.7548 4.1263 0.0000 -10521.9492 1332.6961 0.0000 0.0000 1746.4179 -7429.5188 298.5689 -9175.9367 -7464.3630 301.3773 -917.9456 -880.7039 30209.8153 -56.0335 8.1062
ENERGY: 900000 1.8105 2.9434 2.6939 0.0000 -10599.6014 1434.6410 0.0000 0.0000 1751.4329 -7406.0797 299.4262 -9157.5126 -7453.4150 301.5282 -112.1305 -45.9577 30537.3415 -64.8308 0.1680
ENERGY: 1200000 1.7109 2.7899 2.4437 0.0000 -10633.0357 1384.3558 0.0000 0.0000 1777.5958 -7464.1396 303.8991 -9241.7354 -7445.5395 301.9169 -656.1857 -604.9560 30350.7386 -27.1475 32.0893
ENERGY: 1500000 0.3497 4.7261 2.2685 0.0000 -10514.6788 1345.2968 0.0000 0.0000 1769.5630 -7392.4747 302.5258 -9162.0377 -7445.6168 301.3010 -738.3289 -648.2650 30530.6866 -72.6778 -13.2787
TCL: Exiting due to exit command.
