Info: SIMULATION PARAMETERS:
Info: TIMESTEP               2
Info: NUMBER OF STEPS        0
Info: STEPS PER CYCLE        10
Info: PERIODIC CELL BASIS 1  32.1873 0 0
Info: PERIODIC CELL BASIS 2  0 29.9953 0
Info: PERIODIC CELL BASIS 3  0 0 31.423
Info: PERIODIC CELL CENTER   0 0 0
Info: WRAPPING WATERS AROUND PERIODIC BOUNDARIES ON OUTPUT.
Info: WRAPPING ALL CLUSTERS AROUND PERIODIC BOUNDARIES ON OUTPUT.
Info: FIRST LDB TIMESTEP     50
Info: LAST LDB TIMESTEP     -1
Info: HOM BACKGROUND SCALING 1
Info: PME BACKGROUND SCALING 1
Info: MIN ATOMS PER PATCH    40
Info: EMPTY PATCH LOAD       40 ATOMS
Info: VELOCITY FILE          mobley_1199854_equil.vel
Info: CENTER OF MASS MOVING INITIALLY? NO
Info: DIELECTRIC             1
Info: EXCLUDE                SCALED ONE-FOUR
Info: 1-4 ELECTROSTATICS SCALED BY 0.833333
Info: MODIFIED 1-4 VDW PARAMETERS WILL BE USED
Info: DCD FILENAME           mobley_1199854_prod.dcd
Info: DCD FREQUENCY          100000
Info: DCD FIRST STEP         100000
Info: DCD FILE WILL CONTAIN UNIT CELL DATA
Info: XST FILENAME           mobley_1199854_prod.xst
Info: XST FREQUENCY          100000
Info: NO VELOCITY DCD OUTPUT
Info: NO FORCE DCD OUTPUT
Info: OUTPUT FILENAME        mobley_1199854_prod
Info: BINARY OUTPUT FILES WILL BE USED
Info: RESTART FILENAME       mobley_1199854_prod.restart
Info: RESTART FREQUENCY      100000
Info: BINARY RESTART FILES WILL BE USED
Info: CUTOFF                 9
Info: PAIRLIST DISTANCE      11
Info: PAIRLIST SHRINK RATE   0.01
Info: PAIRLIST GROW RATE     0.01
Info: PAIRLIST TRIGGER       0.3
Info: PAIRLISTS PER CYCLE    2
Info: PAIRLISTS ENABLED
Info: MARGIN                 2
Info: HYDROGEN GROUP CUTOFF  2.5
Info: PATCH DIMENSION        15.5
Info: ENERGY OUTPUT STEPS    100000
Info: ENERGY EVALUATION STEPS    100000
Info: OUTPUT ENERGY PRECISION 4
Info: CROSSTERM ENERGY INCLUDED IN DIHEDRAL
Info: TIMING OUTPUT STEPS    1000000
Info: PRESSURE OUTPUT STEPS  100000
Info: ALCHEMICAL FEP ON
Info: FEP CURRENT LAMBDA VALUE     0
Info: FEP COMPARISON LAMBDA VALUE  0.05
Info: FEP INTRA-ALCHEMICAL NON-BONDED INTERACTIONS WILL BE RETAINED
Info: FEP INTRA-ALCHEMICAL BONDED INTERACTIONS WILL BE RETAINED
Info: FEP VDW SHIFTING COEFFICIENT 5
Info: FEP ELEC. ACTIVE FOR ANNIHILATED PARTICLES BETWEEN LAMBDA = 0 AND LAMBDA = 0.5
Info: FEP ELEC. ACTIVE FOR EXNIHILATED PARTICLES BETWEEN LAMBDA = 0.5 AND LAMBDA = 1
Info: FEP VDW ACTIVE FOR ANNIHILATED PARTICLES BETWEEN LAMBDA = 0 AND LAMBDA = 1
Info: FEP VDW ACTIVE FOR EXNIHILATED PARTICLES BETWEEN LAMBDA = 0 AND LAMBDA = 1
Info: FEP BOND ACTIVE FOR ANNIHILATED PARTICLES BETWEEN LAMBDA = 1 AND LAMBDA = 1
Info: FEP BOND ACTIVE FOR EXNIHILATED PARTICLES BETWEEN LAMBDA = 0 AND LAMBDA = 0
Info: LANGEVIN DYNAMICS ACTIVE
Info: LANGEVIN TEMPERATURE   300
Info: LANGEVIN USING BBK INTEGRATOR
Info: LANGEVIN DAMPING COEFFICIENT IS 1 INVERSE PS
Info: LANGEVIN DYNAMICS APPLIED TO HYDROGENS
Info: LANGEVIN PISTON PRESSURE CONTROL ACTIVE
Info:        TARGET PRESSURE IS 1.01325 BAR
Info:     OSCILLATION PERIOD IS 50 FS
Info:             DECAY TIME IS 25 FS
Info:     PISTON TEMPERATURE IS 300 K
Info:       PRESSURE CONTROL IS GROUP-BASED
Info:    INITIAL STRAIN RATE IS -0.000695473 -0.000695473 -0.000695473
Info:       CELL FLUCTUATION IS ISOTROPIC
Info: PARTICLE MESH EWALD (PME) ACTIVE
Info: PME TOLERANCE               1e-06
Info: PME EWALD COEFFICIENT       0.348832
Info: PME INTERPOLATION ORDER     4
Info: PME GRID DIMENSIONS         36 32 32
Info: PME MAXIMUM GRID SPACING    1
Info: PME CALCULATION WILL BE PERFORMED ON GPU
Info: FULL ELECTROSTATIC EVALUATION FREQUENCY      2
Info: USING VERLET I (r-RESPA) MTS SCHEME.
Info: C1 SPLITTING OF LONG RANGE ELECTROSTATICS
Info: PLACING ATOMS IN PATCHES BY HYDROGEN GROUPS
Info: RIGID BONDS TO HYDROGEN : ALL
Info:         ERROR TOLERANCE : 1e-08
Info:          MAX ITERATIONS : 100
Info: RIGID WATER USING SETTLE ALGORITHM
Info: RANDOM NUMBER SEED     1743680520
Info: USE HYDROGEN BONDS?    NO
Info: Using AMBER format force field!
Info: AMBER PARM FILE        mobley_1199854.prmtop
Info: COORDINATE PDB         mobley_1199854.pdb
Info: Exclusions will be read from PARM file!
Info: SCNB (VDW SCALING)     2
Info: USING ARITHMETIC MEAN TO COMBINE L-J SIGMA PARAMETERS
Info: BINARY COORDINATES     mobley_1199854_equil.coor
Info: SUMMARY OF PARAMETERS:
Info: 6 BONDS
Info: 7 ANGLES
Info:   7 HARMONIC
Info:   0 COSINE-BASED
Info: 3 DIHEDRAL
Info: 0 IMPROPER
Info: 0 CROSSTERM
Info: 0 VDW
Info: 21 VDW_PAIRS
Info: 0 NBTHOLE_PAIRS
Info: To read alchdata from file: mobley_1199854.pdb
Info: To read alchflag data from column: 5
Info: STRUCTURE SUMMARY:
Info: 2951 ATOMS
Info: 2950 BONDS
Info: 18 ANGLES
Info: 18 DIHEDRALS
Info: 0 IMPROPERS
Info: 0 CROSSTERMS
Info: 2986 EXCLUSIONS
Info: 2947 RIGID BONDS
Info: ALCH: 0 ATOMS TO DISAPPEAR IN FINAL STATE
Info: ALCH: 11 ATOMS TO APPEAR IN FINAL STATE
Info: 5906 DEGREES OF FREEDOM
Info: 984 HYDROGEN GROUPS
Info: 4 ATOMS IN LARGEST HYDROGEN GROUP
Info: 984 MIGRATION GROUPS
Info: 4 ATOMS IN LARGEST MIGRATION GROUP
Info: TOTAL MASS = 17825.7 amu
Info: TOTAL CHARGE = 2.23517e-08 e
Info: MASS DENSITY = 0.975707 g/cm^3
Info: ATOM DENSITY = 0.0972711 atoms/A^3
Info: ADDED 0 IMPLICIT EXCLUSIONS
Info: NONBONDED TABLE R-SQUARED SPACING: 0.0625
Info: NONBONDED TABLE SIZE: 705 POINTS
Info: REMOVING COM VELOCITY -0.0231612 -0.0550758 0.212299
Info: Use 3D box decompostion in PME FFT.
Info: Updated CUDA force table with 4096 elements.
Info: Updated CUDA LJ table with 6 x 6 elements.
Info: Found 14 unique exclusion lists needing 24 bytes
TCL: Running for 1500000 steps
ETITLE: TS BOND ANGLE DIHED IMPRP ELECT VDW BOUNDARY MISC KINETIC TOTAL TEMP POTENTIAL TOTALAVG TEMPAVG PRESSURE GPRESSURE VOLUME PRESSAVG GPRESSAVG
ENERGY: 0 0.7416 1.4658 0.4103 0.0000 -10593.6516 1359.4006 0.0000 0.0000 1705.0987 -7526.5345 290.5671 -9231.6333 -7526.5345 290.5671 -710.0328 -619.4707 30337.9034 -710.0328 -619.4707
ENERGY: 300000 1.4309 2.5793 0.3657 0.0000 -10594.2285 1397.4561 0.0000 0.0000 1792.7971 -7399.5993 305.5119 -9192.3964 -7472.0842 296.5472 -150.9105 -66.7790 30276.0242 -444.6231 -357.3044
ENERGY: 600000 0.5492 6.5677 0.5376 0.0000 -10527.7669 1350.1031 0.0000 0.0000 1783.7829 -7386.2264 303.9758 -9170.0093 -7470.6063 299.7207 -618.2952 -537.7817 30617.3385 -326.4007 -233.3393
ENERGY: 900000 1.0847 4.2769 0.3105 0.0000 -10720.2190 1458.8473 0.0000 0.0000 1780.8817 -7474.8179 303.4814 -9255.6996 -7477.3107 299.2663 450.0930 509.8233 29701.5101 -185.1531 -102.0372
ENERGY: 1200000 0.6927 6.7800 0.4100 0.0000 -10701.5455 1445.8456 0.0000 0.0000 1713.7612 -7534.0560 292.0433 -9247.8172 -7477.8630 298.4615 72.1295 120.7117 30232.4152 -156.7069 -80.0121
ENERGY: 1500000 0.5484 7.1445 0.5265 0.0000 -10778.8920 1461.4888 0.0000 0.0000 1767.3214 -7541.8623 301.1705 -9309.1838 -7488.4228 298.4863 33.4955 117.8802 30186.2787 -133.9651 -60.8325
TCL: Running FEP window   2: Lambda1 0.05   Lambda2 0.1    [dLambda 0.05  ]
TCL: Setting parameter firsttimestep to 0
TCL: Setting parameter alchLambda to 0.05
Info: NONBONDED TABLE R-SQUARED SPACING: 0.0625
Info: NONBONDED TABLE SIZE: 705 POINTS
TCL: Setting parameter alchLambda2 to 0.1
Info: NONBONDED TABLE R-SQUARED SPACING: 0.0625
Info: NONBONDED TABLE SIZE: 705 POINTS
TCL: Running for 1500000 steps
ETITLE: TS BOND ANGLE DIHED IMPRP ELECT VDW BOUNDARY MISC KINETIC TOTAL TEMP POTENTIAL TOTALAVG TEMPAVG PRESSURE GPRESSURE VOLUME PRESSAVG GPRESSAVG
ENERGY: 0 0.5484 7.1445 0.5265 0.0000 -10778.8929 1465.2427 0.0000 0.0000 1766.4132 -7539.0176 301.0158 -9305.4308 -7539.0176 301.0158 41.9531 128.9290 30186.2787 41.9531 128.9290
ENERGY: 300000 0.5889 2.4290 0.6460 0.0000 -10732.6366 1535.7818 0.0000 0.0000 1773.2776 -7419.9134 302.1855 -9193.1909 -7464.5791 301.0073 844.2125 864.3851 30427.5437 165.7172 206.2015
ENERGY: 600000 0.5200 4.1061 0.3026 0.0000 -10697.3026 1419.6986 0.0000 0.0000 1781.1811 -7491.4943 303.5324 -9272.6753 -7472.5694 301.0700 -119.8176 -93.1464 30320.0111 2.4018 36.8211
ENERGY: 900000 0.7486 4.5445 0.5462 0.0000 -10814.9390 1554.6279 0.0000 0.0000 1765.6301 -7488.8416 300.8823 -9254.4717 -7466.6615 302.0493 706.0674 757.9886 30636.5115 77.9342 112.7069
ENERGY: 1200000 0.3765 7.5031 0.2559 0.0000 -10555.1041 1325.0008 0.0000 0.0000 1748.2805 -7473.6874 297.9258 -9221.9679 -7473.5679 300.5433 -803.8975 -791.1018 30368.4320 -86.0683 -45.5962
ENERGY: 1500000 0.4599 4.0267 0.4622 0.0000 -10587.9269 1327.0235 0.0000 0.0000 1784.1479 -7471.8068 304.0379 -9255.9547 -7473.7658 300.9516 -967.9967 -870.9049 30293.7157 -78.4296 -33.1343
TCL: Running FEP window   3: Lambda1 0.1    Lambda2 0.15000000000000002 [dLambda 0.05000000000000002]
TCL: Setting parameter firsttimestep to 0
TCL: Setting parameter alchLambda to 0.1
Info: NONBONDED TABLE R-SQUARED SPACING: 0.0625
Info: NONBONDED TABLE SIZE: 705 POINTS
TCL: Setting parameter alchLambda2 to 0.15000000000000002
Info: NONBONDED TABLE R-SQUARED SPACING: 0.0625
Info: NONBONDED TABLE SIZE: 705 POINTS
TCL: Running for 1500000 steps
ETITLE: TS BOND ANGLE DIHED IMPRP ELECT VDW BOUNDARY MISC KINETIC TOTAL TEMP POTENTIAL TOTALAVG TEMPAVG PRESSURE GPRESSURE VOLUME PRESSAVG GPRESSAVG
ENERGY: 0 0.4599 4.0267 0.4622 0.0000 -10587.9284 1328.2158 0.0000 0.0000 1783.3063 -7471.4575 303.8945 -9254.7638 -7471.4575 303.8945 -939.2489 -863.7651 30293.7157 -939.2489 -863.7651
ENERGY: 300000 0.6860 5.3062 0.5464 0.0000 -10674.4543 1371.4853 0.0000 0.0000 1761.5424 -7534.8881 300.1857 -9296.4305 -7494.2289 299.4753 -627.4188 -635.3273 30152.9297 -378.2926 -322.7558
ENERGY: 600000 0.4250 6.3059 1.4721 0.0000 -10675.7694 1409.3609 0.0000 0.0000 1750.5781 -7507.6274 298.3173 -9258.2055 -7491.1919 300.8942 -227.6493 -179.9056 30194.0116 -334.8909 -284.9209
ENERGY: 900000 0.0432 3.3917 0.0874 0.0000 -10747.1280 1493.2702 0.0000 0.0000 1739.4613 -7510.8742 296.4229 -9250.3355 -7491.5096 300.7284 461.2711 550.8364 30098.3333 -270.2602 -212.1575
ENERGY: 1200000 0.4783 8.4313 0.4596 0.0000 -10694.3396 1466.7153 0.0000 0.0000 1771.0093 -7447.2457 301.7990 -9218.2550 -7473.6023 302.5977 284.9096 344.6432 30204.7708 -262.5814 -201.7510
ENERGY: 1500000 0.6796 3.7133 0.2830 0.0000 -10639.3289 1397.4040 0.0000 0.0000 1728.8350 -7508.4139 294.6120 -9237.2489 -7479.9033 302.1342 -551.4300 -395.9926 30394.4137 -289.7537 -224.9023
TCL: Running FEP window   4: Lambda1 0.15000000000000002 Lambda2 0.2    [dLambda 0.04999999999999999]
TCL: Setting parameter firsttimestep to 0
TCL: Setting parameter alchLambda to 0.15000000000000002
Info: NONBONDED TABLE R-SQUARED SPACING: 0.0625
Info: NONBONDED TABLE SIZE: 705 POINTS
TCL: Setting parameter alchLambda2 to 0.2
Info: NONBONDED TABLE R-SQUARED SPACING: 0.0625
Info: NONBONDED TABLE SIZE: 705 POINTS
TCL: Running for 1500000 steps
ETITLE: TS BOND ANGLE DIHED IMPRP ELECT VDW BOUNDARY MISC KINETIC TOTAL TEMP POTENTIAL TOTALAVG TEMPAVG PRESSURE GPRESSURE VOLUME PRESSAVG GPRESSAVG
ENERGY: 0 0.6796 3.7133 0.2830 0.0000 -10639.3268 1397.2141 0.0000 0.0000 1727.9747 -7509.4621 294.4654 -9237.4368 -7509.4621 294.4654 -489.1142 -394.2325 30394.4137 -489.1142 -394.2325
ENERGY: 300000 0.5672 6.8296 0.0721 0.0000 -10758.6537 1459.2376 0.0000 0.0000 1790.7816 -7501.1656 305.1684 -9291.9472 -7526.7237 301.0329 203.1733 298.8265 30010.8449 -80.9363 -4.6746
ENERGY: 600000 0.1218 5.7512 0.5213 0.0000 -10692.1169 1433.7516 0.0000 0.0000 1784.8581 -7467.1129 304.1590 -9251.9710 -7513.8396 301.6890 269.7821 296.4962 30016.8779 58.9543 133.1830
ENERGY: 900000 0.2975 4.9146 0.3427 0.0000 -10642.3863 1422.8656 0.0000 0.0000 1748.1690 -7465.7970 297.9068 -9213.9660 -7507.4611 300.3641 63.8929 89.2874 30343.3729 -1.7545 74.7953
ENERGY: 1200000 0.5866 4.3579 0.1649 0.0000 -10546.2050 1388.8254 0.0000 0.0000 1716.7206 -7435.5496 292.5476 -9152.2701 -7505.8269 300.4519 -446.5204 -375.7652 30928.2474 -110.2281 -35.0929
ENERGY: 1500000 0.8391 9.3897 1.9516 0.0000 -10689.6782 1403.2532 0.0000 0.0000 1786.2533 -7487.9914 304.3967 -9274.2447 -7503.7516 300.4962 -434.7409 -387.5481 30515.3446 -109.2967 -39.6899
TCL: Running FEP window   5: Lambda1 0.2    Lambda2 0.25   [dLambda 0.04999999999999999]
TCL: Setting parameter firsttimestep to 0
TCL: Setting parameter alchLambda to 0.2
Info: NONBONDED TABLE R-SQUARED SPACING: 0.0625
Info: NONBONDED TABLE SIZE: 705 POINTS
TCL: Setting parameter alchLambda2 to 0.25
Info: NONBONDED TABLE R-SQUARED SPACING: 0.0625
Info: NONBONDED TABLE SIZE: 705 POINTS
TCL: Running for 1500000 steps
ETITLE: TS BOND ANGLE DIHED IMPRP ELECT VDW BOUNDARY MISC KINETIC TOTAL TEMP POTENTIAL TOTALAVG TEMPAVG PRESSURE GPRESSURE VOLUME PRESSAVG GPRESSAVG
ENERGY: 0 0.8391 9.3897 1.9516 0.0000 -10689.6775 1403.4947 0.0000 0.0000 1785.3774 -7488.6250 304.2475 -9274.0024 -7488.6250 304.2475 -457.3696 -384.4701 30515.3446 -457.3696 -384.4701
ENERGY: 300000 0.0767 5.4280 1.2238 0.0000 -10723.5133 1468.8509 0.0000 0.0000 1702.5738 -7545.3600 290.1369 -9247.9339 -7513.0883 297.8103 206.1237 263.5790 30447.7169 -316.2454 -261.0440
ENERGY: 600000 2.3670 4.8287 1.0903 0.0000 -10698.5842 1467.9865 0.0000 0.0000 1788.0872 -7434.2246 304.7092 -9222.3117 -7496.9874 300.7716 79.0067 95.1866 31138.0784 -88.6280 -27.1227
ENERGY: 900000 0.9891 5.3147 0.4056 0.0000 -10701.9790 1404.2644 0.0000 0.0000 1674.9662 -7616.0390 285.4322 -9291.0052 -7496.3454 299.0874 -175.1757 -108.6809 29784.5869 -192.1584 -131.9106
ENERGY: 1200000 0.3188 9.5240 0.9624 0.0000 -10689.5907 1390.5018 0.0000 0.0000 1804.4152 -7483.8685 307.4917 -9288.2837 -7504.6841 299.5951 -560.1956 -456.8484 30408.4642 -227.4405 -159.0983
ENERGY: 1500000 3.1189 5.7243 1.0600 0.0000 -10803.8478 1486.9775 0.0000 0.0000 1783.2464 -7523.7208 303.8843 -9306.9671 -7501.9362 300.1620 8.1628 70.2143 30296.5356 -144.7595 -76.2085
TCL: Running FEP window   6: Lambda1 0.25   Lambda2 0.3    [dLambda 0.04999999999999999]
TCL: Setting parameter firsttimestep to 0
TCL: Setting parameter alchLambda to 0.25
Info: NONBONDED TABLE R-SQUARED SPACING: 0.0625
Info: NONBONDED TABLE SIZE: 705 POINTS
TCL: Setting parameter alchLambda2 to 0.3
Info: NONBONDED TABLE R-SQUARED SPACING: 0.0625
Info: NONBONDED TABLE SIZE: 705 POINTS
TCL: Running for 1500000 steps
ETITLE: TS BOND ANGLE DIHED IMPRP ELECT VDW BOUNDARY MISC KINETIC TOTAL TEMP POTENTIAL TOTALAVG TEMPAVG PRESSURE GPRESSURE VOLUME PRESSAVG GPRESSAVG
ENERGY: 0 3.1189 5.7243 1.0600 0.0000 -10803.8472 1486.7294 0.0000 0.0000 1782.3757 -7524.8388 303.7360 -9307.2146 -7524.8388 303.7360 -16.8934 68.3738 30296.5356 -16.8934 68.3738
ENERGY: 300000 0.1068 5.0395 1.6888 0.0000 -10690.2236 1395.5017 0.0000 0.0000 1745.8624 -7542.0244 297.5137 -9287.8868 -7504.6871 303.1412 -418.7003 -398.2083 30276.6819 36.0238 101.8169
ENERGY: 600000 1.1431 4.4293 0.8528 0.0000 -10772.0005 1488.4604 0.0000 0.0000 1827.0685 -7450.0465 311.3521 -9277.1149 -7493.6715 304.8198 397.0368 436.5894 29967.4159 74.9321 130.2476
ENERGY: 900000 0.1238 4.5219 0.4441 0.0000 -10658.2969 1424.6529 0.0000 0.0000 1793.3871 -7435.1671 305.6124 -9228.5542 -7491.4197 302.7348 112.1007 131.9544 30076.0050 -72.4151 -21.6484
ENERGY: 1200000 1.0571 8.3069 0.2910 0.0000 -10687.2003 1509.0397 0.0000 0.0000 1754.5661 -7413.9394 298.9969 -9168.5055 -7486.2485 302.5084 744.5662 797.6401 30394.4574 -41.5277 15.0697
ENERGY: 1500000 1.9035 4.6968 0.2149 0.0000 -10673.7844 1363.5126 0.0000 0.0000 1799.2295 -7504.2271 306.6080 -9303.4566 -7484.7053 302.7253 -868.5314 -888.7094 30750.2726 -72.0733 -20.0467
TCL: Running FEP window   7: Lambda1 0.3    Lambda2 0.35   [dLambda 0.04999999999999999]
TCL: Setting parameter firsttimestep to 0
TCL: Setting parameter alchLambda to 0.3
Info: NONBONDED TABLE R-SQUARED SPACING: 0.0625
Info: NONBONDED TABLE SIZE: 705 POINTS
TCL: Setting parameter alchLambda2 to 0.35
Info: NONBONDED TABLE R-SQUARED SPACING: 0.0625
Info: NONBONDED TABLE SIZE: 705 POINTS
TCL: Running for 1500000 steps
ETITLE: TS BOND ANGLE DIHED IMPRP ELECT VDW BOUNDARY MISC KINETIC TOTAL TEMP POTENTIAL TOTALAVG TEMPAVG PRESSURE GPRESSURE VOLUME PRESSAVG GPRESSAVG
ENERGY: 0 1.9035 4.6968 0.2149 0.0000 -10673.7848 1363.4846 0.0000 0.0000 1798.3430 -7505.1420 306.4569 -9303.4850 -7505.1420 306.4569 -966.2604 -884.8925 30750.2726 -966.2604 -884.8925
ENERGY: 300000 1.0413 4.1460 0.9408 0.0000 -10706.9968 1421.5381 0.0000 0.0000 1705.9050 -7573.4255 290.7045 -9279.3305 -7509.7616 301.1990 -402.9159 -302.8643 30612.4131 -570.9266 -492.0915
ENERGY: 600000 3.2083 2.3646 0.0644 0.0000 -10686.5467 1445.7053 0.0000 0.0000 1782.2656 -7452.9385 303.7172 -9235.2041 -7493.6146 300.8157 -217.2879 -96.6359 30708.5934 -268.5229 -174.1516
ENERGY: 900000 0.5414 2.9562 0.1267 0.0000 -10563.8944 1404.5909 0.0000 0.0000 1765.2087 -7390.4706 300.8105 -9155.6793 -7467.6955 301.2868 -204.5370 -161.7889 30984.8624 -248.6249 -169.8415
ENERGY: 1200000 0.7098 5.5687 1.8108 0.0000 -10659.7571 1350.5103 0.0000 0.0000 1776.9332 -7524.2243 302.8085 -9301.1575 -7470.5784 302.0884 -986.1281 -931.2197 30536.2934 -198.8924 -121.6729
ENERGY: 1500000 0.4801 7.6415 0.3729 0.0000 -10601.6650 1392.0108 0.0000 0.0000 1709.1939 -7491.9657 291.2650 -9201.1597 -7483.2847 300.8584 -123.8557 -19.0527 30243.7145 -156.5219 -80.8141
TCL: Running FEP window   8: Lambda1 0.35   Lambda2 0.39999999999999997 [dLambda 0.04999999999999999]
TCL: Setting parameter firsttimestep to 0
TCL: Setting parameter alchLambda to 0.35
Info: NONBONDED TABLE R-SQUARED SPACING: 0.0625
Info: NONBONDED TABLE SIZE: 705 POINTS
TCL: Setting parameter alchLambda2 to 0.39999999999999997
Info: NONBONDED TABLE R-SQUARED SPACING: 0.0625
Info: NONBONDED TABLE SIZE: 705 POINTS
TCL: Running for 1500000 steps
ETITLE: TS BOND ANGLE DIHED IMPRP ELECT VDW BOUNDARY MISC KINETIC TOTAL TEMP POTENTIAL TOTALAVG TEMPAVG PRESSURE GPRESSURE VOLUME PRESSAVG GPRESSAVG
ENERGY: 0 0.4800 7.6415 0.3729 0.0000 -10601.6644 1391.7464 0.0000 0.0000 1708.3074 -7493.1162 291.1139 -9201.4236 -7493.1162 291.1139 -86.6256 -15.9094 30243.7145 -86.6256 -15.9094
ENERGY: 300000 0.6553 1.5052 0.1320 0.0000 -10715.6908 1448.1043 0.0000 0.0000 1794.2426 -7471.0513 305.7582 -9265.2940 -7521.9593 297.2848 24.0012 59.7099 30430.3302 92.3696 138.2992
ENERGY: 600000 3.0441 3.2493 0.0805 0.0000 -10760.2386 1518.1415 0.0000 0.0000 1782.4106 -7453.3127 303.7419 -9235.7232 -7504.8468 299.2635 815.4339 893.8631 30098.4670 230.0986 280.3174
ENERGY: 900000 0.5303 6.2196 0.6057 0.0000 -10764.6888 1499.6711 0.0000 0.0000 1744.3246 -7513.3374 297.2516 -9257.6620 -7475.0790 301.9848 572.4283 567.3291 30199.2049 254.7086 302.6071
ENERGY: 1200000 0.3755 3.7847 0.6660 0.0000 -10846.5453 1541.3576 0.0000 0.0000 1717.5210 -7582.8405 292.6840 -9300.3615 -7487.0399 300.5232 777.3912 852.2491 29975.8063 203.5299 260.1538
ENERGY: 1500000 3.3223 3.5163 1.0268 0.0000 -10661.7065 1402.1826 0.0000 0.0000 1740.5852 -7511.0733 296.6144 -9251.6585 -7484.5576 300.9350 -591.6981 -506.9818 30655.5573 45.8947 106.7672
TCL: Running FEP window   9: Lambda1 0.39999999999999997 Lambda2 0.44999999999999996 [dLambda 0.04999999999999999]
TCL: Setting parameter firsttimestep to 0
TCL: Setting parameter alchLambda to 0.39999999999999997
Info: NONBONDED TABLE R-SQUARED SPACING: 0.0625
Info: NONBONDED TABLE SIZE: 705 POINTS
TCL: Setting parameter alchLambda2 to 0.44999999999999996
Info: NONBONDED TABLE R-SQUARED SPACING: 0.0625
Info: NONBONDED TABLE SIZE: 705 POINTS
TCL: Running for 1500000 steps
ETITLE: TS BOND ANGLE DIHED IMPRP ELECT VDW BOUNDARY MISC KINETIC TOTAL TEMP POTENTIAL TOTALAVG TEMPAVG PRESSURE GPRESSURE VOLUME PRESSAVG GPRESSAVG
ENERGY: 0 3.3223 3.5163 1.0268 0.0000 -10661.7057 1402.2496 0.0000 0.0000 1739.6749 -7511.9157 296.4593 -9251.5906 -7511.9157 296.4593 -576.7100 -499.9076 30655.5573 -576.7100 -499.9076
ENERGY: 300000 1.5964 4.9198 0.6782 0.0000 -10802.7871 1532.5416 0.0000 0.0000 1738.4893 -7524.5617 296.2572 -9263.0511 -7501.0782 299.5392 880.5914 888.7098 29983.6504 -7.7359 41.0829
ENERGY: 600000 0.5770 3.6478 0.0492 0.0000 -10610.9428 1346.5473 0.0000 0.0000 1831.7135 -7428.4080 312.1436 -9260.1215 -7501.9335 302.0100 -624.0098 -548.2727 30470.2763 -150.2205 -88.6450
ENERGY: 900000 0.3131 3.5617 1.3078 0.0000 -10716.0038 1469.5601 0.0000 0.0000 1735.7308 -7505.5302 295.7872 -9241.2610 -7493.9686 301.0901 280.3152 300.1244 30412.8235 -179.8818 -124.5978
ENERGY: 1200000 0.0391 3.9660 0.1284 0.0000 -10549.2241 1384.3408 0.0000 0.0000 1717.7786 -7442.9711 292.7279 -9160.7497 -7487.8150 300.2591 -390.6667 -347.1887 30697.1423 -218.9032 -163.1764
ENERGY: 1500000 3.8398 4.0976 0.1742 0.0000 -10705.2720 1471.0029 0.0000 0.0000 1773.2170 -7452.9406 302.1752 -9226.1576 -7479.2462 300.8546 255.6642 382.6280 30455.8663 -277.0221 -214.8956
TCL: Running FEP window  10: Lambda1 0.44999999999999996 Lambda2 0.49999999999999994 [dLambda 0.04999999999999999]
TCL: Setting parameter firsttimestep to 0
TCL: Setting parameter alchLambda to 0.44999999999999996
Info: NONBONDED TABLE R-SQUARED SPACING: 0.0625
Info: NONBONDED TABLE SIZE: 705 POINTS
TCL: Setting parameter alchLambda2 to 0.49999999999999994
Info: NONBONDED TABLE R-SQUARED SPACING: 0.0625
Info: NONBONDED TABLE SIZE: 705 POINTS
TCL: Running for 1500000 steps
ETITLE: TS BOND ANGLE DIHED IMPRP ELECT VDW BOUNDARY MISC KINETIC TOTAL TEMP POTENTIAL TOTALAVG TEMPAVG PRESSURE GPRESSURE VOLUME PRESSAVG GPRESSAVG
ENERGY: 0 3.8398 4.0976 0.1742 0.0000 -10705.2716 1471.8406 0.0000 0.0000 1772.3573 -7452.9622 302.0287 -9225.3195 -7452.9622 302.0287 313.5667 394.6230 30455.8663 313.5667 394.6230
ENERGY: 300000 0.7025 5.4201 0.3585 0.0000 -10704.1075 1430.2891 0.0000 0.0000 1796.6937 -7470.6435 306.1759 -9267.3372 -7466.8567 299.3324 -86.9269 -64.9795 30295.5698 -322.8857 -247.7042
ENERGY: 600000 1.4542 4.7450 0.8505 0.0000 -10790.4160 1514.8598 0.0000 0.0000 1786.8757 -7481.6308 304.5028 -9268.5065 -7481.6319 299.8902 742.8500 731.6152 29965.1533 -185.5851 -136.6251
ENERGY: 900000 0.4358 3.2701 1.2085 0.0000 -10802.2404 1467.3169 0.0000 0.0000 1753.9789 -7576.0302 298.8968 -9330.0091 -7489.2865 299.7903 103.6410 101.0892 30373.0247 -161.9993 -114.0175
ENERGY: 1200000 0.6039 5.0679 1.5446 0.0000 -10605.6173 1420.5812 0.0000 0.0000 1801.8118 -7376.0078 307.0481 -9177.8196 -7476.4034 300.4197 52.5402 114.2616 30405.5067 -127.2229 -74.2942
ENERGY: 1500000 0.5126 5.2173 0.2208 0.0000 -10761.6876 1513.4837 0.0000 0.0000 1816.7739 -7425.4794 309.5978 -9242.2532 -7475.9315 301.0209 734.7332 813.5473 30336.2262 -138.4575 -80.0835
TCL: Running FEP window  11: Lambda1 0.49999999999999994 Lambda2 0.5499999999999999 [dLambda 0.04999999999999999]
TCL: Setting parameter firsttimestep to 0
TCL: Setting parameter alchLambda to 0.49999999999999994
Info: NONBONDED TABLE R-SQUARED SPACING: 0.0625
Info: NONBONDED TABLE SIZE: 705 POINTS
TCL: Setting parameter alchLambda2 to 0.5499999999999999
Info: NONBONDED TABLE R-SQUARED SPACING: 0.0625
Info: NONBONDED TABLE SIZE: 705 POINTS
TCL: Running for 1500000 steps
ETITLE: TS BOND ANGLE DIHED IMPRP ELECT VDW BOUNDARY MISC KINETIC TOTAL TEMP POTENTIAL TOTALAVG TEMPAVG PRESSURE GPRESSURE VOLUME PRESSAVG GPRESSAVG
ENERGY: 0 0.5126 5.2173 0.2208 0.0000 -10761.6878 1513.1423 0.0000 0.0000 1815.9201 -7426.6747 309.4523 -9242.5948 -7426.6747 309.4523 730.1060 816.0855 30336.2262 730.1060 816.0855
ENERGY: 300000 0.0702 4.7077 0.5597 0.0000 -10783.5107 1451.0092 0.0000 0.0000 1797.5358 -7529.6281 306.3194 -9327.1639 -7468.7319 302.8275 -110.4392 -26.2167 30339.4886 216.1111 266.5504
ENERGY: 600000 1.1575 7.2422 2.1432 0.0000 -10673.4470 1433.9025 0.0000 0.0000 1770.2412 -7458.7604 301.6681 -9229.0016 -7456.3026 302.9811 42.6143 96.0462 30289.5132 212.2458 271.9338
ENERGY: 900000 0.2666 3.7146 0.1484 0.0000 -10716.7338 1510.3486 0.0000 0.0000 1747.5280 -7454.7275 297.7975 -9202.2555 -7468.4843 301.4708 546.1258 624.5643 30534.3339 277.0417 330.7172
ENERGY: 1200000 1.4729 3.7325 0.0727 0.0000 -10658.1710 1379.8115 0.0000 0.0000 1737.6610 -7535.4204 296.1161 -9273.0814 -7479.4907 301.0988 -493.1279 -393.8179 30292.5000 217.8033 270.1355
ENERGY: 1500000 0.8132 2.9856 2.0214 0.0000 -10687.4808 1434.7635 0.0000 0.0000 1711.2553 -7535.6418 291.6163 -9246.8971 -7482.7594 300.7979 -54.6310 -5.9205 30292.0185 173.6829 223.6905
TCL: Running FEP window  12: Lambda1 0.5499999999999999 Lambda2 0.6    [dLambda 0.050000000000000044]
TCL: Setting parameter firsttimestep to 0
TCL: Setting parameter alchLambda to 0.5499999999999999
Info: NONBONDED TABLE R-SQUARED SPACING: 0.0625
Info: NONBONDED TABLE SIZE: 705 POINTS
TCL: Setting parameter alchLambda2 to 0.6
Info: NONBONDED TABLE R-SQUARED SPACING: 0.0625
Info: NONBONDED TABLE SIZE: 705 POINTS
TCL: Running for 1500000 steps
ETITLE: TS BOND ANGLE DIHED IMPRP ELECT VDW BOUNDARY MISC KINETIC TOTAL TEMP POTENTIAL TOTALAVG TEMPAVG PRESSURE GPRESSURE VOLUME PRESSAVG GPRESSAVG
ENERGY: 0 0.8132 2.9856 2.0214 0.0000 -10687.3703 1434.8562 0.0000 0.0000 1710.3342 -7536.3597 291.4593 -9246.6939 -7536.3597 291.4593 -91.2675 0.7400 30292.0185 -91.2675 0.7400
ENERGY: 300000 2.4157 6.2056 0.1582 0.0000 -10695.2705 1490.6238 0.0000 0.0000 1774.7964 -7421.0708 302.4444 -9195.8672 -7497.4986 295.5114 744.7115 713.0416 30314.4328 112.4504 187.0738
ENERGY: 600000 0.4622 3.4498 0.2328 0.0000 -10497.8564 1367.6907 0.0000 0.0000 1765.9267 -7360.0942 300.9329 -9126.0209 -7481.9028 296.5243 -452.5519 -397.2046 31220.2021 -161.6380 -98.2319
ENERGY: 900000 1.6640 4.7320 1.4107 0.0000 -10829.9505 1528.5201 0.0000 0.0000 1806.0411 -7487.5825 307.7688 -9293.6236 -7507.2193 297.2893 717.2248 739.3235 30027.7893 52.8272 108.7008
ENERGY: 1200000 0.6834 7.6577 1.1975 0.0000 -10549.1523 1315.7532 0.0000 0.0000 1753.3470 -7470.5135 298.7891 -9223.8605 -7499.2225 299.4313 -946.7524 -933.0848 30433.7241 54.5424 108.7537
ENERGY: 1500000 0.6349 6.3159 0.8689 0.0000 -10876.2103 1528.2328 0.0000 0.0000 1729.8219 -7610.3358 294.7802 -9340.1577 -7498.9100 299.9578 583.9383 599.5595 30010.6844 141.7067 196.7408
TCL: Running FEP window  13: Lambda1 0.6    Lambda2 0.65   [dLambda 0.050000000000000044]
TCL: Setting parameter firsttimestep to 0
TCL: Setting parameter alchLambda to 0.6
Info: NONBONDED TABLE R-SQUARED SPACING: 0.0625
Info: NONBONDED TABLE SIZE: 705 POINTS
TCL: Setting parameter alchLambda2 to 0.65
Info: NONBONDED TABLE R-SQUARED SPACING: 0.0625
Info: NONBONDED TABLE SIZE: 705 POINTS
TCL: Running for 1500000 steps
ETITLE: TS BOND ANGLE DIHED IMPRP ELECT VDW BOUNDARY MISC KINETIC TOTAL TEMP POTENTIAL TOTALAVG TEMPAVG PRESSURE GPRESSURE VOLUME PRESSAVG GPRESSAVG
ENERGY: 0 0.6349 6.3160 0.8689 0.0000 -10876.0854 1527.8546 0.0000 0.0000 1728.9631 -7611.4479 294.6339 -9340.4110 -7611.4479 294.6339 519.1360 601.6413 30010.6844 519.1360 601.6413
ENERGY: 300000 1.3963 1.7012 0.8877 0.0000 -10771.3640 1467.8429 0.0000 0.0000 1770.7441 -7528.7918 301.7538 -9299.5358 -7523.6958 297.9265 110.9508 170.8932 30194.1907 138.5436 215.6832
ENERGY: 600000 0.7303 2.5139 1.3968 0.0000 -10755.6716 1475.9804 0.0000 0.0000 1752.8616 -7522.1885 298.7064 -9275.0502 -7500.3552 300.0429 331.0364 441.0401 30234.5641 187.4197 277.6225
ENERGY: 900000 0.8132 6.0002 0.4566 0.0000 -10791.8077 1479.2630 0.0000 0.0000 1762.1008 -7543.1739 300.2809 -9305.2747 -7500.6405 299.2263 99.2596 139.2559 30526.6930 95.5066 167.4839
ENERGY: 1200000 0.8584 4.1561 0.0710 0.0000 -10715.6174 1466.4902 0.0000 0.0000 1744.3025 -7499.7393 297.2479 -9244.0418 -7501.8432 299.3477 99.2741 125.7863 30456.4703 118.7895 175.8923
ENERGY: 1500000 1.5721 3.4686 0.1384 0.0000 -10703.7589 1467.8120 0.0000 0.0000 1740.6943 -7490.0736 296.6330 -9230.7679 -7506.7674 298.7596 248.6828 371.0847 30503.3274 132.1543 196.2902
TCL: Running FEP window  14: Lambda1 0.65   Lambda2 0.7000000000000001 [dLambda 0.050000000000000044]
TCL: Setting parameter firsttimestep to 0
TCL: Setting parameter alchLambda to 0.65
Info: NONBONDED TABLE R-SQUARED SPACING: 0.0625
Info: NONBONDED TABLE SIZE: 705 POINTS
TCL: Setting parameter alchLambda2 to 0.7000000000000001
Info: NONBONDED TABLE R-SQUARED SPACING: 0.0625
Info: NONBONDED TABLE SIZE: 705 POINTS
TCL: Running for 1500000 steps
ETITLE: TS BOND ANGLE DIHED IMPRP ELECT VDW BOUNDARY MISC KINETIC TOTAL TEMP POTENTIAL TOTALAVG TEMPAVG PRESSURE GPRESSURE VOLUME PRESSAVG GPRESSAVG
ENERGY: 0 1.5721 3.4686 0.1384 0.0000 -10703.6183 1467.5442 0.0000 0.0000 1739.8315 -7491.0635 296.4860 -9230.8951 -7491.0635 296.4860 296.7694 376.5780 30503.3274 296.7694 376.5780
ENERGY: 300000 0.4245 4.0761 0.0802 0.0000 -10623.3972 1433.9067 0.0000 0.0000 1756.6544 -7428.2553 299.3528 -9184.9097 -7493.5038 296.3871 339.0241 302.1445 30282.5368 300.0126 348.3635
ENERGY: 600000 0.4036 3.1289 0.2084 0.0000 -10804.4752 1509.8288 0.0000 0.0000 1774.9916 -7515.9139 302.4776 -9290.9055 -7489.2249 300.1045 385.6466 418.5878 30559.3385 169.5807 224.7145
ENERGY: 900000 2.2985 3.5306 1.1300 0.0000 -10668.3139 1448.3762 0.0000 0.0000 1730.1360 -7482.8426 294.8337 -9212.9786 -7485.6638 298.4758 357.1680 373.7843 30208.7596 199.6610 258.1119
ENERGY: 1200000 0.1937 4.3408 0.3247 0.0000 -10767.7922 1521.7020 0.0000 0.0000 1742.5342 -7498.6969 296.9465 -9241.2311 -7483.6825 298.8934 698.6146 780.3854 30290.5903 243.8526 299.6621
ENERGY: 1500000 0.6191 3.6847 0.2504 0.0000 -10687.3464 1466.2577 0.0000 0.0000 1793.3795 -7423.1549 305.6111 -9216.5344 -7486.2608 299.2289 412.9028 455.0789 30226.0686 181.5154 235.5214
TCL: Running FEP window  15: Lambda1 0.7000000000000001 Lambda2 0.7500000000000001 [dLambda 0.050000000000000044]
TCL: Setting parameter firsttimestep to 0
TCL: Setting parameter alchLambda to 0.7000000000000001
Info: NONBONDED TABLE R-SQUARED SPACING: 0.0625
Info: NONBONDED TABLE SIZE: 705 POINTS
TCL: Setting parameter alchLambda2 to 0.7500000000000001
Info: NONBONDED TABLE R-SQUARED SPACING: 0.0625
Info: NONBONDED TABLE SIZE: 705 POINTS
TCL: Running for 1500000 steps
ETITLE: TS BOND ANGLE DIHED IMPRP ELECT VDW BOUNDARY MISC KINETIC TOTAL TEMP POTENTIAL TOTALAVG TEMPAVG PRESSURE GPRESSURE VOLUME PRESSAVG GPRESSAVG
ENERGY: 0 0.6191 3.6847 0.2504 0.0000 -10687.5756 1466.2095 0.0000 0.0000 1792.5222 -7424.2896 305.4650 -9216.8119 -7424.2896 305.4650 388.6486 462.2856 30226.0686 388.6486 462.2856
ENERGY: 300000 0.0768 3.6513 0.7537 0.0000 -10843.0192 1512.2523 0.0000 0.0000 1723.6052 -7602.6800 293.7208 -9326.2851 -7498.8911 301.6526 684.6126 650.9805 29963.7785 445.1924 489.1611
ENERGY: 600000 1.3230 5.5637 0.1707 0.0000 -10668.5063 1383.6298 0.0000 0.0000 1710.2893 -7567.5298 291.4517 -9277.8191 -7519.4072 297.8458 -734.7049 -641.5387 30608.4952 47.2055 104.1368
ENERGY: 900000 0.1698 4.3411 1.4114 0.0000 -10750.2436 1456.5745 0.0000 0.0000 1768.1406 -7519.6062 301.3101 -9287.7467 -7512.4572 299.2638 -120.1656 -33.0027 30650.2878 -74.5871 -16.4296
ENERGY: 1200000 0.2942 3.8795 0.5150 0.0000 -10736.0665 1389.5752 0.0000 0.0000 1741.2205 -7600.5821 296.7227 -9341.8026 -7519.0960 299.0692 -390.6278 -358.9446 30171.3486 -140.9638 -81.8541
ENERGY: 1500000 0.5811 2.7373 0.7579 0.0000 -10848.5997 1534.2031 0.0000 0.0000 1756.8554 -7553.4648 299.3870 -9310.3202 -7518.7116 299.2512 765.5437 837.8372 29966.7443 -154.8617 -97.7111
TCL: Running FEP window  16: Lambda1 0.7500000000000001 Lambda2 0.8000000000000002 [dLambda 0.050000000000000044]
TCL: Setting parameter firsttimestep to 0
TCL: Setting parameter alchLambda to 0.7500000000000001
Info: NONBONDED TABLE R-SQUARED SPACING: 0.0625
Info: NONBONDED TABLE SIZE: 705 POINTS
TCL: Setting parameter alchLambda2 to 0.8000000000000002
Info: NONBONDED TABLE R-SQUARED SPACING: 0.0625
Info: NONBONDED TABLE SIZE: 705 POINTS
TCL: Running for 1500000 steps
ETITLE: TS BOND ANGLE DIHED IMPRP ELECT VDW BOUNDARY MISC KINETIC TOTAL TEMP POTENTIAL TOTALAVG TEMPAVG PRESSURE GPRESSURE VOLUME PRESSAVG GPRESSAVG
ENERGY: 0 0.5811 2.7373 0.7579 0.0000 -10848.9220 1533.8776 0.0000 0.0000 1755.9929 -7554.9752 299.2400 -9310.9681 -7554.9752 299.2400 751.6024 837.7637 29966.7443 751.6024 837.7637
ENERGY: 300000 0.3017 5.8920 1.4754 0.0000 -10535.8600 1305.2967 0.0000 0.0000 1761.7275 -7461.1666 300.2173 -9222.8941 -7528.1957 296.3288 -1137.9330 -986.4892 30938.9509 -187.7779 -95.2702
ENERGY: 600000 0.5623 5.5805 0.6518 0.0000 -10648.9764 1377.0085 0.0000 0.0000 1731.3809 -7533.7924 295.0459 -9265.1733 -7526.7817 298.2651 -508.3020 -449.0742 30240.5369 -280.2537 -199.2117
ENERGY: 900000 2.0779 3.5799 0.3082 0.0000 -10653.1824 1445.0571 0.0000 0.0000 1792.6406 -7409.5188 305.4852 -9202.1594 -7507.3910 299.6534 147.0927 283.7357 30539.6641 -186.4972 -106.9267
ENERGY: 1200000 1.4589 8.3521 0.1457 0.0000 -10689.1336 1452.7956 0.0000 0.0000 1705.7663 -7520.6151 290.6809 -9226.3813 -7506.1513 298.9380 -256.1670 -185.4062 30938.0729 -152.0128 -81.4102
ENERGY: 1500000 0.2846 4.2211 0.5924 0.0000 -10763.9025 1452.1909 0.0000 0.0000 1783.4333 -7523.1803 303.9162 -9306.6135 -7502.2911 298.9072 3.0345 31.8664 30400.2806 -129.6371 -60.4494
TCL: Running FEP window  17: Lambda1 0.8000000000000002 Lambda2 0.8500000000000002 [dLambda 0.050000000000000044]
TCL: Setting parameter firsttimestep to 0
TCL: Setting parameter alchLambda to 0.8000000000000002
Info: NONBONDED TABLE R-SQUARED SPACING: 0.0625
Info: NONBONDED TABLE SIZE: 705 POINTS
TCL: Setting parameter alchLambda2 to 0.8500000000000002
Info: NONBONDED TABLE R-SQUARED SPACING: 0.0625
Info: NONBONDED TABLE SIZE: 705 POINTS
TCL: Running for 1500000 steps
ETITLE: TS BOND ANGLE DIHED IMPRP ELECT VDW BOUNDARY MISC KINETIC TOTAL TEMP POTENTIAL TOTALAVG TEMPAVG PRESSURE GPRESSURE VOLUME PRESSAVG GPRESSAVG
ENERGY: 0 0.2846 4.2211 0.5924 0.0000 -10764.6999 1452.3719 0.0000 0.0000 1782.5890 -7524.6409 303.7723 -9307.2299 -7524.6409 303.7723 -43.4709 44.0287 30400.2806 -43.4709 44.0287
ENERGY: 300000 0.4822 3.0230 0.1767 0.0000 -10847.4101 1516.3888 0.0000 0.0000 1763.7298 -7563.6096 300.5585 -9327.3394 -7520.3130 298.8832 466.0404 560.5954 30143.7107 -70.8493 -10.3865
ENERGY: 600000 1.5289 3.3207 0.6424 0.0000 -10765.2592 1438.3950 0.0000 0.0000 1774.1550 -7547.2172 302.3350 -9321.3722 -7518.8880 300.3205 -339.0317 -306.0863 30438.5900 -99.4869 -32.6572
ENERGY: 900000 0.7789 7.8593 0.5319 0.0000 -10934.8598 1584.9739 0.0000 0.0000 1787.7466 -7552.9691 304.6512 -9340.7157 -7515.4262 301.4820 964.4681 957.9443 30439.5750 -44.3831 14.5081
ENERGY: 1200000 1.1784 9.2273 0.3369 0.0000 -10644.0243 1437.4990 0.0000 0.0000 1766.3924 -7429.3902 301.0122 -9195.7826 -7503.5336 300.9601 224.5997 242.2945 30334.5684 35.1254 94.4170
ENERGY: 1500000 0.9303 4.2192 0.2154 0.0000 -10762.9842 1445.7535 0.0000 0.0000 1766.5700 -7545.2958 301.0425 -9311.8658 -7501.3646 301.2108 112.7958 218.2405 30064.4643 26.0416 88.8036
TCL: Running FEP window  18: Lambda1 0.8500000000000002 Lambda2 0.9000000000000002 [dLambda 0.050000000000000044]
TCL: Setting parameter firsttimestep to 0
TCL: Setting parameter alchLambda to 0.8500000000000002
Info: NONBONDED TABLE R-SQUARED SPACING: 0.0625
Info: NONBONDED TABLE SIZE: 705 POINTS
TCL: Setting parameter alchLambda2 to 0.9000000000000002
Info: NONBONDED TABLE R-SQUARED SPACING: 0.0625
Info: NONBONDED TABLE SIZE: 705 POINTS
TCL: Running for 1500000 steps
ETITLE: TS BOND ANGLE DIHED IMPRP ELECT VDW BOUNDARY MISC KINETIC TOTAL TEMP POTENTIAL TOTALAVG TEMPAVG PRESSURE GPRESSURE VOLUME PRESSAVG GPRESSAVG
ENERGY: 0 0.9303 4.2192 0.2154 0.0000 -10763.0792 1446.8683 0.0000 0.0000 1765.7284 -7545.1176 300.8991 -9310.8460 -7545.1176 300.8991 151.7784 238.8978 30064.4643 151.7784 238.8978
ENERGY: 300000 1.5266 11.0745 0.6456 0.0000 -10647.3916 1416.5948 0.0000 0.0000 1815.0451 -7402.5049 309.3032 -9217.5501 -7486.2699 304.0310 -16.5059 45.2702 30168.3589 -153.9425 -90.5631
ENERGY: 600000 0.9481 4.0227 0.1542 0.0000 -10588.6353 1361.9007 0.0000 0.0000 1724.4943 -7497.1153 293.8723 -9221.6096 -7488.3280 303.0922 -534.7986 -536.5219 30734.8517 -205.1657 -161.4972
ENERGY: 900000 1.0301 6.2552 0.4920 0.0000 -10762.4223 1477.7177 0.0000 0.0000 1753.9418 -7522.9855 298.8905 -9276.9273 -7488.9006 301.2903 394.7200 381.4188 30310.8837 -143.1710 -110.8319
ENERGY: 1200000 0.2890 5.5429 0.8276 0.0000 -10600.5609 1338.1309 0.0000 0.0000 1727.5179 -7528.2527 294.3876 -9255.7705 -7486.6809 301.3817 -779.0906 -712.1511 30489.7822 -288.7896 -250.6853
ENERGY: 1500000 0.0972 5.6138 0.9794 0.0000 -10760.3514 1462.3983 0.0000 0.0000 1764.1287 -7527.1339 300.6265 -9291.2627 -7484.1877 301.5351 265.3780 271.3995 30057.2211 -199.7566 -165.8029
TCL: Running FEP window  19: Lambda1 0.9000000000000002 Lambda2 0.9500000000000003 [dLambda 0.050000000000000044]
TCL: Setting parameter firsttimestep to 0
TCL: Setting parameter alchLambda to 0.9000000000000002
Info: NONBONDED TABLE R-SQUARED SPACING: 0.0625
Info: NONBONDED TABLE SIZE: 705 POINTS
TCL: Setting parameter alchLambda2 to 0.9500000000000003
Info: NONBONDED TABLE R-SQUARED SPACING: 0.0625
Info: NONBONDED TABLE SIZE: 705 POINTS
TCL: Running for 1500000 steps
ETITLE: TS BOND ANGLE DIHED IMPRP ELECT VDW BOUNDARY MISC KINETIC TOTAL TEMP POTENTIAL TOTALAVG TEMPAVG PRESSURE GPRESSURE VOLUME PRESSAVG GPRESSAVG
ENERGY: 0 0.0972 5.6138 0.9794 0.0000 -10760.7464 1462.2228 0.0000 0.0000 1763.2390 -7528.5941 300.4749 -9291.8332 -7528.5941 300.4749 195.3632 276.6496 30057.2211 195.3632 276.6496
ENERGY: 300000 0.2713 6.2058 0.2729 0.0000 -10687.8093 1397.2911 0.0000 0.0000 1747.9726 -7535.7957 297.8733 -9283.7683 -7538.1468 295.3474 -213.8325 -190.8773 30058.3709 420.4373 479.6843
ENERGY: 600000 0.7069 2.7072 0.1131 0.0000 -10756.6424 1515.6906 0.0000 0.0000 1713.3282 -7524.0964 291.9695 -9237.4246 -7502.5930 295.6014 508.3605 580.0870 30527.9460 236.3266 290.6282
ENERGY: 900000 1.0394 4.2887 0.7734 0.0000 -10754.4310 1492.0777 0.0000 0.0000 1782.4502 -7473.8015 303.7486 -9256.2517 -7492.7022 297.5545 148.4900 270.3826 30671.8898 151.4761 219.1403
ENERGY: 1200000 0.3719 4.9196 0.3584 0.0000 -10873.5665 1556.4461 0.0000 0.0000 1756.2671 -7555.2034 299.2868 -9311.4705 -7501.6136 297.9918 782.1990 890.4303 30230.8813 165.7792 240.8376
ENERGY: 1500000 0.3124 3.8663 0.9930 0.0000 -10822.3972 1567.7855 0.0000 0.0000 1751.3452 -7498.0949 298.4480 -9249.4400 -7502.3199 298.2812 1294.2505 1353.3019 30016.0768 169.7180 242.3679
TCL: Running FEP window  20: Lambda1 0.9500000000000003 Lambda2 1.0    [dLambda 0.04999999999999971]
TCL: Setting parameter firsttimestep to 0
TCL: Setting parameter alchLambda to 0.9500000000000003
Info: NONBONDED TABLE R-SQUARED SPACING: 0.0625
Info: NONBONDED TABLE SIZE: 705 POINTS
TCL: Setting parameter alchLambda2 to 1.0
Info: NONBONDED TABLE R-SQUARED SPACING: 0.0625
Info: NONBONDED TABLE SIZE: 705 POINTS
TCL: Running for 1500000 steps
ETITLE: TS BOND ANGLE DIHED IMPRP ELECT VDW BOUNDARY MISC KINETIC TOTAL TEMP POTENTIAL TOTALAVG TEMPAVG PRESSURE GPRESSURE VOLUME PRESSAVG GPRESSAVG
ENERGY: 0 0.3124 3.8663 0.9930 0.0000 -10822.7800 1568.3842 0.0000 0.0000 1750.4609 -7498.7632 298.2973 -9249.2241 -7498.7632 298.2973 1281.4950 1372.2952 30016.0768 1281.4950 1372.2952
ENERGY: 300000 0.2939 4.5851 0.2813 0.0000 -10499.1914 1319.8593 0.0000 0.0000 1744.6984 -7429.4735 297.3153 -9174.1718 -7462.8519 301.2141 -746.6468 -659.4684 30768.1309 476.5107 554.5344
ENERGY: 600000 1.0623 7.9358 0.5986 0.0000 -10652.1908 1375.5050 0.0000 0.0000 1786.0989 -7480.9902 304.3704 -9267.0891 -7466.8884 301.0240 -274.9241 -256.8227 30142.4903 197.8470 267.5562
ENERGY: 900000 0.4226 5.3426 0.3440 0.0000 -10584.0217 1363.0007 0.0000 0.0000 1805.2185 -7409.6933 307.6286 -9214.9119 -7463.9960 300.6722 -598.0455 -512.1298 30537.1496 -22.5331 38.3561
ENERGY: 1200000 1.6249 4.6783 0.3412 0.0000 -10712.3508 1458.8447 0.0000 0.0000 1814.9727 -7431.8891 309.2908 -9246.8618 -7475.5029 300.9048 264.2434 323.4945 30555.5783 -35.0579 28.6032
ENERGY: 1500000 0.8970 3.9952 0.4197 0.0000 -10718.4946 1463.2655 0.0000 0.0000 1804.2771 -7445.6400 307.4682 -9249.9171 -7472.7398 301.7888 470.4365 547.5573 29902.1620 11.0955 79.7231
TCL: Exiting due to exit command.
