Info: SIMULATION PARAMETERS:
Info: TIMESTEP               2
Info: NUMBER OF STEPS        0
Info: STEPS PER CYCLE        10
Info: PERIODIC CELL BASIS 1  30.348 0 0
Info: PERIODIC CELL BASIS 2  0 28.5301 0
Info: PERIODIC CELL BASIS 3  0 0 35.0678
Info: PERIODIC CELL CENTER   0 0 0
Info: WRAPPING WATERS AROUND PERIODIC BOUNDARIES ON OUTPUT.
Info: WRAPPING ALL CLUSTERS AROUND PERIODIC BOUNDARIES ON OUTPUT.
Info: FIRST LDB TIMESTEP     50
Info: LAST LDB TIMESTEP     -1
Info: HOM BACKGROUND SCALING 1
Info: PME BACKGROUND SCALING 1
Info: MIN ATOMS PER PATCH    40
Info: EMPTY PATCH LOAD       40 ATOMS
Info: VELOCITY FILE          mobley_2005792_equil.vel
Info: CENTER OF MASS MOVING INITIALLY? NO
Info: DIELECTRIC             1
Info: EXCLUDE                SCALED ONE-FOUR
Info: 1-4 ELECTROSTATICS SCALED BY 0.833333
Info: MODIFIED 1-4 VDW PARAMETERS WILL BE USED
Info: DCD FILENAME           mobley_2005792_prod.dcd
Info: DCD FREQUENCY          100000
Info: DCD FIRST STEP         100000
Info: DCD FILE WILL CONTAIN UNIT CELL DATA
Info: XST FILENAME           mobley_2005792_prod.xst
Info: XST FREQUENCY          100000
Info: NO VELOCITY DCD OUTPUT
Info: NO FORCE DCD OUTPUT
Info: OUTPUT FILENAME        mobley_2005792_prod
Info: BINARY OUTPUT FILES WILL BE USED
Info: RESTART FILENAME       mobley_2005792_prod.restart
Info: RESTART FREQUENCY      100000
Info: BINARY RESTART FILES WILL BE USED
Info: CUTOFF                 9
Info: PAIRLIST DISTANCE      11
Info: PAIRLIST SHRINK RATE   0.01
Info: PAIRLIST GROW RATE     0.01
Info: PAIRLIST TRIGGER       0.3
Info: PAIRLISTS PER CYCLE    2
Info: PAIRLISTS ENABLED
Info: MARGIN                 2
Info: HYDROGEN GROUP CUTOFF  2.5
Info: PATCH DIMENSION        15.5
Info: ENERGY OUTPUT STEPS    100000
Info: ENERGY EVALUATION STEPS    100000
Info: OUTPUT ENERGY PRECISION 4
Info: CROSSTERM ENERGY INCLUDED IN DIHEDRAL
Info: TIMING OUTPUT STEPS    1000000
Info: PRESSURE OUTPUT STEPS  100000
Info: ALCHEMICAL FEP ON
Info: FEP CURRENT LAMBDA VALUE     0
Info: FEP COMPARISON LAMBDA VALUE  0.05
Info: FEP INTRA-ALCHEMICAL NON-BONDED INTERACTIONS WILL BE RETAINED
Info: FEP INTRA-ALCHEMICAL BONDED INTERACTIONS WILL BE RETAINED
Info: FEP VDW SHIFTING COEFFICIENT 5
Info: FEP ELEC. ACTIVE FOR ANNIHILATED PARTICLES BETWEEN LAMBDA = 0 AND LAMBDA = 0.5
Info: FEP ELEC. ACTIVE FOR EXNIHILATED PARTICLES BETWEEN LAMBDA = 0.5 AND LAMBDA = 1
Info: FEP VDW ACTIVE FOR ANNIHILATED PARTICLES BETWEEN LAMBDA = 0 AND LAMBDA = 1
Info: FEP VDW ACTIVE FOR EXNIHILATED PARTICLES BETWEEN LAMBDA = 0 AND LAMBDA = 1
Info: FEP BOND ACTIVE FOR ANNIHILATED PARTICLES BETWEEN LAMBDA = 1 AND LAMBDA = 1
Info: FEP BOND ACTIVE FOR EXNIHILATED PARTICLES BETWEEN LAMBDA = 0 AND LAMBDA = 0
Info: LANGEVIN DYNAMICS ACTIVE
Info: LANGEVIN TEMPERATURE   300
Info: LANGEVIN USING BBK INTEGRATOR
Info: LANGEVIN DAMPING COEFFICIENT IS 1 INVERSE PS
Info: LANGEVIN DYNAMICS APPLIED TO HYDROGENS
Info: LANGEVIN PISTON PRESSURE CONTROL ACTIVE
Info:        TARGET PRESSURE IS 1.01325 BAR
Info:     OSCILLATION PERIOD IS 50 FS
Info:             DECAY TIME IS 25 FS
Info:     PISTON TEMPERATURE IS 300 K
Info:       PRESSURE CONTROL IS GROUP-BASED
Info:    INITIAL STRAIN RATE IS -3.51157e-05 -3.51157e-05 -3.51157e-05
Info:       CELL FLUCTUATION IS ISOTROPIC
Info: PARTICLE MESH EWALD (PME) ACTIVE
Info: PME TOLERANCE               1e-06
Info: PME EWALD COEFFICIENT       0.348832
Info: PME INTERPOLATION ORDER     4
Info: PME GRID DIMENSIONS         32 32 36
Info: PME MAXIMUM GRID SPACING    1
Info: PME CALCULATION WILL BE PERFORMED ON GPU
Info: FULL ELECTROSTATIC EVALUATION FREQUENCY      2
Info: USING VERLET I (r-RESPA) MTS SCHEME.
Info: C1 SPLITTING OF LONG RANGE ELECTROSTATICS
Info: PLACING ATOMS IN PATCHES BY HYDROGEN GROUPS
Info: RIGID BONDS TO HYDROGEN : ALL
Info:         ERROR TOLERANCE : 1e-08
Info:          MAX ITERATIONS : 100
Info: RIGID WATER USING SETTLE ALGORITHM
Info: RANDOM NUMBER SEED     1743789231
Info: USE HYDROGEN BONDS?    NO
Info: Using AMBER format force field!
Info: AMBER PARM FILE        mobley_2005792.prmtop
Info: COORDINATE PDB         mobley_2005792.pdb
Info: Exclusions will be read from PARM file!
Info: SCNB (VDW SCALING)     2
Info: USING ARITHMETIC MEAN TO COMBINE L-J SIGMA PARAMETERS
Info: BINARY COORDINATES     mobley_2005792_equil.coor
Info: SUMMARY OF PARAMETERS:
Info: 6 BONDS
Info: 6 ANGLES
Info:   6 HARMONIC
Info:   0 COSINE-BASED
Info: 3 DIHEDRAL
Info: 0 IMPROPER
Info: 0 CROSSTERM
Info: 0 VDW
Info: 10 VDW_PAIRS
Info: 0 NBTHOLE_PAIRS
Info: To read alchdata from file: mobley_2005792.pdb
Info: To read alchflag data from column: 5
Info: STRUCTURE SUMMARY:
Info: 2950 ATOMS
Info: 2951 BONDS
Info: 36 ANGLES
Info: 64 DIHEDRALS
Info: 0 IMPROPERS
Info: 0 CROSSTERMS
Info: 3033 EXCLUSIONS
Info: 2938 RIGID BONDS
Info: ALCH: 0 ATOMS TO DISAPPEAR IN FINAL STATE
Info: ALCH: 22 ATOMS TO APPEAR IN FINAL STATE
Info: 5912 DEGREES OF FREEDOM
Info: 988 HYDROGEN GROUPS
Info: 3 ATOMS IN LARGEST HYDROGEN GROUP
Info: 988 MIGRATION GROUPS
Info: 3 ATOMS IN LARGEST MIGRATION GROUP
Info: TOTAL MASS = 17737.8 amu
Info: TOTAL CHARGE = -0.000199966 e
Info: MASS DENSITY = 0.970101 g/cm^3
Info: ATOM DENSITY = 0.0971583 atoms/A^3
Info: ADDED 0 IMPLICIT EXCLUSIONS
Info: NONBONDED TABLE R-SQUARED SPACING: 0.0625
Info: NONBONDED TABLE SIZE: 705 POINTS
Info: REMOVING COM VELOCITY 0.19141 0.0237347 0.165763
Info: Use 3D box decompostion in PME FFT.
Info: Updated CUDA force table with 4096 elements.
Info: Updated CUDA LJ table with 4 x 4 elements.
Info: Found 20 unique exclusion lists needing 60 bytes
TCL: Running for 1500000 steps
ETITLE: TS BOND ANGLE DIHED IMPRP ELECT VDW BOUNDARY MISC KINETIC TOTAL TEMP POTENTIAL TOTALAVG TEMPAVG PRESSURE GPRESSURE VOLUME PRESSAVG GPRESSAVG
ENERGY: 0 4.2047 4.2491 8.2048 0.0000 -10708.6741 1430.5310 0.0000 0.0000 1796.3712 -7465.1133 305.8102 -9261.4845 -7465.1133 305.8102 -299.3608 -215.4316 30362.8301 -299.3608 -215.4316
ENERGY: 300000 5.1141 9.5272 6.9775 0.0000 -10576.3423 1375.1609 0.0000 0.0000 1740.0233 -7439.5393 296.2177 -9179.5627 -7425.8800 300.5281 -509.3243 -475.4087 30343.0789 -231.6389 -173.8870
ENERGY: 600000 4.3891 4.6416 11.8508 0.0000 -10624.4280 1472.5406 0.0000 0.0000 1689.7554 -7441.2506 287.6602 -9131.0060 -7421.0430 297.6258 193.4545 226.4930 30484.4741 -191.5475 -130.2100
ENERGY: 900000 7.0568 5.0349 5.7537 0.0000 -10570.1195 1367.0816 0.0000 0.0000 1744.2214 -7440.9711 296.9324 -9185.1925 -7436.6090 297.2129 -604.7942 -579.1937 30298.0630 -320.7167 -259.3224
ENERGY: 1200000 4.9652 4.0661 6.9466 0.0000 -10592.2923 1337.9796 0.0000 0.0000 1718.2996 -7520.0353 292.5195 -9238.3349 -7444.1681 297.2869 -1016.4023 -972.8380 30177.5313 -348.2627 -288.4940
ENERGY: 1500000 2.3770 4.5861 12.0665 0.0000 -10601.8930 1367.0014 0.0000 0.0000 1743.8170 -7472.0450 296.8635 -9215.8620 -7441.4433 297.8179 -564.3703 -520.1310 30164.1165 -315.1259 -257.2576
TCL: Running FEP window   2: Lambda1 0.05   Lambda2 0.1    [dLambda 0.05  ]
TCL: Setting parameter firsttimestep to 0
TCL: Setting parameter alchLambda to 0.05
Info: NONBONDED TABLE R-SQUARED SPACING: 0.0625
Info: NONBONDED TABLE SIZE: 705 POINTS
TCL: Setting parameter alchLambda2 to 0.1
Info: NONBONDED TABLE R-SQUARED SPACING: 0.0625
Info: NONBONDED TABLE SIZE: 705 POINTS
TCL: Running for 1500000 steps
ETITLE: TS BOND ANGLE DIHED IMPRP ELECT VDW BOUNDARY MISC KINETIC TOTAL TEMP POTENTIAL TOTALAVG TEMPAVG PRESSURE GPRESSURE VOLUME PRESSAVG GPRESSAVG
ENERGY: 0 2.3770 4.5861 12.0665 0.0000 -10601.8953 1370.7778 0.0000 0.0000 1742.9148 -7469.1730 296.7100 -9212.0879 -7469.1730 296.7100 -602.4955 -512.9365 30164.1165 -602.4955 -512.9365
ENERGY: 300000 3.4813 4.7493 6.0588 0.0000 -10771.4955 1536.9699 0.0000 0.0000 1728.1979 -7492.0383 294.2046 -9220.2362 -7462.3294 298.7708 1012.9051 1024.9347 29694.1471 395.2010 464.0739
ENERGY: 600000 3.8871 5.1155 7.3176 0.0000 -10623.6281 1460.8945 0.0000 0.0000 1797.0418 -7349.3718 305.9244 -9146.4136 -7452.3098 301.8959 279.5615 428.0121 30169.5418 407.6325 484.7298
ENERGY: 900000 2.1711 6.5724 5.1922 0.0000 -10754.0249 1459.5007 0.0000 0.0000 1769.2150 -7511.3735 301.1872 -9280.5886 -7453.4729 300.6184 201.5375 246.6604 29823.2064 290.1344 367.8172
ENERGY: 1200000 3.3462 7.0395 9.5661 0.0000 -10601.6025 1407.0796 0.0000 0.0000 1743.1838 -7431.3875 296.7557 -9174.5712 -7447.0037 299.2835 -514.6123 -499.9080 30427.6591 237.7468 310.9030
ENERGY: 1500000 5.4532 7.0052 15.1258 0.0000 -10538.1360 1376.9101 0.0000 0.0000 1783.3704 -7350.2714 303.5970 -9133.6418 -7434.4424 299.8872 -381.7371 -350.1818 30166.3858 140.7955 207.9092
TCL: Running FEP window   3: Lambda1 0.1    Lambda2 0.15000000000000002 [dLambda 0.05000000000000002]
TCL: Setting parameter firsttimestep to 0
TCL: Setting parameter alchLambda to 0.1
Info: NONBONDED TABLE R-SQUARED SPACING: 0.0625
Info: NONBONDED TABLE SIZE: 705 POINTS
TCL: Setting parameter alchLambda2 to 0.15000000000000002
Info: NONBONDED TABLE R-SQUARED SPACING: 0.0625
Info: NONBONDED TABLE SIZE: 705 POINTS
TCL: Running for 1500000 steps
ETITLE: TS BOND ANGLE DIHED IMPRP ELECT VDW BOUNDARY MISC KINETIC TOTAL TEMP POTENTIAL TOTALAVG TEMPAVG PRESSURE GPRESSURE VOLUME PRESSAVG GPRESSAVG
ENERGY: 0 5.4532 7.0052 15.1258 0.0000 -10538.1372 1379.2580 0.0000 0.0000 1782.5056 -7348.7895 303.4498 -9131.2951 -7348.7895 303.4498 -425.4552 -339.6109 30166.3858 -425.4552 -339.6109
ENERGY: 300000 8.7033 6.0131 2.6261 0.0000 -10595.7440 1359.3131 0.0000 0.0000 1765.4229 -7453.6655 300.5417 -9219.0884 -7412.8964 301.7762 -674.5893 -644.5540 30164.9052 -381.5747 -327.3469
ENERGY: 600000 3.9385 7.7136 4.7385 0.0000 -10581.1635 1361.5874 0.0000 0.0000 1729.2224 -7473.9631 294.3790 -9203.1855 -7438.0520 299.4563 -920.8569 -810.1803 30074.4407 -267.7416 -201.6427
ENERGY: 900000 7.0131 4.9629 7.8819 0.0000 -10666.1204 1504.1109 0.0000 0.0000 1745.4251 -7396.7266 297.1373 -9142.1516 -7440.7726 298.8577 643.9836 674.2794 30280.0359 -164.2825 -109.5384
ENERGY: 1200000 6.5855 4.1185 6.0286 0.0000 -10715.1343 1457.3353 0.0000 0.0000 1707.7327 -7533.3336 290.7206 -9241.0664 -7454.3237 298.8817 15.3856 59.7377 29948.5336 -119.5259 -68.6088
ENERGY: 1500000 4.1843 9.9010 12.7626 0.0000 -10526.9761 1376.8383 0.0000 0.0000 1787.9468 -7335.3432 304.3761 -9123.2900 -7437.1759 300.5513 -139.6574 -142.4989 30448.7140 -86.8933 -39.1406
TCL: Running FEP window   4: Lambda1 0.15000000000000002 Lambda2 0.2    [dLambda 0.04999999999999999]
TCL: Setting parameter firsttimestep to 0
TCL: Setting parameter alchLambda to 0.15000000000000002
Info: NONBONDED TABLE R-SQUARED SPACING: 0.0625
Info: NONBONDED TABLE SIZE: 705 POINTS
TCL: Setting parameter alchLambda2 to 0.2
Info: NONBONDED TABLE R-SQUARED SPACING: 0.0625
Info: NONBONDED TABLE SIZE: 705 POINTS
TCL: Running for 1500000 steps
ETITLE: TS BOND ANGLE DIHED IMPRP ELECT VDW BOUNDARY MISC KINETIC TOTAL TEMP POTENTIAL TOTALAVG TEMPAVG PRESSURE GPRESSURE VOLUME PRESSAVG GPRESSAVG
ENERGY: 0 4.1843 9.9010 12.7626 0.0000 -10526.9755 1377.9480 0.0000 0.0000 1787.0678 -7335.1118 304.2265 -9122.1796 -7335.1118 304.2265 -212.0029 -135.8564 30448.7140 -212.0029 -135.8564
ENERGY: 300000 4.4948 3.4219 4.4458 0.0000 -10777.6009 1466.5986 0.0000 0.0000 1756.1724 -7542.4673 298.9669 -9298.6397 -7424.9285 300.4415 186.7000 225.4568 29644.3357 -418.2539 -367.9975
ENERGY: 600000 4.2267 5.9356 10.4707 0.0000 -10537.5921 1402.7426 0.0000 0.0000 1724.0753 -7390.1413 293.5028 -9114.2166 -7412.3716 301.6242 -53.7330 -24.6437 30225.8585 -183.1938 -137.1038
ENERGY: 900000 3.6245 5.6956 9.3664 0.0000 -10628.5507 1438.9765 0.0000 0.0000 1740.3840 -7430.5038 296.2791 -9170.8878 -7412.1721 301.2161 192.0378 224.7262 29953.9508 -81.5984 -38.7849
ENERGY: 1200000 6.2257 5.4388 5.5880 0.0000 -10593.3978 1441.5524 0.0000 0.0000 1789.1395 -7345.4534 304.5791 -9134.5929 -7412.9776 302.0077 15.6464 102.7651 30613.0724 -113.5962 -73.1286
ENERGY: 1500000 3.2503 4.7666 4.9595 0.0000 -10840.9511 1574.1438 0.0000 0.0000 1744.3298 -7509.5012 296.9508 -9253.8310 -7414.6653 301.0627 1143.9638 1155.2030 29818.7695 -67.0677 -25.4693
TCL: Running FEP window   5: Lambda1 0.2    Lambda2 0.25   [dLambda 0.04999999999999999]
TCL: Setting parameter firsttimestep to 0
TCL: Setting parameter alchLambda to 0.2
Info: NONBONDED TABLE R-SQUARED SPACING: 0.0625
Info: NONBONDED TABLE SIZE: 705 POINTS
TCL: Setting parameter alchLambda2 to 0.25
Info: NONBONDED TABLE R-SQUARED SPACING: 0.0625
Info: NONBONDED TABLE SIZE: 705 POINTS
TCL: Running for 1500000 steps
ETITLE: TS BOND ANGLE DIHED IMPRP ELECT VDW BOUNDARY MISC KINETIC TOTAL TEMP POTENTIAL TOTALAVG TEMPAVG PRESSURE GPRESSURE VOLUME PRESSAVG GPRESSAVG
ENERGY: 0 3.2503 4.7666 4.9595 0.0000 -10840.9498 1575.3179 0.0000 0.0000 1743.4313 -7509.2242 296.7979 -9252.6555 -7509.2242 296.7979 1080.5676 1169.8532 29818.7695 1080.5676 1169.8532
ENERGY: 300000 2.2985 6.0937 8.1301 0.0000 -10669.4898 1514.6369 0.0000 0.0000 1764.3875 -7373.9431 300.3654 -9138.3306 -7446.9982 299.2055 672.6113 727.7093 30230.5938 535.4858 596.6457
ENERGY: 600000 4.3803 8.9035 9.0953 0.0000 -10717.0553 1498.4116 0.0000 0.0000 1773.1374 -7423.1272 301.8550 -9196.2646 -7418.7206 300.4946 399.6101 470.8137 30238.3907 206.9852 275.0321
ENERGY: 900000 3.5169 3.3765 10.6006 0.0000 -10751.4797 1476.1150 0.0000 0.0000 1785.1301 -7472.7405 303.8966 -9257.8706 -7427.5490 301.5540 169.7805 225.7508 30097.0682 80.8147 150.7579
ENERGY: 1200000 3.3814 7.9194 6.6871 0.0000 -10747.5052 1556.9531 0.0000 0.0000 1736.0792 -7436.4851 295.5463 -9172.5643 -7425.9783 301.1469 1092.6044 1151.3535 29801.4424 141.7658 208.7621
ENERGY: 1500000 3.2449 7.0776 12.1645 0.0000 -10695.6391 1485.0944 0.0000 0.0000 1801.4274 -7386.6302 306.6710 -9188.0576 -7420.3052 301.5313 367.9774 475.2689 30208.4866 75.9812 148.8835
TCL: Running FEP window   6: Lambda1 0.25   Lambda2 0.3    [dLambda 0.04999999999999999]
TCL: Setting parameter firsttimestep to 0
TCL: Setting parameter alchLambda to 0.25
Info: NONBONDED TABLE R-SQUARED SPACING: 0.0625
Info: NONBONDED TABLE SIZE: 705 POINTS
TCL: Setting parameter alchLambda2 to 0.3
Info: NONBONDED TABLE R-SQUARED SPACING: 0.0625
Info: NONBONDED TABLE SIZE: 705 POINTS
TCL: Running for 1500000 steps
ETITLE: TS BOND ANGLE DIHED IMPRP ELECT VDW BOUNDARY MISC KINETIC TOTAL TEMP POTENTIAL TOTALAVG TEMPAVG PRESSURE GPRESSURE VOLUME PRESSAVG GPRESSAVG
ENERGY: 0 3.2449 7.0776 12.1645 0.0000 -10695.6389 1485.6730 0.0000 0.0000 1800.5265 -7386.9524 306.5176 -9187.4789 -7386.9524 306.5176 410.1785 482.7973 30208.4866 410.1785 482.7973
ENERGY: 300000 6.5211 2.5059 6.4495 0.0000 -10423.1307 1290.9998 0.0000 0.0000 1795.7662 -7320.8882 305.7073 -9116.6544 -7406.8331 303.4784 -656.2111 -616.9359 30029.8550 -103.8843 -43.9203
ENERGY: 600000 4.2555 4.6818 13.4828 0.0000 -10747.9344 1441.6012 0.0000 0.0000 1799.9831 -7483.9300 306.4251 -9283.9131 -7421.2727 302.4971 -182.3760 -104.3223 30097.5614 -243.1812 -165.9863
ENERGY: 900000 4.8617 6.0672 9.1208 0.0000 -10686.5046 1456.2693 0.0000 0.0000 1724.6544 -7485.5313 293.6013 -9210.1857 -7427.9109 302.0607 251.1035 355.8727 29679.8799 -80.5762 -4.3527
ENERGY: 1200000 5.3833 3.2725 4.8876 0.0000 -10611.6563 1404.9461 0.0000 0.0000 1773.6510 -7419.5157 301.9424 -9193.1667 -7435.3253 301.3751 -282.5469 -273.4654 30418.5276 -207.0357 -129.8105
ENERGY: 1500000 3.1633 4.9544 5.5448 0.0000 -10728.1212 1503.7490 0.0000 0.0000 1777.4321 -7433.2776 302.5861 -9210.7096 -7437.4012 300.4590 653.4602 685.7140 29803.2525 -101.3515 -35.1200
TCL: Running FEP window   7: Lambda1 0.3    Lambda2 0.35   [dLambda 0.04999999999999999]
TCL: Setting parameter firsttimestep to 0
TCL: Setting parameter alchLambda to 0.3
Info: NONBONDED TABLE R-SQUARED SPACING: 0.0625
Info: NONBONDED TABLE SIZE: 705 POINTS
TCL: Setting parameter alchLambda2 to 0.35
Info: NONBONDED TABLE R-SQUARED SPACING: 0.0625
Info: NONBONDED TABLE SIZE: 705 POINTS
TCL: Running for 1500000 steps
ETITLE: TS BOND ANGLE DIHED IMPRP ELECT VDW BOUNDARY MISC KINETIC TOTAL TEMP POTENTIAL TOTALAVG TEMPAVG PRESSURE GPRESSURE VOLUME PRESSAVG GPRESSAVG
ENERGY: 0 3.1633 4.9544 5.5448 0.0000 -10728.1201 1503.9024 0.0000 0.0000 1776.5295 -7434.0257 302.4324 -9210.5552 -7434.0257 302.4324 598.2961 689.1651 29803.2525 598.2961 689.1651
ENERGY: 300000 4.8470 6.4741 7.2120 0.0000 -10596.0309 1414.9549 0.0000 0.0000 1778.4707 -7384.0722 302.7629 -9162.5428 -7408.7047 303.7649 32.4795 107.1573 30310.7128 46.5165 123.3265
ENERGY: 600000 3.2151 5.3469 11.9535 0.0000 -10604.2378 1464.8723 0.0000 0.0000 1775.3430 -7343.5070 302.2305 -9118.8500 -7409.8448 302.2371 66.3515 107.0779 30870.1377 33.0101 99.6355
ENERGY: 900000 4.3279 6.1018 10.0675 0.0000 -10600.9780 1410.0993 0.0000 0.0000 1788.3998 -7381.9816 304.4532 -9170.3814 -7421.9696 301.2065 -200.7010 -118.6766 30355.4134 -116.3256 -44.0260
ENERGY: 1200000 3.7513 6.0170 10.3493 0.0000 -10719.1397 1467.1680 0.0000 0.0000 1678.8245 -7553.0295 285.7994 -9231.8540 -7426.4529 300.1238 89.3599 203.0912 30316.3651 -130.1216 -53.9475
ENERGY: 1500000 3.3636 3.7286 7.7968 0.0000 -10742.5292 1457.8851 0.0000 0.0000 1795.2366 -7474.5185 305.6171 -9269.7551 -7434.7730 300.0546 -57.3882 -14.6703 30066.8489 -167.5817 -100.0972
TCL: Running FEP window   8: Lambda1 0.35   Lambda2 0.39999999999999997 [dLambda 0.04999999999999999]
TCL: Setting parameter firsttimestep to 0
TCL: Setting parameter alchLambda to 0.35
Info: NONBONDED TABLE R-SQUARED SPACING: 0.0625
Info: NONBONDED TABLE SIZE: 705 POINTS
TCL: Setting parameter alchLambda2 to 0.39999999999999997
Info: NONBONDED TABLE R-SQUARED SPACING: 0.0625
Info: NONBONDED TABLE SIZE: 705 POINTS
TCL: Running for 1500000 steps
ETITLE: TS BOND ANGLE DIHED IMPRP ELECT VDW BOUNDARY MISC KINETIC TOTAL TEMP POTENTIAL TOTALAVG TEMPAVG PRESSURE GPRESSURE VOLUME PRESSAVG GPRESSAVG
ENERGY: 0 3.3636 3.7286 7.7968 0.0000 -10742.5295 1457.8849 0.0000 0.0000 1794.3745 -7475.3812 305.4703 -9269.7556 -7475.3812 305.4703 -88.9804 -7.9066 30066.8489 -88.9804 -7.9066
ENERGY: 300000 3.6389 6.7361 6.2942 0.0000 -10565.1077 1418.8565 0.0000 0.0000 1803.9392 -7325.6429 307.0986 -9129.5821 -7419.4511 303.5963 -206.7280 -96.4221 30697.3460 -99.5770 -45.3612
ENERGY: 600000 2.5984 5.3595 6.1428 0.0000 -10584.1727 1445.9811 0.0000 0.0000 1762.5444 -7361.5465 300.0517 -9124.0910 -7414.7139 303.1182 413.2683 522.4574 30079.2249 -57.2175 2.8742
ENERGY: 900000 8.1165 7.1191 3.7364 0.0000 -10448.4167 1327.7217 0.0000 0.0000 1703.3092 -7398.4138 289.9676 -9101.7230 -7428.1454 300.6271 -837.6700 -770.4370 30523.8702 -114.4464 -39.6594
ENERGY: 1200000 3.3624 6.8354 7.3678 0.0000 -10575.5757 1400.4565 0.0000 0.0000 1798.9096 -7358.6439 306.2424 -9157.5535 -7423.8620 300.9465 -126.5755 -115.9920 30293.2777 -90.9613 -22.0718
ENERGY: 1500000 3.1000 5.0275 6.2553 0.0000 -10593.9351 1437.3074 0.0000 0.0000 1754.2318 -7388.0131 298.6365 -9142.2449 -7435.3424 299.9448 230.5694 283.6848 30272.3470 -22.8747 42.0843
TCL: Running FEP window   9: Lambda1 0.39999999999999997 Lambda2 0.44999999999999996 [dLambda 0.04999999999999999]
TCL: Setting parameter firsttimestep to 0
TCL: Setting parameter alchLambda to 0.39999999999999997
Info: NONBONDED TABLE R-SQUARED SPACING: 0.0625
Info: NONBONDED TABLE SIZE: 705 POINTS
TCL: Setting parameter alchLambda2 to 0.44999999999999996
Info: NONBONDED TABLE R-SQUARED SPACING: 0.0625
Info: NONBONDED TABLE SIZE: 705 POINTS
TCL: Running for 1500000 steps
ETITLE: TS BOND ANGLE DIHED IMPRP ELECT VDW BOUNDARY MISC KINETIC TOTAL TEMP POTENTIAL TOTALAVG TEMPAVG PRESSURE GPRESSURE VOLUME PRESSAVG GPRESSAVG
ENERGY: 0 3.1000 5.0275 6.2553 0.0000 -10593.9357 1437.4241 0.0000 0.0000 1753.3557 -7388.7731 298.4874 -9142.1288 -7388.7731 298.4874 213.7668 291.0518 30272.3470 213.7668 291.0518
ENERGY: 300000 3.7644 4.2502 6.9598 0.0000 -10493.9783 1391.9609 0.0000 0.0000 1838.1131 -7248.9299 312.9163 -9087.0429 -7395.9802 300.2034 -12.6464 -25.1985 30610.7217 -80.9992 -30.8984
ENERGY: 600000 6.8298 1.9702 17.3470 0.0000 -10732.4690 1501.5697 0.0000 0.0000 1729.1355 -7475.6168 294.3642 -9204.7523 -7439.4933 297.8737 466.8874 538.8947 29885.3707 225.5832 279.5934
ENERGY: 900000 3.2132 2.9827 4.7764 0.0000 -10845.6329 1618.1599 0.0000 0.0000 1744.2353 -7472.2654 296.9347 -9216.5007 -7427.9684 299.1434 1188.4778 1228.1495 30358.1991 299.1658 353.4773
ENERGY: 1200000 5.9117 4.0596 7.5475 0.0000 -10560.7403 1392.8939 0.0000 0.0000 1753.7910 -7396.5366 298.5615 -9150.3276 -7429.6129 298.6663 -339.3070 -323.9784 30118.4858 213.6982 269.1497
ENERGY: 1500000 3.4835 10.4343 11.8716 0.0000 -10594.7234 1359.9660 0.0000 0.0000 1742.8789 -7466.0891 296.7038 -9208.9680 -7437.4744 298.9333 -604.4979 -493.9329 30117.5390 154.4766 212.4338
TCL: Running FEP window  10: Lambda1 0.44999999999999996 Lambda2 0.49999999999999994 [dLambda 0.04999999999999999]
TCL: Setting parameter firsttimestep to 0
TCL: Setting parameter alchLambda to 0.44999999999999996
Info: NONBONDED TABLE R-SQUARED SPACING: 0.0625
Info: NONBONDED TABLE SIZE: 705 POINTS
TCL: Setting parameter alchLambda2 to 0.49999999999999994
Info: NONBONDED TABLE R-SQUARED SPACING: 0.0625
Info: NONBONDED TABLE SIZE: 705 POINTS
TCL: Running for 1500000 steps
ETITLE: TS BOND ANGLE DIHED IMPRP ELECT VDW BOUNDARY MISC KINETIC TOTAL TEMP POTENTIAL TOTALAVG TEMPAVG PRESSURE GPRESSURE VOLUME PRESSAVG GPRESSAVG
ENERGY: 0 3.4835 10.4343 11.8716 0.0000 -10594.7231 1361.0119 0.0000 0.0000 1742.0287 -7465.8930 296.5591 -9207.9218 -7465.8930 296.5591 -559.7310 -477.1326 30117.5390 -559.7310 -477.1326
ENERGY: 300000 7.3031 7.6180 9.5384 0.0000 -10736.9679 1516.7302 0.0000 0.0000 1799.2238 -7396.5544 306.2959 -9195.7782 -7424.4695 301.4669 376.4319 436.0710 30255.0783 156.7715 210.6181
ENERGY: 600000 4.6082 2.3727 9.9942 0.0000 -10631.4773 1404.9093 0.0000 0.0000 1712.4422 -7497.1508 291.5224 -9209.5930 -7441.1143 300.9595 -412.5201 -332.7857 30797.0743 -60.3301 -6.4073
ENERGY: 900000 6.4760 4.4443 4.4820 0.0000 -10766.5453 1491.9856 0.0000 0.0000 1754.0256 -7505.1318 298.6014 -9259.1574 -7443.9949 300.3377 568.9249 602.2519 30068.9010 -22.1280 22.8915
ENERGY: 1200000 6.5803 5.2983 8.9012 0.0000 -10542.0647 1387.6680 0.0000 0.0000 1740.2543 -7393.3625 296.2570 -9133.6168 -7428.9846 299.9021 -589.1156 -468.9516 30512.4949 -146.5304 -86.9298
ENERGY: 1500000 4.6479 6.6634 8.3487 0.0000 -10819.5810 1529.3402 0.0000 0.0000 1826.0873 -7444.4934 310.8691 -9270.5807 -7420.5334 300.9449 530.1697 575.5479 30069.7322 -124.4081 -61.1529
TCL: Running FEP window  11: Lambda1 0.49999999999999994 Lambda2 0.5499999999999999 [dLambda 0.04999999999999999]
TCL: Setting parameter firsttimestep to 0
TCL: Setting parameter alchLambda to 0.49999999999999994
Info: NONBONDED TABLE R-SQUARED SPACING: 0.0625
Info: NONBONDED TABLE SIZE: 705 POINTS
TCL: Setting parameter alchLambda2 to 0.5499999999999999
Info: NONBONDED TABLE R-SQUARED SPACING: 0.0625
Info: NONBONDED TABLE SIZE: 705 POINTS
TCL: Running for 1500000 steps
ETITLE: TS BOND ANGLE DIHED IMPRP ELECT VDW BOUNDARY MISC KINETIC TOTAL TEMP POTENTIAL TOTALAVG TEMPAVG PRESSURE GPRESSURE VOLUME PRESSAVG GPRESSAVG
ENERGY: 0 4.6479 6.6634 8.3487 0.0000 -10819.5815 1529.7813 0.0000 0.0000 1825.2125 -7444.9277 310.7201 -9270.1402 -7444.9277 310.7201 510.7024 586.7703 30069.7322 510.7024 586.7703
ENERGY: 300000 4.2715 4.7769 10.5772 0.0000 -10577.6540 1383.1010 0.0000 0.0000 1853.0340 -7321.8933 315.4564 -9174.9273 -7423.9177 306.4967 -456.4608 -301.5860 30604.3404 -104.3532 -12.9924
ENERGY: 600000 3.5207 5.9906 4.9194 0.0000 -10737.8277 1505.8469 0.0000 0.0000 1816.9387 -7400.6114 309.3116 -9217.5501 -7402.8726 306.7008 691.0023 719.6012 29849.2458 90.0814 166.4102
ENERGY: 900000 3.9937 5.9723 8.1446 0.0000 -10800.8940 1544.6286 0.0000 0.0000 1795.7407 -7442.4141 305.7029 -9238.1548 -7409.1846 306.5278 890.6795 979.2542 30106.0005 117.7674 194.2811
ENERGY: 1200000 1.0940 5.8281 7.0728 0.0000 -10858.7019 1595.8559 0.0000 0.0000 1771.2913 -7477.5598 301.5407 -9248.8511 -7414.8550 305.7362 1264.1401 1367.9330 30207.1990 293.1626 375.2837
ENERGY: 1500000 2.4898 3.7789 10.0362 0.0000 -10713.6169 1464.5655 0.0000 0.0000 1685.3895 -7547.3570 286.9170 -9232.7465 -7425.5680 303.6125 453.7337 499.5002 29808.7529 252.9875 331.0248
TCL: Running FEP window  12: Lambda1 0.5499999999999999 Lambda2 0.6    [dLambda 0.050000000000000044]
TCL: Setting parameter firsttimestep to 0
TCL: Setting parameter alchLambda to 0.5499999999999999
Info: NONBONDED TABLE R-SQUARED SPACING: 0.0625
Info: NONBONDED TABLE SIZE: 705 POINTS
TCL: Setting parameter alchLambda2 to 0.6
Info: NONBONDED TABLE R-SQUARED SPACING: 0.0625
Info: NONBONDED TABLE SIZE: 705 POINTS
TCL: Running for 1500000 steps
ETITLE: TS BOND ANGLE DIHED IMPRP ELECT VDW BOUNDARY MISC KINETIC TOTAL TEMP POTENTIAL TOTALAVG TEMPAVG PRESSURE GPRESSURE VOLUME PRESSAVG GPRESSAVG
ENERGY: 0 2.4898 3.7789 10.0362 0.0000 -10713.7268 1464.9440 0.0000 0.0000 1684.5519 -7547.9260 286.7744 -9232.4779 -7547.9260 286.7744 418.8611 514.0983 29808.7529 418.8611 514.0983
ENERGY: 300000 4.8603 6.5003 4.3455 0.0000 -10624.6155 1452.0243 0.0000 0.0000 1818.0481 -7338.8370 309.5005 -9156.8851 -7448.3155 298.3426 96.7711 146.5239 30739.4963 203.4356 267.0852
ENERGY: 600000 4.8699 7.0741 9.9289 0.0000 -10587.5435 1467.6328 0.0000 0.0000 1764.8128 -7333.2250 300.4378 -9098.0378 -7414.1486 299.1054 545.7055 541.2612 30571.2000 13.3156 69.1980
ENERGY: 900000 6.4724 4.6798 4.9310 0.0000 -10450.7369 1313.1555 0.0000 0.0000 1794.8979 -7326.6003 305.5594 -9121.4982 -7424.8779 299.2831 -1006.6771 -953.2279 30634.4413 -87.8224 -34.0358
ENERGY: 1200000 2.6923 10.2142 6.3894 0.0000 -10609.5609 1377.4055 0.0000 0.0000 1758.5538 -7454.3057 299.3723 -9212.8595 -7431.9905 299.4810 -470.7374 -424.5818 30381.8423 -97.2572 -41.5029
ENERGY: 1500000 1.8292 3.6792 6.2100 0.0000 -10540.9058 1385.2201 0.0000 0.0000 1706.6781 -7437.2892 290.5411 -9143.9673 -7435.8031 298.7067 -241.4077 -250.5998 30493.6687 -112.3876 -56.4586
TCL: Running FEP window  13: Lambda1 0.6    Lambda2 0.65   [dLambda 0.050000000000000044]
TCL: Setting parameter firsttimestep to 0
TCL: Setting parameter alchLambda to 0.6
Info: NONBONDED TABLE R-SQUARED SPACING: 0.0625
Info: NONBONDED TABLE SIZE: 705 POINTS
TCL: Setting parameter alchLambda2 to 0.65
Info: NONBONDED TABLE R-SQUARED SPACING: 0.0625
Info: NONBONDED TABLE SIZE: 705 POINTS
TCL: Running for 1500000 steps
ETITLE: TS BOND ANGLE DIHED IMPRP ELECT VDW BOUNDARY MISC KINETIC TOTAL TEMP POTENTIAL TOTALAVG TEMPAVG PRESSURE GPRESSURE VOLUME PRESSAVG GPRESSAVG
ENERGY: 0 1.8292 3.6792 6.2100 0.0000 -10541.3210 1384.8383 0.0000 0.0000 1705.7909 -7438.9734 290.3901 -9144.7643 -7438.9734 290.3901 -315.4471 -243.2165 30493.6687 -315.4471 -243.2165
ENERGY: 300000 4.4987 7.8768 7.6245 0.0000 -10667.3615 1466.2216 0.0000 0.0000 1794.9805 -7386.1593 305.5735 -9181.1398 -7386.0568 300.8464 653.5725 778.2783 29807.7963 -118.2657 -39.6730
ENERGY: 600000 4.5057 2.7909 10.6831 0.0000 -10599.0697 1419.2919 0.0000 0.0000 1787.7578 -7374.0403 304.3439 -9161.7981 -7410.3489 301.5109 -10.9661 50.3102 30623.7066 -21.3619 54.1714
ENERGY: 900000 3.7910 6.9694 4.6049 0.0000 -10596.2478 1368.5369 0.0000 0.0000 1787.4359 -7424.9096 304.2891 -9212.3455 -7425.5134 301.5460 -628.4954 -568.5763 30535.0023 -98.6557 -18.8168
ENERGY: 1200000 3.9399 7.0924 6.3242 0.0000 -10591.4311 1394.5553 0.0000 0.0000 1733.1021 -7446.4172 295.0395 -9179.5193 -7416.9469 301.3551 -401.7365 -330.5760 30426.9728 -127.6950 -53.9855
ENERGY: 1500000 3.7392 5.7715 4.9366 0.0000 -10665.3579 1389.1426 0.0000 0.0000 1741.6012 -7520.1667 296.4863 -9261.7679 -7425.3479 299.9222 -542.1438 -510.6398 30234.1021 -121.3556 -59.5187
TCL: Running FEP window  14: Lambda1 0.65   Lambda2 0.7000000000000001 [dLambda 0.050000000000000044]
TCL: Setting parameter firsttimestep to 0
TCL: Setting parameter alchLambda to 0.65
Info: NONBONDED TABLE R-SQUARED SPACING: 0.0625
Info: NONBONDED TABLE SIZE: 705 POINTS
TCL: Setting parameter alchLambda2 to 0.7000000000000001
Info: NONBONDED TABLE R-SQUARED SPACING: 0.0625
Info: NONBONDED TABLE SIZE: 705 POINTS
TCL: Running for 1500000 steps
ETITLE: TS BOND ANGLE DIHED IMPRP ELECT VDW BOUNDARY MISC KINETIC TOTAL TEMP POTENTIAL TOTALAVG TEMPAVG PRESSURE GPRESSURE VOLUME PRESSAVG GPRESSAVG
ENERGY: 0 3.7391 5.7715 4.9366 0.0000 -10665.6612 1389.0101 0.0000 0.0000 1740.7109 -7521.4929 296.3348 -9262.2038 -7521.4929 296.3348 -566.4554 -501.6081 30234.1021 -566.4554 -501.6081
ENERGY: 300000 3.8398 4.3686 9.1915 0.0000 -10545.9995 1335.4140 0.0000 0.0000 1799.9616 -7393.2241 306.4215 -9193.1857 -7446.4078 302.5936 -658.9810 -615.5888 30502.8569 -112.8442 -49.6992
ENERGY: 600000 4.3366 6.4390 5.7642 0.0000 -10806.4333 1478.5168 0.0000 0.0000 1738.3073 -7573.0693 295.9256 -9311.3766 -7453.5455 301.1351 146.4752 214.5418 30189.0702 -119.9384 -61.3304
ENERGY: 900000 7.0572 8.2300 8.0836 0.0000 -10592.7059 1373.7040 0.0000 0.0000 1753.4190 -7442.2121 298.4982 -9195.6311 -7436.5922 301.2274 -1026.2615 -941.8775 31131.2380 -154.4459 -90.6572
ENERGY: 1200000 8.5873 6.6762 4.4883 0.0000 -10671.8861 1465.5922 0.0000 0.0000 1762.9074 -7423.6349 300.1134 -9186.5422 -7445.8220 300.7940 207.3503 268.5272 30142.0205 -55.0773 4.9820
ENERGY: 1500000 6.5086 6.0215 10.5321 0.0000 -10681.8346 1476.3703 0.0000 0.0000 1790.0925 -7392.3096 304.7414 -9182.4021 -7446.5478 300.6166 336.9624 406.3172 30230.6642 -3.3450 60.0891
TCL: Running FEP window  15: Lambda1 0.7000000000000001 Lambda2 0.7500000000000001 [dLambda 0.050000000000000044]
TCL: Setting parameter firsttimestep to 0
TCL: Setting parameter alchLambda to 0.7000000000000001
Info: NONBONDED TABLE R-SQUARED SPACING: 0.0625
Info: NONBONDED TABLE SIZE: 705 POINTS
TCL: Setting parameter alchLambda2 to 0.7500000000000001
Info: NONBONDED TABLE R-SQUARED SPACING: 0.0625
Info: NONBONDED TABLE SIZE: 705 POINTS
TCL: Running for 1500000 steps
ETITLE: TS BOND ANGLE DIHED IMPRP ELECT VDW BOUNDARY MISC KINETIC TOTAL TEMP POTENTIAL TOTALAVG TEMPAVG PRESSURE GPRESSURE VOLUME PRESSAVG GPRESSAVG
ENERGY: 0 6.5086 6.0215 10.5321 0.0000 -10682.0437 1477.0129 0.0000 0.0000 1789.2089 -7392.7597 304.5910 -9181.9687 -7392.7597 304.5910 352.1267 424.2679 30230.6642 352.1267 424.2679
ENERGY: 300000 1.9503 6.2845 9.3053 0.0000 -10668.3536 1457.6526 0.0000 0.0000 1731.8193 -7461.3415 294.8211 -9193.1608 -7427.3742 301.7416 441.1998 495.0860 29776.8843 180.5276 224.1364
ENERGY: 600000 8.5457 6.3753 10.6750 0.0000 -10605.3593 1461.9036 0.0000 0.0000 1724.7637 -7393.0960 293.6200 -9117.8597 -7446.4663 299.6119 -37.8789 23.2057 30590.4137 50.4235 105.5881
ENERGY: 900000 5.6991 2.5591 8.6339 0.0000 -10597.8067 1367.2252 0.0000 0.0000 1863.6030 -7350.0863 317.2557 -9213.6894 -7435.9543 302.4265 -934.2700 -844.9645 30945.2743 -70.4173 -7.0568
ENERGY: 1200000 5.1742 5.7304 11.2405 0.0000 -10643.0550 1403.3070 0.0000 0.0000 1731.8757 -7485.7271 294.8307 -9217.6028 -7441.3194 301.5070 -501.3436 -463.7652 30533.9826 -117.0929 -50.2703
ENERGY: 1500000 5.6380 5.1175 4.7586 0.0000 -10549.9339 1386.5699 0.0000 0.0000 1790.4883 -7357.3615 304.8088 -9147.8498 -7435.9239 302.0190 -437.2311 -323.9701 30596.6145 -138.4122 -72.9826
TCL: Running FEP window  16: Lambda1 0.7500000000000001 Lambda2 0.8000000000000002 [dLambda 0.050000000000000044]
TCL: Setting parameter firsttimestep to 0
TCL: Setting parameter alchLambda to 0.7500000000000001
Info: NONBONDED TABLE R-SQUARED SPACING: 0.0625
Info: NONBONDED TABLE SIZE: 705 POINTS
TCL: Setting parameter alchLambda2 to 0.8000000000000002
Info: NONBONDED TABLE R-SQUARED SPACING: 0.0625
Info: NONBONDED TABLE SIZE: 705 POINTS
TCL: Running for 1500000 steps
ETITLE: TS BOND ANGLE DIHED IMPRP ELECT VDW BOUNDARY MISC KINETIC TOTAL TEMP POTENTIAL TOTALAVG TEMPAVG PRESSURE GPRESSURE VOLUME PRESSAVG GPRESSAVG
ENERGY: 0 5.6380 5.1175 4.7586 0.0000 -10550.1696 1387.1520 0.0000 0.0000 1789.6073 -7357.8962 304.6588 -9147.5035 -7357.8962 304.6588 -392.1623 -308.3714 30596.6145 -392.1623 -308.3714
ENERGY: 300000 2.8845 5.2850 6.8093 0.0000 -10598.1714 1419.9617 0.0000 0.0000 1712.6670 -7450.5639 291.5606 -9163.2309 -7423.2510 298.1351 -75.3304 -29.4010 30507.8564 -283.7040 -216.6380
ENERGY: 600000 5.0528 5.3151 12.3875 0.0000 -10607.5048 1387.4278 0.0000 0.0000 1763.2567 -7434.0649 300.1729 -9197.3216 -7437.0628 300.5465 -410.2197 -404.3728 30363.2100 -234.1802 -174.9063
ENERGY: 900000 3.3925 4.9402 9.2666 0.0000 -10716.6594 1464.9843 0.0000 0.0000 1732.8198 -7501.2560 294.9914 -9234.0758 -7441.3521 299.5041 192.8465 244.7377 30151.2432 -179.4042 -124.8062
ENERGY: 1200000 1.0787 7.4287 8.8354 0.0000 -10653.8541 1481.7584 0.0000 0.0000 1832.9645 -7321.7885 312.0398 -9154.7529 -7431.2490 301.0492 818.2968 859.0035 30092.4742 -184.6909 -130.9586
ENERGY: 1500000 2.7861 5.6665 4.2936 0.0000 -10734.5498 1449.8514 0.0000 0.0000 1771.1547 -7500.7975 301.5175 -9271.9523 -7435.5348 300.8262 250.1312 306.2921 30116.5661 -99.8056 -46.7141
TCL: Running FEP window  17: Lambda1 0.8000000000000002 Lambda2 0.8500000000000002 [dLambda 0.050000000000000044]
TCL: Setting parameter firsttimestep to 0
TCL: Setting parameter alchLambda to 0.8000000000000002
Info: NONBONDED TABLE R-SQUARED SPACING: 0.0625
Info: NONBONDED TABLE SIZE: 705 POINTS
TCL: Setting parameter alchLambda2 to 0.8500000000000002
Info: NONBONDED TABLE R-SQUARED SPACING: 0.0625
Info: NONBONDED TABLE SIZE: 705 POINTS
TCL: Running for 1500000 steps
ETITLE: TS BOND ANGLE DIHED IMPRP ELECT VDW BOUNDARY MISC KINETIC TOTAL TEMP POTENTIAL TOTALAVG TEMPAVG PRESSURE GPRESSURE VOLUME PRESSAVG GPRESSAVG
ENERGY: 0 2.7861 5.6665 4.2936 0.0000 -10735.0357 1450.3236 0.0000 0.0000 1770.2873 -7501.6785 301.3698 -9271.9658 -7501.6785 301.3698 235.8107 326.7867 30116.5661 235.8107 326.7867
ENERGY: 300000 4.8841 8.8250 13.5516 0.0000 -10646.4378 1379.9486 0.0000 0.0000 1778.6629 -7460.5657 302.7956 -9239.2286 -7464.8505 303.6702 -335.5265 -245.1737 29849.6802 -41.9895 34.7698
ENERGY: 600000 7.7871 6.6285 11.5448 0.0000 -10718.3279 1476.4162 0.0000 0.0000 1750.6539 -7465.2974 298.0274 -9215.9513 -7453.5692 301.9236 232.1623 355.6045 29868.4398 -96.7166 -19.5935
ENERGY: 900000 6.2848 3.5653 6.3058 0.0000 -10806.9529 1552.1710 0.0000 0.0000 1729.3948 -7509.2312 294.4083 -9238.6260 -7458.5704 302.0484 1101.8531 1181.7683 29624.1154 56.0803 138.4305
ENERGY: 1200000 2.7959 3.1571 12.0061 0.0000 -10702.1544 1461.6865 0.0000 0.0000 1741.2487 -7481.2602 296.4263 -9222.5089 -7458.1061 301.5268 -65.6129 -0.2334 30924.0445 1.8963 73.1543
ENERGY: 1500000 6.1466 7.9562 7.0705 0.0000 -10697.7087 1460.7183 0.0000 0.0000 1784.5915 -7431.2257 303.8049 -9215.8172 -7456.6606 300.8225 160.9968 261.1154 30254.3034 8.9425 83.5647
TCL: Running FEP window  18: Lambda1 0.8500000000000002 Lambda2 0.9000000000000002 [dLambda 0.050000000000000044]
TCL: Setting parameter firsttimestep to 0
TCL: Setting parameter alchLambda to 0.8500000000000002
Info: NONBONDED TABLE R-SQUARED SPACING: 0.0625
Info: NONBONDED TABLE SIZE: 705 POINTS
TCL: Setting parameter alchLambda2 to 0.9000000000000002
Info: NONBONDED TABLE R-SQUARED SPACING: 0.0625
Info: NONBONDED TABLE SIZE: 705 POINTS
TCL: Running for 1500000 steps
ETITLE: TS BOND ANGLE DIHED IMPRP ELECT VDW BOUNDARY MISC KINETIC TOTAL TEMP POTENTIAL TOTALAVG TEMPAVG PRESSURE GPRESSURE VOLUME PRESSAVG GPRESSAVG
ENERGY: 0 6.1465 7.9562 7.0705 0.0000 -10699.2908 1461.5992 0.0000 0.0000 1783.7379 -7432.7804 303.6596 -9216.5183 -7432.7804 303.6596 187.1114 280.2259 30254.3034 187.1114 280.2259
ENERGY: 300000 5.1429 3.8627 6.4830 0.0000 -10618.7081 1433.3449 0.0000 0.0000 1777.8678 -7392.0067 302.6603 -9169.8745 -7449.2648 302.9584 28.3858 84.0915 30356.6064 188.0593 249.0475
ENERGY: 600000 4.1726 4.5623 6.3014 0.0000 -10720.1328 1483.7337 0.0000 0.0000 1708.4662 -7512.8965 290.8455 -9221.3627 -7458.3258 300.1503 203.8773 230.7584 30447.7690 318.2767 376.2260
ENERGY: 900000 2.7731 4.1775 6.2821 0.0000 -10681.7672 1425.7025 0.0000 0.0000 1818.3624 -7424.4695 309.5540 -9242.8320 -7451.2466 300.5451 64.9762 129.7392 30064.4244 172.1686 232.3285
ENERGY: 1200000 5.1931 6.4398 9.9289 0.0000 -10661.5855 1437.4700 0.0000 0.0000 1724.2907 -7478.2631 293.5394 -9202.5538 -7445.8831 300.8205 -124.9681 -72.8284 30527.7821 45.3506 111.1901
ENERGY: 1500000 6.4953 6.0831 7.1925 0.0000 -10554.1932 1339.6286 0.0000 0.0000 1788.0756 -7406.7180 304.3980 -9194.7936 -7443.6805 300.5652 -1039.0502 -928.8161 30644.5034 -162.4362 -90.0465
TCL: Running FEP window  19: Lambda1 0.9000000000000002 Lambda2 0.9500000000000003 [dLambda 0.050000000000000044]
TCL: Setting parameter firsttimestep to 0
TCL: Setting parameter alchLambda to 0.9000000000000002
Info: NONBONDED TABLE R-SQUARED SPACING: 0.0625
Info: NONBONDED TABLE SIZE: 705 POINTS
TCL: Setting parameter alchLambda2 to 0.9500000000000003
Info: NONBONDED TABLE R-SQUARED SPACING: 0.0625
Info: NONBONDED TABLE SIZE: 705 POINTS
TCL: Running for 1500000 steps
ETITLE: TS BOND ANGLE DIHED IMPRP ELECT VDW BOUNDARY MISC KINETIC TOTAL TEMP POTENTIAL TOTALAVG TEMPAVG PRESSURE GPRESSURE VOLUME PRESSAVG GPRESSAVG
ENERGY: 0 6.4954 6.0831 7.1925 0.0000 -10554.6373 1340.4085 0.0000 0.0000 1787.2156 -7407.2422 304.2516 -9194.4578 -7407.2422 304.2516 -981.0311 -901.2509 30644.5034 -981.0311 -901.2509
ENERGY: 300000 6.6025 5.9673 7.9943 0.0000 -10683.5752 1471.7223 0.0000 0.0000 1713.8001 -7477.4887 291.7535 -9191.2889 -7456.0830 299.8736 62.9358 137.6785 30580.8708 -64.4146 -8.1180
ENERGY: 600000 3.7523 6.4428 10.0006 0.0000 -10560.0206 1393.4161 0.0000 0.0000 1750.7400 -7395.6687 298.0421 -9146.4087 -7442.4441 299.0558 -355.5124 -288.6094 30789.1710 -26.0895 35.9882
ENERGY: 900000 2.6951 8.0409 9.6280 0.0000 -10722.6517 1460.0316 0.0000 0.0000 1746.8201 -7495.4360 297.3748 -9242.2560 -7442.2238 301.3118 417.6308 479.2135 29952.8082 -12.8440 48.9676
ENERGY: 1200000 2.9643 4.3566 10.0775 0.0000 -10506.7893 1314.5812 0.0000 0.0000 1755.8144 -7418.9955 298.9059 -9174.8098 -7431.2489 301.9259 -1051.3413 -991.8950 31073.4771 -140.4389 -74.9137
ENERGY: 1500000 2.4497 7.4637 9.8891 0.0000 -10580.6971 1412.1493 0.0000 0.0000 1735.8710 -7412.8742 295.5108 -9148.7453 -7429.0599 301.8368 353.0667 391.3260 29765.3850 -87.3769 -27.5946
TCL: Running FEP window  20: Lambda1 0.9500000000000003 Lambda2 1.0    [dLambda 0.04999999999999971]
TCL: Setting parameter firsttimestep to 0
TCL: Setting parameter alchLambda to 0.9500000000000003
Info: NONBONDED TABLE R-SQUARED SPACING: 0.0625
Info: NONBONDED TABLE SIZE: 705 POINTS
TCL: Setting parameter alchLambda2 to 1.0
Info: NONBONDED TABLE R-SQUARED SPACING: 0.0625
Info: NONBONDED TABLE SIZE: 705 POINTS
TCL: Running for 1500000 steps
ETITLE: TS BOND ANGLE DIHED IMPRP ELECT VDW BOUNDARY MISC KINETIC TOTAL TEMP POTENTIAL TOTALAVG TEMPAVG PRESSURE GPRESSURE VOLUME PRESSAVG GPRESSAVG
ENERGY: 0 2.4497 7.4638 9.8891 0.0000 -10581.9532 1412.4471 0.0000 0.0000 1734.9756 -7414.7281 295.3584 -9149.7037 -7414.7281 295.3584 321.5405 408.3808 29765.3850 321.5405 408.3808
ENERGY: 300000 3.4596 6.7807 9.3632 0.0000 -10780.1417 1516.9463 0.0000 0.0000 1750.0495 -7493.5424 297.9245 -9243.5919 -7469.4617 295.4062 838.4989 883.8741 30138.9272 528.3797 594.1427
ENERGY: 600000 4.7082 6.5352 6.8153 0.0000 -10565.1644 1449.5780 0.0000 0.0000 1731.4591 -7366.0685 294.7598 -9097.5276 -7443.2507 298.2473 363.3758 401.1727 30351.3341 271.3146 329.3607
ENERGY: 900000 9.5562 5.7119 7.0386 0.0000 -10671.8920 1474.8147 0.0000 0.0000 1722.5495 -7452.2211 293.2430 -9174.7706 -7442.9693 298.6011 380.7097 455.9245 30247.9281 324.9230 386.7604
ENERGY: 1200000 2.4929 6.7402 10.1771 0.0000 -10606.2815 1377.1319 0.0000 0.0000 1794.1112 -7415.6283 305.4255 -9209.7395 -7457.2411 298.5878 -563.6876 -551.3140 30883.5333 281.1676 346.3800
ENERGY: 1500000 4.5949 3.5584 10.4164 0.0000 -10431.5300 1270.4946 0.0000 0.0000 1746.2356 -7396.2302 297.2753 -9142.4658 -7450.7749 298.7282 -1168.7614 -1168.4633 30706.5811 126.2093 185.7368
TCL: Exiting due to exit command.
