Info: SIMULATION PARAMETERS:
Info: TIMESTEP               2
Info: NUMBER OF STEPS        0
Info: STEPS PER CYCLE        10
Info: PERIODIC CELL BASIS 1  30.2805 0 0
Info: PERIODIC CELL BASIS 2  0 29.5696 0
Info: PERIODIC CELL BASIS 3  0 0 33.4371
Info: PERIODIC CELL CENTER   0 0 0
Info: WRAPPING WATERS AROUND PERIODIC BOUNDARIES ON OUTPUT.
Info: WRAPPING ALL CLUSTERS AROUND PERIODIC BOUNDARIES ON OUTPUT.
Info: FIRST LDB TIMESTEP     50
Info: LAST LDB TIMESTEP     -1
Info: HOM BACKGROUND SCALING 1
Info: PME BACKGROUND SCALING 1
Info: MIN ATOMS PER PATCH    40
Info: EMPTY PATCH LOAD       40 ATOMS
Info: VELOCITY FILE          mobley_8809190_equil.vel
Info: CENTER OF MASS MOVING INITIALLY? NO
Info: DIELECTRIC             1
Info: EXCLUDE                SCALED ONE-FOUR
Info: 1-4 ELECTROSTATICS SCALED BY 0.833333
Info: MODIFIED 1-4 VDW PARAMETERS WILL BE USED
Info: DCD FILENAME           mobley_8809190_prod.dcd
Info: DCD FREQUENCY          100000
Info: DCD FIRST STEP         100000
Info: DCD FILE WILL CONTAIN UNIT CELL DATA
Info: XST FILENAME           mobley_8809190_prod.xst
Info: XST FREQUENCY          100000
Info: NO VELOCITY DCD OUTPUT
Info: NO FORCE DCD OUTPUT
Info: OUTPUT FILENAME        mobley_8809190_prod
Info: BINARY OUTPUT FILES WILL BE USED
Info: RESTART FILENAME       mobley_8809190_prod.restart
Info: RESTART FREQUENCY      100000
Info: BINARY RESTART FILES WILL BE USED
Info: CUTOFF                 9
Info: PAIRLIST DISTANCE      11
Info: PAIRLIST SHRINK RATE   0.01
Info: PAIRLIST GROW RATE     0.01
Info: PAIRLIST TRIGGER       0.3
Info: PAIRLISTS PER CYCLE    2
Info: PAIRLISTS ENABLED
Info: MARGIN                 2
Info: HYDROGEN GROUP CUTOFF  2.5
Info: PATCH DIMENSION        15.5
Info: ENERGY OUTPUT STEPS    100000
Info: ENERGY EVALUATION STEPS    100000
Info: OUTPUT ENERGY PRECISION 4
Info: CROSSTERM ENERGY INCLUDED IN DIHEDRAL
Info: TIMING OUTPUT STEPS    1000000
Info: PRESSURE OUTPUT STEPS  100000
Info: ALCHEMICAL FEP ON
Info: FEP CURRENT LAMBDA VALUE     1
Info: FEP COMPARISON LAMBDA VALUE  0.95
Info: FEP INTRA-ALCHEMICAL NON-BONDED INTERACTIONS WILL BE RETAINED
Info: FEP INTRA-ALCHEMICAL BONDED INTERACTIONS WILL BE RETAINED
Info: FEP VDW SHIFTING COEFFICIENT 5
Info: FEP ELEC. ACTIVE FOR ANNIHILATED PARTICLES BETWEEN LAMBDA = 0 AND LAMBDA = 0.5
Info: FEP ELEC. ACTIVE FOR EXNIHILATED PARTICLES BETWEEN LAMBDA = 0.5 AND LAMBDA = 1
Info: FEP VDW ACTIVE FOR ANNIHILATED PARTICLES BETWEEN LAMBDA = 0 AND LAMBDA = 1
Info: FEP VDW ACTIVE FOR EXNIHILATED PARTICLES BETWEEN LAMBDA = 0 AND LAMBDA = 1
Info: FEP BOND ACTIVE FOR ANNIHILATED PARTICLES BETWEEN LAMBDA = 1 AND LAMBDA = 1
Info: FEP BOND ACTIVE FOR EXNIHILATED PARTICLES BETWEEN LAMBDA = 0 AND LAMBDA = 0
Info: LANGEVIN DYNAMICS ACTIVE
Info: LANGEVIN TEMPERATURE   300
Info: LANGEVIN USING BBK INTEGRATOR
Info: LANGEVIN DAMPING COEFFICIENT IS 1 INVERSE PS
Info: LANGEVIN DYNAMICS APPLIED TO HYDROGENS
Info: LANGEVIN PISTON PRESSURE CONTROL ACTIVE
Info:        TARGET PRESSURE IS 1.01325 BAR
Info:     OSCILLATION PERIOD IS 50 FS
Info:             DECAY TIME IS 25 FS
Info:     PISTON TEMPERATURE IS 300 K
Info:       PRESSURE CONTROL IS GROUP-BASED
Info:    INITIAL STRAIN RATE IS 0.000479198 0.000479198 0.000479198
Info:       CELL FLUCTUATION IS ISOTROPIC
Info: PARTICLE MESH EWALD (PME) ACTIVE
Info: PME TOLERANCE               1e-06
Info: PME EWALD COEFFICIENT       0.348832
Info: PME INTERPOLATION ORDER     4
Info: PME GRID DIMENSIONS         32 32 36
Info: PME MAXIMUM GRID SPACING    1
Info: PME CALCULATION WILL BE PERFORMED ON GPU
Info: FULL ELECTROSTATIC EVALUATION FREQUENCY      2
Info: USING VERLET I (r-RESPA) MTS SCHEME.
Info: C1 SPLITTING OF LONG RANGE ELECTROSTATICS
Info: PLACING ATOMS IN PATCHES BY HYDROGEN GROUPS
Info: RIGID BONDS TO HYDROGEN : ALL
Info:         ERROR TOLERANCE : 1e-08
Info:          MAX ITERATIONS : 100
Info: RIGID WATER USING SETTLE ALGORITHM
Info: RANDOM NUMBER SEED     1743943473
Info: USE HYDROGEN BONDS?    NO
Info: Using AMBER format force field!
Info: AMBER PARM FILE        mobley_8809190.prmtop
Info: COORDINATE PDB         mobley_8809190.pdb
Info: Exclusions will be read from PARM file!
Info: SCNB (VDW SCALING)     2
Info: USING ARITHMETIC MEAN TO COMBINE L-J SIGMA PARAMETERS
Info: BINARY COORDINATES     mobley_8809190_equil.coor
Info: SUMMARY OF PARAMETERS:
Info: 7 BONDS
Info: 8 ANGLES
Info:   8 HARMONIC
Info:   0 COSINE-BASED
Info: 9 DIHEDRAL
Info: 0 IMPROPER
Info: 0 CROSSTERM
Info: 0 VDW
Info: 21 VDW_PAIRS
Info: 0 NBTHOLE_PAIRS
Info: To read alchdata from file: mobley_8809190.pdb
Info: To read alchflag data from column: 5
Info: STRUCTURE SUMMARY:
Info: 2937 ATOMS
Info: 2937 BONDS
Info: 42 ANGLES
Info: 65 DIHEDRALS
Info: 0 IMPROPERS
Info: 0 CROSSTERMS
Info: 3033 EXCLUSIONS
Info: 2927 RIGID BONDS
Info: ALCH: 0 ATOMS TO DISAPPEAR IN FINAL STATE
Info: ALCH: 24 ATOMS TO APPEAR IN FINAL STATE
Info: 5884 DEGREES OF FREEDOM
Info: 981 HYDROGEN GROUPS
Info: 4 ATOMS IN LARGEST HYDROGEN GROUP
Info: 981 MIGRATION GROUPS
Info: 4 ATOMS IN LARGEST MIGRATION GROUP
Info: TOTAL MASS = 17627.7 amu
Info: TOTAL CHARGE = -9.99793e-05 e
Info: MASS DENSITY = 0.977728 g/cm^3
Info: ATOM DENSITY = 0.0980993 atoms/A^3
Info: ADDED 0 IMPLICIT EXCLUSIONS
Info: NONBONDED TABLE R-SQUARED SPACING: 0.0625
Info: NONBONDED TABLE SIZE: 705 POINTS
Info: REMOVING COM VELOCITY 0.126776 0.0379393 -0.243169
Info: Use 3D box decompostion in PME FFT.
Info: Updated CUDA force table with 4096 elements.
Info: Updated CUDA LJ table with 6 x 6 elements.
Info: Found 23 unique exclusion lists needing 80 bytes
TCL: Running for 1500000 steps
ETITLE: TS BOND ANGLE DIHED IMPRP ELECT VDW BOUNDARY MISC KINETIC TOTAL TEMP POTENTIAL TOTALAVG TEMPAVG PRESSURE GPRESSURE VOLUME PRESSAVG GPRESSAVG
ENERGY: 0 2.5338 7.6159 2.8521 0.0000 -10731.7268 1464.6183 0.0000 0.0000 1759.3569 -7494.7499 300.9343 -9254.1068 -7494.7499 300.9343 357.4438 435.1526 29939.0471 357.4438 435.1526
ENERGY: 300000 7.5175 10.3184 2.5894 0.0000 -10487.8462 1403.1671 0.0000 0.0000 1724.0261 -7340.2277 294.8910 -9064.2538 -7423.3077 302.7411 -35.6337 42.4998 30470.8100 43.1182 104.3710
ENERGY: 600000 3.5096 7.3153 4.0593 0.0000 -10583.3896 1404.8195 0.0000 0.0000 1749.9373 -7413.7487 299.3231 -9163.6860 -7430.8985 299.1190 155.3794 179.3344 30027.0474 -21.0512 33.5921
ENERGY: 900000 3.6493 12.6956 2.1726 0.0000 -10588.5200 1379.7346 0.0000 0.0000 1729.1239 -7461.1440 295.7630 -9190.2679 -7428.8247 298.1610 -437.2600 -423.6415 30390.2573 -56.5997 2.8537
ENERGY: 1200000 4.1310 10.4980 4.5974 0.0000 -10769.2129 1547.1599 0.0000 0.0000 1700.2022 -7502.6243 290.8160 -9202.8265 -7426.9845 297.2922 717.7134 771.3915 30146.3292 -13.2751 53.9040
ENERGY: 1500000 5.2181 7.4312 4.1872 0.0000 -10524.8658 1394.2535 0.0000 0.0000 1772.9673 -7340.8086 303.2623 -9113.7759 -7417.3333 298.8420 -324.2709 -305.2456 30537.5106 11.1704 74.4055
TCL: Running FEP window   2: Lambda1 0.95   Lambda2 0.8999999999999999 [dLambda -0.050000000000000044]
TCL: Setting parameter firsttimestep to 0
TCL: Setting parameter alchLambda to 0.95
Info: NONBONDED TABLE R-SQUARED SPACING: 0.0625
Info: NONBONDED TABLE SIZE: 705 POINTS
TCL: Setting parameter alchLambda2 to 0.8999999999999999
Info: NONBONDED TABLE R-SQUARED SPACING: 0.0625
Info: NONBONDED TABLE SIZE: 705 POINTS
TCL: Running for 1500000 steps
ETITLE: TS BOND ANGLE DIHED IMPRP ELECT VDW BOUNDARY MISC KINETIC TOTAL TEMP POTENTIAL TOTALAVG TEMPAVG PRESSURE GPRESSURE VOLUME PRESSAVG GPRESSAVG
ENERGY: 0 5.2180 7.4312 4.1872 0.0000 -10524.2139 1394.6766 0.0000 0.0000 1772.0823 -7340.6186 303.1109 -9112.7008 -7340.6186 303.1109 -398.1707 -311.3610 30537.5106 -398.1707 -311.3610
ENERGY: 300000 5.2340 12.5620 5.3516 0.0000 -10559.8770 1369.0624 0.0000 0.0000 1774.4909 -7393.1762 303.5229 -9167.6671 -7413.1326 300.0527 -499.5737 -389.9445 30177.5492 -132.6425 -47.2881
ENERGY: 600000 2.8191 13.1473 6.3357 0.0000 -10570.5857 1372.0584 0.0000 0.0000 1773.4551 -7402.7700 303.3458 -9176.2251 -7412.4427 301.3562 -296.2522 -172.3478 30340.3666 -15.9092 70.6967
ENERGY: 900000 3.9149 6.9374 5.6566 0.0000 -10488.4827 1277.3025 0.0000 0.0000 1731.4657 -7463.2057 296.1635 -9194.6714 -7419.6291 300.6121 -1363.8436 -1286.6606 30685.9924 -259.6066 -176.8012
ENERGY: 1200000 2.4373 6.6396 4.3743 0.0000 -10667.5010 1460.1891 0.0000 0.0000 1774.3986 -7419.4621 303.5071 -9193.8607 -7410.1197 301.2607 319.8354 350.0077 30176.8444 -48.8614 32.2985
ENERGY: 1500000 4.9061 6.6521 4.2722 0.0000 -10675.2582 1432.8749 0.0000 0.0000 1824.5761 -7401.9768 312.0899 -9226.5529 -7411.0555 301.6905 88.1011 173.2602 29843.2998 -52.7199 28.0132
TCL: Running FEP window   3: Lambda1 0.8999999999999999 Lambda2 0.8499999999999999 [dLambda -0.050000000000000044]
TCL: Setting parameter firsttimestep to 0
TCL: Setting parameter alchLambda to 0.8999999999999999
Info: NONBONDED TABLE R-SQUARED SPACING: 0.0625
Info: NONBONDED TABLE SIZE: 705 POINTS
TCL: Setting parameter alchLambda2 to 0.8499999999999999
Info: NONBONDED TABLE R-SQUARED SPACING: 0.0625
Info: NONBONDED TABLE SIZE: 705 POINTS
TCL: Running for 1500000 steps
ETITLE: TS BOND ANGLE DIHED IMPRP ELECT VDW BOUNDARY MISC KINETIC TOTAL TEMP POTENTIAL TOTALAVG TEMPAVG PRESSURE GPRESSURE VOLUME PRESSAVG GPRESSAVG
ENERGY: 0 4.9061 6.6521 4.2722 0.0000 -10674.6863 1432.7292 0.0000 0.0000 1823.7150 -7402.4117 311.9426 -9226.1267 -7402.4117 311.9426 61.5276 153.3947 29843.2998 61.5276 153.3947
ENERGY: 300000 3.8057 9.1995 1.6021 0.0000 -10712.4918 1457.4124 0.0000 0.0000 1805.0084 -7435.4638 308.7429 -9240.4722 -7371.7909 307.3633 228.4558 296.9983 29826.9652 0.2614 65.7449
ENERGY: 600000 4.3850 7.6251 3.0151 0.0000 -10538.3108 1367.0594 0.0000 0.0000 1745.6758 -7410.5504 298.5942 -9156.2262 -7401.8549 303.1815 -493.1001 -504.6282 30440.4476 -73.0306 -11.4039
ENERGY: 900000 2.1979 11.1725 5.7647 0.0000 -10487.8440 1349.9722 0.0000 0.0000 1716.9450 -7401.7917 293.6798 -9118.7367 -7397.4402 301.5482 -529.8771 -457.5057 30091.9771 49.9335 115.8712
ENERGY: 1200000 5.4010 10.3631 4.9587 0.0000 -10570.7471 1390.7794 0.0000 0.0000 1694.6579 -7464.5869 289.8677 -9159.2449 -7406.8427 300.1632 -261.6374 -168.2106 30150.9491 64.3789 127.6067
ENERGY: 1500000 2.7827 7.3950 2.1967 0.0000 -10560.3566 1400.5475 0.0000 0.0000 1744.7151 -7402.7196 298.4298 -9147.4347 -7412.1258 299.8765 -338.1279 -207.1311 30299.6855 18.4568 81.4095
TCL: Running FEP window   4: Lambda1 0.8499999999999999 Lambda2 0.7999999999999998 [dLambda -0.050000000000000044]
TCL: Setting parameter firsttimestep to 0
TCL: Setting parameter alchLambda to 0.8499999999999999
Info: NONBONDED TABLE R-SQUARED SPACING: 0.0625
Info: NONBONDED TABLE SIZE: 705 POINTS
TCL: Setting parameter alchLambda2 to 0.7999999999999998
Info: NONBONDED TABLE R-SQUARED SPACING: 0.0625
Info: NONBONDED TABLE SIZE: 705 POINTS
TCL: Running for 1500000 steps
ETITLE: TS BOND ANGLE DIHED IMPRP ELECT VDW BOUNDARY MISC KINETIC TOTAL TEMP POTENTIAL TOTALAVG TEMPAVG PRESSURE GPRESSURE VOLUME PRESSAVG GPRESSAVG
ENERGY: 0 2.7827 7.3950 2.1967 0.0000 -10559.4903 1400.2711 0.0000 0.0000 1743.8526 -7402.9922 298.2823 -9146.8448 -7402.9922 298.2823 -297.6102 -223.8587 30299.6855 -297.6102 -223.8587
ENERGY: 300000 2.3589 10.6559 3.9134 0.0000 -10674.9236 1483.5866 0.0000 0.0000 1765.4678 -7408.9411 301.9795 -9174.4089 -7417.6385 300.2936 382.4322 392.5892 30425.0136 -119.5535 -83.7425
ENERGY: 600000 2.6555 12.4295 4.4088 0.0000 -10629.9275 1423.3151 0.0000 0.0000 1746.3665 -7440.7522 298.7123 -9187.1187 -7422.2955 300.7015 123.7268 133.4741 30261.3971 202.7189 245.2645
ENERGY: 900000 4.7017 8.5978 5.9138 0.0000 -10384.0762 1306.6875 0.0000 0.0000 1777.6115 -7280.5639 304.0567 -9058.1754 -7387.5443 302.0859 -806.3878 -734.7289 30606.0798 111.6825 161.9787
ENERGY: 1200000 4.4729 5.3706 2.7100 0.0000 -10430.3051 1341.1658 0.0000 0.0000 1739.1438 -7337.4419 297.4769 -9076.5857 -7387.8110 301.4131 -497.2447 -383.0134 30425.2059 16.7975 74.0742
ENERGY: 1500000 2.3928 8.6058 4.5448 0.0000 -10533.1077 1442.5015 0.0000 0.0000 1721.1656 -7353.8971 294.4018 -9075.0628 -7395.8170 299.9796 423.7956 416.8211 30462.5299 2.6704 57.8406
TCL: Running FEP window   5: Lambda1 0.7999999999999998 Lambda2 0.7499999999999998 [dLambda -0.050000000000000044]
TCL: Setting parameter firsttimestep to 0
TCL: Setting parameter alchLambda to 0.7999999999999998
Info: NONBONDED TABLE R-SQUARED SPACING: 0.0625
Info: NONBONDED TABLE SIZE: 705 POINTS
TCL: Setting parameter alchLambda2 to 0.7499999999999998
Info: NONBONDED TABLE R-SQUARED SPACING: 0.0625
Info: NONBONDED TABLE SIZE: 705 POINTS
TCL: Running for 1500000 steps
ETITLE: TS BOND ANGLE DIHED IMPRP ELECT VDW BOUNDARY MISC KINETIC TOTAL TEMP POTENTIAL TOTALAVG TEMPAVG PRESSURE GPRESSURE VOLUME PRESSAVG GPRESSAVG
ENERGY: 0 2.3928 8.6058 4.5448 0.0000 -10532.5216 1442.9218 0.0000 0.0000 1720.2737 -7353.7827 294.2492 -9074.0564 -7353.7827 294.2492 335.0239 410.4932 30462.5299 335.0239 410.4932
ENERGY: 300000 5.0354 9.3632 5.8672 0.0000 -10582.2180 1415.3481 0.0000 0.0000 1745.9581 -7400.6461 298.6424 -9146.6041 -7366.2554 298.7107 -90.9810 -16.3514 30088.8912 404.8613 477.6760
ENERGY: 600000 3.6938 10.5257 3.3671 0.0000 -10620.2716 1464.7667 0.0000 0.0000 1738.1448 -7399.7735 297.3060 -9137.9183 -7381.9054 298.3558 411.9748 477.5233 30134.1800 203.0796 284.3349
ENERGY: 900000 3.9123 7.8707 1.8149 0.0000 -10504.1637 1378.8430 0.0000 0.0000 1803.2998 -7308.4230 308.4506 -9111.7227 -7381.7726 299.9958 -188.9253 -143.3239 30380.5708 0.6225 72.8591
ENERGY: 1200000 3.1768 8.8938 3.0698 0.0000 -10622.3555 1451.5627 0.0000 0.0000 1733.9469 -7421.7055 296.5880 -9155.6524 -7372.5157 300.5542 395.7026 430.3049 30069.5864 35.4410 102.5000
ENERGY: 1500000 6.1196 10.6383 4.1187 0.0000 -10552.1668 1425.8769 0.0000 0.0000 1693.4787 -7411.9347 289.6660 -9105.4134 -7377.0211 300.4985 -190.0368 -85.1730 30531.1542 8.7397 81.0528
TCL: Running FEP window   6: Lambda1 0.7499999999999998 Lambda2 0.6999999999999997 [dLambda -0.050000000000000044]
TCL: Setting parameter firsttimestep to 0
TCL: Setting parameter alchLambda to 0.7499999999999998
Info: NONBONDED TABLE R-SQUARED SPACING: 0.0625
Info: NONBONDED TABLE SIZE: 705 POINTS
TCL: Setting parameter alchLambda2 to 0.6999999999999997
Info: NONBONDED TABLE R-SQUARED SPACING: 0.0625
Info: NONBONDED TABLE SIZE: 705 POINTS
TCL: Running for 1500000 steps
ETITLE: TS BOND ANGLE DIHED IMPRP ELECT VDW BOUNDARY MISC KINETIC TOTAL TEMP POTENTIAL TOTALAVG TEMPAVG PRESSURE GPRESSURE VOLUME PRESSAVG GPRESSAVG
ENERGY: 0 6.1196 10.6382 4.1187 0.0000 -10551.7000 1425.7791 0.0000 0.0000 1692.6251 -7412.4192 289.5200 -9105.0443 -7412.4192 289.5200 -184.3624 -99.1589 30531.1542 -184.3624 -99.1589
ENERGY: 300000 2.1906 7.9380 5.0326 0.0000 -10472.4367 1395.1925 0.0000 0.0000 1753.3220 -7308.7612 299.9020 -9062.0831 -7390.2407 296.0367 44.5299 119.6410 30180.9328 -164.1244 -83.5317
ENERGY: 600000 1.6569 8.9746 1.9979 0.0000 -10687.1403 1472.9091 0.0000 0.0000 1733.8358 -7467.7660 296.5690 -9201.6017 -7402.3497 298.0328 361.3223 501.4897 30090.8488 -129.8535 -53.5383
ENERGY: 900000 0.5544 10.5859 3.6505 0.0000 -10525.0218 1418.2054 0.0000 0.0000 1711.8756 -7380.1499 292.8127 -9092.0255 -7399.4210 297.8372 146.1780 196.6704 30473.6914 -106.7319 -28.8078
ENERGY: 1200000 1.2912 7.4650 3.2338 0.0000 -10564.0223 1411.9452 0.0000 0.0000 1729.9814 -7410.1056 295.9097 -9140.0871 -7395.4459 298.7775 -169.4486 -110.0664 30285.5253 -133.0466 -62.8919
ENERGY: 1500000 2.2776 10.8661 5.5191 0.0000 -10658.2378 1455.9347 0.0000 0.0000 1765.6582 -7417.9821 302.0121 -9183.6403 -7395.6099 298.0470 131.8603 197.3794 30197.0462 -56.3012 7.4191
TCL: Running FEP window   7: Lambda1 0.6999999999999997 Lambda2 0.6499999999999997 [dLambda -0.050000000000000044]
TCL: Setting parameter firsttimestep to 0
TCL: Setting parameter alchLambda to 0.6999999999999997
Info: NONBONDED TABLE R-SQUARED SPACING: 0.0625
Info: NONBONDED TABLE SIZE: 705 POINTS
TCL: Setting parameter alchLambda2 to 0.6499999999999997
Info: NONBONDED TABLE R-SQUARED SPACING: 0.0625
Info: NONBONDED TABLE SIZE: 705 POINTS
TCL: Running for 1500000 steps
ETITLE: TS BOND ANGLE DIHED IMPRP ELECT VDW BOUNDARY MISC KINETIC TOTAL TEMP POTENTIAL TOTALAVG TEMPAVG PRESSURE GPRESSURE VOLUME PRESSAVG GPRESSAVG
ENERGY: 0 2.2776 10.8662 5.5191 0.0000 -10657.9111 1456.6750 0.0000 0.0000 1764.7835 -7417.7898 301.8625 -9182.5732 -7417.7898 301.8625 113.6199 197.3612 30197.0462 113.6199 197.3612
ENERGY: 300000 1.4496 9.9149 7.0295 0.0000 -10726.7762 1428.7778 0.0000 0.0000 1727.6495 -7551.9548 295.5108 -9279.6043 -7434.0836 301.4299 -404.0017 -353.3733 30261.4980 -212.4226 -149.6872
ENERGY: 600000 2.0197 7.6388 4.3819 0.0000 -10561.9291 1373.5403 0.0000 0.0000 1737.4068 -7436.9416 297.1798 -9174.3484 -7436.1825 300.5315 -715.2603 -608.6000 30653.7398 -217.4946 -148.4138
ENERGY: 900000 3.7805 8.4037 3.7811 0.0000 -10505.1078 1331.7940 0.0000 0.0000 1725.3444 -7432.0041 295.1165 -9157.3484 -7423.2025 300.6691 -744.8095 -695.3499 30086.7112 -337.8408 -270.6892
ENERGY: 1200000 3.6374 10.7903 4.5510 0.0000 -10600.8165 1401.2293 0.0000 0.0000 1792.2159 -7388.3926 306.5548 -9180.6085 -7419.6944 301.3465 -216.2546 -127.7296 30329.0955 -411.3418 -337.4165
ENERGY: 1500000 2.8303 11.1560 6.7783 0.0000 -10648.2059 1461.1814 0.0000 0.0000 1772.0223 -7394.2375 303.1007 -9166.2598 -7415.4184 301.1019 172.0752 189.6552 30131.1478 -331.2045 -259.4740
TCL: Running FEP window   8: Lambda1 0.6499999999999997 Lambda2 0.5999999999999996 [dLambda -0.050000000000000044]
TCL: Setting parameter firsttimestep to 0
TCL: Setting parameter alchLambda to 0.6499999999999997
Info: NONBONDED TABLE R-SQUARED SPACING: 0.0625
Info: NONBONDED TABLE SIZE: 705 POINTS
TCL: Setting parameter alchLambda2 to 0.5999999999999996
Info: NONBONDED TABLE R-SQUARED SPACING: 0.0625
Info: NONBONDED TABLE SIZE: 705 POINTS
TCL: Running for 1500000 steps
ETITLE: TS BOND ANGLE DIHED IMPRP ELECT VDW BOUNDARY MISC KINETIC TOTAL TEMP POTENTIAL TOTALAVG TEMPAVG PRESSURE GPRESSURE VOLUME PRESSAVG GPRESSAVG
ENERGY: 0 2.8303 11.1560 6.7783 0.0000 -10647.4438 1461.7901 0.0000 0.0000 1771.1067 -7393.7823 302.9441 -9164.8890 -7393.7823 302.9441 103.2402 185.7932 30131.1478 103.2402 185.7932
ENERGY: 300000 4.2430 7.4843 5.0765 0.0000 -10483.3584 1361.5636 0.0000 0.0000 1781.4003 -7323.5908 304.7048 -9104.9910 -7394.3990 301.7381 -430.5973 -406.4025 29938.2726 51.0966 96.3188
ENERGY: 600000 3.8441 7.8023 2.0655 0.0000 -10476.4525 1353.2433 0.0000 0.0000 1783.7364 -7325.7609 305.1043 -9109.4973 -7381.6444 302.6125 -464.4051 -451.9562 30340.9269 -44.0086 12.2524
ENERGY: 900000 2.5611 11.2365 5.2296 0.0000 -10306.5542 1255.3523 0.0000 0.0000 1741.6005 -7290.5741 297.8971 -9032.1747 -7359.5741 301.3874 -1291.9330 -1197.8561 30869.2811 -344.8700 -289.0957
ENERGY: 1200000 4.8048 10.0805 4.3196 0.0000 -10638.8743 1454.0233 0.0000 0.0000 1711.5112 -7454.1350 292.7504 -9165.6461 -7374.1390 300.6992 21.3253 87.2439 30447.0182 -320.4322 -263.9651
ENERGY: 1500000 2.2169 8.4798 6.1810 0.0000 -10644.7346 1490.5935 0.0000 0.0000 1806.9335 -7330.3299 309.0722 -9137.2634 -7381.5258 300.6654 444.9604 572.3817 30437.9565 -210.8032 -147.5912
TCL: Running FEP window   9: Lambda1 0.5999999999999996 Lambda2 0.5499999999999996 [dLambda -0.050000000000000044]
TCL: Setting parameter firsttimestep to 0
TCL: Setting parameter alchLambda to 0.5999999999999996
Info: NONBONDED TABLE R-SQUARED SPACING: 0.0625
Info: NONBONDED TABLE SIZE: 705 POINTS
TCL: Setting parameter alchLambda2 to 0.5499999999999996
Info: NONBONDED TABLE R-SQUARED SPACING: 0.0625
Info: NONBONDED TABLE SIZE: 705 POINTS
TCL: Running for 1500000 steps
ETITLE: TS BOND ANGLE DIHED IMPRP ELECT VDW BOUNDARY MISC KINETIC TOTAL TEMP POTENTIAL TOTALAVG TEMPAVG PRESSURE GPRESSURE VOLUME PRESSAVG GPRESSAVG
ENERGY: 0 2.2169 8.4798 6.1810 0.0000 -10644.5615 1491.0198 0.0000 0.0000 1806.0297 -7330.6344 308.9176 -9136.6641 -7330.6344 308.9176 476.7118 568.9452 30437.9565 476.7118 568.9452
ENERGY: 300000 2.7482 7.1626 6.9919 0.0000 -10335.6694 1274.7781 0.0000 0.0000 1829.1145 -7214.8742 312.8662 -9043.9887 -7362.6776 301.7936 -1004.6282 -950.4786 30987.5885 -599.3799 -561.9234
ENERGY: 600000 3.4556 10.1375 3.5399 0.0000 -10502.3768 1396.7015 0.0000 0.0000 1680.2302 -7408.3120 287.3998 -9088.5422 -7374.0305 299.1006 -163.0029 -134.0010 30399.5836 -462.8932 -418.6614
ENERGY: 900000 3.2569 8.1135 3.6546 0.0000 -10690.4418 1522.9978 0.0000 0.0000 1746.3207 -7406.0983 298.7045 -9152.4189 -7387.1494 298.2876 501.8909 523.0749 30549.8109 -304.8747 -262.0328
ENERGY: 1200000 5.4604 5.5918 3.5299 0.0000 -10534.2580 1422.1356 0.0000 0.0000 1823.7522 -7273.7882 311.9490 -9097.5404 -7375.1370 299.3936 253.0352 304.6787 30433.8702 -274.7996 -230.5980
ENERGY: 1500000 6.5070 9.0625 3.9387 0.0000 -10592.3280 1395.8359 0.0000 0.0000 1812.2640 -7364.7199 309.9839 -9176.9839 -7373.1446 300.9036 -347.7081 -275.9795 30175.9610 -240.5450 -184.6999
TCL: Running FEP window  10: Lambda1 0.5499999999999996 Lambda2 0.4999999999999996 [dLambda -0.04999999999999999]
TCL: Setting parameter firsttimestep to 0
TCL: Setting parameter alchLambda to 0.5499999999999996
Info: NONBONDED TABLE R-SQUARED SPACING: 0.0625
Info: NONBONDED TABLE SIZE: 705 POINTS
TCL: Setting parameter alchLambda2 to 0.4999999999999996
Info: NONBONDED TABLE R-SQUARED SPACING: 0.0625
Info: NONBONDED TABLE SIZE: 705 POINTS
TCL: Running for 1500000 steps
ETITLE: TS BOND ANGLE DIHED IMPRP ELECT VDW BOUNDARY MISC KINETIC TOTAL TEMP POTENTIAL TOTALAVG TEMPAVG PRESSURE GPRESSURE VOLUME PRESSAVG GPRESSAVG
ENERGY: 0 6.5070 9.0625 3.9387 0.0000 -10592.0554 1396.4364 0.0000 0.0000 1811.3667 -7364.7440 309.8305 -9176.1107 -7364.7440 309.8305 -366.1493 -282.7853 30175.9610 -366.1493 -282.7853
ENERGY: 300000 2.0665 8.8091 4.5365 0.0000 -10655.0641 1506.5343 0.0000 0.0000 1740.1739 -7392.9437 297.6531 -9133.1176 -7397.9524 299.7242 655.7829 693.6182 30128.5951 243.4132 300.6760
ENERGY: 600000 3.1334 9.9004 6.8034 0.0000 -10711.2433 1502.4004 0.0000 0.0000 1728.3141 -7460.6916 295.6245 -9189.0057 -7411.2951 298.8223 526.4129 606.3912 29896.2044 174.4943 232.4995
ENERGY: 900000 3.1235 10.8008 3.9920 0.0000 -10760.5033 1491.0517 0.0000 0.0000 1773.3551 -7478.1802 303.3287 -9251.5353 -7413.5424 300.4096 556.9149 660.2668 29324.1814 364.8353 423.3082
ENERGY: 1200000 2.9801 12.6491 3.9348 0.0000 -10697.3740 1486.3739 0.0000 0.0000 1790.9552 -7400.4808 306.3391 -9191.4360 -7410.8583 301.0433 171.1185 194.3744 30359.2669 274.6500 329.1680
ENERGY: 1500000 2.5237 8.9257 2.0960 0.0000 -10813.5791 1645.7666 0.0000 0.0000 1783.2220 -7371.0452 305.0164 -9154.2672 -7413.4284 300.9520 1782.2987 1743.8307 30315.1682 364.0354 414.4786
TCL: Running FEP window  11: Lambda1 0.4999999999999996 Lambda2 0.4499999999999996 [dLambda -0.04999999999999999]
TCL: Setting parameter firsttimestep to 0
TCL: Setting parameter alchLambda to 0.4999999999999996
Info: NONBONDED TABLE R-SQUARED SPACING: 0.0625
Info: NONBONDED TABLE SIZE: 705 POINTS
TCL: Setting parameter alchLambda2 to 0.4499999999999996
Info: NONBONDED TABLE R-SQUARED SPACING: 0.0625
Info: NONBONDED TABLE SIZE: 705 POINTS
TCL: Running for 1500000 steps
ETITLE: TS BOND ANGLE DIHED IMPRP ELECT VDW BOUNDARY MISC KINETIC TOTAL TEMP POTENTIAL TOTALAVG TEMPAVG PRESSURE GPRESSURE VOLUME PRESSAVG GPRESSAVG
ENERGY: 0 2.5237 8.9257 2.0960 0.0000 -10813.0697 1645.5981 0.0000 0.0000 1782.3177 -7371.6085 304.8617 -9153.9262 -7371.6085 304.8617 1670.1529 1734.6218 30315.1682 1670.1529 1734.6218
ENERGY: 300000 3.8957 7.1920 1.1766 0.0000 -10548.4372 1382.3582 0.0000 0.0000 1758.6069 -7395.2078 300.8060 -9153.8147 -7361.6669 302.1034 -183.5330 -128.7074 29789.9643 665.1359 727.0453
ENERGY: 600000 2.4406 11.1106 4.1842 0.0000 -10662.0008 1433.9512 0.0000 0.0000 1759.7437 -7450.5705 301.0004 -9210.3142 -7375.8741 301.3103 246.9795 258.8221 29811.4574 363.5362 425.8540
ENERGY: 900000 2.8814 8.8774 3.3409 0.0000 -10656.5938 1496.8595 0.0000 0.0000 1809.5160 -7335.1186 309.5139 -9144.6346 -7378.5534 302.1005 806.4084 784.5372 29813.1001 312.3482 360.9334
ENERGY: 1200000 2.1390 8.1182 3.2055 0.0000 -10585.5640 1421.6667 0.0000 0.0000 1742.3672 -7408.0674 298.0282 -9150.4346 -7373.4409 301.7292 203.5743 194.9099 29981.2687 297.6088 336.9369
ENERGY: 1500000 1.7041 7.7799 4.0407 0.0000 -10526.1191 1433.1970 0.0000 0.0000 1789.9177 -7289.4796 306.1616 -9079.3973 -7373.3556 301.8052 422.5594 448.8636 30036.6988 242.4731 281.1130
TCL: Running FEP window  12: Lambda1 0.4499999999999996 Lambda2 0.39999999999999963 [dLambda -0.04999999999999999]
TCL: Setting parameter firsttimestep to 0
TCL: Setting parameter alchLambda to 0.4499999999999996
Info: NONBONDED TABLE R-SQUARED SPACING: 0.0625
Info: NONBONDED TABLE SIZE: 705 POINTS
TCL: Setting parameter alchLambda2 to 0.39999999999999963
Info: NONBONDED TABLE R-SQUARED SPACING: 0.0625
Info: NONBONDED TABLE SIZE: 705 POINTS
TCL: Running for 1500000 steps
ETITLE: TS BOND ANGLE DIHED IMPRP ELECT VDW BOUNDARY MISC KINETIC TOTAL TEMP POTENTIAL TOTALAVG TEMPAVG PRESSURE GPRESSURE VOLUME PRESSAVG GPRESSAVG
ENERGY: 0 1.7041 7.7799 4.0408 0.0000 -10526.1194 1433.8004 0.0000 0.0000 1789.0425 -7289.7517 306.0119 -9078.7942 -7289.7517 306.0119 355.1716 444.4056 30036.6988 355.1716 444.4056
ENERGY: 300000 4.8681 10.3228 3.9788 0.0000 -10670.2655 1465.8461 0.0000 0.0000 1744.4089 -7440.8409 298.3775 -9185.2498 -7397.9922 303.2292 -3.0515 33.7471 30326.1338 224.2552 281.2442
ENERGY: 600000 5.7505 10.3224 2.2581 0.0000 -10539.6316 1380.8951 0.0000 0.0000 1730.5227 -7409.8827 296.0023 -9140.4054 -7408.3726 303.3076 -606.4983 -453.6757 30624.5965 119.9847 195.6996
ENERGY: 900000 4.4347 12.1521 2.0093 0.0000 -10607.0956 1426.6761 0.0000 0.0000 1733.5535 -7428.2699 296.5207 -9161.8234 -7403.8622 302.0792 137.2917 164.3897 30071.2977 142.2707 207.3859
ENERGY: 1200000 2.0134 6.0471 4.8324 0.0000 -10580.2553 1381.7244 0.0000 0.0000 1843.3309 -7342.3072 315.2979 -9185.6380 -7391.2401 302.8711 -544.5854 -435.3529 30271.2218 51.3803 119.1872
ENERGY: 1500000 7.7318 12.5511 3.1274 0.0000 -10522.6868 1477.4470 0.0000 0.0000 1717.3021 -7304.5274 293.7409 -9021.8295 -7399.2097 301.0448 703.9815 733.8137 29931.2230 69.2381 137.3535
TCL: Running FEP window  13: Lambda1 0.39999999999999963 Lambda2 0.34999999999999964 [dLambda -0.04999999999999999]
TCL: Setting parameter firsttimestep to 0
TCL: Setting parameter alchLambda to 0.39999999999999963
Info: NONBONDED TABLE R-SQUARED SPACING: 0.0625
Info: NONBONDED TABLE SIZE: 705 POINTS
TCL: Setting parameter alchLambda2 to 0.34999999999999964
Info: NONBONDED TABLE R-SQUARED SPACING: 0.0625
Info: NONBONDED TABLE SIZE: 705 POINTS
TCL: Running for 1500000 steps
ETITLE: TS BOND ANGLE DIHED IMPRP ELECT VDW BOUNDARY MISC KINETIC TOTAL TEMP POTENTIAL TOTALAVG TEMPAVG PRESSURE GPRESSURE VOLUME PRESSAVG GPRESSAVG
ENERGY: 0 7.7318 12.5511 3.1274 0.0000 -10522.6878 1477.4066 0.0000 0.0000 1716.4039 -7305.4670 293.5873 -9021.8709 -7305.4670 293.5873 654.1894 727.8548 29931.2230 654.1894 727.8548
ENERGY: 300000 1.6449 7.9447 6.2886 0.0000 -10613.2733 1474.0867 0.0000 0.0000 1735.4576 -7387.8510 296.8464 -9123.3086 -7353.3687 298.2738 477.0651 550.6817 30084.8288 479.8030 572.3491
ENERGY: 600000 2.2525 7.6772 1.7938 0.0000 -10407.8169 1317.1407 0.0000 0.0000 1700.6719 -7378.2808 290.8963 -9078.9526 -7383.9195 296.5151 -903.0990 -863.0978 30417.3619 93.9015 168.0906
ENERGY: 900000 7.2716 14.3602 1.7591 0.0000 -10438.3318 1335.5087 0.0000 0.0000 1709.8016 -7369.6306 292.4580 -9079.4322 -7384.6627 297.5974 -573.3702 -551.3219 30011.4994 78.4714 140.5748
ENERGY: 1200000 4.2282 13.1040 6.8651 0.0000 -10585.4879 1397.8454 0.0000 0.0000 1777.1449 -7386.3002 303.9769 -9163.4451 -7383.3746 298.8095 -193.1363 -122.0927 30033.3216 25.3601 86.5627
ENERGY: 1500000 2.6053 5.4783 1.3050 0.0000 -10485.7570 1361.5673 0.0000 0.0000 1779.4589 -7335.3422 304.3727 -9114.8010 -7389.1455 298.8283 -611.9334 -511.7265 30571.0728 -72.1308 -0.6051
TCL: Running FEP window  14: Lambda1 0.34999999999999964 Lambda2 0.29999999999999966 [dLambda -0.04999999999999999]
TCL: Setting parameter firsttimestep to 0
TCL: Setting parameter alchLambda to 0.34999999999999964
Info: NONBONDED TABLE R-SQUARED SPACING: 0.0625
Info: NONBONDED TABLE SIZE: 705 POINTS
TCL: Setting parameter alchLambda2 to 0.29999999999999966
Info: NONBONDED TABLE R-SQUARED SPACING: 0.0625
Info: NONBONDED TABLE SIZE: 705 POINTS
TCL: Running for 1500000 steps
ETITLE: TS BOND ANGLE DIHED IMPRP ELECT VDW BOUNDARY MISC KINETIC TOTAL TEMP POTENTIAL TOTALAVG TEMPAVG PRESSURE GPRESSURE VOLUME PRESSAVG GPRESSAVG
ENERGY: 0 2.6053 5.4783 1.3050 0.0000 -10485.7579 1362.0823 0.0000 0.0000 1778.6110 -7335.6760 304.2277 -9114.2869 -7335.6760 304.2277 -601.3465 -514.5211 30571.0728 -601.3465 -514.5211
ENERGY: 300000 3.7460 6.7066 3.5234 0.0000 -10533.2099 1397.4807 0.0000 0.0000 1732.6401 -7389.1130 296.3644 -9121.7531 -7383.1054 301.1168 -132.0275 -107.0328 30727.2378 -579.1505 -525.6845
ENERGY: 600000 4.5842 13.9552 4.4253 0.0000 -10615.0149 1490.0017 0.0000 0.0000 1787.6352 -7314.4134 305.7712 -9102.0485 -7400.4632 300.2074 543.9409 646.8877 30182.9409 -193.8047 -129.5555
ENERGY: 900000 2.3181 3.7338 2.3923 0.0000 -10646.4927 1456.0720 0.0000 0.0000 1762.9551 -7419.0213 301.5498 -9181.9765 -7416.9292 300.5455 180.7570 152.1647 30416.3822 -78.1652 -28.4478
ENERGY: 1200000 1.9208 7.1144 3.3387 0.0000 -10668.5968 1487.7193 0.0000 0.0000 1702.2929 -7466.2108 291.1736 -9168.5036 -7414.3926 300.1081 380.1685 463.5160 30125.6751 -4.8914 51.5518
ENERGY: 1500000 5.6499 11.4055 3.4367 0.0000 -10584.0814 1429.9921 0.0000 0.0000 1747.4393 -7386.1579 298.8958 -9133.5972 -7423.1475 299.7377 31.2880 67.8644 30241.3610 51.5039 107.5279
TCL: Running FEP window  15: Lambda1 0.29999999999999966 Lambda2 0.24999999999999967 [dLambda -0.04999999999999999]
TCL: Setting parameter firsttimestep to 0
TCL: Setting parameter alchLambda to 0.29999999999999966
Info: NONBONDED TABLE R-SQUARED SPACING: 0.0625
Info: NONBONDED TABLE SIZE: 705 POINTS
TCL: Setting parameter alchLambda2 to 0.24999999999999967
Info: NONBONDED TABLE R-SQUARED SPACING: 0.0625
Info: NONBONDED TABLE SIZE: 705 POINTS
TCL: Running for 1500000 steps
ETITLE: TS BOND ANGLE DIHED IMPRP ELECT VDW BOUNDARY MISC KINETIC TOTAL TEMP POTENTIAL TOTALAVG TEMPAVG PRESSURE GPRESSURE VOLUME PRESSAVG GPRESSAVG
ENERGY: 0 5.6499 11.4055 3.4367 0.0000 -10584.0809 1429.4475 0.0000 0.0000 1746.5921 -7387.5491 298.7509 -9134.1412 -7387.5491 298.7509 -34.4243 57.6125 30241.3610 -34.4243 57.6125
ENERGY: 300000 3.8235 10.7348 3.5607 0.0000 -10520.3705 1334.8230 0.0000 0.0000 1760.1924 -7407.2361 301.0772 -9167.4285 -7411.0219 300.2767 -1046.9746 -985.8914 30325.2711 -550.3676 -469.6102
ENERGY: 600000 4.2258 9.1943 4.4264 0.0000 -10465.9443 1430.3791 0.0000 0.0000 1721.9201 -7295.7986 294.5308 -9017.7187 -7403.4627 298.0551 -135.6683 -40.6167 30919.9493 -418.3515 -339.8437
ENERGY: 900000 5.0603 5.2257 6.9737 0.0000 -10563.5703 1407.6709 0.0000 0.0000 1716.6321 -7422.0076 293.6263 -9138.6398 -7405.3354 297.7635 -403.1667 -370.3976 30367.1439 -286.6737 -226.6183
ENERGY: 1200000 3.3296 8.2560 4.3171 0.0000 -10553.1073 1417.2540 0.0000 0.0000 1736.2572 -7383.6934 296.9831 -9119.9507 -7402.7455 298.2558 -355.3411 -250.0593 30611.0717 -283.5071 -215.8692
ENERGY: 1500000 2.5650 8.7806 4.6985 0.0000 -10553.2827 1398.7337 0.0000 0.0000 1713.6551 -7424.8498 293.1171 -9138.5049 -7409.2869 297.8953 -388.1177 -358.0298 30324.7381 -260.9398 -197.2371
TCL: Running FEP window  16: Lambda1 0.24999999999999967 Lambda2 0.19999999999999968 [dLambda -0.04999999999999999]
TCL: Setting parameter firsttimestep to 0
TCL: Setting parameter alchLambda to 0.24999999999999967
Info: NONBONDED TABLE R-SQUARED SPACING: 0.0625
Info: NONBONDED TABLE SIZE: 705 POINTS
TCL: Setting parameter alchLambda2 to 0.19999999999999968
Info: NONBONDED TABLE R-SQUARED SPACING: 0.0625
Info: NONBONDED TABLE SIZE: 705 POINTS
TCL: Running for 1500000 steps
ETITLE: TS BOND ANGLE DIHED IMPRP ELECT VDW BOUNDARY MISC KINETIC TOTAL TEMP POTENTIAL TOTALAVG TEMPAVG PRESSURE GPRESSURE VOLUME PRESSAVG GPRESSAVG
ENERGY: 0 2.5651 8.7805 4.6985 0.0000 -10553.2814 1398.6768 0.0000 0.0000 1712.7632 -7425.7973 292.9645 -9138.5605 -7425.7973 292.9645 -447.6285 -361.9589 30324.7381 -447.6285 -361.9589
ENERGY: 300000 2.4644 7.6562 4.9440 0.0000 -10575.9995 1453.0156 0.0000 0.0000 1776.0222 -7331.8971 303.7848 -9107.9193 -7420.0130 297.8299 149.3290 189.2122 30885.3605 -43.8899 25.2394
ENERGY: 600000 4.5120 8.0003 3.8188 0.0000 -10527.8371 1366.1811 0.0000 0.0000 1719.0932 -7426.2316 294.0473 -9145.3249 -7430.3364 299.0401 -601.3510 -534.3903 30158.3068 -95.0293 -33.8750
ENERGY: 900000 3.3716 8.1757 2.4195 0.0000 -10659.8449 1417.8275 0.0000 0.0000 1757.0441 -7471.0065 300.5387 -9228.0505 -7425.0073 299.2988 -325.2692 -242.7510 29959.6784 -146.5707 -80.5745
ENERGY: 1200000 3.7566 10.5563 4.6662 0.0000 -10599.3218 1417.1500 0.0000 0.0000 1687.9326 -7475.2601 288.7173 -9163.1927 -7421.8786 298.9754 -313.0916 -267.1722 30490.7153 -161.1231 -95.2312
ENERGY: 1500000 5.3631 6.7039 6.2134 0.0000 -10726.1037 1560.0220 0.0000 0.0000 1738.3197 -7409.4816 297.3359 -9147.8013 -7418.0188 299.2165 800.2438 870.2694 30300.4886 -75.5387 -7.2495
TCL: Running FEP window  17: Lambda1 0.19999999999999968 Lambda2 0.1499999999999997 [dLambda -0.04999999999999999]
TCL: Setting parameter firsttimestep to 0
TCL: Setting parameter alchLambda to 0.19999999999999968
Info: NONBONDED TABLE R-SQUARED SPACING: 0.0625
Info: NONBONDED TABLE SIZE: 705 POINTS
TCL: Setting parameter alchLambda2 to 0.1499999999999997
Info: NONBONDED TABLE R-SQUARED SPACING: 0.0625
Info: NONBONDED TABLE SIZE: 705 POINTS
TCL: Running for 1500000 steps
ETITLE: TS BOND ANGLE DIHED IMPRP ELECT VDW BOUNDARY MISC KINETIC TOTAL TEMP POTENTIAL TOTALAVG TEMPAVG PRESSURE GPRESSURE VOLUME PRESSAVG GPRESSAVG
ENERGY: 0 5.3631 6.7039 6.2134 0.0000 -10726.1026 1560.1167 0.0000 0.0000 1737.4258 -7410.2798 297.1830 -9147.7056 -7410.2798 297.1830 792.6675 870.0666 30300.4886 792.6675 870.0666
ENERGY: 300000 0.8974 9.4410 4.3137 0.0000 -10733.6509 1460.7761 0.0000 0.0000 1751.1166 -7507.1061 299.5248 -9258.2227 -7456.4224 295.7707 290.5071 280.0777 29724.4932 37.9902 93.3241
ENERGY: 600000 2.0400 6.9664 8.5311 0.0000 -10572.1943 1425.1417 0.0000 0.0000 1729.9671 -7399.5480 295.9072 -9129.5151 -7439.1711 297.4357 88.0411 124.3453 30023.1484 -49.3794 -7.4442
ENERGY: 900000 5.5947 7.6132 3.9424 0.0000 -10505.6351 1465.9430 0.0000 0.0000 1730.7150 -7291.8268 296.0352 -9022.5419 -7418.4877 298.1678 710.2296 763.0451 29958.3130 -58.9664 -4.7683
ENERGY: 1200000 3.5001 6.2170 3.3036 0.0000 -10543.4188 1321.0692 0.0000 0.0000 1753.3673 -7455.9617 299.9098 -9209.3290 -7420.2965 298.6550 -824.1920 -787.6214 29836.0138 -126.1283 -80.9279
ENERGY: 1500000 2.2819 11.0104 5.1763 0.0000 -10593.7923 1412.7972 0.0000 0.0000 1730.7605 -7431.7660 296.0429 -9162.5265 -7415.2463 299.7625 273.0108 315.6189 29557.2431 -88.7428 -37.5000
TCL: Running FEP window  18: Lambda1 0.1499999999999997 Lambda2 0.09999999999999969 [dLambda -0.05 ]
TCL: Setting parameter firsttimestep to 0
TCL: Setting parameter alchLambda to 0.1499999999999997
Info: NONBONDED TABLE R-SQUARED SPACING: 0.0625
Info: NONBONDED TABLE SIZE: 705 POINTS
TCL: Setting parameter alchLambda2 to 0.09999999999999969
Info: NONBONDED TABLE R-SQUARED SPACING: 0.0625
Info: NONBONDED TABLE SIZE: 705 POINTS
TCL: Running for 1500000 steps
ETITLE: TS BOND ANGLE DIHED IMPRP ELECT VDW BOUNDARY MISC KINETIC TOTAL TEMP POTENTIAL TOTALAVG TEMPAVG PRESSURE GPRESSURE VOLUME PRESSAVG GPRESSAVG
ENERGY: 0 2.2819 11.0104 5.1763 0.0000 -10593.7925 1411.9613 0.0000 0.0000 1729.8332 -7433.5294 295.8843 -9163.3626 -7433.5294 295.8843 218.3240 310.9685 29557.2431 218.3240 310.9685
ENERGY: 300000 2.0244 9.3513 2.6859 0.0000 -10566.7741 1391.3334 0.0000 0.0000 1755.9419 -7405.4372 300.3502 -9161.3791 -7400.2433 303.2648 -319.5138 -248.5561 30047.3298 156.7105 216.8680
ENERGY: 600000 3.1787 6.6920 2.6945 0.0000 -10421.6154 1325.2348 0.0000 0.0000 1797.9784 -7285.8369 307.5404 -9083.8153 -7386.3636 302.5704 -598.1147 -525.1650 30180.7818 -94.1401 -27.9409
ENERGY: 900000 4.5635 5.6850 4.6701 0.0000 -10550.0419 1390.9883 0.0000 0.0000 1718.1897 -7425.9454 293.8927 -9144.1351 -7382.3899 300.8635 -221.5980 -131.8675 30071.9271 -194.0448 -122.7165
ENERGY: 1200000 6.7158 6.7141 6.4374 0.0000 -10590.7780 1451.7654 0.0000 0.0000 1719.6873 -7399.4582 294.1489 -9119.1455 -7385.4033 300.2562 216.6167 309.0670 29751.7567 -35.9947 38.9447
ENERGY: 1500000 3.0147 9.2762 2.4151 0.0000 -10665.8387 1464.6331 0.0000 0.0000 1768.4934 -7418.0062 302.4971 -9186.4996 -7389.4737 300.5700 584.9955 579.0423 29683.0779 17.0144 80.8491
TCL: Running FEP window  19: Lambda1 0.09999999999999969 Lambda2 0.049999999999999684 [dLambda -0.05 ]
TCL: Setting parameter firsttimestep to 0
TCL: Setting parameter alchLambda to 0.09999999999999969
Info: NONBONDED TABLE R-SQUARED SPACING: 0.0625
Info: NONBONDED TABLE SIZE: 705 POINTS
TCL: Setting parameter alchLambda2 to 0.049999999999999684
Info: NONBONDED TABLE R-SQUARED SPACING: 0.0625
Info: NONBONDED TABLE SIZE: 705 POINTS
TCL: Running for 1500000 steps
ETITLE: TS BOND ANGLE DIHED IMPRP ELECT VDW BOUNDARY MISC KINETIC TOTAL TEMP POTENTIAL TOTALAVG TEMPAVG PRESSURE GPRESSURE VOLUME PRESSAVG GPRESSAVG
ENERGY: 0 3.0147 9.2762 2.4151 0.0000 -10665.8392 1464.2780 0.0000 0.0000 1767.5895 -7419.2657 302.3425 -9186.8552 -7419.2657 302.3425 487.9028 572.0525 29683.0779 487.9028 572.0525
ENERGY: 300000 2.3254 9.6219 4.7243 0.0000 -10656.0098 1490.2848 0.0000 0.0000 1737.3000 -7411.7534 297.1615 -9149.0534 -7428.7883 297.2976 322.8499 368.5476 30246.9230 156.2706 206.8276
ENERGY: 600000 1.2100 7.8100 2.8679 0.0000 -10491.4017 1432.6366 0.0000 0.0000 1738.8757 -7308.0016 297.4310 -9046.8773 -7413.5111 297.1518 249.4665 325.1564 30198.0602 128.0365 170.9891
ENERGY: 900000 1.9421 14.4301 6.1540 0.0000 -10594.4779 1382.6927 0.0000 0.0000 1735.0854 -7454.1736 296.7827 -9189.2590 -7431.6296 297.2262 -525.8610 -500.2775 30082.5435 160.0700 207.7374
ENERGY: 1200000 3.7415 10.4665 4.9848 0.0000 -10629.2872 1408.7046 0.0000 0.0000 1758.1922 -7443.1976 300.7351 -9201.3898 -7427.5279 298.2899 -84.3053 -37.5606 29835.9881 78.9969 127.5280
ENERGY: 1500000 3.7525 8.0468 3.1999 0.0000 -10722.3367 1482.1867 0.0000 0.0000 1773.3065 -7451.8442 303.3203 -9225.1507 -7417.7868 299.5525 404.2778 478.1209 29557.1899 112.7041 161.3469
TCL: Running FEP window  20: Lambda1 0.049999999999999684 Lambda2 0.0    [dLambda -0.049999999999999684]
TCL: Setting parameter firsttimestep to 0
TCL: Setting parameter alchLambda to 0.049999999999999684
Info: NONBONDED TABLE R-SQUARED SPACING: 0.0625
Info: NONBONDED TABLE SIZE: 705 POINTS
TCL: Setting parameter alchLambda2 to 0.0
Info: NONBONDED TABLE R-SQUARED SPACING: 0.0625
Info: NONBONDED TABLE SIZE: 705 POINTS
TCL: Running for 1500000 steps
ETITLE: TS BOND ANGLE DIHED IMPRP ELECT VDW BOUNDARY MISC KINETIC TOTAL TEMP POTENTIAL TOTALAVG TEMPAVG PRESSURE GPRESSURE VOLUME PRESSAVG GPRESSAVG
ENERGY: 0 3.7525 8.0468 3.1999 0.0000 -10722.3370 1481.4481 0.0000 0.0000 1772.4272 -7453.4626 303.1699 -9225.8897 -7453.4626 303.1699 396.2784 472.6414 29557.1899 396.2784 472.6414
ENERGY: 300000 5.8384 11.0022 5.9059 0.0000 -10554.5658 1394.3154 0.0000 0.0000 1770.1279 -7367.3760 302.7766 -9137.5039 -7402.1671 302.9408 -900.5378 -778.9660 30552.7039 -140.1850 -73.5782
ENERGY: 600000 1.9039 11.1340 2.4959 0.0000 -10627.7701 1401.2580 0.0000 0.0000 1810.3434 -7400.6351 309.6554 -9210.9785 -7386.5897 303.3871 -115.2316 -50.9074 29534.9339 -208.2971 -143.8576
ENERGY: 900000 2.1946 6.3203 3.6067 0.0000 -10754.9660 1538.5392 0.0000 0.0000 1712.4109 -7491.8943 292.9043 -9204.3051 -7393.5064 301.5768 887.0653 938.2668 29718.7288 19.5822 81.6744
ENERGY: 1200000 2.7727 10.7766 4.6830 0.0000 -10524.3320 1359.4859 0.0000 0.0000 1756.2723 -7390.3415 300.4067 -9146.6139 -7382.9921 301.2266 -615.5222 -566.2511 29939.5855 -73.2776 -5.1599
ENERGY: 1500000 4.8953 7.2879 2.2490 0.0000 -10643.7295 1484.9247 0.0000 0.0000 1742.0661 -7402.3065 297.9767 -9144.3726 -7378.6344 301.8762 573.1482 678.8663 29655.4848 -139.5219 -68.8597
TCL: Exiting due to exit command.
