Info: SIMULATION PARAMETERS:
Info: TIMESTEP               2
Info: NUMBER OF STEPS        0
Info: STEPS PER CYCLE        10
Info: PERIODIC CELL BASIS 1  30.8097 0 0
Info: PERIODIC CELL BASIS 2  0 30.0295 0
Info: PERIODIC CELL BASIS 3  0 0 32.755
Info: PERIODIC CELL CENTER   0 0 0
Info: WRAPPING WATERS AROUND PERIODIC BOUNDARIES ON OUTPUT.
Info: WRAPPING ALL CLUSTERS AROUND PERIODIC BOUNDARIES ON OUTPUT.
Info: FIRST LDB TIMESTEP     50
Info: LAST LDB TIMESTEP     -1
Info: HOM BACKGROUND SCALING 1
Info: PME BACKGROUND SCALING 1
Info: MIN ATOMS PER PATCH    40
Info: EMPTY PATCH LOAD       40 ATOMS
Info: VELOCITY FILE          mobley_1160109_equil.vel
Info: CENTER OF MASS MOVING INITIALLY? NO
Info: DIELECTRIC             1
Info: EXCLUDE                SCALED ONE-FOUR
Info: 1-4 ELECTROSTATICS SCALED BY 0.833333
Info: MODIFIED 1-4 VDW PARAMETERS WILL BE USED
Info: DCD FILENAME           mobley_1160109_prod.dcd
Info: DCD FREQUENCY          100000
Info: DCD FIRST STEP         100000
Info: DCD FILE WILL CONTAIN UNIT CELL DATA
Info: XST FILENAME           mobley_1160109_prod.xst
Info: XST FREQUENCY          100000
Info: NO VELOCITY DCD OUTPUT
Info: NO FORCE DCD OUTPUT
Info: OUTPUT FILENAME        mobley_1160109_prod
Info: BINARY OUTPUT FILES WILL BE USED
Info: RESTART FILENAME       mobley_1160109_prod.restart
Info: RESTART FREQUENCY      100000
Info: BINARY RESTART FILES WILL BE USED
Info: CUTOFF                 9
Info: PAIRLIST DISTANCE      11
Info: PAIRLIST SHRINK RATE   0.01
Info: PAIRLIST GROW RATE     0.01
Info: PAIRLIST TRIGGER       0.3
Info: PAIRLISTS PER CYCLE    2
Info: PAIRLISTS ENABLED
Info: MARGIN                 2
Info: HYDROGEN GROUP CUTOFF  2.5
Info: PATCH DIMENSION        15.5
Info: ENERGY OUTPUT STEPS    100000
Info: ENERGY EVALUATION STEPS    100000
Info: OUTPUT ENERGY PRECISION 4
Info: CROSSTERM ENERGY INCLUDED IN DIHEDRAL
Info: TIMING OUTPUT STEPS    1000000
Info: PRESSURE OUTPUT STEPS  100000
Info: ALCHEMICAL FEP ON
Info: FEP CURRENT LAMBDA VALUE     0
Info: FEP COMPARISON LAMBDA VALUE  0.05
Info: FEP INTRA-ALCHEMICAL NON-BONDED INTERACTIONS WILL BE RETAINED
Info: FEP INTRA-ALCHEMICAL BONDED INTERACTIONS WILL BE RETAINED
Info: FEP VDW SHIFTING COEFFICIENT 5
Info: FEP ELEC. ACTIVE FOR ANNIHILATED PARTICLES BETWEEN LAMBDA = 0 AND LAMBDA = 0.5
Info: FEP ELEC. ACTIVE FOR EXNIHILATED PARTICLES BETWEEN LAMBDA = 0.5 AND LAMBDA = 1
Info: FEP VDW ACTIVE FOR ANNIHILATED PARTICLES BETWEEN LAMBDA = 0 AND LAMBDA = 1
Info: FEP VDW ACTIVE FOR EXNIHILATED PARTICLES BETWEEN LAMBDA = 0 AND LAMBDA = 1
Info: FEP BOND ACTIVE FOR ANNIHILATED PARTICLES BETWEEN LAMBDA = 1 AND LAMBDA = 1
Info: FEP BOND ACTIVE FOR EXNIHILATED PARTICLES BETWEEN LAMBDA = 0 AND LAMBDA = 0
Info: LANGEVIN DYNAMICS ACTIVE
Info: LANGEVIN TEMPERATURE   300
Info: LANGEVIN USING BBK INTEGRATOR
Info: LANGEVIN DAMPING COEFFICIENT IS 1 INVERSE PS
Info: LANGEVIN DYNAMICS APPLIED TO HYDROGENS
Info: LANGEVIN PISTON PRESSURE CONTROL ACTIVE
Info:        TARGET PRESSURE IS 1.01325 BAR
Info:     OSCILLATION PERIOD IS 50 FS
Info:             DECAY TIME IS 25 FS
Info:     PISTON TEMPERATURE IS 300 K
Info:       PRESSURE CONTROL IS GROUP-BASED
Info:    INITIAL STRAIN RATE IS 0.000470691 0.000470691 0.000470691
Info:       CELL FLUCTUATION IS ISOTROPIC
Info: PARTICLE MESH EWALD (PME) ACTIVE
Info: PME TOLERANCE               1e-06
Info: PME EWALD COEFFICIENT       0.348832
Info: PME INTERPOLATION ORDER     4
Info: PME GRID DIMENSIONS         32 32 36
Info: PME MAXIMUM GRID SPACING    1
Info: PME CALCULATION WILL BE PERFORMED ON GPU
Info: FULL ELECTROSTATIC EVALUATION FREQUENCY      2
Info: USING VERLET I (r-RESPA) MTS SCHEME.
Info: C1 SPLITTING OF LONG RANGE ELECTROSTATICS
Info: PLACING ATOMS IN PATCHES BY HYDROGEN GROUPS
Info: RIGID BONDS TO HYDROGEN : ALL
Info:         ERROR TOLERANCE : 1e-08
Info:          MAX ITERATIONS : 100
Info: RIGID WATER USING SETTLE ALGORITHM
Info: RANDOM NUMBER SEED     1743815895
Info: USE HYDROGEN BONDS?    NO
Info: Using AMBER format force field!
Info: AMBER PARM FILE        mobley_1160109.prmtop
Info: COORDINATE PDB         mobley_1160109.pdb
Info: Exclusions will be read from PARM file!
Info: SCNB (VDW SCALING)     2
Info: USING ARITHMETIC MEAN TO COMBINE L-J SIGMA PARAMETERS
Info: BINARY COORDINATES     mobley_1160109_equil.coor
Info: SUMMARY OF PARAMETERS:
Info: 9 BONDS
Info: 13 ANGLES
Info:   13 HARMONIC
Info:   0 COSINE-BASED
Info: 15 DIHEDRAL
Info: 0 IMPROPER
Info: 0 CROSSTERM
Info: 0 VDW
Info: 28 VDW_PAIRS
Info: 0 NBTHOLE_PAIRS
Info: To read alchdata from file: mobley_1160109.pdb
Info: To read alchflag data from column: 5
Info: STRUCTURE SUMMARY:
Info: 2952 ATOMS
Info: 2952 BONDS
Info: 51 ANGLES
Info: 96 DIHEDRALS
Info: 0 IMPROPERS
Info: 0 CROSSTERMS
Info: 3073 EXCLUSIONS
Info: 2941 RIGID BONDS
Info: ALCH: 0 ATOMS TO DISAPPEAR IN FINAL STATE
Info: ALCH: 27 ATOMS TO APPEAR IN FINAL STATE
Info: 5915 DEGREES OF FREEDOM
Info: 986 HYDROGEN GROUPS
Info: 4 ATOMS IN LARGEST HYDROGEN GROUP
Info: 986 MIGRATION GROUPS
Info: 4 ATOMS IN LARGEST MIGRATION GROUP
Info: TOTAL MASS = 17717.8 amu
Info: TOTAL CHARGE = -0.000199955 e
Info: MASS DENSITY = 0.970859 g/cm^3
Info: ATOM DENSITY = 0.0974099 atoms/A^3
Info: ADDED 0 IMPLICIT EXCLUSIONS
Info: NONBONDED TABLE R-SQUARED SPACING: 0.0625
Info: NONBONDED TABLE SIZE: 705 POINTS
Info: REMOVING COM VELOCITY -0.0527358 0.124552 -0.0674967
Info: Use 3D box decompostion in PME FFT.
Info: Updated CUDA force table with 4096 elements.
Info: Updated CUDA LJ table with 7 x 7 elements.
Info: Found 28 unique exclusion lists needing 92 bytes
TCL: Running for 1500000 steps
ETITLE: TS BOND ANGLE DIHED IMPRP ELECT VDW BOUNDARY MISC KINETIC TOTAL TEMP POTENTIAL TOTALAVG TEMPAVG PRESSURE GPRESSURE VOLUME PRESSAVG GPRESSAVG
ENERGY: 0 1.2287 12.2438 10.0768 0.0000 -10591.4033 1389.6588 0.0000 0.0000 1783.5027 -7394.6926 303.4656 -9178.1952 -7394.6926 303.4656 -311.2913 -235.9704 30304.9344 -311.2913 -235.9704
ENERGY: 300000 4.0052 10.9765 11.5583 0.0000 -10624.9378 1492.4708 0.0000 0.0000 1716.7982 -7389.1287 292.1157 -9105.9269 -7416.9459 296.0334 641.2015 639.8168 30358.1552 16.3237 74.9199
ENERGY: 600000 8.1673 13.6872 10.1864 0.0000 -10499.6908 1355.0678 0.0000 0.0000 1728.5140 -7384.0681 294.1092 -9112.5821 -7414.9022 296.4581 -636.2787 -571.7229 30121.4226 -8.5109 59.3838
ENERGY: 900000 3.5916 15.0268 12.2512 0.0000 -10726.2391 1547.1298 0.0000 0.0000 1699.2053 -7449.0344 289.1222 -9148.2397 -7422.3307 296.7933 929.0401 961.6223 29966.1823 82.8545 149.6472
ENERGY: 1200000 3.8238 11.9616 9.9091 0.0000 -10535.5968 1329.1096 0.0000 0.0000 1844.4159 -7336.3768 313.8300 -9180.7927 -7422.4072 299.1163 -1063.4146 -1013.2479 30853.5232 25.0998 90.5854
ENERGY: 1500000 6.6811 11.1587 11.3487 0.0000 -10615.6743 1403.8890 0.0000 0.0000 1824.2400 -7358.3567 310.3971 -9182.5968 -7428.4672 299.4194 -155.9858 -12.5050 29908.5409 -18.1700 53.7158
TCL: Running FEP window   2: Lambda1 0.05   Lambda2 0.1    [dLambda 0.05  ]
TCL: Setting parameter firsttimestep to 0
TCL: Setting parameter alchLambda to 0.05
Info: NONBONDED TABLE R-SQUARED SPACING: 0.0625
Info: NONBONDED TABLE SIZE: 705 POINTS
TCL: Setting parameter alchLambda2 to 0.1
Info: NONBONDED TABLE R-SQUARED SPACING: 0.0625
Info: NONBONDED TABLE SIZE: 705 POINTS
TCL: Running for 1500000 steps
ETITLE: TS BOND ANGLE DIHED IMPRP ELECT VDW BOUNDARY MISC KINETIC TOTAL TEMP POTENTIAL TOTALAVG TEMPAVG PRESSURE GPRESSURE VOLUME PRESSAVG GPRESSAVG
ENERGY: 0 6.6811 11.1587 11.3487 0.0000 -10615.6746 1406.2068 0.0000 0.0000 1823.3994 -7356.8798 310.2540 -9180.2792 -7356.8798 310.2540 -72.2133 -2.0422 29908.5409 -72.2133 -2.0422
ENERGY: 300000 2.6664 13.1923 9.5723 0.0000 -10670.2175 1445.4102 0.0000 0.0000 1753.1703 -7446.2060 298.3045 -9199.3763 -7428.2794 303.2898 73.1241 114.5485 29907.8643 -279.7628 -204.3997
ENERGY: 600000 2.0366 16.1765 9.4963 0.0000 -10876.0601 1549.1277 0.0000 0.0000 1834.4658 -7464.7571 312.1370 -9299.2229 -7435.9824 303.0163 817.2678 866.1111 29865.8978 -222.3718 -150.0298
ENERGY: 900000 1.8423 12.7035 10.3457 0.0000 -10659.5379 1464.6457 0.0000 0.0000 1757.0259 -7412.9749 298.9605 -9170.0007 -7426.6637 302.2611 277.8920 338.7375 30120.3493 -187.7114 -119.0181
ENERGY: 1200000 5.5241 8.2353 10.7150 0.0000 -10821.6825 1567.3701 0.0000 0.0000 1791.9518 -7437.8862 304.9032 -9229.8380 -7432.7560 302.1045 933.8128 984.0522 29769.0381 38.6658 104.8201
ENERGY: 1500000 2.8197 15.8452 9.4504 0.0000 -10604.4631 1451.1248 0.0000 0.0000 1784.5688 -7340.6542 303.6469 -9125.2230 -7431.5806 301.8925 341.6490 363.3770 30567.1564 26.0717 89.1102
TCL: Running FEP window   3: Lambda1 0.1    Lambda2 0.15000000000000002 [dLambda 0.05000000000000002]
TCL: Setting parameter firsttimestep to 0
TCL: Setting parameter alchLambda to 0.1
Info: NONBONDED TABLE R-SQUARED SPACING: 0.0625
Info: NONBONDED TABLE SIZE: 705 POINTS
TCL: Setting parameter alchLambda2 to 0.15000000000000002
Info: NONBONDED TABLE R-SQUARED SPACING: 0.0625
Info: NONBONDED TABLE SIZE: 705 POINTS
TCL: Running for 1500000 steps
ETITLE: TS BOND ANGLE DIHED IMPRP ELECT VDW BOUNDARY MISC KINETIC TOTAL TEMP POTENTIAL TOTALAVG TEMPAVG PRESSURE GPRESSURE VOLUME PRESSAVG GPRESSAVG
ENERGY: 0 2.8197 15.8452 9.4504 0.0000 -10604.4634 1454.6041 0.0000 0.0000 1783.6561 -7338.0878 303.4917 -9121.7440 -7338.0878 303.4917 309.0968 376.0466 30567.1564 309.0968 376.0466
ENERGY: 300000 6.3156 13.5679 11.9209 0.0000 -10705.7058 1495.9855 0.0000 0.0000 1760.3412 -7417.5748 299.5246 -9177.9159 -7410.2341 300.4998 326.8836 443.1260 30219.4186 -120.0717 -50.0393
ENERGY: 600000 4.5272 13.5154 9.4668 0.0000 -10582.8871 1334.4182 0.0000 0.0000 1724.4999 -7496.4597 293.4261 -9220.9596 -7417.1852 299.6588 -1017.8579 -964.5190 30002.4958 -251.6280 -188.3811
ENERGY: 900000 4.5164 11.7150 9.7364 0.0000 -10713.1756 1493.0576 0.0000 0.0000 1788.8808 -7405.2694 304.3806 -9194.1502 -7430.1011 299.3329 301.1312 360.2395 30433.5372 -143.1745 -78.2338
ENERGY: 1200000 5.9720 11.0493 8.9592 0.0000 -10596.7701 1395.6390 0.0000 0.0000 1782.0618 -7393.0888 303.2204 -9175.1506 -7422.4647 300.3312 -351.4078 -329.3266 30011.6918 -176.2876 -121.4484
ENERGY: 1500000 7.7944 11.7056 9.2158 0.0000 -10650.8824 1448.5774 0.0000 0.0000 1751.3759 -7422.2133 297.9991 -9173.5892 -7430.7999 300.0449 -41.0532 21.0970 30070.1824 -145.1994 -84.8074
TCL: Running FEP window   4: Lambda1 0.15000000000000002 Lambda2 0.2    [dLambda 0.04999999999999999]
TCL: Setting parameter firsttimestep to 0
TCL: Setting parameter alchLambda to 0.15000000000000002
Info: NONBONDED TABLE R-SQUARED SPACING: 0.0625
Info: NONBONDED TABLE SIZE: 705 POINTS
TCL: Setting parameter alchLambda2 to 0.2
Info: NONBONDED TABLE R-SQUARED SPACING: 0.0625
Info: NONBONDED TABLE SIZE: 705 POINTS
TCL: Running for 1500000 steps
ETITLE: TS BOND ANGLE DIHED IMPRP ELECT VDW BOUNDARY MISC KINETIC TOTAL TEMP POTENTIAL TOTALAVG TEMPAVG PRESSURE GPRESSURE VOLUME PRESSAVG GPRESSAVG
ENERGY: 0 7.7944 11.7056 9.2158 0.0000 -10650.8841 1450.7081 0.0000 0.0000 1750.4489 -7421.0112 297.8414 -9171.4601 -7421.0112 297.8414 -50.6763 33.8594 30070.1824 -50.6763 33.8594
ENERGY: 300000 8.3683 11.1400 9.8771 0.0000 -10560.6140 1370.8458 0.0000 0.0000 1736.4267 -7423.9562 295.4555 -9160.3829 -7392.7949 299.9098 -612.2795 -536.1148 29995.8666 -87.7517 -13.8507
ENERGY: 600000 3.1368 11.3699 9.9618 0.0000 -10633.0720 1457.6752 0.0000 0.0000 1803.7040 -7347.2243 306.9028 -9150.9283 -7397.9494 301.1338 298.5885 316.4870 30538.7110 -56.5064 18.5024
ENERGY: 900000 6.6013 12.7015 9.4977 0.0000 -10651.9086 1381.6240 0.0000 0.0000 1844.9433 -7396.5407 313.9198 -9241.4840 -7404.0189 302.5238 -741.3745 -692.8083 30233.6486 -126.4189 -61.7229
ENERGY: 1200000 5.0359 8.9693 10.4717 0.0000 -10646.5297 1463.1519 0.0000 0.0000 1784.7564 -7374.1446 303.6789 -9158.9009 -7396.1431 303.0621 215.7768 300.3844 29979.1481 -160.4054 -94.6418
ENERGY: 1500000 2.9815 11.8532 9.1694 0.0000 -10834.1780 1538.7676 0.0000 0.0000 1848.3784 -7423.0280 314.5042 -9271.4064 -7413.9759 303.5848 751.5074 770.9781 29898.6465 -91.8196 -30.2716
TCL: Running FEP window   5: Lambda1 0.2    Lambda2 0.25   [dLambda 0.04999999999999999]
TCL: Setting parameter firsttimestep to 0
TCL: Setting parameter alchLambda to 0.2
Info: NONBONDED TABLE R-SQUARED SPACING: 0.0625
Info: NONBONDED TABLE SIZE: 705 POINTS
TCL: Setting parameter alchLambda2 to 0.25
Info: NONBONDED TABLE R-SQUARED SPACING: 0.0625
Info: NONBONDED TABLE SIZE: 705 POINTS
TCL: Running for 1500000 steps
ETITLE: TS BOND ANGLE DIHED IMPRP ELECT VDW BOUNDARY MISC KINETIC TOTAL TEMP POTENTIAL TOTALAVG TEMPAVG PRESSURE GPRESSURE VOLUME PRESSAVG GPRESSAVG
ENERGY: 0 2.9815 11.8532 9.1694 0.0000 -10834.1790 1540.5186 0.0000 0.0000 1847.5324 -7422.1240 314.3603 -9269.6564 -7422.1240 314.3603 695.0128 782.1668 29898.6465 695.0128 782.1668
ENERGY: 300000 4.8546 12.8456 10.6315 0.0000 -10758.4680 1448.1182 0.0000 0.0000 1782.1268 -7499.8912 303.2314 -9282.0180 -7423.8639 304.4660 -144.2316 -69.8773 30070.1364 -175.3122 -103.4174
ENERGY: 600000 6.5582 14.9639 9.9967 0.0000 -10503.9682 1300.7856 0.0000 0.0000 1776.1077 -7395.5559 302.2073 -9171.6637 -7425.3301 302.3364 -851.1638 -822.0272 30078.3303 -197.5014 -139.6787
ENERGY: 900000 3.4815 11.0206 8.8148 0.0000 -10699.1503 1468.7895 0.0000 0.0000 1806.8738 -7400.1700 307.4422 -9207.0438 -7418.7935 301.5573 477.5792 583.8979 29820.6112 -82.5342 -19.7404
ENERGY: 1200000 6.2517 9.3569 10.6674 0.0000 -10740.9632 1465.9242 0.0000 0.0000 1740.8835 -7507.8796 296.2138 -9248.7631 -7421.7505 302.0643 43.2635 129.7961 29882.3687 -25.9627 35.5588
ENERGY: 1500000 1.5913 10.2642 11.0735 0.0000 -10704.9927 1439.1760 0.0000 0.0000 1715.5916 -7527.2962 291.9104 -9242.8878 -7425.7745 301.6305 -37.1915 17.6951 29830.2993 -46.3019 19.3749
TCL: Running FEP window   6: Lambda1 0.25   Lambda2 0.3    [dLambda 0.04999999999999999]
TCL: Setting parameter firsttimestep to 0
TCL: Setting parameter alchLambda to 0.25
Info: NONBONDED TABLE R-SQUARED SPACING: 0.0625
Info: NONBONDED TABLE SIZE: 705 POINTS
TCL: Setting parameter alchLambda2 to 0.3
Info: NONBONDED TABLE R-SQUARED SPACING: 0.0625
Info: NONBONDED TABLE SIZE: 705 POINTS
TCL: Running for 1500000 steps
ETITLE: TS BOND ANGLE DIHED IMPRP ELECT VDW BOUNDARY MISC KINETIC TOTAL TEMP POTENTIAL TOTALAVG TEMPAVG PRESSURE GPRESSURE VOLUME PRESSAVG GPRESSAVG
ENERGY: 0 1.5913 10.2642 11.0735 0.0000 -10704.9925 1438.9366 0.0000 0.0000 1714.6461 -7528.4808 291.7495 -9243.1269 -7528.4808 291.7495 -69.5412 21.7926 29830.2993 -69.5412 21.7926
ENERGY: 300000 2.6561 12.6737 10.4439 0.0000 -10740.1621 1539.0230 0.0000 0.0000 1772.7498 -7402.6156 301.6359 -9175.3654 -7404.7822 301.9378 917.7269 924.1907 29949.3817 21.9266 82.3966
ENERGY: 600000 4.3216 13.7832 10.8515 0.0000 -10614.4203 1418.0760 0.0000 0.0000 1782.6045 -7384.7835 303.3127 -9167.3880 -7402.8945 300.5463 -116.5032 -80.3505 30409.9470 139.9031 210.8228
ENERGY: 900000 3.7822 15.1941 9.0142 0.0000 -10556.6134 1385.8555 0.0000 0.0000 1795.2992 -7347.4681 305.4728 -9142.7673 -7389.4132 301.3879 -599.1211 -534.0414 30807.6431 19.8486 88.3596
ENERGY: 1200000 3.9020 11.2056 9.8676 0.0000 -10871.8868 1583.4128 0.0000 0.0000 1795.7759 -7467.7229 305.5539 -9263.4988 -7397.8392 301.6239 1041.6029 1145.0218 29967.9979 110.8018 184.8588
ENERGY: 1500000 8.6151 8.2029 10.4653 0.0000 -10630.9325 1386.2877 0.0000 0.0000 1797.7659 -7419.5956 305.8925 -9217.3615 -7407.5660 300.5143 -225.0685 -166.7739 29645.1441 40.3012 110.1462
TCL: Running FEP window   7: Lambda1 0.3    Lambda2 0.35   [dLambda 0.04999999999999999]
TCL: Setting parameter firsttimestep to 0
TCL: Setting parameter alchLambda to 0.3
Info: NONBONDED TABLE R-SQUARED SPACING: 0.0625
Info: NONBONDED TABLE SIZE: 705 POINTS
TCL: Setting parameter alchLambda2 to 0.35
Info: NONBONDED TABLE R-SQUARED SPACING: 0.0625
Info: NONBONDED TABLE SIZE: 705 POINTS
TCL: Running for 1500000 steps
ETITLE: TS BOND ANGLE DIHED IMPRP ELECT VDW BOUNDARY MISC KINETIC TOTAL TEMP POTENTIAL TOTALAVG TEMPAVG PRESSURE GPRESSURE VOLUME PRESSAVG GPRESSAVG
ENERGY: 0 8.6151 8.2029 10.4653 0.0000 -10630.9314 1386.4724 0.0000 0.0000 1796.8668 -7420.3089 305.7395 -9217.1756 -7420.3089 305.7395 -244.1253 -156.4523 29645.1441 -244.1253 -156.4523
ENERGY: 300000 4.8850 11.2798 11.5265 0.0000 -10594.9515 1406.5373 0.0000 0.0000 1698.3458 -7462.3772 288.9760 -9160.7229 -7439.2677 299.2248 -364.2948 -245.4845 30368.5504 -256.3459 -187.3880
ENERGY: 600000 3.0813 13.4780 10.5698 0.0000 -10646.1663 1384.3803 0.0000 0.0000 1780.2387 -7454.4182 302.9102 -9234.6569 -7429.5153 301.4908 -481.9214 -394.1691 30366.0411 -245.6180 -177.8055
ENERGY: 900000 1.7249 12.7539 10.1703 0.0000 -10641.6197 1428.1233 0.0000 0.0000 1754.5481 -7434.2990 298.5389 -9188.8472 -7429.6818 301.3048 115.3507 117.0964 29952.6530 -233.5666 -174.3358
ENERGY: 1200000 3.7839 16.5046 10.1087 0.0000 -10698.9522 1467.1069 0.0000 0.0000 1796.5838 -7404.8644 305.6913 -9201.4482 -7420.7254 301.9121 14.6522 147.2786 30302.5449 -141.0851 -77.2514
ENERGY: 1500000 3.3533 13.8249 11.6949 0.0000 -10565.1426 1388.8616 0.0000 0.0000 1821.5789 -7325.8289 309.9443 -9147.4078 -7423.7163 301.9259 -248.7233 -176.0195 30284.6516 -141.5012 -75.4095
TCL: Running FEP window   8: Lambda1 0.35   Lambda2 0.39999999999999997 [dLambda 0.04999999999999999]
TCL: Setting parameter firsttimestep to 0
TCL: Setting parameter alchLambda to 0.35
Info: NONBONDED TABLE R-SQUARED SPACING: 0.0625
Info: NONBONDED TABLE SIZE: 705 POINTS
TCL: Setting parameter alchLambda2 to 0.39999999999999997
Info: NONBONDED TABLE R-SQUARED SPACING: 0.0625
Info: NONBONDED TABLE SIZE: 705 POINTS
TCL: Running for 1500000 steps
ETITLE: TS BOND ANGLE DIHED IMPRP ELECT VDW BOUNDARY MISC KINETIC TOTAL TEMP POTENTIAL TOTALAVG TEMPAVG PRESSURE GPRESSURE VOLUME PRESSAVG GPRESSAVG
ENERGY: 0 3.3533 13.8249 11.6949 0.0000 -10565.1410 1388.7287 0.0000 0.0000 1820.6950 -7326.8442 309.7939 -9147.5392 -7326.8442 309.7939 -234.1213 -169.8254 30284.6516 -234.1213 -169.8254
ENERGY: 300000 7.1218 12.3398 9.1563 0.0000 -10633.2689 1409.7561 0.0000 0.0000 1718.4221 -7476.4728 292.3920 -9194.8949 -7392.7563 299.2687 -167.2400 -73.4131 30093.4812 -26.2416 29.2760
ENERGY: 600000 4.1883 13.0864 8.7482 0.0000 -10627.6988 1409.0548 0.0000 0.0000 1753.4947 -7439.1263 298.3597 -9192.6211 -7428.2077 298.9221 -154.4754 -118.0010 29995.5690 -30.1342 21.9020
ENERGY: 900000 3.6841 12.7653 11.7401 0.0000 -10755.2335 1529.8140 0.0000 0.0000 1767.5305 -7429.6995 300.7479 -9197.2301 -7433.4524 299.0725 852.8731 855.1084 30149.7045 -95.2534 -46.3335
ENERGY: 1200000 5.1137 13.0591 9.5131 0.0000 -10618.3898 1401.3115 0.0000 0.0000 1747.0467 -7442.3458 297.2625 -9189.3924 -7429.7720 300.3649 -265.1726 -210.7801 30151.0636 -112.6045 -62.9678
ENERGY: 1500000 3.4984 9.9133 9.7040 0.0000 -10673.0922 1392.7446 0.0000 0.0000 1751.0092 -7506.2227 297.9367 -9257.2319 -7440.1893 299.6178 -648.3405 -578.1768 30308.7452 -144.5620 -92.7689
TCL: Running FEP window   9: Lambda1 0.39999999999999997 Lambda2 0.44999999999999996 [dLambda 0.04999999999999999]
TCL: Setting parameter firsttimestep to 0
TCL: Setting parameter alchLambda to 0.39999999999999997
Info: NONBONDED TABLE R-SQUARED SPACING: 0.0625
Info: NONBONDED TABLE SIZE: 705 POINTS
TCL: Setting parameter alchLambda2 to 0.44999999999999996
Info: NONBONDED TABLE R-SQUARED SPACING: 0.0625
Info: NONBONDED TABLE SIZE: 705 POINTS
TCL: Running for 1500000 steps
ETITLE: TS BOND ANGLE DIHED IMPRP ELECT VDW BOUNDARY MISC KINETIC TOTAL TEMP POTENTIAL TOTALAVG TEMPAVG PRESSURE GPRESSURE VOLUME PRESSAVG GPRESSAVG
ENERGY: 0 3.4984 9.9133 9.7040 0.0000 -10673.0916 1394.0928 0.0000 0.0000 1750.1211 -7505.7619 297.7856 -9255.8830 -7505.7619 297.7856 -652.9387 -563.1605 30308.7452 -652.9387 -563.1605
ENERGY: 300000 2.2307 11.0286 9.3138 0.0000 -10577.2462 1397.8880 0.0000 0.0000 1703.5229 -7453.2622 289.8569 -9156.7851 -7434.4270 297.2269 -268.6125 -257.2057 30675.0741 -505.3263 -467.6530
ENERGY: 600000 6.4599 11.3508 10.4040 0.0000 -10539.8138 1401.2062 0.0000 0.0000 1756.4434 -7353.9497 298.8614 -9110.3931 -7421.6565 297.1177 63.2614 53.7150 30401.5405 -417.8898 -375.2051
ENERGY: 900000 2.5824 13.2364 8.8283 0.0000 -10649.2453 1416.2268 0.0000 0.0000 1767.5021 -7440.8693 300.7430 -9208.3714 -7417.3487 298.0430 65.9120 64.2941 29877.3445 -318.5842 -276.4603
ENERGY: 1200000 1.4597 13.0183 11.3894 0.0000 -10871.5560 1629.7280 0.0000 0.0000 1735.8032 -7480.1574 295.3494 -9215.9607 -7417.3506 298.4563 1762.4682 1840.8667 29696.3136 -102.2381 -54.7980
ENERGY: 1500000 3.6303 11.9016 9.8080 0.0000 -10711.7609 1433.5303 0.0000 0.0000 1763.0840 -7489.8067 299.9913 -9252.8907 -7422.4067 299.0145 -259.8843 -205.2668 30256.6106 -115.1193 -61.7122
TCL: Running FEP window  10: Lambda1 0.44999999999999996 Lambda2 0.49999999999999994 [dLambda 0.04999999999999999]
TCL: Setting parameter firsttimestep to 0
TCL: Setting parameter alchLambda to 0.44999999999999996
Info: NONBONDED TABLE R-SQUARED SPACING: 0.0625
Info: NONBONDED TABLE SIZE: 705 POINTS
TCL: Setting parameter alchLambda2 to 0.49999999999999994
Info: NONBONDED TABLE R-SQUARED SPACING: 0.0625
Info: NONBONDED TABLE SIZE: 705 POINTS
TCL: Running for 1500000 steps
ETITLE: TS BOND ANGLE DIHED IMPRP ELECT VDW BOUNDARY MISC KINETIC TOTAL TEMP POTENTIAL TOTALAVG TEMPAVG PRESSURE GPRESSURE VOLUME PRESSAVG GPRESSAVG
ENERGY: 0 3.6303 11.9016 9.8080 0.0000 -10711.7634 1434.3634 0.0000 0.0000 1762.1565 -7489.9036 299.8335 -9252.0601 -7489.9036 299.8335 -268.8961 -192.7598 30256.6106 -268.8961 -192.7598
ENERGY: 300000 4.9193 8.6120 12.9592 0.0000 -10692.7381 1433.5414 0.0000 0.0000 1777.0737 -7455.6325 302.3716 -9232.7062 -7512.1795 296.9919 -212.7705 -138.3701 30059.4895 4.0849 97.0306
ENERGY: 600000 4.0535 13.1384 12.1224 0.0000 -10514.4910 1368.8242 0.0000 0.0000 1818.5574 -7297.7950 309.4302 -9116.3525 -7442.8441 300.5668 -384.0062 -376.1249 30479.1028 67.8521 136.0781
ENERGY: 900000 3.2108 12.3512 10.4158 0.0000 -10637.4838 1454.4788 0.0000 0.0000 1700.5181 -7456.5091 289.3456 -9157.0272 -7449.5951 299.1422 363.6679 415.9617 29928.0471 132.2924 200.4915
ENERGY: 1200000 2.9248 15.0715 8.4327 0.0000 -10622.9202 1436.1452 0.0000 0.0000 1841.2222 -7319.1239 313.2866 -9160.3461 -7434.3133 300.3573 140.1881 192.7331 30602.7407 161.3669 238.0076
ENERGY: 1500000 7.7002 10.0889 8.8648 0.0000 -10708.0746 1465.8641 0.0000 0.0000 1774.8193 -7440.7374 301.9881 -9215.5567 -7428.6617 301.1166 27.4588 46.7975 30438.3222 142.0919 215.9581
TCL: Running FEP window  11: Lambda1 0.49999999999999994 Lambda2 0.5499999999999999 [dLambda 0.04999999999999999]
TCL: Setting parameter firsttimestep to 0
TCL: Setting parameter alchLambda to 0.49999999999999994
Info: NONBONDED TABLE R-SQUARED SPACING: 0.0625
Info: NONBONDED TABLE SIZE: 705 POINTS
TCL: Setting parameter alchLambda2 to 0.5499999999999999
Info: NONBONDED TABLE R-SQUARED SPACING: 0.0625
Info: NONBONDED TABLE SIZE: 705 POINTS
TCL: Running for 1500000 steps
ETITLE: TS BOND ANGLE DIHED IMPRP ELECT VDW BOUNDARY MISC KINETIC TOTAL TEMP POTENTIAL TOTALAVG TEMPAVG PRESSURE GPRESSURE VOLUME PRESSAVG GPRESSAVG
ENERGY: 0 7.7002 10.0889 8.8648 0.0000 -10708.0730 1465.9585 0.0000 0.0000 1773.9652 -7441.4954 301.8427 -9215.4606 -7441.4954 301.8427 -31.6305 54.6512 30438.3222 -31.6305 54.6512
ENERGY: 300000 2.6207 14.2795 9.5176 0.0000 -10640.7484 1440.2529 0.0000 0.0000 1755.9302 -7418.1475 298.7741 -9174.0777 -7458.1929 298.7530 343.0858 361.7962 30112.7915 -137.4211 -100.8851
ENERGY: 600000 4.2331 9.8771 8.4091 0.0000 -10598.6143 1383.8285 0.0000 0.0000 1742.2989 -7449.9676 296.4547 -9192.2665 -7457.1962 296.8846 -262.7036 -238.6950 30288.7410 17.3413 62.7577
ENERGY: 900000 3.1963 10.4492 8.9849 0.0000 -10595.4148 1397.1797 0.0000 0.0000 1762.1330 -7413.4717 299.8295 -9175.6048 -7452.7928 297.9353 -413.5536 -367.3650 30570.4508 -25.3144 21.8527
ENERGY: 1200000 5.6999 20.4162 9.6306 0.0000 -10636.8630 1440.3344 0.0000 0.0000 1792.9801 -7367.8018 305.0782 -9160.7819 -7438.6194 298.8594 -221.0966 -141.7214 30828.3554 -94.1727 -38.5309
ENERGY: 1500000 2.1106 12.6103 12.7150 0.0000 -10874.2983 1536.9473 0.0000 0.0000 1775.6284 -7534.2868 302.1257 -9309.9152 -7445.6780 299.6972 516.3189 496.7455 30210.8202 45.0408 95.6902
TCL: Running FEP window  12: Lambda1 0.5499999999999999 Lambda2 0.6    [dLambda 0.050000000000000044]
TCL: Setting parameter firsttimestep to 0
TCL: Setting parameter alchLambda to 0.5499999999999999
Info: NONBONDED TABLE R-SQUARED SPACING: 0.0625
Info: NONBONDED TABLE SIZE: 705 POINTS
TCL: Setting parameter alchLambda2 to 0.6
Info: NONBONDED TABLE R-SQUARED SPACING: 0.0625
Info: NONBONDED TABLE SIZE: 705 POINTS
TCL: Running for 1500000 steps
ETITLE: TS BOND ANGLE DIHED IMPRP ELECT VDW BOUNDARY MISC KINETIC TOTAL TEMP POTENTIAL TOTALAVG TEMPAVG PRESSURE GPRESSURE VOLUME PRESSAVG GPRESSAVG
ENERGY: 0 2.1106 12.6103 12.7150 0.0000 -10873.8741 1536.8718 0.0000 0.0000 1774.7478 -7534.8188 301.9759 -9309.5666 -7534.8188 301.9759 429.8493 505.3016 30210.8202 429.8493 505.3016
ENERGY: 300000 3.8562 13.4920 9.8572 0.0000 -10724.6865 1470.6288 0.0000 0.0000 1744.7845 -7482.0678 296.8776 -9226.8523 -7483.3728 301.5309 96.8127 179.9486 30234.7914 70.9726 127.9309
ENERGY: 600000 6.2384 13.5464 9.2668 0.0000 -10679.8301 1499.7686 0.0000 0.0000 1762.8631 -7388.1468 299.9537 -9151.0098 -7449.2019 302.2667 201.6860 287.8761 30993.3711 192.5343 263.8393
ENERGY: 900000 8.0785 14.5608 9.9791 0.0000 -10609.3289 1398.5353 0.0000 0.0000 1768.4059 -7409.7693 300.8968 -9178.1752 -7441.9239 302.4291 -200.3704 -220.2119 30313.3112 249.0953 318.9255
ENERGY: 1200000 5.9528 16.3461 10.7680 0.0000 -10683.6733 1418.0303 0.0000 0.0000 1751.7129 -7480.8631 298.0565 -9232.5760 -7442.9232 301.3154 -387.7578 -290.1665 30023.1321 128.4030 200.2896
ENERGY: 1500000 3.4831 10.5895 9.8147 0.0000 -10567.5452 1367.2949 0.0000 0.0000 1728.3530 -7448.0100 294.0818 -9176.3630 -7448.2276 300.5307 -528.8660 -450.8715 30410.3910 46.8886 116.7016
TCL: Running FEP window  13: Lambda1 0.6    Lambda2 0.65   [dLambda 0.050000000000000044]
TCL: Setting parameter firsttimestep to 0
TCL: Setting parameter alchLambda to 0.6
Info: NONBONDED TABLE R-SQUARED SPACING: 0.0625
Info: NONBONDED TABLE SIZE: 705 POINTS
TCL: Setting parameter alchLambda2 to 0.65
Info: NONBONDED TABLE R-SQUARED SPACING: 0.0625
Info: NONBONDED TABLE SIZE: 705 POINTS
TCL: Running for 1500000 steps
ETITLE: TS BOND ANGLE DIHED IMPRP ELECT VDW BOUNDARY MISC KINETIC TOTAL TEMP POTENTIAL TOTALAVG TEMPAVG PRESSURE GPRESSURE VOLUME PRESSAVG GPRESSAVG
ENERGY: 0 3.4831 10.5895 9.8147 0.0000 -10567.7967 1366.6735 0.0000 0.0000 1727.4784 -7449.7574 293.9329 -9177.2358 -7449.7574 293.9329 -544.8903 -449.3116 30410.3910 -544.8903 -449.3116
ENERGY: 300000 3.7765 15.5563 10.2767 0.0000 -10614.8282 1395.7320 0.0000 0.0000 1814.3155 -7375.1713 308.7084 -9189.4867 -7390.9593 303.8616 -433.8539 -364.5531 30455.5870 -278.7387 -193.2288
ENERGY: 600000 2.4170 16.9139 9.7115 0.0000 -10720.3448 1450.5573 0.0000 0.0000 1791.9518 -7448.7932 304.9032 -9240.7450 -7397.3941 301.9420 -243.3507 -280.5136 30954.2092 -217.5065 -149.2923
ENERGY: 900000 1.6095 11.9042 9.0572 0.0000 -10728.0091 1510.4164 0.0000 0.0000 1763.7763 -7431.2455 300.1091 -9195.0218 -7397.0094 302.2736 614.2650 750.3343 30211.6340 -187.5079 -110.0243
ENERGY: 1200000 3.0099 8.4851 9.8332 0.0000 -10609.2574 1391.5658 0.0000 0.0000 1807.6426 -7388.7208 307.5730 -9196.3634 -7405.5765 301.8900 -11.4229 50.6467 30144.7403 -160.7726 -90.4539
ENERGY: 1500000 4.4552 12.7051 9.9919 0.0000 -10650.2743 1410.2809 0.0000 0.0000 1807.5028 -7405.3384 307.5492 -9212.8412 -7404.2753 302.4827 -357.6470 -259.7598 30538.9932 -156.2754 -85.5737
TCL: Running FEP window  14: Lambda1 0.65   Lambda2 0.7000000000000001 [dLambda 0.050000000000000044]
TCL: Setting parameter firsttimestep to 0
TCL: Setting parameter alchLambda to 0.65
Info: NONBONDED TABLE R-SQUARED SPACING: 0.0625
Info: NONBONDED TABLE SIZE: 705 POINTS
TCL: Setting parameter alchLambda2 to 0.7000000000000001
Info: NONBONDED TABLE R-SQUARED SPACING: 0.0625
Info: NONBONDED TABLE SIZE: 705 POINTS
TCL: Running for 1500000 steps
ETITLE: TS BOND ANGLE DIHED IMPRP ELECT VDW BOUNDARY MISC KINETIC TOTAL TEMP POTENTIAL TOTALAVG TEMPAVG PRESSURE GPRESSURE VOLUME PRESSAVG GPRESSAVG
ENERGY: 0 4.4552 12.7051 9.9919 0.0000 -10650.6412 1410.0340 0.0000 0.0000 1806.6236 -7406.8314 307.3996 -9213.4550 -7406.8314 307.3996 -335.7646 -249.5514 30538.9932 -335.7646 -249.5514
ENERGY: 300000 3.7829 13.4080 9.2819 0.0000 -10556.5280 1325.1068 0.0000 0.0000 1756.8465 -7448.1019 298.9300 -9204.9484 -7481.3143 298.4065 -944.4811 -873.8764 30731.0244 -165.0535 -100.0657
ENERGY: 600000 5.7476 9.8743 8.4686 0.0000 -10567.3037 1404.1433 0.0000 0.0000 1736.1190 -7402.9509 295.4031 -9139.0699 -7450.8810 298.7575 -214.0820 -174.5729 30442.8107 -150.4594 -89.0620
ENERGY: 900000 5.1882 11.6395 10.0442 0.0000 -10616.4016 1416.7890 0.0000 0.0000 1795.1826 -7377.5581 305.4529 -9172.7407 -7444.8423 298.3902 -137.8574 -97.3587 30538.3181 -112.1145 -45.1053
ENERGY: 1200000 2.3598 16.2943 10.8579 0.0000 -10587.3552 1403.0335 0.0000 0.0000 1734.2672 -7420.5424 295.0881 -9154.8096 -7442.6610 298.1433 -629.7020 -520.0438 30964.8849 -41.1858 31.5089
ENERGY: 1500000 1.5858 10.2030 10.8303 0.0000 -10535.8191 1320.3782 0.0000 0.0000 1765.2824 -7427.5394 300.3653 -9192.8218 -7447.5992 298.1225 -972.6931 -921.5255 30493.2328 -49.8380 15.5303
TCL: Running FEP window  15: Lambda1 0.7000000000000001 Lambda2 0.7500000000000001 [dLambda 0.050000000000000044]
TCL: Setting parameter firsttimestep to 0
TCL: Setting parameter alchLambda to 0.7000000000000001
Info: NONBONDED TABLE R-SQUARED SPACING: 0.0625
Info: NONBONDED TABLE SIZE: 705 POINTS
TCL: Setting parameter alchLambda2 to 0.7500000000000001
Info: NONBONDED TABLE R-SQUARED SPACING: 0.0625
Info: NONBONDED TABLE SIZE: 705 POINTS
TCL: Running for 1500000 steps
ETITLE: TS BOND ANGLE DIHED IMPRP ELECT VDW BOUNDARY MISC KINETIC TOTAL TEMP POTENTIAL TOTALAVG TEMPAVG PRESSURE GPRESSURE VOLUME PRESSAVG GPRESSAVG
ENERGY: 0 1.5858 10.2030 10.8303 0.0000 -10537.1707 1320.7121 0.0000 0.0000 1764.4244 -7429.4151 300.2194 -9193.8395 -7429.4151 300.2194 -996.8279 -909.7251 30493.2328 -996.8279 -909.7251
ENERGY: 300000 2.5037 14.5393 9.5188 0.0000 -10639.8429 1348.4594 0.0000 0.0000 1711.2775 -7553.5442 291.1763 -9264.8217 -7473.9589 299.1896 -810.5548 -724.3604 30291.9295 -385.3477 -312.0204
ENERGY: 600000 4.2670 11.2691 11.9523 0.0000 -10693.1637 1521.9944 0.0000 0.0000 1758.7566 -7384.9243 299.2550 -9143.6809 -7464.7229 298.9781 492.6368 512.8506 30806.6391 -378.8275 -314.8553
ENERGY: 900000 1.7646 16.1441 9.6906 0.0000 -10586.6696 1409.1820 0.0000 0.0000 1722.4136 -7427.4747 293.0712 -9149.8883 -7451.5531 298.6220 23.6470 60.6051 30070.5424 -75.6126 -18.4913
ENERGY: 1200000 1.5627 17.9806 10.1100 0.0000 -10823.7900 1585.4888 0.0000 0.0000 1718.0027 -7490.6452 292.3206 -9208.6480 -7453.1057 297.4354 1032.0587 1140.8664 30268.7728 37.6944 93.5028
ENERGY: 1500000 3.2028 13.0146 11.3303 0.0000 -10604.3857 1447.9932 0.0000 0.0000 1777.9666 -7350.8784 302.5236 -9128.8450 -7452.9214 297.0559 321.6953 382.3453 30476.6110 126.0837 175.4647
TCL: Running FEP window  16: Lambda1 0.7500000000000001 Lambda2 0.8000000000000002 [dLambda 0.050000000000000044]
TCL: Setting parameter firsttimestep to 0
TCL: Setting parameter alchLambda to 0.7500000000000001
Info: NONBONDED TABLE R-SQUARED SPACING: 0.0625
Info: NONBONDED TABLE SIZE: 705 POINTS
TCL: Setting parameter alchLambda2 to 0.8000000000000002
Info: NONBONDED TABLE R-SQUARED SPACING: 0.0625
Info: NONBONDED TABLE SIZE: 705 POINTS
TCL: Running for 1500000 steps
ETITLE: TS BOND ANGLE DIHED IMPRP ELECT VDW BOUNDARY MISC KINETIC TOTAL TEMP POTENTIAL TOTALAVG TEMPAVG PRESSURE GPRESSURE VOLUME PRESSAVG GPRESSAVG
ENERGY: 0 3.2028 13.0146 11.3303 0.0000 -10605.2419 1447.8240 0.0000 0.0000 1777.0978 -7352.7724 302.3758 -9129.8702 -7352.7724 302.3758 305.0954 392.3125 30476.6110 305.0954 392.3125
ENERGY: 300000 5.6428 13.3459 9.8387 0.0000 -10614.8905 1427.7389 0.0000 0.0000 1796.4515 -7361.8728 305.6688 -9158.3243 -7400.8438 302.2642 -61.9955 6.5369 30605.7037 156.2518 221.9469
ENERGY: 600000 3.0719 15.8718 8.7901 0.0000 -10625.0845 1421.2277 0.0000 0.0000 1746.6710 -7429.4519 297.1986 -9176.1229 -7406.2836 302.3316 -49.1189 38.5465 30320.5874 38.5883 113.9599
ENERGY: 900000 2.5282 12.9345 12.1387 0.0000 -10632.7621 1443.4292 0.0000 0.0000 1780.2831 -7381.4484 302.9177 -9161.7315 -7401.6293 301.5609 180.7655 211.3551 30602.3026 -0.3703 67.7038
ENERGY: 1200000 4.4967 8.0509 11.8963 0.0000 -10581.2644 1423.3160 0.0000 0.0000 1704.8298 -7428.6748 290.0792 -9133.5046 -7413.0668 300.7414 -173.1418 -51.2448 30513.1085 -65.3286 0.7145
ENERGY: 1500000 1.8784 12.1302 10.2548 0.0000 -10449.4824 1294.8984 0.0000 0.0000 1780.4874 -7349.8331 302.9525 -9130.3205 -7414.1121 300.3444 -1018.3121 -920.6266 30696.2771 -41.8721 29.2876
TCL: Running FEP window  17: Lambda1 0.8000000000000002 Lambda2 0.8500000000000002 [dLambda 0.050000000000000044]
TCL: Setting parameter firsttimestep to 0
TCL: Setting parameter alchLambda to 0.8000000000000002
Info: NONBONDED TABLE R-SQUARED SPACING: 0.0625
Info: NONBONDED TABLE SIZE: 705 POINTS
TCL: Setting parameter alchLambda2 to 0.8500000000000002
Info: NONBONDED TABLE R-SQUARED SPACING: 0.0625
Info: NONBONDED TABLE SIZE: 705 POINTS
TCL: Running for 1500000 steps
ETITLE: TS BOND ANGLE DIHED IMPRP ELECT VDW BOUNDARY MISC KINETIC TOTAL TEMP POTENTIAL TOTALAVG TEMPAVG PRESSURE GPRESSURE VOLUME PRESSAVG GPRESSAVG
ENERGY: 0 1.8784 12.1302 10.2548 0.0000 -10449.8335 1294.7028 0.0000 0.0000 1779.6324 -7351.2348 302.8070 -9130.8672 -7351.2348 302.8070 -995.4664 -910.1114 30696.2771 -995.4664 -910.1114
ENERGY: 300000 5.9566 16.3509 12.0643 0.0000 -10575.7340 1370.1393 0.0000 0.0000 1808.4059 -7362.8172 307.7029 -9171.2230 -7398.2696 302.5929 -521.4763 -420.6744 30390.9596 -550.1693 -480.8178
ENERGY: 600000 3.2380 10.4402 10.5882 0.0000 -10708.2652 1498.0003 0.0000 0.0000 1776.2518 -7409.7469 302.2318 -9185.9986 -7386.3247 302.8461 580.0152 721.4123 30313.6319 -337.7460 -260.2388
ENERGY: 900000 9.5880 8.5231 11.7846 0.0000 -10497.5354 1308.5424 0.0000 0.0000 1773.5923 -7385.5051 301.7793 -9159.0973 -7399.2609 303.6936 -825.1686 -804.9482 29989.3633 -320.8874 -252.7611
ENERGY: 1200000 7.3358 14.1032 9.7017 0.0000 -10638.5284 1444.7792 0.0000 0.0000 1706.0788 -7456.5297 290.2918 -9162.6085 -7413.9973 301.4193 -1.9648 11.0951 30647.5455 -216.7340 -146.3080
ENERGY: 1500000 2.8061 13.0651 9.6331 0.0000 -10706.1365 1424.4546 0.0000 0.0000 1787.9553 -7468.2223 304.2232 -9256.1776 -7409.0430 302.0894 96.3867 143.0505 30209.9995 -127.7280 -58.9477
TCL: Running FEP window  18: Lambda1 0.8500000000000002 Lambda2 0.9000000000000002 [dLambda 0.050000000000000044]
TCL: Setting parameter firsttimestep to 0
TCL: Setting parameter alchLambda to 0.8500000000000002
Info: NONBONDED TABLE R-SQUARED SPACING: 0.0625
Info: NONBONDED TABLE SIZE: 705 POINTS
TCL: Setting parameter alchLambda2 to 0.9000000000000002
Info: NONBONDED TABLE R-SQUARED SPACING: 0.0625
Info: NONBONDED TABLE SIZE: 705 POINTS
TCL: Running for 1500000 steps
ETITLE: TS BOND ANGLE DIHED IMPRP ELECT VDW BOUNDARY MISC KINETIC TOTAL TEMP POTENTIAL TOTALAVG TEMPAVG PRESSURE GPRESSURE VOLUME PRESSAVG GPRESSAVG
ENERGY: 0 2.8061 13.0651 9.6331 0.0000 -10707.2289 1424.6845 0.0000 0.0000 1787.0677 -7469.9724 304.0722 -9257.0401 -7469.9724 304.0722 75.5828 162.2172 30209.9995 75.5828 162.2172
ENERGY: 300000 2.8286 7.6810 9.2821 0.0000 -10579.6362 1428.4914 0.0000 0.0000 1741.2045 -7390.1487 296.2685 -9131.3531 -7459.6204 297.8834 98.9664 181.0431 30714.7355 -77.2144 -7.6270
ENERGY: 600000 3.1351 11.9850 10.0857 0.0000 -10726.5296 1488.0499 0.0000 0.0000 1755.2572 -7458.0167 298.6595 -9213.2739 -7461.3105 297.9057 268.9759 349.8318 31010.0388 30.3783 104.0645
ENERGY: 900000 6.5265 10.3267 11.5699 0.0000 -10589.1126 1422.5097 0.0000 0.0000 1813.2507 -7324.9291 308.5272 -9138.1798 -7445.0953 299.6059 1.9960 43.3833 30803.8785 57.4130 126.5895
ENERGY: 1200000 5.3048 14.7789 9.5473 0.0000 -10656.4806 1419.5287 0.0000 0.0000 1837.0815 -7370.2395 312.5821 -9207.3210 -7452.1179 298.9969 -40.3494 10.2436 30241.0773 8.0532 77.1413
ENERGY: 1500000 4.3993 10.5701 10.1581 0.0000 -10652.6880 1433.7215 0.0000 0.0000 1787.7670 -7406.0720 304.1911 -9193.8390 -7445.3055 299.9638 45.4182 143.6678 30134.2263 -1.3128 77.0774
TCL: Running FEP window  19: Lambda1 0.9000000000000002 Lambda2 0.9500000000000003 [dLambda 0.050000000000000044]
TCL: Setting parameter firsttimestep to 0
TCL: Setting parameter alchLambda to 0.9000000000000002
Info: NONBONDED TABLE R-SQUARED SPACING: 0.0625
Info: NONBONDED TABLE SIZE: 705 POINTS
TCL: Setting parameter alchLambda2 to 0.9500000000000003
Info: NONBONDED TABLE R-SQUARED SPACING: 0.0625
Info: NONBONDED TABLE SIZE: 705 POINTS
TCL: Running for 1500000 steps
ETITLE: TS BOND ANGLE DIHED IMPRP ELECT VDW BOUNDARY MISC KINETIC TOTAL TEMP POTENTIAL TOTALAVG TEMPAVG PRESSURE GPRESSURE VOLUME PRESSAVG GPRESSAVG
ENERGY: 0 4.3993 10.5701 10.1581 0.0000 -10654.2394 1433.9125 0.0000 0.0000 1786.8889 -7408.3106 304.0417 -9195.1994 -7408.3106 304.0417 65.2018 159.8662 30134.2263 65.2018 159.8662
ENERGY: 300000 5.0931 13.8512 10.3884 0.0000 -10472.5719 1309.3805 0.0000 0.0000 1747.2864 -7386.5723 297.3033 -9133.8587 -7407.4351 297.9209 -945.7130 -800.2749 31022.3439 -526.4550 -458.9749
ENERGY: 600000 8.6901 10.4590 8.8366 0.0000 -10647.5727 1456.5638 0.0000 0.0000 1776.0068 -7387.0163 302.1901 -9163.0231 -7453.9131 296.9047 276.0184 263.9989 30541.7708 -301.4949 -240.5953
ENERGY: 900000 1.0826 13.4995 11.6335 0.0000 -10708.3111 1485.5442 0.0000 0.0000 1803.2457 -7393.3057 306.8249 -9196.5513 -7449.7966 299.0702 590.5693 627.3174 30229.4238 -82.4759 -24.8419
ENERGY: 1200000 3.8931 13.7836 9.0384 0.0000 -10705.5324 1403.6152 0.0000 0.0000 1765.8628 -7509.3394 300.4641 -9275.2022 -7458.1523 299.4245 -212.2458 -102.0970 30181.5155 -19.8960 48.4915
ENERGY: 1500000 2.6803 15.0282 9.8642 0.0000 -10701.6737 1475.2807 0.0000 0.0000 1764.9083 -7433.9119 300.3017 -9198.8202 -7447.1478 299.8866 274.7995 378.4137 30296.4927 -58.4863 9.0377
TCL: Running FEP window  20: Lambda1 0.9500000000000003 Lambda2 1.0    [dLambda 0.04999999999999971]
TCL: Setting parameter firsttimestep to 0
TCL: Setting parameter alchLambda to 0.9500000000000003
Info: NONBONDED TABLE R-SQUARED SPACING: 0.0625
Info: NONBONDED TABLE SIZE: 705 POINTS
TCL: Setting parameter alchLambda2 to 1.0
Info: NONBONDED TABLE R-SQUARED SPACING: 0.0625
Info: NONBONDED TABLE SIZE: 705 POINTS
TCL: Running for 1500000 steps
ETITLE: TS BOND ANGLE DIHED IMPRP ELECT VDW BOUNDARY MISC KINETIC TOTAL TEMP POTENTIAL TOTALAVG TEMPAVG PRESSURE GPRESSURE VOLUME PRESSAVG GPRESSAVG
ENERGY: 0 2.6803 15.0282 9.8642 0.0000 -10702.4733 1474.9513 0.0000 0.0000 1764.0044 -7435.9449 300.1479 -9199.9493 -7435.9449 300.1479 301.0967 390.9678 30296.4927 301.0967 390.9678
ENERGY: 300000 2.2549 14.2677 9.3648 0.0000 -10767.7579 1453.8985 0.0000 0.0000 1767.6019 -7520.3700 300.7600 -9287.9719 -7463.8434 301.5713 3.2622 100.0271 30169.0631 183.4686 264.0515
ENERGY: 600000 4.1329 11.7179 10.3077 0.0000 -10611.4256 1434.5448 0.0000 0.0000 1753.4832 -7397.2391 298.3577 -9150.7223 -7435.6474 301.4051 228.8821 353.9673 30569.9636 198.9509 286.9057
ENERGY: 900000 2.5039 12.1508 11.5744 0.0000 -10634.2313 1468.0077 0.0000 0.0000 1735.5871 -7404.4075 295.3126 -9139.9945 -7438.7525 299.5118 478.3956 514.0560 30214.4057 152.4345 231.4432
ENERGY: 1200000 2.3735 14.3763 10.1415 0.0000 -10757.2556 1505.1147 0.0000 0.0000 1734.6173 -7490.6323 295.1476 -9225.2496 -7436.1338 299.2135 514.5706 593.4378 30367.3172 129.2823 201.2771
ENERGY: 1500000 2.5967 11.8564 9.5892 0.0000 -10583.8905 1331.5384 0.0000 0.0000 1782.9256 -7445.3841 303.3674 -9228.3097 -7438.8164 298.8848 -617.9871 -507.9119 30085.9236 105.4958 175.1942
TCL: Exiting due to exit command.
