Info: SIMULATION PARAMETERS:
Info: TIMESTEP               2
Info: NUMBER OF STEPS        0
Info: STEPS PER CYCLE        10
Info: PERIODIC CELL BASIS 1  30.6742 0 0
Info: PERIODIC CELL BASIS 2  0 33.1379 0
Info: PERIODIC CELL BASIS 3  0 0 29.701
Info: PERIODIC CELL CENTER   0 0 0
Info: WRAPPING WATERS AROUND PERIODIC BOUNDARIES ON OUTPUT.
Info: WRAPPING ALL CLUSTERS AROUND PERIODIC BOUNDARIES ON OUTPUT.
Info: FIRST LDB TIMESTEP     50
Info: LAST LDB TIMESTEP     -1
Info: HOM BACKGROUND SCALING 1
Info: PME BACKGROUND SCALING 1
Info: MIN ATOMS PER PATCH    40
Info: EMPTY PATCH LOAD       40 ATOMS
Info: VELOCITY FILE          mobley_6497672_equil.vel
Info: CENTER OF MASS MOVING INITIALLY? NO
Info: DIELECTRIC             1
Info: EXCLUDE                SCALED ONE-FOUR
Info: 1-4 ELECTROSTATICS SCALED BY 0.833333
Info: MODIFIED 1-4 VDW PARAMETERS WILL BE USED
Info: DCD FILENAME           mobley_6497672_prod.dcd
Info: DCD FREQUENCY          100000
Info: DCD FIRST STEP         100000
Info: DCD FILE WILL CONTAIN UNIT CELL DATA
Info: XST FILENAME           mobley_6497672_prod.xst
Info: XST FREQUENCY          100000
Info: NO VELOCITY DCD OUTPUT
Info: NO FORCE DCD OUTPUT
Info: OUTPUT FILENAME        mobley_6497672_prod
Info: BINARY OUTPUT FILES WILL BE USED
Info: RESTART FILENAME       mobley_6497672_prod.restart
Info: RESTART FREQUENCY      100000
Info: BINARY RESTART FILES WILL BE USED
Info: CUTOFF                 9
Info: PAIRLIST DISTANCE      11
Info: PAIRLIST SHRINK RATE   0.01
Info: PAIRLIST GROW RATE     0.01
Info: PAIRLIST TRIGGER       0.3
Info: PAIRLISTS PER CYCLE    2
Info: PAIRLISTS ENABLED
Info: MARGIN                 2
Info: HYDROGEN GROUP CUTOFF  2.5
Info: PATCH DIMENSION        15.5
Info: ENERGY OUTPUT STEPS    100000
Info: ENERGY EVALUATION STEPS    100000
Info: OUTPUT ENERGY PRECISION 4
Info: CROSSTERM ENERGY INCLUDED IN DIHEDRAL
Info: TIMING OUTPUT STEPS    1000000
Info: PRESSURE OUTPUT STEPS  100000
Info: ALCHEMICAL FEP ON
Info: FEP CURRENT LAMBDA VALUE     0
Info: FEP COMPARISON LAMBDA VALUE  0.05
Info: FEP INTRA-ALCHEMICAL NON-BONDED INTERACTIONS WILL BE RETAINED
Info: FEP INTRA-ALCHEMICAL BONDED INTERACTIONS WILL BE RETAINED
Info: FEP VDW SHIFTING COEFFICIENT 5
Info: FEP ELEC. ACTIVE FOR ANNIHILATED PARTICLES BETWEEN LAMBDA = 0 AND LAMBDA = 0.5
Info: FEP ELEC. ACTIVE FOR EXNIHILATED PARTICLES BETWEEN LAMBDA = 0.5 AND LAMBDA = 1
Info: FEP VDW ACTIVE FOR ANNIHILATED PARTICLES BETWEEN LAMBDA = 0 AND LAMBDA = 1
Info: FEP VDW ACTIVE FOR EXNIHILATED PARTICLES BETWEEN LAMBDA = 0 AND LAMBDA = 1
Info: FEP BOND ACTIVE FOR ANNIHILATED PARTICLES BETWEEN LAMBDA = 1 AND LAMBDA = 1
Info: FEP BOND ACTIVE FOR EXNIHILATED PARTICLES BETWEEN LAMBDA = 0 AND LAMBDA = 0
Info: LANGEVIN DYNAMICS ACTIVE
Info: LANGEVIN TEMPERATURE   300
Info: LANGEVIN USING BBK INTEGRATOR
Info: LANGEVIN DAMPING COEFFICIENT IS 1 INVERSE PS
Info: LANGEVIN DYNAMICS APPLIED TO HYDROGENS
Info: LANGEVIN PISTON PRESSURE CONTROL ACTIVE
Info:        TARGET PRESSURE IS 1.01325 BAR
Info:     OSCILLATION PERIOD IS 50 FS
Info:             DECAY TIME IS 25 FS
Info:     PISTON TEMPERATURE IS 300 K
Info:       PRESSURE CONTROL IS GROUP-BASED
Info:    INITIAL STRAIN RATE IS 0.000295368 0.000295368 0.000295368
Info:       CELL FLUCTUATION IS ISOTROPIC
Info: PARTICLE MESH EWALD (PME) ACTIVE
Info: PME TOLERANCE               1e-06
Info: PME EWALD COEFFICIENT       0.348832
Info: PME INTERPOLATION ORDER     4
Info: PME GRID DIMENSIONS         32 36 32
Info: PME MAXIMUM GRID SPACING    1
Info: PME CALCULATION WILL BE PERFORMED ON GPU
Info: FULL ELECTROSTATIC EVALUATION FREQUENCY      2
Info: USING VERLET I (r-RESPA) MTS SCHEME.
Info: C1 SPLITTING OF LONG RANGE ELECTROSTATICS
Info: PLACING ATOMS IN PATCHES BY HYDROGEN GROUPS
Info: RIGID BONDS TO HYDROGEN : ALL
Info:         ERROR TOLERANCE : 1e-08
Info:          MAX ITERATIONS : 100
Info: RIGID WATER USING SETTLE ALGORITHM
Info: RANDOM NUMBER SEED     1743681072
Info: USE HYDROGEN BONDS?    NO
Info: Using AMBER format force field!
Info: AMBER PARM FILE        mobley_6497672.prmtop
Info: COORDINATE PDB         mobley_6497672.pdb
Info: Exclusions will be read from PARM file!
Info: SCNB (VDW SCALING)     2
Info: USING ARITHMETIC MEAN TO COMBINE L-J SIGMA PARAMETERS
Info: BINARY COORDINATES     mobley_6497672_equil.coor
Info: SUMMARY OF PARAMETERS:
Info: 10 BONDS
Info: 11 ANGLES
Info:   11 HARMONIC
Info:   0 COSINE-BASED
Info: 5 DIHEDRAL
Info: 0 IMPROPER
Info: 0 CROSSTERM
Info: 0 VDW
Info: 36 VDW_PAIRS
Info: 0 NBTHOLE_PAIRS
Info: To read alchdata from file: mobley_6497672.pdb
Info: To read alchflag data from column: 5
Info: STRUCTURE SUMMARY:
Info: 2915 ATOMS
Info: 2914 BONDS
Info: 15 ANGLES
Info: 17 DIHEDRALS
Info: 0 IMPROPERS
Info: 0 CROSSTERMS
Info: 2943 EXCLUSIONS
Info: 2910 RIGID BONDS
Info: ALCH: 0 ATOMS TO DISAPPEAR IN FINAL STATE
Info: ALCH: 11 ATOMS TO APPEAR IN FINAL STATE
Info: 5835 DEGREES OF FREEDOM
Info: 973 HYDROGEN GROUPS
Info: 4 ATOMS IN LARGEST HYDROGEN GROUP
Info: 973 MIGRATION GROUPS
Info: 4 ATOMS IN LARGEST MIGRATION GROUP
Info: TOTAL MASS = 17509.6 amu
Info: TOTAL CHARGE = 3.72529e-08 e
Info: MASS DENSITY = 0.963088 g/cm^3
Info: ATOM DENSITY = 0.0965539 atoms/A^3
Info: ADDED 0 IMPLICIT EXCLUSIONS
Info: NONBONDED TABLE R-SQUARED SPACING: 0.0625
Info: NONBONDED TABLE SIZE: 705 POINTS
Info: REMOVING COM VELOCITY 0.0969317 -0.0888436 0.0660168
Info: Use 3D box decompostion in PME FFT.
Info: Updated CUDA force table with 4096 elements.
Info: Updated CUDA LJ table with 8 x 8 elements.
Info: Found 12 unique exclusion lists needing 20 bytes
TCL: Running for 1500000 steps
ETITLE: TS BOND ANGLE DIHED IMPRP ELECT VDW BOUNDARY MISC KINETIC TOTAL TEMP POTENTIAL TOTALAVG TEMPAVG PRESSURE GPRESSURE VOLUME PRESSAVG GPRESSAVG
ENERGY: 0 0.2120 2.4746 0.8365 0.0000 -10390.4831 1343.8771 0.0000 0.0000 1720.5020 -7322.5808 296.7595 -9043.0828 -7322.5808 296.7595 -398.1252 -320.5813 30190.3900 -398.1252 -320.5813
ENERGY: 300000 2.2075 2.6478 0.9272 0.0000 -10464.1870 1314.0203 0.0000 0.0000 1762.9589 -7381.4253 304.0827 -9144.3842 -7399.7792 297.9982 -882.7443 -855.1509 30043.5719 -534.0919 -493.5408
ENERGY: 600000 0.2533 3.1861 0.4636 0.0000 -10492.0402 1357.1664 0.0000 0.0000 1799.8510 -7331.1198 310.4460 -9130.9708 -7394.2833 300.0684 -539.1043 -447.2243 29983.9199 -298.0607 -254.5213
ENERGY: 900000 2.0148 4.5211 1.6231 0.0000 -10638.0400 1465.8573 0.0000 0.0000 1673.4190 -7490.6046 288.6385 -9164.0236 -7410.2379 297.6824 523.2118 534.5216 29498.9707 -121.7952 -82.7815
ENERGY: 1200000 1.2649 7.6612 0.8422 0.0000 -10648.1894 1468.0436 0.0000 0.0000 1807.3172 -7363.0603 311.7338 -9170.3775 -7410.3339 298.3840 -11.8455 55.9269 30303.0828 -72.5478 -26.0023
ENERGY: 1500000 1.3828 4.9420 2.0703 0.0000 -10575.8069 1404.3255 0.0000 0.0000 1752.0402 -7411.0461 302.1994 -9163.0863 -7408.9299 299.5083 -137.1420 -125.5664 29788.9648 -51.2360 -8.9973
TCL: Running FEP window   2: Lambda1 0.05   Lambda2 0.1    [dLambda 0.05  ]
TCL: Setting parameter firsttimestep to 0
TCL: Setting parameter alchLambda to 0.05
Info: NONBONDED TABLE R-SQUARED SPACING: 0.0625
Info: NONBONDED TABLE SIZE: 705 POINTS
TCL: Setting parameter alchLambda2 to 0.1
Info: NONBONDED TABLE R-SQUARED SPACING: 0.0625
Info: NONBONDED TABLE SIZE: 705 POINTS
TCL: Running for 1500000 steps
ETITLE: TS BOND ANGLE DIHED IMPRP ELECT VDW BOUNDARY MISC KINETIC TOTAL TEMP POTENTIAL TOTALAVG TEMPAVG PRESSURE GPRESSURE VOLUME PRESSAVG GPRESSAVG
ENERGY: 0 1.3828 4.9420 2.0703 0.0000 -10575.8079 1404.8788 0.0000 0.0000 1751.1456 -7411.3884 302.0451 -9162.5340 -7411.3884 302.0451 -195.8037 -122.3307 29788.9648 -195.8037 -122.3307
ENERGY: 300000 0.8857 3.0930 3.3512 0.0000 -10423.0956 1323.9893 0.0000 0.0000 1779.4967 -7312.2798 306.9352 -9091.7765 -7344.5019 304.2921 -802.0922 -701.9229 30070.7722 -230.1351 -161.8466
ENERGY: 600000 5.4836 2.4422 1.1417 0.0000 -10667.1719 1448.3377 0.0000 0.0000 1775.0596 -7434.7070 306.1699 -9209.7667 -7374.7339 303.3748 -138.4328 -70.2164 30107.6458 -333.5408 -273.5053
ENERGY: 900000 2.0689 1.9115 0.9586 0.0000 -10553.1439 1437.8026 0.0000 0.0000 1741.8061 -7368.5962 300.4342 -9110.4023 -7388.0062 302.5652 -41.7855 14.5976 30231.2864 -249.3925 -187.3756
ENERGY: 1200000 0.4399 3.1377 0.9227 0.0000 -10535.9969 1391.4627 0.0000 0.0000 1731.0909 -7408.9429 298.5860 -9140.0338 -7406.8453 300.4277 -273.5146 -210.6107 29826.1530 -243.9335 -186.5078
ENERGY: 1500000 0.6807 3.0334 3.1145 0.0000 -10517.7448 1346.9507 0.0000 0.0000 1700.8108 -7463.1548 293.3631 -9163.9656 -7402.8415 300.4429 -725.1863 -615.4323 29933.1874 -243.3216 -179.7529
TCL: Running FEP window   3: Lambda1 0.1    Lambda2 0.15000000000000002 [dLambda 0.05000000000000002]
TCL: Setting parameter firsttimestep to 0
TCL: Setting parameter alchLambda to 0.1
Info: NONBONDED TABLE R-SQUARED SPACING: 0.0625
Info: NONBONDED TABLE SIZE: 705 POINTS
TCL: Setting parameter alchLambda2 to 0.15000000000000002
Info: NONBONDED TABLE R-SQUARED SPACING: 0.0625
Info: NONBONDED TABLE SIZE: 705 POINTS
TCL: Running for 1500000 steps
ETITLE: TS BOND ANGLE DIHED IMPRP ELECT VDW BOUNDARY MISC KINETIC TOTAL TEMP POTENTIAL TOTALAVG TEMPAVG PRESSURE GPRESSURE VOLUME PRESSAVG GPRESSAVG
ENERGY: 0 0.6807 3.0334 3.1145 0.0000 -10517.7446 1347.1413 0.0000 0.0000 1699.9604 -7463.8143 293.2165 -9163.7747 -7463.8143 293.2165 -702.9055 -612.0432 29933.1874 -702.9055 -612.0432
ENERGY: 300000 2.5554 4.6375 0.4072 0.0000 -10538.4417 1438.6705 0.0000 0.0000 1754.9985 -7337.1726 302.7096 -9092.1711 -7403.4667 298.6806 199.7240 303.9859 30137.8427 44.7998 124.3328
ENERGY: 600000 1.2844 3.6488 0.5775 0.0000 -10670.6108 1428.8831 0.0000 0.0000 1728.9408 -7507.2761 298.2151 -9236.2169 -7417.2362 298.9098 -154.0580 -113.6419 29573.8668 84.0019 149.6820
ENERGY: 900000 1.1365 0.9384 0.2446 0.0000 -10628.5841 1460.8031 0.0000 0.0000 1724.5306 -7440.9310 297.4544 -9165.4615 -7409.5300 298.2822 233.7398 358.8942 29697.0981 49.6373 124.7697
ENERGY: 1200000 1.4408 4.2022 0.7257 0.0000 -10587.3113 1386.1468 0.0000 0.0000 1783.6059 -7411.1899 307.6440 -9194.7958 -7418.0633 298.6594 -522.2311 -484.1684 30373.3399 -1.6720 70.6969
ENERGY: 1500000 0.4440 2.1341 1.2593 0.0000 -10565.6057 1421.6742 0.0000 0.0000 1711.7743 -7428.3198 295.2542 -9140.0941 -7420.7155 298.5797 -29.6734 -34.8302 29942.2755 37.3880 107.0731
TCL: Running FEP window   4: Lambda1 0.15000000000000002 Lambda2 0.2    [dLambda 0.04999999999999999]
TCL: Setting parameter firsttimestep to 0
TCL: Setting parameter alchLambda to 0.15000000000000002
Info: NONBONDED TABLE R-SQUARED SPACING: 0.0625
Info: NONBONDED TABLE SIZE: 705 POINTS
TCL: Setting parameter alchLambda2 to 0.2
Info: NONBONDED TABLE R-SQUARED SPACING: 0.0625
Info: NONBONDED TABLE SIZE: 705 POINTS
TCL: Running for 1500000 steps
ETITLE: TS BOND ANGLE DIHED IMPRP ELECT VDW BOUNDARY MISC KINETIC TOTAL TEMP POTENTIAL TOTALAVG TEMPAVG PRESSURE GPRESSURE VOLUME PRESSAVG GPRESSAVG
ENERGY: 0 0.4440 2.1341 1.2593 0.0000 -10565.6075 1423.1213 0.0000 0.0000 1710.9365 -7427.7123 295.1097 -9138.6488 -7427.7123 295.1097 -109.0341 -29.8123 29942.2755 -109.0341 -29.8123
ENERGY: 300000 0.1036 6.4363 1.5601 0.0000 -10503.5899 1357.7725 0.0000 0.0000 1768.2457 -7369.4717 304.9946 -9137.7174 -7399.2550 301.6129 -581.7283 -504.2615 29942.0842 -245.8013 -165.5818
ENERGY: 600000 0.5097 6.0504 0.7090 0.0000 -10505.5815 1369.4019 0.0000 0.0000 1709.9761 -7418.9344 294.9440 -9128.9106 -7427.5520 297.8084 -198.9500 -169.7727 29783.9232 -232.7621 -155.4088
ENERGY: 900000 1.8236 4.3971 0.9522 0.0000 -10574.9854 1413.8159 0.0000 0.0000 1688.9747 -7465.0219 291.3216 -9153.9966 -7430.2387 297.6920 66.9591 173.3047 29665.0515 -91.6852 -19.4133
ENERGY: 1200000 0.7854 6.3247 3.9080 0.0000 -10532.1160 1404.1859 0.0000 0.0000 1732.5246 -7384.3874 298.8333 -9116.9120 -7415.0346 297.9049 -5.6405 65.3657 29777.1913 -111.7108 -41.9087
ENERGY: 1500000 0.9870 4.0099 1.2666 0.0000 -10577.1696 1417.9889 0.0000 0.0000 1687.8761 -7465.0411 291.1321 -9152.9172 -7413.4075 298.0739 -259.7537 -243.0887 30337.6367 -45.6872 15.1181
TCL: Running FEP window   5: Lambda1 0.2    Lambda2 0.25   [dLambda 0.04999999999999999]
TCL: Setting parameter firsttimestep to 0
TCL: Setting parameter alchLambda to 0.2
Info: NONBONDED TABLE R-SQUARED SPACING: 0.0625
Info: NONBONDED TABLE SIZE: 705 POINTS
TCL: Setting parameter alchLambda2 to 0.25
Info: NONBONDED TABLE R-SQUARED SPACING: 0.0625
Info: NONBONDED TABLE SIZE: 705 POINTS
TCL: Running for 1500000 steps
ETITLE: TS BOND ANGLE DIHED IMPRP ELECT VDW BOUNDARY MISC KINETIC TOTAL TEMP POTENTIAL TOTALAVG TEMPAVG PRESSURE GPRESSURE VOLUME PRESSAVG GPRESSAVG
ENERGY: 0 0.9870 4.0099 1.2666 0.0000 -10577.1704 1418.3459 0.0000 0.0000 1687.0508 -7465.5102 290.9897 -9152.5610 -7465.5102 290.9897 -335.7720 -237.4689 30337.6367 -335.7720 -237.4689
ENERGY: 300000 0.3280 1.7328 2.1910 0.0000 -10587.6311 1380.2158 0.0000 0.0000 1738.2196 -7464.9439 299.8156 -9203.1635 -7450.0653 299.8184 -594.8056 -487.7093 30149.8518 -242.9478 -142.6868
ENERGY: 600000 1.6580 3.1722 2.0270 0.0000 -10542.8130 1400.6646 0.0000 0.0000 1733.6944 -7401.5969 299.0350 -9135.2913 -7441.4673 298.8558 -281.5924 -196.3184 29946.1895 -134.9305 -57.5787
ENERGY: 900000 1.0962 2.4525 0.6604 0.0000 -10629.4112 1487.0000 0.0000 0.0000 1722.2390 -7415.9632 297.0591 -9138.2021 -7424.4064 299.8767 574.3143 623.1178 29928.3529 -100.5443 -32.8985
ENERGY: 1200000 1.4907 2.1569 0.7314 0.0000 -10447.0382 1362.3981 0.0000 0.0000 1784.7722 -7295.4890 307.8451 -9080.2612 -7400.9517 300.5480 -253.9748 -235.7594 29818.1771 -185.3152 -119.7970
ENERGY: 1500000 0.7699 1.8226 1.0228 0.0000 -10546.4847 1445.5639 0.0000 0.0000 1766.3629 -7330.9426 304.6698 -9097.3055 -7389.7689 301.3446 288.9031 287.2981 29866.7153 -180.6545 -115.8186
TCL: Running FEP window   6: Lambda1 0.25   Lambda2 0.3    [dLambda 0.04999999999999999]
TCL: Setting parameter firsttimestep to 0
TCL: Setting parameter alchLambda to 0.25
Info: NONBONDED TABLE R-SQUARED SPACING: 0.0625
Info: NONBONDED TABLE SIZE: 705 POINTS
TCL: Setting parameter alchLambda2 to 0.3
Info: NONBONDED TABLE R-SQUARED SPACING: 0.0625
Info: NONBONDED TABLE SIZE: 705 POINTS
TCL: Running for 1500000 steps
ETITLE: TS BOND ANGLE DIHED IMPRP ELECT VDW BOUNDARY MISC KINETIC TOTAL TEMP POTENTIAL TOTALAVG TEMPAVG PRESSURE GPRESSURE VOLUME PRESSAVG GPRESSAVG
ENERGY: 0 0.7699 1.8226 1.0228 0.0000 -10546.4848 1445.5500 0.0000 0.0000 1765.5002 -7331.8193 304.5210 -9097.3196 -7331.8193 304.5210 207.4103 290.5176 29866.7153 207.4103 290.5176
ENERGY: 300000 0.4620 2.3076 1.8248 0.0000 -10578.4453 1465.1284 0.0000 0.0000 1797.9075 -7310.8149 310.1108 -9108.7225 -7362.5064 303.5014 533.1977 633.7787 29626.6167 -3.3365 76.7188
ENERGY: 600000 0.5670 6.4076 0.8102 0.0000 -10664.3805 1436.0349 0.0000 0.0000 1718.5313 -7502.0297 296.4196 -9220.5610 -7371.3945 302.2009 66.4207 145.4614 29524.3342 95.0172 178.9557
ENERGY: 900000 0.1899 2.2558 1.6869 0.0000 -10526.0761 1343.7681 0.0000 0.0000 1769.2021 -7408.9733 305.1596 -9178.1754 -7381.6743 302.6932 -660.2604 -623.9983 29798.5181 37.4790 113.7539
ENERGY: 1200000 1.7071 3.6066 0.5624 0.0000 -10525.2418 1341.6521 0.0000 0.0000 1762.2622 -7415.4515 303.9625 -9177.7136 -7378.3492 302.8417 -781.3890 -780.6178 29959.2473 -27.5450 45.3939
ENERGY: 1500000 1.5177 4.1270 2.0851 0.0000 -10523.8536 1379.7388 0.0000 0.0000 1719.9975 -7416.3876 296.6725 -9136.3851 -7376.2116 302.8560 -316.1222 -267.0976 29848.3897 -75.0278 -2.9813
TCL: Running FEP window   7: Lambda1 0.3    Lambda2 0.35   [dLambda 0.04999999999999999]
TCL: Setting parameter firsttimestep to 0
TCL: Setting parameter alchLambda to 0.3
Info: NONBONDED TABLE R-SQUARED SPACING: 0.0625
Info: NONBONDED TABLE SIZE: 705 POINTS
TCL: Setting parameter alchLambda2 to 0.35
Info: NONBONDED TABLE R-SQUARED SPACING: 0.0625
Info: NONBONDED TABLE SIZE: 705 POINTS
TCL: Running for 1500000 steps
ETITLE: TS BOND ANGLE DIHED IMPRP ELECT VDW BOUNDARY MISC KINETIC TOTAL TEMP POTENTIAL TOTALAVG TEMPAVG PRESSURE GPRESSURE VOLUME PRESSAVG GPRESSAVG
ENERGY: 0 1.5177 4.1270 2.0851 0.0000 -10523.8539 1379.8535 0.0000 0.0000 1719.1102 -7417.1604 296.5195 -9136.2707 -7417.1604 296.5195 -347.9877 -262.4198 29848.3897 -347.9877 -262.4198
ENERGY: 300000 1.6183 7.0273 0.1558 0.0000 -10471.3610 1351.2280 0.0000 0.0000 1752.0577 -7359.2740 302.2024 -9111.3316 -7371.3744 301.1696 -745.5903 -706.6334 30838.4950 -350.0614 -308.9388
ENERGY: 600000 0.1490 4.2941 0.9263 0.0000 -10563.3961 1425.6052 0.0000 0.0000 1778.8828 -7353.5388 306.8293 -9132.4216 -7401.7635 298.4771 50.1897 106.8821 30003.9550 -195.3275 -158.7204
ENERGY: 900000 0.3573 4.3649 1.4361 0.0000 -10634.1122 1433.5887 0.0000 0.0000 1762.4917 -7431.8735 304.0021 -9194.3652 -7410.8981 299.9880 51.4046 145.6514 29462.3162 22.5688 61.4119
ENERGY: 1200000 2.2535 3.4333 1.1834 0.0000 -10421.7137 1306.5036 0.0000 0.0000 1702.9671 -7405.3729 293.7351 -9108.3399 -7402.0092 299.3397 -860.6046 -808.1730 29911.4774 -123.8385 -72.8314
ENERGY: 1500000 1.5186 4.8647 1.6216 0.0000 -10628.6967 1417.8501 0.0000 0.0000 1738.7303 -7464.1114 299.9037 -9202.8417 -7417.9345 298.2699 -220.0439 -146.4930 29869.5020 -120.7714 -70.3037
TCL: Running FEP window   8: Lambda1 0.35   Lambda2 0.39999999999999997 [dLambda 0.04999999999999999]
TCL: Setting parameter firsttimestep to 0
TCL: Setting parameter alchLambda to 0.35
Info: NONBONDED TABLE R-SQUARED SPACING: 0.0625
Info: NONBONDED TABLE SIZE: 705 POINTS
TCL: Setting parameter alchLambda2 to 0.39999999999999997
Info: NONBONDED TABLE R-SQUARED SPACING: 0.0625
Info: NONBONDED TABLE SIZE: 705 POINTS
TCL: Running for 1500000 steps
ETITLE: TS BOND ANGLE DIHED IMPRP ELECT VDW BOUNDARY MISC KINETIC TOTAL TEMP POTENTIAL TOTALAVG TEMPAVG PRESSURE GPRESSURE VOLUME PRESSAVG GPRESSAVG
ENERGY: 0 1.5186 4.8647 1.6216 0.0000 -10628.6981 1418.4068 0.0000 0.0000 1737.8086 -7464.4778 299.7447 -9202.2864 -7464.4778 299.7447 -237.0723 -137.8821 29869.5020 -237.0723 -137.8821
ENERGY: 300000 1.2810 6.0359 0.9135 0.0000 -10466.5508 1431.6752 0.0000 0.0000 1746.5043 -7280.1409 301.2445 -9026.6452 -7389.4783 301.5423 62.3592 128.2562 30684.2582 -282.3133 -209.1988
ENERGY: 600000 0.7062 2.0475 0.6697 0.0000 -10581.5740 1426.2093 0.0000 0.0000 1723.1753 -7428.7659 297.2207 -9151.9412 -7398.9159 300.8157 88.3102 130.7025 29713.3833 -116.1824 -45.9869
ENERGY: 900000 0.3411 2.9730 0.9007 0.0000 -10412.0698 1391.6218 0.0000 0.0000 1728.9798 -7287.2534 298.2218 -9016.2332 -7385.9447 300.4399 13.5272 46.4806 30360.7957 -110.0544 -50.0985
ENERGY: 1200000 0.6435 2.3519 0.4125 0.0000 -10489.8541 1384.3385 0.0000 0.0000 1717.0510 -7385.0568 296.1643 -9102.1078 -7380.0563 300.7429 -295.7874 -270.2987 30269.8298 -122.9071 -66.5210
ENERGY: 1500000 2.0572 1.6711 0.6148 0.0000 -10683.5360 1508.6170 0.0000 0.0000 1737.1497 -7433.4261 299.6310 -9170.5758 -7385.2084 299.9008 823.7231 948.9610 29301.7954 -107.9926 -45.5806
TCL: Running FEP window   9: Lambda1 0.39999999999999997 Lambda2 0.44999999999999996 [dLambda 0.04999999999999999]
TCL: Setting parameter firsttimestep to 0
TCL: Setting parameter alchLambda to 0.39999999999999997
Info: NONBONDED TABLE R-SQUARED SPACING: 0.0625
Info: NONBONDED TABLE SIZE: 705 POINTS
TCL: Setting parameter alchLambda2 to 0.44999999999999996
Info: NONBONDED TABLE R-SQUARED SPACING: 0.0625
Info: NONBONDED TABLE SIZE: 705 POINTS
TCL: Running for 1500000 steps
ETITLE: TS BOND ANGLE DIHED IMPRP ELECT VDW BOUNDARY MISC KINETIC TOTAL TEMP POTENTIAL TOTALAVG TEMPAVG PRESSURE GPRESSURE VOLUME PRESSAVG GPRESSAVG
ENERGY: 0 2.0572 1.6711 0.6148 0.0000 -10683.5360 1508.6096 0.0000 0.0000 1736.2692 -7434.3141 299.4791 -9170.5833 -7434.3141 299.4791 869.1608 951.3169 29301.7954 869.1608 951.3169
ENERGY: 300000 2.1015 2.7677 0.9733 0.0000 -10576.5560 1386.7221 0.0000 0.0000 1701.5217 -7482.4697 293.4857 -9183.9914 -7411.0278 303.4872 -418.9529 -306.4623 29548.9575 17.7322 83.4564
ENERGY: 600000 1.1158 2.5610 0.8028 0.0000 -10573.7608 1414.6214 0.0000 0.0000 1768.8528 -7385.8070 305.0993 -9154.6598 -7424.9649 302.5001 58.9424 67.1677 29996.7967 -115.2307 -58.5140
ENERGY: 900000 0.6215 4.1677 0.7885 0.0000 -10631.5514 1477.1268 0.0000 0.0000 1771.6470 -7377.2000 305.5813 -9148.8470 -7421.4717 302.1447 346.6284 396.1350 30021.4718 -118.1689 -60.7293
ENERGY: 1200000 1.2631 2.5219 1.0958 0.0000 -10708.9902 1574.9062 0.0000 0.0000 1708.1230 -7421.0801 294.6244 -9129.2031 -7422.7954 300.7394 1306.9708 1334.6106 29485.4858 47.2165 99.6832
ENERGY: 1500000 0.8237 4.3612 0.9690 0.0000 -10640.0844 1483.7777 0.0000 0.0000 1756.0228 -7394.1300 302.8863 -9150.1528 -7420.4139 300.8847 632.0856 645.0258 29752.5870 73.0110 120.0766
TCL: Running FEP window  10: Lambda1 0.44999999999999996 Lambda2 0.49999999999999994 [dLambda 0.04999999999999999]
TCL: Setting parameter firsttimestep to 0
TCL: Setting parameter alchLambda to 0.44999999999999996
Info: NONBONDED TABLE R-SQUARED SPACING: 0.0625
Info: NONBONDED TABLE SIZE: 705 POINTS
TCL: Setting parameter alchLambda2 to 0.49999999999999994
Info: NONBONDED TABLE R-SQUARED SPACING: 0.0625
Info: NONBONDED TABLE SIZE: 705 POINTS
TCL: Running for 1500000 steps
ETITLE: TS BOND ANGLE DIHED IMPRP ELECT VDW BOUNDARY MISC KINETIC TOTAL TEMP POTENTIAL TOTALAVG TEMPAVG PRESSURE GPRESSURE VOLUME PRESSAVG GPRESSAVG
ENERGY: 0 0.8237 4.3612 0.9690 0.0000 -10640.0836 1484.3309 0.0000 0.0000 1755.1902 -7394.4086 302.7427 -9149.5988 -7394.4086 302.7427 568.3993 652.4372 29752.5870 568.3993 652.4372
ENERGY: 300000 3.0489 2.7459 1.3450 0.0000 -10510.1347 1397.8998 0.0000 0.0000 1762.1436 -7342.9514 303.9421 -9105.0950 -7373.7742 304.3818 -205.3656 -164.3123 30376.2097 122.8012 170.9479
ENERGY: 600000 0.7524 6.7926 2.3924 0.0000 -10390.2006 1370.8479 0.0000 0.0000 1736.0715 -7273.3438 299.4450 -9009.4153 -7376.8294 301.0743 -216.0898 -136.4120 30261.1639 -13.8225 45.3940
ENERGY: 900000 0.5235 4.6102 2.0360 0.0000 -10577.6300 1444.8100 0.0000 0.0000 1738.2399 -7387.4104 299.8191 -9125.6502 -7393.9604 301.0073 263.4507 332.1737 29982.7393 148.7048 208.7281
ENERGY: 1200000 1.2632 5.0895 0.8687 0.0000 -10527.2640 1428.2979 0.0000 0.0000 1744.2524 -7347.4924 300.8561 -9091.7447 -7398.1087 300.5670 206.8231 256.7312 29822.6368 129.9848 193.8373
ENERGY: 1500000 0.8927 3.5998 0.6458 0.0000 -10689.6815 1495.6973 0.0000 0.0000 1770.3725 -7418.4735 305.3614 -9188.8459 -7392.1999 300.6104 335.5021 368.2309 30433.1484 50.1841 114.1400
TCL: Running FEP window  11: Lambda1 0.49999999999999994 Lambda2 0.5499999999999999 [dLambda 0.04999999999999999]
TCL: Setting parameter firsttimestep to 0
TCL: Setting parameter alchLambda to 0.49999999999999994
Info: NONBONDED TABLE R-SQUARED SPACING: 0.0625
Info: NONBONDED TABLE SIZE: 705 POINTS
TCL: Setting parameter alchLambda2 to 0.5499999999999999
Info: NONBONDED TABLE R-SQUARED SPACING: 0.0625
Info: NONBONDED TABLE SIZE: 705 POINTS
TCL: Running for 1500000 steps
ETITLE: TS BOND ANGLE DIHED IMPRP ELECT VDW BOUNDARY MISC KINETIC TOTAL TEMP POTENTIAL TOTALAVG TEMPAVG PRESSURE GPRESSURE VOLUME PRESSAVG GPRESSAVG
ENERGY: 0 0.8927 3.5998 0.6458 0.0000 -10689.6833 1496.4938 0.0000 0.0000 1769.4795 -7418.5719 305.2074 -9188.0513 -7418.5719 305.2074 302.2219 380.3611 30433.1484 302.2219 380.3611
ENERGY: 300000 1.3101 3.4755 0.9396 0.0000 -10531.8035 1375.0476 0.0000 0.0000 1766.9223 -7384.1084 304.7663 -9151.0307 -7422.4603 301.5968 -266.1357 -280.2625 30030.5259 -112.1765 -72.4622
ENERGY: 600000 1.2922 1.9388 1.0518 0.0000 -10510.0586 1378.3105 0.0000 0.0000 1735.2650 -7392.2003 299.3059 -9127.4653 -7391.5164 303.0122 -262.6235 -125.1292 29954.7104 38.9503 100.4914
ENERGY: 900000 0.3245 5.2328 0.4589 0.0000 -10508.4182 1438.5669 0.0000 0.0000 1760.2157 -7303.6194 303.6095 -9063.8351 -7392.1732 302.3176 338.5086 374.0232 30129.5726 103.2906 157.9294
ENERGY: 1200000 0.8732 1.8834 1.9403 0.0000 -10504.6289 1388.3314 0.0000 0.0000 1717.5681 -7394.0326 296.2535 -9111.6007 -7410.9564 300.9304 -127.1715 -104.3421 29938.6388 10.0372 67.9764
ENERGY: 1500000 1.0987 5.5435 0.8400 0.0000 -10671.5978 1458.6260 0.0000 0.0000 1729.3642 -7476.1254 298.2881 -9205.4896 -7424.4643 300.1937 -29.9405 -8.5575 30327.6267 -20.1002 37.3377
TCL: Running FEP window  12: Lambda1 0.5499999999999999 Lambda2 0.6    [dLambda 0.050000000000000044]
TCL: Setting parameter firsttimestep to 0
TCL: Setting parameter alchLambda to 0.5499999999999999
Info: NONBONDED TABLE R-SQUARED SPACING: 0.0625
Info: NONBONDED TABLE SIZE: 705 POINTS
TCL: Setting parameter alchLambda2 to 0.6
Info: NONBONDED TABLE R-SQUARED SPACING: 0.0625
Info: NONBONDED TABLE SIZE: 705 POINTS
TCL: Running for 1500000 steps
ETITLE: TS BOND ANGLE DIHED IMPRP ELECT VDW BOUNDARY MISC KINETIC TOTAL TEMP POTENTIAL TOTALAVG TEMPAVG PRESSURE GPRESSURE VOLUME PRESSAVG GPRESSAVG
ENERGY: 0 1.0987 5.5435 0.8400 0.0000 -10671.6170 1458.7407 0.0000 0.0000 1728.4841 -7476.9100 298.1363 -9205.3942 -7476.9100 298.1363 -87.5419 0.5937 30327.6267 -87.5419 0.5937
ENERGY: 300000 0.6400 4.4168 1.8996 0.0000 -10562.8943 1395.8721 0.0000 0.0000 1736.8959 -7423.1700 299.5872 -9160.0659 -7423.4991 298.6434 -115.1445 -95.9306 29663.8331 -290.5393 -236.9485
ENERGY: 600000 2.7991 2.3016 0.7124 0.0000 -10408.5167 1287.4347 0.0000 0.0000 1756.7587 -7358.5103 303.0133 -9115.2690 -7383.5830 302.6516 -867.8941 -778.9259 30145.0857 -120.4865 -46.4322
ENERGY: 900000 1.1187 1.1772 4.7413 0.0000 -10548.1618 1369.1748 0.0000 0.0000 1705.7615 -7466.1883 294.2171 -9171.9498 -7391.4240 302.1911 -453.5942 -396.7101 29750.2752 -43.4965 17.6792
ENERGY: 1200000 2.9058 1.5968 2.2637 0.0000 -10495.7866 1343.4879 0.0000 0.0000 1787.6434 -7357.8890 308.3404 -9145.5324 -7388.9395 302.1512 -699.6555 -682.6596 30110.7237 -138.0765 -70.3204
ENERGY: 1500000 0.3115 5.9530 1.6297 0.0000 -10539.6617 1410.9607 0.0000 0.0000 1700.0950 -7420.7117 293.2397 -9120.8068 -7399.3173 300.5988 -16.1733 40.5372 29992.6643 -117.2581 -59.2339
TCL: Running FEP window  13: Lambda1 0.6    Lambda2 0.65   [dLambda 0.050000000000000044]
TCL: Setting parameter firsttimestep to 0
TCL: Setting parameter alchLambda to 0.6
Info: NONBONDED TABLE R-SQUARED SPACING: 0.0625
Info: NONBONDED TABLE SIZE: 705 POINTS
TCL: Setting parameter alchLambda2 to 0.65
Info: NONBONDED TABLE R-SQUARED SPACING: 0.0625
Info: NONBONDED TABLE SIZE: 705 POINTS
TCL: Running for 1500000 steps
ETITLE: TS BOND ANGLE DIHED IMPRP ELECT VDW BOUNDARY MISC KINETIC TOTAL TEMP POTENTIAL TOTALAVG TEMPAVG PRESSURE GPRESSURE VOLUME PRESSAVG GPRESSAVG
ENERGY: 0 0.3115 5.9530 1.6297 0.0000 -10539.7759 1411.2571 0.0000 0.0000 1699.2431 -7421.3815 293.0927 -9120.6246 -7421.3815 293.0927 -38.3667 48.7475 29992.6643 -38.3667 48.7475
ENERGY: 300000 1.4381 2.4051 4.4975 0.0000 -10481.6766 1336.3021 0.0000 0.0000 1778.3327 -7358.7012 306.7344 -9137.0339 -7395.1635 302.0346 -633.7375 -636.8100 30109.1965 -171.6342 -143.8502
ENERGY: 600000 2.9039 4.5283 3.1826 0.0000 -10563.4914 1359.5341 0.0000 0.0000 1733.9940 -7459.3486 299.0867 -9193.3426 -7404.9602 301.8250 -566.2406 -479.8678 29653.3711 -214.6356 -164.4617
ENERGY: 900000 2.3040 3.6349 1.0000 0.0000 -10546.1929 1404.4955 0.0000 0.0000 1702.6751 -7432.0833 293.6847 -9134.7584 -7393.2251 302.1267 -180.8658 -156.1909 30146.1352 -86.7196 -26.7169
ENERGY: 1200000 0.8421 2.0000 1.2691 0.0000 -10666.5075 1468.5406 0.0000 0.0000 1752.5743 -7441.2815 302.2915 -9193.8558 -7405.0622 301.6830 615.9789 733.6656 29274.8491 50.8515 111.5411
ENERGY: 1500000 1.6558 2.2542 1.4460 0.0000 -10520.8727 1428.2476 0.0000 0.0000 1727.6934 -7359.5757 298.0000 -9087.2691 -7401.4739 301.4612 70.0624 149.8930 30044.1768 57.1208 122.2943
TCL: Running FEP window  14: Lambda1 0.65   Lambda2 0.7000000000000001 [dLambda 0.050000000000000044]
TCL: Setting parameter firsttimestep to 0
TCL: Setting parameter alchLambda to 0.65
Info: NONBONDED TABLE R-SQUARED SPACING: 0.0625
Info: NONBONDED TABLE SIZE: 705 POINTS
TCL: Setting parameter alchLambda2 to 0.7000000000000001
Info: NONBONDED TABLE R-SQUARED SPACING: 0.0625
Info: NONBONDED TABLE SIZE: 705 POINTS
TCL: Running for 1500000 steps
ETITLE: TS BOND ANGLE DIHED IMPRP ELECT VDW BOUNDARY MISC KINETIC TOTAL TEMP POTENTIAL TOTALAVG TEMPAVG PRESSURE GPRESSURE VOLUME PRESSAVG GPRESSAVG
ENERGY: 0 1.6559 2.2542 1.4460 0.0000 -10521.1767 1428.8559 0.0000 0.0000 1726.8357 -7360.1291 297.8520 -9086.9648 -7360.1291 297.8520 73.8846 161.4177 30044.1768 73.8846 161.4177
ENERGY: 300000 0.9987 5.5482 1.3287 0.0000 -10616.2631 1456.5869 0.0000 0.0000 1702.3119 -7449.4887 293.6220 -9151.8006 -7420.3183 296.9141 497.4546 531.6507 29386.9327 345.3719 389.7588
ENERGY: 600000 1.1589 2.2341 0.5551 0.0000 -10580.7177 1419.2165 0.0000 0.0000 1755.6015 -7401.9516 302.8137 -9157.5531 -7418.3183 298.9788 89.2175 110.5296 29695.4825 111.5459 162.8222
ENERGY: 900000 3.3067 3.5817 1.1873 0.0000 -10627.9037 1415.7707 0.0000 0.0000 1742.2055 -7461.8519 300.5031 -9204.0574 -7406.0112 301.1192 -273.4124 -182.2456 30155.1256 179.1817 230.2599
ENERGY: 1200000 1.9800 4.4439 0.4903 0.0000 -10670.5641 1487.5167 0.0000 0.0000 1769.5585 -7406.5746 305.2210 -9176.1331 -7402.4844 301.2192 825.9475 824.0046 29580.1626 138.8970 190.2403
ENERGY: 1500000 2.3319 1.1557 1.0278 0.0000 -10502.5011 1338.9295 0.0000 0.0000 1768.9786 -7390.0776 305.1210 -9159.0562 -7399.7841 300.8430 -676.9265 -617.2919 30024.4537 102.8170 153.9072
TCL: Running FEP window  15: Lambda1 0.7000000000000001 Lambda2 0.7500000000000001 [dLambda 0.050000000000000044]
TCL: Setting parameter firsttimestep to 0
TCL: Setting parameter alchLambda to 0.7000000000000001
Info: NONBONDED TABLE R-SQUARED SPACING: 0.0625
Info: NONBONDED TABLE SIZE: 705 POINTS
TCL: Setting parameter alchLambda2 to 0.7500000000000001
Info: NONBONDED TABLE R-SQUARED SPACING: 0.0625
Info: NONBONDED TABLE SIZE: 705 POINTS
TCL: Running for 1500000 steps
ETITLE: TS BOND ANGLE DIHED IMPRP ELECT VDW BOUNDARY MISC KINETIC TOTAL TEMP POTENTIAL TOTALAVG TEMPAVG PRESSURE GPRESSURE VOLUME PRESSAVG GPRESSAVG
ENERGY: 0 2.3319 1.1557 1.0278 0.0000 -10503.5396 1339.6720 0.0000 0.0000 1768.1034 -7391.2487 304.9700 -9159.3522 -7391.2487 304.9700 -685.0242 -604.1995 30024.4537 -685.0242 -604.1995
ENERGY: 300000 1.4573 9.2336 3.1534 0.0000 -10580.3588 1476.1540 0.0000 0.0000 1725.3721 -7364.9883 297.5996 -9090.3605 -7409.9899 295.1359 345.0297 410.0719 30260.1730 -228.2439 -155.4003
ENERGY: 600000 0.6723 2.4817 1.0486 0.0000 -10490.8292 1347.3021 0.0000 0.0000 1824.8045 -7314.5200 314.7501 -9139.3245 -7410.9093 299.4483 -432.6936 -401.6289 29981.8873 -342.8079 -286.9646
ENERGY: 900000 1.2202 2.6675 1.5529 0.0000 -10497.7884 1352.4387 0.0000 0.0000 1753.6189 -7386.2902 302.4717 -9139.9091 -7409.8672 299.3896 -447.6437 -410.2703 30144.2351 -251.3680 -185.7640
ENERGY: 1200000 2.4219 3.7899 1.0968 0.0000 -10589.4312 1487.8428 0.0000 0.0000 1818.8642 -7275.4156 313.7255 -9094.2798 -7396.2876 301.1030 976.1531 1010.2094 29463.5797 -63.5086 5.3120
ENERGY: 1500000 1.5014 4.1787 0.5628 0.0000 -10468.1739 1365.8651 0.0000 0.0000 1746.4024 -7349.6634 301.2270 -9096.0659 -7399.2844 299.6781 -195.5258 -174.3310 29993.9183 -38.1139 24.9049
TCL: Running FEP window  16: Lambda1 0.7500000000000001 Lambda2 0.8000000000000002 [dLambda 0.050000000000000044]
TCL: Setting parameter firsttimestep to 0
TCL: Setting parameter alchLambda to 0.7500000000000001
Info: NONBONDED TABLE R-SQUARED SPACING: 0.0625
Info: NONBONDED TABLE SIZE: 705 POINTS
TCL: Setting parameter alchLambda2 to 0.8000000000000002
Info: NONBONDED TABLE R-SQUARED SPACING: 0.0625
Info: NONBONDED TABLE SIZE: 705 POINTS
TCL: Running for 1500000 steps
ETITLE: TS BOND ANGLE DIHED IMPRP ELECT VDW BOUNDARY MISC KINETIC TOTAL TEMP POTENTIAL TOTALAVG TEMPAVG PRESSURE GPRESSURE VOLUME PRESSAVG GPRESSAVG
ENERGY: 0 1.5014 4.1787 0.5628 0.0000 -10468.3356 1365.3695 0.0000 0.0000 1745.5154 -7351.2079 301.0740 -9096.7232 -7351.2079 301.0740 -253.4949 -173.8971 29993.9183 -253.4949 -173.8971
ENERGY: 300000 0.9349 1.6397 1.3020 0.0000 -10563.3189 1388.7379 0.0000 0.0000 1722.6614 -7448.0430 297.1320 -9170.7044 -7384.8303 297.3029 -193.6781 -172.1074 29959.1746 -261.6024 -217.7371
ENERGY: 600000 1.9329 3.9660 1.0283 0.0000 -10552.7318 1395.4528 0.0000 0.0000 1786.0596 -7364.2923 308.0672 -9150.3520 -7394.9122 300.0086 -193.8662 -116.4451 29704.4143 -226.1386 -163.5034
ENERGY: 900000 1.3371 2.1012 1.7128 0.0000 -10564.4412 1382.6244 0.0000 0.0000 1764.7653 -7411.9004 304.3943 -9176.6657 -7401.6748 301.2458 -272.4763 -182.7505 30071.9494 -167.2578 -99.4176
ENERGY: 1200000 0.7930 2.9786 0.4305 0.0000 -10550.5859 1413.1968 0.0000 0.0000 1738.5229 -7394.6640 299.8679 -9133.1869 -7400.3741 300.6637 42.3198 29.7043 29934.8224 -125.8586 -62.8882
ENERGY: 1500000 0.7362 1.9728 1.1738 0.0000 -10652.0722 1443.3885 0.0000 0.0000 1754.7925 -7450.0085 302.6741 -9204.8010 -7405.1246 300.4304 53.8207 112.9140 29854.8240 -105.0339 -46.7375
TCL: Running FEP window  17: Lambda1 0.8000000000000002 Lambda2 0.8500000000000002 [dLambda 0.050000000000000044]
TCL: Setting parameter firsttimestep to 0
TCL: Setting parameter alchLambda to 0.8000000000000002
Info: NONBONDED TABLE R-SQUARED SPACING: 0.0625
Info: NONBONDED TABLE SIZE: 705 POINTS
TCL: Setting parameter alchLambda2 to 0.8500000000000002
Info: NONBONDED TABLE R-SQUARED SPACING: 0.0625
Info: NONBONDED TABLE SIZE: 705 POINTS
TCL: Running for 1500000 steps
ETITLE: TS BOND ANGLE DIHED IMPRP ELECT VDW BOUNDARY MISC KINETIC TOTAL TEMP POTENTIAL TOTALAVG TEMPAVG PRESSURE GPRESSURE VOLUME PRESSAVG GPRESSAVG
ENERGY: 0 0.7362 1.9728 1.1738 0.0000 -10652.9559 1444.0253 0.0000 0.0000 1753.9459 -7451.1019 302.5281 -9205.0478 -7451.1019 302.5281 52.0457 125.7957 29854.8240 52.0457 125.7957
ENERGY: 300000 0.8346 3.3865 0.5374 0.0000 -10485.6630 1417.9915 0.0000 0.0000 1770.9272 -7291.9859 305.4571 -9062.9130 -7396.4697 302.8352 430.7747 531.9535 29867.4942 308.1627 371.9407
ENERGY: 600000 2.5961 2.4433 0.2827 0.0000 -10634.3780 1465.8095 0.0000 0.0000 1790.7731 -7372.4732 308.8802 -9163.2463 -7394.6429 301.9238 95.9534 153.6520 30243.4221 202.5853 273.4502
ENERGY: 900000 2.5443 4.2822 1.6385 0.0000 -10735.2166 1486.2353 0.0000 0.0000 1724.3681 -7516.1482 297.4264 -9240.5163 -7410.9928 300.8314 127.7995 232.3609 29879.3334 205.9747 272.2770
ENERGY: 1200000 0.5495 3.7918 3.1890 0.0000 -10585.4339 1444.1522 0.0000 0.0000 1745.2620 -7388.4894 301.0303 -9133.7514 -7409.0417 300.4879 67.7528 104.6509 30122.4327 145.8366 208.7310
ENERGY: 1500000 1.0060 2.7506 1.0270 0.0000 -10505.5196 1437.4889 0.0000 0.0000 1734.8729 -7328.3742 299.2383 -9063.2471 -7404.0900 299.8795 269.1970 364.4919 30218.6586 117.5038 177.1387
TCL: Running FEP window  18: Lambda1 0.8500000000000002 Lambda2 0.9000000000000002 [dLambda 0.050000000000000044]
TCL: Setting parameter firsttimestep to 0
TCL: Setting parameter alchLambda to 0.8500000000000002
Info: NONBONDED TABLE R-SQUARED SPACING: 0.0625
Info: NONBONDED TABLE SIZE: 705 POINTS
TCL: Setting parameter alchLambda2 to 0.9000000000000002
Info: NONBONDED TABLE R-SQUARED SPACING: 0.0625
Info: NONBONDED TABLE SIZE: 705 POINTS
TCL: Running for 1500000 steps
ETITLE: TS BOND ANGLE DIHED IMPRP ELECT VDW BOUNDARY MISC KINETIC TOTAL TEMP POTENTIAL TOTALAVG TEMPAVG PRESSURE GPRESSURE VOLUME PRESSAVG GPRESSAVG
ENERGY: 0 1.0060 2.7506 1.0270 0.0000 -10506.7358 1437.9177 0.0000 0.0000 1734.0378 -7329.9967 299.0943 -9064.0345 -7329.9967 299.0943 286.9162 373.0368 30218.6586 286.9162 373.0368
ENERGY: 300000 0.9493 3.0954 2.8137 0.0000 -10520.4741 1389.7415 0.0000 0.0000 1735.9070 -7387.9673 299.4167 -9123.8743 -7373.6954 299.8043 -195.1621 -172.0075 30174.6800 -84.3127 -16.8936
ENERGY: 600000 1.8328 5.4455 1.4318 0.0000 -10647.2395 1471.5087 0.0000 0.0000 1735.3349 -7431.6858 299.3180 -9167.0206 -7383.3067 300.0623 79.2663 187.6009 30341.7798 -290.4322 -217.1580
ENERGY: 900000 2.1719 2.8733 0.7788 0.0000 -10598.0497 1456.0406 0.0000 0.0000 1707.3763 -7428.8088 294.4956 -9136.1851 -7395.3993 299.9824 445.1190 434.6215 29909.3486 -210.6021 -145.7342
ENERGY: 1200000 0.3025 3.6462 2.4188 0.0000 -10493.4541 1409.9671 0.0000 0.0000 1688.7989 -7388.3206 291.2913 -9077.1195 -7400.0294 299.2392 -44.9434 62.3033 30011.1900 -117.2992 -51.5853
ENERGY: 1500000 2.0396 6.0459 1.0693 0.0000 -10537.4229 1338.3978 0.0000 0.0000 1729.1767 -7460.6935 298.2558 -9189.8702 -7401.7151 299.9489 -638.1930 -613.2307 29887.4917 -147.0691 -84.4538
TCL: Running FEP window  19: Lambda1 0.9000000000000002 Lambda2 0.9500000000000003 [dLambda 0.050000000000000044]
TCL: Setting parameter firsttimestep to 0
TCL: Setting parameter alchLambda to 0.9000000000000002
Info: NONBONDED TABLE R-SQUARED SPACING: 0.0625
Info: NONBONDED TABLE SIZE: 705 POINTS
TCL: Setting parameter alchLambda2 to 0.9500000000000003
Info: NONBONDED TABLE R-SQUARED SPACING: 0.0625
Info: NONBONDED TABLE SIZE: 705 POINTS
TCL: Running for 1500000 steps
ETITLE: TS BOND ANGLE DIHED IMPRP ELECT VDW BOUNDARY MISC KINETIC TOTAL TEMP POTENTIAL TOTALAVG TEMPAVG PRESSURE GPRESSURE VOLUME PRESSAVG GPRESSAVG
ENERGY: 0 2.0396 6.0459 1.0693 0.0000 -10538.4425 1338.7956 0.0000 0.0000 1728.2957 -7462.1965 298.1038 -9190.4922 -7462.1965 298.1038 -674.9887 -600.6090 29887.4917 -674.9887 -600.6090
ENERGY: 300000 2.3194 4.6879 2.2503 0.0000 -10573.4106 1407.9768 0.0000 0.0000 1707.0598 -7449.1165 294.4410 -9156.1762 -7463.9452 294.8012 -107.2467 -29.4846 29915.9203 -179.8021 -115.8961
ENERGY: 600000 2.9178 1.8869 2.5208 0.0000 -10444.7894 1371.0399 0.0000 0.0000 1744.9371 -7321.4870 300.9742 -9066.4241 -7443.8045 296.0260 -403.2710 -286.7356 30615.4313 -280.9672 -206.6496
ENERGY: 900000 1.8785 1.8255 1.5731 0.0000 -10642.9292 1471.3229 0.0000 0.0000 1716.1957 -7450.1335 296.0168 -9166.3292 -7442.8258 297.4643 307.3809 334.9412 30100.0083 -193.8354 -128.1258
ENERGY: 1200000 0.6455 3.7312 1.0763 0.0000 -10755.3729 1502.1685 0.0000 0.0000 1780.9707 -7466.7806 307.1895 -9247.7513 -7441.7140 297.4609 675.4935 682.5133 29625.2077 -64.6117 -9.1196
ENERGY: 1500000 0.7968 1.2951 1.1849 0.0000 -10665.4613 1502.4054 0.0000 0.0000 1707.9689 -7451.8103 294.5978 -9159.7791 -7436.9567 298.2422 352.8849 483.1956 30277.3610 -38.2452 22.0720
TCL: Running FEP window  20: Lambda1 0.9500000000000003 Lambda2 1.0    [dLambda 0.04999999999999971]
TCL: Setting parameter firsttimestep to 0
TCL: Setting parameter alchLambda to 0.9500000000000003
Info: NONBONDED TABLE R-SQUARED SPACING: 0.0625
Info: NONBONDED TABLE SIZE: 705 POINTS
TCL: Setting parameter alchLambda2 to 1.0
Info: NONBONDED TABLE R-SQUARED SPACING: 0.0625
Info: NONBONDED TABLE SIZE: 705 POINTS
TCL: Running for 1500000 steps
ETITLE: TS BOND ANGLE DIHED IMPRP ELECT VDW BOUNDARY MISC KINETIC TOTAL TEMP POTENTIAL TOTALAVG TEMPAVG PRESSURE GPRESSURE VOLUME PRESSAVG GPRESSAVG
ENERGY: 0 0.7968 1.2951 1.1849 0.0000 -10666.4762 1502.3364 0.0000 0.0000 1707.0818 -7453.7813 294.4448 -9160.8631 -7453.7813 294.4448 387.8850 485.6407 30277.3610 387.8850 485.6407
ENERGY: 300000 0.5925 3.2800 1.3990 0.0000 -10522.4664 1421.0767 0.0000 0.0000 1728.2719 -7367.8463 298.0997 -9096.1182 -7428.2187 300.5142 6.4371 91.8228 30266.6310 71.0735 161.3801
ENERGY: 600000 1.2655 3.6877 1.1778 0.0000 -10464.5586 1335.6577 0.0000 0.0000 1774.5969 -7348.1731 306.0901 -9122.7700 -7425.9146 299.5533 -1095.4505 -1034.4043 30974.3170 -48.5117 31.9071
ENERGY: 900000 0.6118 2.3223 1.5168 0.0000 -10628.7260 1436.4852 0.0000 0.0000 1731.6434 -7456.1465 298.6813 -9187.7899 -7424.6668 299.6196 209.2858 265.8434 29501.7324 -4.0518 66.3485
ENERGY: 1200000 2.4071 3.3203 1.3924 0.0000 -10538.6534 1377.3457 0.0000 0.0000 1730.3619 -7423.8260 298.4602 -9154.1878 -7419.8140 299.8551 -560.2268 -474.7140 30466.3707 -22.5911 45.3539
ENERGY: 1500000 0.6729 1.9528 1.3655 0.0000 -10500.5050 1366.9221 0.0000 0.0000 1733.8461 -7395.7456 299.0612 -9129.5916 -7418.1710 299.3727 -438.0473 -361.7304 30350.8081 49.4672 120.1184
TCL: Exiting due to exit command.
