Info: SIMULATION PARAMETERS:
Info: TIMESTEP               2
Info: NUMBER OF STEPS        0
Info: STEPS PER CYCLE        10
Info: PERIODIC CELL BASIS 1  30.8551 0 0
Info: PERIODIC CELL BASIS 2  0 29.3806 0
Info: PERIODIC CELL BASIS 3  0 0 33.8475
Info: PERIODIC CELL CENTER   0 0 0
Info: WRAPPING WATERS AROUND PERIODIC BOUNDARIES ON OUTPUT.
Info: WRAPPING ALL CLUSTERS AROUND PERIODIC BOUNDARIES ON OUTPUT.
Info: FIRST LDB TIMESTEP     50
Info: LAST LDB TIMESTEP     -1
Info: HOM BACKGROUND SCALING 1
Info: PME BACKGROUND SCALING 1
Info: MIN ATOMS PER PATCH    40
Info: EMPTY PATCH LOAD       40 ATOMS
Info: VELOCITY FILE          mobley_6175884_equil.vel
Info: CENTER OF MASS MOVING INITIALLY? NO
Info: DIELECTRIC             1
Info: EXCLUDE                SCALED ONE-FOUR
Info: 1-4 ELECTROSTATICS SCALED BY 0.833333
Info: MODIFIED 1-4 VDW PARAMETERS WILL BE USED
Info: DCD FILENAME           mobley_6175884_prod.dcd
Info: DCD FREQUENCY          100000
Info: DCD FIRST STEP         100000
Info: DCD FILE WILL CONTAIN UNIT CELL DATA
Info: XST FILENAME           mobley_6175884_prod.xst
Info: XST FREQUENCY          100000
Info: NO VELOCITY DCD OUTPUT
Info: NO FORCE DCD OUTPUT
Info: OUTPUT FILENAME        mobley_6175884_prod
Info: BINARY OUTPUT FILES WILL BE USED
Info: RESTART FILENAME       mobley_6175884_prod.restart
Info: RESTART FREQUENCY      100000
Info: BINARY RESTART FILES WILL BE USED
Info: CUTOFF                 9
Info: PAIRLIST DISTANCE      11
Info: PAIRLIST SHRINK RATE   0.01
Info: PAIRLIST GROW RATE     0.01
Info: PAIRLIST TRIGGER       0.3
Info: PAIRLISTS PER CYCLE    2
Info: PAIRLISTS ENABLED
Info: MARGIN                 2
Info: HYDROGEN GROUP CUTOFF  2.5
Info: PATCH DIMENSION        15.5
Info: ENERGY OUTPUT STEPS    100000
Info: ENERGY EVALUATION STEPS    100000
Info: OUTPUT ENERGY PRECISION 4
Info: CROSSTERM ENERGY INCLUDED IN DIHEDRAL
Info: TIMING OUTPUT STEPS    1000000
Info: PRESSURE OUTPUT STEPS  100000
Info: ALCHEMICAL FEP ON
Info: FEP CURRENT LAMBDA VALUE     0
Info: FEP COMPARISON LAMBDA VALUE  0.05
Info: FEP INTRA-ALCHEMICAL NON-BONDED INTERACTIONS WILL BE RETAINED
Info: FEP INTRA-ALCHEMICAL BONDED INTERACTIONS WILL BE RETAINED
Info: FEP VDW SHIFTING COEFFICIENT 5
Info: FEP ELEC. ACTIVE FOR ANNIHILATED PARTICLES BETWEEN LAMBDA = 0 AND LAMBDA = 0.5
Info: FEP ELEC. ACTIVE FOR EXNIHILATED PARTICLES BETWEEN LAMBDA = 0.5 AND LAMBDA = 1
Info: FEP VDW ACTIVE FOR ANNIHILATED PARTICLES BETWEEN LAMBDA = 0 AND LAMBDA = 1
Info: FEP VDW ACTIVE FOR EXNIHILATED PARTICLES BETWEEN LAMBDA = 0 AND LAMBDA = 1
Info: FEP BOND ACTIVE FOR ANNIHILATED PARTICLES BETWEEN LAMBDA = 1 AND LAMBDA = 1
Info: FEP BOND ACTIVE FOR EXNIHILATED PARTICLES BETWEEN LAMBDA = 0 AND LAMBDA = 0
Info: LANGEVIN DYNAMICS ACTIVE
Info: LANGEVIN TEMPERATURE   300
Info: LANGEVIN USING BBK INTEGRATOR
Info: LANGEVIN DAMPING COEFFICIENT IS 1 INVERSE PS
Info: LANGEVIN DYNAMICS APPLIED TO HYDROGENS
Info: LANGEVIN PISTON PRESSURE CONTROL ACTIVE
Info:        TARGET PRESSURE IS 1.01325 BAR
Info:     OSCILLATION PERIOD IS 50 FS
Info:             DECAY TIME IS 25 FS
Info:     PISTON TEMPERATURE IS 300 K
Info:       PRESSURE CONTROL IS GROUP-BASED
Info:    INITIAL STRAIN RATE IS 0.000253552 0.000253552 0.000253552
Info:       CELL FLUCTUATION IS ISOTROPIC
Info: PARTICLE MESH EWALD (PME) ACTIVE
Info: PME TOLERANCE               1e-06
Info: PME EWALD COEFFICIENT       0.348832
Info: PME INTERPOLATION ORDER     4
Info: PME GRID DIMENSIONS         32 32 36
Info: PME MAXIMUM GRID SPACING    1
Info: PME CALCULATION WILL BE PERFORMED ON GPU
Info: FULL ELECTROSTATIC EVALUATION FREQUENCY      2
Info: USING VERLET I (r-RESPA) MTS SCHEME.
Info: C1 SPLITTING OF LONG RANGE ELECTROSTATICS
Info: PLACING ATOMS IN PATCHES BY HYDROGEN GROUPS
Info: RIGID BONDS TO HYDROGEN : ALL
Info:         ERROR TOLERANCE : 1e-08
Info:          MAX ITERATIONS : 100
Info: RIGID WATER USING SETTLE ALGORITHM
Info: RANDOM NUMBER SEED     1743767073
Info: USE HYDROGEN BONDS?    NO
Info: Using AMBER format force field!
Info: AMBER PARM FILE        mobley_6175884.prmtop
Info: COORDINATE PDB         mobley_6175884.pdb
Info: Exclusions will be read from PARM file!
Info: SCNB (VDW SCALING)     2
Info: USING ARITHMETIC MEAN TO COMBINE L-J SIGMA PARAMETERS
Info: BINARY COORDINATES     mobley_6175884_equil.coor
Info: SUMMARY OF PARAMETERS:
Info: 9 BONDS
Info: 9 ANGLES
Info:   9 HARMONIC
Info:   0 COSINE-BASED
Info: 5 DIHEDRAL
Info: 0 IMPROPER
Info: 0 CROSSTERM
Info: 0 VDW
Info: 36 VDW_PAIRS
Info: 0 NBTHOLE_PAIRS
Info: To read alchdata from file: mobley_6175884.pdb
Info: To read alchflag data from column: 5
Info: STRUCTURE SUMMARY:
Info: 2984 ATOMS
Info: 2984 BONDS
Info: 27 ANGLES
Info: 41 DIHEDRALS
Info: 0 IMPROPERS
Info: 0 CROSSTERMS
Info: 3042 EXCLUSIONS
Info: 2975 RIGID BONDS
Info: ALCH: 0 ATOMS TO DISAPPEAR IN FINAL STATE
Info: ALCH: 17 ATOMS TO APPEAR IN FINAL STATE
Info: 5977 DEGREES OF FREEDOM
Info: 998 HYDROGEN GROUPS
Info: 4 ATOMS IN LARGEST HYDROGEN GROUP
Info: 998 MIGRATION GROUPS
Info: 4 ATOMS IN LARGEST MIGRATION GROUP
Info: TOTAL MASS = 17938 amu
Info: TOTAL CHARGE = 0.000200024 e
Info: MASS DENSITY = 0.970774 g/cm^3
Info: ATOM DENSITY = 0.0972489 atoms/A^3
Info: ADDED 0 IMPLICIT EXCLUSIONS
Info: NONBONDED TABLE R-SQUARED SPACING: 0.0625
Info: NONBONDED TABLE SIZE: 705 POINTS
Info: REMOVING COM VELOCITY -0.0521076 -0.0657889 -0.223878
Info: Use 3D box decompostion in PME FFT.
Info: Updated CUDA force table with 4096 elements.
Info: Updated CUDA LJ table with 8 x 8 elements.
Info: Found 19 unique exclusion lists needing 48 bytes
TCL: Running for 1500000 steps
ETITLE: TS BOND ANGLE DIHED IMPRP ELECT VDW BOUNDARY MISC KINETIC TOTAL TEMP POTENTIAL TOTALAVG TEMPAVG PRESSURE GPRESSURE VOLUME PRESSAVG GPRESSAVG
ENERGY: 0 3.2566 5.0274 3.7746 0.0000 -10875.2209 1449.3510 0.0000 0.0000 1773.2810 -7640.5304 298.5965 -9413.8114 -7640.5304 298.5965 -360.5309 -273.7961 30684.1545 -360.5309 -273.7961
ENERGY: 300000 2.9792 3.8793 3.3219 0.0000 -10806.1773 1446.3198 0.0000 0.0000 1817.8983 -7531.7789 306.1094 -9349.6771 -7583.8080 298.5179 -257.9447 -205.0450 30719.8519 -3.3288 56.7310
ENERGY: 600000 2.6113 2.8216 1.7270 0.0000 -10761.5184 1466.5538 0.0000 0.0000 1775.4462 -7512.3586 298.9611 -9287.8048 -7565.0701 297.1245 237.1010 342.4409 30276.4949 -31.1073 41.3349
ENERGY: 900000 4.2037 3.2136 2.9519 0.0000 -10811.1344 1501.6977 0.0000 0.0000 1802.7538 -7496.3137 303.5593 -9299.0675 -7548.7497 298.4758 254.5520 359.4096 30612.7208 -50.2225 14.7740
ENERGY: 1200000 3.6120 5.9236 0.9862 0.0000 -10863.2628 1472.5141 0.0000 0.0000 1831.1782 -7549.0486 308.3456 -9380.2268 -7537.7835 300.5567 -155.7080 -23.9751 30786.1880 -19.0601 52.5544
ENERGY: 1500000 5.0198 3.1250 4.1235 0.0000 -10829.0342 1494.7331 0.0000 0.0000 1781.8929 -7540.1399 300.0466 -9322.0328 -7534.4244 300.7978 248.5804 330.4206 30340.3632 -69.0438 7.6269
TCL: Running FEP window   2: Lambda1 0.05   Lambda2 0.1    [dLambda 0.05  ]
TCL: Setting parameter firsttimestep to 0
TCL: Setting parameter alchLambda to 0.05
Info: NONBONDED TABLE R-SQUARED SPACING: 0.0625
Info: NONBONDED TABLE SIZE: 705 POINTS
TCL: Setting parameter alchLambda2 to 0.1
Info: NONBONDED TABLE R-SQUARED SPACING: 0.0625
Info: NONBONDED TABLE SIZE: 705 POINTS
TCL: Running for 1500000 steps
ETITLE: TS BOND ANGLE DIHED IMPRP ELECT VDW BOUNDARY MISC KINETIC TOTAL TEMP POTENTIAL TOTALAVG TEMPAVG PRESSURE GPRESSURE VOLUME PRESSAVG GPRESSAVG
ENERGY: 0 5.0198 3.1251 4.1235 0.0000 -10829.0343 1498.3173 0.0000 0.0000 1781.0017 -7537.4469 299.8966 -9318.4487 -7537.4469 299.8966 258.5368 338.0688 30340.3632 258.5368 338.0688
ENERGY: 300000 3.3019 4.8041 0.8377 0.0000 -10830.3611 1498.6551 0.0000 0.0000 1773.5480 -7549.2143 298.6414 -9322.7624 -7531.8488 299.1712 622.6434 650.5782 29889.4210 218.0853 272.4449
ENERGY: 600000 2.2588 4.3981 2.6796 0.0000 -10905.2214 1464.8186 0.0000 0.0000 1780.8465 -7650.2199 299.8704 -9431.0663 -7533.4898 301.4117 -28.8804 77.9895 30285.0419 43.5703 98.9705
ENERGY: 900000 4.0417 5.3320 2.2767 0.0000 -10799.3889 1447.2437 0.0000 0.0000 1703.6200 -7636.8747 286.8665 -9340.4947 -7543.9236 299.7366 -128.5363 -99.7411 30796.7592 71.3975 115.7956
ENERGY: 1200000 4.0767 3.6422 4.4964 0.0000 -10697.9145 1394.3166 0.0000 0.0000 1901.0661 -7390.3165 320.1138 -9291.3826 -7534.4435 300.5560 -604.9265 -570.4767 31057.3199 -25.5182 18.2707
ENERGY: 1500000 2.5462 4.9691 2.3220 0.0000 -10803.8615 1455.5869 0.0000 0.0000 1803.5333 -7534.9040 303.6906 -9338.4374 -7536.5197 300.8295 -110.3033 -63.9926 30979.4249 32.0649 77.5889
TCL: Running FEP window   3: Lambda1 0.1    Lambda2 0.15000000000000002 [dLambda 0.05000000000000002]
TCL: Setting parameter firsttimestep to 0
TCL: Setting parameter alchLambda to 0.1
Info: NONBONDED TABLE R-SQUARED SPACING: 0.0625
Info: NONBONDED TABLE SIZE: 705 POINTS
TCL: Setting parameter alchLambda2 to 0.15000000000000002
Info: NONBONDED TABLE R-SQUARED SPACING: 0.0625
Info: NONBONDED TABLE SIZE: 705 POINTS
TCL: Running for 1500000 steps
ETITLE: TS BOND ANGLE DIHED IMPRP ELECT VDW BOUNDARY MISC KINETIC TOTAL TEMP POTENTIAL TOTALAVG TEMPAVG PRESSURE GPRESSURE VOLUME PRESSAVG GPRESSAVG
ENERGY: 0 2.5462 4.9691 2.3220 0.0000 -10803.8614 1455.6433 0.0000 0.0000 1802.6457 -7535.7351 303.5411 -9338.3809 -7535.7351 303.5411 -129.4017 -61.2832 30979.4249 -129.4017 -61.2832
ENERGY: 300000 4.1751 8.2832 2.7693 0.0000 -10666.0662 1395.7232 0.0000 0.0000 1826.0792 -7429.0362 307.4870 -9255.1154 -7510.8440 305.2196 -339.7703 -352.4810 30888.3874 -280.6479 -241.5562
ENERGY: 600000 4.8972 3.9536 1.9468 0.0000 -10751.5309 1395.8527 0.0000 0.0000 1814.9118 -7529.9689 305.6065 -9344.8807 -7499.8309 304.5875 -584.9855 -612.7735 30869.4608 -381.7025 -338.3477
ENERGY: 900000 3.8800 7.8888 1.6371 0.0000 -10629.4811 1396.2119 0.0000 0.0000 1809.2918 -7410.5716 304.6602 -9219.8634 -7494.8220 303.3046 -154.9357 -77.9018 30799.1248 -221.8385 -172.7783
ENERGY: 1200000 3.0402 3.2452 2.3916 0.0000 -10749.8696 1425.7400 0.0000 0.0000 1813.8399 -7501.6127 305.4260 -9315.4526 -7499.3182 303.9578 -408.6355 -307.7152 30669.9376 -100.6708 -48.9897
ENERGY: 1500000 2.5842 1.8724 3.0583 0.0000 -10796.2757 1449.0610 0.0000 0.0000 1779.5064 -7560.1935 299.6447 -9339.6999 -7503.3001 302.7298 -81.3525 -105.3916 30690.1043 -93.1147 -42.9095
TCL: Running FEP window   4: Lambda1 0.15000000000000002 Lambda2 0.2    [dLambda 0.04999999999999999]
TCL: Setting parameter firsttimestep to 0
TCL: Setting parameter alchLambda to 0.15000000000000002
Info: NONBONDED TABLE R-SQUARED SPACING: 0.0625
Info: NONBONDED TABLE SIZE: 705 POINTS
TCL: Setting parameter alchLambda2 to 0.2
Info: NONBONDED TABLE R-SQUARED SPACING: 0.0625
Info: NONBONDED TABLE SIZE: 705 POINTS
TCL: Running for 1500000 steps
ETITLE: TS BOND ANGLE DIHED IMPRP ELECT VDW BOUNDARY MISC KINETIC TOTAL TEMP POTENTIAL TOTALAVG TEMPAVG PRESSURE GPRESSURE VOLUME PRESSAVG GPRESSAVG
ENERGY: 0 2.5841 1.8724 3.0583 0.0000 -10796.2754 1449.4734 0.0000 0.0000 1778.6078 -7560.6793 299.4934 -9339.2871 -7560.6793 299.4934 -178.9722 -98.8426 30690.1043 -178.9722 -98.8426
ENERGY: 300000 3.4043 4.3965 1.6818 0.0000 -10845.2696 1515.1192 0.0000 0.0000 1776.7122 -7543.9557 299.1742 -9320.6678 -7578.3578 297.9827 393.3138 445.4075 30792.5278 174.8229 241.7645
ENERGY: 600000 3.9199 2.0000 6.5958 0.0000 -10699.5014 1396.1187 0.0000 0.0000 1763.6718 -7527.1953 296.9784 -9290.8671 -7557.9511 299.0613 -422.4170 -393.2990 30649.0344 67.0292 135.4109
ENERGY: 900000 3.2285 3.7871 5.3438 0.0000 -10806.1613 1495.6427 0.0000 0.0000 1798.0549 -7500.1041 302.7681 -9298.1591 -7540.8027 299.1475 204.6418 279.3098 30815.3586 -51.0085 11.9630
ENERGY: 1200000 2.0113 5.6834 3.4708 0.0000 -10755.6509 1456.4549 0.0000 0.0000 1792.1841 -7495.8464 301.7795 -9288.0305 -7539.5040 299.5631 310.4274 302.8242 30317.8076 -30.7238 30.1193
ENERGY: 1500000 2.9177 4.9952 2.8478 0.0000 -10638.1992 1388.2383 0.0000 0.0000 1760.6700 -7478.5301 296.4730 -9239.2001 -7538.5547 299.1605 -337.7401 -341.9836 30832.5068 -58.2774 2.4980
TCL: Running FEP window   5: Lambda1 0.2    Lambda2 0.25   [dLambda 0.04999999999999999]
TCL: Setting parameter firsttimestep to 0
TCL: Setting parameter alchLambda to 0.2
Info: NONBONDED TABLE R-SQUARED SPACING: 0.0625
Info: NONBONDED TABLE SIZE: 705 POINTS
TCL: Setting parameter alchLambda2 to 0.25
Info: NONBONDED TABLE R-SQUARED SPACING: 0.0625
Info: NONBONDED TABLE SIZE: 705 POINTS
TCL: Running for 1500000 steps
ETITLE: TS BOND ANGLE DIHED IMPRP ELECT VDW BOUNDARY MISC KINETIC TOTAL TEMP POTENTIAL TOTALAVG TEMPAVG PRESSURE GPRESSURE VOLUME PRESSAVG GPRESSAVG
ENERGY: 0 2.9177 4.9952 2.8478 0.0000 -10638.1995 1388.9490 0.0000 0.0000 1759.7817 -7478.7079 296.3234 -9238.4897 -7478.7079 296.3234 -424.4674 -334.3123 30832.5068 -424.4674 -334.3123
ENERGY: 300000 2.9344 3.9397 3.4427 0.0000 -10792.5442 1478.8492 0.0000 0.0000 1748.6935 -7554.6847 294.4563 -9303.3781 -7509.9193 300.8551 160.5748 212.0602 30908.1200 69.5576 116.0080
ENERGY: 600000 4.8583 6.7857 3.9535 0.0000 -10694.8277 1363.6056 0.0000 0.0000 1797.0962 -7518.5284 302.6066 -9315.6246 -7541.4702 300.3497 -810.6168 -713.2109 30640.9843 -117.8542 -69.2216
ENERGY: 900000 3.2426 7.6964 2.7237 0.0000 -10693.1079 1396.7717 0.0000 0.0000 1786.9183 -7495.7552 300.8928 -9282.6735 -7544.7486 299.3986 -342.3055 -316.5449 30691.9789 -162.0595 -111.6901
ENERGY: 1200000 6.4974 5.1180 2.6889 0.0000 -10931.4909 1463.5922 0.0000 0.0000 1770.0877 -7683.5066 298.0588 -9453.5943 -7559.6579 298.9130 -427.7455 -336.8550 30301.2719 -19.6849 25.8781
ENERGY: 1500000 0.8103 7.1573 2.3859 0.0000 -10967.0734 1542.1904 0.0000 0.0000 1782.9004 -7631.6291 300.2163 -9414.5296 -7557.4637 299.2782 177.4924 205.4312 30887.9496 -12.0546 35.4682
TCL: Running FEP window   6: Lambda1 0.25   Lambda2 0.3    [dLambda 0.04999999999999999]
TCL: Setting parameter firsttimestep to 0
TCL: Setting parameter alchLambda to 0.25
Info: NONBONDED TABLE R-SQUARED SPACING: 0.0625
Info: NONBONDED TABLE SIZE: 705 POINTS
TCL: Setting parameter alchLambda2 to 0.3
Info: NONBONDED TABLE R-SQUARED SPACING: 0.0625
Info: NONBONDED TABLE SIZE: 705 POINTS
TCL: Running for 1500000 steps
ETITLE: TS BOND ANGLE DIHED IMPRP ELECT VDW BOUNDARY MISC KINETIC TOTAL TEMP POTENTIAL TOTALAVG TEMPAVG PRESSURE GPRESSURE VOLUME PRESSAVG GPRESSAVG
ENERGY: 0 0.8103 7.1573 2.3859 0.0000 -10967.0730 1541.9187 0.0000 0.0000 1782.0402 -7632.7606 300.0714 -9414.8008 -7632.7606 300.0714 138.2824 209.6228 30887.9496 138.2824 209.6228
ENERGY: 300000 2.4170 3.6200 2.6996 0.0000 -10755.3631 1413.9048 0.0000 0.0000 1792.7682 -7539.9535 301.8779 -9332.7217 -7556.2170 300.8410 -397.8585 -293.9143 30621.5893 127.2096 201.3509
ENERGY: 600000 3.8516 3.6230 4.3144 0.0000 -10740.0084 1433.4216 0.0000 0.0000 1783.0635 -7511.7343 300.2437 -9294.7978 -7536.8340 299.8249 122.7493 183.3496 30526.3126 109.8513 179.0902
ENERGY: 900000 2.3345 3.5750 1.8708 0.0000 -10881.3195 1459.4647 0.0000 0.0000 1813.6252 -7600.4492 305.3899 -9414.0745 -7553.6607 299.6399 -124.8334 -98.4523 30473.8220 137.0384 193.7835
ENERGY: 1200000 2.0304 6.2900 4.6376 0.0000 -10785.8600 1420.5942 0.0000 0.0000 1843.1756 -7509.1322 310.3658 -9352.3078 -7532.4896 301.8946 -284.2801 -187.3758 30481.2141 80.7408 139.9129
ENERGY: 1500000 0.8956 4.0298 1.7191 0.0000 -10758.9987 1424.9047 0.0000 0.0000 1803.1082 -7524.3414 303.6190 -9327.4496 -7531.3809 301.8713 -219.3371 -124.6156 30647.1127 27.7412 93.9400
TCL: Running FEP window   7: Lambda1 0.3    Lambda2 0.35   [dLambda 0.04999999999999999]
TCL: Setting parameter firsttimestep to 0
TCL: Setting parameter alchLambda to 0.3
Info: NONBONDED TABLE R-SQUARED SPACING: 0.0625
Info: NONBONDED TABLE SIZE: 705 POINTS
TCL: Setting parameter alchLambda2 to 0.35
Info: NONBONDED TABLE R-SQUARED SPACING: 0.0625
Info: NONBONDED TABLE SIZE: 705 POINTS
TCL: Running for 1500000 steps
ETITLE: TS BOND ANGLE DIHED IMPRP ELECT VDW BOUNDARY MISC KINETIC TOTAL TEMP POTENTIAL TOTALAVG TEMPAVG PRESSURE GPRESSURE VOLUME PRESSAVG GPRESSAVG
ENERGY: 0 0.8956 4.0298 1.7191 0.0000 -10758.9976 1424.4720 0.0000 0.0000 1802.2052 -7525.6760 303.4669 -9327.8812 -7525.6760 303.4669 -219.7617 -123.1472 30647.1127 -219.7617 -123.1472
ENERGY: 300000 3.7016 6.9373 2.3717 0.0000 -10631.6562 1390.4621 0.0000 0.0000 1738.1794 -7490.0040 292.6859 -9228.1834 -7566.7531 295.8891 -330.4897 -294.3371 30783.3077 -382.8763 -327.6483
ENERGY: 600000 6.0799 3.6978 10.2577 0.0000 -10725.8794 1391.5810 0.0000 0.0000 1777.0507 -7537.2124 299.2313 -9314.2631 -7560.0110 298.2431 -421.1041 -397.9392 30558.3293 -292.9518 -245.6799
ENERGY: 900000 3.7901 3.2340 3.2957 0.0000 -10707.9470 1434.6018 0.0000 0.0000 1778.2677 -7484.7577 299.4362 -9263.0255 -7550.3347 298.6318 125.3176 201.6710 30322.8205 -190.0025 -142.6578
ENERGY: 1200000 1.7303 3.9718 4.1018 0.0000 -10807.8661 1445.6899 0.0000 0.0000 1785.5582 -7566.8142 300.6638 -9352.3723 -7549.6278 299.4452 -24.1860 71.0112 30265.3347 -214.0702 -169.7689
ENERGY: 1500000 2.3784 2.8477 1.8083 0.0000 -10851.0529 1431.5134 0.0000 0.0000 1818.1989 -7594.3061 306.1600 -9412.5050 -7549.3577 299.8757 -221.8724 -151.8414 30301.1418 -174.6703 -131.6685
TCL: Running FEP window   8: Lambda1 0.35   Lambda2 0.39999999999999997 [dLambda 0.04999999999999999]
TCL: Setting parameter firsttimestep to 0
TCL: Setting parameter alchLambda to 0.35
Info: NONBONDED TABLE R-SQUARED SPACING: 0.0625
Info: NONBONDED TABLE SIZE: 705 POINTS
TCL: Setting parameter alchLambda2 to 0.39999999999999997
Info: NONBONDED TABLE R-SQUARED SPACING: 0.0625
Info: NONBONDED TABLE SIZE: 705 POINTS
TCL: Running for 1500000 steps
ETITLE: TS BOND ANGLE DIHED IMPRP ELECT VDW BOUNDARY MISC KINETIC TOTAL TEMP POTENTIAL TOTALAVG TEMPAVG PRESSURE GPRESSURE VOLUME PRESSAVG GPRESSAVG
ENERGY: 0 2.3784 2.8477 1.8083 0.0000 -10851.0531 1431.8012 0.0000 0.0000 1817.3133 -7594.9041 306.0109 -9412.2174 -7594.9041 306.0109 -242.4172 -146.5340 30301.1418 -242.4172 -146.5340
ENERGY: 300000 3.4923 6.0595 2.7096 0.0000 -10823.9243 1525.1146 0.0000 0.0000 1778.1291 -7508.4193 299.4128 -9286.5484 -7543.4135 302.2476 765.9130 896.7938 30472.0295 65.4623 142.0602
ENERGY: 600000 1.9235 4.5002 1.7014 0.0000 -10835.9201 1467.9162 0.0000 0.0000 1807.4667 -7552.4122 304.3529 -9359.8789 -7570.8376 300.0183 -39.9287 -32.4538 30812.4184 28.9832 91.6909
ENERGY: 900000 3.3475 4.7864 6.4934 0.0000 -10702.0156 1332.4858 0.0000 0.0000 1831.1298 -7523.7727 308.3374 -9354.9026 -7573.3587 298.5888 -917.6745 -920.9835 30738.7439 74.1368 133.7076
ENERGY: 1200000 2.3767 4.7172 3.4210 0.0000 -10667.3682 1356.9892 0.0000 0.0000 1801.1625 -7498.7015 303.2914 -9299.8640 -7557.7903 299.3390 -827.9631 -740.8532 31200.2169 41.6441 95.6460
ENERGY: 1500000 3.0564 3.1378 2.6825 0.0000 -10725.7520 1391.0498 0.0000 0.0000 1780.6247 -7545.2008 299.8331 -9325.8255 -7556.6528 299.4972 -495.7769 -451.4556 30693.7222 37.4232 87.0338
TCL: Running FEP window   9: Lambda1 0.39999999999999997 Lambda2 0.44999999999999996 [dLambda 0.04999999999999999]
TCL: Setting parameter firsttimestep to 0
TCL: Setting parameter alchLambda to 0.39999999999999997
Info: NONBONDED TABLE R-SQUARED SPACING: 0.0625
Info: NONBONDED TABLE SIZE: 705 POINTS
TCL: Setting parameter alchLambda2 to 0.44999999999999996
Info: NONBONDED TABLE R-SQUARED SPACING: 0.0625
Info: NONBONDED TABLE SIZE: 705 POINTS
TCL: Running for 1500000 steps
ETITLE: TS BOND ANGLE DIHED IMPRP ELECT VDW BOUNDARY MISC KINETIC TOTAL TEMP POTENTIAL TOTALAVG TEMPAVG PRESSURE GPRESSURE VOLUME PRESSAVG GPRESSAVG
ENERGY: 0 3.0564 3.1378 2.6825 0.0000 -10725.7509 1391.5103 0.0000 0.0000 1779.7453 -7545.6186 299.6850 -9325.3639 -7545.6186 299.6850 -528.4266 -440.5681 30693.7222 -528.4266 -440.5681
ENERGY: 300000 1.9760 4.2193 5.6434 0.0000 -10851.5477 1590.8905 0.0000 0.0000 1745.4103 -7503.4082 293.9034 -9248.8185 -7510.4192 299.3777 1206.5223 1363.2495 30433.5964 25.6323 110.2726
ENERGY: 600000 1.2873 3.4455 1.3992 0.0000 -10879.5133 1508.0127 0.0000 0.0000 1821.3121 -7544.0564 306.6843 -9365.3685 -7533.0607 300.8007 498.4423 524.1496 30477.1453 -143.4010 -71.6519
ENERGY: 900000 0.7767 5.6598 3.2377 0.0000 -10702.9324 1395.8189 0.0000 0.0000 1758.3854 -7539.0538 296.0883 -9297.4392 -7534.2708 300.2934 -398.2516 -370.1287 30853.4153 -137.8288 -69.6802
ENERGY: 1200000 3.7834 6.3514 4.0858 0.0000 -10683.2310 1409.7398 0.0000 0.0000 1770.8915 -7488.3790 298.1941 -9259.2705 -7531.1404 299.8577 -416.6757 -394.1248 31008.2739 -181.6795 -116.5898
ENERGY: 1500000 2.0495 3.8240 5.2524 0.0000 -10785.0956 1455.0394 0.0000 0.0000 1779.5285 -7539.4017 299.6485 -9318.9302 -7524.7888 300.3456 50.4622 135.4212 30355.3094 -176.4525 -106.5976
TCL: Running FEP window  10: Lambda1 0.44999999999999996 Lambda2 0.49999999999999994 [dLambda 0.04999999999999999]
TCL: Setting parameter firsttimestep to 0
TCL: Setting parameter alchLambda to 0.44999999999999996
Info: NONBONDED TABLE R-SQUARED SPACING: 0.0625
Info: NONBONDED TABLE SIZE: 705 POINTS
TCL: Setting parameter alchLambda2 to 0.49999999999999994
Info: NONBONDED TABLE R-SQUARED SPACING: 0.0625
Info: NONBONDED TABLE SIZE: 705 POINTS
TCL: Running for 1500000 steps
ETITLE: TS BOND ANGLE DIHED IMPRP ELECT VDW BOUNDARY MISC KINETIC TOTAL TEMP POTENTIAL TOTALAVG TEMPAVG PRESSURE GPRESSURE VOLUME PRESSAVG GPRESSAVG
ENERGY: 0 2.0495 3.8240 5.2524 0.0000 -10785.0940 1455.1717 0.0000 0.0000 1778.6254 -7540.1710 299.4964 -9318.7964 -7540.1710 299.4964 62.1480 146.5935 30355.3094 62.1480 146.5935
ENERGY: 300000 3.6748 3.6302 5.4150 0.0000 -10611.5733 1327.6495 0.0000 0.0000 1778.8214 -7492.3825 299.5294 -9271.2039 -7543.2889 300.8466 -816.1246 -703.0052 30487.4141 -334.4980 -267.8854
ENERGY: 600000 2.2914 10.3542 2.4291 0.0000 -10627.7232 1403.8525 0.0000 0.0000 1736.5733 -7472.2226 292.4154 -9208.7959 -7527.6213 299.0353 -21.9719 71.4895 30717.1415 -286.6438 -227.2145
ENERGY: 900000 4.4662 3.9292 2.2725 0.0000 -10832.5813 1440.3062 0.0000 0.0000 1769.9932 -7611.6138 298.0429 -9381.6070 -7538.7439 298.2356 -399.8863 -398.9710 30662.5283 -411.4754 -363.4472
ENERGY: 1200000 3.0189 5.8565 3.2085 0.0000 -10911.9555 1564.1678 0.0000 0.0000 1790.3460 -7545.3578 301.4700 -9335.7038 -7535.4092 299.4865 818.8002 962.2598 30702.1430 -274.1932 -217.7498
ENERGY: 1500000 2.8502 4.9312 3.1402 0.0000 -10756.6089 1386.3906 0.0000 0.0000 1779.5130 -7579.7836 299.6459 -9359.2967 -7533.6089 299.5384 -741.7496 -742.2211 30988.0392 -297.2313 -243.0711
TCL: Running FEP window  11: Lambda1 0.49999999999999994 Lambda2 0.5499999999999999 [dLambda 0.04999999999999999]
TCL: Setting parameter firsttimestep to 0
TCL: Setting parameter alchLambda to 0.49999999999999994
Info: NONBONDED TABLE R-SQUARED SPACING: 0.0625
Info: NONBONDED TABLE SIZE: 705 POINTS
TCL: Setting parameter alchLambda2 to 0.5499999999999999
Info: NONBONDED TABLE R-SQUARED SPACING: 0.0625
Info: NONBONDED TABLE SIZE: 705 POINTS
TCL: Running for 1500000 steps
ETITLE: TS BOND ANGLE DIHED IMPRP ELECT VDW BOUNDARY MISC KINETIC TOTAL TEMP POTENTIAL TOTALAVG TEMPAVG PRESSURE GPRESSURE VOLUME PRESSAVG GPRESSAVG
ENERGY: 0 2.8502 4.9312 3.1402 0.0000 -10756.6098 1387.2004 0.0000 0.0000 1778.6698 -7579.8179 299.5039 -9358.4878 -7579.8179 299.5039 -819.2785 -725.7315 30988.0392 -819.2785 -725.7315
ENERGY: 300000 4.9776 5.6387 2.7229 0.0000 -10609.9346 1327.5049 0.0000 0.0000 1803.6886 -7465.4018 303.7167 -9269.0904 -7526.0712 299.0716 -932.5779 -832.4772 30770.8996 -823.3380 -762.9209
ENERGY: 600000 2.7413 3.3231 4.0113 0.0000 -10992.7730 1572.8889 0.0000 0.0000 1800.1637 -7609.6446 303.1232 -9409.8083 -7553.9395 299.3307 672.1836 739.3142 30702.9483 -445.2283 -385.5426
ENERGY: 900000 3.0500 6.3278 1.7976 0.0000 -10698.9440 1435.6657 0.0000 0.0000 1729.0654 -7523.0375 291.1512 -9252.1029 -7544.4251 299.4545 -158.7467 -76.1975 31051.1825 -351.0942 -289.7430
ENERGY: 1200000 2.7017 4.0363 2.0822 0.0000 -10688.0842 1401.2494 0.0000 0.0000 1807.5843 -7470.4302 304.3727 -9278.0146 -7532.9687 300.1469 -421.4729 -319.9426 30996.0830 -320.5936 -252.6973
ENERGY: 1500000 3.9325 7.3862 2.2407 0.0000 -10696.6360 1390.5960 0.0000 0.0000 1780.3248 -7512.1559 299.7826 -9292.4806 -7536.3489 299.8715 -191.6789 -142.0780 30450.9235 -259.9630 -191.3334
TCL: Running FEP window  12: Lambda1 0.5499999999999999 Lambda2 0.6    [dLambda 0.050000000000000044]
TCL: Setting parameter firsttimestep to 0
TCL: Setting parameter alchLambda to 0.5499999999999999
Info: NONBONDED TABLE R-SQUARED SPACING: 0.0625
Info: NONBONDED TABLE SIZE: 705 POINTS
TCL: Setting parameter alchLambda2 to 0.6
Info: NONBONDED TABLE R-SQUARED SPACING: 0.0625
Info: NONBONDED TABLE SIZE: 705 POINTS
TCL: Running for 1500000 steps
ETITLE: TS BOND ANGLE DIHED IMPRP ELECT VDW BOUNDARY MISC KINETIC TOTAL TEMP POTENTIAL TOTALAVG TEMPAVG PRESSURE GPRESSURE VOLUME PRESSAVG GPRESSAVG
ENERGY: 0 3.9325 7.3862 2.2407 0.0000 -10696.5723 1390.7183 0.0000 0.0000 1779.4186 -7512.8760 299.6300 -9292.2946 -7512.8760 299.6300 -221.0887 -135.5794 30450.9235 -221.0887 -135.5794
ENERGY: 300000 1.3168 4.1540 4.4117 0.0000 -10941.1256 1591.0736 0.0000 0.0000 1775.0317 -7565.1378 298.8913 -9340.1695 -7569.1676 299.6054 924.7218 1033.0077 30763.8472 190.8324 283.7843
ENERGY: 600000 7.3482 3.7052 4.5484 0.0000 -10602.8955 1306.5149 0.0000 0.0000 1762.7891 -7517.9896 296.8298 -9280.7787 -7563.3069 298.6756 -1197.2585 -1039.4800 30738.8856 -140.5149 -46.2811
ENERGY: 900000 3.5360 5.0893 4.8371 0.0000 -10836.7314 1452.6804 0.0000 0.0000 1821.4429 -7549.1457 306.7063 -9370.5886 -7562.0815 299.8593 25.1821 19.0127 30232.3734 -216.3856 -140.6426
ENERGY: 1200000 3.6028 2.7358 1.9935 0.0000 -10716.0466 1451.6148 0.0000 0.0000 1782.2631 -7473.8367 300.1089 -9256.0997 -7554.6932 299.5513 105.5358 151.1040 30794.2833 -151.4436 -80.8550
ENERGY: 1500000 4.3724 3.6624 1.9619 0.0000 -10787.0485 1450.2741 0.0000 0.0000 1819.0687 -7507.7090 306.3065 -9326.7777 -7547.8042 300.8002 -16.8876 4.2179 30716.4577 -104.7551 -33.9478
TCL: Running FEP window  13: Lambda1 0.6    Lambda2 0.65   [dLambda 0.050000000000000044]
TCL: Setting parameter firsttimestep to 0
TCL: Setting parameter alchLambda to 0.6
Info: NONBONDED TABLE R-SQUARED SPACING: 0.0625
Info: NONBONDED TABLE SIZE: 705 POINTS
TCL: Setting parameter alchLambda2 to 0.65
Info: NONBONDED TABLE R-SQUARED SPACING: 0.0625
Info: NONBONDED TABLE SIZE: 705 POINTS
TCL: Running for 1500000 steps
ETITLE: TS BOND ANGLE DIHED IMPRP ELECT VDW BOUNDARY MISC KINETIC TOTAL TEMP POTENTIAL TOTALAVG TEMPAVG PRESSURE GPRESSURE VOLUME PRESSAVG GPRESSAVG
ENERGY: 0 4.3724 3.6624 1.9619 0.0000 -10787.3725 1451.1048 0.0000 0.0000 1818.1716 -7508.0993 306.1555 -9326.2710 -7508.0993 306.1555 -56.5013 19.1863 30716.4577 -56.5013 19.1863
ENERGY: 300000 2.3693 4.2427 6.2656 0.0000 -10908.0634 1502.6365 0.0000 0.0000 1791.3407 -7601.2085 301.6375 -9392.5492 -7559.5645 302.6786 101.0369 101.4070 30847.1238 -55.3722 -28.3260
ENERGY: 600000 2.7549 5.4951 1.7293 0.0000 -10907.5166 1515.7628 0.0000 0.0000 1784.3500 -7597.4244 300.4604 -9381.7745 -7544.2652 303.3623 147.9691 254.2917 30525.5134 -166.2931 -118.1893
ENERGY: 900000 2.0704 3.6674 3.4761 0.0000 -10899.4607 1527.7258 0.0000 0.0000 1769.4220 -7593.0991 297.9467 -9362.5210 -7542.0417 302.2694 536.5014 617.5926 30335.2805 -76.5506 -22.9198
ENERGY: 1200000 3.7948 5.1021 2.7621 0.0000 -10714.5250 1475.3792 0.0000 0.0000 1811.3487 -7416.1382 305.0066 -9227.4869 -7535.3848 302.5298 340.4454 391.2775 30927.6437 -15.0207 37.2658
ENERGY: 1500000 2.8736 5.0491 2.2533 0.0000 -10855.4356 1448.1830 0.0000 0.0000 1782.9783 -7614.0984 300.2294 -9397.0766 -7538.2020 302.0316 -236.4613 -197.8774 30721.7585 -55.3876 -2.7773
TCL: Running FEP window  14: Lambda1 0.65   Lambda2 0.7000000000000001 [dLambda 0.050000000000000044]
TCL: Setting parameter firsttimestep to 0
TCL: Setting parameter alchLambda to 0.65
Info: NONBONDED TABLE R-SQUARED SPACING: 0.0625
Info: NONBONDED TABLE SIZE: 705 POINTS
TCL: Setting parameter alchLambda2 to 0.7000000000000001
Info: NONBONDED TABLE R-SQUARED SPACING: 0.0625
Info: NONBONDED TABLE SIZE: 705 POINTS
TCL: Running for 1500000 steps
ETITLE: TS BOND ANGLE DIHED IMPRP ELECT VDW BOUNDARY MISC KINETIC TOTAL TEMP POTENTIAL TOTALAVG TEMPAVG PRESSURE GPRESSURE VOLUME PRESSAVG GPRESSAVG
ENERGY: 0 2.8736 5.0491 2.2533 0.0000 -10855.7143 1447.9054 0.0000 0.0000 1782.0649 -7615.5681 300.0756 -9397.6330 -7615.5681 300.0756 -266.1444 -192.7854 30721.7585 -266.1444 -192.7854
ENERGY: 300000 1.9890 4.4414 2.3953 0.0000 -10723.6893 1417.9742 0.0000 0.0000 1751.6948 -7545.1946 294.9617 -9296.8894 -7560.1592 297.8602 -276.9141 -202.9144 31168.3541 -78.5171 -12.4059
ENERGY: 600000 2.7705 4.6288 2.2463 0.0000 -10756.5980 1422.3537 0.0000 0.0000 1840.2181 -7484.3806 309.8678 -9324.5986 -7542.0043 300.3751 -81.4703 15.1476 30447.7273 -144.5431 -64.9804
ENERGY: 900000 2.4001 3.9512 5.4470 0.0000 -10595.2920 1283.8260 0.0000 0.0000 1854.6604 -7445.0073 312.2997 -9299.6677 -7531.1965 301.4777 -1292.0372 -1268.0722 30965.3205 -231.9331 -165.6251
ENERGY: 1200000 3.3769 9.2700 2.9978 0.0000 -10792.9849 1457.7847 0.0000 0.0000 1784.7756 -7534.7799 300.5320 -9319.5555 -7533.7703 301.8377 237.9083 286.7734 30451.2252 -136.1950 -67.8686
ENERGY: 1500000 1.7119 5.1270 4.0904 0.0000 -10793.0151 1479.3765 0.0000 0.0000 1748.6633 -7554.0460 294.4512 -9302.7092 -7534.6061 301.2406 254.3325 322.2418 30816.7094 -127.6165 -56.6620
TCL: Running FEP window  15: Lambda1 0.7000000000000001 Lambda2 0.7500000000000001 [dLambda 0.050000000000000044]
TCL: Setting parameter firsttimestep to 0
TCL: Setting parameter alchLambda to 0.7000000000000001
Info: NONBONDED TABLE R-SQUARED SPACING: 0.0625
Info: NONBONDED TABLE SIZE: 705 POINTS
TCL: Setting parameter alchLambda2 to 0.7500000000000001
Info: NONBONDED TABLE R-SQUARED SPACING: 0.0625
Info: NONBONDED TABLE SIZE: 705 POINTS
TCL: Running for 1500000 steps
ETITLE: TS BOND ANGLE DIHED IMPRP ELECT VDW BOUNDARY MISC KINETIC TOTAL TEMP POTENTIAL TOTALAVG TEMPAVG PRESSURE GPRESSURE VOLUME PRESSAVG GPRESSAVG
ENERGY: 0 1.7119 5.1270 4.0904 0.0000 -10793.8304 1479.2895 0.0000 0.0000 1747.8000 -7555.8116 294.3058 -9303.6116 -7555.8116 294.3058 260.7724 331.6933 30816.7094 260.7724 331.6933
ENERGY: 300000 4.4260 3.6973 1.1566 0.0000 -10694.0017 1385.7832 0.0000 0.0000 1772.6247 -7526.3140 298.4860 -9298.9387 -7526.9455 298.5412 -601.1991 -519.5727 31150.7776 2.3637 71.9562
ENERGY: 600000 1.5638 3.9841 5.8433 0.0000 -10827.9331 1439.0765 0.0000 0.0000 1809.4239 -7568.0416 304.6825 -9377.4655 -7534.0286 299.0312 -447.1411 -368.2568 30915.1393 149.7612 226.5445
ENERGY: 900000 3.7598 5.2916 1.8989 0.0000 -10815.1339 1495.7150 0.0000 0.0000 1790.8550 -7517.6136 301.5557 -9308.4686 -7518.5753 299.7219 621.9499 687.5730 30294.0578 105.9068 181.5367
ENERGY: 1200000 3.9199 2.7650 2.7543 0.0000 -10618.3363 1353.0560 0.0000 0.0000 1774.6143 -7481.2268 298.8210 -9255.8410 -7522.6612 299.3413 -986.3515 -898.3847 31320.3017 -49.9360 23.5446
ENERGY: 1500000 3.3672 3.8205 1.3034 0.0000 -10724.4943 1391.5577 0.0000 0.0000 1820.0944 -7504.3511 306.4792 -9324.4455 -7526.2338 300.0187 -681.7339 -676.6228 31039.4266 -83.1031 -11.6198
TCL: Running FEP window  16: Lambda1 0.7500000000000001 Lambda2 0.8000000000000002 [dLambda 0.050000000000000044]
TCL: Setting parameter firsttimestep to 0
TCL: Setting parameter alchLambda to 0.7500000000000001
Info: NONBONDED TABLE R-SQUARED SPACING: 0.0625
Info: NONBONDED TABLE SIZE: 705 POINTS
TCL: Setting parameter alchLambda2 to 0.8000000000000002
Info: NONBONDED TABLE R-SQUARED SPACING: 0.0625
Info: NONBONDED TABLE SIZE: 705 POINTS
TCL: Running for 1500000 steps
ETITLE: TS BOND ANGLE DIHED IMPRP ELECT VDW BOUNDARY MISC KINETIC TOTAL TEMP POTENTIAL TOTALAVG TEMPAVG PRESSURE GPRESSURE VOLUME PRESSAVG GPRESSAVG
ENERGY: 0 3.3672 3.8205 1.3034 0.0000 -10725.0746 1392.1191 0.0000 0.0000 1819.2044 -7505.2600 306.3294 -9324.4645 -7505.2600 306.3294 -743.4179 -660.7095 31039.4266 -743.4179 -660.7095
ENERGY: 300000 1.4001 5.2915 1.9343 0.0000 -10731.3107 1378.0396 0.0000 0.0000 1786.3012 -7558.3439 300.7889 -9344.6452 -7558.6152 301.8776 -592.3993 -517.8911 30734.8575 -143.7272 -86.1865
ENERGY: 600000 4.6343 11.0424 3.4438 0.0000 -10737.8396 1451.1760 0.0000 0.0000 1762.2048 -7505.3383 296.7314 -9267.5431 -7545.6481 300.3804 28.7069 53.9677 30855.0512 -95.2272 -40.0430
ENERGY: 900000 4.1176 3.9619 2.9199 0.0000 -10710.3197 1381.6493 0.0000 0.0000 1803.5727 -7514.0983 303.6972 -9317.6710 -7524.4457 301.2570 -397.2151 -313.7504 30522.0717 -311.5535 -251.5279
ENERGY: 1200000 3.5485 4.0141 3.6489 0.0000 -10730.0704 1420.6505 0.0000 0.0000 1787.2040 -7511.0045 300.9409 -9298.2085 -7530.5406 300.7009 -202.2503 -167.5215 30634.3970 -337.2310 -278.8392
ENERGY: 1500000 1.0197 2.5871 3.6228 0.0000 -10994.1429 1594.0918 0.0000 0.0000 1825.4161 -7567.4055 307.3753 -9392.8216 -7533.5869 301.6290 917.6116 950.3244 30755.0602 -272.5753 -214.0110
TCL: Running FEP window  17: Lambda1 0.8000000000000002 Lambda2 0.8500000000000002 [dLambda 0.050000000000000044]
TCL: Setting parameter firsttimestep to 0
TCL: Setting parameter alchLambda to 0.8000000000000002
Info: NONBONDED TABLE R-SQUARED SPACING: 0.0625
Info: NONBONDED TABLE SIZE: 705 POINTS
TCL: Setting parameter alchLambda2 to 0.8500000000000002
Info: NONBONDED TABLE R-SQUARED SPACING: 0.0625
Info: NONBONDED TABLE SIZE: 705 POINTS
TCL: Running for 1500000 steps
ETITLE: TS BOND ANGLE DIHED IMPRP ELECT VDW BOUNDARY MISC KINETIC TOTAL TEMP POTENTIAL TOTALAVG TEMPAVG PRESSURE GPRESSURE VOLUME PRESSAVG GPRESSAVG
ENERGY: 0 1.0197 2.5871 3.6228 0.0000 -10995.5275 1593.7487 0.0000 0.0000 1824.5534 -7569.9959 307.2301 -9394.5493 -7569.9959 307.2301 871.5865 955.6377 30755.0602 871.5865 955.6377
ENERGY: 300000 1.3648 5.3202 6.5191 0.0000 -10859.7026 1460.3803 0.0000 0.0000 1774.7732 -7611.3450 298.8478 -9386.1182 -7560.0500 303.8325 -252.9155 -156.2893 30971.3480 -28.2106 35.4836
ENERGY: 600000 3.0090 3.1628 0.8548 0.0000 -10820.3272 1472.6172 0.0000 0.0000 1772.8123 -7567.8712 298.5176 -9340.6835 -7563.3973 301.4995 92.8854 118.4167 30868.9477 30.9713 84.6447
ENERGY: 900000 2.3583 3.6475 2.1808 0.0000 -10795.6523 1401.6043 0.0000 0.0000 1778.6092 -7607.2522 299.4937 -9385.8614 -7563.8826 300.8512 -378.6613 -344.0503 30326.6981 12.6524 76.3217
ENERGY: 1200000 3.2118 5.1623 4.5357 0.0000 -10703.3027 1411.4594 0.0000 0.0000 1788.7190 -7490.2144 301.1960 -9278.9334 -7554.7905 301.0316 -160.9181 -112.1114 30934.6747 11.7176 72.4926
ENERGY: 1500000 2.6110 1.5938 6.8910 0.0000 -10732.2890 1400.4956 0.0000 0.0000 1751.8025 -7568.8951 294.9798 -9320.6975 -7552.6942 300.9210 -389.9413 -366.4295 30719.6821 5.1672 66.4402
TCL: Running FEP window  18: Lambda1 0.8500000000000002 Lambda2 0.9000000000000002 [dLambda 0.050000000000000044]
TCL: Setting parameter firsttimestep to 0
TCL: Setting parameter alchLambda to 0.8500000000000002
Info: NONBONDED TABLE R-SQUARED SPACING: 0.0625
Info: NONBONDED TABLE SIZE: 705 POINTS
TCL: Setting parameter alchLambda2 to 0.9000000000000002
Info: NONBONDED TABLE R-SQUARED SPACING: 0.0625
Info: NONBONDED TABLE SIZE: 705 POINTS
TCL: Running for 1500000 steps
ETITLE: TS BOND ANGLE DIHED IMPRP ELECT VDW BOUNDARY MISC KINETIC TOTAL TEMP POTENTIAL TOTALAVG TEMPAVG PRESSURE GPRESSURE VOLUME PRESSAVG GPRESSAVG
ENERGY: 0 2.6110 1.5938 6.8910 0.0000 -10733.3296 1400.8230 0.0000 0.0000 1750.9290 -7570.4818 294.8327 -9321.4108 -7570.4818 294.8327 -435.0639 -358.8425 30719.6821 -435.0639 -358.8425
ENERGY: 300000 1.6431 4.4569 2.8704 0.0000 -10805.3958 1497.8246 0.0000 0.0000 1769.6169 -7528.9839 297.9795 -9298.6008 -7580.8094 296.4926 398.8068 406.9600 30766.6942 -245.3472 -184.6777
ENERGY: 600000 1.3595 7.3766 2.1356 0.0000 -10811.7707 1458.3849 0.0000 0.0000 1763.0806 -7579.4336 296.8789 -9342.5142 -7573.9390 295.8495 161.2716 193.9166 30456.4895 -187.8379 -130.6594
ENERGY: 900000 4.8296 6.2069 4.4408 0.0000 -10828.3040 1425.8786 0.0000 0.0000 1826.8365 -7560.1115 307.6145 -9386.9481 -7567.8106 297.6215 -225.2027 -167.6250 30202.7155 -48.0785 10.8485
ENERGY: 1200000 2.1088 6.0455 5.1652 0.0000 -10730.6281 1418.7224 0.0000 0.0000 1766.7941 -7531.7920 297.5042 -9298.5862 -7561.9758 298.2723 -90.2243 -8.8695 30607.0915 -133.8358 -76.1393
ENERGY: 1500000 4.4827 3.5464 4.0834 0.0000 -10771.8323 1413.3310 0.0000 0.0000 1777.7181 -7568.6708 299.3436 -9346.3889 -7566.6884 298.4025 -661.1866 -556.9868 31034.6527 -231.6969 -174.5898
TCL: Running FEP window  19: Lambda1 0.9000000000000002 Lambda2 0.9500000000000003 [dLambda 0.050000000000000044]
TCL: Setting parameter firsttimestep to 0
TCL: Setting parameter alchLambda to 0.9000000000000002
Info: NONBONDED TABLE R-SQUARED SPACING: 0.0625
Info: NONBONDED TABLE SIZE: 705 POINTS
TCL: Setting parameter alchLambda2 to 0.9500000000000003
Info: NONBONDED TABLE R-SQUARED SPACING: 0.0625
Info: NONBONDED TABLE SIZE: 705 POINTS
TCL: Running for 1500000 steps
ETITLE: TS BOND ANGLE DIHED IMPRP ELECT VDW BOUNDARY MISC KINETIC TOTAL TEMP POTENTIAL TOTALAVG TEMPAVG PRESSURE GPRESSURE VOLUME PRESSAVG GPRESSAVG
ENERGY: 0 4.4827 3.5464 4.0834 0.0000 -10772.5270 1413.3852 0.0000 0.0000 1776.8314 -7570.1979 299.1943 -9347.0294 -7570.1979 299.1943 -631.6247 -547.4120 31034.6527 -631.6247 -547.4120
ENERGY: 300000 3.7760 4.0471 2.4572 0.0000 -10790.7072 1506.0542 0.0000 0.0000 1763.5468 -7510.8258 296.9574 -9274.3726 -7533.5182 301.0089 741.3510 781.6379 30239.0584 -78.0811 1.1343
ENERGY: 600000 2.0310 2.4836 2.5727 0.0000 -10913.3482 1525.8694 0.0000 0.0000 1748.2819 -7632.1097 294.3870 -9380.3916 -7547.1153 300.0721 630.5398 698.0891 30537.3345 -4.2935 63.7524
ENERGY: 900000 4.1152 3.3839 3.0681 0.0000 -10897.0963 1473.9746 0.0000 0.0000 1772.2824 -7640.2721 298.4283 -9412.5545 -7571.4123 299.6840 -149.7291 -79.9395 30719.1603 63.0994 126.0837
ENERGY: 1200000 2.1514 3.1773 6.5495 0.0000 -10735.6630 1451.9902 0.0000 0.0000 1769.8018 -7501.9928 298.0106 -9271.7946 -7563.5198 298.8350 141.9377 171.0283 31061.0167 50.0216 103.6735
ENERGY: 1500000 2.4499 5.1213 2.0058 0.0000 -10696.1941 1407.8544 0.0000 0.0000 1798.2482 -7480.5145 302.8006 -9278.7627 -7562.2797 299.3901 -318.7311 -234.0876 31082.8933 29.6399 88.9011
TCL: Running FEP window  20: Lambda1 0.9500000000000003 Lambda2 1.0    [dLambda 0.04999999999999971]
TCL: Setting parameter firsttimestep to 0
TCL: Setting parameter alchLambda to 0.9500000000000003
Info: NONBONDED TABLE R-SQUARED SPACING: 0.0625
Info: NONBONDED TABLE SIZE: 705 POINTS
TCL: Setting parameter alchLambda2 to 1.0
Info: NONBONDED TABLE R-SQUARED SPACING: 0.0625
Info: NONBONDED TABLE SIZE: 705 POINTS
TCL: Running for 1500000 steps
ETITLE: TS BOND ANGLE DIHED IMPRP ELECT VDW BOUNDARY MISC KINETIC TOTAL TEMP POTENTIAL TOTALAVG TEMPAVG PRESSURE GPRESSURE VOLUME PRESSAVG GPRESSAVG
ENERGY: 0 2.4499 5.1213 2.0058 0.0000 -10697.0872 1408.3107 0.0000 0.0000 1797.3244 -7481.8751 302.6451 -9279.1995 -7481.8751 302.6451 -292.7229 -217.8318 31082.8933 -292.7229 -217.8318
ENERGY: 300000 1.2520 6.9726 2.5217 0.0000 -10740.9110 1355.2427 0.0000 0.0000 1768.7300 -7606.1920 297.8302 -9374.9220 -7556.6219 300.4971 -989.0289 -904.2151 31013.2647 -331.0941 -270.3589
ENERGY: 600000 2.8331 2.5592 3.3729 0.0000 -10602.3393 1340.8976 0.0000 0.0000 1734.4924 -7518.1841 292.0650 -9252.6765 -7541.4536 299.6397 -847.3999 -754.4815 31040.1515 -409.8196 -344.5421
ENERGY: 900000 1.1922 5.1931 3.1333 0.0000 -10949.0978 1532.3376 0.0000 0.0000 1799.9909 -7607.2507 303.0941 -9407.2416 -7548.5444 299.7204 616.7194 689.3929 30226.5817 -223.4593 -155.2590
ENERGY: 1200000 5.2621 4.8288 3.2997 0.0000 -10699.9213 1414.5554 0.0000 0.0000 1758.5985 -7513.3768 296.1242 -9271.9753 -7546.2388 299.8053 113.6764 207.5556 30509.9491 -183.9777 -120.4454
ENERGY: 1500000 2.3950 6.7578 3.8250 0.0000 -10832.9277 1460.5835 0.0000 0.0000 1768.3743 -7590.9920 297.7703 -9359.3663 -7550.9090 299.9238 391.8453 410.4993 30265.4769 -130.6838 -68.4135
TCL: Exiting due to exit command.
