Info: SIMULATION PARAMETERS:
Info: TIMESTEP               2
Info: NUMBER OF STEPS        0
Info: STEPS PER CYCLE        10
Info: PERIODIC CELL BASIS 1  30.0577 0 0
Info: PERIODIC CELL BASIS 2  0 30.3384 0
Info: PERIODIC CELL BASIS 3  0 0 32.9374
Info: PERIODIC CELL CENTER   0 0 0
Info: WRAPPING WATERS AROUND PERIODIC BOUNDARIES ON OUTPUT.
Info: WRAPPING ALL CLUSTERS AROUND PERIODIC BOUNDARIES ON OUTPUT.
Info: FIRST LDB TIMESTEP     50
Info: LAST LDB TIMESTEP     -1
Info: HOM BACKGROUND SCALING 1
Info: PME BACKGROUND SCALING 1
Info: MIN ATOMS PER PATCH    40
Info: EMPTY PATCH LOAD       40 ATOMS
Info: VELOCITY FILE          mobley_9114381_equil.vel
Info: CENTER OF MASS MOVING INITIALLY? NO
Info: DIELECTRIC             1
Info: EXCLUDE                SCALED ONE-FOUR
Info: 1-4 ELECTROSTATICS SCALED BY 0.833333
Info: MODIFIED 1-4 VDW PARAMETERS WILL BE USED
Info: DCD FILENAME           mobley_9114381_prod.dcd
Info: DCD FREQUENCY          100000
Info: DCD FIRST STEP         100000
Info: DCD FILE WILL CONTAIN UNIT CELL DATA
Info: XST FILENAME           mobley_9114381_prod.xst
Info: XST FREQUENCY          100000
Info: NO VELOCITY DCD OUTPUT
Info: NO FORCE DCD OUTPUT
Info: OUTPUT FILENAME        mobley_9114381_prod
Info: BINARY OUTPUT FILES WILL BE USED
Info: RESTART FILENAME       mobley_9114381_prod.restart
Info: RESTART FREQUENCY      100000
Info: BINARY RESTART FILES WILL BE USED
Info: CUTOFF                 9
Info: PAIRLIST DISTANCE      11
Info: PAIRLIST SHRINK RATE   0.01
Info: PAIRLIST GROW RATE     0.01
Info: PAIRLIST TRIGGER       0.3
Info: PAIRLISTS PER CYCLE    2
Info: PAIRLISTS ENABLED
Info: MARGIN                 2
Info: HYDROGEN GROUP CUTOFF  2.5
Info: PATCH DIMENSION        15.5
Info: ENERGY OUTPUT STEPS    100000
Info: ENERGY EVALUATION STEPS    100000
Info: OUTPUT ENERGY PRECISION 4
Info: CROSSTERM ENERGY INCLUDED IN DIHEDRAL
Info: TIMING OUTPUT STEPS    1000000
Info: PRESSURE OUTPUT STEPS  100000
Info: ALCHEMICAL FEP ON
Info: FEP CURRENT LAMBDA VALUE     0
Info: FEP COMPARISON LAMBDA VALUE  0.05
Info: FEP INTRA-ALCHEMICAL NON-BONDED INTERACTIONS WILL BE RETAINED
Info: FEP INTRA-ALCHEMICAL BONDED INTERACTIONS WILL BE RETAINED
Info: FEP VDW SHIFTING COEFFICIENT 5
Info: FEP ELEC. ACTIVE FOR ANNIHILATED PARTICLES BETWEEN LAMBDA = 0 AND LAMBDA = 0.5
Info: FEP ELEC. ACTIVE FOR EXNIHILATED PARTICLES BETWEEN LAMBDA = 0.5 AND LAMBDA = 1
Info: FEP VDW ACTIVE FOR ANNIHILATED PARTICLES BETWEEN LAMBDA = 0 AND LAMBDA = 1
Info: FEP VDW ACTIVE FOR EXNIHILATED PARTICLES BETWEEN LAMBDA = 0 AND LAMBDA = 1
Info: FEP BOND ACTIVE FOR ANNIHILATED PARTICLES BETWEEN LAMBDA = 1 AND LAMBDA = 1
Info: FEP BOND ACTIVE FOR EXNIHILATED PARTICLES BETWEEN LAMBDA = 0 AND LAMBDA = 0
Info: LANGEVIN DYNAMICS ACTIVE
Info: LANGEVIN TEMPERATURE   300
Info: LANGEVIN USING BBK INTEGRATOR
Info: LANGEVIN DAMPING COEFFICIENT IS 1 INVERSE PS
Info: LANGEVIN DYNAMICS APPLIED TO HYDROGENS
Info: LANGEVIN PISTON PRESSURE CONTROL ACTIVE
Info:        TARGET PRESSURE IS 1.01325 BAR
Info:     OSCILLATION PERIOD IS 50 FS
Info:             DECAY TIME IS 25 FS
Info:     PISTON TEMPERATURE IS 300 K
Info:       PRESSURE CONTROL IS GROUP-BASED
Info:    INITIAL STRAIN RATE IS -0.00040993 -0.00040993 -0.00040993
Info:       CELL FLUCTUATION IS ISOTROPIC
Info: PARTICLE MESH EWALD (PME) ACTIVE
Info: PME TOLERANCE               1e-06
Info: PME EWALD COEFFICIENT       0.348832
Info: PME INTERPOLATION ORDER     4
Info: PME GRID DIMENSIONS         32 32 36
Info: PME MAXIMUM GRID SPACING    1
Info: PME CALCULATION WILL BE PERFORMED ON GPU
Info: FULL ELECTROSTATIC EVALUATION FREQUENCY      2
Info: USING VERLET I (r-RESPA) MTS SCHEME.
Info: C1 SPLITTING OF LONG RANGE ELECTROSTATICS
Info: PLACING ATOMS IN PATCHES BY HYDROGEN GROUPS
Info: RIGID BONDS TO HYDROGEN : ALL
Info:         ERROR TOLERANCE : 1e-08
Info:          MAX ITERATIONS : 100
Info: RIGID WATER USING SETTLE ALGORITHM
Info: RANDOM NUMBER SEED     1743725611
Info: USE HYDROGEN BONDS?    NO
Info: Using AMBER format force field!
Info: AMBER PARM FILE        mobley_9114381.prmtop
Info: COORDINATE PDB         mobley_9114381.pdb
Info: Exclusions will be read from PARM file!
Info: SCNB (VDW SCALING)     2
Info: USING ARITHMETIC MEAN TO COMBINE L-J SIGMA PARAMETERS
Info: BINARY COORDINATES     mobley_9114381_equil.coor
Info: SUMMARY OF PARAMETERS:
Info: 10 BONDS
Info: 11 ANGLES
Info:   11 HARMONIC
Info:   0 COSINE-BASED
Info: 10 DIHEDRAL
Info: 0 IMPROPER
Info: 0 CROSSTERM
Info: 0 VDW
Info: 55 VDW_PAIRS
Info: 0 NBTHOLE_PAIRS
Info: To read alchdata from file: mobley_9114381.pdb
Info: To read alchflag data from column: 5
Info: STRUCTURE SUMMARY:
Info: 2937 ATOMS
Info: 2936 BONDS
Info: 17 ANGLES
Info: 22 DIHEDRALS
Info: 0 IMPROPERS
Info: 0 CROSSTERMS
Info: 2967 EXCLUSIONS
Info: 2930 RIGID BONDS
Info: ALCH: 0 ATOMS TO DISAPPEAR IN FINAL STATE
Info: ALCH: 12 ATOMS TO APPEAR IN FINAL STATE
Info: 5881 DEGREES OF FREEDOM
Info: 982 HYDROGEN GROUPS
Info: 4 ATOMS IN LARGEST HYDROGEN GROUP
Info: 982 MIGRATION GROUPS
Info: 4 ATOMS IN LARGEST MIGRATION GROUP
Info: TOTAL MASS = 17664.7 amu
Info: TOTAL CHARGE = -0.000200007 e
Info: MASS DENSITY = 0.976623 g/cm^3
Info: ATOM DENSITY = 0.0977835 atoms/A^3
Info: ADDED 0 IMPLICIT EXCLUSIONS
Info: NONBONDED TABLE R-SQUARED SPACING: 0.0625
Info: NONBONDED TABLE SIZE: 705 POINTS
Info: REMOVING COM VELOCITY -0.209232 -0.08918 0.0297829
Info: Use 3D box decompostion in PME FFT.
Info: Updated CUDA force table with 4096 elements.
Info: Updated CUDA LJ table with 10 x 10 elements.
Info: Found 14 unique exclusion lists needing 24 bytes
TCL: Running for 1500000 steps
ETITLE: TS BOND ANGLE DIHED IMPRP ELECT VDW BOUNDARY MISC KINETIC TOTAL TEMP POTENTIAL TOTALAVG TEMPAVG PRESSURE GPRESSURE VOLUME PRESSAVG GPRESSAVG
ENERGY: 0 1.3957 3.9992 2.5232 0.0000 -10564.4259 1326.8160 0.0000 0.0000 1769.0165 -7460.6753 302.7409 -9229.6918 -7460.6753 302.7409 -800.7323 -711.2759 30035.7297 -800.7323 -711.2759
ENERGY: 300000 2.1184 4.5407 1.6861 0.0000 -10584.5469 1342.4090 0.0000 0.0000 1731.2834 -7502.5093 296.2834 -9233.7927 -7466.8109 303.1656 -934.2774 -968.2819 30844.9481 -397.6237 -352.5421
ENERGY: 600000 3.1193 5.5367 2.3957 0.0000 -10539.9471 1348.5230 0.0000 0.0000 1806.0030 -7374.3694 309.0706 -9180.3724 -7454.1970 302.7409 -701.7625 -678.4317 30578.5527 -398.1280 -336.7572
ENERGY: 900000 2.2604 4.2271 2.4937 0.0000 -10608.3981 1370.5864 0.0000 0.0000 1787.9636 -7440.8670 305.9834 -9228.8306 -7475.5468 300.4673 -801.1399 -723.5896 30788.3823 -398.6759 -331.2136
ENERGY: 1200000 1.1206 5.3168 0.9129 0.0000 -10663.1810 1415.7765 0.0000 0.0000 1778.0358 -7462.0184 304.2844 -9240.0542 -7477.8023 300.6063 -273.4806 -215.7479 30300.4870 -331.5146 -262.9758
ENERGY: 1500000 0.9665 4.2409 3.9678 0.0000 -10747.9282 1478.1812 0.0000 0.0000 1787.0005 -7473.5712 305.8186 -9260.5717 -7484.2019 300.2499 34.4657 172.3363 30350.4278 -228.8848 -161.1654
TCL: Running FEP window   2: Lambda1 0.05   Lambda2 0.1    [dLambda 0.05  ]
TCL: Setting parameter firsttimestep to 0
TCL: Setting parameter alchLambda to 0.05
Info: NONBONDED TABLE R-SQUARED SPACING: 0.0625
Info: NONBONDED TABLE SIZE: 705 POINTS
TCL: Setting parameter alchLambda2 to 0.1
Info: NONBONDED TABLE R-SQUARED SPACING: 0.0625
Info: NONBONDED TABLE SIZE: 705 POINTS
TCL: Running for 1500000 steps
ETITLE: TS BOND ANGLE DIHED IMPRP ELECT VDW BOUNDARY MISC KINETIC TOTAL TEMP POTENTIAL TOTALAVG TEMPAVG PRESSURE GPRESSURE VOLUME PRESSAVG GPRESSAVG
ENERGY: 0 0.9665 4.2409 3.9678 0.0000 -10747.9277 1481.4521 0.0000 0.0000 1786.1332 -7471.1672 305.6702 -9257.3004 -7471.1672 305.6702 78.5856 178.8322 30350.4278 78.5856 178.8322
ENERGY: 300000 1.5021 5.6476 2.3077 0.0000 -10647.2580 1462.1126 0.0000 0.0000 1817.9541 -7357.7340 311.1158 -9175.6881 -7436.0584 304.4859 494.6099 549.6384 30065.4049 175.8802 237.8631
ENERGY: 600000 1.1351 3.8281 2.0983 0.0000 -10750.8345 1467.6527 0.0000 0.0000 1755.2042 -7520.9161 300.3771 -9276.1204 -7458.5484 304.2573 409.8071 467.8286 29775.5542 210.5813 270.2484
ENERGY: 900000 3.2742 3.0915 4.1129 0.0000 -10744.1780 1415.7090 0.0000 0.0000 1762.6114 -7555.3789 301.6448 -9317.9903 -7485.0309 302.0375 -309.9535 -223.8715 30091.9572 54.1103 119.3345
ENERGY: 1200000 0.8249 1.9587 3.8747 0.0000 -10539.9420 1361.4821 0.0000 0.0000 1732.6317 -7439.1699 296.5142 -9171.8016 -7479.3683 301.3673 -331.1849 -228.6949 30022.7491 40.2916 104.4063
ENERGY: 1500000 1.9439 2.5033 4.5970 0.0000 -10704.9804 1471.2264 0.0000 0.0000 1784.4971 -7440.2127 305.3902 -9224.7099 -7481.5963 301.2345 139.0636 205.4207 30146.3778 43.5570 103.1274
TCL: Running FEP window   3: Lambda1 0.1    Lambda2 0.15000000000000002 [dLambda 0.05000000000000002]
TCL: Setting parameter firsttimestep to 0
TCL: Setting parameter alchLambda to 0.1
Info: NONBONDED TABLE R-SQUARED SPACING: 0.0625
Info: NONBONDED TABLE SIZE: 705 POINTS
TCL: Setting parameter alchLambda2 to 0.15000000000000002
Info: NONBONDED TABLE R-SQUARED SPACING: 0.0625
Info: NONBONDED TABLE SIZE: 705 POINTS
TCL: Running for 1500000 steps
ETITLE: TS BOND ANGLE DIHED IMPRP ELECT VDW BOUNDARY MISC KINETIC TOTAL TEMP POTENTIAL TOTALAVG TEMPAVG PRESSURE GPRESSURE VOLUME PRESSAVG GPRESSAVG
ENERGY: 0 1.9439 2.5033 4.5970 0.0000 -10704.9794 1471.9481 0.0000 0.0000 1783.5703 -7440.4168 305.2316 -9223.9871 -7440.4168 305.2316 112.5982 210.2240 30146.3778 112.5982 210.2240
ENERGY: 300000 0.8180 4.7082 1.5362 0.0000 -10760.2976 1498.2939 0.0000 0.0000 1742.2637 -7512.6775 298.1626 -9254.9413 -7450.0419 301.9645 284.9328 302.4648 30635.4202 -159.6634 -106.5072
ENERGY: 600000 2.1922 4.2611 2.2386 0.0000 -10631.9747 1386.4523 0.0000 0.0000 1774.7308 -7462.0997 303.7188 -9236.8305 -7476.1371 300.5113 -421.5650 -343.6587 30390.9070 -16.2869 45.4333
ENERGY: 900000 0.6369 1.7585 3.2471 0.0000 -10644.1298 1384.4072 0.0000 0.0000 1730.6715 -7523.4086 296.1787 -9254.0800 -7482.8874 299.8168 -388.6809 -394.9759 29934.3218 -141.4507 -82.6453
ENERGY: 1200000 1.0476 4.5900 2.6203 0.0000 -10735.1132 1421.6981 0.0000 0.0000 1702.4134 -7602.7439 291.3428 -9305.1573 -7479.9351 299.3028 -350.4021 -361.6550 30312.8467 -236.3542 -178.8955
ENERGY: 1500000 3.3029 3.9991 1.9238 0.0000 -10703.7436 1485.0915 0.0000 0.0000 1773.8327 -7435.5936 303.5651 -9209.4262 -7474.7870 299.7096 444.8062 526.0077 30310.4783 -128.5332 -69.5901
TCL: Running FEP window   4: Lambda1 0.15000000000000002 Lambda2 0.2    [dLambda 0.04999999999999999]
TCL: Setting parameter firsttimestep to 0
TCL: Setting parameter alchLambda to 0.15000000000000002
Info: NONBONDED TABLE R-SQUARED SPACING: 0.0625
Info: NONBONDED TABLE SIZE: 705 POINTS
TCL: Setting parameter alchLambda2 to 0.2
Info: NONBONDED TABLE R-SQUARED SPACING: 0.0625
Info: NONBONDED TABLE SIZE: 705 POINTS
TCL: Running for 1500000 steps
ETITLE: TS BOND ANGLE DIHED IMPRP ELECT VDW BOUNDARY MISC KINETIC TOTAL TEMP POTENTIAL TOTALAVG TEMPAVG PRESSURE GPRESSURE VOLUME PRESSAVG GPRESSAVG
ENERGY: 0 3.3029 3.9991 1.9238 0.0000 -10703.7431 1485.2233 0.0000 0.0000 1772.9570 -7436.3369 303.4153 -9209.2940 -7436.3369 303.4153 432.6695 528.6907 30310.4783 432.6695 528.6907
ENERGY: 300000 2.6452 3.7342 2.2083 0.0000 -10795.9889 1519.4886 0.0000 0.0000 1728.0625 -7539.8500 295.7322 -9267.9125 -7504.1734 298.7153 385.2365 476.3049 30213.9855 -54.7863 20.8760
ENERGY: 600000 4.5227 8.7786 0.9231 0.0000 -10519.4252 1347.6119 0.0000 0.0000 1759.5486 -7398.0403 301.1206 -9157.5889 -7479.4418 297.5310 -699.9893 -646.2491 30673.0083 -278.9863 -194.8481
ENERGY: 900000 4.0080 2.6677 3.7079 0.0000 -10711.8214 1467.4840 0.0000 0.0000 1803.1823 -7430.7715 308.5879 -9233.9538 -7487.9734 298.5083 338.8189 388.2937 30129.3961 -119.2440 -45.9102
ENERGY: 1200000 0.8643 7.9343 3.6802 0.0000 -10684.1972 1437.6544 0.0000 0.0000 1687.8763 -7546.1877 288.8549 -9234.0640 -7496.0635 297.6447 -362.9432 -304.6152 30621.4724 -175.4910 -110.5842
ENERGY: 1500000 1.1402 5.2649 2.9489 0.0000 -10657.8169 1493.5005 0.0000 0.0000 1733.4636 -7421.4987 296.6566 -9154.9624 -7498.8167 297.7276 911.5322 907.5515 29857.2892 -114.8404 -48.3774
TCL: Running FEP window   5: Lambda1 0.2    Lambda2 0.25   [dLambda 0.04999999999999999]
TCL: Setting parameter firsttimestep to 0
TCL: Setting parameter alchLambda to 0.2
Info: NONBONDED TABLE R-SQUARED SPACING: 0.0625
Info: NONBONDED TABLE SIZE: 705 POINTS
TCL: Setting parameter alchLambda2 to 0.25
Info: NONBONDED TABLE R-SQUARED SPACING: 0.0625
Info: NONBONDED TABLE SIZE: 705 POINTS
TCL: Running for 1500000 steps
ETITLE: TS BOND ANGLE DIHED IMPRP ELECT VDW BOUNDARY MISC KINETIC TOTAL TEMP POTENTIAL TOTALAVG TEMPAVG PRESSURE GPRESSURE VOLUME PRESSAVG GPRESSAVG
ENERGY: 0 1.1402 5.2649 2.9489 0.0000 -10657.8180 1494.7134 0.0000 0.0000 1732.5858 -7421.1648 296.5063 -9153.7506 -7421.1648 296.5063 840.1217 916.2243 29857.2892 840.1217 916.2243
ENERGY: 300000 2.8538 3.7225 3.4752 0.0000 -10602.5113 1421.2717 0.0000 0.0000 1733.1499 -7438.0382 296.6029 -9171.1881 -7431.3555 299.9607 54.7389 130.4323 30246.0249 200.5004 270.0324
ENERGY: 600000 1.8746 4.7693 2.1432 0.0000 -10838.6757 1497.1617 0.0000 0.0000 1772.2231 -7560.5038 303.2897 -9332.7269 -7456.8989 302.4120 174.5954 336.7816 29820.0224 140.3076 228.1603
ENERGY: 900000 0.4933 7.4075 2.2182 0.0000 -10686.7562 1394.7769 0.0000 0.0000 1736.2380 -7545.6223 297.1313 -9281.8603 -7480.7992 300.7552 -685.4472 -636.8869 30496.7638 4.3507 82.4757
ENERGY: 1200000 2.2548 5.0498 2.0724 0.0000 -10757.6919 1476.4292 0.0000 0.0000 1741.3122 -7530.5736 297.9997 -9271.8858 -7487.3198 300.0694 641.4714 670.7240 29645.0008 69.9904 139.7292
ENERGY: 1500000 4.0202 6.6452 2.2942 0.0000 -10541.7567 1305.6083 0.0000 0.0000 1733.1014 -7490.0872 296.5946 -9223.1886 -7491.0097 299.3805 -1004.1795 -924.5013 30285.5255 -76.2059 -9.4714
TCL: Running FEP window   6: Lambda1 0.25   Lambda2 0.3    [dLambda 0.04999999999999999]
TCL: Setting parameter firsttimestep to 0
TCL: Setting parameter alchLambda to 0.25
Info: NONBONDED TABLE R-SQUARED SPACING: 0.0625
Info: NONBONDED TABLE SIZE: 705 POINTS
TCL: Setting parameter alchLambda2 to 0.3
Info: NONBONDED TABLE R-SQUARED SPACING: 0.0625
Info: NONBONDED TABLE SIZE: 705 POINTS
TCL: Running for 1500000 steps
ETITLE: TS BOND ANGLE DIHED IMPRP ELECT VDW BOUNDARY MISC KINETIC TOTAL TEMP POTENTIAL TOTALAVG TEMPAVG PRESSURE GPRESSURE VOLUME PRESSAVG GPRESSAVG
ENERGY: 0 4.0202 6.6452 2.2942 0.0000 -10541.7572 1306.6707 0.0000 0.0000 1732.2087 -7489.9181 296.4418 -9222.1267 -7489.9181 296.4418 -987.5825 -915.4320 30285.5255 -987.5825 -915.4320
ENERGY: 300000 0.7338 7.4258 3.2671 0.0000 -10762.1669 1473.7498 0.0000 0.0000 1723.0616 -7553.9290 294.8764 -9276.9906 -7492.9730 296.6753 104.0420 129.0028 30154.8928 -61.6821 -3.6606
ENERGY: 600000 3.6376 4.8573 2.7364 0.0000 -10533.1730 1334.0672 0.0000 0.0000 1796.4966 -7391.3778 307.4437 -9187.8744 -7489.2741 298.8524 -893.5545 -792.4506 30732.6210 -99.0736 -42.4591
ENERGY: 900000 1.6972 4.0961 2.6928 0.0000 -10704.9077 1529.4645 0.0000 0.0000 1735.2128 -7431.7444 296.9559 -9166.9572 -7503.9207 298.7844 860.9473 869.1214 30368.8068 28.1417 78.3110
ENERGY: 1200000 2.1250 7.4440 1.3819 0.0000 -10647.7151 1420.7802 0.0000 0.0000 1765.4869 -7450.4971 302.1369 -9215.9840 -7487.5482 299.8260 -81.4540 9.5511 30199.2075 7.9739 65.3494
ENERGY: 1500000 1.4394 5.4283 4.9905 0.0000 -10783.9098 1489.2902 0.0000 0.0000 1700.8247 -7581.9367 291.0709 -9282.7614 -7490.2503 299.8599 343.1210 443.9289 29784.6905 13.3472 76.8546
TCL: Running FEP window   7: Lambda1 0.3    Lambda2 0.35   [dLambda 0.04999999999999999]
TCL: Setting parameter firsttimestep to 0
TCL: Setting parameter alchLambda to 0.3
Info: NONBONDED TABLE R-SQUARED SPACING: 0.0625
Info: NONBONDED TABLE SIZE: 705 POINTS
TCL: Setting parameter alchLambda2 to 0.35
Info: NONBONDED TABLE R-SQUARED SPACING: 0.0625
Info: NONBONDED TABLE SIZE: 705 POINTS
TCL: Running for 1500000 steps
ETITLE: TS BOND ANGLE DIHED IMPRP ELECT VDW BOUNDARY MISC KINETIC TOTAL TEMP POTENTIAL TOTALAVG TEMPAVG PRESSURE GPRESSURE VOLUME PRESSAVG GPRESSAVG
ENERGY: 0 1.4394 5.4283 4.9905 0.0000 -10783.9095 1490.8170 0.0000 0.0000 1699.9999 -7581.2344 290.9297 -9281.2343 -7581.2344 290.9297 379.0843 457.5101 29784.6905 379.0843 457.5101
ENERGY: 300000 2.9393 3.3579 2.3439 0.0000 -10678.8536 1401.3734 0.0000 0.0000 1715.3384 -7553.5007 293.5547 -9268.8391 -7523.5221 296.1552 -421.9974 -321.5562 30153.4133 -202.7503 -110.8851
ENERGY: 600000 3.7605 4.1987 5.0927 0.0000 -10695.3618 1511.1778 0.0000 0.0000 1761.3445 -7409.7874 301.4280 -9171.1319 -7502.7266 297.9591 565.9067 664.0519 30325.5529 -28.7486 50.2188
ENERGY: 900000 0.4749 4.1546 2.0445 0.0000 -10692.1828 1477.2327 0.0000 0.0000 1794.4471 -7413.8290 307.0930 -9208.2761 -7494.9763 299.5208 516.7440 555.6440 30178.1747 -73.4847 -3.4431
ENERGY: 1200000 0.7433 5.2238 1.2326 0.0000 -10713.2498 1451.2323 0.0000 0.0000 1693.9964 -7560.8213 289.9023 -9254.8177 -7493.2972 299.2431 54.1462 135.7467 30204.0538 -72.2845 -0.4120
ENERGY: 1500000 1.5452 3.0299 1.3334 0.0000 -10657.2571 1389.9613 0.0000 0.0000 1767.8907 -7493.4967 302.5482 -9261.3874 -7496.9283 299.1585 -355.2613 -390.3563 30282.8677 -123.6512 -61.8347
TCL: Running FEP window   8: Lambda1 0.35   Lambda2 0.39999999999999997 [dLambda 0.04999999999999999]
TCL: Setting parameter firsttimestep to 0
TCL: Setting parameter alchLambda to 0.35
Info: NONBONDED TABLE R-SQUARED SPACING: 0.0625
Info: NONBONDED TABLE SIZE: 705 POINTS
TCL: Setting parameter alchLambda2 to 0.39999999999999997
Info: NONBONDED TABLE R-SQUARED SPACING: 0.0625
Info: NONBONDED TABLE SIZE: 705 POINTS
TCL: Running for 1500000 steps
ETITLE: TS BOND ANGLE DIHED IMPRP ELECT VDW BOUNDARY MISC KINETIC TOTAL TEMP POTENTIAL TOTALAVG TEMPAVG PRESSURE GPRESSURE VOLUME PRESSAVG GPRESSAVG
ENERGY: 0 1.5452 3.0299 1.3334 0.0000 -10657.2569 1389.8906 0.0000 0.0000 1766.9521 -7494.5058 302.3876 -9261.4578 -7494.5058 302.3876 -459.8641 -381.7671 30282.8677 -459.8641 -381.7671
ENERGY: 300000 2.3267 8.8946 0.9888 0.0000 -10735.0071 1449.1968 0.0000 0.0000 1754.8471 -7518.7531 300.3160 -9273.6002 -7497.7295 300.2861 81.9244 136.3578 30211.8458 49.8480 94.3481
ENERGY: 600000 1.5620 4.7406 4.1713 0.0000 -10606.6277 1445.2806 0.0000 0.0000 1754.1544 -7396.7187 300.1975 -9150.8731 -7480.2601 300.3174 229.7270 341.7467 30477.5704 -75.5346 -17.5205
ENERGY: 900000 2.5415 7.5453 2.3331 0.0000 -10824.8125 1475.6452 0.0000 0.0000 1753.6591 -7583.0884 300.1127 -9336.7474 -7483.4649 301.8018 89.0243 152.1971 29816.3945 40.5219 95.1373
ENERGY: 1200000 1.2558 9.0996 2.4480 0.0000 -10745.5907 1453.3977 0.0000 0.0000 1675.2258 -7604.1638 286.6900 -9279.3896 -7488.9752 300.4331 -67.2553 -54.2945 30297.2710 78.2711 130.4195
ENERGY: 1500000 2.5224 2.6807 2.9014 0.0000 -10703.5351 1459.5628 0.0000 0.0000 1777.2834 -7458.5845 304.1556 -9235.8679 -7483.7837 301.1840 377.5612 414.0893 30010.2352 118.9322 163.7248
TCL: Running FEP window   9: Lambda1 0.39999999999999997 Lambda2 0.44999999999999996 [dLambda 0.04999999999999999]
TCL: Setting parameter firsttimestep to 0
TCL: Setting parameter alchLambda to 0.39999999999999997
Info: NONBONDED TABLE R-SQUARED SPACING: 0.0625
Info: NONBONDED TABLE SIZE: 705 POINTS
TCL: Setting parameter alchLambda2 to 0.44999999999999996
Info: NONBONDED TABLE R-SQUARED SPACING: 0.0625
Info: NONBONDED TABLE SIZE: 705 POINTS
TCL: Running for 1500000 steps
ETITLE: TS BOND ANGLE DIHED IMPRP ELECT VDW BOUNDARY MISC KINETIC TOTAL TEMP POTENTIAL TOTALAVG TEMPAVG PRESSURE GPRESSURE VOLUME PRESSAVG GPRESSAVG
ENERGY: 0 2.5224 2.6807 2.9014 0.0000 -10703.5323 1459.9519 0.0000 0.0000 1776.4071 -7459.0687 304.0057 -9235.4758 -7459.0687 304.0057 337.5875 421.9625 30010.2352 337.5875 421.9625
ENERGY: 300000 1.2952 3.6529 2.9855 0.0000 -10691.8748 1437.8051 0.0000 0.0000 1732.2745 -7513.8615 296.4531 -9246.1361 -7485.0441 299.7918 -243.5108 -114.1467 30751.0602 40.0096 134.2196
ENERGY: 600000 2.0229 2.9058 2.0934 0.0000 -10681.9923 1476.4663 0.0000 0.0000 1758.7115 -7439.7924 300.9774 -9198.5040 -7478.7211 300.7464 194.5598 233.6890 30756.2565 4.8561 82.3571
ENERGY: 900000 1.6926 2.1096 2.4793 0.0000 -10659.4295 1447.6467 0.0000 0.0000 1760.1567 -7445.3447 301.2247 -9205.5014 -7487.3112 300.7757 140.2856 235.8103 30351.4030 69.6977 145.0235
ENERGY: 1200000 1.5335 3.3983 3.0514 0.0000 -10727.0033 1464.6370 0.0000 0.0000 1679.4298 -7574.9534 287.4095 -9254.3832 -7495.4693 300.5416 165.6963 256.2335 30001.7715 112.5548 188.5781
ENERGY: 1500000 1.3856 4.1173 1.2069 0.0000 -10740.3735 1466.4163 0.0000 0.0000 1814.2184 -7453.0291 310.4765 -9267.2474 -7499.7162 300.9732 238.7390 313.9689 29902.0943 128.9822 206.6323
TCL: Running FEP window  10: Lambda1 0.44999999999999996 Lambda2 0.49999999999999994 [dLambda 0.04999999999999999]
TCL: Setting parameter firsttimestep to 0
TCL: Setting parameter alchLambda to 0.44999999999999996
Info: NONBONDED TABLE R-SQUARED SPACING: 0.0625
Info: NONBONDED TABLE SIZE: 705 POINTS
TCL: Setting parameter alchLambda2 to 0.49999999999999994
Info: NONBONDED TABLE R-SQUARED SPACING: 0.0625
Info: NONBONDED TABLE SIZE: 705 POINTS
TCL: Running for 1500000 steps
ETITLE: TS BOND ANGLE DIHED IMPRP ELECT VDW BOUNDARY MISC KINETIC TOTAL TEMP POTENTIAL TOTALAVG TEMPAVG PRESSURE GPRESSURE VOLUME PRESSAVG GPRESSAVG
ENERGY: 0 1.3856 4.1173 1.2069 0.0000 -10740.3726 1466.1254 0.0000 0.0000 1813.3768 -7454.1606 310.3325 -9267.5374 -7454.1606 310.3325 234.8726 314.7064 29902.0943 234.8726 314.7064
ENERGY: 300000 2.4542 7.9135 2.1648 0.0000 -10587.9758 1393.8935 0.0000 0.0000 1774.4460 -7407.1038 303.6701 -9181.5498 -7428.3936 304.4497 56.5691 91.8748 30130.7053 -108.5145 -41.6955
ENERGY: 600000 2.9902 4.4530 3.6146 0.0000 -10575.1411 1330.5623 0.0000 0.0000 1708.9262 -7524.5949 292.4573 -9233.5210 -7461.5767 302.2061 -829.2717 -815.8557 30310.6774 -66.3384 -12.1481
ENERGY: 900000 0.6097 4.0352 3.3578 0.0000 -10760.3621 1477.6215 0.0000 0.0000 1801.7867 -7472.9512 308.3490 -9274.7379 -7463.8774 303.1761 575.5124 576.2413 29882.6836 -2.2354 45.8201
ENERGY: 1200000 1.0571 4.7947 2.5437 0.0000 -10791.0562 1513.0291 0.0000 0.0000 1790.1619 -7479.4697 306.3596 -9269.6316 -7474.6347 302.6937 421.1440 464.9162 30290.8395 -32.0581 15.9365
ENERGY: 1500000 1.7084 3.5160 3.1771 0.0000 -10768.1574 1497.1245 0.0000 0.0000 1797.9176 -7464.7137 307.6869 -9262.6313 -7479.5406 303.1386 445.8332 529.8084 30012.7092 8.1433 55.2112
TCL: Running FEP window  11: Lambda1 0.49999999999999994 Lambda2 0.5499999999999999 [dLambda 0.04999999999999999]
TCL: Setting parameter firsttimestep to 0
TCL: Setting parameter alchLambda to 0.49999999999999994
Info: NONBONDED TABLE R-SQUARED SPACING: 0.0625
Info: NONBONDED TABLE SIZE: 705 POINTS
TCL: Setting parameter alchLambda2 to 0.5499999999999999
Info: NONBONDED TABLE R-SQUARED SPACING: 0.0625
Info: NONBONDED TABLE SIZE: 705 POINTS
TCL: Running for 1500000 steps
ETITLE: TS BOND ANGLE DIHED IMPRP ELECT VDW BOUNDARY MISC KINETIC TOTAL TEMP POTENTIAL TOTALAVG TEMPAVG PRESSURE GPRESSURE VOLUME PRESSAVG GPRESSAVG
ENERGY: 0 1.7084 3.5160 3.1771 0.0000 -10768.1566 1498.9822 0.0000 0.0000 1797.0316 -7463.7413 307.5353 -9260.7729 -7463.7413 307.5353 481.6851 550.8512 30012.7092 481.6851 550.8512
ENERGY: 300000 1.1350 1.2968 2.4114 0.0000 -10706.6573 1447.1033 0.0000 0.0000 1780.1010 -7474.6097 304.6378 -9254.7107 -7487.8133 300.4914 16.8024 28.0785 30428.1383 -5.2184 51.4422
ENERGY: 600000 2.2299 4.2670 2.5870 0.0000 -10643.5916 1392.2900 0.0000 0.0000 1772.1392 -7470.0786 303.2753 -9242.2177 -7483.0365 301.1671 -566.9025 -484.8800 30525.7799 -53.2926 7.9406
ENERGY: 900000 1.2547 4.5061 2.1194 0.0000 -10684.8286 1434.5972 0.0000 0.0000 1683.9977 -7558.3536 288.1912 -9242.3513 -7499.0589 299.6646 21.8582 29.3607 30116.7915 -72.8541 -15.9280
ENERGY: 1200000 1.5032 4.2755 1.5281 0.0000 -10720.7454 1464.3209 0.0000 0.0000 1722.6913 -7526.4263 294.8130 -9249.1176 -7497.1789 299.4693 334.1711 399.4179 29850.9045 -2.3665 61.4820
ENERGY: 1500000 2.5619 5.1144 1.4342 0.0000 -10757.1048 1454.7551 0.0000 0.0000 1770.8025 -7522.4367 303.0465 -9293.2392 -7488.5476 300.6107 139.9916 192.1900 30113.6562 27.2167 90.1362
TCL: Running FEP window  12: Lambda1 0.5499999999999999 Lambda2 0.6    [dLambda 0.050000000000000044]
TCL: Setting parameter firsttimestep to 0
TCL: Setting parameter alchLambda to 0.5499999999999999
Info: NONBONDED TABLE R-SQUARED SPACING: 0.0625
Info: NONBONDED TABLE SIZE: 705 POINTS
TCL: Setting parameter alchLambda2 to 0.6
Info: NONBONDED TABLE R-SQUARED SPACING: 0.0625
Info: NONBONDED TABLE SIZE: 705 POINTS
TCL: Running for 1500000 steps
ETITLE: TS BOND ANGLE DIHED IMPRP ELECT VDW BOUNDARY MISC KINETIC TOTAL TEMP POTENTIAL TOTALAVG TEMPAVG PRESSURE GPRESSURE VOLUME PRESSAVG GPRESSAVG
ENERGY: 0 2.5619 5.1144 1.4342 0.0000 -10757.5586 1454.5794 0.0000 0.0000 1769.9293 -7523.9393 302.8971 -9293.8686 -7523.9393 302.8971 132.1041 197.6434 30113.6562 132.1041 197.6434
ENERGY: 300000 2.6866 4.9368 2.3024 0.0000 -10768.7038 1434.0443 0.0000 0.0000 1724.5774 -7600.1563 295.1358 -9324.7337 -7500.0731 300.9599 -240.5773 -81.9024 30038.3937 220.9810 310.2965
ENERGY: 600000 0.6703 6.6140 2.2301 0.0000 -10660.1249 1422.6603 0.0000 0.0000 1821.1626 -7406.7876 311.6649 -9227.9501 -7467.6226 302.7071 79.5551 142.3595 30141.4321 70.4047 136.5173
ENERGY: 900000 0.8795 5.7789 2.1192 0.0000 -10686.2912 1451.6241 0.0000 0.0000 1754.8651 -7471.0243 300.3191 -9225.8895 -7474.3267 302.9232 262.1572 294.6612 30315.5310 -64.3987 -4.1362
ENERGY: 1200000 0.9365 3.1244 2.4673 0.0000 -10657.4292 1416.7427 0.0000 0.0000 1752.6256 -7481.5327 299.9358 -9234.1583 -7476.6654 302.5456 -225.1034 -170.6052 30254.3681 -185.0381 -124.6485
ENERGY: 1500000 1.4108 4.1021 1.8520 0.0000 -10866.8375 1610.8974 0.0000 0.0000 1741.8772 -7506.6981 298.0964 -9248.5753 -7477.1715 301.8931 1512.9367 1574.2143 30069.1436 -87.7975 -29.6922
TCL: Running FEP window  13: Lambda1 0.6    Lambda2 0.65   [dLambda 0.050000000000000044]
TCL: Setting parameter firsttimestep to 0
TCL: Setting parameter alchLambda to 0.6
Info: NONBONDED TABLE R-SQUARED SPACING: 0.0625
Info: NONBONDED TABLE SIZE: 705 POINTS
TCL: Setting parameter alchLambda2 to 0.65
Info: NONBONDED TABLE R-SQUARED SPACING: 0.0625
Info: NONBONDED TABLE SIZE: 705 POINTS
TCL: Running for 1500000 steps
ETITLE: TS BOND ANGLE DIHED IMPRP ELECT VDW BOUNDARY MISC KINETIC TOTAL TEMP POTENTIAL TOTALAVG TEMPAVG PRESSURE GPRESSURE VOLUME PRESSAVG GPRESSAVG
ENERGY: 0 1.4108 4.1021 1.8520 0.0000 -10868.1217 1611.3558 0.0000 0.0000 1740.9914 -7508.4096 297.9448 -9249.4011 -7508.4096 297.9448 1496.1443 1580.4365 30069.1436 1496.1443 1580.4365
ENERGY: 300000 1.7308 4.4024 1.6794 0.0000 -10634.6998 1428.7398 0.0000 0.0000 1789.4778 -7408.6697 306.2425 -9198.1475 -7479.0881 301.0315 -31.5910 -17.4468 30605.0530 554.8048 602.5166
ENERGY: 600000 1.9318 3.4051 2.0143 0.0000 -10724.9487 1423.0106 0.0000 0.0000 1728.1382 -7566.4488 295.7452 -9294.5869 -7510.0244 300.9697 -239.4429 -192.4296 30191.7897 224.5335 271.8855
ENERGY: 900000 5.3195 1.9222 2.3080 0.0000 -10493.9774 1282.5796 0.0000 0.0000 1742.4309 -7459.4172 298.1912 -9201.8481 -7509.7957 299.2509 -827.1170 -857.9276 30079.1624 28.1185 78.1315
ENERGY: 1200000 4.4209 2.8195 2.0429 0.0000 -10661.1934 1370.4579 0.0000 0.0000 1710.2646 -7571.1876 292.6864 -9281.4522 -7505.4014 299.0226 -434.7888 -278.7190 29962.2609 24.7139 91.4020
ENERGY: 1500000 2.1641 3.9961 2.3999 0.0000 -10627.3390 1393.3964 0.0000 0.0000 1785.4802 -7439.9024 305.5584 -9225.3826 -7499.2324 299.7201 -181.2251 -120.9043 30226.7096 -49.1533 18.0555
TCL: Running FEP window  14: Lambda1 0.65   Lambda2 0.7000000000000001 [dLambda 0.050000000000000044]
TCL: Setting parameter firsttimestep to 0
TCL: Setting parameter alchLambda to 0.65
Info: NONBONDED TABLE R-SQUARED SPACING: 0.0625
Info: NONBONDED TABLE SIZE: 705 POINTS
TCL: Setting parameter alchLambda2 to 0.7000000000000001
Info: NONBONDED TABLE R-SQUARED SPACING: 0.0625
Info: NONBONDED TABLE SIZE: 705 POINTS
TCL: Running for 1500000 steps
ETITLE: TS BOND ANGLE DIHED IMPRP ELECT VDW BOUNDARY MISC KINETIC TOTAL TEMP POTENTIAL TOTALAVG TEMPAVG PRESSURE GPRESSURE VOLUME PRESSAVG GPRESSAVG
ENERGY: 0 2.1641 3.9961 2.3999 0.0000 -10628.0004 1394.0227 0.0000 0.0000 1784.6570 -7440.7607 305.4175 -9225.4177 -7440.7607 305.4175 -187.9557 -107.1951 30226.7096 -187.9557 -107.1951
ENERGY: 300000 1.5298 5.5559 2.0209 0.0000 -10585.0467 1376.6518 0.0000 0.0000 1758.0646 -7441.2237 300.8666 -9199.2882 -7455.3974 298.7936 -122.4759 -40.6631 30132.4940 183.0196 264.6198
ENERGY: 600000 0.7340 3.6030 1.3178 0.0000 -10798.8592 1492.8629 0.0000 0.0000 1772.4529 -7527.8886 303.3290 -9300.3415 -7475.4696 298.8502 539.9659 560.1164 30002.1339 211.3851 280.1906
ENERGY: 900000 0.9314 6.4478 1.0864 0.0000 -10694.3297 1445.0389 0.0000 0.0000 1775.4411 -7465.3841 303.8404 -9240.8252 -7474.8638 298.9133 -48.4267 24.4638 30393.2708 29.1260 101.1200
ENERGY: 1200000 1.2957 2.8245 2.1348 0.0000 -10585.3051 1391.6081 0.0000 0.0000 1746.0754 -7441.3666 298.8149 -9187.4420 -7470.7151 300.2614 50.5597 102.8993 29944.1588 19.0100 83.6404
ENERGY: 1500000 0.9528 5.2414 2.2159 0.0000 -10741.8627 1403.5600 0.0000 0.0000 1700.7486 -7629.1440 291.0579 -9329.8927 -7486.3952 299.7928 -511.7671 -487.5182 30181.7462 -13.8488 46.1053
TCL: Running FEP window  15: Lambda1 0.7000000000000001 Lambda2 0.7500000000000001 [dLambda 0.050000000000000044]
TCL: Setting parameter firsttimestep to 0
TCL: Setting parameter alchLambda to 0.7000000000000001
Info: NONBONDED TABLE R-SQUARED SPACING: 0.0625
Info: NONBONDED TABLE SIZE: 705 POINTS
TCL: Setting parameter alchLambda2 to 0.7500000000000001
Info: NONBONDED TABLE R-SQUARED SPACING: 0.0625
Info: NONBONDED TABLE SIZE: 705 POINTS
TCL: Running for 1500000 steps
ETITLE: TS BOND ANGLE DIHED IMPRP ELECT VDW BOUNDARY MISC KINETIC TOTAL TEMP POTENTIAL TOTALAVG TEMPAVG PRESSURE GPRESSURE VOLUME PRESSAVG GPRESSAVG
ENERGY: 0 0.9528 5.2414 2.2159 0.0000 -10742.4130 1403.3562 0.0000 0.0000 1699.9072 -7630.7395 290.9139 -9330.6467 -7630.7395 290.9139 -563.8391 -482.5700 30181.7462 -563.8391 -482.5700
ENERGY: 300000 1.6671 4.8312 1.8614 0.0000 -10776.3591 1431.3349 0.0000 0.0000 1750.4516 -7586.2127 299.5638 -9336.6644 -7538.0565 298.0171 -132.1349 -100.2148 29914.8812 -261.2147 -201.7093
ENERGY: 600000 0.5198 3.7980 2.4582 0.0000 -10572.9608 1330.1053 0.0000 0.0000 1768.9954 -7467.0841 302.7373 -9236.0795 -7481.5116 300.2831 -893.5758 -858.0488 30653.8585 -175.8866 -121.4875
ENERGY: 900000 2.8057 5.5438 2.6939 0.0000 -10876.4964 1479.3587 0.0000 0.0000 1735.5300 -7650.5642 297.0102 -9386.0942 -7502.5486 299.5155 128.3778 182.7868 29824.0290 -135.9001 -75.7686
ENERGY: 1200000 4.0063 5.2532 2.2745 0.0000 -10639.6449 1411.0113 0.0000 0.0000 1718.9444 -7498.1552 294.1718 -9217.0996 -7508.7625 298.5743 -155.4515 -139.6162 30684.0923 -224.0325 -170.6076
ENERGY: 1500000 3.1936 5.0061 2.1675 0.0000 -10772.7081 1479.0229 0.0000 0.0000 1719.4204 -7563.8976 294.2533 -9283.3180 -7508.2198 298.2192 279.2989 343.9020 29823.0834 -178.7315 -122.2961
TCL: Running FEP window  16: Lambda1 0.7500000000000001 Lambda2 0.8000000000000002 [dLambda 0.050000000000000044]
TCL: Setting parameter firsttimestep to 0
TCL: Setting parameter alchLambda to 0.7500000000000001
Info: NONBONDED TABLE R-SQUARED SPACING: 0.0625
Info: NONBONDED TABLE SIZE: 705 POINTS
TCL: Setting parameter alchLambda2 to 0.8000000000000002
Info: NONBONDED TABLE R-SQUARED SPACING: 0.0625
Info: NONBONDED TABLE SIZE: 705 POINTS
TCL: Running for 1500000 steps
ETITLE: TS BOND ANGLE DIHED IMPRP ELECT VDW BOUNDARY MISC KINETIC TOTAL TEMP POTENTIAL TOTALAVG TEMPAVG PRESSURE GPRESSURE VOLUME PRESSAVG GPRESSAVG
ENERGY: 0 3.1936 5.0061 2.1675 0.0000 -10773.2633 1479.0899 0.0000 0.0000 1718.5746 -7565.2316 294.1085 -9283.8062 -7565.2316 294.1085 265.5328 354.6007 29823.0834 265.5328 354.6007
ENERGY: 300000 0.2966 3.4007 1.7250 0.0000 -10753.8393 1478.0666 0.0000 0.0000 1743.5499 -7526.8005 298.3827 -9270.3504 -7529.1563 297.2637 185.4224 217.4532 30353.9023 329.8978 382.8216
ENERGY: 600000 2.2643 3.7106 2.3437 0.0000 -10777.6174 1451.1682 0.0000 0.0000 1733.6039 -7584.5267 296.6806 -9318.1306 -7527.6445 298.4000 110.5310 126.2484 30017.9523 297.1490 339.4609
ENERGY: 900000 5.4604 6.8201 3.7194 0.0000 -10639.2765 1410.6400 0.0000 0.0000 1764.7116 -7447.9250 302.0042 -9212.6366 -7509.5728 298.9786 -111.7109 -56.1717 30428.4590 92.9278 137.8481
ENERGY: 1200000 3.2018 4.9228 2.3421 0.0000 -10859.7452 1580.4285 0.0000 0.0000 1752.0398 -7516.8102 299.8356 -9268.8500 -7512.8417 299.5788 1153.1251 1277.2493 30227.8447 134.6930 188.3093
ENERGY: 1500000 4.1343 3.1748 2.6809 0.0000 -10669.1638 1385.6020 0.0000 0.0000 1779.4465 -7494.1253 304.5258 -9273.5718 -7508.2016 300.4525 -232.5204 -170.8637 29633.4785 183.5307 233.0260
TCL: Running FEP window  17: Lambda1 0.8000000000000002 Lambda2 0.8500000000000002 [dLambda 0.050000000000000044]
TCL: Setting parameter firsttimestep to 0
TCL: Setting parameter alchLambda to 0.8000000000000002
Info: NONBONDED TABLE R-SQUARED SPACING: 0.0625
Info: NONBONDED TABLE SIZE: 705 POINTS
TCL: Setting parameter alchLambda2 to 0.8500000000000002
Info: NONBONDED TABLE R-SQUARED SPACING: 0.0625
Info: NONBONDED TABLE SIZE: 705 POINTS
TCL: Running for 1500000 steps
ETITLE: TS BOND ANGLE DIHED IMPRP ELECT VDW BOUNDARY MISC KINETIC TOTAL TEMP POTENTIAL TOTALAVG TEMPAVG PRESSURE GPRESSURE VOLUME PRESSAVG GPRESSAVG
ENERGY: 0 4.1343 3.1748 2.6809 0.0000 -10670.3150 1386.7691 0.0000 0.0000 1778.5806 -7494.9753 304.3776 -9273.5559 -7494.9753 304.3776 -240.0804 -148.2619 29633.4785 -240.0804 -148.2619
ENERGY: 300000 1.1799 4.1303 1.5575 0.0000 -10609.8629 1339.9161 0.0000 0.0000 1732.0163 -7531.0628 296.4089 -9263.0791 -7521.4040 300.3063 -624.0640 -575.4242 30171.3577 -146.4466 -76.5761
ENERGY: 600000 2.2112 7.2670 2.6895 0.0000 -10525.0248 1337.8611 0.0000 0.0000 1782.7717 -7392.2242 305.0949 -9174.9959 -7496.8125 300.8531 -562.5418 -535.3420 30906.7252 -270.0802 -202.8500
ENERGY: 900000 2.7400 5.0278 1.2056 0.0000 -10701.1742 1428.6353 0.0000 0.0000 1767.2746 -7496.2909 302.4428 -9263.5656 -7506.8928 300.2698 53.7198 73.4958 30489.2055 -138.3497 -91.9370
ENERGY: 1200000 1.4837 5.4367 1.5271 0.0000 -10635.7403 1391.1273 0.0000 0.0000 1745.2376 -7490.9279 298.6715 -9236.1655 -7491.4515 301.6993 -267.3711 -168.0145 30265.1168 -247.6443 -196.3749
ENERGY: 1500000 1.5373 4.7652 2.5935 0.0000 -10727.2684 1487.8299 0.0000 0.0000 1750.9818 -7479.5607 299.6545 -9230.5425 -7495.6883 301.0021 396.1812 447.3552 30782.0994 -166.6863 -119.2861
TCL: Running FEP window  18: Lambda1 0.8500000000000002 Lambda2 0.9000000000000002 [dLambda 0.050000000000000044]
TCL: Setting parameter firsttimestep to 0
TCL: Setting parameter alchLambda to 0.8500000000000002
Info: NONBONDED TABLE R-SQUARED SPACING: 0.0625
Info: NONBONDED TABLE SIZE: 705 POINTS
TCL: Setting parameter alchLambda2 to 0.9000000000000002
Info: NONBONDED TABLE R-SQUARED SPACING: 0.0625
Info: NONBONDED TABLE SIZE: 705 POINTS
TCL: Running for 1500000 steps
ETITLE: TS BOND ANGLE DIHED IMPRP ELECT VDW BOUNDARY MISC KINETIC TOTAL TEMP POTENTIAL TOTALAVG TEMPAVG PRESSURE GPRESSURE VOLUME PRESSAVG GPRESSAVG
ENERGY: 0 1.5373 4.7652 2.5935 0.0000 -10728.2338 1487.7849 0.0000 0.0000 1750.0789 -7481.4739 299.5000 -9231.5529 -7481.4739 299.5000 365.3263 453.3169 30782.0994 365.3263 453.3169
ENERGY: 300000 1.1541 7.7939 3.1139 0.0000 -10557.6930 1380.2795 0.0000 0.0000 1807.0844 -7358.2672 309.2556 -9165.3516 -7446.0738 301.5899 -385.7510 -311.8955 30620.7759 82.4030 136.4999
ENERGY: 600000 3.5073 4.7320 1.7273 0.0000 -10498.0984 1337.4886 0.0000 0.0000 1732.7204 -7417.9229 296.5294 -9150.6433 -7464.6033 299.4319 -644.8126 -641.8210 30677.1317 -189.8041 -138.8933
ENERGY: 900000 3.9067 2.9115 1.9822 0.0000 -10691.3057 1408.0673 0.0000 0.0000 1738.7467 -7535.6914 297.5607 -9274.4381 -7482.6936 299.7833 -170.9142 -76.5316 30296.6742 -192.6817 -130.4603
ENERGY: 1200000 2.0271 2.9125 2.4001 0.0000 -10769.1006 1474.6077 0.0000 0.0000 1758.6149 -7528.5384 300.9608 -9287.1532 -7488.2598 299.8354 227.9931 293.9576 30131.4210 -260.4275 -195.0714
ENERGY: 1500000 1.4630 2.2054 2.1107 0.0000 -10726.8030 1448.6309 0.0000 0.0000 1735.3298 -7537.0632 296.9759 -9272.3930 -7495.8287 299.4157 -101.4284 -14.0017 30511.1700 -247.1782 -184.7573
TCL: Running FEP window  19: Lambda1 0.9000000000000002 Lambda2 0.9500000000000003 [dLambda 0.050000000000000044]
TCL: Setting parameter firsttimestep to 0
TCL: Setting parameter alchLambda to 0.9000000000000002
Info: NONBONDED TABLE R-SQUARED SPACING: 0.0625
Info: NONBONDED TABLE SIZE: 705 POINTS
TCL: Setting parameter alchLambda2 to 0.9500000000000003
Info: NONBONDED TABLE R-SQUARED SPACING: 0.0625
Info: NONBONDED TABLE SIZE: 705 POINTS
TCL: Running for 1500000 steps
ETITLE: TS BOND ANGLE DIHED IMPRP ELECT VDW BOUNDARY MISC KINETIC TOTAL TEMP POTENTIAL TOTALAVG TEMPAVG PRESSURE GPRESSURE VOLUME PRESSAVG GPRESSAVG
ENERGY: 0 1.4630 2.2054 2.1107 0.0000 -10728.1624 1448.4900 0.0000 0.0000 1734.4749 -7539.4184 296.8296 -9273.8933 -7539.4184 296.8296 -87.5558 -7.1636 30511.1700 -87.5558 -7.1636
ENERGY: 300000 0.9303 2.0197 3.0442 0.0000 -10671.5668 1464.8632 0.0000 0.0000 1681.5850 -7519.1243 287.7783 -9200.7093 -7564.9241 291.3855 66.0064 160.5475 30614.3012 -22.7679 63.2848
ENERGY: 600000 2.5387 2.8032 2.8921 0.0000 -10756.0390 1436.9591 0.0000 0.0000 1722.7880 -7588.0579 294.8296 -9310.8458 -7561.7056 294.0821 -215.2727 -148.9509 30645.4416 -72.9615 17.1690
ENERGY: 900000 1.7969 3.0475 3.0034 0.0000 -10606.4079 1414.1994 0.0000 0.0000 1726.7225 -7457.6382 295.5029 -9184.3607 -7549.2084 293.9957 -368.3922 -294.4314 30750.8367 -197.3915 -116.8346
ENERGY: 1200000 2.5598 1.5548 2.0072 0.0000 -10854.2388 1557.5014 0.0000 0.0000 1750.2723 -7540.3434 299.5331 -9290.6156 -7541.9274 296.0182 393.5013 426.6869 30843.1921 -154.0349 -78.0953
ENERGY: 1500000 1.1240 4.8216 3.2203 0.0000 -10740.4801 1477.6451 0.0000 0.0000 1736.6193 -7517.0497 297.1966 -9253.6690 -7532.8581 296.9046 780.6290 785.3736 29691.8522 -129.3776 -61.6918
TCL: Running FEP window  20: Lambda1 0.9500000000000003 Lambda2 1.0    [dLambda 0.04999999999999971]
TCL: Setting parameter firsttimestep to 0
TCL: Setting parameter alchLambda to 0.9500000000000003
Info: NONBONDED TABLE R-SQUARED SPACING: 0.0625
Info: NONBONDED TABLE SIZE: 705 POINTS
TCL: Setting parameter alchLambda2 to 1.0
Info: NONBONDED TABLE R-SQUARED SPACING: 0.0625
Info: NONBONDED TABLE SIZE: 705 POINTS
TCL: Running for 1500000 steps
ETITLE: TS BOND ANGLE DIHED IMPRP ELECT VDW BOUNDARY MISC KINETIC TOTAL TEMP POTENTIAL TOTALAVG TEMPAVG PRESSURE GPRESSURE VOLUME PRESSAVG GPRESSAVG
ENERGY: 0 1.1241 4.8216 3.2203 0.0000 -10742.0117 1478.4264 0.0000 0.0000 1735.7530 -7518.6663 297.0483 -9254.4194 -7518.6663 297.0483 710.4442 800.3554 29691.8522 710.4442 800.3554
ENERGY: 300000 3.8636 3.5856 1.9455 0.0000 -10641.9415 1389.1240 0.0000 0.0000 1751.6507 -7491.7722 299.7690 -9243.4229 -7537.5306 296.5268 -162.6167 -129.0380 30151.0114 106.9741 169.4267
ENERGY: 600000 0.8609 5.0595 2.2014 0.0000 -10622.3218 1352.3235 0.0000 0.0000 1736.1495 -7525.7270 297.1162 -9261.8765 -7543.3045 297.0011 -700.7683 -644.4038 30386.1485 -9.3571 50.5233
ENERGY: 900000 1.8880 4.5630 1.5322 0.0000 -10708.0523 1431.5292 0.0000 0.0000 1801.4347 -7467.1051 308.2888 -9268.5399 -7522.8765 298.3815 -210.7954 -159.7069 30550.3608 -43.4275 10.1563
ENERGY: 1200000 3.4182 9.3833 2.1979 0.0000 -10852.6481 1502.7706 0.0000 0.0000 1698.4650 -7636.4132 290.6670 -9334.8781 -7540.6694 297.5008 554.1427 596.3866 29642.5869 125.1918 172.7579
ENERGY: 1500000 2.0602 3.1406 2.0983 0.0000 -10615.3265 1327.4693 0.0000 0.0000 1722.7988 -7557.7593 294.8314 -9280.5581 -7537.2916 296.5703 -796.4268 -753.9342 30486.3722 17.2062 73.4192
TCL: Exiting due to exit command.
