Info: SIMULATION PARAMETERS:
Info: TIMESTEP               2
Info: NUMBER OF STEPS        0
Info: STEPS PER CYCLE        10
Info: PERIODIC CELL BASIS 1  30.6915 0 0
Info: PERIODIC CELL BASIS 2  0 31.9548 0
Info: PERIODIC CELL BASIS 3  0 0 30.6424
Info: PERIODIC CELL CENTER   0 0 0
Info: WRAPPING WATERS AROUND PERIODIC BOUNDARIES ON OUTPUT.
Info: WRAPPING ALL CLUSTERS AROUND PERIODIC BOUNDARIES ON OUTPUT.
Info: FIRST LDB TIMESTEP     50
Info: LAST LDB TIMESTEP     -1
Info: HOM BACKGROUND SCALING 1
Info: PME BACKGROUND SCALING 1
Info: MIN ATOMS PER PATCH    40
Info: EMPTY PATCH LOAD       40 ATOMS
Info: VELOCITY FILE          mobley_4463913_equil.vel
Info: CENTER OF MASS MOVING INITIALLY? NO
Info: DIELECTRIC             1
Info: EXCLUDE                SCALED ONE-FOUR
Info: 1-4 ELECTROSTATICS SCALED BY 0.833333
Info: MODIFIED 1-4 VDW PARAMETERS WILL BE USED
Info: DCD FILENAME           mobley_4463913_prod.dcd
Info: DCD FREQUENCY          100000
Info: DCD FIRST STEP         100000
Info: DCD FILE WILL CONTAIN UNIT CELL DATA
Info: XST FILENAME           mobley_4463913_prod.xst
Info: XST FREQUENCY          100000
Info: NO VELOCITY DCD OUTPUT
Info: NO FORCE DCD OUTPUT
Info: OUTPUT FILENAME        mobley_4463913_prod
Info: BINARY OUTPUT FILES WILL BE USED
Info: RESTART FILENAME       mobley_4463913_prod.restart
Info: RESTART FREQUENCY      100000
Info: BINARY RESTART FILES WILL BE USED
Info: CUTOFF                 9
Info: PAIRLIST DISTANCE      11
Info: PAIRLIST SHRINK RATE   0.01
Info: PAIRLIST GROW RATE     0.01
Info: PAIRLIST TRIGGER       0.3
Info: PAIRLISTS PER CYCLE    2
Info: PAIRLISTS ENABLED
Info: MARGIN                 2
Info: HYDROGEN GROUP CUTOFF  2.5
Info: PATCH DIMENSION        15.5
Info: ENERGY OUTPUT STEPS    100000
Info: ENERGY EVALUATION STEPS    100000
Info: OUTPUT ENERGY PRECISION 4
Info: CROSSTERM ENERGY INCLUDED IN DIHEDRAL
Info: TIMING OUTPUT STEPS    1000000
Info: PRESSURE OUTPUT STEPS  100000
Info: ALCHEMICAL FEP ON
Info: FEP CURRENT LAMBDA VALUE     0
Info: FEP COMPARISON LAMBDA VALUE  0.05
Info: FEP INTRA-ALCHEMICAL NON-BONDED INTERACTIONS WILL BE RETAINED
Info: FEP INTRA-ALCHEMICAL BONDED INTERACTIONS WILL BE RETAINED
Info: FEP VDW SHIFTING COEFFICIENT 5
Info: FEP ELEC. ACTIVE FOR ANNIHILATED PARTICLES BETWEEN LAMBDA = 0 AND LAMBDA = 0.5
Info: FEP ELEC. ACTIVE FOR EXNIHILATED PARTICLES BETWEEN LAMBDA = 0.5 AND LAMBDA = 1
Info: FEP VDW ACTIVE FOR ANNIHILATED PARTICLES BETWEEN LAMBDA = 0 AND LAMBDA = 1
Info: FEP VDW ACTIVE FOR EXNIHILATED PARTICLES BETWEEN LAMBDA = 0 AND LAMBDA = 1
Info: FEP BOND ACTIVE FOR ANNIHILATED PARTICLES BETWEEN LAMBDA = 1 AND LAMBDA = 1
Info: FEP BOND ACTIVE FOR EXNIHILATED PARTICLES BETWEEN LAMBDA = 0 AND LAMBDA = 0
Info: LANGEVIN DYNAMICS ACTIVE
Info: LANGEVIN TEMPERATURE   300
Info: LANGEVIN USING BBK INTEGRATOR
Info: LANGEVIN DAMPING COEFFICIENT IS 1 INVERSE PS
Info: LANGEVIN DYNAMICS APPLIED TO HYDROGENS
Info: LANGEVIN PISTON PRESSURE CONTROL ACTIVE
Info:        TARGET PRESSURE IS 1.01325 BAR
Info:     OSCILLATION PERIOD IS 50 FS
Info:             DECAY TIME IS 25 FS
Info:     PISTON TEMPERATURE IS 300 K
Info:       PRESSURE CONTROL IS GROUP-BASED
Info:    INITIAL STRAIN RATE IS 0.000515251 0.000515251 0.000515251
Info:       CELL FLUCTUATION IS ISOTROPIC
Info: PARTICLE MESH EWALD (PME) ACTIVE
Info: PME TOLERANCE               1e-06
Info: PME EWALD COEFFICIENT       0.348832
Info: PME INTERPOLATION ORDER     4
Info: PME GRID DIMENSIONS         32 32 32
Info: PME MAXIMUM GRID SPACING    1
Info: PME CALCULATION WILL BE PERFORMED ON GPU
Info: FULL ELECTROSTATIC EVALUATION FREQUENCY      2
Info: USING VERLET I (r-RESPA) MTS SCHEME.
Info: C1 SPLITTING OF LONG RANGE ELECTROSTATICS
Info: PLACING ATOMS IN PATCHES BY HYDROGEN GROUPS
Info: RIGID BONDS TO HYDROGEN : ALL
Info:         ERROR TOLERANCE : 1e-08
Info:          MAX ITERATIONS : 100
Info: RIGID WATER USING SETTLE ALGORITHM
Info: RANDOM NUMBER SEED     1743866189
Info: USE HYDROGEN BONDS?    NO
Info: Using AMBER format force field!
Info: AMBER PARM FILE        mobley_4463913.prmtop
Info: COORDINATE PDB         mobley_4463913.pdb
Info: Exclusions will be read from PARM file!
Info: SCNB (VDW SCALING)     2
Info: USING ARITHMETIC MEAN TO COMBINE L-J SIGMA PARAMETERS
Info: BINARY COORDINATES     mobley_4463913_equil.coor
Info: SUMMARY OF PARAMETERS:
Info: 9 BONDS
Info: 11 ANGLES
Info:   11 HARMONIC
Info:   0 COSINE-BASED
Info: 15 DIHEDRAL
Info: 0 IMPROPER
Info: 0 CROSSTERM
Info: 0 VDW
Info: 36 VDW_PAIRS
Info: 0 NBTHOLE_PAIRS
Info: To read alchdata from file: mobley_4463913.pdb
Info: To read alchflag data from column: 5
Info: STRUCTURE SUMMARY:
Info: 2927 ATOMS
Info: 2926 BONDS
Info: 32 ANGLES
Info: 59 DIHEDRALS
Info: 0 IMPROPERS
Info: 0 CROSSTERMS
Info: 2989 EXCLUSIONS
Info: 2917 RIGID BONDS
Info: ALCH: 0 ATOMS TO DISAPPEAR IN FINAL STATE
Info: ALCH: 20 ATOMS TO APPEAR IN FINAL STATE
Info: 5864 DEGREES OF FREEDOM
Info: 979 HYDROGEN GROUPS
Info: 4 ATOMS IN LARGEST HYDROGEN GROUP
Info: 979 MIGRATION GROUPS
Info: 4 ATOMS IN LARGEST MIGRATION GROUP
Info: TOTAL MASS = 17603.6 amu
Info: TOTAL CHARGE = 0.000100084 e
Info: MASS DENSITY = 0.972714 g/cm^3
Info: ATOM DENSITY = 0.0973971 atoms/A^3
Info: ADDED 0 IMPLICIT EXCLUSIONS
Info: NONBONDED TABLE R-SQUARED SPACING: 0.0625
Info: NONBONDED TABLE SIZE: 705 POINTS
Info: REMOVING COM VELOCITY -0.0824051 0.0177426 -0.266505
Info: Use 3D box decompostion in PME FFT.
Info: Updated CUDA force table with 4096 elements.
Info: Updated CUDA LJ table with 8 x 8 elements.
Info: Found 22 unique exclusion lists needing 56 bytes
TCL: Running for 1500000 steps
ETITLE: TS BOND ANGLE DIHED IMPRP ELECT VDW BOUNDARY MISC KINETIC TOTAL TEMP POTENTIAL TOTALAVG TEMPAVG PRESSURE GPRESSURE VOLUME PRESSAVG GPRESSAVG
ENERGY: 0 2.1552 8.4639 9.0174 0.0000 -10564.2806 1320.9224 0.0000 0.0000 1713.3716 -7510.3502 294.0681 -9223.7218 -7510.3502 294.0681 -784.8389 -702.0216 30052.2194 -784.8389 -702.0216
ENERGY: 300000 1.8153 9.1930 8.6329 0.0000 -10552.9037 1382.9651 0.0000 0.0000 1800.8887 -7349.4087 309.0888 -9150.2973 -7446.0647 301.8185 -128.5725 -76.2338 30137.3194 -174.4451 -86.7836
ENERGY: 600000 1.1440 9.5323 9.6035 0.0000 -10651.9961 1395.5941 0.0000 0.0000 1725.4360 -7510.6863 296.1388 -9236.1222 -7451.8825 301.2677 -263.8994 -259.3633 29983.1220 -188.2972 -114.4877
ENERGY: 900000 1.9244 10.6560 10.1686 0.0000 -10718.2667 1420.8715 0.0000 0.0000 1762.5563 -7512.0899 302.5098 -9274.6462 -7470.4242 302.1020 -201.4934 -125.6830 30010.7967 -119.8024 -47.5365
ENERGY: 1200000 2.6163 15.0645 11.3716 0.0000 -10745.3102 1382.3073 0.0000 0.0000 1741.4114 -7592.5391 298.8807 -9333.9505 -7482.6785 301.0691 -660.7087 -613.1765 29702.8340 -121.5887 -54.5760
ENERGY: 1500000 1.9241 4.3540 9.2754 0.0000 -10631.0472 1361.2218 0.0000 0.0000 1770.4866 -7483.7854 303.8709 -9254.2720 -7490.6183 300.9383 -536.8385 -469.1179 29872.9242 -117.5464 -47.4479
TCL: Running FEP window   2: Lambda1 0.05   Lambda2 0.1    [dLambda 0.05  ]
TCL: Setting parameter firsttimestep to 0
TCL: Setting parameter alchLambda to 0.05
Info: NONBONDED TABLE R-SQUARED SPACING: 0.0625
Info: NONBONDED TABLE SIZE: 705 POINTS
TCL: Setting parameter alchLambda2 to 0.1
Info: NONBONDED TABLE R-SQUARED SPACING: 0.0625
Info: NONBONDED TABLE SIZE: 705 POINTS
TCL: Running for 1500000 steps
ETITLE: TS BOND ANGLE DIHED IMPRP ELECT VDW BOUNDARY MISC KINETIC TOTAL TEMP POTENTIAL TOTALAVG TEMPAVG PRESSURE GPRESSURE VOLUME PRESSAVG GPRESSAVG
ENERGY: 0 1.9241 4.3540 9.2754 0.0000 -10631.0471 1364.0133 0.0000 0.0000 1769.5980 -7481.8824 303.7184 -9251.4804 -7481.8824 303.7184 -547.4820 -461.1302 29872.9242 -547.4820 -461.1302
ENERGY: 300000 2.4060 7.5736 13.3471 0.0000 -10781.1095 1495.6181 0.0000 0.0000 1687.6564 -7574.5083 289.6546 -9262.1647 -7474.6799 301.1278 278.3775 338.6384 29991.5553 -117.0444 -50.4550
ENERGY: 600000 1.3281 13.8072 11.5923 0.0000 -10608.0786 1368.8464 0.0000 0.0000 1751.6728 -7460.8318 300.6418 -9212.5046 -7471.9461 299.6616 -543.6212 -494.4965 30095.4004 -259.5945 -207.0686
ENERGY: 900000 1.9797 8.9394 10.0187 0.0000 -10752.1536 1415.2526 0.0000 0.0000 1820.4653 -7495.4979 312.4488 -9315.9632 -7469.9807 302.1503 -300.6703 -248.6279 29704.5409 -139.2722 -89.4480
ENERGY: 1200000 1.6747 6.9374 11.0545 0.0000 -10811.1258 1471.6639 0.0000 0.0000 1742.8515 -7576.9438 299.1278 -9319.7953 -7482.6011 300.5558 323.6038 372.2312 29241.4369 -198.9612 -142.3551
ENERGY: 1500000 1.8752 6.8072 11.6649 0.0000 -10640.7881 1414.5482 0.0000 0.0000 1740.7280 -7465.1646 298.7634 -9205.8925 -7472.1283 301.6323 -263.7565 -210.5409 30208.8669 -191.6213 -129.0737
TCL: Running FEP window   3: Lambda1 0.1    Lambda2 0.15000000000000002 [dLambda 0.05000000000000002]
TCL: Setting parameter firsttimestep to 0
TCL: Setting parameter alchLambda to 0.1
Info: NONBONDED TABLE R-SQUARED SPACING: 0.0625
Info: NONBONDED TABLE SIZE: 705 POINTS
TCL: Setting parameter alchLambda2 to 0.15000000000000002
Info: NONBONDED TABLE R-SQUARED SPACING: 0.0625
Info: NONBONDED TABLE SIZE: 705 POINTS
TCL: Running for 1500000 steps
ETITLE: TS BOND ANGLE DIHED IMPRP ELECT VDW BOUNDARY MISC KINETIC TOTAL TEMP POTENTIAL TOTALAVG TEMPAVG PRESSURE GPRESSURE VOLUME PRESSAVG GPRESSAVG
ENERGY: 0 1.8752 6.8072 11.6649 0.0000 -10640.7880 1417.6984 0.0000 0.0000 1739.8806 -7462.8617 298.6179 -9202.7424 -7462.8617 298.6179 -273.5873 -198.3958 30208.8669 -273.5873 -198.3958
ENERGY: 300000 4.9806 7.7647 9.9518 0.0000 -10615.6746 1394.8020 0.0000 0.0000 1738.5833 -7459.5923 298.3953 -9198.1755 -7449.5698 301.2828 -550.3745 -480.4209 30459.8451 -336.8338 -233.1659
ENERGY: 600000 3.2842 6.0452 10.9322 0.0000 -10536.7645 1334.1704 0.0000 0.0000 1795.8084 -7386.5241 308.2169 -9182.3325 -7440.7966 301.9245 -1053.7913 -990.3695 30742.1382 -333.5193 -252.3419
ENERGY: 900000 2.1134 7.1447 11.0410 0.0000 -10768.5058 1485.6049 0.0000 0.0000 1708.6424 -7553.9594 293.2565 -9262.6018 -7469.2697 299.4578 483.8593 514.8242 29834.4566 -247.1423 -176.5620
ENERGY: 1200000 3.1714 3.9369 10.7653 0.0000 -10752.6857 1512.5735 0.0000 0.0000 1754.0463 -7468.1922 301.0492 -9222.2386 -7468.7983 300.6146 705.0912 716.6629 29931.0633 -205.3692 -136.5337
ENERGY: 1500000 2.0108 11.0771 12.7986 0.0000 -10677.3572 1448.7339 0.0000 0.0000 1784.3172 -7418.4197 306.2446 -9202.7368 -7471.0204 301.2210 443.4032 489.0882 29740.6968 -236.7073 -169.3760
TCL: Running FEP window   4: Lambda1 0.15000000000000002 Lambda2 0.2    [dLambda 0.04999999999999999]
TCL: Setting parameter firsttimestep to 0
TCL: Setting parameter alchLambda to 0.15000000000000002
Info: NONBONDED TABLE R-SQUARED SPACING: 0.0625
Info: NONBONDED TABLE SIZE: 705 POINTS
TCL: Setting parameter alchLambda2 to 0.2
Info: NONBONDED TABLE R-SQUARED SPACING: 0.0625
Info: NONBONDED TABLE SIZE: 705 POINTS
TCL: Running for 1500000 steps
ETITLE: TS BOND ANGLE DIHED IMPRP ELECT VDW BOUNDARY MISC KINETIC TOTAL TEMP POTENTIAL TOTALAVG TEMPAVG PRESSURE GPRESSURE VOLUME PRESSAVG GPRESSAVG
ENERGY: 0 2.0108 11.0771 12.7986 0.0000 -10677.3569 1449.3841 0.0000 0.0000 1783.4316 -7418.6548 306.0926 -9202.0864 -7418.6548 306.0926 430.2229 495.6525 29740.6968 430.2229 495.6525
ENERGY: 300000 1.2482 6.5043 11.7844 0.0000 -10700.7027 1471.0395 0.0000 0.0000 1753.5567 -7456.5696 300.9652 -9210.1263 -7452.0546 303.1738 146.4279 265.8269 30235.5053 528.7430 590.0680
ENERGY: 600000 1.6737 4.3444 11.3395 0.0000 -10724.4198 1427.2441 0.0000 0.0000 1744.1030 -7535.7150 299.3426 -9279.8180 -7451.8695 301.2069 -95.7505 -37.0146 29684.2880 381.2131 429.4663
ENERGY: 900000 2.6431 7.4979 9.7461 0.0000 -10723.2145 1435.5532 0.0000 0.0000 1739.6857 -7528.0884 298.5845 -9267.7741 -7444.7129 300.0780 51.5267 115.2014 29810.3559 172.7899 225.4361
ENERGY: 1200000 3.1882 9.6105 8.6041 0.0000 -10753.6519 1381.5711 0.0000 0.0000 1728.7103 -7621.9677 296.7008 -9350.6780 -7462.2051 299.4692 -776.8402 -678.6598 30341.5622 6.0465 59.0164
ENERGY: 1500000 1.0952 8.9935 11.8260 0.0000 -10767.4493 1490.6559 0.0000 0.0000 1774.8760 -7480.0028 304.6242 -9254.8788 -7464.3020 300.0594 646.6610 662.1784 29594.8826 47.7245 100.2583
TCL: Running FEP window   5: Lambda1 0.2    Lambda2 0.25   [dLambda 0.04999999999999999]
TCL: Setting parameter firsttimestep to 0
TCL: Setting parameter alchLambda to 0.2
Info: NONBONDED TABLE R-SQUARED SPACING: 0.0625
Info: NONBONDED TABLE SIZE: 705 POINTS
TCL: Setting parameter alchLambda2 to 0.25
Info: NONBONDED TABLE R-SQUARED SPACING: 0.0625
Info: NONBONDED TABLE SIZE: 705 POINTS
TCL: Running for 1500000 steps
ETITLE: TS BOND ANGLE DIHED IMPRP ELECT VDW BOUNDARY MISC KINETIC TOTAL TEMP POTENTIAL TOTALAVG TEMPAVG PRESSURE GPRESSURE VOLUME PRESSAVG GPRESSAVG
ENERGY: 0 1.0952 8.9935 11.8260 0.0000 -10767.4485 1493.0318 0.0000 0.0000 1773.9842 -7478.5179 304.4712 -9252.5020 -7478.5179 304.4712 604.5764 676.0556 29594.8826 604.5764 676.0556
ENERGY: 300000 2.0600 9.0998 10.7147 0.0000 -10734.9542 1408.8967 0.0000 0.0000 1742.5055 -7561.6776 299.0684 -9304.1831 -7507.4929 300.5788 -533.6234 -430.4039 29884.8029 272.4400 353.2246
ENERGY: 600000 2.1266 6.8498 11.2844 0.0000 -10657.3630 1454.4546 0.0000 0.0000 1764.8527 -7417.7950 302.9039 -9182.6477 -7490.7925 300.5295 564.9328 610.1426 29812.9956 84.3667 152.0388
ENERGY: 900000 1.6975 6.8011 11.1299 0.0000 -10693.9645 1476.6633 0.0000 0.0000 1711.1895 -7486.4832 293.6936 -9197.6727 -7486.1512 299.9841 582.3534 579.6221 29793.9621 152.3266 203.2733
ENERGY: 1200000 1.7832 6.5755 11.8363 0.0000 -10706.3681 1426.2556 0.0000 0.0000 1781.9379 -7477.9796 305.8363 -9259.9175 -7495.2818 299.8487 -232.5907 -134.0766 29882.4116 107.4193 162.1035
ENERGY: 1500000 2.3158 8.0696 14.5237 0.0000 -10741.2745 1460.9653 0.0000 0.0000 1752.3377 -7503.0625 300.7559 -9255.4002 -7489.6669 300.2357 197.1620 299.4735 29994.9670 83.4650 144.4828
TCL: Running FEP window   6: Lambda1 0.25   Lambda2 0.3    [dLambda 0.04999999999999999]
TCL: Setting parameter firsttimestep to 0
TCL: Setting parameter alchLambda to 0.25
Info: NONBONDED TABLE R-SQUARED SPACING: 0.0625
Info: NONBONDED TABLE SIZE: 705 POINTS
TCL: Setting parameter alchLambda2 to 0.3
Info: NONBONDED TABLE R-SQUARED SPACING: 0.0625
Info: NONBONDED TABLE SIZE: 705 POINTS
TCL: Running for 1500000 steps
ETITLE: TS BOND ANGLE DIHED IMPRP ELECT VDW BOUNDARY MISC KINETIC TOTAL TEMP POTENTIAL TOTALAVG TEMPAVG PRESSURE GPRESSURE VOLUME PRESSAVG GPRESSAVG
ENERGY: 0 2.3158 8.0696 14.5237 0.0000 -10741.2739 1461.0113 0.0000 0.0000 1751.4873 -7503.8663 300.6100 -9255.3536 -7503.8663 300.6100 205.4734 305.0223 29994.9670 205.4734 305.0223
ENERGY: 300000 1.6589 8.9634 9.9375 0.0000 -10621.3207 1401.9960 0.0000 0.0000 1744.2102 -7454.5547 299.3610 -9198.7649 -7493.0557 299.5392 -306.5804 -240.7886 30191.8734 -205.4085 -112.1352
ENERGY: 600000 3.1798 8.7161 13.8871 0.0000 -10557.5972 1389.4592 0.0000 0.0000 1739.7154 -7402.6396 298.5896 -9142.3550 -7467.4383 300.1775 -472.2988 -407.9178 30591.8298 -195.2038 -118.2385
ENERGY: 900000 4.6164 9.2427 12.7210 0.0000 -10540.2289 1365.1330 0.0000 0.0000 1736.3401 -7412.1757 298.0103 -9148.5158 -7468.8390 298.5302 -465.3142 -422.9663 30583.2916 -249.2221 -180.4043
ENERGY: 1200000 3.4747 9.7434 9.5196 0.0000 -10753.0179 1483.6902 0.0000 0.0000 1737.6785 -7508.9116 298.2400 -9246.5901 -7476.0051 298.8023 621.6622 685.7807 29932.0935 -210.3989 -147.0897
ENERGY: 1500000 1.9376 8.8306 11.7709 0.0000 -10728.7502 1534.0235 0.0000 0.0000 1790.5121 -7381.6756 307.3079 -9172.1876 -7474.4706 299.8014 937.4167 961.2032 30067.8164 -109.8690 -49.5065
TCL: Running FEP window   7: Lambda1 0.3    Lambda2 0.35   [dLambda 0.04999999999999999]
TCL: Setting parameter firsttimestep to 0
TCL: Setting parameter alchLambda to 0.3
Info: NONBONDED TABLE R-SQUARED SPACING: 0.0625
Info: NONBONDED TABLE SIZE: 705 POINTS
TCL: Setting parameter alchLambda2 to 0.35
Info: NONBONDED TABLE R-SQUARED SPACING: 0.0625
Info: NONBONDED TABLE SIZE: 705 POINTS
TCL: Running for 1500000 steps
ETITLE: TS BOND ANGLE DIHED IMPRP ELECT VDW BOUNDARY MISC KINETIC TOTAL TEMP POTENTIAL TOTALAVG TEMPAVG PRESSURE GPRESSURE VOLUME PRESSAVG GPRESSAVG
ENERGY: 0 1.9376 8.8306 11.7709 0.0000 -10728.7495 1534.9920 0.0000 0.0000 1789.6637 -7381.5547 307.1623 -9171.2185 -7381.5547 307.1623 902.3952 975.8575 30067.8164 902.3952 975.8575
ENERGY: 300000 3.0957 9.0777 8.8516 0.0000 -10708.3088 1460.0294 0.0000 0.0000 1750.4980 -7476.7564 300.4402 -9227.2544 -7468.8454 302.8254 -109.7110 -29.6455 30430.4419 40.5639 116.2020
ENERGY: 600000 2.7563 12.2307 13.1499 0.0000 -10667.4234 1424.0307 0.0000 0.0000 1758.7907 -7456.4653 301.8635 -9215.2559 -7479.2530 301.3404 121.0167 165.6686 29995.5754 -97.6196 -28.0366
ENERGY: 900000 1.8579 8.9941 12.9666 0.0000 -10591.9472 1404.8566 0.0000 0.0000 1759.2971 -7403.9749 301.9504 -9163.2720 -7469.5718 301.3973 255.8987 283.3040 29721.5965 -58.2133 13.0855
ENERGY: 1200000 3.8672 8.1918 9.5976 0.0000 -10589.0151 1267.5562 0.0000 0.0000 1760.1585 -7539.6439 302.0982 -9299.8024 -7478.3189 301.9675 -1367.7866 -1231.0300 30087.9384 -93.4936 -18.4807
ENERGY: 1500000 3.5784 9.3099 9.4966 0.0000 -10776.7552 1471.5053 0.0000 0.0000 1730.2652 -7552.5999 296.9676 -9282.8650 -7480.0505 302.0947 76.9307 192.1201 29947.6071 -67.4342 16.1629
TCL: Running FEP window   8: Lambda1 0.35   Lambda2 0.39999999999999997 [dLambda 0.04999999999999999]
TCL: Setting parameter firsttimestep to 0
TCL: Setting parameter alchLambda to 0.35
Info: NONBONDED TABLE R-SQUARED SPACING: 0.0625
Info: NONBONDED TABLE SIZE: 705 POINTS
TCL: Setting parameter alchLambda2 to 0.39999999999999997
Info: NONBONDED TABLE R-SQUARED SPACING: 0.0625
Info: NONBONDED TABLE SIZE: 705 POINTS
TCL: Running for 1500000 steps
ETITLE: TS BOND ANGLE DIHED IMPRP ELECT VDW BOUNDARY MISC KINETIC TOTAL TEMP POTENTIAL TOTALAVG TEMPAVG PRESSURE GPRESSURE VOLUME PRESSAVG GPRESSAVG
ENERGY: 0 3.5784 9.3099 9.4966 0.0000 -10776.7549 1472.0136 0.0000 0.0000 1729.4236 -7552.9328 296.8232 -9282.3564 -7552.9328 296.8232 127.9166 203.5431 29947.6071 127.9166 203.5431
ENERGY: 300000 3.0685 11.5868 10.9772 0.0000 -10775.2954 1482.5090 0.0000 0.0000 1733.8358 -7533.3182 297.5805 -9267.1540 -7499.2542 297.9319 269.1583 351.8966 29934.2840 -209.6855 -156.0139
ENERGY: 600000 3.6582 4.6408 10.7614 0.0000 -10643.5558 1456.5628 0.0000 0.0000 1734.8980 -7433.0347 297.7627 -9167.9326 -7489.2624 298.0343 430.7406 530.6560 30217.2579 -10.7490 55.1257
ENERGY: 900000 6.6052 8.9115 10.6601 0.0000 -10749.0786 1460.3710 0.0000 0.0000 1760.1326 -7502.3982 302.0938 -9262.5308 -7483.2223 299.1326 205.9646 305.7734 29724.3567 -37.4829 30.6540
ENERGY: 1200000 2.0859 7.8851 9.3200 0.0000 -10662.9130 1391.2361 0.0000 0.0000 1736.0481 -7516.3377 297.9601 -9252.3858 -7488.1174 298.0878 -591.3644 -555.8036 30517.5170 -133.9372 -75.6884
ENERGY: 1500000 6.4434 6.5786 9.8183 0.0000 -10733.0471 1481.9747 0.0000 0.0000 1730.7786 -7497.4535 297.0557 -9228.2320 -7485.4794 298.6957 747.6001 775.2352 29691.4901 -35.8102 16.0264
TCL: Running FEP window   9: Lambda1 0.39999999999999997 Lambda2 0.44999999999999996 [dLambda 0.04999999999999999]
TCL: Setting parameter firsttimestep to 0
TCL: Setting parameter alchLambda to 0.39999999999999997
Info: NONBONDED TABLE R-SQUARED SPACING: 0.0625
Info: NONBONDED TABLE SIZE: 705 POINTS
TCL: Setting parameter alchLambda2 to 0.44999999999999996
Info: NONBONDED TABLE R-SQUARED SPACING: 0.0625
Info: NONBONDED TABLE SIZE: 705 POINTS
TCL: Running for 1500000 steps
ETITLE: TS BOND ANGLE DIHED IMPRP ELECT VDW BOUNDARY MISC KINETIC TOTAL TEMP POTENTIAL TOTALAVG TEMPAVG PRESSURE GPRESSURE VOLUME PRESSAVG GPRESSAVG
ENERGY: 0 6.4434 6.5786 9.8183 0.0000 -10733.0480 1481.6556 0.0000 0.0000 1729.9270 -7498.6250 296.9096 -9228.5521 -7498.6250 296.9096 707.1896 781.4378 29691.4901 707.1896 781.4378
ENERGY: 300000 1.6588 10.6198 13.2227 0.0000 -10663.0472 1405.3578 0.0000 0.0000 1761.0877 -7471.1004 302.2577 -9232.1881 -7504.9572 298.8010 60.9043 211.8634 29651.7024 447.3992 533.4531
ENERGY: 600000 4.8266 7.3422 9.9888 0.0000 -10822.0604 1488.3633 0.0000 0.0000 1795.1334 -7516.4061 308.1010 -9311.5395 -7493.2417 302.5160 631.5484 707.1797 29619.4906 259.2283 342.8269
ENERGY: 900000 1.9485 13.0666 12.2956 0.0000 -10681.9042 1428.5268 0.0000 0.0000 1711.4404 -7514.6263 293.7367 -9226.0667 -7486.3758 301.1077 -45.7388 34.4574 30178.9363 111.2657 197.8604
ENERGY: 1200000 1.1118 7.7987 11.0601 0.0000 -10645.4713 1420.1281 0.0000 0.0000 1792.6236 -7412.7490 307.6703 -9205.3726 -7483.0865 301.4810 -185.2425 -187.1220 30422.7011 63.7069 136.2523
ENERGY: 1500000 3.7687 6.2807 10.7943 0.0000 -10710.5547 1463.9296 0.0000 0.0000 1803.2229 -7422.5585 309.4894 -9225.7814 -7479.3514 302.3583 123.9447 219.8613 29874.0821 71.9964 146.6229
TCL: Running FEP window  10: Lambda1 0.44999999999999996 Lambda2 0.49999999999999994 [dLambda 0.04999999999999999]
TCL: Setting parameter firsttimestep to 0
TCL: Setting parameter alchLambda to 0.44999999999999996
Info: NONBONDED TABLE R-SQUARED SPACING: 0.0625
Info: NONBONDED TABLE SIZE: 705 POINTS
TCL: Setting parameter alchLambda2 to 0.49999999999999994
Info: NONBONDED TABLE R-SQUARED SPACING: 0.0625
Info: NONBONDED TABLE SIZE: 705 POINTS
TCL: Running for 1500000 steps
ETITLE: TS BOND ANGLE DIHED IMPRP ELECT VDW BOUNDARY MISC KINETIC TOTAL TEMP POTENTIAL TOTALAVG TEMPAVG PRESSURE GPRESSURE VOLUME PRESSAVG GPRESSAVG
ENERGY: 0 3.7687 6.2807 10.7943 0.0000 -10710.5554 1463.7356 0.0000 0.0000 1802.3713 -7423.6047 309.3433 -9225.9760 -7423.6047 309.3433 143.9326 222.8089 29874.0821 143.9326 222.8089
ENERGY: 300000 1.3041 7.4142 11.0866 0.0000 -10726.4649 1450.0749 0.0000 0.0000 1755.6671 -7500.9180 301.3274 -9256.5851 -7434.6964 301.4524 -44.0326 45.5469 30301.8343 -320.2641 -242.7008
ENERGY: 600000 4.7231 6.7271 12.1770 0.0000 -10653.8810 1421.1676 0.0000 0.0000 1746.9340 -7462.1522 299.8285 -9209.0862 -7452.4652 299.6491 285.5751 316.6727 29426.1870 -94.3403 -35.5677
ENERGY: 900000 2.4449 8.9564 11.3518 0.0000 -10606.3899 1326.0056 0.0000 0.0000 1687.9205 -7569.7107 289.6999 -9257.6312 -7461.0464 299.7820 -572.4616 -490.5780 29680.5691 54.5836 112.6869
ENERGY: 1200000 5.4695 4.8572 9.7721 0.0000 -10507.3535 1309.3249 0.0000 0.0000 1746.6465 -7431.2833 299.7792 -9177.9298 -7457.0834 299.5637 -859.5228 -786.7242 30355.7762 -176.8221 -112.8279
ENERGY: 1500000 2.4641 10.2420 10.3477 0.0000 -10515.0412 1366.3008 0.0000 0.0000 1770.6571 -7355.0295 303.9001 -9125.6867 -7446.5344 300.0767 -448.7995 -362.2783 30631.1555 -218.5580 -153.7710
TCL: Running FEP window  11: Lambda1 0.49999999999999994 Lambda2 0.5499999999999999 [dLambda 0.04999999999999999]
TCL: Setting parameter firsttimestep to 0
TCL: Setting parameter alchLambda to 0.49999999999999994
Info: NONBONDED TABLE R-SQUARED SPACING: 0.0625
Info: NONBONDED TABLE SIZE: 705 POINTS
TCL: Setting parameter alchLambda2 to 0.5499999999999999
Info: NONBONDED TABLE R-SQUARED SPACING: 0.0625
Info: NONBONDED TABLE SIZE: 705 POINTS
TCL: Running for 1500000 steps
ETITLE: TS BOND ANGLE DIHED IMPRP ELECT VDW BOUNDARY MISC KINETIC TOTAL TEMP POTENTIAL TOTALAVG TEMPAVG PRESSURE GPRESSURE VOLUME PRESSAVG GPRESSAVG
ENERGY: 0 2.4641 10.2420 10.3477 0.0000 -10515.0426 1365.8531 0.0000 0.0000 1769.7951 -7356.3406 303.7522 -9126.1357 -7356.3406 303.7522 -424.3259 -359.6077 30631.1555 -424.3259 -359.6077
ENERGY: 300000 2.1971 6.3506 10.6869 0.0000 -10795.4938 1435.4662 0.0000 0.0000 1753.4487 -7587.3443 300.9466 -9340.7930 -7443.0875 306.1289 -276.4716 -261.6792 29955.7371 -206.5937 -162.3029
ENERGY: 600000 1.6177 9.0424 9.0481 0.0000 -10735.9785 1504.9045 0.0000 0.0000 1734.1772 -7477.1885 297.6390 -9211.3657 -7453.4267 305.4648 423.1845 504.9573 30531.9198 -39.6445 16.0771
ENERGY: 900000 3.3712 8.5316 10.5971 0.0000 -10647.0715 1397.8554 0.0000 0.0000 1700.4440 -7526.2723 291.8494 -9226.7162 -7468.5267 302.6523 -369.9274 -380.7361 30364.2846 -211.3811 -156.1202
ENERGY: 1200000 4.0195 10.8910 13.1917 0.0000 -10711.8450 1452.0841 0.0000 0.0000 1790.5258 -7441.1328 307.3102 -9231.6586 -7472.0956 302.4002 260.9493 333.0908 29918.3594 -307.6546 -247.8140
ENERGY: 1500000 6.4822 8.5875 10.6912 0.0000 -10631.6935 1429.1100 0.0000 0.0000 1819.1790 -7357.6437 312.2280 -9176.8227 -7463.3469 302.4867 66.6954 102.8540 30364.8090 -240.0219 -184.8322
TCL: Running FEP window  12: Lambda1 0.5499999999999999 Lambda2 0.6    [dLambda 0.050000000000000044]
TCL: Setting parameter firsttimestep to 0
TCL: Setting parameter alchLambda to 0.5499999999999999
Info: NONBONDED TABLE R-SQUARED SPACING: 0.0625
Info: NONBONDED TABLE SIZE: 705 POINTS
TCL: Setting parameter alchLambda2 to 0.6
Info: NONBONDED TABLE R-SQUARED SPACING: 0.0625
Info: NONBONDED TABLE SIZE: 705 POINTS
TCL: Running for 1500000 steps
ETITLE: TS BOND ANGLE DIHED IMPRP ELECT VDW BOUNDARY MISC KINETIC TOTAL TEMP POTENTIAL TOTALAVG TEMPAVG PRESSURE GPRESSURE VOLUME PRESSAVG GPRESSAVG
ENERGY: 0 6.4822 8.5875 10.6912 0.0000 -10631.6511 1429.0836 0.0000 0.0000 1818.3089 -7358.4978 312.0787 -9176.8066 -7358.4978 312.0787 30.4217 114.3306 30364.8090 30.4217 114.3306
ENERGY: 300000 3.8277 7.8564 12.3855 0.0000 -10607.6012 1379.8909 0.0000 0.0000 1776.3494 -7427.2913 304.8771 -9203.6407 -7427.7263 305.6353 -257.6075 -253.0964 30004.6403 -203.3540 -143.6018
ENERGY: 600000 1.5862 10.6237 11.9696 0.0000 -10671.6180 1389.0453 0.0000 0.0000 1743.5612 -7514.8319 299.2496 -9258.3932 -7457.0757 303.1199 -442.1565 -375.4159 30240.8000 -244.6159 -180.5947
ENERGY: 900000 4.7484 11.4939 10.2783 0.0000 -10596.9124 1361.7057 0.0000 0.0000 1711.1188 -7497.5673 293.6815 -9208.6861 -7457.2883 301.3246 -836.1887 -713.4559 30616.7400 -255.2589 -202.4640
ENERGY: 1200000 3.3529 10.7098 9.6616 0.0000 -10717.3630 1409.4342 0.0000 0.0000 1756.4737 -7527.7308 301.4658 -9284.2046 -7466.0867 301.7145 -98.0789 -39.3175 29633.8567 -247.3173 -193.5275
ENERGY: 1500000 2.1151 9.6644 11.2648 0.0000 -10822.9423 1484.3670 0.0000 0.0000 1749.5901 -7565.9409 300.2844 -9315.5311 -7475.5075 301.1481 434.0721 498.1720 29564.5901 -149.8158 -88.8769
TCL: Running FEP window  13: Lambda1 0.6    Lambda2 0.65   [dLambda 0.050000000000000044]
TCL: Setting parameter firsttimestep to 0
TCL: Setting parameter alchLambda to 0.6
Info: NONBONDED TABLE R-SQUARED SPACING: 0.0625
Info: NONBONDED TABLE SIZE: 705 POINTS
TCL: Setting parameter alchLambda2 to 0.65
Info: NONBONDED TABLE R-SQUARED SPACING: 0.0625
Info: NONBONDED TABLE SIZE: 705 POINTS
TCL: Running for 1500000 steps
ETITLE: TS BOND ANGLE DIHED IMPRP ELECT VDW BOUNDARY MISC KINETIC TOTAL TEMP POTENTIAL TOTALAVG TEMPAVG PRESSURE GPRESSURE VOLUME PRESSAVG GPRESSAVG
ENERGY: 0 2.1151 9.6644 11.2648 0.0000 -10823.4442 1484.4515 0.0000 0.0000 1748.6967 -7567.2517 300.1310 -9315.9484 -7567.2517 300.1310 432.8019 506.8229 29564.5901 432.8019 506.8229
ENERGY: 300000 3.9711 8.6653 9.8761 0.0000 -10612.9085 1351.6850 0.0000 0.0000 1776.5253 -7462.1856 304.9073 -9238.7110 -7506.9834 302.8903 -487.6272 -381.6385 29815.8591 -61.9409 -0.1407
ENERGY: 600000 4.4848 5.8430 10.6646 0.0000 -10609.2246 1347.0462 0.0000 0.0000 1762.0671 -7479.1189 302.4258 -9241.1860 -7513.4811 300.7736 -563.9930 -402.3054 29922.4195 -147.8349 -81.6846
ENERGY: 900000 1.7614 9.8966 10.3236 0.0000 -10679.0025 1457.7389 0.0000 0.0000 1726.0973 -7473.1846 296.2523 -9199.2819 -7500.6301 300.0570 294.5106 293.4244 30540.8555 -131.6952 -74.4241
ENERGY: 1200000 1.6153 11.1385 12.6481 0.0000 -10807.8988 1455.1090 0.0000 0.0000 1761.0281 -7566.3597 302.2475 -9327.3878 -7503.5990 299.8853 100.4241 180.1370 29676.5661 -118.8036 -65.9826
ENERGY: 1500000 1.3895 7.5594 13.3672 0.0000 -10766.4276 1521.1830 0.0000 0.0000 1716.3295 -7506.5990 294.5758 -9222.9285 -7499.2876 300.2971 610.8389 640.2793 30188.1654 -29.6010 25.9321
TCL: Running FEP window  14: Lambda1 0.65   Lambda2 0.7000000000000001 [dLambda 0.050000000000000044]
TCL: Setting parameter firsttimestep to 0
TCL: Setting parameter alchLambda to 0.65
Info: NONBONDED TABLE R-SQUARED SPACING: 0.0625
Info: NONBONDED TABLE SIZE: 705 POINTS
TCL: Setting parameter alchLambda2 to 0.7000000000000001
Info: NONBONDED TABLE R-SQUARED SPACING: 0.0625
Info: NONBONDED TABLE SIZE: 705 POINTS
TCL: Running for 1500000 steps
ETITLE: TS BOND ANGLE DIHED IMPRP ELECT VDW BOUNDARY MISC KINETIC TOTAL TEMP POTENTIAL TOTALAVG TEMPAVG PRESSURE GPRESSURE VOLUME PRESSAVG GPRESSAVG
ENERGY: 0 1.3895 7.5594 13.3672 0.0000 -10768.0094 1522.6046 0.0000 0.0000 1715.4676 -7507.6211 294.4279 -9223.0888 -7507.6211 294.4279 593.6387 659.2995 30188.1654 593.6387 659.2995
ENERGY: 300000 2.9217 5.6441 11.6990 0.0000 -10753.8482 1449.1317 0.0000 0.0000 1710.8189 -7573.6327 293.6300 -9284.4516 -7506.7621 299.0190 -315.7049 -208.0492 30350.1606 71.7693 161.6607
ENERGY: 600000 2.7443 6.8637 11.4177 0.0000 -10562.8703 1308.5946 0.0000 0.0000 1712.8613 -7520.3886 293.9806 -9233.2499 -7502.4204 299.0267 -765.6492 -650.7355 29970.2613 83.4966 154.2684
ENERGY: 900000 2.1793 9.9248 11.0950 0.0000 -10769.1103 1421.3255 0.0000 0.0000 1775.2892 -7549.2966 304.6951 -9324.5858 -7493.1363 300.1723 -549.8270 -477.3902 30212.1186 -25.7626 34.0630
ENERGY: 1200000 4.9837 7.2338 10.9947 0.0000 -10877.7857 1559.6653 0.0000 0.0000 1758.8894 -7536.0188 301.8804 -9294.9082 -7494.5325 300.6034 1062.1134 1131.8189 29687.2573 58.2921 121.5005
ENERGY: 1500000 1.8406 8.0719 9.8777 0.0000 -10736.0934 1465.0222 0.0000 0.0000 1796.0346 -7455.2464 308.2557 -9251.2810 -7494.8902 300.6097 423.9477 455.3602 29708.6353 34.8949 89.8664
TCL: Running FEP window  15: Lambda1 0.7000000000000001 Lambda2 0.7500000000000001 [dLambda 0.050000000000000044]
TCL: Setting parameter firsttimestep to 0
TCL: Setting parameter alchLambda to 0.7000000000000001
Info: NONBONDED TABLE R-SQUARED SPACING: 0.0625
Info: NONBONDED TABLE SIZE: 705 POINTS
TCL: Setting parameter alchLambda2 to 0.7500000000000001
Info: NONBONDED TABLE R-SQUARED SPACING: 0.0625
Info: NONBONDED TABLE SIZE: 705 POINTS
TCL: Running for 1500000 steps
ETITLE: TS BOND ANGLE DIHED IMPRP ELECT VDW BOUNDARY MISC KINETIC TOTAL TEMP POTENTIAL TOTALAVG TEMPAVG PRESSURE GPRESSURE VOLUME PRESSAVG GPRESSAVG
ENERGY: 0 1.8406 8.0719 9.8777 0.0000 -10737.7270 1465.7526 0.0000 0.0000 1795.1881 -7456.9960 308.1104 -9252.1841 -7456.9960 308.1104 380.5747 470.0529 29708.6353 380.5747 470.0529
ENERGY: 300000 4.7621 10.9308 12.5363 0.0000 -10726.2155 1473.5674 0.0000 0.0000 1743.5833 -7480.8357 299.2534 -9224.4189 -7430.9418 302.9763 566.1403 563.6655 30106.8071 336.3162 372.9596
ENERGY: 600000 3.0218 11.6295 8.1944 0.0000 -10732.0833 1455.7054 0.0000 0.0000 1785.2541 -7468.2780 306.4054 -9253.5321 -7452.5892 301.8339 351.1954 380.1775 29924.6351 294.3551 333.7627
ENERGY: 900000 5.9371 8.1941 10.8501 0.0000 -10706.5362 1438.4025 0.0000 0.0000 1650.2808 -7592.8717 283.2398 -9243.1524 -7472.4119 300.6784 55.9059 106.6886 30073.6057 239.0291 277.0757
ENERGY: 1200000 1.4035 11.7656 10.6533 0.0000 -10691.8349 1456.9254 0.0000 0.0000 1768.8057 -7442.2813 303.5824 -9211.0870 -7468.0055 301.9344 239.6149 335.4088 30364.5284 176.8695 220.8101
ENERGY: 1500000 2.8844 8.4520 12.9399 0.0000 -10621.4954 1367.0202 0.0000 0.0000 1740.4721 -7489.7268 298.7194 -9230.1989 -7466.7621 301.3795 -357.5406 -236.6752 29932.4072 176.9341 234.7674
TCL: Running FEP window  16: Lambda1 0.7500000000000001 Lambda2 0.8000000000000002 [dLambda 0.050000000000000044]
TCL: Setting parameter firsttimestep to 0
TCL: Setting parameter alchLambda to 0.7500000000000001
Info: NONBONDED TABLE R-SQUARED SPACING: 0.0625
Info: NONBONDED TABLE SIZE: 705 POINTS
TCL: Setting parameter alchLambda2 to 0.8000000000000002
Info: NONBONDED TABLE R-SQUARED SPACING: 0.0625
Info: NONBONDED TABLE SIZE: 705 POINTS
TCL: Running for 1500000 steps
ETITLE: TS BOND ANGLE DIHED IMPRP ELECT VDW BOUNDARY MISC KINETIC TOTAL TEMP POTENTIAL TOTALAVG TEMPAVG PRESSURE GPRESSURE VOLUME PRESSAVG GPRESSAVG
ENERGY: 0 2.8844 8.4520 12.9399 0.0000 -10622.7071 1366.8842 0.0000 0.0000 1739.6406 -7491.9061 298.5767 -9231.5467 -7491.9061 298.5767 -306.0512 -227.0950 29932.4072 -306.0512 -227.0950
ENERGY: 300000 1.8741 10.8202 11.6491 0.0000 -10660.1832 1331.9919 0.0000 0.0000 1774.3731 -7529.4747 304.5379 -9303.8478 -7489.9293 300.7456 -836.3943 -875.6031 30126.0484 -262.1087 -218.6376
ENERGY: 600000 1.7932 7.9417 10.1401 0.0000 -10563.0013 1331.2027 0.0000 0.0000 1731.4825 -7480.4412 297.1765 -9211.9236 -7487.8751 300.4141 -683.2024 -579.2953 30217.6838 -266.3830 -210.5739
ENERGY: 900000 3.7309 13.2961 10.1274 0.0000 -10877.0560 1553.3776 0.0000 0.0000 1773.3714 -7523.1527 304.3660 -9296.5241 -7488.7896 301.6194 771.0170 870.1502 30019.8379 -162.4223 -92.8537
ENERGY: 1200000 4.2568 13.2701 10.2527 0.0000 -10781.6229 1460.3332 0.0000 0.0000 1760.2560 -7533.2541 302.1150 -9293.5101 -7481.9617 301.2454 210.7764 169.2318 30176.2805 -109.5043 -46.8487
ENERGY: 1500000 3.0494 7.2303 11.2278 0.0000 -10703.4189 1458.4370 0.0000 0.0000 1753.3089 -7470.1655 300.9226 -9223.4744 -7480.0065 301.1779 553.0194 623.9680 29822.4316 -60.3644 0.8722
TCL: Running FEP window  17: Lambda1 0.8000000000000002 Lambda2 0.8500000000000002 [dLambda 0.050000000000000044]
TCL: Setting parameter firsttimestep to 0
TCL: Setting parameter alchLambda to 0.8000000000000002
Info: NONBONDED TABLE R-SQUARED SPACING: 0.0625
Info: NONBONDED TABLE SIZE: 705 POINTS
TCL: Setting parameter alchLambda2 to 0.8500000000000002
Info: NONBONDED TABLE R-SQUARED SPACING: 0.0625
Info: NONBONDED TABLE SIZE: 705 POINTS
TCL: Running for 1500000 steps
ETITLE: TS BOND ANGLE DIHED IMPRP ELECT VDW BOUNDARY MISC KINETIC TOTAL TEMP POTENTIAL TOTALAVG TEMPAVG PRESSURE GPRESSURE VOLUME PRESSAVG GPRESSAVG
ENERGY: 0 3.0494 7.2303 11.2278 0.0000 -10705.3786 1459.2346 0.0000 0.0000 1752.4879 -7472.1485 300.7817 -9224.6364 -7472.1485 300.7817 538.9483 640.1895 29822.4316 538.9483 640.1895
ENERGY: 300000 7.1861 6.5267 9.3169 0.0000 -10758.8067 1482.9924 0.0000 0.0000 1707.5168 -7545.2678 293.0633 -9252.7846 -7457.4971 300.5653 212.4794 151.7703 30201.3988 296.1711 307.8262
ENERGY: 600000 1.8775 10.9966 15.8924 0.0000 -10611.2461 1364.5065 0.0000 0.0000 1734.4094 -7483.5637 297.6789 -9217.9731 -7487.8483 298.7485 -594.2954 -520.6848 30446.3351 54.0034 84.3911
ENERGY: 900000 3.2555 5.4469 13.4667 0.0000 -10655.3082 1378.0949 0.0000 0.0000 1723.9331 -7531.1111 295.8808 -9255.0442 -7496.0248 299.0024 -420.0279 -335.7961 29818.4362 26.5768 68.9000
ENERGY: 1200000 3.7507 7.9729 13.5558 0.0000 -10771.0879 1425.6697 0.0000 0.0000 1738.2577 -7581.8811 298.3394 -9320.1388 -7509.1438 298.6495 -151.2770 -103.6666 29744.2778 -33.8451 10.0210
ENERGY: 1500000 3.8005 10.6864 9.5052 0.0000 -10537.1673 1381.2628 0.0000 0.0000 1757.9253 -7373.9870 301.7150 -9131.9123 -7505.4517 298.7485 -179.7296 -81.7534 30462.9073 -78.1388 -26.7290
TCL: Running FEP window  18: Lambda1 0.8500000000000002 Lambda2 0.9000000000000002 [dLambda 0.050000000000000044]
TCL: Setting parameter firsttimestep to 0
TCL: Setting parameter alchLambda to 0.8500000000000002
Info: NONBONDED TABLE R-SQUARED SPACING: 0.0625
Info: NONBONDED TABLE SIZE: 705 POINTS
TCL: Setting parameter alchLambda2 to 0.9000000000000002
Info: NONBONDED TABLE R-SQUARED SPACING: 0.0625
Info: NONBONDED TABLE SIZE: 705 POINTS
TCL: Running for 1500000 steps
ETITLE: TS BOND ANGLE DIHED IMPRP ELECT VDW BOUNDARY MISC KINETIC TOTAL TEMP POTENTIAL TOTALAVG TEMPAVG PRESSURE GPRESSURE VOLUME PRESSAVG GPRESSAVG
ENERGY: 0 3.8005 10.6864 9.5052 0.0000 -10539.2643 1382.8586 0.0000 0.0000 1757.0249 -7375.3887 301.5604 -9132.4136 -7375.3887 301.5604 -144.8244 -54.1521 30462.9073 -144.8244 -54.1521
ENERGY: 300000 3.3990 10.5393 10.4062 0.0000 -10768.7161 1450.6228 0.0000 0.0000 1728.6343 -7565.1144 296.6877 -9293.7487 -7521.3398 298.3955 285.1138 284.9291 29944.4500 0.5486 56.7596
ENERGY: 600000 1.7623 9.0060 10.9320 0.0000 -10735.6461 1492.1633 0.0000 0.0000 1720.4105 -7501.3720 295.2763 -9221.7825 -7506.5354 299.2734 479.9582 485.7564 30131.3043 222.3863 275.8787
ENERGY: 900000 5.4243 10.5920 8.6332 0.0000 -10748.7828 1449.0971 0.0000 0.0000 1713.7326 -7561.3037 294.1301 -9275.0363 -7506.6795 299.4652 5.2715 100.6706 30234.2899 256.6120 314.2635
ENERGY: 1200000 1.8218 8.0522 12.0484 0.0000 -10690.2823 1415.2348 0.0000 0.0000 1643.3707 -7609.7544 282.0538 -9253.1251 -7513.0746 298.1121 31.7529 141.1993 29798.2978 211.0930 268.9421
ENERGY: 1500000 4.2310 7.6704 14.3605 0.0000 -10792.6166 1495.5320 0.0000 0.0000 1715.1643 -7555.6584 294.3758 -9270.8226 -7512.3630 298.7259 519.8139 527.5622 29776.5816 124.7449 180.6911
TCL: Running FEP window  19: Lambda1 0.9000000000000002 Lambda2 0.9500000000000003 [dLambda 0.050000000000000044]
TCL: Setting parameter firsttimestep to 0
TCL: Setting parameter alchLambda to 0.9000000000000002
Info: NONBONDED TABLE R-SQUARED SPACING: 0.0625
Info: NONBONDED TABLE SIZE: 705 POINTS
TCL: Setting parameter alchLambda2 to 0.9500000000000003
Info: NONBONDED TABLE R-SQUARED SPACING: 0.0625
Info: NONBONDED TABLE SIZE: 705 POINTS
TCL: Running for 1500000 steps
ETITLE: TS BOND ANGLE DIHED IMPRP ELECT VDW BOUNDARY MISC KINETIC TOTAL TEMP POTENTIAL TOTALAVG TEMPAVG PRESSURE GPRESSURE VOLUME PRESSAVG GPRESSAVG
ENERGY: 0 4.2310 7.6704 14.3605 0.0000 -10794.6310 1496.6508 0.0000 0.0000 1714.2682 -7557.4501 294.2220 -9271.7183 -7557.4501 294.2220 468.0353 551.5633 29776.5816 468.0353 551.5633
ENERGY: 300000 2.3968 8.3048 10.2978 0.0000 -10634.6313 1386.5402 0.0000 0.0000 1778.3867 -7448.7050 305.2268 -9227.0917 -7526.6472 297.0772 -535.1891 -463.0047 30539.2369 -25.9407 39.7407
ENERGY: 600000 3.8680 8.8686 9.1013 0.0000 -10697.0098 1429.4637 0.0000 0.0000 1745.9369 -7499.7712 299.6574 -9245.7081 -7502.7776 298.6399 -303.5562 -295.8505 30495.8511 90.3233 145.9399
ENERGY: 900000 4.9268 8.0240 10.2403 0.0000 -10767.3903 1442.8518 0.0000 0.0000 1752.5232 -7548.8243 300.7878 -9301.3475 -7506.7982 299.3098 -26.2638 14.2551 30224.9215 -10.3001 45.8876
ENERGY: 1200000 1.0462 7.4781 11.0323 0.0000 -10675.1876 1432.9539 0.0000 0.0000 1693.6948 -7528.9822 290.6910 -9222.6771 -7507.1636 298.1959 96.9054 188.9107 30127.5819 -40.2211 24.8800
ENERGY: 1500000 4.1133 9.4373 10.0403 0.0000 -10515.2230 1361.9244 0.0000 0.0000 1757.5019 -7372.2058 301.6423 -9129.7076 -7508.4199 298.3346 -376.9350 -309.9061 30860.1943 -2.7368 58.6264
TCL: Running FEP window  20: Lambda1 0.9500000000000003 Lambda2 1.0    [dLambda 0.04999999999999971]
TCL: Setting parameter firsttimestep to 0
TCL: Setting parameter alchLambda to 0.9500000000000003
Info: NONBONDED TABLE R-SQUARED SPACING: 0.0625
Info: NONBONDED TABLE SIZE: 705 POINTS
TCL: Setting parameter alchLambda2 to 1.0
Info: NONBONDED TABLE R-SQUARED SPACING: 0.0625
Info: NONBONDED TABLE SIZE: 705 POINTS
TCL: Running for 1500000 steps
ETITLE: TS BOND ANGLE DIHED IMPRP ELECT VDW BOUNDARY MISC KINETIC TOTAL TEMP POTENTIAL TOTALAVG TEMPAVG PRESSURE GPRESSURE VOLUME PRESSAVG GPRESSAVG
ENERGY: 0 4.1133 9.4373 10.0403 0.0000 -10516.7229 1362.4865 0.0000 0.0000 1756.6342 -7374.0112 301.4934 -9130.6454 -7374.0112 301.4934 -369.8600 -292.4086 30860.1943 -369.8600 -292.4086
ENERGY: 300000 5.1855 14.9126 11.3819 0.0000 -10717.7508 1477.9273 0.0000 0.0000 1718.3344 -7490.0090 294.9199 -9208.3434 -7463.8007 300.1034 453.3089 479.8076 30435.0063 -79.6709 -6.9615
ENERGY: 600000 2.8461 6.9763 12.6720 0.0000 -10745.3466 1496.6863 0.0000 0.0000 1771.3848 -7454.7811 304.0250 -9226.1659 -7455.0669 300.8471 870.2899 904.8645 30087.3788 97.0586 168.7177
ENERGY: 900000 2.7546 7.9072 11.5417 0.0000 -10649.9786 1395.4601 0.0000 0.0000 1745.2266 -7487.0884 299.5355 -9232.3151 -7472.6647 300.1603 -173.1551 -215.9022 30151.3771 -48.5108 5.9573
ENERGY: 1200000 0.7268 6.9675 12.7992 0.0000 -10723.5934 1456.3353 0.0000 0.0000 1744.6801 -7502.0844 299.4417 -9246.7646 -7474.1360 299.9358 361.4272 354.1943 30288.2630 6.5149 52.3294
ENERGY: 1500000 3.8575 8.1511 14.6344 0.0000 -10747.3259 1444.6463 0.0000 0.0000 1789.8588 -7486.1778 307.1957 -9276.0366 -7479.6729 299.9879 279.5058 353.7517 29932.8796 -58.4943 -15.8319
TCL: Exiting due to exit command.
