Info: SIMULATION PARAMETERS:
Info: TIMESTEP               2
Info: NUMBER OF STEPS        0
Info: STEPS PER CYCLE        10
Info: PERIODIC CELL BASIS 1  31.788 0 0
Info: PERIODIC CELL BASIS 2  0 31.3637 0
Info: PERIODIC CELL BASIS 3  0 0 30.9589
Info: PERIODIC CELL CENTER   0 0 0
Info: WRAPPING WATERS AROUND PERIODIC BOUNDARIES ON OUTPUT.
Info: WRAPPING ALL CLUSTERS AROUND PERIODIC BOUNDARIES ON OUTPUT.
Info: FIRST LDB TIMESTEP     50
Info: LAST LDB TIMESTEP     -1
Info: HOM BACKGROUND SCALING 1
Info: PME BACKGROUND SCALING 1
Info: MIN ATOMS PER PATCH    40
Info: EMPTY PATCH LOAD       40 ATOMS
Info: VELOCITY FILE          mobley_4561957_equil.vel
Info: CENTER OF MASS MOVING INITIALLY? NO
Info: DIELECTRIC             1
Info: EXCLUDE                SCALED ONE-FOUR
Info: 1-4 ELECTROSTATICS SCALED BY 0.833333
Info: MODIFIED 1-4 VDW PARAMETERS WILL BE USED
Info: DCD FILENAME           mobley_4561957_prod.dcd
Info: DCD FREQUENCY          100000
Info: DCD FIRST STEP         100000
Info: DCD FILE WILL CONTAIN UNIT CELL DATA
Info: XST FILENAME           mobley_4561957_prod.xst
Info: XST FREQUENCY          100000
Info: NO VELOCITY DCD OUTPUT
Info: NO FORCE DCD OUTPUT
Info: OUTPUT FILENAME        mobley_4561957_prod
Info: BINARY OUTPUT FILES WILL BE USED
Info: RESTART FILENAME       mobley_4561957_prod.restart
Info: RESTART FREQUENCY      100000
Info: BINARY RESTART FILES WILL BE USED
Info: CUTOFF                 9
Info: PAIRLIST DISTANCE      11
Info: PAIRLIST SHRINK RATE   0.01
Info: PAIRLIST GROW RATE     0.01
Info: PAIRLIST TRIGGER       0.3
Info: PAIRLISTS PER CYCLE    2
Info: PAIRLISTS ENABLED
Info: MARGIN                 2
Info: HYDROGEN GROUP CUTOFF  2.5
Info: PATCH DIMENSION        15.5
Info: ENERGY OUTPUT STEPS    100000
Info: ENERGY EVALUATION STEPS    100000
Info: OUTPUT ENERGY PRECISION 4
Info: CROSSTERM ENERGY INCLUDED IN DIHEDRAL
Info: TIMING OUTPUT STEPS    1000000
Info: PRESSURE OUTPUT STEPS  100000
Info: ALCHEMICAL FEP ON
Info: FEP CURRENT LAMBDA VALUE     0
Info: FEP COMPARISON LAMBDA VALUE  0.05
Info: FEP INTRA-ALCHEMICAL NON-BONDED INTERACTIONS WILL BE RETAINED
Info: FEP INTRA-ALCHEMICAL BONDED INTERACTIONS WILL BE RETAINED
Info: FEP VDW SHIFTING COEFFICIENT 5
Info: FEP ELEC. ACTIVE FOR ANNIHILATED PARTICLES BETWEEN LAMBDA = 0 AND LAMBDA = 0.5
Info: FEP ELEC. ACTIVE FOR EXNIHILATED PARTICLES BETWEEN LAMBDA = 0.5 AND LAMBDA = 1
Info: FEP VDW ACTIVE FOR ANNIHILATED PARTICLES BETWEEN LAMBDA = 0 AND LAMBDA = 1
Info: FEP VDW ACTIVE FOR EXNIHILATED PARTICLES BETWEEN LAMBDA = 0 AND LAMBDA = 1
Info: FEP BOND ACTIVE FOR ANNIHILATED PARTICLES BETWEEN LAMBDA = 1 AND LAMBDA = 1
Info: FEP BOND ACTIVE FOR EXNIHILATED PARTICLES BETWEEN LAMBDA = 0 AND LAMBDA = 0
Info: LANGEVIN DYNAMICS ACTIVE
Info: LANGEVIN TEMPERATURE   300
Info: LANGEVIN USING BBK INTEGRATOR
Info: LANGEVIN DAMPING COEFFICIENT IS 1 INVERSE PS
Info: LANGEVIN DYNAMICS APPLIED TO HYDROGENS
Info: LANGEVIN PISTON PRESSURE CONTROL ACTIVE
Info:        TARGET PRESSURE IS 1.01325 BAR
Info:     OSCILLATION PERIOD IS 50 FS
Info:             DECAY TIME IS 25 FS
Info:     PISTON TEMPERATURE IS 300 K
Info:       PRESSURE CONTROL IS GROUP-BASED
Info:    INITIAL STRAIN RATE IS 9.41165e-05 9.41165e-05 9.41165e-05
Info:       CELL FLUCTUATION IS ISOTROPIC
Info: PARTICLE MESH EWALD (PME) ACTIVE
Info: PME TOLERANCE               1e-06
Info: PME EWALD COEFFICIENT       0.348832
Info: PME INTERPOLATION ORDER     4
Info: PME GRID DIMENSIONS         32 32 32
Info: PME MAXIMUM GRID SPACING    1
Info: PME CALCULATION WILL BE PERFORMED ON GPU
Info: FULL ELECTROSTATIC EVALUATION FREQUENCY      2
Info: USING VERLET I (r-RESPA) MTS SCHEME.
Info: C1 SPLITTING OF LONG RANGE ELECTROSTATICS
Info: PLACING ATOMS IN PATCHES BY HYDROGEN GROUPS
Info: RIGID BONDS TO HYDROGEN : ALL
Info:         ERROR TOLERANCE : 1e-08
Info:          MAX ITERATIONS : 100
Info: RIGID WATER USING SETTLE ALGORITHM
Info: RANDOM NUMBER SEED     1743793679
Info: USE HYDROGEN BONDS?    NO
Info: Using AMBER format force field!
Info: AMBER PARM FILE        mobley_4561957.prmtop
Info: COORDINATE PDB         mobley_4561957.pdb
Info: Exclusions will be read from PARM file!
Info: SCNB (VDW SCALING)     2
Info: USING ARITHMETIC MEAN TO COMBINE L-J SIGMA PARAMETERS
Info: BINARY COORDINATES     mobley_4561957_equil.coor
Info: SUMMARY OF PARAMETERS:
Info: 4 BONDS
Info: 3 ANGLES
Info:   3 HARMONIC
Info:   0 COSINE-BASED
Info: 5 DIHEDRAL
Info: 0 IMPROPER
Info: 0 CROSSTERM
Info: 0 VDW
Info: 10 VDW_PAIRS
Info: 0 NBTHOLE_PAIRS
Info: To read alchdata from file: mobley_4561957.pdb
Info: To read alchflag data from column: 5
Info: STRUCTURE SUMMARY:
Info: 2921 ATOMS
Info: 2920 BONDS
Info: 36 ANGLES
Info: 53 DIHEDRALS
Info: 0 IMPROPERS
Info: 0 CROSSTERMS
Info: 3001 EXCLUSIONS
Info: 2915 RIGID BONDS
Info: ALCH: 0 ATOMS TO DISAPPEAR IN FINAL STATE
Info: ALCH: 20 ATOMS TO APPEAR IN FINAL STATE
Info: 5848 DEGREES OF FREEDOM
Info: 973 HYDROGEN GROUPS
Info: 4 ATOMS IN LARGEST HYDROGEN GROUP
Info: 973 MIGRATION GROUPS
Info: 4 ATOMS IN LARGEST MIGRATION GROUP
Info: TOTAL MASS = 17507.6 amu
Info: TOTAL CHARGE = 0.00060001 e
Info: MASS DENSITY = 0.941914 g/cm^3
Info: ATOM DENSITY = 0.0946358 atoms/A^3
Info: ADDED 0 IMPLICIT EXCLUSIONS
Info: NONBONDED TABLE R-SQUARED SPACING: 0.0625
Info: NONBONDED TABLE SIZE: 705 POINTS
Info: REDUCING NUMBER OF PATCHES TO IMPROVE LOAD BALANCE
Info: REMOVING COM VELOCITY 0.00310508 -0.171755 -0.220339
Info: Use 3D box decompostion in PME FFT.
Info: Updated CUDA force table with 4096 elements.
Info: Updated CUDA LJ table with 4 x 4 elements.
Info: Found 23 unique exclusion lists needing 64 bytes
TCL: Running for 1500000 steps
ETITLE: TS BOND ANGLE DIHED IMPRP ELECT VDW BOUNDARY MISC KINETIC TOTAL TEMP POTENTIAL TOTALAVG TEMPAVG PRESSURE GPRESSURE VOLUME PRESSAVG GPRESSAVG
ENERGY: 0 2.6411 7.2139 3.4932 0.0000 -10499.2559 1377.4575 0.0000 0.0000 1791.2048 -7317.2453 308.2679 -9108.4501 -7317.2453 308.2679 -784.8745 -715.4239 30865.6823 -784.8745 -715.4239
ENERGY: 300000 1.4385 7.2194 4.0868 0.0000 -10647.1367 1449.4734 0.0000 0.0000 1773.7353 -7411.1834 305.2614 -9184.9187 -7360.5484 304.3536 256.8145 257.4503 29390.6267 -505.2027 -456.1218
ENERGY: 600000 1.6514 10.0487 2.8980 0.0000 -10631.5204 1412.6497 0.0000 0.0000 1770.3023 -7433.9702 304.6705 -9204.2725 -7390.6013 303.7200 -84.0623 -96.5629 29545.2690 -186.8050 -137.9826
ENERGY: 900000 3.5384 7.5859 3.1997 0.0000 -10690.0327 1543.6403 0.0000 0.0000 1777.5949 -7354.4734 305.9256 -9132.0684 -7388.9108 303.1216 907.3982 1048.8431 29523.6384 -194.9018 -127.9204
ENERGY: 1200000 0.1648 10.6233 2.9246 0.0000 -10597.8277 1458.4085 0.0000 0.0000 1715.2660 -7410.4406 295.1987 -9125.7065 -7378.2520 302.9929 79.9982 150.6463 30170.8264 -172.9642 -104.0871
ENERGY: 1500000 1.9756 11.3843 2.7138 0.0000 -10472.2636 1355.4068 0.0000 0.0000 1688.2302 -7412.5528 290.5459 -9100.7830 -7388.9088 300.9959 -411.8222 -366.1798 29745.6106 -159.2719 -87.6394
TCL: Running FEP window   2: Lambda1 0.05   Lambda2 0.1    [dLambda 0.05  ]
TCL: Setting parameter firsttimestep to 0
TCL: Setting parameter alchLambda to 0.05
Info: NONBONDED TABLE R-SQUARED SPACING: 0.0625
Info: NONBONDED TABLE SIZE: 705 POINTS
TCL: Setting parameter alchLambda2 to 0.1
Info: NONBONDED TABLE R-SQUARED SPACING: 0.0625
Info: NONBONDED TABLE SIZE: 705 POINTS
TCL: Running for 1500000 steps
ETITLE: TS BOND ANGLE DIHED IMPRP ELECT VDW BOUNDARY MISC KINETIC TOTAL TEMP POTENTIAL TOTALAVG TEMPAVG PRESSURE GPRESSURE VOLUME PRESSAVG GPRESSAVG
ENERGY: 0 1.9756 11.3843 2.7138 0.0000 -10472.2648 1356.9523 0.0000 0.0000 1687.3497 -7411.8890 290.3943 -9099.2388 -7411.8890 290.3943 -432.4334 -362.3941 29745.6106 -432.4334 -362.3941
ENERGY: 300000 1.4792 11.8227 4.5463 0.0000 -10453.2125 1377.2305 0.0000 0.0000 1758.1193 -7300.0145 302.5738 -9058.1337 -7351.4270 300.4324 -358.0883 -283.1728 30319.2884 -455.0735 -387.0189
ENERGY: 600000 1.0097 9.4253 4.6184 0.0000 -10654.8868 1466.6724 0.0000 0.0000 1681.5343 -7491.6267 289.3935 -9173.1609 -7386.7401 298.6267 362.3623 516.0549 29145.8264 -328.3039 -253.3284
ENERGY: 900000 1.9729 7.8444 2.6619 0.0000 -10496.7694 1395.6915 0.0000 0.0000 1762.6030 -7325.9958 303.3455 -9088.5988 -7384.3149 299.0744 -407.8191 -321.8915 30295.1525 -309.6255 -240.4996
ENERGY: 1200000 5.5717 7.3625 2.8414 0.0000 -10535.3384 1394.2164 0.0000 0.0000 1733.6234 -7391.7230 298.3581 -9125.3464 -7389.7650 298.6960 -370.3402 -366.4336 29673.5107 -283.3471 -218.6810
ENERGY: 1500000 1.9687 13.5406 4.3882 0.0000 -10464.8579 1360.8320 0.0000 0.0000 1795.4091 -7288.7193 308.9914 -9084.1284 -7381.6526 299.7255 -322.7903 -285.5123 29817.4033 -282.9903 -218.9702
TCL: Running FEP window   3: Lambda1 0.1    Lambda2 0.15000000000000002 [dLambda 0.05000000000000002]
TCL: Setting parameter firsttimestep to 0
TCL: Setting parameter alchLambda to 0.1
Info: NONBONDED TABLE R-SQUARED SPACING: 0.0625
Info: NONBONDED TABLE SIZE: 705 POINTS
TCL: Setting parameter alchLambda2 to 0.15000000000000002
Info: NONBONDED TABLE R-SQUARED SPACING: 0.0625
Info: NONBONDED TABLE SIZE: 705 POINTS
TCL: Running for 1500000 steps
ETITLE: TS BOND ANGLE DIHED IMPRP ELECT VDW BOUNDARY MISC KINETIC TOTAL TEMP POTENTIAL TOTALAVG TEMPAVG PRESSURE GPRESSURE VOLUME PRESSAVG GPRESSAVG
ENERGY: 0 1.9687 13.5406 4.3882 0.0000 -10464.8574 1361.8857 0.0000 0.0000 1794.5305 -7288.5437 308.8402 -9083.0742 -7288.5437 308.8402 -369.1371 -277.9605 29817.4033 -369.1371 -277.9605
ENERGY: 300000 1.3012 7.9606 4.0585 0.0000 -10575.3320 1415.4860 0.0000 0.0000 1773.5468 -7372.9788 305.2289 -9146.5256 -7336.0444 302.4525 -7.8141 28.2015 29784.7087 -82.2809 -15.7593
ENERGY: 600000 3.9956 8.6671 4.6151 0.0000 -10535.4222 1416.1548 0.0000 0.0000 1795.8693 -7306.1204 309.0706 -9101.9897 -7329.8401 302.5902 22.7019 90.8099 29808.5433 -237.7808 -153.9254
ENERGY: 900000 1.5730 11.0334 2.9635 0.0000 -10656.4183 1549.7761 0.0000 0.0000 1706.9921 -7384.0802 293.7748 -9091.0723 -7341.0760 301.9075 1055.4033 1163.3649 29791.7603 -57.1717 26.2347
ENERGY: 1200000 2.1015 8.8882 2.7547 0.0000 -10588.5077 1503.0572 0.0000 0.0000 1772.1438 -7299.5623 304.9875 -9071.7061 -7346.3686 302.2422 852.0019 956.2906 29821.6982 39.9437 120.4252
ENERGY: 1500000 0.8104 8.8595 3.0423 0.0000 -10579.2382 1404.6937 0.0000 0.0000 1658.8147 -7503.0176 285.4834 -9161.8322 -7364.7780 300.4440 -366.8872 -300.6583 29903.1919 -33.6798 52.1340
TCL: Running FEP window   4: Lambda1 0.15000000000000002 Lambda2 0.2    [dLambda 0.04999999999999999]
TCL: Setting parameter firsttimestep to 0
TCL: Setting parameter alchLambda to 0.15000000000000002
Info: NONBONDED TABLE R-SQUARED SPACING: 0.0625
Info: NONBONDED TABLE SIZE: 705 POINTS
TCL: Setting parameter alchLambda2 to 0.2
Info: NONBONDED TABLE R-SQUARED SPACING: 0.0625
Info: NONBONDED TABLE SIZE: 705 POINTS
TCL: Running for 1500000 steps
ETITLE: TS BOND ANGLE DIHED IMPRP ELECT VDW BOUNDARY MISC KINETIC TOTAL TEMP POTENTIAL TOTALAVG TEMPAVG PRESSURE GPRESSURE VOLUME PRESSAVG GPRESSAVG
ENERGY: 0 0.8104 8.8595 3.0422 0.0000 -10579.2387 1408.2171 0.0000 0.0000 1657.9700 -7500.3394 285.3380 -9158.3094 -7500.3394 285.3380 -365.5317 -284.5820 29903.1919 -365.5317 -284.5820
ENERGY: 300000 2.1731 10.7630 3.2478 0.0000 -10448.6178 1360.3408 0.0000 0.0000 1781.9870 -7290.1061 306.6815 -9072.0931 -7358.5061 299.9258 -205.4948 -84.8296 29815.8452 109.5470 200.3002
ENERGY: 600000 4.4084 9.3110 3.9861 0.0000 -10275.6520 1279.9582 0.0000 0.0000 1775.6328 -7202.3556 305.5879 -8977.9884 -7332.5590 300.6986 -885.1348 -863.5685 30490.1264 -68.8422 -0.1207
ENERGY: 900000 0.8986 11.2980 3.4028 0.0000 -10449.7458 1389.1609 0.0000 0.0000 1743.6514 -7301.3339 300.0839 -9044.9854 -7330.4397 301.2676 -97.8643 -44.9115 30285.2238 24.2488 89.5632
ENERGY: 1200000 1.9736 10.4955 3.6173 0.0000 -10391.4734 1317.9041 0.0000 0.0000 1784.7145 -7272.7683 307.1509 -9057.4829 -7332.2176 301.1587 -779.2861 -740.1391 30270.6612 -85.3832 -27.6602
ENERGY: 1500000 0.9033 13.1323 3.7152 0.0000 -10549.7484 1410.8498 0.0000 0.0000 1687.1874 -7433.9603 290.3664 -9121.1477 -7331.8710 301.3092 7.9546 37.5345 29722.2074 -67.8065 -16.2091
TCL: Running FEP window   5: Lambda1 0.2    Lambda2 0.25   [dLambda 0.04999999999999999]
TCL: Setting parameter firsttimestep to 0
TCL: Setting parameter alchLambda to 0.2
Info: NONBONDED TABLE R-SQUARED SPACING: 0.0625
Info: NONBONDED TABLE SIZE: 705 POINTS
TCL: Setting parameter alchLambda2 to 0.25
Info: NONBONDED TABLE R-SQUARED SPACING: 0.0625
Info: NONBONDED TABLE SIZE: 705 POINTS
TCL: Running for 1500000 steps
ETITLE: TS BOND ANGLE DIHED IMPRP ELECT VDW BOUNDARY MISC KINETIC TOTAL TEMP POTENTIAL TOTALAVG TEMPAVG PRESSURE GPRESSURE VOLUME PRESSAVG GPRESSAVG
ENERGY: 0 0.9033 13.1323 3.7152 0.0000 -10549.7500 1410.7233 0.0000 0.0000 1686.3218 -7434.9541 290.2174 -9121.2759 -7434.9541 290.2174 -32.2245 40.7029 29722.2074 -32.2245 40.7029
ENERGY: 300000 3.2883 11.2110 3.4549 0.0000 -10496.5177 1378.9979 0.0000 0.0000 1739.1406 -7360.4251 299.3076 -9099.5657 -7397.8122 298.3419 -393.0811 -242.9473 30127.2695 -89.7286 -18.6832
ENERGY: 600000 1.4910 10.8497 2.5325 0.0000 -10612.8952 1450.1090 0.0000 0.0000 1728.2380 -7419.6750 297.4312 -9147.9130 -7361.0960 300.5356 203.7309 287.0097 29689.0435 -179.3291 -108.8645
ENERGY: 900000 1.1613 9.6281 2.7766 0.0000 -10615.7813 1471.4556 0.0000 0.0000 1791.6023 -7339.1574 308.3363 -9130.7597 -7352.1066 302.4990 626.4878 691.3860 29519.2402 -122.1830 -55.7541
ENERGY: 1200000 2.2265 8.1992 3.1778 0.0000 -10582.0143 1458.3228 0.0000 0.0000 1785.2511 -7324.8369 307.2432 -9110.0880 -7352.0319 303.2764 508.7343 511.6288 29776.4050 -20.6501 38.2563
ENERGY: 1500000 2.2685 10.6356 3.6536 0.0000 -10563.4175 1422.3333 0.0000 0.0000 1738.3751 -7386.1514 299.1758 -9124.5265 -7350.4810 302.5621 -193.1549 -67.1093 29858.6143 -10.3165 47.7329
TCL: Running FEP window   6: Lambda1 0.25   Lambda2 0.3    [dLambda 0.04999999999999999]
TCL: Setting parameter firsttimestep to 0
TCL: Setting parameter alchLambda to 0.25
Info: NONBONDED TABLE R-SQUARED SPACING: 0.0625
Info: NONBONDED TABLE SIZE: 705 POINTS
TCL: Setting parameter alchLambda2 to 0.3
Info: NONBONDED TABLE R-SQUARED SPACING: 0.0625
Info: NONBONDED TABLE SIZE: 705 POINTS
TCL: Running for 1500000 steps
ETITLE: TS BOND ANGLE DIHED IMPRP ELECT VDW BOUNDARY MISC KINETIC TOTAL TEMP POTENTIAL TOTALAVG TEMPAVG PRESSURE GPRESSURE VOLUME PRESSAVG GPRESSAVG
ENERGY: 0 2.2685 10.6356 3.6536 0.0000 -10563.4172 1422.3913 0.0000 0.0000 1737.5035 -7386.9647 299.0258 -9124.4682 -7386.9647 299.0258 -165.5793 -64.2446 29858.6143 -165.5793 -64.2446
ENERGY: 300000 5.6321 9.0713 2.9140 0.0000 -10694.5607 1556.3474 0.0000 0.0000 1798.5544 -7322.0415 309.5327 -9120.5959 -7344.5012 305.7137 1133.4658 1191.2138 29709.0882 321.8555 381.1310
ENERGY: 600000 1.5113 9.6113 3.0144 0.0000 -10637.0870 1364.1451 0.0000 0.0000 1740.4375 -7518.3674 299.5308 -9258.8049 -7359.0955 303.2607 -1046.4836 -997.4452 30205.5479 48.9409 106.3417
ENERGY: 900000 2.2994 8.5230 2.9704 0.0000 -10496.1584 1334.3513 0.0000 0.0000 1755.9863 -7392.0281 302.2067 -9148.0144 -7366.6861 302.7465 -774.0041 -732.3200 29873.4315 -31.0372 31.2554
ENERGY: 1200000 2.9444 8.5246 3.6882 0.0000 -10504.3407 1331.0846 0.0000 0.0000 1693.4895 -7464.6094 291.4510 -9158.0990 -7365.3378 302.7106 -1029.0145 -962.6056 30163.5536 -125.1497 -58.0055
ENERGY: 1500000 0.5884 10.8900 2.4384 0.0000 -10411.8110 1328.9621 0.0000 0.0000 1708.5365 -7360.3956 294.0406 -9068.9321 -7365.2534 302.1418 -601.3588 -488.4935 29882.6241 -169.2056 -103.3579
TCL: Running FEP window   7: Lambda1 0.3    Lambda2 0.35   [dLambda 0.04999999999999999]
TCL: Setting parameter firsttimestep to 0
TCL: Setting parameter alchLambda to 0.3
Info: NONBONDED TABLE R-SQUARED SPACING: 0.0625
Info: NONBONDED TABLE SIZE: 705 POINTS
TCL: Setting parameter alchLambda2 to 0.35
Info: NONBONDED TABLE R-SQUARED SPACING: 0.0625
Info: NONBONDED TABLE SIZE: 705 POINTS
TCL: Running for 1500000 steps
ETITLE: TS BOND ANGLE DIHED IMPRP ELECT VDW BOUNDARY MISC KINETIC TOTAL TEMP POTENTIAL TOTALAVG TEMPAVG PRESSURE GPRESSURE VOLUME PRESSAVG GPRESSAVG
ENERGY: 0 0.5884 10.8900 2.4384 0.0000 -10411.8102 1328.9927 0.0000 0.0000 1707.6705 -7361.2302 293.8916 -9068.9007 -7361.2302 293.8916 -565.1910 -483.7630 29882.6241 -565.1910 -483.7630
ENERGY: 300000 3.4287 12.4982 4.1925 0.0000 -10664.1343 1546.7799 0.0000 0.0000 1798.8960 -7298.3391 309.5915 -9097.2351 -7366.1495 301.9006 1122.5289 1169.7156 29864.9754 316.8400 400.2142
ENERGY: 600000 0.8640 11.8346 4.1468 0.0000 -10679.2777 1451.1842 0.0000 0.0000 1734.5367 -7476.7115 298.5152 -9211.2482 -7385.3701 301.1020 371.3398 325.4783 29500.7993 313.1088 386.2006
ENERGY: 900000 3.7874 10.0692 3.8558 0.0000 -10481.8174 1356.4227 0.0000 0.0000 1760.3743 -7347.3080 302.9619 -9107.6823 -7385.5757 300.9051 -600.1052 -495.9391 29691.2300 109.3861 181.7189
ENERGY: 1200000 2.3968 8.0689 2.1728 0.0000 -10501.4706 1339.9417 0.0000 0.0000 1745.0536 -7403.8367 300.3252 -9148.8903 -7375.8849 301.6449 -875.4322 -773.9669 29976.0070 -33.9501 41.6591
ENERGY: 1500000 1.8637 6.7141 2.3815 0.0000 -10676.4479 1444.2006 0.0000 0.0000 1728.9764 -7492.3116 297.5583 -9221.2880 -7380.7902 301.4726 21.8892 96.3102 29551.5437 20.7073 97.1484
TCL: Running FEP window   8: Lambda1 0.35   Lambda2 0.39999999999999997 [dLambda 0.04999999999999999]
TCL: Setting parameter firsttimestep to 0
TCL: Setting parameter alchLambda to 0.35
Info: NONBONDED TABLE R-SQUARED SPACING: 0.0625
Info: NONBONDED TABLE SIZE: 705 POINTS
TCL: Setting parameter alchLambda2 to 0.39999999999999997
Info: NONBONDED TABLE R-SQUARED SPACING: 0.0625
Info: NONBONDED TABLE SIZE: 705 POINTS
TCL: Running for 1500000 steps
ETITLE: TS BOND ANGLE DIHED IMPRP ELECT VDW BOUNDARY MISC KINETIC TOTAL TEMP POTENTIAL TOTALAVG TEMPAVG PRESSURE GPRESSURE VOLUME PRESSAVG GPRESSAVG
ENERGY: 0 1.8637 6.7141 2.3815 0.0000 -10676.4485 1444.1966 0.0000 0.0000 1728.0608 -7493.2318 297.4007 -9221.2926 -7493.2318 297.4007 22.0229 102.6341 29551.5437 22.0229 102.6341
ENERGY: 300000 1.4963 8.8188 2.5001 0.0000 -10500.9638 1369.5763 0.0000 0.0000 1722.9428 -7395.6295 296.5199 -9118.5723 -7432.9608 297.1857 -448.9879 -370.6893 30151.0750 -137.0559 -63.3759
ENERGY: 600000 2.2371 18.3684 2.6100 0.0000 -10518.5321 1369.4765 0.0000 0.0000 1743.9071 -7381.9330 300.1279 -9125.8401 -7407.6511 296.9281 -697.5119 -564.8200 30173.7353 -263.1663 -185.4383
ENERGY: 900000 0.9958 12.4598 2.8891 0.0000 -10547.9331 1389.2519 0.0000 0.0000 1762.4177 -7379.9187 303.3136 -9142.3364 -7395.7682 298.2400 -428.7860 -367.1491 30254.4424 -320.6511 -229.6199
ENERGY: 1200000 6.7006 8.1876 3.1469 0.0000 -10560.2297 1426.9831 0.0000 0.0000 1789.1008 -7326.1106 307.9058 -9115.2115 -7385.4751 298.3878 148.1693 113.8869 29713.9820 -256.6013 -181.5703
ENERGY: 1500000 1.2744 8.3722 3.5066 0.0000 -10517.3361 1348.0885 0.0000 0.0000 1737.3888 -7418.7057 299.0061 -9156.0944 -7387.7635 298.5850 -662.4187 -547.1886 29851.9892 -269.4842 -194.4567
TCL: Running FEP window   9: Lambda1 0.39999999999999997 Lambda2 0.44999999999999996 [dLambda 0.04999999999999999]
TCL: Setting parameter firsttimestep to 0
TCL: Setting parameter alchLambda to 0.39999999999999997
Info: NONBONDED TABLE R-SQUARED SPACING: 0.0625
Info: NONBONDED TABLE SIZE: 705 POINTS
TCL: Setting parameter alchLambda2 to 0.44999999999999996
Info: NONBONDED TABLE R-SQUARED SPACING: 0.0625
Info: NONBONDED TABLE SIZE: 705 POINTS
TCL: Running for 1500000 steps
ETITLE: TS BOND ANGLE DIHED IMPRP ELECT VDW BOUNDARY MISC KINETIC TOTAL TEMP POTENTIAL TOTALAVG TEMPAVG PRESSURE GPRESSURE VOLUME PRESSAVG GPRESSAVG
ENERGY: 0 1.2744 8.3722 3.5066 0.0000 -10517.3374 1348.6160 0.0000 0.0000 1736.4991 -7419.0691 298.8530 -9155.5682 -7419.0691 298.8530 -633.2877 -535.2988 29851.9892 -633.2877 -535.2988
ENERGY: 300000 1.6215 6.0846 3.9172 0.0000 -10611.1626 1427.5218 0.0000 0.0000 1748.9052 -7423.1123 300.9881 -9172.0175 -7406.6453 299.6185 -112.8240 -11.0027 29855.8031 -425.8662 -327.8830
ENERGY: 600000 0.6278 16.8280 2.9022 0.0000 -10593.6558 1418.6739 0.0000 0.0000 1713.2844 -7441.3396 294.8577 -9154.6241 -7417.3193 297.4721 -110.7087 -17.7311 29910.0280 -257.9478 -168.0206
ENERGY: 900000 2.1572 8.6567 2.9152 0.0000 -10572.9100 1475.5839 0.0000 0.0000 1835.6191 -7247.9779 315.9116 -9083.5970 -7390.0220 299.7776 656.1442 641.6807 30018.9064 -189.6331 -116.1961
ENERGY: 1200000 1.5581 9.2955 2.2423 0.0000 -10443.0909 1360.2317 0.0000 0.0000 1748.7862 -7320.9772 300.9676 -9069.7634 -7367.5222 300.9267 -598.2570 -467.6547 30111.6145 -166.9489 -89.2260
ENERGY: 1500000 0.8984 15.6525 3.5985 0.0000 -10549.1346 1437.6180 0.0000 0.0000 1718.1731 -7373.1941 295.6991 -9091.3672 -7369.2689 300.6928 45.1738 73.9944 30361.6293 -122.3366 -51.2677
TCL: Running FEP window  10: Lambda1 0.44999999999999996 Lambda2 0.49999999999999994 [dLambda 0.04999999999999999]
TCL: Setting parameter firsttimestep to 0
TCL: Setting parameter alchLambda to 0.44999999999999996
Info: NONBONDED TABLE R-SQUARED SPACING: 0.0625
Info: NONBONDED TABLE SIZE: 705 POINTS
TCL: Setting parameter alchLambda2 to 0.49999999999999994
Info: NONBONDED TABLE R-SQUARED SPACING: 0.0625
Info: NONBONDED TABLE SIZE: 705 POINTS
TCL: Running for 1500000 steps
ETITLE: TS BOND ANGLE DIHED IMPRP ELECT VDW BOUNDARY MISC KINETIC TOTAL TEMP POTENTIAL TOTALAVG TEMPAVG PRESSURE GPRESSURE VOLUME PRESSAVG GPRESSAVG
ENERGY: 0 0.8984 15.6525 3.5985 0.0000 -10549.1340 1437.4875 0.0000 0.0000 1717.2950 -7374.2021 295.5479 -9091.4971 -7374.2021 295.5479 8.6331 80.4842 30361.6293 8.6331 80.4842
ENERGY: 300000 1.1253 6.9779 2.3586 0.0000 -10522.6439 1392.9078 0.0000 0.0000 1729.0937 -7390.1806 297.5785 -9119.2743 -7414.7046 296.0590 -250.2713 -219.5131 30012.7389 -223.7313 -182.0776
ENERGY: 600000 0.5880 7.3139 3.1890 0.0000 -10673.6607 1482.9682 0.0000 0.0000 1756.1604 -7423.4411 302.2367 -9179.6015 -7401.3886 298.2257 350.9875 320.9158 30023.5403 -166.7449 -130.8584
ENERGY: 900000 2.4704 6.4767 3.5859 0.0000 -10579.4138 1389.1407 0.0000 0.0000 1752.0270 -7425.7131 301.5253 -9177.7401 -7399.0344 299.5453 -392.9364 -331.8091 29939.4743 -156.9674 -113.1319
ENERGY: 1200000 2.7412 8.7210 4.3421 0.0000 -10463.2569 1351.3666 0.0000 0.0000 1722.4066 -7373.6794 296.4276 -9096.0860 -7395.4284 299.3489 -744.4463 -693.6973 30186.0976 -66.5598 -26.1184
ENERGY: 1500000 2.5724 12.6903 3.3121 0.0000 -10529.0318 1420.6678 0.0000 0.0000 1757.3929 -7332.3964 302.4488 -9089.7892 -7400.4708 299.0529 64.5121 70.0549 29912.8260 -27.6428 12.0257
TCL: Running FEP window  11: Lambda1 0.49999999999999994 Lambda2 0.5499999999999999 [dLambda 0.04999999999999999]
TCL: Setting parameter firsttimestep to 0
TCL: Setting parameter alchLambda to 0.49999999999999994
Info: NONBONDED TABLE R-SQUARED SPACING: 0.0625
Info: NONBONDED TABLE SIZE: 705 POINTS
TCL: Setting parameter alchLambda2 to 0.5499999999999999
Info: NONBONDED TABLE R-SQUARED SPACING: 0.0625
Info: NONBONDED TABLE SIZE: 705 POINTS
TCL: Running for 1500000 steps
ETITLE: TS BOND ANGLE DIHED IMPRP ELECT VDW BOUNDARY MISC KINETIC TOTAL TEMP POTENTIAL TOTALAVG TEMPAVG PRESSURE GPRESSURE VOLUME PRESSAVG GPRESSAVG
ENERGY: 0 2.5724 12.6903 3.3121 0.0000 -10529.0316 1420.6498 0.0000 0.0000 1756.5072 -7333.2998 302.2964 -9089.8070 -7333.2998 302.2964 -1.8055 74.6509 29912.8260 -1.8055 74.6509
ENERGY: 300000 1.8871 8.3456 6.6460 0.0000 -10502.9474 1344.5937 0.0000 0.0000 1793.0773 -7348.3978 308.5901 -9141.4751 -7350.3884 301.6902 -860.6870 -741.7245 30278.4561 -130.2245 -55.7990
ENERGY: 600000 1.1730 8.6917 2.6712 0.0000 -10589.5469 1424.3584 0.0000 0.0000 1696.7052 -7455.9475 292.0044 -9152.6527 -7373.3209 299.5154 153.2960 104.8285 29858.8537 -108.8421 -36.4118
ENERGY: 900000 1.2635 9.7741 3.5928 0.0000 -10541.8455 1400.3500 0.0000 0.0000 1751.3864 -7375.4786 301.4151 -9126.8651 -7372.1887 300.2687 -286.0744 -239.5238 30472.1100 -134.5152 -63.6093
ENERGY: 1200000 2.5842 12.7482 2.7057 0.0000 -10680.2070 1472.6920 0.0000 0.0000 1727.3658 -7462.1110 297.2811 -9189.4768 -7380.4615 299.4409 112.4893 145.4518 29776.3294 -175.2086 -106.8195
ENERGY: 1500000 0.8960 7.5773 4.6695 0.0000 -10425.4331 1303.9327 0.0000 0.0000 1779.8352 -7328.5224 306.3112 -9108.3576 -7378.6464 300.1960 -842.6851 -789.7454 30085.0565 -152.4248 -85.1770
TCL: Running FEP window  12: Lambda1 0.5499999999999999 Lambda2 0.6    [dLambda 0.050000000000000044]
TCL: Setting parameter firsttimestep to 0
TCL: Setting parameter alchLambda to 0.5499999999999999
Info: NONBONDED TABLE R-SQUARED SPACING: 0.0625
Info: NONBONDED TABLE SIZE: 705 POINTS
TCL: Setting parameter alchLambda2 to 0.6
Info: NONBONDED TABLE R-SQUARED SPACING: 0.0625
Info: NONBONDED TABLE SIZE: 705 POINTS
TCL: Running for 1500000 steps
ETITLE: TS BOND ANGLE DIHED IMPRP ELECT VDW BOUNDARY MISC KINETIC TOTAL TEMP POTENTIAL TOTALAVG TEMPAVG PRESSURE GPRESSURE VOLUME PRESSAVG GPRESSAVG
ENERGY: 0 0.8960 7.5773 4.6695 0.0000 -10425.4480 1303.6001 0.0000 0.0000 1778.9694 -7329.7357 306.1621 -9108.7051 -7329.7357 306.1621 -864.1147 -785.0166 30085.0565 -864.1147 -785.0166
ENERGY: 300000 0.4091 10.7539 4.9815 0.0000 -10484.3005 1383.6908 0.0000 0.0000 1745.6802 -7338.7850 300.4331 -9084.4652 -7374.1973 301.3795 -367.4604 -343.5687 30410.7287 -533.6062 -463.3443
ENERGY: 600000 3.0148 13.2546 5.4651 0.0000 -10565.4360 1350.4124 0.0000 0.0000 1768.5207 -7424.7683 304.3639 -9193.2891 -7388.2406 300.9848 -806.1205 -705.1102 29887.4610 -544.3744 -473.2960
ENERGY: 900000 1.0665 8.0619 2.7199 0.0000 -10459.4187 1311.8704 0.0000 0.0000 1749.8373 -7385.8627 301.1485 -9135.7000 -7385.7155 300.7942 -737.4666 -653.0126 29722.4183 -551.1282 -482.4337
ENERGY: 1200000 1.7858 9.0552 2.6374 0.0000 -10492.8684 1348.1782 0.0000 0.0000 1771.2606 -7359.9511 304.8355 -9131.2118 -7380.9637 300.9282 -812.9202 -704.1485 30307.5917 -557.4467 -489.3261
ENERGY: 1500000 0.5799 14.7362 4.6393 0.0000 -10588.7079 1429.8741 0.0000 0.0000 1751.1223 -7387.7561 301.3696 -9138.8785 -7370.2338 301.5541 135.1942 232.6868 29905.5551 -535.3271 -469.9602
TCL: Running FEP window  13: Lambda1 0.6    Lambda2 0.65   [dLambda 0.050000000000000044]
TCL: Setting parameter firsttimestep to 0
TCL: Setting parameter alchLambda to 0.6
Info: NONBONDED TABLE R-SQUARED SPACING: 0.0625
Info: NONBONDED TABLE SIZE: 705 POINTS
TCL: Setting parameter alchLambda2 to 0.65
Info: NONBONDED TABLE R-SQUARED SPACING: 0.0625
Info: NONBONDED TABLE SIZE: 705 POINTS
TCL: Running for 1500000 steps
ETITLE: TS BOND ANGLE DIHED IMPRP ELECT VDW BOUNDARY MISC KINETIC TOTAL TEMP POTENTIAL TOTALAVG TEMPAVG PRESSURE GPRESSURE VOLUME PRESSAVG GPRESSAVG
ENERGY: 0 0.5799 14.7362 4.6393 0.0000 -10588.6428 1430.0683 0.0000 0.0000 1750.2542 -7388.3650 301.2202 -9138.6192 -7388.3650 301.2202 158.2797 243.6799 29905.5551 158.2797 243.6799
ENERGY: 300000 2.0296 10.5088 2.6380 0.0000 -10538.3780 1401.6850 0.0000 0.0000 1747.7435 -7373.7731 300.7881 -9121.5166 -7384.8495 301.4367 -376.8955 -236.0833 30273.0694 13.6327 106.5540
ENERGY: 600000 7.5115 9.6306 3.3722 0.0000 -10587.0111 1454.7395 0.0000 0.0000 1810.3317 -7301.4255 311.5596 -9111.7572 -7366.5569 302.2758 212.7578 247.7803 29902.4401 30.9063 115.3907
ENERGY: 900000 0.6874 9.7279 3.4244 0.0000 -10581.7737 1445.1969 0.0000 0.0000 1677.0090 -7445.7281 288.6147 -9122.7371 -7381.8606 300.6025 123.9184 140.6553 30033.8650 80.4295 150.0471
ENERGY: 1200000 1.5592 7.4449 2.7846 0.0000 -10725.8412 1540.9090 0.0000 0.0000 1749.1098 -7424.0337 301.0233 -9173.1435 -7364.8092 301.6622 737.4065 806.6724 29878.3340 6.3930 73.4064
ENERGY: 1500000 2.8651 8.9552 2.3133 0.0000 -10357.6612 1352.7568 0.0000 0.0000 1732.5799 -7258.1908 298.1785 -8990.7707 -7362.6323 300.8640 -194.3679 -158.1991 30259.4639 4.8688 66.4176
TCL: Running FEP window  14: Lambda1 0.65   Lambda2 0.7000000000000001 [dLambda 0.050000000000000044]
TCL: Setting parameter firsttimestep to 0
TCL: Setting parameter alchLambda to 0.65
Info: NONBONDED TABLE R-SQUARED SPACING: 0.0625
Info: NONBONDED TABLE SIZE: 705 POINTS
TCL: Setting parameter alchLambda2 to 0.7000000000000001
Info: NONBONDED TABLE R-SQUARED SPACING: 0.0625
Info: NONBONDED TABLE SIZE: 705 POINTS
TCL: Running for 1500000 steps
ETITLE: TS BOND ANGLE DIHED IMPRP ELECT VDW BOUNDARY MISC KINETIC TOTAL TEMP POTENTIAL TOTALAVG TEMPAVG PRESSURE GPRESSURE VOLUME PRESSAVG GPRESSAVG
ENERGY: 0 2.8651 8.9552 2.3133 0.0000 -10357.6924 1352.4389 0.0000 0.0000 1731.7420 -7259.3778 298.0343 -8991.1198 -7259.3778 298.0343 -235.8183 -153.3008 30259.4639 -235.8183 -153.3008
ENERGY: 300000 5.3390 8.6662 2.6477 0.0000 -10501.4522 1354.0204 0.0000 0.0000 1753.9323 -7376.8467 301.8532 -9130.7790 -7319.9053 302.1557 -591.4654 -582.1925 30175.9679 -239.8879 -178.1784
ENERGY: 600000 1.5836 11.0073 5.8299 0.0000 -10307.1377 1304.1316 0.0000 0.0000 1767.5929 -7216.9924 304.2042 -8984.5853 -7314.5327 302.1131 -661.9774 -637.0160 30245.2175 -204.6637 -147.2585
ENERGY: 900000 2.7994 13.5488 2.3371 0.0000 -10461.9428 1355.7629 0.0000 0.0000 1708.2085 -7379.2860 293.9841 -9087.4945 -7358.7757 298.9774 -582.0424 -572.9118 30488.0738 -176.4235 -130.0050
ENERGY: 1200000 1.0103 9.3446 3.3341 0.0000 -10815.6705 1543.9759 0.0000 0.0000 1740.5628 -7517.4428 299.5523 -9258.0056 -7372.4271 299.2177 726.3050 739.8712 29485.6851 -137.1863 -89.2311
ENERGY: 1500000 1.2141 9.6790 5.7513 0.0000 -10552.6704 1423.6952 0.0000 0.0000 1793.2207 -7319.1101 308.6148 -9112.3308 -7365.9924 300.1693 -165.7518 -70.8064 30257.1910 -163.8280 -115.0120
TCL: Running FEP window  15: Lambda1 0.7000000000000001 Lambda2 0.7500000000000001 [dLambda 0.050000000000000044]
TCL: Setting parameter firsttimestep to 0
TCL: Setting parameter alchLambda to 0.7000000000000001
Info: NONBONDED TABLE R-SQUARED SPACING: 0.0625
Info: NONBONDED TABLE SIZE: 705 POINTS
TCL: Setting parameter alchLambda2 to 0.7500000000000001
Info: NONBONDED TABLE R-SQUARED SPACING: 0.0625
Info: NONBONDED TABLE SIZE: 705 POINTS
TCL: Running for 1500000 steps
ETITLE: TS BOND ANGLE DIHED IMPRP ELECT VDW BOUNDARY MISC KINETIC TOTAL TEMP POTENTIAL TOTALAVG TEMPAVG PRESSURE GPRESSURE VOLUME PRESSAVG GPRESSAVG
ENERGY: 0 1.2141 9.6790 5.7513 0.0000 -10552.6916 1423.7571 0.0000 0.0000 1792.3628 -7319.9273 308.4672 -9112.2901 -7319.9273 308.4672 -133.4226 -60.0261 30257.1910 -133.4226 -60.0261
ENERGY: 300000 1.7732 8.3093 4.2176 0.0000 -10648.7671 1447.7186 0.0000 0.0000 1703.2966 -7483.4519 293.1388 -9186.7485 -7360.8860 301.9987 -321.7076 -231.4068 30673.9907 -410.7386 -314.2756
ENERGY: 600000 0.9503 9.6485 2.8821 0.0000 -10586.1270 1446.3055 0.0000 0.0000 1735.8345 -7390.5060 298.7386 -9126.3406 -7360.9285 300.3087 215.5953 305.7665 30059.7004 -191.1470 -97.2795
ENERGY: 900000 1.4646 10.8483 3.3236 0.0000 -10638.1093 1512.0693 0.0000 0.0000 1754.3742 -7356.0293 301.9293 -9110.4035 -7354.2082 302.2080 546.0815 561.2564 30454.2620 -106.4783 -26.2285
ENERGY: 1200000 2.0138 8.1548 2.8457 0.0000 -10422.3162 1317.3546 0.0000 0.0000 1699.6970 -7392.2503 292.5193 -9091.9473 -7361.1833 301.1666 -787.7096 -724.5159 30179.7462 -105.4621 -34.2141
ENERGY: 1500000 0.5133 8.0002 2.8451 0.0000 -10470.7259 1375.3809 0.0000 0.0000 1762.3961 -7321.5902 303.3099 -9083.9864 -7356.7251 301.6413 -249.1271 -196.7993 30131.4843 -57.3382 9.3265
TCL: Running FEP window  16: Lambda1 0.7500000000000001 Lambda2 0.8000000000000002 [dLambda 0.050000000000000044]
TCL: Setting parameter firsttimestep to 0
TCL: Setting parameter alchLambda to 0.7500000000000001
Info: NONBONDED TABLE R-SQUARED SPACING: 0.0625
Info: NONBONDED TABLE SIZE: 705 POINTS
TCL: Setting parameter alchLambda2 to 0.8000000000000002
Info: NONBONDED TABLE R-SQUARED SPACING: 0.0625
Info: NONBONDED TABLE SIZE: 705 POINTS
TCL: Running for 1500000 steps
ETITLE: TS BOND ANGLE DIHED IMPRP ELECT VDW BOUNDARY MISC KINETIC TOTAL TEMP POTENTIAL TOTALAVG TEMPAVG PRESSURE GPRESSURE VOLUME PRESSAVG GPRESSAVG
ENERGY: 0 0.5133 8.0002 2.8451 0.0000 -10470.7302 1375.4200 0.0000 0.0000 1761.5638 -7322.3878 303.1666 -9083.9516 -7322.3878 303.1666 -261.8401 -186.4319 30131.4843 -261.8401 -186.4319
ENERGY: 300000 1.2707 8.9317 3.8682 0.0000 -10525.1828 1442.3888 0.0000 0.0000 1717.6112 -7351.1121 295.6024 -9068.7234 -7355.8618 298.8100 322.4901 336.8269 30380.8213 222.9044 272.8009
ENERGY: 600000 1.2507 14.9699 3.9022 0.0000 -10774.7091 1490.5855 0.0000 0.0000 1792.2153 -7471.7854 308.4418 -9264.0007 -7392.7624 300.5578 83.8783 163.2919 30128.7197 136.1144 189.6136
ENERGY: 900000 1.4587 12.2010 2.4627 0.0000 -10580.1882 1507.9455 0.0000 0.0000 1780.6036 -7275.5168 306.4434 -9056.1204 -7372.1308 301.6903 998.4454 1021.0067 30003.1496 245.8202 288.4183
ENERGY: 1200000 2.3350 12.2845 3.2252 0.0000 -10559.4049 1426.1632 0.0000 0.0000 1796.6777 -7318.7194 309.2098 -9115.3971 -7362.8962 302.6899 260.9366 271.8134 29899.3254 78.7411 125.6781
ENERGY: 1500000 3.3625 6.9758 2.2869 0.0000 -10636.9127 1448.8324 0.0000 0.0000 1734.7448 -7440.7103 298.5510 -9175.4551 -7368.0817 301.4371 97.3037 162.0673 30229.2370 64.6412 110.0256
TCL: Running FEP window  17: Lambda1 0.8000000000000002 Lambda2 0.8500000000000002 [dLambda 0.050000000000000044]
TCL: Setting parameter firsttimestep to 0
TCL: Setting parameter alchLambda to 0.8000000000000002
Info: NONBONDED TABLE R-SQUARED SPACING: 0.0625
Info: NONBONDED TABLE SIZE: 705 POINTS
TCL: Setting parameter alchLambda2 to 0.8500000000000002
Info: NONBONDED TABLE R-SQUARED SPACING: 0.0625
Info: NONBONDED TABLE SIZE: 705 POINTS
TCL: Running for 1500000 steps
ETITLE: TS BOND ANGLE DIHED IMPRP ELECT VDW BOUNDARY MISC KINETIC TOTAL TEMP POTENTIAL TOTALAVG TEMPAVG PRESSURE GPRESSURE VOLUME PRESSAVG GPRESSAVG
ENERGY: 0 3.3625 6.9758 2.2869 0.0000 -10636.9121 1448.7534 0.0000 0.0000 1733.8959 -7441.6376 298.4050 -9175.5335 -7441.6376 298.4050 90.9305 166.8936 30229.2370 90.9305 166.8936
ENERGY: 300000 2.3909 10.6494 3.4162 0.0000 -10512.3069 1426.1141 0.0000 0.0000 1780.1861 -7289.5502 306.3716 -9069.7364 -7403.0693 299.3446 396.8629 441.2979 29989.1835 -42.2310 42.4913
ENERGY: 600000 2.2137 10.3629 3.9299 0.0000 -10604.7854 1474.1605 0.0000 0.0000 1763.9580 -7350.1605 303.5787 -9114.1185 -7378.9991 300.2417 363.3089 445.1612 30066.3399 96.6918 170.2105
ENERGY: 900000 1.9296 9.3357 5.1459 0.0000 -10563.7897 1412.0224 0.0000 0.0000 1716.0982 -7419.2578 295.3420 -9135.3560 -7377.3740 300.4440 -344.1009 -284.2882 30425.8345 7.7443 71.6861
ENERGY: 1200000 3.3893 9.3843 4.2421 0.0000 -10453.6116 1341.8236 0.0000 0.0000 1696.1920 -7398.5803 291.9161 -9094.7723 -7382.4064 300.3222 -537.7499 -562.4600 29705.9149 -51.8262 0.2817
ENERGY: 1500000 2.1732 9.6647 2.8879 0.0000 -10659.3288 1440.2492 0.0000 0.0000 1742.1092 -7462.2446 299.8185 -9204.3537 -7381.5466 301.3834 -163.9963 -106.3020 29878.2516 -134.7718 -81.6468
TCL: Running FEP window  18: Lambda1 0.8500000000000002 Lambda2 0.9000000000000002 [dLambda 0.050000000000000044]
TCL: Setting parameter firsttimestep to 0
TCL: Setting parameter alchLambda to 0.8500000000000002
Info: NONBONDED TABLE R-SQUARED SPACING: 0.0625
Info: NONBONDED TABLE SIZE: 705 POINTS
TCL: Setting parameter alchLambda2 to 0.9000000000000002
Info: NONBONDED TABLE R-SQUARED SPACING: 0.0625
Info: NONBONDED TABLE SIZE: 705 POINTS
TCL: Running for 1500000 steps
ETITLE: TS BOND ANGLE DIHED IMPRP ELECT VDW BOUNDARY MISC KINETIC TOTAL TEMP POTENTIAL TOTALAVG TEMPAVG PRESSURE GPRESSURE VOLUME PRESSAVG GPRESSAVG
ENERGY: 0 2.1732 9.6647 2.8879 0.0000 -10659.3494 1440.8937 0.0000 0.0000 1741.2619 -7462.4680 299.6727 -9203.7299 -7462.4680 299.6727 -174.7473 -90.1471 29878.2516 -174.7473 -90.1471
ENERGY: 300000 1.9883 5.3571 2.6679 0.0000 -10577.1144 1421.8163 0.0000 0.0000 1749.3837 -7395.9011 301.0704 -9145.2848 -7402.5012 300.4007 30.3228 43.3243 30045.8341 -126.6910 -69.0399
ENERGY: 600000 2.3197 7.3897 3.2451 0.0000 -10635.1265 1458.5753 0.0000 0.0000 1743.8651 -7419.7315 300.1207 -9163.5967 -7377.4213 303.0120 137.9981 143.5900 29985.1160 133.7585 189.5052
ENERGY: 900000 0.5223 8.3005 2.6469 0.0000 -10533.7336 1477.6250 0.0000 0.0000 1727.2256 -7317.4133 297.2570 -9044.6388 -7376.2104 302.7756 608.6561 667.5421 30082.9843 164.7451 212.3426
ENERGY: 1200000 2.6244 9.5360 2.5651 0.0000 -10486.8652 1374.7871 0.0000 0.0000 1746.5396 -7350.8131 300.5809 -9097.3526 -7372.3397 301.6460 -510.7762 -476.5660 30350.5088 91.6771 133.3396
ENERGY: 1500000 0.6776 13.0974 2.9755 0.0000 -10663.8676 1508.4932 0.0000 0.0000 1771.4292 -7367.1947 304.8645 -9138.6238 -7380.4798 301.9848 805.2818 905.5121 29726.2100 106.1715 151.7207
TCL: Running FEP window  19: Lambda1 0.9000000000000002 Lambda2 0.9500000000000003 [dLambda 0.050000000000000044]
TCL: Setting parameter firsttimestep to 0
TCL: Setting parameter alchLambda to 0.9000000000000002
Info: NONBONDED TABLE R-SQUARED SPACING: 0.0625
Info: NONBONDED TABLE SIZE: 705 POINTS
TCL: Setting parameter alchLambda2 to 0.9500000000000003
Info: NONBONDED TABLE R-SQUARED SPACING: 0.0625
Info: NONBONDED TABLE SIZE: 705 POINTS
TCL: Running for 1500000 steps
ETITLE: TS BOND ANGLE DIHED IMPRP ELECT VDW BOUNDARY MISC KINETIC TOTAL TEMP POTENTIAL TOTALAVG TEMPAVG PRESSURE GPRESSURE VOLUME PRESSAVG GPRESSAVG
ENERGY: 0 0.6776 13.0974 2.9755 0.0000 -10663.8407 1508.5386 0.0000 0.0000 1770.5724 -7367.9790 304.7170 -9138.5515 -7367.9790 304.7170 839.9795 917.3388 29726.2100 839.9795 917.3388
ENERGY: 300000 3.2744 6.8093 3.3265 0.0000 -10506.1327 1354.3032 0.0000 0.0000 1761.0388 -7377.3806 303.0763 -9138.4193 -7392.7808 297.9885 -724.2954 -622.6781 30261.8624 -251.6781 -164.7220
ENERGY: 600000 1.9862 8.5064 2.7741 0.0000 -10632.6487 1503.9538 0.0000 0.0000 1740.6530 -7374.7750 299.5679 -9115.4281 -7385.9819 298.0447 501.2270 600.7400 30232.0676 -137.5006 -37.4802
ENERGY: 900000 3.3901 13.4496 5.0196 0.0000 -10548.6281 1422.0399 0.0000 0.0000 1780.4062 -7324.3228 306.4094 -9104.7290 -7376.5215 299.5175 263.7629 291.7494 29801.5759 -157.0168 -68.2239
ENERGY: 1200000 0.5788 8.5495 3.4697 0.0000 -10617.8728 1469.6763 0.0000 0.0000 1746.6402 -7388.9583 300.5983 -9135.5985 -7376.7305 298.8907 453.5083 506.5820 29812.9720 -126.6773 -46.6360
ENERGY: 1500000 2.4548 8.2884 4.1481 0.0000 -10555.8444 1418.9164 0.0000 0.0000 1713.8483 -7408.1884 294.9548 -9122.0367 -7381.2323 299.4098 -177.3672 -118.1824 30234.2054 -137.8877 -58.3131
TCL: Running FEP window  20: Lambda1 0.9500000000000003 Lambda2 1.0    [dLambda 0.04999999999999971]
TCL: Setting parameter firsttimestep to 0
TCL: Setting parameter alchLambda to 0.9500000000000003
Info: NONBONDED TABLE R-SQUARED SPACING: 0.0625
Info: NONBONDED TABLE SIZE: 705 POINTS
TCL: Setting parameter alchLambda2 to 1.0
Info: NONBONDED TABLE R-SQUARED SPACING: 0.0625
Info: NONBONDED TABLE SIZE: 705 POINTS
TCL: Running for 1500000 steps
ETITLE: TS BOND ANGLE DIHED IMPRP ELECT VDW BOUNDARY MISC KINETIC TOTAL TEMP POTENTIAL TOTALAVG TEMPAVG PRESSURE GPRESSURE VOLUME PRESSAVG GPRESSAVG
ENERGY: 0 2.4548 8.2884 4.1481 0.0000 -10555.8311 1418.6218 0.0000 0.0000 1713.0152 -7409.3028 294.8114 -9122.3180 -7409.3028 294.8114 -204.4289 -108.2136 30234.2054 -204.4289 -108.2136
ENERGY: 300000 2.2196 8.9068 2.5701 0.0000 -10613.7783 1431.1021 0.0000 0.0000 1769.8916 -7399.0882 304.5999 -9168.9798 -7364.8067 298.9932 76.5173 89.6874 29975.0675 34.8254 66.0040
ENERGY: 600000 3.7897 7.4360 3.0992 0.0000 -10634.4658 1456.1568 0.0000 0.0000 1657.4465 -7506.5375 285.2480 -9163.9840 -7381.1631 297.0649 106.9450 142.0888 30063.1622 -109.1429 -62.2759
ENERGY: 900000 0.7570 7.5832 2.7836 0.0000 -10538.4579 1368.7194 0.0000 0.0000 1729.0098 -7429.6050 297.5641 -9158.6148 -7380.9376 297.8654 -482.0423 -455.2264 30106.4560 -103.3984 -48.8501
ENERGY: 1200000 0.7625 7.2790 3.6450 0.0000 -10638.7056 1470.7915 0.0000 0.0000 1780.3011 -7375.9265 306.3913 -9156.2276 -7383.9281 298.8228 585.8371 611.9848 29942.9959 31.0013 89.8477
ENERGY: 1500000 0.9886 14.1184 3.6249 0.0000 -10506.9780 1392.7481 0.0000 0.0000 1719.4592 -7376.0388 295.9204 -9095.4979 -7380.7110 298.7842 123.2047 163.8296 29873.2944 27.8060 94.1459
TCL: Exiting due to exit command.
