Info: SIMULATION PARAMETERS:
Info: TIMESTEP               2
Info: NUMBER OF STEPS        0
Info: STEPS PER CYCLE        10
Info: PERIODIC CELL BASIS 1  31.5737 0 0
Info: PERIODIC CELL BASIS 2  0 31.476 0
Info: PERIODIC CELL BASIS 3  0 0 30.7503
Info: PERIODIC CELL CENTER   0 0 0
Info: WRAPPING WATERS AROUND PERIODIC BOUNDARIES ON OUTPUT.
Info: WRAPPING ALL CLUSTERS AROUND PERIODIC BOUNDARIES ON OUTPUT.
Info: FIRST LDB TIMESTEP     50
Info: LAST LDB TIMESTEP     -1
Info: HOM BACKGROUND SCALING 1
Info: PME BACKGROUND SCALING 1
Info: MIN ATOMS PER PATCH    40
Info: EMPTY PATCH LOAD       40 ATOMS
Info: VELOCITY FILE          mobley_6303022_equil.vel
Info: CENTER OF MASS MOVING INITIALLY? NO
Info: DIELECTRIC             1
Info: EXCLUDE                SCALED ONE-FOUR
Info: 1-4 ELECTROSTATICS SCALED BY 0.833333
Info: MODIFIED 1-4 VDW PARAMETERS WILL BE USED
Info: DCD FILENAME           mobley_6303022_prod.dcd
Info: DCD FREQUENCY          100000
Info: DCD FIRST STEP         100000
Info: DCD FILE WILL CONTAIN UNIT CELL DATA
Info: XST FILENAME           mobley_6303022_prod.xst
Info: XST FREQUENCY          100000
Info: NO VELOCITY DCD OUTPUT
Info: NO FORCE DCD OUTPUT
Info: OUTPUT FILENAME        mobley_6303022_prod
Info: BINARY OUTPUT FILES WILL BE USED
Info: RESTART FILENAME       mobley_6303022_prod.restart
Info: RESTART FREQUENCY      100000
Info: BINARY RESTART FILES WILL BE USED
Info: CUTOFF                 9
Info: PAIRLIST DISTANCE      11
Info: PAIRLIST SHRINK RATE   0.01
Info: PAIRLIST GROW RATE     0.01
Info: PAIRLIST TRIGGER       0.3
Info: PAIRLISTS PER CYCLE    2
Info: PAIRLISTS ENABLED
Info: MARGIN                 2
Info: HYDROGEN GROUP CUTOFF  2.5
Info: PATCH DIMENSION        15.5
Info: ENERGY OUTPUT STEPS    100000
Info: ENERGY EVALUATION STEPS    100000
Info: OUTPUT ENERGY PRECISION 4
Info: CROSSTERM ENERGY INCLUDED IN DIHEDRAL
Info: TIMING OUTPUT STEPS    1000000
Info: PRESSURE OUTPUT STEPS  100000
Info: ALCHEMICAL FEP ON
Info: FEP CURRENT LAMBDA VALUE     0
Info: FEP COMPARISON LAMBDA VALUE  0.05
Info: FEP INTRA-ALCHEMICAL NON-BONDED INTERACTIONS WILL BE RETAINED
Info: FEP INTRA-ALCHEMICAL BONDED INTERACTIONS WILL BE RETAINED
Info: FEP VDW SHIFTING COEFFICIENT 5
Info: FEP ELEC. ACTIVE FOR ANNIHILATED PARTICLES BETWEEN LAMBDA = 0 AND LAMBDA = 0.5
Info: FEP ELEC. ACTIVE FOR EXNIHILATED PARTICLES BETWEEN LAMBDA = 0.5 AND LAMBDA = 1
Info: FEP VDW ACTIVE FOR ANNIHILATED PARTICLES BETWEEN LAMBDA = 0 AND LAMBDA = 1
Info: FEP VDW ACTIVE FOR EXNIHILATED PARTICLES BETWEEN LAMBDA = 0 AND LAMBDA = 1
Info: FEP BOND ACTIVE FOR ANNIHILATED PARTICLES BETWEEN LAMBDA = 1 AND LAMBDA = 1
Info: FEP BOND ACTIVE FOR EXNIHILATED PARTICLES BETWEEN LAMBDA = 0 AND LAMBDA = 0
Info: LANGEVIN DYNAMICS ACTIVE
Info: LANGEVIN TEMPERATURE   300
Info: LANGEVIN USING BBK INTEGRATOR
Info: LANGEVIN DAMPING COEFFICIENT IS 1 INVERSE PS
Info: LANGEVIN DYNAMICS APPLIED TO HYDROGENS
Info: LANGEVIN PISTON PRESSURE CONTROL ACTIVE
Info:        TARGET PRESSURE IS 1.01325 BAR
Info:     OSCILLATION PERIOD IS 50 FS
Info:             DECAY TIME IS 25 FS
Info:     PISTON TEMPERATURE IS 300 K
Info:       PRESSURE CONTROL IS GROUP-BASED
Info:    INITIAL STRAIN RATE IS 0.000121744 0.000121744 0.000121744
Info:       CELL FLUCTUATION IS ISOTROPIC
Info: PARTICLE MESH EWALD (PME) ACTIVE
Info: PME TOLERANCE               1e-06
Info: PME EWALD COEFFICIENT       0.348832
Info: PME INTERPOLATION ORDER     4
Info: PME GRID DIMENSIONS         32 32 32
Info: PME MAXIMUM GRID SPACING    1
Info: PME CALCULATION WILL BE PERFORMED ON GPU
Info: FULL ELECTROSTATIC EVALUATION FREQUENCY      2
Info: USING VERLET I (r-RESPA) MTS SCHEME.
Info: C1 SPLITTING OF LONG RANGE ELECTROSTATICS
Info: PLACING ATOMS IN PATCHES BY HYDROGEN GROUPS
Info: RIGID BONDS TO HYDROGEN : ALL
Info:         ERROR TOLERANCE : 1e-08
Info:          MAX ITERATIONS : 100
Info: RIGID WATER USING SETTLE ALGORITHM
Info: RANDOM NUMBER SEED     1743773810
Info: USE HYDROGEN BONDS?    NO
Info: Using AMBER format force field!
Info: AMBER PARM FILE        mobley_6303022.prmtop
Info: COORDINATE PDB         mobley_6303022.pdb
Info: Exclusions will be read from PARM file!
Info: SCNB (VDW SCALING)     2
Info: USING ARITHMETIC MEAN TO COMBINE L-J SIGMA PARAMETERS
Info: BINARY COORDINATES     mobley_6303022_equil.coor
Info: SUMMARY OF PARAMETERS:
Info: 9 BONDS
Info: 11 ANGLES
Info:   11 HARMONIC
Info:   0 COSINE-BASED
Info: 6 DIHEDRAL
Info: 0 IMPROPER
Info: 0 CROSSTERM
Info: 0 VDW
Info: 36 VDW_PAIRS
Info: 0 NBTHOLE_PAIRS
Info: To read alchdata from file: mobley_6303022.pdb
Info: To read alchflag data from column: 5
Info: STRUCTURE SUMMARY:
Info: 2951 ATOMS
Info: 2951 BONDS
Info: 28 ANGLES
Info: 40 DIHEDRALS
Info: 0 IMPROPERS
Info: 0 CROSSTERMS
Info: 3011 EXCLUSIONS
Info: 2943 RIGID BONDS
Info: ALCH: 0 ATOMS TO DISAPPEAR IN FINAL STATE
Info: ALCH: 17 ATOMS TO APPEAR IN FINAL STATE
Info: 5910 DEGREES OF FREEDOM
Info: 986 HYDROGEN GROUPS
Info: 4 ATOMS IN LARGEST HYDROGEN GROUP
Info: 986 MIGRATION GROUPS
Info: 4 ATOMS IN LARGEST MIGRATION GROUP
Info: TOTAL MASS = 17726.8 amu
Info: TOTAL CHARGE = -7.45058e-09 e
Info: MASS DENSITY = 0.963241 g/cm^3
Info: ATOM DENSITY = 0.0965639 atoms/A^3
Info: ADDED 0 IMPLICIT EXCLUSIONS
Info: NONBONDED TABLE R-SQUARED SPACING: 0.0625
Info: NONBONDED TABLE SIZE: 705 POINTS
Info: REDUCING NUMBER OF PATCHES TO IMPROVE LOAD BALANCE
Info: REMOVING COM VELOCITY -0.107469 -0.0592025 -0.00935218
Info: Use 3D box decompostion in PME FFT.
Info: Updated CUDA force table with 4096 elements.
Info: Updated CUDA LJ table with 8 x 8 elements.
Info: Found 18 unique exclusion lists needing 44 bytes
TCL: Running for 1500000 steps
ETITLE: TS BOND ANGLE DIHED IMPRP ELECT VDW BOUNDARY MISC KINETIC TOTAL TEMP POTENTIAL TOTALAVG TEMPAVG PRESSURE GPRESSURE VOLUME PRESSAVG GPRESSAVG
ENERGY: 0 3.1590 4.1720 1.3979 0.0000 -10726.1529 1467.7998 0.0000 0.0000 1810.6911 -7438.9332 308.3524 -9249.6244 -7438.9332 308.3524 76.7557 165.3979 30560.0840 76.7557 165.3979
ENERGY: 300000 0.9141 5.0258 4.2147 0.0000 -10731.6645 1424.4805 0.0000 0.0000 1791.0458 -7505.9836 305.0068 -9297.0294 -7480.0899 301.4281 -417.2485 -411.6633 30653.3113 -253.3479 -213.1938
ENERGY: 600000 1.4668 8.5882 3.0183 0.0000 -10738.3676 1462.9314 0.0000 0.0000 1769.4997 -7492.8632 301.3376 -9262.3629 -7472.1321 301.4921 111.1025 107.7994 30186.7410 55.7002 100.1942
ENERGY: 900000 7.1433 5.1740 1.5389 0.0000 -10650.7096 1401.8407 0.0000 0.0000 1738.8403 -7496.1723 296.1165 -9235.0126 -7474.2127 300.5417 -540.6656 -435.1528 30473.5039 -56.5794 -4.6579
ENERGY: 1200000 4.2474 9.6180 4.3674 0.0000 -10634.0561 1376.1587 0.0000 0.0000 1794.0257 -7445.6389 305.5143 -9239.6645 -7472.7094 301.1377 -795.2838 -691.7219 30484.8760 -103.5583 -44.7293
ENERGY: 1500000 0.8569 5.1703 3.0187 0.0000 -10800.8937 1504.7197 0.0000 0.0000 1766.2931 -7520.8351 300.7916 -9287.1282 -7472.3413 301.1110 398.0279 457.6765 30247.4830 -57.0665 4.6291
TCL: Running FEP window   2: Lambda1 0.05   Lambda2 0.1    [dLambda 0.05  ]
TCL: Setting parameter firsttimestep to 0
TCL: Setting parameter alchLambda to 0.05
Info: NONBONDED TABLE R-SQUARED SPACING: 0.0625
Info: NONBONDED TABLE SIZE: 705 POINTS
TCL: Setting parameter alchLambda2 to 0.1
Info: NONBONDED TABLE R-SQUARED SPACING: 0.0625
Info: NONBONDED TABLE SIZE: 705 POINTS
TCL: Running for 1500000 steps
ETITLE: TS BOND ANGLE DIHED IMPRP ELECT VDW BOUNDARY MISC KINETIC TOTAL TEMP POTENTIAL TOTALAVG TEMPAVG PRESSURE GPRESSURE VOLUME PRESSAVG GPRESSAVG
ENERGY: 0 0.8569 5.1703 3.0187 0.0000 -10800.8934 1507.6910 0.0000 0.0000 1765.4375 -7518.7191 300.6459 -9284.1566 -7518.7191 300.6459 380.1648 465.2743 30247.4830 380.1648 465.2743
ENERGY: 300000 2.2111 4.3671 2.3664 0.0000 -10687.3150 1412.9473 0.0000 0.0000 1774.9594 -7490.4637 302.2674 -9265.4231 -7528.0178 299.7439 -187.7380 -173.6053 30045.1672 -261.8068 -213.2611
ENERGY: 600000 1.6883 5.5484 1.6542 0.0000 -10758.4810 1503.8834 0.0000 0.0000 1764.0684 -7481.6382 300.4127 -9245.7067 -7506.6762 301.0516 475.1399 531.3164 30138.8532 -21.4450 38.2297
ENERGY: 900000 0.7091 4.1854 1.4961 0.0000 -10655.5252 1394.0910 0.0000 0.0000 1743.5536 -7511.4901 296.9191 -9255.0437 -7491.0834 301.4205 -370.2289 -261.0638 30090.3835 -189.8964 -111.7615
ENERGY: 1200000 1.7140 5.5990 3.9813 0.0000 -10773.8616 1455.5366 0.0000 0.0000 1732.7059 -7574.3248 295.0718 -9307.0307 -7498.8290 301.1556 -302.8590 -204.6676 30466.4985 -218.6132 -139.6355
ENERGY: 1500000 3.1069 3.1280 3.6372 0.0000 -10804.4549 1487.8112 0.0000 0.0000 1752.0013 -7554.7703 298.3578 -9306.7716 -7495.2972 301.4262 391.3330 455.6568 29879.5369 -154.7940 -77.2339
TCL: Running FEP window   3: Lambda1 0.1    Lambda2 0.15000000000000002 [dLambda 0.05000000000000002]
TCL: Setting parameter firsttimestep to 0
TCL: Setting parameter alchLambda to 0.1
Info: NONBONDED TABLE R-SQUARED SPACING: 0.0625
Info: NONBONDED TABLE SIZE: 705 POINTS
TCL: Setting parameter alchLambda2 to 0.15000000000000002
Info: NONBONDED TABLE R-SQUARED SPACING: 0.0625
Info: NONBONDED TABLE SIZE: 705 POINTS
TCL: Running for 1500000 steps
ETITLE: TS BOND ANGLE DIHED IMPRP ELECT VDW BOUNDARY MISC KINETIC TOTAL TEMP POTENTIAL TOTALAVG TEMPAVG PRESSURE GPRESSURE VOLUME PRESSAVG GPRESSAVG
ENERGY: 0 3.1069 3.1279 3.6372 0.0000 -10804.4559 1488.8487 0.0000 0.0000 1751.0875 -7554.6477 298.2021 -9305.7352 -7554.6477 298.2021 365.7244 460.3820 29879.5369 365.7244 460.3820
ENERGY: 300000 1.3438 6.3597 7.5549 0.0000 -10733.5079 1459.6563 0.0000 0.0000 1794.5986 -7463.9947 305.6119 -9258.5932 -7521.9892 300.1250 362.0227 409.4152 30058.4880 254.8477 270.8454
ENERGY: 600000 1.2540 5.2735 4.4580 0.0000 -10707.5109 1475.2986 0.0000 0.0000 1785.9506 -7435.2761 304.1392 -9221.2267 -7489.2595 301.1270 443.4989 416.4806 30502.7137 400.4973 423.4366
ENERGY: 900000 1.5207 4.3580 1.2903 0.0000 -10696.6494 1401.9110 0.0000 0.0000 1775.0162 -7512.5531 302.2771 -9287.5693 -7480.2203 301.6603 -547.3960 -496.7634 30439.7133 251.5020 282.7110
ENERGY: 1200000 2.2729 3.1494 5.2066 0.0000 -10731.5954 1383.7761 0.0000 0.0000 1775.2913 -7561.8990 302.3239 -9337.1903 -7490.9983 302.2403 -667.8701 -643.5901 30035.8065 131.1671 161.8878
ENERGY: 1500000 1.9527 4.4558 0.6218 0.0000 -10558.6086 1337.8041 0.0000 0.0000 1796.4587 -7417.3156 305.9286 -9213.7743 -7486.4520 301.9763 -586.7097 -535.6082 30220.0009 19.1554 50.8764
TCL: Running FEP window   4: Lambda1 0.15000000000000002 Lambda2 0.2    [dLambda 0.04999999999999999]
TCL: Setting parameter firsttimestep to 0
TCL: Setting parameter alchLambda to 0.15000000000000002
Info: NONBONDED TABLE R-SQUARED SPACING: 0.0625
Info: NONBONDED TABLE SIZE: 705 POINTS
TCL: Setting parameter alchLambda2 to 0.2
Info: NONBONDED TABLE R-SQUARED SPACING: 0.0625
Info: NONBONDED TABLE SIZE: 705 POINTS
TCL: Running for 1500000 steps
ETITLE: TS BOND ANGLE DIHED IMPRP ELECT VDW BOUNDARY MISC KINETIC TOTAL TEMP POTENTIAL TOTALAVG TEMPAVG PRESSURE GPRESSURE VOLUME PRESSAVG GPRESSAVG
ENERGY: 0 1.9527 4.4558 0.6218 0.0000 -10558.6095 1338.7333 0.0000 0.0000 1795.5910 -7417.2550 305.7809 -9212.8459 -7417.2550 305.7809 -614.7171 -529.5384 30220.0009 -614.7171 -529.5384
ENERGY: 300000 1.7007 7.1441 0.9467 0.0000 -10574.5967 1368.6182 0.0000 0.0000 1706.8453 -7489.3416 290.6679 -9196.1870 -7449.2258 299.8693 -688.0952 -542.3963 30619.2769 -377.8595 -277.4030
ENERGY: 600000 2.8572 5.1699 3.4723 0.0000 -10614.8327 1383.4630 0.0000 0.0000 1748.4258 -7471.4445 297.7489 -9219.8703 -7462.8358 299.5786 -793.3232 -715.3945 30832.3513 -513.3164 -431.8309
ENERGY: 900000 2.3737 6.3453 4.4833 0.0000 -10649.2939 1387.2221 0.0000 0.0000 1776.3704 -7472.4990 302.5077 -9248.8694 -7467.2279 300.3516 -303.3620 -237.2612 30090.0473 -333.2923 -260.1607
ENERGY: 1200000 0.7801 7.9020 0.7701 0.0000 -10743.5652 1444.8360 0.0000 0.0000 1738.8216 -7550.4554 296.1133 -9289.2770 -7482.8992 300.3901 -56.1600 -10.7376 30055.7525 -270.6626 -205.6360
ENERGY: 1500000 3.0609 9.5264 3.0931 0.0000 -10770.5400 1475.5177 0.0000 0.0000 1737.7765 -7541.5654 295.9353 -9279.3419 -7479.3159 300.2572 140.8470 122.6657 30664.1514 -260.7751 -199.1485
TCL: Running FEP window   5: Lambda1 0.2    Lambda2 0.25   [dLambda 0.04999999999999999]
TCL: Setting parameter firsttimestep to 0
TCL: Setting parameter alchLambda to 0.2
Info: NONBONDED TABLE R-SQUARED SPACING: 0.0625
Info: NONBONDED TABLE SIZE: 705 POINTS
TCL: Setting parameter alchLambda2 to 0.25
Info: NONBONDED TABLE R-SQUARED SPACING: 0.0625
Info: NONBONDED TABLE SIZE: 705 POINTS
TCL: Running for 1500000 steps
ETITLE: TS BOND ANGLE DIHED IMPRP ELECT VDW BOUNDARY MISC KINETIC TOTAL TEMP POTENTIAL TOTALAVG TEMPAVG PRESSURE GPRESSURE VOLUME PRESSAVG GPRESSAVG
ENERGY: 0 3.0609 9.5264 3.0931 0.0000 -10770.5406 1477.0989 0.0000 0.0000 1736.9077 -7540.8536 295.7874 -9277.7613 -7540.8536 295.7874 44.1356 135.8750 30664.1514 44.1356 135.8750
ENERGY: 300000 2.5623 4.5933 2.3231 0.0000 -10677.0935 1408.2124 0.0000 0.0000 1815.5635 -7443.8388 309.1821 -9259.4023 -7519.5908 302.6549 -532.3907 -412.7186 30592.0046 -86.7319 -2.1591
ENERGY: 600000 5.7885 6.3588 1.6824 0.0000 -10708.5203 1446.7861 0.0000 0.0000 1816.7681 -7431.1364 309.3872 -9247.9046 -7480.3956 305.1035 -122.5935 19.2218 29927.6016 1.3239 75.7227
ENERGY: 900000 3.6677 4.2666 5.0236 0.0000 -10704.5833 1398.8834 0.0000 0.0000 1776.5566 -7516.1854 302.5394 -9292.7420 -7489.8703 303.8223 -643.0170 -571.9420 30186.4302 -81.5193 -9.5427
ENERGY: 1200000 2.3648 5.5642 1.8951 0.0000 -10843.3629 1513.1032 0.0000 0.0000 1803.7455 -7516.6901 307.1696 -9320.4356 -7494.6448 303.5268 426.7381 481.7655 29997.0768 -36.0457 33.6571
ENERGY: 1500000 2.0207 6.5546 4.0816 0.0000 -10768.9161 1451.8844 0.0000 0.0000 1778.5482 -7525.8266 302.8786 -9304.3748 -7492.2319 302.7644 67.2325 104.9195 30092.2490 -42.8245 26.9063
TCL: Running FEP window   6: Lambda1 0.25   Lambda2 0.3    [dLambda 0.04999999999999999]
TCL: Setting parameter firsttimestep to 0
TCL: Setting parameter alchLambda to 0.25
Info: NONBONDED TABLE R-SQUARED SPACING: 0.0625
Info: NONBONDED TABLE SIZE: 705 POINTS
TCL: Setting parameter alchLambda2 to 0.3
Info: NONBONDED TABLE R-SQUARED SPACING: 0.0625
Info: NONBONDED TABLE SIZE: 705 POINTS
TCL: Running for 1500000 steps
ETITLE: TS BOND ANGLE DIHED IMPRP ELECT VDW BOUNDARY MISC KINETIC TOTAL TEMP POTENTIAL TOTALAVG TEMPAVG PRESSURE GPRESSURE VOLUME PRESSAVG GPRESSAVG
ENERGY: 0 2.0207 6.5546 4.0816 0.0000 -10768.9151 1452.0973 0.0000 0.0000 1777.7063 -7526.4546 302.7352 -9304.1609 -7526.4546 302.7352 47.8774 109.3068 30092.2490 47.8774 109.3068
ENERGY: 300000 1.4584 7.0786 3.4370 0.0000 -10524.8283 1320.7866 0.0000 0.0000 1779.0553 -7413.0125 302.9649 -9192.0678 -7470.7982 300.2139 -1033.8256 -985.0661 30715.7648 -260.8945 -190.9888
ENERGY: 600000 2.7379 7.6317 2.5245 0.0000 -10660.6897 1366.7951 0.0000 0.0000 1742.7987 -7538.2018 296.7906 -9281.0005 -7474.1937 301.7754 -968.3517 -882.4865 30445.7716 -268.5384 -184.8569
ENERGY: 900000 2.6031 8.0562 2.0312 0.0000 -10716.8295 1382.0932 0.0000 0.0000 1758.3817 -7563.6642 299.4443 -9322.0459 -7482.0625 302.0891 -727.5168 -658.6105 30359.2616 -351.5246 -263.8707
ENERGY: 1200000 2.7791 4.2591 2.3908 0.0000 -10797.3502 1500.0405 0.0000 0.0000 1777.3425 -7510.5382 302.6732 -9287.8807 -7492.1349 301.3110 224.4519 297.3359 30283.5958 -252.6526 -172.4906
ENERGY: 1500000 0.9038 4.0221 1.8381 0.0000 -10654.7881 1446.9160 0.0000 0.0000 1751.2682 -7449.8398 298.2329 -9201.1080 -7480.8948 300.6474 192.0769 269.1542 30420.1995 -165.8054 -84.5919
TCL: Running FEP window   7: Lambda1 0.3    Lambda2 0.35   [dLambda 0.04999999999999999]
TCL: Setting parameter firsttimestep to 0
TCL: Setting parameter alchLambda to 0.3
Info: NONBONDED TABLE R-SQUARED SPACING: 0.0625
Info: NONBONDED TABLE SIZE: 705 POINTS
TCL: Setting parameter alchLambda2 to 0.35
Info: NONBONDED TABLE R-SQUARED SPACING: 0.0625
Info: NONBONDED TABLE SIZE: 705 POINTS
TCL: Running for 1500000 steps
ETITLE: TS BOND ANGLE DIHED IMPRP ELECT VDW BOUNDARY MISC KINETIC TOTAL TEMP POTENTIAL TOTALAVG TEMPAVG PRESSURE GPRESSURE VOLUME PRESSAVG GPRESSAVG
ENERGY: 0 0.9038 4.0221 1.8381 0.0000 -10654.7881 1446.8776 0.0000 0.0000 1750.4079 -7450.7386 298.0864 -9201.1464 -7450.7386 298.0864 195.1805 271.5113 30420.1995 195.1805 271.5113
ENERGY: 300000 1.7433 9.5096 4.2900 0.0000 -10608.2332 1379.7045 0.0000 0.0000 1752.2848 -7460.7009 298.4060 -9212.9857 -7505.5545 298.5322 -664.7702 -595.0427 30883.1745 -125.7834 -65.4587
ENERGY: 600000 5.0602 6.1710 1.8136 0.0000 -10669.1022 1448.0788 0.0000 0.0000 1793.5395 -7414.4390 305.4315 -9207.9786 -7516.3263 296.3692 -156.2004 -83.9148 30510.8983 -107.0781 -35.3870
ENERGY: 900000 2.1287 3.9627 1.6143 0.0000 -10896.7746 1511.2452 0.0000 0.0000 1789.7750 -7588.0487 304.7904 -9377.8237 -7521.8179 297.0826 141.4631 134.2632 30319.2118 -172.8945 -107.2721
ENERGY: 1200000 2.8619 8.1446 1.5544 0.0000 -10797.6913 1494.4108 0.0000 0.0000 1780.8291 -7509.8905 303.2670 -9290.7196 -7516.9025 298.3616 472.3442 525.1306 29786.3753 -122.3863 -58.5582
ENERGY: 1500000 1.1236 8.0437 3.2687 0.0000 -10679.3140 1391.9584 0.0000 0.0000 1778.7529 -7496.1668 302.9134 -9274.9197 -7517.9548 298.4584 -357.7195 -269.3516 30060.0273 -69.9916 -6.3105
TCL: Running FEP window   8: Lambda1 0.35   Lambda2 0.39999999999999997 [dLambda 0.04999999999999999]
TCL: Setting parameter firsttimestep to 0
TCL: Setting parameter alchLambda to 0.35
Info: NONBONDED TABLE R-SQUARED SPACING: 0.0625
Info: NONBONDED TABLE SIZE: 705 POINTS
TCL: Setting parameter alchLambda2 to 0.39999999999999997
Info: NONBONDED TABLE R-SQUARED SPACING: 0.0625
Info: NONBONDED TABLE SIZE: 705 POINTS
TCL: Running for 1500000 steps
ETITLE: TS BOND ANGLE DIHED IMPRP ELECT VDW BOUNDARY MISC KINETIC TOTAL TEMP POTENTIAL TOTALAVG TEMPAVG PRESSURE GPRESSURE VOLUME PRESSAVG GPRESSAVG
ENERGY: 0 1.1236 8.0437 3.2687 0.0000 -10679.3135 1391.7682 0.0000 0.0000 1777.8397 -7497.2695 302.7579 -9275.1093 -7497.2695 302.7579 -348.9567 -267.7187 30060.0273 -348.9567 -267.7187
ENERGY: 300000 2.1768 5.1148 4.4871 0.0000 -10708.9002 1459.4436 0.0000 0.0000 1756.8152 -7480.8627 299.1775 -9237.6779 -7491.3894 301.8315 48.1213 161.2493 30243.8710 85.1483 146.0851
ENERGY: 600000 1.9352 4.8841 4.2683 0.0000 -10755.3523 1532.7698 0.0000 0.0000 1742.2040 -7469.2909 296.6893 -9211.4949 -7511.3675 299.8953 706.5771 792.2640 30334.2821 167.8888 222.3145
ENERGY: 900000 3.1726 7.5749 4.3596 0.0000 -10788.0741 1478.9087 0.0000 0.0000 1808.6411 -7485.4171 308.0033 -9294.0583 -7510.3399 300.4169 325.4522 313.1243 30188.3253 205.7018 242.5617
ENERGY: 1200000 1.8240 5.9363 2.2611 0.0000 -10736.1614 1391.7011 0.0000 0.0000 1766.3116 -7568.1274 300.7947 -9334.4389 -7513.7914 299.8403 -852.2112 -750.4938 30561.4129 66.5568 112.7155
ENERGY: 1500000 2.0126 3.2771 1.1005 0.0000 -10716.7773 1418.1962 0.0000 0.0000 1807.2079 -7484.9830 307.7592 -9292.1909 -7504.6505 300.3386 -237.8372 -228.4027 30360.0390 38.5934 84.7487
TCL: Running FEP window   9: Lambda1 0.39999999999999997 Lambda2 0.44999999999999996 [dLambda 0.04999999999999999]
TCL: Setting parameter firsttimestep to 0
TCL: Setting parameter alchLambda to 0.39999999999999997
Info: NONBONDED TABLE R-SQUARED SPACING: 0.0625
Info: NONBONDED TABLE SIZE: 705 POINTS
TCL: Setting parameter alchLambda2 to 0.44999999999999996
Info: NONBONDED TABLE R-SQUARED SPACING: 0.0625
Info: NONBONDED TABLE SIZE: 705 POINTS
TCL: Running for 1500000 steps
ETITLE: TS BOND ANGLE DIHED IMPRP ELECT VDW BOUNDARY MISC KINETIC TOTAL TEMP POTENTIAL TOTALAVG TEMPAVG PRESSURE GPRESSURE VOLUME PRESSAVG GPRESSAVG
ENERGY: 0 2.0126 3.2771 1.1005 0.0000 -10716.7778 1417.9245 0.0000 0.0000 1806.3413 -7486.1218 307.6116 -9292.4631 -7486.1218 307.6116 -301.2796 -225.6922 30360.0390 -301.2796 -225.6922
ENERGY: 300000 1.4219 6.2727 5.1731 0.0000 -10619.1895 1359.2871 0.0000 0.0000 1743.6569 -7503.3777 296.9367 -9247.0347 -7508.1132 300.7944 -652.2045 -659.7990 30386.2194 -102.8558 -47.6977
ENERGY: 600000 1.5151 6.1222 2.2658 0.0000 -10740.4745 1477.0308 0.0000 0.0000 1717.9510 -7535.5898 292.5591 -9253.5407 -7516.4766 296.8084 112.7237 180.7544 30269.3435 -13.2165 46.4113
ENERGY: 900000 2.9792 4.0063 1.5440 0.0000 -10572.3438 1310.1177 0.0000 0.0000 1729.5810 -7524.1155 294.5397 -9253.6965 -7506.5294 297.3839 -1236.4094 -1146.9454 30348.0674 -155.0237 -99.1693
ENERGY: 1200000 4.1280 5.7292 1.4052 0.0000 -10677.4580 1399.8782 0.0000 0.0000 1757.1386 -7509.1789 299.2326 -9266.3175 -7503.3724 298.6235 -722.8226 -647.1169 30698.6819 -41.7367 16.7239
ENERGY: 1500000 1.9731 4.6829 3.3253 0.0000 -10698.6810 1423.5453 0.0000 0.0000 1767.2426 -7497.9118 300.9533 -9265.1544 -7507.1702 298.3463 -271.7017 -188.9600 30275.7223 -107.9944 -47.8822
TCL: Running FEP window  10: Lambda1 0.44999999999999996 Lambda2 0.49999999999999994 [dLambda 0.04999999999999999]
TCL: Setting parameter firsttimestep to 0
TCL: Setting parameter alchLambda to 0.44999999999999996
Info: NONBONDED TABLE R-SQUARED SPACING: 0.0625
Info: NONBONDED TABLE SIZE: 705 POINTS
TCL: Setting parameter alchLambda2 to 0.49999999999999994
Info: NONBONDED TABLE R-SQUARED SPACING: 0.0625
Info: NONBONDED TABLE SIZE: 705 POINTS
TCL: Running for 1500000 steps
ETITLE: TS BOND ANGLE DIHED IMPRP ELECT VDW BOUNDARY MISC KINETIC TOTAL TEMP POTENTIAL TOTALAVG TEMPAVG PRESSURE GPRESSURE VOLUME PRESSAVG GPRESSAVG
ENERGY: 0 1.9731 4.6829 3.3253 0.0000 -10698.6817 1423.6004 0.0000 0.0000 1766.3533 -7498.7467 300.8018 -9265.1000 -7498.7467 300.8018 -273.8044 -181.4136 30275.7223 -273.8044 -181.4136
ENERGY: 300000 1.0628 3.8770 1.3713 0.0000 -10757.0733 1471.0597 0.0000 0.0000 1770.4486 -7509.2538 301.4992 -9279.7024 -7493.4886 297.4027 150.2519 221.0763 30241.8984 -138.2000 -74.5124
ENERGY: 600000 2.8586 4.0688 2.5286 0.0000 -10695.1134 1408.6659 0.0000 0.0000 1746.3268 -7530.6647 297.3914 -9276.9915 -7509.4348 299.0181 -297.3959 -233.6408 30226.0353 -94.0961 -25.9832
ENERGY: 900000 1.0822 5.3240 5.0723 0.0000 -10770.0421 1439.7938 0.0000 0.0000 1787.0253 -7531.7444 304.3222 -9318.7697 -7527.4909 297.8931 -216.2048 -138.7938 30201.6428 -178.8377 -106.0649
ENERGY: 1200000 1.3936 5.5330 1.7838 0.0000 -10844.2505 1507.7087 0.0000 0.0000 1718.8946 -7608.9367 292.7198 -9327.8313 -7530.0038 297.7059 309.3709 375.3391 30054.8898 -230.7188 -155.8013
ENERGY: 1500000 2.6974 5.1655 3.2533 0.0000 -10739.0000 1427.0336 0.0000 0.0000 1829.6914 -7471.1589 311.5880 -9300.8503 -7518.6595 298.8429 -59.4199 -38.3855 30089.5630 -153.4274 -79.5368
TCL: Running FEP window  11: Lambda1 0.49999999999999994 Lambda2 0.5499999999999999 [dLambda 0.04999999999999999]
TCL: Setting parameter firsttimestep to 0
TCL: Setting parameter alchLambda to 0.49999999999999994
Info: NONBONDED TABLE R-SQUARED SPACING: 0.0625
Info: NONBONDED TABLE SIZE: 705 POINTS
TCL: Setting parameter alchLambda2 to 0.5499999999999999
Info: NONBONDED TABLE R-SQUARED SPACING: 0.0625
Info: NONBONDED TABLE SIZE: 705 POINTS
TCL: Running for 1500000 steps
ETITLE: TS BOND ANGLE DIHED IMPRP ELECT VDW BOUNDARY MISC KINETIC TOTAL TEMP POTENTIAL TOTALAVG TEMPAVG PRESSURE GPRESSURE VOLUME PRESSAVG GPRESSAVG
ENERGY: 0 2.6974 5.1655 3.2533 0.0000 -10739.0011 1428.5144 0.0000 0.0000 1828.8001 -7470.5704 311.4362 -9299.3705 -7470.5704 311.4362 -95.4495 -23.1202 30089.5630 -95.4495 -23.1202
ENERGY: 300000 3.7596 6.7365 3.3379 0.0000 -10732.5554 1462.0605 0.0000 0.0000 1788.5518 -7468.1091 304.5821 -9256.6609 -7480.4520 302.8790 212.4688 305.6868 30243.3896 -6.8030 45.5503
ENERGY: 600000 2.2852 6.5651 5.0562 0.0000 -10858.4474 1480.7011 0.0000 0.0000 1774.3714 -7589.4685 302.1673 -9363.8399 -7508.1693 303.3438 -119.5256 -64.5372 30314.3747 -79.6357 -19.8291
ENERGY: 900000 1.4551 6.3825 4.3763 0.0000 -10713.1538 1433.6646 0.0000 0.0000 1794.2839 -7472.9913 305.5583 -9267.2752 -7507.5219 302.6621 -71.1804 10.2413 30415.5028 -4.4632 51.6147
ENERGY: 1200000 4.8133 5.7803 5.6772 0.0000 -10572.2463 1337.9035 0.0000 0.0000 1753.2835 -7464.7886 298.5761 -9218.0720 -7506.6432 301.1594 -940.4457 -901.6885 30596.3937 -22.8951 23.1083
ENERGY: 1500000 4.5826 5.3578 2.1557 0.0000 -10872.4894 1543.3372 0.0000 0.0000 1725.6540 -7591.4021 293.8709 -9317.0561 -7509.0389 300.6805 674.8608 705.4751 30116.2456 22.4211 67.6758
TCL: Running FEP window  12: Lambda1 0.5499999999999999 Lambda2 0.6    [dLambda 0.050000000000000044]
TCL: Setting parameter firsttimestep to 0
TCL: Setting parameter alchLambda to 0.5499999999999999
Info: NONBONDED TABLE R-SQUARED SPACING: 0.0625
Info: NONBONDED TABLE SIZE: 705 POINTS
TCL: Setting parameter alchLambda2 to 0.6
Info: NONBONDED TABLE R-SQUARED SPACING: 0.0625
Info: NONBONDED TABLE SIZE: 705 POINTS
TCL: Running for 1500000 steps
ETITLE: TS BOND ANGLE DIHED IMPRP ELECT VDW BOUNDARY MISC KINETIC TOTAL TEMP POTENTIAL TOTALAVG TEMPAVG PRESSURE GPRESSURE VOLUME PRESSAVG GPRESSAVG
ENERGY: 0 4.5826 5.3578 2.1557 0.0000 -10872.5542 1542.6734 0.0000 0.0000 1724.7744 -7593.0103 293.7211 -9317.7847 -7593.0103 293.7211 641.8447 706.4098 30116.2456 641.8447 706.4098
ENERGY: 300000 5.4266 4.7434 3.5183 0.0000 -10703.3639 1406.7421 0.0000 0.0000 1796.8440 -7486.0896 305.9943 -9282.9336 -7505.4536 302.2504 -414.5290 -358.9396 30325.4935 -61.4747 2.0611
ENERGY: 600000 4.6362 4.8727 2.5060 0.0000 -10808.1797 1524.3529 0.0000 0.0000 1721.0044 -7550.8074 293.0791 -9271.8118 -7531.4811 298.5438 664.8425 678.7284 30287.7053 -62.5764 -15.4110
ENERGY: 900000 3.3046 6.6865 3.8635 0.0000 -10818.7616 1506.1069 0.0000 0.0000 1763.6002 -7535.1999 300.3330 -9298.8001 -7512.8751 299.9723 552.8184 562.6663 30019.2223 -78.3395 -27.7961
ENERGY: 1200000 3.0473 6.9002 3.6424 0.0000 -10699.4409 1467.4245 0.0000 0.0000 1758.6015 -7459.8249 299.4817 -9218.4265 -7500.5563 300.3103 344.8175 453.8096 30375.9028 -131.9146 -74.0843
ENERGY: 1500000 2.4999 4.1461 5.5196 0.0000 -10802.0355 1506.1254 0.0000 0.0000 1778.8832 -7504.8613 302.9356 -9283.7445 -7500.5332 299.8538 231.7277 297.2291 30435.5717 -120.7013 -62.5910
TCL: Running FEP window  13: Lambda1 0.6    Lambda2 0.65   [dLambda 0.050000000000000044]
TCL: Setting parameter firsttimestep to 0
TCL: Setting parameter alchLambda to 0.6
Info: NONBONDED TABLE R-SQUARED SPACING: 0.0625
Info: NONBONDED TABLE SIZE: 705 POINTS
TCL: Setting parameter alchLambda2 to 0.65
Info: NONBONDED TABLE R-SQUARED SPACING: 0.0625
Info: NONBONDED TABLE SIZE: 705 POINTS
TCL: Running for 1500000 steps
ETITLE: TS BOND ANGLE DIHED IMPRP ELECT VDW BOUNDARY MISC KINETIC TOTAL TEMP POTENTIAL TOTALAVG TEMPAVG PRESSURE GPRESSURE VOLUME PRESSAVG GPRESSAVG
ENERGY: 0 2.4999 4.1461 5.5196 0.0000 -10802.2635 1505.8615 0.0000 0.0000 1778.0017 -7506.2346 302.7855 -9284.2363 -7506.2346 302.7855 215.4580 302.0625 30435.5717 215.4580 302.0625
ENERGY: 300000 3.9242 5.7782 3.6497 0.0000 -10453.4340 1353.4557 0.0000 0.0000 1779.7519 -7306.8744 303.0836 -9086.6263 -7451.8892 300.3193 -80.8302 -106.9678 30463.0832 -121.4222 -71.2480
ENERGY: 600000 1.4933 6.8899 2.4248 0.0000 -10603.3258 1364.4063 0.0000 0.0000 1735.6963 -7492.4153 295.5811 -9228.1116 -7469.1327 300.1051 -793.1074 -699.2955 31040.2061 -258.6160 -186.8663
ENERGY: 900000 4.2406 7.1695 2.2538 0.0000 -10665.3436 1481.2556 0.0000 0.0000 1702.3827 -7468.0414 289.9079 -9170.4241 -7472.7594 298.6499 471.3966 512.9468 30601.4434 -235.0665 -173.4901
ENERGY: 1200000 4.0918 4.2933 1.9147 0.0000 -10683.2793 1490.6820 0.0000 0.0000 1752.9027 -7429.3949 298.5113 -9182.2976 -7475.6352 298.1040 358.8283 436.1964 30648.6376 -161.8586 -111.7626
ENERGY: 1500000 3.3108 5.2499 2.1380 0.0000 -10774.6724 1450.1984 0.0000 0.0000 1782.4538 -7531.3215 303.5437 -9313.7753 -7484.5912 298.0116 176.5871 237.2959 30015.6201 -155.1871 -102.7613
TCL: Running FEP window  14: Lambda1 0.65   Lambda2 0.7000000000000001 [dLambda 0.050000000000000044]
TCL: Setting parameter firsttimestep to 0
TCL: Setting parameter alchLambda to 0.65
Info: NONBONDED TABLE R-SQUARED SPACING: 0.0625
Info: NONBONDED TABLE SIZE: 705 POINTS
TCL: Setting parameter alchLambda2 to 0.7000000000000001
Info: NONBONDED TABLE R-SQUARED SPACING: 0.0625
Info: NONBONDED TABLE SIZE: 705 POINTS
TCL: Running for 1500000 steps
ETITLE: TS BOND ANGLE DIHED IMPRP ELECT VDW BOUNDARY MISC KINETIC TOTAL TEMP POTENTIAL TOTALAVG TEMPAVG PRESSURE GPRESSURE VOLUME PRESSAVG GPRESSAVG
ENERGY: 0 3.3108 5.2499 2.1380 0.0000 -10774.8606 1449.7353 0.0000 0.0000 1781.5391 -7532.8874 303.3879 -9314.4265 -7532.8874 303.3879 152.1723 241.4300 30015.6201 152.1723 241.4300
ENERGY: 300000 6.4057 4.8432 2.1937 0.0000 -10533.6833 1349.9685 0.0000 0.0000 1743.7544 -7426.5179 296.9533 -9170.2723 -7489.4542 302.1018 -583.9409 -480.8567 30614.0809 -99.7550 -34.0138
ENERGY: 600000 2.0096 3.6979 1.8363 0.0000 -10701.2706 1457.7324 0.0000 0.0000 1732.7285 -7503.2659 295.0757 -9235.9944 -7502.9518 299.9744 185.4877 251.4309 30433.2258 -145.3056 -73.3161
ENERGY: 900000 3.0156 1.9830 2.9561 0.0000 -10706.7714 1425.8131 0.0000 0.0000 1746.6418 -7526.3618 297.4451 -9273.0036 -7505.5373 299.4776 -223.3343 -164.6006 30371.2325 -117.3273 -58.4517
ENERGY: 1200000 4.4318 7.2178 1.3680 0.0000 -10787.1253 1484.6281 0.0000 0.0000 1773.3712 -7516.1083 301.9970 -9289.4795 -7512.4884 298.9456 72.8068 119.3553 30889.7193 -136.1680 -78.9787
ENERGY: 1500000 3.3599 3.9072 1.1959 0.0000 -10709.8658 1478.4681 0.0000 0.0000 1734.4377 -7488.4969 295.3668 -9222.9346 -7512.3530 298.3596 434.1721 541.8137 30110.6945 -68.0143 -9.0988
TCL: Running FEP window  15: Lambda1 0.7000000000000001 Lambda2 0.7500000000000001 [dLambda 0.050000000000000044]
TCL: Setting parameter firsttimestep to 0
TCL: Setting parameter alchLambda to 0.7000000000000001
Info: NONBONDED TABLE R-SQUARED SPACING: 0.0625
Info: NONBONDED TABLE SIZE: 705 POINTS
TCL: Setting parameter alchLambda2 to 0.7500000000000001
Info: NONBONDED TABLE R-SQUARED SPACING: 0.0625
Info: NONBONDED TABLE SIZE: 705 POINTS
TCL: Running for 1500000 steps
ETITLE: TS BOND ANGLE DIHED IMPRP ELECT VDW BOUNDARY MISC KINETIC TOTAL TEMP POTENTIAL TOTALAVG TEMPAVG PRESSURE GPRESSURE VOLUME PRESSAVG GPRESSAVG
ENERGY: 0 3.3599 3.9072 1.1959 0.0000 -10710.1584 1478.3539 0.0000 0.0000 1733.5484 -7489.7930 295.2153 -9223.3415 -7489.7930 295.2153 454.1431 548.9656 30110.6945 454.1431 548.9656
ENERGY: 300000 2.4441 4.7168 1.9779 0.0000 -10776.1122 1475.9002 0.0000 0.0000 1693.6201 -7597.4530 288.4157 -9291.0732 -7521.4499 297.3277 156.9108 178.9218 30480.6451 441.0251 503.0600
ENERGY: 600000 1.7693 4.2013 1.0990 0.0000 -10762.5200 1461.1545 0.0000 0.0000 1750.9360 -7543.3598 298.1763 -9294.2958 -7499.9116 299.5337 5.1106 72.7757 30403.0393 172.8027 233.2814
ENERGY: 900000 2.4122 3.2729 2.9877 0.0000 -10718.0482 1441.9169 0.0000 0.0000 1769.2533 -7498.2052 301.2957 -9267.4585 -7499.7452 300.1936 -311.5079 -251.8233 31114.8528 6.3316 70.5514
ENERGY: 1200000 1.4109 6.2887 3.8739 0.0000 -10758.5635 1539.1565 0.0000 0.0000 1750.8121 -7457.0214 298.1552 -9207.8335 -7496.2891 300.1929 700.4529 798.9556 30643.5747 104.3427 169.4224
ENERGY: 1500000 2.1801 7.2079 0.3279 0.0000 -10720.5375 1443.6193 0.0000 0.0000 1763.3589 -7503.8433 300.2919 -9267.2022 -7500.5897 299.6554 237.5498 302.2192 29992.4389 94.2852 164.1652
TCL: Running FEP window  16: Lambda1 0.7500000000000001 Lambda2 0.8000000000000002 [dLambda 0.050000000000000044]
TCL: Setting parameter firsttimestep to 0
TCL: Setting parameter alchLambda to 0.7500000000000001
Info: NONBONDED TABLE R-SQUARED SPACING: 0.0625
Info: NONBONDED TABLE SIZE: 705 POINTS
TCL: Setting parameter alchLambda2 to 0.8000000000000002
Info: NONBONDED TABLE R-SQUARED SPACING: 0.0625
Info: NONBONDED TABLE SIZE: 705 POINTS
TCL: Running for 1500000 steps
ETITLE: TS BOND ANGLE DIHED IMPRP ELECT VDW BOUNDARY MISC KINETIC TOTAL TEMP POTENTIAL TOTALAVG TEMPAVG PRESSURE GPRESSURE VOLUME PRESSAVG GPRESSAVG
ENERGY: 0 2.1801 7.2079 0.3279 0.0000 -10721.2679 1443.8815 0.0000 0.0000 1762.4737 -7505.1968 300.1412 -9267.6706 -7505.1968 300.1412 226.3884 313.9695 29992.4389 226.3884 313.9695
ENERGY: 300000 4.0722 2.4142 2.4468 0.0000 -10779.8395 1482.1973 0.0000 0.0000 1732.0156 -7556.6934 294.9543 -9288.7089 -7519.1855 299.6277 435.1276 485.7300 30168.0582 284.4564 379.7539
ENERGY: 600000 3.4667 4.0721 1.9403 0.0000 -10777.9753 1505.9572 0.0000 0.0000 1811.3737 -7451.1653 308.4686 -9262.5390 -7500.2525 301.4035 590.5603 692.4052 30424.5639 223.9572 307.7300
ENERGY: 900000 2.3744 3.4224 2.8572 0.0000 -10762.3115 1483.0199 0.0000 0.0000 1725.7264 -7544.9112 293.8833 -9270.6376 -7508.4270 299.7759 463.6836 519.3200 30139.1346 187.1490 262.5357
ENERGY: 1200000 3.5800 2.8130 1.6039 0.0000 -10672.9031 1439.5298 0.0000 0.0000 1748.0053 -7477.3711 297.6773 -9225.3764 -7505.6912 300.2091 -185.6981 -174.5227 30657.8569 211.6957 280.9993
ENERGY: 1500000 1.3880 5.6083 1.2446 0.0000 -10746.8998 1458.4702 0.0000 0.0000 1778.9424 -7501.2464 302.9457 -9280.1888 -7504.6399 300.5515 302.7804 308.0159 30248.4053 145.6786 209.2810
TCL: Running FEP window  17: Lambda1 0.8000000000000002 Lambda2 0.8500000000000002 [dLambda 0.050000000000000044]
TCL: Setting parameter firsttimestep to 0
TCL: Setting parameter alchLambda to 0.8000000000000002
Info: NONBONDED TABLE R-SQUARED SPACING: 0.0625
Info: NONBONDED TABLE SIZE: 705 POINTS
TCL: Setting parameter alchLambda2 to 0.8500000000000002
Info: NONBONDED TABLE R-SQUARED SPACING: 0.0625
Info: NONBONDED TABLE SIZE: 705 POINTS
TCL: Running for 1500000 steps
ETITLE: TS BOND ANGLE DIHED IMPRP ELECT VDW BOUNDARY MISC KINETIC TOTAL TEMP POTENTIAL TOTALAVG TEMPAVG PRESSURE GPRESSURE VOLUME PRESSAVG GPRESSAVG
ENERGY: 0 1.3880 5.6083 1.2446 0.0000 -10747.8788 1459.4640 0.0000 0.0000 1778.0772 -7502.0967 302.7984 -9280.1740 -7502.0967 302.7984 251.3496 328.1403 30248.4053 251.3496 328.1403
ENERGY: 300000 5.1768 7.0727 2.5555 0.0000 -10622.0319 1381.2939 0.0000 0.0000 1762.8007 -7463.1322 300.1968 -9225.9330 -7458.0461 302.7140 -253.4070 -259.1892 30154.1492 -206.5814 -152.0633
ENERGY: 600000 2.0880 7.8575 1.6067 0.0000 -10699.8123 1408.5825 0.0000 0.0000 1760.2682 -7519.4094 299.7656 -9279.6776 -7468.2901 302.2904 -303.4754 -230.4582 30297.4779 -226.7724 -173.2133
ENERGY: 900000 3.7615 6.2555 3.1513 0.0000 -10639.6815 1393.0673 0.0000 0.0000 1801.4839 -7431.9620 306.7844 -9233.4459 -7467.6576 302.3968 -385.9197 -273.2651 30693.3475 -158.4510 -101.5339
ENERGY: 1200000 2.8306 5.8491 3.6830 0.0000 -10722.6450 1443.3520 0.0000 0.0000 1813.7435 -7453.1869 308.8722 -9266.9303 -7481.9880 301.6616 152.4895 173.6788 30154.9651 -195.4396 -140.6277
ENERGY: 1500000 1.0593 5.3215 1.3566 0.0000 -10810.6946 1463.6253 0.0000 0.0000 1760.1541 -7579.1780 299.7461 -9339.3320 -7489.3501 301.3931 172.1797 226.6747 30104.9495 -189.4011 -132.4183
TCL: Running FEP window  18: Lambda1 0.8500000000000002 Lambda2 0.9000000000000002 [dLambda 0.050000000000000044]
TCL: Setting parameter firsttimestep to 0
TCL: Setting parameter alchLambda to 0.8500000000000002
Info: NONBONDED TABLE R-SQUARED SPACING: 0.0625
Info: NONBONDED TABLE SIZE: 705 POINTS
TCL: Setting parameter alchLambda2 to 0.9000000000000002
Info: NONBONDED TABLE R-SQUARED SPACING: 0.0625
Info: NONBONDED TABLE SIZE: 705 POINTS
TCL: Running for 1500000 steps
ETITLE: TS BOND ANGLE DIHED IMPRP ELECT VDW BOUNDARY MISC KINETIC TOTAL TEMP POTENTIAL TOTALAVG TEMPAVG PRESSURE GPRESSURE VOLUME PRESSAVG GPRESSAVG
ENERGY: 0 1.0593 5.3215 1.3566 0.0000 -10811.4418 1463.6997 0.0000 0.0000 1759.2864 -7580.7184 299.5984 -9340.0048 -7580.7184 299.5984 164.6108 239.4127 30104.9495 164.6108 239.4127
ENERGY: 300000 2.0623 9.9783 4.4456 0.0000 -10591.4479 1382.8539 0.0000 0.0000 1779.0331 -7413.0748 302.9611 -9192.1079 -7460.4606 301.5535 -146.9373 -99.6696 30482.5467 -468.9352 -415.7332
ENERGY: 600000 5.8317 8.3411 2.8866 0.0000 -10594.2574 1365.0369 0.0000 0.0000 1766.0047 -7446.1563 300.7425 -9212.1610 -7498.9693 300.8538 -415.0372 -455.6788 30723.0497 -296.2959 -255.6097
ENERGY: 900000 0.7655 7.7539 2.7688 0.0000 -10779.2011 1429.8443 0.0000 0.0000 1773.0945 -7564.9741 301.9498 -9338.0686 -7511.5247 300.4290 -140.7458 -38.5346 30186.9801 -216.0805 -168.7664
ENERGY: 1200000 0.9808 5.8337 3.5397 0.0000 -10681.2974 1483.4528 0.0000 0.0000 1777.6219 -7409.8685 302.7208 -9187.4903 -7504.3272 300.0268 704.7240 844.9096 30143.1335 -200.9624 -146.9450
ENERGY: 1500000 3.4531 6.0011 2.1393 0.0000 -10687.4583 1424.6960 0.0000 0.0000 1812.3522 -7438.8166 308.6352 -9251.1688 -7491.2491 300.6390 22.2785 57.9890 30401.1637 -193.0118 -132.8079
TCL: Running FEP window  19: Lambda1 0.9000000000000002 Lambda2 0.9500000000000003 [dLambda 0.050000000000000044]
TCL: Setting parameter firsttimestep to 0
TCL: Setting parameter alchLambda to 0.9000000000000002
Info: NONBONDED TABLE R-SQUARED SPACING: 0.0625
Info: NONBONDED TABLE SIZE: 705 POINTS
TCL: Setting parameter alchLambda2 to 0.9500000000000003
Info: NONBONDED TABLE R-SQUARED SPACING: 0.0625
Info: NONBONDED TABLE SIZE: 705 POINTS
TCL: Running for 1500000 steps
ETITLE: TS BOND ANGLE DIHED IMPRP ELECT VDW BOUNDARY MISC KINETIC TOTAL TEMP POTENTIAL TOTALAVG TEMPAVG PRESSURE GPRESSURE VOLUME PRESSAVG GPRESSAVG
ENERGY: 0 3.4531 6.0011 2.1393 0.0000 -10688.5586 1424.6867 0.0000 0.0000 1811.4585 -7440.8200 308.4830 -9252.2785 -7440.8200 308.4830 -12.2955 68.3380 30401.1637 -12.2955 68.3380
ENERGY: 300000 0.4987 6.5281 2.9942 0.0000 -10823.5238 1562.5659 0.0000 0.0000 1758.0455 -7492.8913 299.3871 -9250.9368 -7490.1448 302.3701 1072.3928 1124.7603 30253.9924 788.6772 864.1858
ENERGY: 600000 1.4258 4.4224 2.8964 0.0000 -10754.9306 1486.1227 0.0000 0.0000 1736.1552 -7523.9080 295.6592 -9260.0632 -7507.3137 299.4919 278.7779 334.3161 30213.1664 228.7947 301.4549
ENERGY: 900000 3.7119 5.2167 2.3085 0.0000 -10795.8942 1512.7056 0.0000 0.0000 1764.9411 -7507.0104 300.5613 -9271.9515 -7497.7300 300.9275 448.6351 434.2490 30561.5294 189.5895 263.0507
ENERGY: 1200000 2.6616 6.0787 2.5349 0.0000 -10579.8764 1327.1941 0.0000 0.0000 1746.6066 -7494.8004 297.4391 -9241.4070 -7486.7918 301.2048 -673.1923 -627.6004 30424.1653 24.8136 91.1373
ENERGY: 1500000 0.5255 6.1652 2.1146 0.0000 -10757.1574 1460.8624 0.0000 0.0000 1732.2724 -7555.2174 294.9980 -9287.4898 -7503.9494 299.8777 32.9409 66.8787 30697.8266 -69.2983 -4.1074
TCL: Running FEP window  20: Lambda1 0.9500000000000003 Lambda2 1.0    [dLambda 0.04999999999999971]
TCL: Setting parameter firsttimestep to 0
TCL: Setting parameter alchLambda to 0.9500000000000003
Info: NONBONDED TABLE R-SQUARED SPACING: 0.0625
Info: NONBONDED TABLE SIZE: 705 POINTS
TCL: Setting parameter alchLambda2 to 1.0
Info: NONBONDED TABLE R-SQUARED SPACING: 0.0625
Info: NONBONDED TABLE SIZE: 705 POINTS
TCL: Running for 1500000 steps
ETITLE: TS BOND ANGLE DIHED IMPRP ELECT VDW BOUNDARY MISC KINETIC TOTAL TEMP POTENTIAL TOTALAVG TEMPAVG PRESSURE GPRESSURE VOLUME PRESSAVG GPRESSAVG
ENERGY: 0 0.5255 6.1652 2.1146 0.0000 -10758.1078 1460.9531 0.0000 0.0000 1731.3879 -7556.9615 294.8474 -9288.3494 -7556.9615 294.8474 -13.6479 76.3946 30697.8266 -13.6479 76.3946
ENERGY: 300000 4.0364 6.1195 3.1368 0.0000 -10711.1935 1476.6004 0.0000 0.0000 1700.9123 -7520.3879 289.6575 -9221.3003 -7492.9322 297.0654 449.3185 518.1020 30355.2451 -67.5935 -3.9424
ENERGY: 600000 2.5007 5.9373 4.4509 0.0000 -10760.4700 1468.6177 0.0000 0.0000 1790.2832 -7488.6802 304.8770 -9278.9633 -7509.7999 297.4744 530.5292 595.3525 29638.5480 261.6376 317.6366
ENERGY: 900000 2.4510 8.0093 1.2537 0.0000 -10654.7611 1404.1247 0.0000 0.0000 1805.9664 -7432.9559 307.5478 -9238.9223 -7489.3462 299.7410 -367.5470 -257.3823 30809.1973 116.3628 171.8145
ENERGY: 1200000 3.8770 4.8809 2.3554 0.0000 -10688.2688 1383.6114 0.0000 0.0000 1755.3875 -7538.1566 298.9344 -9293.5441 -7492.0840 299.9321 -618.4034 -559.5700 30564.3029 57.6465 119.5561
ENERGY: 1500000 4.7492 3.4156 2.4754 0.0000 -10668.1924 1387.1555 0.0000 0.0000 1780.1307 -7490.2660 303.1481 -9270.3967 -7483.0718 300.9604 -529.0185 -454.6888 30286.5558 43.1622 98.5699
TCL: Exiting due to exit command.
