Info: SIMULATION PARAMETERS:
Info: TIMESTEP               2
Info: NUMBER OF STEPS        0
Info: STEPS PER CYCLE        10
Info: PERIODIC CELL BASIS 1  31.4293 0 0
Info: PERIODIC CELL BASIS 2  0 31.2321 0
Info: PERIODIC CELL BASIS 3  0 0 30.2727
Info: PERIODIC CELL CENTER   0 0 0
Info: WRAPPING WATERS AROUND PERIODIC BOUNDARIES ON OUTPUT.
Info: WRAPPING ALL CLUSTERS AROUND PERIODIC BOUNDARIES ON OUTPUT.
Info: FIRST LDB TIMESTEP     50
Info: LAST LDB TIMESTEP     -1
Info: HOM BACKGROUND SCALING 1
Info: PME BACKGROUND SCALING 1
Info: MIN ATOMS PER PATCH    40
Info: EMPTY PATCH LOAD       40 ATOMS
Info: VELOCITY FILE          mobley_5286200_equil.vel
Info: CENTER OF MASS MOVING INITIALLY? NO
Info: DIELECTRIC             1
Info: EXCLUDE                SCALED ONE-FOUR
Info: 1-4 ELECTROSTATICS SCALED BY 0.833333
Info: MODIFIED 1-4 VDW PARAMETERS WILL BE USED
Info: DCD FILENAME           mobley_5286200_prod.dcd
Info: DCD FREQUENCY          100000
Info: DCD FIRST STEP         100000
Info: DCD FILE WILL CONTAIN UNIT CELL DATA
Info: XST FILENAME           mobley_5286200_prod.xst
Info: XST FREQUENCY          100000
Info: NO VELOCITY DCD OUTPUT
Info: NO FORCE DCD OUTPUT
Info: OUTPUT FILENAME        mobley_5286200_prod
Info: BINARY OUTPUT FILES WILL BE USED
Info: RESTART FILENAME       mobley_5286200_prod.restart
Info: RESTART FREQUENCY      100000
Info: BINARY RESTART FILES WILL BE USED
Info: CUTOFF                 9
Info: PAIRLIST DISTANCE      11
Info: PAIRLIST SHRINK RATE   0.01
Info: PAIRLIST GROW RATE     0.01
Info: PAIRLIST TRIGGER       0.3
Info: PAIRLISTS PER CYCLE    2
Info: PAIRLISTS ENABLED
Info: MARGIN                 2
Info: HYDROGEN GROUP CUTOFF  2.5
Info: PATCH DIMENSION        15.5
Info: ENERGY OUTPUT STEPS    100000
Info: ENERGY EVALUATION STEPS    100000
Info: OUTPUT ENERGY PRECISION 4
Info: CROSSTERM ENERGY INCLUDED IN DIHEDRAL
Info: TIMING OUTPUT STEPS    1000000
Info: PRESSURE OUTPUT STEPS  100000
Info: ALCHEMICAL FEP ON
Info: FEP CURRENT LAMBDA VALUE     1
Info: FEP COMPARISON LAMBDA VALUE  0.95
Info: FEP INTRA-ALCHEMICAL NON-BONDED INTERACTIONS WILL BE RETAINED
Info: FEP INTRA-ALCHEMICAL BONDED INTERACTIONS WILL BE RETAINED
Info: FEP VDW SHIFTING COEFFICIENT 5
Info: FEP ELEC. ACTIVE FOR ANNIHILATED PARTICLES BETWEEN LAMBDA = 0 AND LAMBDA = 0.5
Info: FEP ELEC. ACTIVE FOR EXNIHILATED PARTICLES BETWEEN LAMBDA = 0.5 AND LAMBDA = 1
Info: FEP VDW ACTIVE FOR ANNIHILATED PARTICLES BETWEEN LAMBDA = 0 AND LAMBDA = 1
Info: FEP VDW ACTIVE FOR EXNIHILATED PARTICLES BETWEEN LAMBDA = 0 AND LAMBDA = 1
Info: FEP BOND ACTIVE FOR ANNIHILATED PARTICLES BETWEEN LAMBDA = 1 AND LAMBDA = 1
Info: FEP BOND ACTIVE FOR EXNIHILATED PARTICLES BETWEEN LAMBDA = 0 AND LAMBDA = 0
Info: LANGEVIN DYNAMICS ACTIVE
Info: LANGEVIN TEMPERATURE   300
Info: LANGEVIN USING BBK INTEGRATOR
Info: LANGEVIN DAMPING COEFFICIENT IS 1 INVERSE PS
Info: LANGEVIN DYNAMICS APPLIED TO HYDROGENS
Info: LANGEVIN PISTON PRESSURE CONTROL ACTIVE
Info:        TARGET PRESSURE IS 1.01325 BAR
Info:     OSCILLATION PERIOD IS 50 FS
Info:             DECAY TIME IS 25 FS
Info:     PISTON TEMPERATURE IS 300 K
Info:       PRESSURE CONTROL IS GROUP-BASED
Info:    INITIAL STRAIN RATE IS -0.000360865 -0.000360865 -0.000360865
Info:       CELL FLUCTUATION IS ISOTROPIC
Info: PARTICLE MESH EWALD (PME) ACTIVE
Info: PME TOLERANCE               1e-06
Info: PME EWALD COEFFICIENT       0.348832
Info: PME INTERPOLATION ORDER     4
Info: PME GRID DIMENSIONS         32 32 32
Info: PME MAXIMUM GRID SPACING    1
Info: PME CALCULATION WILL BE PERFORMED ON GPU
Info: FULL ELECTROSTATIC EVALUATION FREQUENCY      2
Info: USING VERLET I (r-RESPA) MTS SCHEME.
Info: C1 SPLITTING OF LONG RANGE ELECTROSTATICS
Info: PLACING ATOMS IN PATCHES BY HYDROGEN GROUPS
Info: RIGID BONDS TO HYDROGEN : ALL
Info:         ERROR TOLERANCE : 1e-08
Info:          MAX ITERATIONS : 100
Info: RIGID WATER USING SETTLE ALGORITHM
Info: RANDOM NUMBER SEED     1743906530
Info: USE HYDROGEN BONDS?    NO
Info: Using AMBER format force field!
Info: AMBER PARM FILE        mobley_5286200.prmtop
Info: COORDINATE PDB         mobley_5286200.pdb
Info: Exclusions will be read from PARM file!
Info: SCNB (VDW SCALING)     2
Info: USING ARITHMETIC MEAN TO COMBINE L-J SIGMA PARAMETERS
Info: BINARY COORDINATES     mobley_5286200_equil.coor
Info: SUMMARY OF PARAMETERS:
Info: 6 BONDS
Info: 7 ANGLES
Info:   7 HARMONIC
Info:   0 COSINE-BASED
Info: 8 DIHEDRAL
Info: 0 IMPROPER
Info: 0 CROSSTERM
Info: 0 VDW
Info: 21 VDW_PAIRS
Info: 0 NBTHOLE_PAIRS
Info: To read alchdata from file: mobley_5286200.pdb
Info: To read alchflag data from column: 5
Info: STRUCTURE SUMMARY:
Info: 2903 ATOMS
Info: 2902 BONDS
Info: 24 ANGLES
Info: 33 DIHEDRALS
Info: 0 IMPROPERS
Info: 0 CROSSTERMS
Info: 2953 EXCLUSIONS
Info: 2897 RIGID BONDS
Info: ALCH: 0 ATOMS TO DISAPPEAR IN FINAL STATE
Info: ALCH: 14 ATOMS TO APPEAR IN FINAL STATE
Info: 5812 DEGREES OF FREEDOM
Info: 969 HYDROGEN GROUPS
Info: 3 ATOMS IN LARGEST HYDROGEN GROUP
Info: 969 MIGRATION GROUPS
Info: 3 ATOMS IN LARGEST MIGRATION GROUP
Info: TOTAL MASS = 17476.4 amu
Info: TOTAL CHARGE = 0.00029999 e
Info: MASS DENSITY = 0.976616 g/cm^3
Info: ATOM DENSITY = 0.0976921 atoms/A^3
Info: ADDED 0 IMPLICIT EXCLUSIONS
Info: NONBONDED TABLE R-SQUARED SPACING: 0.0625
Info: NONBONDED TABLE SIZE: 705 POINTS
Info: REDUCING NUMBER OF PATCHES TO IMPROVE LOAD BALANCE
Info: REMOVING COM VELOCITY -0.0851773 0.0463827 -0.130225
Info: Use 3D box decompostion in PME FFT.
Info: Updated CUDA force table with 4096 elements.
Info: Updated CUDA LJ table with 6 x 6 elements.
Info: Found 17 unique exclusion lists needing 40 bytes
TCL: Running for 1500000 steps
ETITLE: TS BOND ANGLE DIHED IMPRP ELECT VDW BOUNDARY MISC KINETIC TOTAL TEMP POTENTIAL TOTALAVG TEMPAVG PRESSURE GPRESSURE VOLUME PRESSAVG GPRESSAVG
ENERGY: 0 0.6360 5.1041 2.7224 0.0000 -10528.3598 1442.6797 0.0000 0.0000 1705.1550 -7372.0626 295.2763 -9077.2176 -7372.0626 295.2763 507.4688 597.9569 29715.8130 507.4688 597.9569
ENERGY: 300000 1.0338 10.1326 2.3971 0.0000 -10415.6089 1317.0719 0.0000 0.0000 1719.2055 -7365.7679 297.7094 -9084.9735 -7340.9125 296.7817 -941.6813 -782.1838 30041.4401 130.6308 246.7209
ENERGY: 600000 0.9815 5.7568 2.1702 0.0000 -10532.2802 1415.2441 0.0000 0.0000 1748.3674 -7359.7602 302.7593 -9108.1276 -7344.0327 299.9661 202.5248 227.0602 29596.7893 266.2587 355.0991
ENERGY: 900000 1.5203 12.7345 1.5155 0.0000 -10505.7096 1431.5854 0.0000 0.0000 1734.3822 -7323.9717 300.3375 -9058.3539 -7341.4504 300.6253 248.0667 319.7294 29957.4427 213.4848 290.2708
ENERGY: 1200000 0.5110 7.2829 1.8126 0.0000 -10613.0173 1495.6269 0.0000 0.0000 1736.6444 -7371.1394 300.7293 -9107.7838 -7349.9904 301.1391 441.2559 559.9910 30180.0048 159.8619 233.6727
ENERGY: 1500000 2.6236 9.6838 2.2534 0.0000 -10561.0495 1506.1413 0.0000 0.0000 1681.5294 -7358.8179 291.1852 -9040.3474 -7352.5360 300.8409 641.0673 780.8006 29856.6831 196.9456 278.4065
TCL: Running FEP window   2: Lambda1 0.95   Lambda2 0.8999999999999999 [dLambda -0.050000000000000044]
TCL: Setting parameter firsttimestep to 0
TCL: Setting parameter alchLambda to 0.95
Info: NONBONDED TABLE R-SQUARED SPACING: 0.0625
Info: NONBONDED TABLE SIZE: 705 POINTS
TCL: Setting parameter alchLambda2 to 0.8999999999999999
Info: NONBONDED TABLE R-SQUARED SPACING: 0.0625
Info: NONBONDED TABLE SIZE: 705 POINTS
TCL: Running for 1500000 steps
ETITLE: TS BOND ANGLE DIHED IMPRP ELECT VDW BOUNDARY MISC KINETIC TOTAL TEMP POTENTIAL TOTALAVG TEMPAVG PRESSURE GPRESSURE VOLUME PRESSAVG GPRESSAVG
ENERGY: 0 2.6236 9.6838 2.2534 0.0000 -10560.7974 1506.6604 0.0000 0.0000 1680.6574 -7358.9188 291.0342 -9039.5762 -7358.9188 291.0342 692.2713 779.5836 29856.6831 692.2713 779.5836
ENERGY: 300000 1.4230 5.7336 3.3318 0.0000 -10522.2812 1371.3726 0.0000 0.0000 1718.8128 -7421.6075 297.6414 -9140.4203 -7393.2253 295.6205 -740.2639 -725.1987 30490.4641 -237.5269 -177.7737
ENERGY: 600000 2.0888 4.6015 1.7980 0.0000 -10554.7453 1460.3086 0.0000 0.0000 1713.8251 -7372.1232 296.7777 -9085.9483 -7354.9066 300.2024 498.9839 483.2521 29959.9742 -71.2150 -34.0209
ENERGY: 900000 4.2396 9.3297 2.5023 0.0000 -10561.8325 1413.7116 0.0000 0.0000 1760.1600 -7371.8894 304.8014 -9132.0494 -7354.4513 300.8157 -132.4250 -72.9033 29662.6550 -71.9675 -30.1849
ENERGY: 1200000 3.0279 4.5711 2.2313 0.0000 -10558.8526 1397.8810 0.0000 0.0000 1709.8893 -7441.2521 296.0962 -9151.1414 -7350.1645 301.6617 -259.5936 -181.9023 29842.9620 -22.4878 23.4214
ENERGY: 1500000 0.4751 9.8853 2.1256 0.0000 -10614.5797 1461.0473 0.0000 0.0000 1696.1223 -7444.9241 293.7122 -9141.0464 -7366.7399 300.5318 293.6800 335.7914 29979.3304 1.6060 45.5554
TCL: Running FEP window   3: Lambda1 0.8999999999999999 Lambda2 0.8499999999999999 [dLambda -0.050000000000000044]
TCL: Setting parameter firsttimestep to 0
TCL: Setting parameter alchLambda to 0.8999999999999999
Info: NONBONDED TABLE R-SQUARED SPACING: 0.0625
Info: NONBONDED TABLE SIZE: 705 POINTS
TCL: Setting parameter alchLambda2 to 0.8499999999999999
Info: NONBONDED TABLE R-SQUARED SPACING: 0.0625
Info: NONBONDED TABLE SIZE: 705 POINTS
TCL: Running for 1500000 steps
ETITLE: TS BOND ANGLE DIHED IMPRP ELECT VDW BOUNDARY MISC KINETIC TOTAL TEMP POTENTIAL TOTALAVG TEMPAVG PRESSURE GPRESSURE VOLUME PRESSAVG GPRESSAVG
ENERGY: 0 0.4751 9.8853 2.1256 0.0000 -10614.1647 1460.9439 0.0000 0.0000 1695.2888 -7445.4460 293.5678 -9140.7348 -7445.4460 293.5678 241.2936 324.2223 29979.3304 241.2936 324.2223
ENERGY: 300000 5.7302 4.1049 3.2182 0.0000 -10506.3767 1413.0579 0.0000 0.0000 1737.7867 -7342.4788 300.9271 -9080.2655 -7354.4664 298.3245 308.7897 371.5524 29458.3733 -121.1637 -37.2208
ENERGY: 600000 1.6233 5.8237 1.8105 0.0000 -10515.0789 1446.0027 0.0000 0.0000 1750.1545 -7309.6642 303.0688 -9059.8188 -7333.2836 299.1819 322.1541 386.7488 30185.1596 -304.1042 -225.3837
ENERGY: 900000 0.8147 6.8955 2.0806 0.0000 -10518.7276 1376.7632 0.0000 0.0000 1711.8520 -7420.3216 296.4360 -9132.1736 -7359.2176 298.0195 -563.2836 -433.0789 30148.5658 -267.5556 -185.5555
ENERGY: 1200000 0.2772 3.1223 1.6883 0.0000 -10510.8943 1441.1831 0.0000 0.0000 1760.8827 -7303.7408 304.9265 -9064.6235 -7355.2374 299.1268 366.6449 525.2832 29845.1661 -94.9964 -9.5086
ENERGY: 1500000 0.6369 5.0968 3.2181 0.0000 -10489.8142 1388.4171 0.0000 0.0000 1752.3245 -7340.1209 303.4445 -9092.4454 -7360.4203 298.4538 -271.2383 -194.3488 30278.9771 -106.0103 -26.8348
TCL: Running FEP window   4: Lambda1 0.8499999999999999 Lambda2 0.7999999999999998 [dLambda -0.050000000000000044]
TCL: Setting parameter firsttimestep to 0
TCL: Setting parameter alchLambda to 0.8499999999999999
Info: NONBONDED TABLE R-SQUARED SPACING: 0.0625
Info: NONBONDED TABLE SIZE: 705 POINTS
TCL: Setting parameter alchLambda2 to 0.7999999999999998
Info: NONBONDED TABLE R-SQUARED SPACING: 0.0625
Info: NONBONDED TABLE SIZE: 705 POINTS
TCL: Running for 1500000 steps
ETITLE: TS BOND ANGLE DIHED IMPRP ELECT VDW BOUNDARY MISC KINETIC TOTAL TEMP POTENTIAL TOTALAVG TEMPAVG PRESSURE GPRESSURE VOLUME PRESSAVG GPRESSAVG
ENERGY: 0 0.6369 5.0968 3.2181 0.0000 -10489.5174 1388.3799 0.0000 0.0000 1751.4822 -7340.7037 303.2987 -9092.1858 -7340.7037 303.2987 -282.7199 -205.8045 30278.9771 -282.7199 -205.8045
ENERGY: 300000 1.1619 2.8635 1.7915 0.0000 -10560.5260 1445.9999 0.0000 0.0000 1729.0765 -7379.6326 299.4188 -9108.7091 -7362.8614 300.9989 272.9653 372.7907 29882.3501 210.5244 291.0589
ENERGY: 600000 0.7149 7.0233 1.7474 0.0000 -10389.9193 1357.2079 0.0000 0.0000 1684.5164 -7338.7094 291.7024 -9023.2258 -7371.1573 298.0459 -353.2783 -269.4894 30264.6622 141.5601 215.0551
ENERGY: 900000 3.0814 6.3687 2.3144 0.0000 -10469.1789 1370.2133 0.0000 0.0000 1747.7017 -7339.4995 302.6440 -9087.2012 -7367.4755 299.0295 -431.9818 -337.6694 30187.8984 47.3125 118.3664
ENERGY: 1200000 1.1040 5.8177 1.4094 0.0000 -10530.9289 1364.8106 0.0000 0.0000 1770.0124 -7387.7749 306.5075 -9157.7873 -7358.7984 300.1078 -569.4276 -550.5167 30170.8187 -112.0191 -48.0014
ENERGY: 1500000 0.9977 6.4771 3.4165 0.0000 -10555.6759 1433.7453 0.0000 0.0000 1755.2621 -7355.7773 303.9532 -9111.0394 -7345.6371 301.5547 191.2087 291.6170 29739.3610 -82.5253 -10.2554
TCL: Running FEP window   5: Lambda1 0.7999999999999998 Lambda2 0.7499999999999998 [dLambda -0.050000000000000044]
TCL: Setting parameter firsttimestep to 0
TCL: Setting parameter alchLambda to 0.7999999999999998
Info: NONBONDED TABLE R-SQUARED SPACING: 0.0625
Info: NONBONDED TABLE SIZE: 705 POINTS
TCL: Setting parameter alchLambda2 to 0.7499999999999998
Info: NONBONDED TABLE R-SQUARED SPACING: 0.0625
Info: NONBONDED TABLE SIZE: 705 POINTS
TCL: Running for 1500000 steps
ETITLE: TS BOND ANGLE DIHED IMPRP ELECT VDW BOUNDARY MISC KINETIC TOTAL TEMP POTENTIAL TOTALAVG TEMPAVG PRESSURE GPRESSURE VOLUME PRESSAVG GPRESSAVG
ENERGY: 0 0.9977 6.4770 3.4165 0.0000 -10555.1298 1433.9164 0.0000 0.0000 1754.3579 -7355.9643 303.7966 -9110.3222 -7355.9643 303.7966 193.8309 284.8951 29739.3610 193.8309 284.8951
ENERGY: 300000 0.7263 7.4119 1.6681 0.0000 -10525.7375 1401.6720 0.0000 0.0000 1667.1807 -7447.0787 288.7004 -9114.2593 -7373.6962 299.2950 -283.7526 -256.2618 29979.9854 -85.2846 -25.5241
ENERGY: 600000 2.7671 3.3965 2.0857 0.0000 -10537.3694 1433.2210 0.0000 0.0000 1752.8790 -7343.0201 303.5405 -9095.8991 -7391.8702 299.8742 29.9928 52.1665 30113.4369 20.0121 74.6538
ENERGY: 900000 0.7848 6.5185 3.7017 0.0000 -10463.4876 1370.9142 0.0000 0.0000 1683.6135 -7397.9551 291.5461 -9081.5686 -7387.5694 298.9194 -344.9822 -309.4511 30164.8704 -63.2446 -19.3206
ENERGY: 1200000 1.6095 3.8554 1.8856 0.0000 -10515.4987 1415.8927 0.0000 0.0000 1744.6476 -7347.6078 302.1152 -9092.2555 -7375.5303 300.0801 133.0829 159.3225 30035.2436 -6.3199 40.7431
ENERGY: 1500000 0.4017 6.7861 1.7213 0.0000 -10612.0426 1394.5242 0.0000 0.0000 1752.2078 -7456.4015 303.4243 -9208.6093 -7380.8866 300.1460 -557.3165 -548.9126 30053.0067 -46.6137 -2.2953
TCL: Running FEP window   6: Lambda1 0.7499999999999998 Lambda2 0.6999999999999997 [dLambda -0.050000000000000044]
TCL: Setting parameter firsttimestep to 0
TCL: Setting parameter alchLambda to 0.7499999999999998
Info: NONBONDED TABLE R-SQUARED SPACING: 0.0625
Info: NONBONDED TABLE SIZE: 705 POINTS
TCL: Setting parameter alchLambda2 to 0.6999999999999997
Info: NONBONDED TABLE R-SQUARED SPACING: 0.0625
Info: NONBONDED TABLE SIZE: 705 POINTS
TCL: Running for 1500000 steps
ETITLE: TS BOND ANGLE DIHED IMPRP ELECT VDW BOUNDARY MISC KINETIC TOTAL TEMP POTENTIAL TOTALAVG TEMPAVG PRESSURE GPRESSURE VOLUME PRESSAVG GPRESSAVG
ENERGY: 0 0.4017 6.7861 1.7213 0.0000 -10611.6319 1394.5697 0.0000 0.0000 1751.3624 -7456.7907 303.2779 -9208.1530 -7456.7907 303.2779 -625.2401 -560.5346 30053.0067 -625.2401 -560.5346
ENERGY: 300000 2.2521 7.2461 1.9340 0.0000 -10536.1100 1424.4288 0.0000 0.0000 1736.0510 -7364.1980 300.6265 -9100.2490 -7357.2279 302.6002 236.5264 321.0125 29628.4714 -143.7629 -73.7405
ENERGY: 600000 0.5489 6.9010 1.5551 0.0000 -10510.1377 1489.8039 0.0000 0.0000 1789.4138 -7221.9151 309.8672 -9011.3289 -7357.7799 302.9236 914.3087 928.1018 29978.8832 216.6261 286.6440
ENERGY: 900000 1.4153 6.8028 2.3856 0.0000 -10688.2828 1515.5855 0.0000 0.0000 1762.4632 -7399.6304 305.2002 -9162.0937 -7355.9939 302.2355 941.9566 1006.8312 29349.5890 280.9675 336.8182
ENERGY: 1200000 2.3213 7.3987 2.1953 0.0000 -10460.8666 1329.6638 0.0000 0.0000 1712.3470 -7406.9405 296.5217 -9119.2874 -7358.3413 302.0510 -820.0632 -759.9837 30121.2394 210.3558 270.5383
ENERGY: 1500000 0.3623 9.0882 1.8907 0.0000 -10465.2502 1417.2140 0.0000 0.0000 1751.6685 -7285.0266 303.3309 -9036.6950 -7350.0049 302.7893 314.0515 367.6303 29802.4503 226.5706 284.5655
TCL: Running FEP window   7: Lambda1 0.6999999999999997 Lambda2 0.6499999999999997 [dLambda -0.050000000000000044]
TCL: Setting parameter firsttimestep to 0
TCL: Setting parameter alchLambda to 0.6999999999999997
Info: NONBONDED TABLE R-SQUARED SPACING: 0.0625
Info: NONBONDED TABLE SIZE: 705 POINTS
TCL: Setting parameter alchLambda2 to 0.6499999999999997
Info: NONBONDED TABLE R-SQUARED SPACING: 0.0625
Info: NONBONDED TABLE SIZE: 705 POINTS
TCL: Running for 1500000 steps
ETITLE: TS BOND ANGLE DIHED IMPRP ELECT VDW BOUNDARY MISC KINETIC TOTAL TEMP POTENTIAL TOTALAVG TEMPAVG PRESSURE GPRESSURE VOLUME PRESSAVG GPRESSAVG
ENERGY: 0 0.3623 9.0882 1.8907 0.0000 -10465.1210 1416.4752 0.0000 0.0000 1750.8126 -7286.4920 303.1827 -9037.3046 -7286.4920 303.1827 261.7186 353.2622 29802.4503 261.7186 353.2622
ENERGY: 300000 0.9698 6.8889 2.9026 0.0000 -10527.0210 1395.0376 0.0000 0.0000 1810.3623 -7310.8597 313.4948 -9121.2220 -7341.5451 304.0310 68.5268 141.3348 29522.9546 99.2596 179.5176
ENERGY: 600000 0.8456 5.0986 2.5199 0.0000 -10389.2127 1364.0516 0.0000 0.0000 1754.4508 -7262.2462 303.8127 -9016.6970 -7340.1830 302.9009 -209.7622 -123.8170 29914.3991 -42.5059 27.3405
ENERGY: 900000 0.5181 6.3893 1.9407 0.0000 -10371.5811 1240.8180 0.0000 0.0000 1687.5868 -7434.3283 292.2341 -9121.9150 -7352.5646 301.2171 -1771.2280 -1749.2407 30842.8722 -263.0816 -195.9584
ENERGY: 1200000 2.1196 7.0550 1.5427 0.0000 -10560.7149 1501.5487 0.0000 0.0000 1779.8125 -7268.6365 308.2045 -9048.4490 -7335.0733 301.9233 900.7824 1009.0007 29922.1923 -41.2604 26.9497
ENERGY: 1500000 1.5613 7.5033 1.8122 0.0000 -10517.9117 1376.9328 0.0000 0.0000 1655.5948 -7474.5073 286.6942 -9130.1021 -7346.1753 300.9172 -652.1141 -633.3627 30266.8625 -49.3530 16.7787
TCL: Running FEP window   8: Lambda1 0.6499999999999997 Lambda2 0.5999999999999996 [dLambda -0.050000000000000044]
TCL: Setting parameter firsttimestep to 0
TCL: Setting parameter alchLambda to 0.6499999999999997
Info: NONBONDED TABLE R-SQUARED SPACING: 0.0625
Info: NONBONDED TABLE SIZE: 705 POINTS
TCL: Setting parameter alchLambda2 to 0.5999999999999996
Info: NONBONDED TABLE R-SQUARED SPACING: 0.0625
Info: NONBONDED TABLE SIZE: 705 POINTS
TCL: Running for 1500000 steps
ETITLE: TS BOND ANGLE DIHED IMPRP ELECT VDW BOUNDARY MISC KINETIC TOTAL TEMP POTENTIAL TOTALAVG TEMPAVG PRESSURE GPRESSURE VOLUME PRESSAVG GPRESSAVG
ENERGY: 0 1.5613 7.5033 1.8122 0.0000 -10517.6267 1377.4943 0.0000 0.0000 1654.7372 -7474.5185 286.5456 -9129.2556 -7474.5185 286.5456 -712.4856 -634.8628 30266.8625 -712.4856 -634.8628
ENERGY: 300000 2.5666 4.7150 1.7092 0.0000 -10596.2702 1483.5274 0.0000 0.0000 1701.2690 -7402.4830 294.6034 -9103.7520 -7420.6179 297.9295 521.1910 614.2904 29576.8001 -57.4384 23.9454
ENERGY: 600000 1.0641 3.7735 2.7060 0.0000 -10608.1391 1474.4515 0.0000 0.0000 1724.6632 -7401.4807 298.6545 -9126.1440 -7402.4692 297.8616 372.8302 406.1642 29983.9936 199.3120 271.9191
ENERGY: 900000 2.2945 4.8928 1.3608 0.0000 -10404.6842 1374.0769 0.0000 0.0000 1744.0127 -7278.0465 302.0052 -9022.0592 -7394.2166 299.6319 -78.9292 6.4853 29926.6619 153.7142 222.6569
ENERGY: 1200000 0.8626 5.6172 3.7009 0.0000 -10496.9633 1375.6962 0.0000 0.0000 1774.0021 -7337.0844 307.1984 -9111.0864 -7369.7529 301.0757 -235.9363 -160.9997 29874.4152 120.1056 190.0457
ENERGY: 1500000 2.4369 7.0697 1.7045 0.0000 -10525.4327 1436.3034 0.0000 0.0000 1717.8595 -7360.0587 297.4763 -9077.9182 -7357.9454 301.2180 136.3702 180.0089 29935.1777 138.7960 201.8118
TCL: Running FEP window   9: Lambda1 0.5999999999999996 Lambda2 0.5499999999999996 [dLambda -0.050000000000000044]
TCL: Setting parameter firsttimestep to 0
TCL: Setting parameter alchLambda to 0.5999999999999996
Info: NONBONDED TABLE R-SQUARED SPACING: 0.0625
Info: NONBONDED TABLE SIZE: 705 POINTS
TCL: Setting parameter alchLambda2 to 0.5499999999999996
Info: NONBONDED TABLE R-SQUARED SPACING: 0.0625
Info: NONBONDED TABLE SIZE: 705 POINTS
TCL: Running for 1500000 steps
ETITLE: TS BOND ANGLE DIHED IMPRP ELECT VDW BOUNDARY MISC KINETIC TOTAL TEMP POTENTIAL TOTALAVG TEMPAVG PRESSURE GPRESSURE VOLUME PRESSAVG GPRESSAVG
ENERGY: 0 2.4369 7.0697 1.7045 0.0000 -10525.1417 1436.2042 0.0000 0.0000 1717.0068 -7360.7196 297.3287 -9077.7264 -7360.7196 297.3287 76.2918 171.5599 29935.1777 76.2918 171.5599
ENERGY: 300000 0.5852 7.5810 1.5978 0.0000 -10404.1225 1411.2761 0.0000 0.0000 1710.2664 -7272.8160 296.1615 -8983.0824 -7345.9939 296.7757 403.9102 409.1889 29847.3951 80.8999 132.9041
ENERGY: 600000 0.7626 2.8167 1.9957 0.0000 -10541.4553 1395.0428 0.0000 0.0000 1715.3852 -7425.4524 297.0479 -9140.8376 -7362.7955 297.6072 -266.8324 -180.9211 29838.4631 69.7245 123.7059
ENERGY: 900000 1.1204 6.2773 1.5775 0.0000 -10371.6937 1329.6401 0.0000 0.0000 1770.6524 -7262.4261 306.6183 -9033.0785 -7359.1079 299.5744 -628.6407 -463.4222 29898.0434 -108.8270 -47.2480
ENERGY: 1200000 0.5233 6.5987 2.1059 0.0000 -10528.7189 1418.2058 0.0000 0.0000 1726.5175 -7374.7676 298.9756 -9101.2851 -7361.0749 300.3820 277.1963 310.0795 29522.0879 -33.2387 23.6643
ENERGY: 1500000 1.1744 6.4765 3.2732 0.0000 -10557.1964 1440.8455 0.0000 0.0000 1680.1260 -7425.3007 290.9421 -9105.4267 -7357.9498 300.3849 -12.8422 50.6352 30090.1032 -43.5952 13.1240
TCL: Running FEP window  10: Lambda1 0.5499999999999996 Lambda2 0.4999999999999996 [dLambda -0.04999999999999999]
TCL: Setting parameter firsttimestep to 0
TCL: Setting parameter alchLambda to 0.5499999999999996
Info: NONBONDED TABLE R-SQUARED SPACING: 0.0625
Info: NONBONDED TABLE SIZE: 705 POINTS
TCL: Setting parameter alchLambda2 to 0.4999999999999996
Info: NONBONDED TABLE R-SQUARED SPACING: 0.0625
Info: NONBONDED TABLE SIZE: 705 POINTS
TCL: Running for 1500000 steps
ETITLE: TS BOND ANGLE DIHED IMPRP ELECT VDW BOUNDARY MISC KINETIC TOTAL TEMP POTENTIAL TOTALAVG TEMPAVG PRESSURE GPRESSURE VOLUME PRESSAVG GPRESSAVG
ENERGY: 0 1.1744 6.4765 3.2732 0.0000 -10557.1815 1441.2404 0.0000 0.0000 1679.2673 -7425.7497 290.7934 -9105.0171 -7425.7497 290.7934 -38.5045 45.7138 30090.1032 -38.5045 45.7138
ENERGY: 300000 1.1780 4.7948 2.2910 0.0000 -10483.7346 1381.7236 0.0000 0.0000 1702.7181 -7391.0291 294.8543 -9093.7472 -7341.0136 296.4816 -99.9177 -32.8484 29652.8998 96.2545 164.2751
ENERGY: 600000 0.9202 5.6152 2.4356 0.0000 -10525.4586 1408.1835 0.0000 0.0000 1766.9049 -7341.3991 305.9694 -9108.3041 -7346.8234 297.0662 -214.9667 -173.2759 30046.6260 -136.8953 -61.2039
ENERGY: 900000 4.4925 7.5848 2.1332 0.0000 -10587.0288 1477.4479 0.0000 0.0000 1771.0804 -7324.2900 306.6924 -9095.3703 -7336.5826 299.2983 520.7566 516.9357 30025.5665 60.7611 118.9683
ENERGY: 1200000 1.2576 3.9837 2.6370 0.0000 -10673.3384 1610.5864 0.0000 0.0000 1708.1796 -7346.6940 295.8001 -9054.8736 -7336.9686 299.5686 1659.3420 1720.8204 29785.9182 126.4562 190.1957
ENERGY: 1500000 2.1871 11.2616 2.7288 0.0000 -10718.3823 1503.3358 0.0000 0.0000 1757.7474 -7441.1215 304.3836 -9198.8690 -7349.7236 299.8301 485.1392 519.2888 29561.4622 157.5801 217.0818
TCL: Running FEP window  11: Lambda1 0.4999999999999996 Lambda2 0.4499999999999996 [dLambda -0.04999999999999999]
TCL: Setting parameter firsttimestep to 0
TCL: Setting parameter alchLambda to 0.4999999999999996
Info: NONBONDED TABLE R-SQUARED SPACING: 0.0625
Info: NONBONDED TABLE SIZE: 705 POINTS
TCL: Setting parameter alchLambda2 to 0.4499999999999996
Info: NONBONDED TABLE R-SQUARED SPACING: 0.0625
Info: NONBONDED TABLE SIZE: 705 POINTS
TCL: Running for 1500000 steps
ETITLE: TS BOND ANGLE DIHED IMPRP ELECT VDW BOUNDARY MISC KINETIC TOTAL TEMP POTENTIAL TOTALAVG TEMPAVG PRESSURE GPRESSURE VOLUME PRESSAVG GPRESSAVG
ENERGY: 0 2.1871 11.2616 2.7288 0.0000 -10718.1473 1503.8697 0.0000 0.0000 1756.8994 -7441.2008 304.2367 -9198.1002 -7441.2008 304.2367 429.5025 520.1463 29561.4622 429.5025 520.1463
ENERGY: 300000 1.6571 9.1965 1.4350 0.0000 -10505.4943 1393.4020 0.0000 0.0000 1736.1541 -7363.6495 300.6444 -9099.8036 -7385.6335 298.4392 -496.9944 -417.6240 30252.9681 -139.7606 -65.9780
ENERGY: 600000 0.3084 8.6216 2.2537 0.0000 -10606.5100 1435.9879 0.0000 0.0000 1774.3772 -7384.9614 307.2633 -9159.3385 -7387.9997 298.6822 19.3462 58.2935 29956.7616 -71.2003 -2.9346
ENERGY: 900000 0.5108 2.9857 1.8662 0.0000 -10406.9483 1372.5780 0.0000 0.0000 1717.2353 -7311.7722 297.3682 -9029.0075 -7387.6060 297.3452 -189.8573 -157.9545 30165.2746 -103.0375 -32.6798
ENERGY: 1200000 0.9222 3.6635 2.1620 0.0000 -10581.6912 1428.4591 0.0000 0.0000 1708.7811 -7437.7032 295.9043 -9146.4843 -7384.9323 296.9966 261.8042 339.3859 29327.9763 -109.0221 -42.9962
ENERGY: 1500000 0.9704 6.9357 2.5510 0.0000 -10568.4169 1379.9597 0.0000 0.0000 1769.3416 -7408.6585 306.3913 -9178.0001 -7377.9743 298.2693 -473.6854 -377.0868 29786.2103 -126.8382 -63.8806
TCL: Running FEP window  12: Lambda1 0.4499999999999996 Lambda2 0.39999999999999963 [dLambda -0.04999999999999999]
TCL: Setting parameter firsttimestep to 0
TCL: Setting parameter alchLambda to 0.4499999999999996
Info: NONBONDED TABLE R-SQUARED SPACING: 0.0625
Info: NONBONDED TABLE SIZE: 705 POINTS
TCL: Setting parameter alchLambda2 to 0.39999999999999963
Info: NONBONDED TABLE R-SQUARED SPACING: 0.0625
Info: NONBONDED TABLE SIZE: 705 POINTS
TCL: Running for 1500000 steps
ETITLE: TS BOND ANGLE DIHED IMPRP ELECT VDW BOUNDARY MISC KINETIC TOTAL TEMP POTENTIAL TOTALAVG TEMPAVG PRESSURE GPRESSURE VOLUME PRESSAVG GPRESSAVG
ENERGY: 0 0.9704 6.9357 2.5510 0.0000 -10568.4157 1379.7104 0.0000 0.0000 1768.4556 -7409.7926 306.2379 -9178.2483 -7409.7926 306.2379 -466.3060 -385.1331 29786.2103 -466.3060 -385.1331
ENERGY: 300000 2.2932 6.5297 1.6251 0.0000 -10562.3685 1435.7290 0.0000 0.0000 1760.2524 -7355.9391 304.8174 -9116.1915 -7402.6319 300.7539 -84.7913 57.8022 29702.4448 -15.0126 94.3639
ENERGY: 600000 2.1047 3.8314 2.4549 0.0000 -10562.1429 1431.0544 0.0000 0.0000 1837.8482 -7284.8493 318.2544 -9122.6975 -7354.3250 303.2709 6.1459 70.3760 29853.7787 -27.1260 59.4751
ENERGY: 900000 3.8961 5.5483 1.4200 0.0000 -10609.7813 1483.9028 0.0000 0.0000 1745.1493 -7369.8648 302.2020 -9115.0141 -7370.2159 301.6481 699.8819 745.5555 29262.2129 -90.4498 -10.3314
ENERGY: 1200000 0.8910 4.7642 2.0379 0.0000 -10675.1778 1532.0944 0.0000 0.0000 1740.2956 -7395.0948 301.3615 -9135.3903 -7373.0949 301.6861 706.3948 815.2000 29856.6128 -33.2109 44.2119
ENERGY: 1500000 2.0440 6.1688 2.0396 0.0000 -10548.4363 1488.6539 0.0000 0.0000 1786.9956 -7262.5345 309.4484 -9049.5301 -7359.8303 302.1048 429.5823 528.4937 30476.3042 37.7586 111.8945
TCL: Running FEP window  13: Lambda1 0.39999999999999963 Lambda2 0.34999999999999964 [dLambda -0.04999999999999999]
TCL: Setting parameter firsttimestep to 0
TCL: Setting parameter alchLambda to 0.39999999999999963
Info: NONBONDED TABLE R-SQUARED SPACING: 0.0625
Info: NONBONDED TABLE SIZE: 705 POINTS
TCL: Setting parameter alchLambda2 to 0.34999999999999964
Info: NONBONDED TABLE R-SQUARED SPACING: 0.0625
Info: NONBONDED TABLE SIZE: 705 POINTS
TCL: Running for 1500000 steps
ETITLE: TS BOND ANGLE DIHED IMPRP ELECT VDW BOUNDARY MISC KINETIC TOTAL TEMP POTENTIAL TOTALAVG TEMPAVG PRESSURE GPRESSURE VOLUME PRESSAVG GPRESSAVG
ENERGY: 0 2.0440 6.1688 2.0396 0.0000 -10548.4371 1489.2508 0.0000 0.0000 1786.1382 -7262.7958 309.2999 -9048.9340 -7262.7958 309.2999 452.2662 529.8337 30476.3042 452.2662 529.8337
ENERGY: 300000 0.3992 8.1865 2.2408 0.0000 -10634.8784 1478.2824 0.0000 0.0000 1739.2628 -7406.5068 301.1827 -9145.7696 -7370.3823 301.0102 201.5472 300.1903 29760.8728 15.9659 83.4953
ENERGY: 600000 0.7131 11.8097 1.4877 0.0000 -10429.6000 1366.6350 0.0000 0.0000 1722.8647 -7326.0898 298.3431 -9048.9546 -7384.4894 298.6071 -318.7315 -227.9000 29883.7669 -104.1401 -29.2137
ENERGY: 900000 2.2824 4.9218 3.6881 0.0000 -10441.5810 1397.7972 0.0000 0.0000 1767.9979 -7264.8936 306.1586 -9032.8915 -7372.2639 300.0607 -25.7039 8.9647 29947.7456 -59.0102 9.6597
ENERGY: 1200000 1.4912 7.0434 2.8492 0.0000 -10565.6529 1441.6630 0.0000 0.0000 1715.6810 -7396.9251 297.0991 -9112.6062 -7363.8319 300.4568 -22.9351 58.0665 29957.8061 -36.3463 37.9500
ENERGY: 1500000 2.7941 5.5959 2.5032 0.0000 -10491.0365 1412.9868 0.0000 0.0000 1727.5183 -7339.6382 299.1489 -9067.1565 -7363.0313 299.6149 159.5562 287.8311 29619.8906 -5.2239 67.0045
TCL: Running FEP window  14: Lambda1 0.34999999999999964 Lambda2 0.29999999999999966 [dLambda -0.04999999999999999]
TCL: Setting parameter firsttimestep to 0
TCL: Setting parameter alchLambda to 0.34999999999999964
Info: NONBONDED TABLE R-SQUARED SPACING: 0.0625
Info: NONBONDED TABLE SIZE: 705 POINTS
TCL: Setting parameter alchLambda2 to 0.29999999999999966
Info: NONBONDED TABLE R-SQUARED SPACING: 0.0625
Info: NONBONDED TABLE SIZE: 705 POINTS
TCL: Running for 1500000 steps
ETITLE: TS BOND ANGLE DIHED IMPRP ELECT VDW BOUNDARY MISC KINETIC TOTAL TEMP POTENTIAL TOTALAVG TEMPAVG PRESSURE GPRESSURE VOLUME PRESSAVG GPRESSAVG
ENERGY: 0 2.7941 5.5959 2.5032 0.0000 -10491.0378 1412.7758 0.0000 0.0000 1726.6588 -7340.7101 299.0001 -9067.3689 -7340.7101 299.0001 196.6518 280.2011 29619.8906 196.6518 280.2011
ENERGY: 300000 2.2912 7.6486 2.8155 0.0000 -10685.4323 1554.8225 0.0000 0.0000 1741.5029 -7376.3516 301.5706 -9117.8545 -7362.4056 301.1208 1201.4395 1259.9576 29575.2622 97.5001 139.6879
ENERGY: 600000 1.4553 4.0659 2.6471 0.0000 -10514.8255 1454.9017 0.0000 0.0000 1793.2920 -7258.4634 310.5387 -9051.7554 -7356.5328 300.4751 703.4465 788.2637 29237.3484 81.6794 126.3687
ENERGY: 900000 1.5885 4.2484 4.0537 0.0000 -10464.8816 1318.5837 0.0000 0.0000 1755.9109 -7380.4963 304.0656 -9136.4073 -7370.8388 300.3740 -1073.4281 -1010.2099 30093.9237 -79.5911 -26.6676
ENERGY: 1200000 0.5453 3.3814 2.2859 0.0000 -10597.0107 1495.9875 0.0000 0.0000 1709.3138 -7385.4968 295.9965 -9094.8106 -7372.3400 300.1544 537.5348 548.0243 29753.9506 47.3047 96.3034
ENERGY: 1500000 0.9351 5.7708 3.2826 0.0000 -10589.9530 1481.0680 0.0000 0.0000 1738.7774 -7360.1192 301.0986 -9098.8965 -7369.1133 300.3804 359.0346 386.5520 29847.2257 39.8777 89.7140
TCL: Running FEP window  15: Lambda1 0.29999999999999966 Lambda2 0.24999999999999967 [dLambda -0.04999999999999999]
TCL: Setting parameter firsttimestep to 0
TCL: Setting parameter alchLambda to 0.29999999999999966
Info: NONBONDED TABLE R-SQUARED SPACING: 0.0625
Info: NONBONDED TABLE SIZE: 705 POINTS
TCL: Setting parameter alchLambda2 to 0.24999999999999967
Info: NONBONDED TABLE R-SQUARED SPACING: 0.0625
Info: NONBONDED TABLE SIZE: 705 POINTS
TCL: Running for 1500000 steps
ETITLE: TS BOND ANGLE DIHED IMPRP ELECT VDW BOUNDARY MISC KINETIC TOTAL TEMP POTENTIAL TOTALAVG TEMPAVG PRESSURE GPRESSURE VOLUME PRESSAVG GPRESSAVG
ENERGY: 0 0.9351 5.7708 3.2826 0.0000 -10589.9526 1481.4300 0.0000 0.0000 1737.9356 -7360.5984 300.9529 -9098.5341 -7360.5984 300.9529 298.7580 385.4731 29847.2257 298.7580 385.4731
ENERGY: 300000 1.2655 3.8851 2.0452 0.0000 -10403.1588 1344.1571 0.0000 0.0000 1721.1286 -7330.6772 298.0424 -9051.8058 -7365.7410 300.2430 -719.5088 -578.3840 30142.4986 -348.5473 -274.4709
ENERGY: 600000 2.0619 9.1553 2.3344 0.0000 -10446.0015 1403.0540 0.0000 0.0000 1650.3464 -7379.0496 285.7853 -9029.3960 -7377.5639 297.5893 -41.5419 41.7389 29776.3418 -271.1342 -199.6712
ENERGY: 900000 2.3048 6.1794 2.6794 0.0000 -10445.3312 1422.0729 0.0000 0.0000 1719.1977 -7292.8970 297.7081 -9012.0946 -7346.9412 298.1701 142.8450 221.2453 29851.3475 -319.9932 -253.6623
ENERGY: 1200000 1.6310 5.0174 1.8513 0.0000 -10522.5366 1467.4431 0.0000 0.0000 1676.7686 -7369.8251 290.3607 -9046.5937 -7354.3781 297.4764 327.5201 459.4031 29787.9775 -149.6623 -72.3764
ENERGY: 1500000 1.2447 4.6888 1.4337 0.0000 -10423.7592 1383.6428 0.0000 0.0000 1750.6077 -7282.1415 303.1472 -9032.7492 -7353.9393 297.3910 -36.9113 16.1640 29652.6888 -62.9292 14.5895
TCL: Running FEP window  16: Lambda1 0.24999999999999967 Lambda2 0.19999999999999968 [dLambda -0.04999999999999999]
TCL: Setting parameter firsttimestep to 0
TCL: Setting parameter alchLambda to 0.24999999999999967
Info: NONBONDED TABLE R-SQUARED SPACING: 0.0625
Info: NONBONDED TABLE SIZE: 705 POINTS
TCL: Setting parameter alchLambda2 to 0.19999999999999968
Info: NONBONDED TABLE R-SQUARED SPACING: 0.0625
Info: NONBONDED TABLE SIZE: 705 POINTS
TCL: Running for 1500000 steps
ETITLE: TS BOND ANGLE DIHED IMPRP ELECT VDW BOUNDARY MISC KINETIC TOTAL TEMP POTENTIAL TOTALAVG TEMPAVG PRESSURE GPRESSURE VOLUME PRESSAVG GPRESSAVG
ENERGY: 0 1.2447 4.6888 1.4337 0.0000 -10423.7574 1383.5145 0.0000 0.0000 1749.7672 -7283.1084 303.0017 -9032.8756 -7283.1084 303.0017 -82.5873 12.3162 29652.6888 -82.5873 12.3162
ENERGY: 300000 2.5333 6.0884 2.1308 0.0000 -10471.5853 1355.5945 0.0000 0.0000 1723.7769 -7381.4615 298.5010 -9105.2384 -7375.7819 300.6006 -716.9190 -646.6303 30026.3146 261.8788 323.8582
ENERGY: 600000 2.4402 6.3043 2.6638 0.0000 -10556.8843 1462.6640 0.0000 0.0000 1732.1449 -7350.6671 299.9501 -9082.8120 -7359.3358 301.8487 533.8941 566.7436 29666.7501 168.5218 226.6022
ENERGY: 900000 0.9132 4.9415 3.7577 0.0000 -10573.1444 1348.1526 0.0000 0.0000 1771.2451 -7444.1343 306.7209 -9215.3794 -7367.8553 301.5963 -838.1389 -776.8725 29514.2596 189.9208 245.7241
ENERGY: 1200000 2.9329 5.8241 4.4261 0.0000 -10526.5880 1431.7950 0.0000 0.0000 1712.5743 -7369.0356 296.5611 -9081.6099 -7369.1908 300.2846 -185.7510 -28.8219 29843.9815 26.9457 95.3659
ENERGY: 1500000 2.6602 7.2734 3.0340 0.0000 -10549.2665 1434.2814 0.0000 0.0000 1702.1073 -7399.9102 294.7486 -9102.0175 -7367.5199 300.6936 -240.4277 -199.7176 30260.7458 115.1594 184.2640
TCL: Running FEP window  17: Lambda1 0.19999999999999968 Lambda2 0.1499999999999997 [dLambda -0.04999999999999999]
TCL: Setting parameter firsttimestep to 0
TCL: Setting parameter alchLambda to 0.19999999999999968
Info: NONBONDED TABLE R-SQUARED SPACING: 0.0625
Info: NONBONDED TABLE SIZE: 705 POINTS
TCL: Setting parameter alchLambda2 to 0.1499999999999997
Info: NONBONDED TABLE R-SQUARED SPACING: 0.0625
Info: NONBONDED TABLE SIZE: 705 POINTS
TCL: Running for 1500000 steps
ETITLE: TS BOND ANGLE DIHED IMPRP ELECT VDW BOUNDARY MISC KINETIC TOTAL TEMP POTENTIAL TOTALAVG TEMPAVG PRESSURE GPRESSURE VOLUME PRESSAVG GPRESSAVG
ENERGY: 0 2.6602 7.2734 3.0340 0.0000 -10549.2662 1434.1417 0.0000 0.0000 1701.2066 -7400.9503 294.5926 -9102.1569 -7400.9503 294.5926 -302.4038 -202.6184 30260.7458 -302.4038 -202.6184
ENERGY: 300000 0.6455 8.6177 2.0005 0.0000 -10507.1497 1439.3894 0.0000 0.0000 1748.9673 -7307.5292 302.8632 -9056.4965 -7307.0130 302.8797 20.6304 126.7575 30306.4832 -85.6830 -11.5633
ENERGY: 600000 1.6171 6.1295 2.7528 0.0000 -10484.6877 1399.4335 0.0000 0.0000 1732.9953 -7341.7595 300.0974 -9074.7548 -7339.5984 300.5591 -112.9536 3.1419 29863.5187 -220.2110 -136.4746
ENERGY: 900000 0.4639 7.4968 1.9184 0.0000 -10493.9561 1374.9788 0.0000 0.0000 1791.2330 -7317.8651 310.1822 -9109.0981 -7350.4350 302.0953 -531.7088 -496.1631 30021.6203 -181.2818 -104.9329
ENERGY: 1200000 1.2101 6.5714 5.0041 0.0000 -10524.4590 1395.3511 0.0000 0.0000 1768.7208 -7347.6015 306.2838 -9116.3223 -7351.9434 301.9669 -243.1851 -206.4753 29743.8268 -191.5687 -118.4117
ENERGY: 1500000 0.4159 6.8435 1.5796 0.0000 -10477.2380 1449.7425 0.0000 0.0000 1754.4548 -7264.2017 303.8134 -9018.6565 -7343.6364 302.2574 336.2827 373.3759 30260.6489 -135.0983 -59.4025
TCL: Running FEP window  18: Lambda1 0.1499999999999997 Lambda2 0.09999999999999969 [dLambda -0.05 ]
TCL: Setting parameter firsttimestep to 0
TCL: Setting parameter alchLambda to 0.1499999999999997
Info: NONBONDED TABLE R-SQUARED SPACING: 0.0625
Info: NONBONDED TABLE SIZE: 705 POINTS
TCL: Setting parameter alchLambda2 to 0.09999999999999969
Info: NONBONDED TABLE R-SQUARED SPACING: 0.0625
Info: NONBONDED TABLE SIZE: 705 POINTS
TCL: Running for 1500000 steps
ETITLE: TS BOND ANGLE DIHED IMPRP ELECT VDW BOUNDARY MISC KINETIC TOTAL TEMP POTENTIAL TOTALAVG TEMPAVG PRESSURE GPRESSURE VOLUME PRESSAVG GPRESSAVG
ENERGY: 0 0.4159 6.8435 1.5796 0.0000 -10477.2388 1449.5918 0.0000 0.0000 1753.6175 -7265.1905 303.6684 -9018.8080 -7265.1905 303.6684 274.7353 370.2927 30260.6489 274.7353 370.2927
ENERGY: 300000 1.7109 5.8970 2.0586 0.0000 -10489.4915 1419.2507 0.0000 0.0000 1673.2260 -7387.3483 289.7473 -9060.5743 -7315.1353 298.8911 8.8864 15.5629 30212.3096 -31.9991 32.6096
ENERGY: 600000 1.7084 7.7093 1.2188 0.0000 -10578.7267 1387.1255 0.0000 0.0000 1710.8468 -7470.1179 296.2620 -9180.9647 -7357.4033 298.4396 -504.3015 -405.5213 29532.6517 -48.9478 0.7373
ENERGY: 900000 0.7526 8.8268 1.6635 0.0000 -10314.0114 1281.1768 0.0000 0.0000 1740.9402 -7280.6516 301.4731 -9021.5918 -7357.2892 298.7668 -1057.9941 -1020.2360 30248.9376 -39.0926 16.6108
ENERGY: 1200000 1.2363 8.5908 1.4174 0.0000 -10540.2114 1386.7978 0.0000 0.0000 1747.3995 -7394.7696 302.5917 -9142.1691 -7365.4253 299.4308 -471.7347 -409.1442 29748.0798 22.9198 72.9555
ENERGY: 1500000 1.4518 4.1872 1.4068 0.0000 -10514.4539 1443.1548 0.0000 0.0000 1775.3105 -7288.9428 307.4249 -9064.2533 -7359.8742 300.4143 159.9776 266.6298 30194.9808 -29.7928 26.9013
TCL: Running FEP window  19: Lambda1 0.09999999999999969 Lambda2 0.049999999999999684 [dLambda -0.05 ]
TCL: Setting parameter firsttimestep to 0
TCL: Setting parameter alchLambda to 0.09999999999999969
Info: NONBONDED TABLE R-SQUARED SPACING: 0.0625
Info: NONBONDED TABLE SIZE: 705 POINTS
TCL: Setting parameter alchLambda2 to 0.049999999999999684
Info: NONBONDED TABLE R-SQUARED SPACING: 0.0625
Info: NONBONDED TABLE SIZE: 705 POINTS
TCL: Running for 1500000 steps
ETITLE: TS BOND ANGLE DIHED IMPRP ELECT VDW BOUNDARY MISC KINETIC TOTAL TEMP POTENTIAL TOTALAVG TEMPAVG PRESSURE GPRESSURE VOLUME PRESSAVG GPRESSAVG
ENERGY: 0 1.4518 4.1872 1.4068 0.0000 -10514.4540 1443.0463 0.0000 0.0000 1774.4171 -7289.9448 307.2702 -9064.3619 -7289.9448 307.2702 180.9497 265.3174 30194.9808 180.9497 265.3174
ENERGY: 300000 1.6065 6.1318 2.1057 0.0000 -10527.6747 1393.4821 0.0000 0.0000 1692.4697 -7431.8789 293.0797 -9124.3486 -7355.7716 297.7764 -93.0975 -55.0633 29600.8362 79.3628 153.6558
ENERGY: 600000 2.2859 10.7783 1.9576 0.0000 -10626.4841 1480.0772 0.0000 0.0000 1700.3124 -7431.0727 294.4378 -9131.3851 -7371.8817 295.7854 576.5004 631.4832 29167.8395 216.6133 284.5347
ENERGY: 900000 2.0668 7.6688 1.5015 0.0000 -10542.8347 1435.7261 0.0000 0.0000 1712.5591 -7383.3125 296.5585 -9095.8716 -7371.5757 296.7002 76.7439 145.4994 29747.4688 159.5253 223.5565
ENERGY: 1200000 0.9198 5.8847 2.1544 0.0000 -10486.5053 1442.0390 0.0000 0.0000 1735.8954 -7299.6119 300.5996 -9035.5074 -7357.9872 297.9544 337.8625 411.7825 29732.4815 131.6017 186.0203
ENERGY: 1500000 0.8931 6.4382 3.1477 0.0000 -10540.8248 1453.9769 0.0000 0.0000 1725.2458 -7351.1232 298.7554 -9076.3689 -7365.0610 298.2489 207.9616 305.6030 29996.4092 43.1696 103.7058
TCL: Running FEP window  20: Lambda1 0.049999999999999684 Lambda2 0.0    [dLambda -0.049999999999999684]
TCL: Setting parameter firsttimestep to 0
TCL: Setting parameter alchLambda to 0.049999999999999684
Info: NONBONDED TABLE R-SQUARED SPACING: 0.0625
Info: NONBONDED TABLE SIZE: 705 POINTS
TCL: Setting parameter alchLambda2 to 0.0
Info: NONBONDED TABLE R-SQUARED SPACING: 0.0625
Info: NONBONDED TABLE SIZE: 705 POINTS
TCL: Running for 1500000 steps
ETITLE: TS BOND ANGLE DIHED IMPRP ELECT VDW BOUNDARY MISC KINETIC TOTAL TEMP POTENTIAL TOTALAVG TEMPAVG PRESSURE GPRESSURE VOLUME PRESSAVG GPRESSAVG
ENERGY: 0 0.8931 6.4382 3.1477 0.0000 -10540.8245 1453.7454 0.0000 0.0000 1724.4233 -7352.1769 298.6130 -9076.6002 -7352.1769 298.6130 226.2285 304.0972 29996.4092 226.2285 304.0972
ENERGY: 300000 0.7669 8.6224 1.7405 0.0000 -10552.0962 1414.5422 0.0000 0.0000 1765.8362 -7360.5881 305.7843 -9126.4243 -7353.5723 300.3680 -110.3792 -72.9182 29677.1463 -103.5731 -32.4309
ENERGY: 600000 1.7070 9.7402 2.1743 0.0000 -10450.9891 1381.3835 0.0000 0.0000 1797.4439 -7258.5403 311.2577 -9055.9842 -7321.9974 303.4101 -231.6318 -166.0497 29899.8618 -4.8998 70.7419
ENERGY: 900000 0.6732 6.9645 2.1970 0.0000 -10498.8744 1427.4410 0.0000 0.0000 1712.9681 -7348.6308 296.6293 -9061.5989 -7318.1494 301.9820 82.7575 29.4830 30009.5062 -48.1295 16.0163
ENERGY: 1200000 2.4695 6.8826 3.3699 0.0000 -10623.0968 1444.2090 0.0000 0.0000 1676.2842 -7489.8818 290.2769 -9166.1659 -7325.2166 301.6495 -274.4573 -196.6211 29898.7691 -7.0032 58.0232
ENERGY: 1500000 1.9709 5.5030 2.1156 0.0000 -10654.2061 1452.4479 0.0000 0.0000 1715.4756 -7476.6930 297.0635 -9192.1686 -7343.3512 300.4538 -95.0424 -22.3098 29644.7186 -69.2643 -0.6437
TCL: Exiting due to exit command.
