Info: SIMULATION PARAMETERS:
Info: TIMESTEP               2
Info: NUMBER OF STEPS        0
Info: STEPS PER CYCLE        10
Info: PERIODIC CELL BASIS 1  30.4857 0 0
Info: PERIODIC CELL BASIS 2  0 30.3904 0
Info: PERIODIC CELL BASIS 3  0 0 33.1487
Info: PERIODIC CELL CENTER   0 0 0
Info: WRAPPING WATERS AROUND PERIODIC BOUNDARIES ON OUTPUT.
Info: WRAPPING ALL CLUSTERS AROUND PERIODIC BOUNDARIES ON OUTPUT.
Info: FIRST LDB TIMESTEP     50
Info: LAST LDB TIMESTEP     -1
Info: HOM BACKGROUND SCALING 1
Info: PME BACKGROUND SCALING 1
Info: MIN ATOMS PER PATCH    40
Info: EMPTY PATCH LOAD       40 ATOMS
Info: VELOCITY FILE          mobley_7943327_equil.vel
Info: CENTER OF MASS MOVING INITIALLY? NO
Info: DIELECTRIC             1
Info: EXCLUDE                SCALED ONE-FOUR
Info: 1-4 ELECTROSTATICS SCALED BY 0.833333
Info: MODIFIED 1-4 VDW PARAMETERS WILL BE USED
Info: DCD FILENAME           mobley_7943327_prod.dcd
Info: DCD FREQUENCY          100000
Info: DCD FIRST STEP         100000
Info: DCD FILE WILL CONTAIN UNIT CELL DATA
Info: XST FILENAME           mobley_7943327_prod.xst
Info: XST FREQUENCY          100000
Info: NO VELOCITY DCD OUTPUT
Info: NO FORCE DCD OUTPUT
Info: OUTPUT FILENAME        mobley_7943327_prod
Info: BINARY OUTPUT FILES WILL BE USED
Info: RESTART FILENAME       mobley_7943327_prod.restart
Info: RESTART FREQUENCY      100000
Info: BINARY RESTART FILES WILL BE USED
Info: CUTOFF                 9
Info: PAIRLIST DISTANCE      11
Info: PAIRLIST SHRINK RATE   0.01
Info: PAIRLIST GROW RATE     0.01
Info: PAIRLIST TRIGGER       0.3
Info: PAIRLISTS PER CYCLE    2
Info: PAIRLISTS ENABLED
Info: MARGIN                 2
Info: HYDROGEN GROUP CUTOFF  2.5
Info: PATCH DIMENSION        15.5
Info: ENERGY OUTPUT STEPS    100000
Info: ENERGY EVALUATION STEPS    100000
Info: OUTPUT ENERGY PRECISION 4
Info: CROSSTERM ENERGY INCLUDED IN DIHEDRAL
Info: TIMING OUTPUT STEPS    1000000
Info: PRESSURE OUTPUT STEPS  100000
Info: ALCHEMICAL FEP ON
Info: FEP CURRENT LAMBDA VALUE     1
Info: FEP COMPARISON LAMBDA VALUE  0.95
Info: FEP INTRA-ALCHEMICAL NON-BONDED INTERACTIONS WILL BE RETAINED
Info: FEP INTRA-ALCHEMICAL BONDED INTERACTIONS WILL BE RETAINED
Info: FEP VDW SHIFTING COEFFICIENT 5
Info: FEP ELEC. ACTIVE FOR ANNIHILATED PARTICLES BETWEEN LAMBDA = 0 AND LAMBDA = 0.5
Info: FEP ELEC. ACTIVE FOR EXNIHILATED PARTICLES BETWEEN LAMBDA = 0.5 AND LAMBDA = 1
Info: FEP VDW ACTIVE FOR ANNIHILATED PARTICLES BETWEEN LAMBDA = 0 AND LAMBDA = 1
Info: FEP VDW ACTIVE FOR EXNIHILATED PARTICLES BETWEEN LAMBDA = 0 AND LAMBDA = 1
Info: FEP BOND ACTIVE FOR ANNIHILATED PARTICLES BETWEEN LAMBDA = 1 AND LAMBDA = 1
Info: FEP BOND ACTIVE FOR EXNIHILATED PARTICLES BETWEEN LAMBDA = 0 AND LAMBDA = 0
Info: LANGEVIN DYNAMICS ACTIVE
Info: LANGEVIN TEMPERATURE   300
Info: LANGEVIN USING BBK INTEGRATOR
Info: LANGEVIN DAMPING COEFFICIENT IS 1 INVERSE PS
Info: LANGEVIN DYNAMICS APPLIED TO HYDROGENS
Info: LANGEVIN PISTON PRESSURE CONTROL ACTIVE
Info:        TARGET PRESSURE IS 1.01325 BAR
Info:     OSCILLATION PERIOD IS 50 FS
Info:             DECAY TIME IS 25 FS
Info:     PISTON TEMPERATURE IS 300 K
Info:       PRESSURE CONTROL IS GROUP-BASED
Info:    INITIAL STRAIN RATE IS 0.000156339 0.000156339 0.000156339
Info:       CELL FLUCTUATION IS ISOTROPIC
Info: PARTICLE MESH EWALD (PME) ACTIVE
Info: PME TOLERANCE               1e-06
Info: PME EWALD COEFFICIENT       0.348832
Info: PME INTERPOLATION ORDER     4
Info: PME GRID DIMENSIONS         32 32 36
Info: PME MAXIMUM GRID SPACING    1
Info: PME CALCULATION WILL BE PERFORMED ON GPU
Info: FULL ELECTROSTATIC EVALUATION FREQUENCY      2
Info: USING VERLET I (r-RESPA) MTS SCHEME.
Info: C1 SPLITTING OF LONG RANGE ELECTROSTATICS
Info: PLACING ATOMS IN PATCHES BY HYDROGEN GROUPS
Info: RIGID BONDS TO HYDROGEN : ALL
Info:         ERROR TOLERANCE : 1e-08
Info:          MAX ITERATIONS : 100
Info: RIGID WATER USING SETTLE ALGORITHM
Info: RANDOM NUMBER SEED     1743849432
Info: USE HYDROGEN BONDS?    NO
Info: Using AMBER format force field!
Info: AMBER PARM FILE        mobley_7943327.prmtop
Info: COORDINATE PDB         mobley_7943327.pdb
Info: Exclusions will be read from PARM file!
Info: SCNB (VDW SCALING)     2
Info: USING ARITHMETIC MEAN TO COMBINE L-J SIGMA PARAMETERS
Info: BINARY COORDINATES     mobley_7943327_equil.coor
Info: SUMMARY OF PARAMETERS:
Info: 9 BONDS
Info: 12 ANGLES
Info:   12 HARMONIC
Info:   0 COSINE-BASED
Info: 16 DIHEDRAL
Info: 0 IMPROPER
Info: 0 CROSSTERM
Info: 0 VDW
Info: 36 VDW_PAIRS
Info: 0 NBTHOLE_PAIRS
Info: To read alchdata from file: mobley_7943327.pdb
Info: To read alchflag data from column: 5
Info: STRUCTURE SUMMARY:
Info: 2933 ATOMS
Info: 2932 BONDS
Info: 28 ANGLES
Info: 41 DIHEDRALS
Info: 0 IMPROPERS
Info: 0 CROSSTERMS
Info: 2989 EXCLUSIONS
Info: 2926 RIGID BONDS
Info: ALCH: 0 ATOMS TO DISAPPEAR IN FINAL STATE
Info: ALCH: 17 ATOMS TO APPEAR IN FINAL STATE
Info: 5873 DEGREES OF FREEDOM
Info: 979 HYDROGEN GROUPS
Info: 4 ATOMS IN LARGEST HYDROGEN GROUP
Info: 979 MIGRATION GROUPS
Info: 4 ATOMS IN LARGEST MIGRATION GROUP
Info: TOTAL MASS = 17613.7 amu
Info: TOTAL CHARGE = 4.84288e-08 e
Info: MASS DENSITY = 0.952381 g/cm^3
Info: ATOM DENSITY = 0.0955022 atoms/A^3
Info: ADDED 0 IMPLICIT EXCLUSIONS
Info: NONBONDED TABLE R-SQUARED SPACING: 0.0625
Info: NONBONDED TABLE SIZE: 705 POINTS
Info: REMOVING COM VELOCITY -0.112623 -0.00244705 -0.00539867
Info: Use 3D box decompostion in PME FFT.
Info: Updated CUDA force table with 4096 elements.
Info: Updated CUDA LJ table with 8 x 8 elements.
Info: Found 20 unique exclusion lists needing 44 bytes
TCL: Running for 1500000 steps
ETITLE: TS BOND ANGLE DIHED IMPRP ELECT VDW BOUNDARY MISC KINETIC TOTAL TEMP POTENTIAL TOTALAVG TEMPAVG PRESSURE GPRESSURE VOLUME PRESSAVG GPRESSAVG
ENERGY: 0 0.5486 6.4768 3.0289 0.0000 -10525.2937 1391.7802 0.0000 0.0000 1756.5847 -7366.8746 301.0229 -9123.4593 -7366.8746 301.0229 -222.1457 -138.4543 30711.3189 -222.1457 -138.4543
ENERGY: 300000 1.2818 8.1739 4.3389 0.0000 -10563.8973 1374.3291 0.0000 0.0000 1809.1391 -7366.6345 310.0290 -9175.7736 -7367.7940 303.0340 -400.5864 -324.6995 30495.9629 -301.7528 -237.5294
ENERGY: 600000 0.6309 4.2705 4.1802 0.0000 -10593.8613 1451.1348 0.0000 0.0000 1770.1883 -7363.4565 303.3541 -9133.6448 -7388.3928 303.1135 521.3843 667.2337 29961.0654 -138.6075 -48.9383
ENERGY: 900000 2.0250 7.7073 4.3484 0.0000 -10612.3962 1460.8185 0.0000 0.0000 1776.0662 -7361.4308 304.3614 -9137.4970 -7405.1627 301.8047 407.1874 458.3797 30509.0291 -79.7659 2.3719
ENERGY: 1200000 2.1139 6.2735 4.2097 0.0000 -10585.6678 1341.0209 0.0000 0.0000 1741.5418 -7490.5081 298.4450 -9232.0498 -7416.3471 300.5549 -832.7508 -789.2059 30585.3295 -138.7881 -61.6163
ENERGY: 1500000 1.4476 9.1301 3.6529 0.0000 -10671.8142 1446.4064 0.0000 0.0000 1748.4041 -7462.7731 299.6210 -9211.1772 -7412.7422 302.1450 -71.0434 -93.7455 30634.5241 -91.7960 -24.6503
TCL: Running FEP window   2: Lambda1 0.95   Lambda2 0.8999999999999999 [dLambda -0.050000000000000044]
TCL: Setting parameter firsttimestep to 0
TCL: Setting parameter alchLambda to 0.95
Info: NONBONDED TABLE R-SQUARED SPACING: 0.0625
Info: NONBONDED TABLE SIZE: 705 POINTS
TCL: Setting parameter alchLambda2 to 0.8999999999999999
Info: NONBONDED TABLE R-SQUARED SPACING: 0.0625
Info: NONBONDED TABLE SIZE: 705 POINTS
TCL: Running for 1500000 steps
ETITLE: TS BOND ANGLE DIHED IMPRP ELECT VDW BOUNDARY MISC KINETIC TOTAL TEMP POTENTIAL TOTALAVG TEMPAVG PRESSURE GPRESSURE VOLUME PRESSAVG GPRESSAVG
ENERGY: 0 1.4476 9.1301 3.6529 0.0000 -10670.8638 1446.5238 0.0000 0.0000 1747.5072 -7462.6022 299.4673 -9210.1094 -7462.6022 299.4673 -183.8649 -104.2752 30634.5241 -183.8649 -104.2752
ENERGY: 300000 2.0658 4.5886 5.0475 0.0000 -10682.2081 1464.1423 0.0000 0.0000 1731.7979 -7474.5660 296.7752 -9206.3639 -7478.4291 299.0363 438.4094 535.9129 29854.7656 102.8197 168.3983
ENERGY: 600000 2.3064 10.3277 3.7425 0.0000 -10712.6955 1419.7389 0.0000 0.0000 1791.5790 -7485.0011 307.0198 -9276.5801 -7456.0453 301.5950 18.8846 15.1254 29860.7331 107.3243 162.3073
ENERGY: 900000 0.9414 9.7391 3.3878 0.0000 -10533.6840 1341.5126 0.0000 0.0000 1755.4588 -7422.6443 300.8299 -9178.1031 -7454.3910 300.7252 -397.9294 -318.3468 29854.8056 -161.3690 -99.4584
ENERGY: 1200000 2.2814 7.6048 4.4293 0.0000 -10482.6580 1322.5528 0.0000 0.0000 1795.9281 -7349.8616 307.7651 -9145.7897 -7451.9667 300.7688 -893.7330 -800.5303 30509.4438 -183.2418 -119.0554
ENERGY: 1500000 4.5755 7.0169 3.3898 0.0000 -10634.1613 1465.6373 0.0000 0.0000 1763.9187 -7389.6231 302.2797 -9153.5417 -7451.4153 301.4068 414.8690 479.9544 30328.6786 -219.3324 -155.2245
TCL: Running FEP window   3: Lambda1 0.8999999999999999 Lambda2 0.8499999999999999 [dLambda -0.050000000000000044]
TCL: Setting parameter firsttimestep to 0
TCL: Setting parameter alchLambda to 0.8999999999999999
Info: NONBONDED TABLE R-SQUARED SPACING: 0.0625
Info: NONBONDED TABLE SIZE: 705 POINTS
TCL: Setting parameter alchLambda2 to 0.8499999999999999
Info: NONBONDED TABLE R-SQUARED SPACING: 0.0625
Info: NONBONDED TABLE SIZE: 705 POINTS
TCL: Running for 1500000 steps
ETITLE: TS BOND ANGLE DIHED IMPRP ELECT VDW BOUNDARY MISC KINETIC TOTAL TEMP POTENTIAL TOTALAVG TEMPAVG PRESSURE GPRESSURE VOLUME PRESSAVG GPRESSAVG
ENERGY: 0 4.5755 7.0169 3.3898 0.0000 -10632.9812 1465.3203 0.0000 0.0000 1763.0356 -7389.6431 302.1283 -9152.6787 -7389.6431 302.1283 383.3337 466.0740 30328.6786 383.3337 466.0740
ENERGY: 300000 1.5925 5.7311 3.9820 0.0000 -10671.5200 1442.9076 0.0000 0.0000 1743.1225 -7474.1844 298.7159 -9217.3069 -7454.9491 296.4898 468.8524 538.7690 29546.8015 -35.8387 48.4112
ENERGY: 600000 1.7611 7.4415 5.0761 0.0000 -10606.2997 1449.3645 0.0000 0.0000 1766.6440 -7376.0125 302.7467 -9142.6565 -7440.6912 298.4338 63.5987 204.6880 30705.8290 -36.8267 39.4355
ENERGY: 900000 1.4740 8.3714 3.5195 0.0000 -10643.4806 1436.3065 0.0000 0.0000 1719.2451 -7474.5642 294.6240 -9193.8092 -7427.3905 300.0867 28.6729 131.5850 30294.3228 -91.6514 -7.6805
ENERGY: 1200000 1.8008 6.3014 4.7336 0.0000 -10681.2510 1433.3623 0.0000 0.0000 1762.9509 -7472.1020 302.1138 -9235.0529 -7426.6765 299.6997 194.3853 282.7251 29714.7538 -89.5975 -12.9897
ENERGY: 1500000 1.5606 6.0308 5.1080 0.0000 -10762.5111 1498.7512 0.0000 0.0000 1706.7973 -7544.2631 292.4909 -9251.0604 -7433.8234 298.9311 482.7500 548.9728 30274.4553 -60.2384 15.9609
TCL: Running FEP window   4: Lambda1 0.8499999999999999 Lambda2 0.7999999999999998 [dLambda -0.050000000000000044]
TCL: Setting parameter firsttimestep to 0
TCL: Setting parameter alchLambda to 0.8499999999999999
Info: NONBONDED TABLE R-SQUARED SPACING: 0.0625
Info: NONBONDED TABLE SIZE: 705 POINTS
TCL: Setting parameter alchLambda2 to 0.7999999999999998
Info: NONBONDED TABLE R-SQUARED SPACING: 0.0625
Info: NONBONDED TABLE SIZE: 705 POINTS
TCL: Running for 1500000 steps
ETITLE: TS BOND ANGLE DIHED IMPRP ELECT VDW BOUNDARY MISC KINETIC TOTAL TEMP POTENTIAL TOTALAVG TEMPAVG PRESSURE GPRESSURE VOLUME PRESSAVG GPRESSAVG
ENERGY: 0 1.5606 6.0308 5.1080 0.0000 -10761.0836 1498.3615 0.0000 0.0000 1705.9596 -7544.0630 292.3473 -9250.0226 -7544.0630 292.3473 456.5414 532.4286 30274.4553 456.5414 532.4286
ENERGY: 300000 0.8730 6.8521 5.2530 0.0000 -10668.7838 1446.3877 0.0000 0.0000 1733.1568 -7476.2612 297.0081 -9209.4181 -7517.6059 297.7406 -73.8441 -66.4865 30350.2031 88.4980 134.2507
ENERGY: 600000 1.5419 8.8727 4.8039 0.0000 -10533.2562 1344.4049 0.0000 0.0000 1773.5558 -7400.0771 303.9312 -9173.6329 -7509.4458 296.5835 -570.9223 -515.1239 30142.2097 -106.0055 -53.0151
ENERGY: 900000 1.9073 5.6886 6.7576 0.0000 -10735.4240 1419.1420 0.0000 0.0000 1734.4383 -7567.4902 297.2277 -9301.9285 -7498.6827 296.7999 -287.3544 -217.2816 29635.1648 -102.9856 -53.6253
ENERGY: 1200000 0.9408 4.9468 3.7260 0.0000 -10638.3430 1452.4429 0.0000 0.0000 1743.5747 -7432.7118 298.7934 -9176.2865 -7487.0767 296.5502 393.5322 431.7392 30224.6292 -31.3421 13.6965
ENERGY: 1500000 2.8321 4.8837 4.0317 0.0000 -10548.8360 1397.7168 0.0000 0.0000 1772.6372 -7366.7346 303.7738 -9139.3718 -7470.4054 297.8096 -342.6906 -301.9988 30503.8322 -71.4698 -23.5301
TCL: Running FEP window   5: Lambda1 0.7999999999999998 Lambda2 0.7499999999999998 [dLambda -0.050000000000000044]
TCL: Setting parameter firsttimestep to 0
TCL: Setting parameter alchLambda to 0.7999999999999998
Info: NONBONDED TABLE R-SQUARED SPACING: 0.0625
Info: NONBONDED TABLE SIZE: 705 POINTS
TCL: Setting parameter alchLambda2 to 0.7499999999999998
Info: NONBONDED TABLE R-SQUARED SPACING: 0.0625
Info: NONBONDED TABLE SIZE: 705 POINTS
TCL: Running for 1500000 steps
ETITLE: TS BOND ANGLE DIHED IMPRP ELECT VDW BOUNDARY MISC KINETIC TOTAL TEMP POTENTIAL TOTALAVG TEMPAVG PRESSURE GPRESSURE VOLUME PRESSAVG GPRESSAVG
ENERGY: 0 2.8321 4.8837 4.0317 0.0000 -10547.9599 1397.9130 0.0000 0.0000 1771.7739 -7366.5256 303.6258 -9138.2995 -7366.5256 303.6258 -406.6662 -309.1082 30503.8322 -406.6662 -309.1082
ENERGY: 300000 1.3229 3.7927 5.3154 0.0000 -10647.5782 1434.5688 0.0000 0.0000 1778.8048 -7423.7735 304.8307 -9202.5783 -7437.6340 300.0691 412.4648 410.0951 29859.3724 184.2626 244.0354
ENERGY: 600000 1.2762 7.6735 5.0697 0.0000 -10807.2230 1546.5022 0.0000 0.0000 1781.4255 -7465.2760 305.2798 -9246.7014 -7455.2054 298.5005 744.7529 778.2459 30212.8441 218.4941 263.6727
ENERGY: 900000 1.3919 5.7726 5.2239 0.0000 -10626.8523 1440.6933 0.0000 0.0000 1723.2122 -7450.5584 295.3039 -9173.7706 -7451.4872 299.4479 -141.6857 -61.4962 30451.4347 132.0357 187.4101
ENERGY: 1200000 0.5907 7.4961 4.3682 0.0000 -10556.9824 1435.6336 0.0000 0.0000 1774.0857 -7334.8081 304.0220 -9108.8938 -7433.6912 300.6146 312.7208 330.3700 30303.4164 135.6595 192.0201
ENERGY: 1500000 2.6066 8.8770 6.3275 0.0000 -10770.1911 1449.3388 0.0000 0.0000 1729.3907 -7573.6506 296.3627 -9303.0412 -7441.5047 300.8977 -197.7170 -171.0337 30134.1260 111.6782 167.3522
TCL: Running FEP window   6: Lambda1 0.7499999999999998 Lambda2 0.6999999999999997 [dLambda -0.050000000000000044]
TCL: Setting parameter firsttimestep to 0
TCL: Setting parameter alchLambda to 0.7499999999999998
Info: NONBONDED TABLE R-SQUARED SPACING: 0.0625
Info: NONBONDED TABLE SIZE: 705 POINTS
TCL: Setting parameter alchLambda2 to 0.6999999999999997
Info: NONBONDED TABLE R-SQUARED SPACING: 0.0625
Info: NONBONDED TABLE SIZE: 705 POINTS
TCL: Running for 1500000 steps
ETITLE: TS BOND ANGLE DIHED IMPRP ELECT VDW BOUNDARY MISC KINETIC TOTAL TEMP POTENTIAL TOTALAVG TEMPAVG PRESSURE GPRESSURE VOLUME PRESSAVG GPRESSAVG
ENERGY: 0 2.6066 8.8770 6.3275 0.0000 -10769.6274 1449.7044 0.0000 0.0000 1728.5306 -7573.5812 296.2153 -9302.1118 -7573.5812 296.2153 -261.2306 -176.6533 30134.1260 -261.2306 -176.6533
ENERGY: 300000 2.8753 9.8733 4.8189 0.0000 -10687.5709 1482.9366 0.0000 0.0000 1701.1531 -7485.9136 291.5236 -9187.0667 -7501.8283 297.7727 553.0869 545.4004 29972.9206 167.8180 229.4860
ENERGY: 600000 1.5760 9.7504 3.2300 0.0000 -10712.1146 1478.9014 0.0000 0.0000 1725.0314 -7493.6254 295.6156 -9218.6568 -7471.7564 298.5917 190.0132 227.4883 30432.1112 -42.5709 13.8190
ENERGY: 900000 2.6721 6.8750 6.6884 0.0000 -10552.5328 1373.4987 0.0000 0.0000 1759.7448 -7403.0538 301.5644 -9162.7986 -7467.1133 300.4898 -404.2830 -322.7807 30192.5058 -80.9558 -18.5136
ENERGY: 1200000 1.0559 4.9156 4.7029 0.0000 -10707.4084 1472.0013 0.0000 0.0000 1766.7352 -7457.9975 302.7623 -9224.7327 -7462.9103 300.8517 406.3879 428.3456 29774.8618 -74.0484 -10.8433
ENERGY: 1500000 1.6866 7.6714 4.5150 0.0000 -10713.2755 1491.4669 0.0000 0.0000 1774.1028 -7433.8328 304.0249 -9207.9356 -7460.0941 301.8325 782.9273 881.6845 29586.7931 14.2674 79.3395
TCL: Running FEP window   7: Lambda1 0.6999999999999997 Lambda2 0.6499999999999997 [dLambda -0.050000000000000044]
TCL: Setting parameter firsttimestep to 0
TCL: Setting parameter alchLambda to 0.6999999999999997
Info: NONBONDED TABLE R-SQUARED SPACING: 0.0625
Info: NONBONDED TABLE SIZE: 705 POINTS
TCL: Setting parameter alchLambda2 to 0.6499999999999997
Info: NONBONDED TABLE R-SQUARED SPACING: 0.0625
Info: NONBONDED TABLE SIZE: 705 POINTS
TCL: Running for 1500000 steps
ETITLE: TS BOND ANGLE DIHED IMPRP ELECT VDW BOUNDARY MISC KINETIC TOTAL TEMP POTENTIAL TOTALAVG TEMPAVG PRESSURE GPRESSURE VOLUME PRESSAVG GPRESSAVG
ENERGY: 0 1.6866 7.6714 4.5150 0.0000 -10711.7817 1491.5369 0.0000 0.0000 1773.2246 -7433.1471 303.8744 -9206.3717 -7433.1471 303.8744 780.4308 875.6582 29586.7931 780.4308 875.6582
ENERGY: 300000 3.2019 7.9186 10.0528 0.0000 -10743.9808 1430.3007 0.0000 0.0000 1746.5099 -7545.9969 299.2964 -9292.5068 -7462.0126 298.4515 -351.1772 -252.1675 30336.8547 -49.3748 26.3615
ENERGY: 600000 1.8016 10.7102 5.0864 0.0000 -10547.4497 1359.8944 0.0000 0.0000 1766.2491 -7403.7079 302.6790 -9169.9570 -7425.2219 299.7559 -582.1718 -523.6437 30711.3176 -166.9652 -94.5889
ENERGY: 900000 2.3273 5.3996 4.4589 0.0000 -10511.1137 1385.9403 0.0000 0.0000 1727.4418 -7385.5459 296.0287 -9112.9877 -7420.0478 300.1823 -365.2308 -271.7370 30538.1856 -84.5656 -22.5344
ENERGY: 1200000 4.4916 5.3208 6.5145 0.0000 -10583.2083 1375.3492 0.0000 0.0000 1751.3468 -7440.1855 300.1252 -9191.5322 -7430.0739 299.9965 -331.2136 -248.7506 29918.2956 -156.9512 -85.5810
ENERGY: 1500000 1.2352 5.5652 5.3050 0.0000 -10574.7053 1398.6430 0.0000 0.0000 1743.7281 -7420.2289 298.8197 -9163.9570 -7434.0815 300.0790 -69.0939 -51.4086 29932.0228 -143.4082 -79.7508
TCL: Running FEP window   8: Lambda1 0.6499999999999997 Lambda2 0.5999999999999996 [dLambda -0.050000000000000044]
TCL: Setting parameter firsttimestep to 0
TCL: Setting parameter alchLambda to 0.6499999999999997
Info: NONBONDED TABLE R-SQUARED SPACING: 0.0625
Info: NONBONDED TABLE SIZE: 705 POINTS
TCL: Setting parameter alchLambda2 to 0.5999999999999996
Info: NONBONDED TABLE R-SQUARED SPACING: 0.0625
Info: NONBONDED TABLE SIZE: 705 POINTS
TCL: Running for 1500000 steps
ETITLE: TS BOND ANGLE DIHED IMPRP ELECT VDW BOUNDARY MISC KINETIC TOTAL TEMP POTENTIAL TOTALAVG TEMPAVG PRESSURE GPRESSURE VOLUME PRESSAVG GPRESSAVG
ENERGY: 0 1.2352 5.5652 5.3050 0.0000 -10574.3690 1399.1857 0.0000 0.0000 1742.8660 -7420.2119 298.6719 -9163.0779 -7420.2119 298.6719 -124.6941 -53.9198 29932.0228 -124.6941 -53.9198
ENERGY: 300000 2.2608 4.7154 6.0853 0.0000 -10701.3380 1409.1038 0.0000 0.0000 1746.4903 -7532.6824 299.2930 -9279.1727 -7464.5120 298.7227 -291.9376 -251.7499 29930.6460 -418.3693 -348.4238
ENERGY: 600000 1.2940 3.8109 4.8804 0.0000 -10678.8023 1459.4118 0.0000 0.0000 1762.2525 -7447.1526 301.9941 -9209.4051 -7459.9553 298.9722 89.3730 169.0614 30327.6555 -394.8276 -340.8526
ENERGY: 900000 1.7149 6.3772 4.7011 0.0000 -10631.1920 1408.1986 0.0000 0.0000 1771.1511 -7439.0491 303.5191 -9210.2003 -7463.1524 299.2156 -33.0786 25.4235 29932.8927 -267.5832 -210.0097
ENERGY: 1200000 2.1297 11.8904 7.4248 0.0000 -10505.3332 1382.9206 0.0000 0.0000 1677.3642 -7423.6036 287.4470 -9100.9678 -7463.7753 298.2017 -84.1855 -52.0877 30291.4710 -172.6658 -116.0979
ENERGY: 1500000 1.8171 9.4043 4.9936 0.0000 -10647.2433 1419.0631 0.0000 0.0000 1757.9688 -7453.9964 301.2601 -9211.9652 -7467.6891 298.4978 120.9091 240.0177 29574.9092 -168.2010 -102.1610
TCL: Running FEP window   9: Lambda1 0.5999999999999996 Lambda2 0.5499999999999996 [dLambda -0.050000000000000044]
TCL: Setting parameter firsttimestep to 0
TCL: Setting parameter alchLambda to 0.5999999999999996
Info: NONBONDED TABLE R-SQUARED SPACING: 0.0625
Info: NONBONDED TABLE SIZE: 705 POINTS
TCL: Setting parameter alchLambda2 to 0.5499999999999996
Info: NONBONDED TABLE R-SQUARED SPACING: 0.0625
Info: NONBONDED TABLE SIZE: 705 POINTS
TCL: Running for 1500000 steps
ETITLE: TS BOND ANGLE DIHED IMPRP ELECT VDW BOUNDARY MISC KINETIC TOTAL TEMP POTENTIAL TOTALAVG TEMPAVG PRESSURE GPRESSURE VOLUME PRESSAVG GPRESSAVG
ENERGY: 0 1.8171 9.4043 4.9936 0.0000 -10646.6308 1419.5556 0.0000 0.0000 1757.0810 -7453.7791 301.1079 -9210.8601 -7453.7791 301.1079 151.4993 239.5555 29574.9092 151.4993 239.5555
ENERGY: 300000 2.2122 9.0615 5.2544 0.0000 -10518.8043 1318.5773 0.0000 0.0000 1744.5351 -7439.1639 298.9579 -9183.6990 -7455.2936 300.7633 -859.4600 -862.2758 30188.5257 -167.1928 -91.5294
ENERGY: 600000 0.6327 5.1297 3.6006 0.0000 -10743.9477 1536.2194 0.0000 0.0000 1748.3029 -7450.0623 299.6036 -9198.3652 -7458.9879 300.4947 873.0669 880.5039 30111.6200 58.1310 119.1502
ENERGY: 900000 2.0282 9.6341 3.2099 0.0000 -10753.3176 1444.0571 0.0000 0.0000 1706.9470 -7587.4413 292.5165 -9294.3883 -7470.3429 299.2354 71.0182 76.5429 29839.9108 103.8429 159.5405
ENERGY: 1200000 0.9540 6.3356 4.3452 0.0000 -10611.1069 1375.7855 0.0000 0.0000 1801.9858 -7421.7007 308.8032 -9223.6865 -7454.9226 299.8860 -376.3013 -314.9305 30000.2400 -56.2643 2.9901
ENERGY: 1500000 2.1242 4.8944 5.7374 0.0000 -10565.1378 1334.6487 0.0000 0.0000 1747.5409 -7470.1921 299.4730 -9217.7331 -7449.3249 299.4086 -810.8857 -776.6750 30022.6355 -98.5754 -37.5150
TCL: Running FEP window  10: Lambda1 0.5499999999999996 Lambda2 0.4999999999999996 [dLambda -0.04999999999999999]
TCL: Setting parameter firsttimestep to 0
TCL: Setting parameter alchLambda to 0.5499999999999996
Info: NONBONDED TABLE R-SQUARED SPACING: 0.0625
Info: NONBONDED TABLE SIZE: 705 POINTS
TCL: Setting parameter alchLambda2 to 0.4999999999999996
Info: NONBONDED TABLE R-SQUARED SPACING: 0.0625
Info: NONBONDED TABLE SIZE: 705 POINTS
TCL: Running for 1500000 steps
ETITLE: TS BOND ANGLE DIHED IMPRP ELECT VDW BOUNDARY MISC KINETIC TOTAL TEMP POTENTIAL TOTALAVG TEMPAVG PRESSURE GPRESSURE VOLUME PRESSAVG GPRESSAVG
ENERGY: 0 2.1242 4.8944 5.7374 0.0000 -10565.1084 1335.0942 0.0000 0.0000 1746.7027 -7470.5555 299.3294 -9217.2582 -7470.5555 299.3294 -865.4053 -777.4747 30022.6355 -865.4053 -777.4747
ENERGY: 300000 1.5760 8.2862 4.9469 0.0000 -10629.7848 1463.8567 0.0000 0.0000 1709.9849 -7441.1341 293.0371 -9151.1190 -7415.4363 297.5265 248.4116 342.6200 30444.5528 -412.1872 -340.2870
ENERGY: 600000 1.7159 6.5003 5.2939 0.0000 -10605.2877 1377.0566 0.0000 0.0000 1768.5940 -7446.1270 303.0809 -9214.7210 -7425.0638 299.4651 -255.6881 -235.1161 29951.1142 -305.0638 -239.5899
ENERGY: 900000 1.2762 4.1616 4.9576 0.0000 -10729.1258 1490.4105 0.0000 0.0000 1722.6972 -7505.6228 295.2156 -9228.3200 -7425.7111 299.7481 381.2217 454.0791 30194.3441 -194.0736 -127.6781
ENERGY: 1200000 0.9790 5.5753 5.0418 0.0000 -10480.6993 1352.1259 0.0000 0.0000 1756.1960 -7360.7813 300.9563 -9116.9773 -7409.5313 300.4375 -589.6170 -560.0447 30618.7119 -121.8487 -58.9648
ENERGY: 1500000 1.7205 5.8885 5.1628 0.0000 -10562.0648 1448.7578 0.0000 0.0000 1759.8095 -7340.7257 301.5755 -9100.5352 -7409.6249 300.7831 426.5624 530.1500 30514.9911 -21.6171 41.1157
TCL: Running FEP window  11: Lambda1 0.4999999999999996 Lambda2 0.4499999999999996 [dLambda -0.04999999999999999]
TCL: Setting parameter firsttimestep to 0
TCL: Setting parameter alchLambda to 0.4999999999999996
Info: NONBONDED TABLE R-SQUARED SPACING: 0.0625
Info: NONBONDED TABLE SIZE: 705 POINTS
TCL: Setting parameter alchLambda2 to 0.4499999999999996
Info: NONBONDED TABLE R-SQUARED SPACING: 0.0625
Info: NONBONDED TABLE SIZE: 705 POINTS
TCL: Running for 1500000 steps
ETITLE: TS BOND ANGLE DIHED IMPRP ELECT VDW BOUNDARY MISC KINETIC TOTAL TEMP POTENTIAL TOTALAVG TEMPAVG PRESSURE GPRESSURE VOLUME PRESSAVG GPRESSAVG
ENERGY: 0 1.7205 5.8885 5.1628 0.0000 -10561.2616 1448.9674 0.0000 0.0000 1758.9114 -7340.6110 301.4216 -9099.5224 -7340.6110 301.4216 454.0807 529.8361 30514.9911 454.0807 529.8361
ENERGY: 300000 2.3169 7.3070 3.0818 0.0000 -10600.1042 1408.4251 0.0000 0.0000 1731.5570 -7447.4165 296.7339 -9178.9735 -7434.6270 298.4806 -233.0801 -180.7921 30212.1779 75.1791 117.7835
ENERGY: 600000 1.7940 12.4738 4.6787 0.0000 -10607.2674 1435.1121 0.0000 0.0000 1806.8456 -7346.3633 309.6360 -9153.2089 -7420.4490 300.9499 170.5074 119.9567 30126.1163 301.3837 329.2641
ENERGY: 900000 1.5488 6.6478 4.7180 0.0000 -10579.9501 1365.2695 0.0000 0.0000 1744.5226 -7457.2435 298.9558 -9201.7660 -7424.6982 300.6380 -551.0111 -459.0192 30284.2483 173.3757 219.2305
ENERGY: 1200000 4.1583 3.3047 4.8486 0.0000 -10561.0111 1386.1488 0.0000 0.0000 1792.4181 -7370.1325 307.1636 -9162.5507 -7429.2110 300.9047 -321.9283 -274.1487 30383.3561 61.4615 115.0656
ENERGY: 1500000 6.1076 6.9187 3.9927 0.0000 -10627.7595 1438.7362 0.0000 0.0000 1716.6802 -7455.3239 294.1845 -9172.0042 -7435.0416 300.0842 116.5621 141.7464 30191.2533 7.4256 55.6974
TCL: Running FEP window  12: Lambda1 0.4499999999999996 Lambda2 0.39999999999999963 [dLambda -0.04999999999999999]
TCL: Setting parameter firsttimestep to 0
TCL: Setting parameter alchLambda to 0.4499999999999996
Info: NONBONDED TABLE R-SQUARED SPACING: 0.0625
Info: NONBONDED TABLE SIZE: 705 POINTS
TCL: Setting parameter alchLambda2 to 0.39999999999999963
Info: NONBONDED TABLE R-SQUARED SPACING: 0.0625
Info: NONBONDED TABLE SIZE: 705 POINTS
TCL: Running for 1500000 steps
ETITLE: TS BOND ANGLE DIHED IMPRP ELECT VDW BOUNDARY MISC KINETIC TOTAL TEMP POTENTIAL TOTALAVG TEMPAVG PRESSURE GPRESSURE VOLUME PRESSAVG GPRESSAVG
ENERGY: 0 6.1076 6.9187 3.9927 0.0000 -10627.7600 1438.8521 0.0000 0.0000 1715.8499 -7456.0389 294.0422 -9171.8888 -7456.0389 294.0422 57.2272 134.6455 30191.2533 57.2272 134.6455
ENERGY: 300000 1.6154 6.0389 5.1188 0.0000 -10639.4712 1402.5520 0.0000 0.0000 1749.6230 -7474.5231 299.8298 -9224.1461 -7493.7260 296.5086 -139.9145 -93.6802 29780.2395 -221.9065 -161.1304
ENERGY: 600000 1.4286 6.0481 4.1502 0.0000 -10433.9166 1303.6111 0.0000 0.0000 1698.9696 -7419.7090 291.1495 -9118.6787 -7471.7936 294.8709 -741.9408 -735.7900 30611.3762 -464.1453 -405.2089
ENERGY: 900000 1.7006 8.3757 3.7762 0.0000 -10680.4186 1468.3794 0.0000 0.0000 1759.0664 -7439.1203 301.4481 -9198.1867 -7461.2439 296.3624 165.3083 237.4250 30455.1801 -128.9793 -80.2562
ENERGY: 1200000 2.1340 5.8902 4.3738 0.0000 -10730.7334 1489.9902 0.0000 0.0000 1715.7603 -7512.5850 294.0269 -9228.3453 -7454.9116 296.9789 310.1955 379.4003 30027.4519 -143.6295 -87.0414
ENERGY: 1500000 2.7446 10.1527 4.0411 0.0000 -10598.6456 1392.3553 0.0000 0.0000 1762.2992 -7427.0527 302.0021 -9189.3519 -7447.0383 297.1179 -428.6039 -412.4007 30263.2499 -171.0846 -117.0382
TCL: Running FEP window  13: Lambda1 0.39999999999999963 Lambda2 0.34999999999999964 [dLambda -0.04999999999999999]
TCL: Setting parameter firsttimestep to 0
TCL: Setting parameter alchLambda to 0.39999999999999963
Info: NONBONDED TABLE R-SQUARED SPACING: 0.0625
Info: NONBONDED TABLE SIZE: 705 POINTS
TCL: Setting parameter alchLambda2 to 0.34999999999999964
Info: NONBONDED TABLE R-SQUARED SPACING: 0.0625
Info: NONBONDED TABLE SIZE: 705 POINTS
TCL: Running for 1500000 steps
ETITLE: TS BOND ANGLE DIHED IMPRP ELECT VDW BOUNDARY MISC KINETIC TOTAL TEMP POTENTIAL TOTALAVG TEMPAVG PRESSURE GPRESSURE VOLUME PRESSAVG GPRESSAVG
ENERGY: 0 2.7446 10.1527 4.0411 0.0000 -10598.6465 1392.7184 0.0000 0.0000 1761.4274 -7427.5622 301.8527 -9188.9896 -7427.5622 301.8527 -493.0618 -413.6371 30263.2499 -493.0618 -413.6371
ENERGY: 300000 0.8886 3.5795 4.5355 0.0000 -10672.5306 1429.5955 0.0000 0.0000 1767.3896 -7466.5419 302.8745 -9233.9316 -7425.5664 302.0981 291.7228 318.1367 29528.9830 -177.3150 -114.6309
ENERGY: 600000 1.2040 6.5039 4.5286 0.0000 -10716.2869 1513.5962 0.0000 0.0000 1724.5938 -7465.8605 295.5406 -9190.4542 -7424.1581 301.4220 542.2393 545.0631 30338.3457 60.6029 106.0724
ENERGY: 900000 0.3788 7.5992 5.4833 0.0000 -10832.0114 1515.2542 0.0000 0.0000 1736.1686 -7567.1273 297.5242 -9303.2959 -7436.4250 300.7709 607.8655 698.3112 29674.4193 168.0592 219.8909
ENERGY: 1200000 3.7213 5.1616 6.4087 0.0000 -10602.9981 1409.9538 0.0000 0.0000 1769.3631 -7408.3896 303.2127 -9177.7527 -7421.3769 301.7097 -192.4611 -96.7548 30107.3907 155.8120 217.1561
ENERGY: 1500000 1.0880 7.5276 3.4000 0.0000 -10729.7486 1510.6081 0.0000 0.0000 1762.9166 -7444.2082 302.1080 -9207.1249 -7414.8246 302.6106 652.7326 717.2932 29860.4659 84.0989 139.6669
TCL: Running FEP window  14: Lambda1 0.34999999999999964 Lambda2 0.29999999999999966 [dLambda -0.04999999999999999]
TCL: Setting parameter firsttimestep to 0
TCL: Setting parameter alchLambda to 0.34999999999999964
Info: NONBONDED TABLE R-SQUARED SPACING: 0.0625
Info: NONBONDED TABLE SIZE: 705 POINTS
TCL: Setting parameter alchLambda2 to 0.29999999999999966
Info: NONBONDED TABLE R-SQUARED SPACING: 0.0625
Info: NONBONDED TABLE SIZE: 705 POINTS
TCL: Running for 1500000 steps
ETITLE: TS BOND ANGLE DIHED IMPRP ELECT VDW BOUNDARY MISC KINETIC TOTAL TEMP POTENTIAL TOTALAVG TEMPAVG PRESSURE GPRESSURE VOLUME PRESSAVG GPRESSAVG
ENERGY: 0 1.0880 7.5276 3.4000 0.0000 -10729.7484 1510.2871 0.0000 0.0000 1762.0468 -7445.3989 301.9589 -9207.4457 -7445.3989 301.9589 631.6505 710.9394 29860.4659 631.6505 710.9394
ENERGY: 300000 3.5686 9.2176 4.2213 0.0000 -10650.5524 1441.4250 0.0000 0.0000 1735.8460 -7456.2739 297.4689 -9192.1199 -7465.9400 302.9011 -23.6856 54.9208 30366.7757 -36.6055 24.7819
ENERGY: 600000 1.7526 9.1725 4.6676 0.0000 -10489.2540 1336.3320 0.0000 0.0000 1723.4906 -7413.8388 295.3516 -9137.3293 -7448.6134 300.3886 -616.8623 -549.0833 30177.1814 -229.5762 -169.9518
ENERGY: 900000 2.0136 8.5323 5.3268 0.0000 -10602.8828 1410.0119 0.0000 0.0000 1772.5567 -7404.4415 303.7599 -9176.9981 -7438.0279 300.6172 -126.9755 -50.6251 30242.6624 -143.9088 -91.5376
ENERGY: 1200000 3.0492 6.1260 7.8376 0.0000 -10580.4366 1417.9914 0.0000 0.0000 1749.2777 -7396.1547 299.7707 -9145.4323 -7442.3546 300.2682 86.0119 96.6915 30040.0309 -169.5027 -113.8733
ENERGY: 1500000 5.3526 8.4207 5.0620 0.0000 -10793.0492 1471.0679 0.0000 0.0000 1751.9748 -7551.1713 300.2329 -9303.1460 -7442.4473 300.7648 -165.2137 -56.2686 30264.6869 -224.4636 -169.6373
TCL: Running FEP window  15: Lambda1 0.29999999999999966 Lambda2 0.24999999999999967 [dLambda -0.04999999999999999]
TCL: Setting parameter firsttimestep to 0
TCL: Setting parameter alchLambda to 0.29999999999999966
Info: NONBONDED TABLE R-SQUARED SPACING: 0.0625
Info: NONBONDED TABLE SIZE: 705 POINTS
TCL: Setting parameter alchLambda2 to 0.24999999999999967
Info: NONBONDED TABLE R-SQUARED SPACING: 0.0625
Info: NONBONDED TABLE SIZE: 705 POINTS
TCL: Running for 1500000 steps
ETITLE: TS BOND ANGLE DIHED IMPRP ELECT VDW BOUNDARY MISC KINETIC TOTAL TEMP POTENTIAL TOTALAVG TEMPAVG PRESSURE GPRESSURE VOLUME PRESSAVG GPRESSAVG
ENERGY: 0 5.3526 8.4207 5.0620 0.0000 -10793.0483 1471.3780 0.0000 0.0000 1751.1116 -7551.7233 300.0849 -9302.8349 -7551.7233 300.0849 -145.1271 -57.7646 30264.6869 -145.1271 -57.7646
ENERGY: 300000 2.2393 8.1993 4.7758 0.0000 -10635.2607 1414.5430 0.0000 0.0000 1752.0818 -7453.4214 300.2512 -9205.5032 -7453.2026 303.3286 -330.8576 -293.9665 30579.4883 -43.2063 26.8048
ENERGY: 600000 2.7999 7.0886 4.5899 0.0000 -10799.2078 1536.6183 0.0000 0.0000 1796.5011 -7451.6100 307.8633 -9248.1111 -7435.2875 303.1392 647.7468 680.5486 30063.5330 -5.8872 58.5319
ENERGY: 900000 1.3703 4.5434 5.1437 0.0000 -10561.5336 1389.2798 0.0000 0.0000 1774.4816 -7386.7149 304.0898 -9161.1965 -7421.4457 303.5537 -238.2857 -165.9970 30276.1699 -37.2108 22.5528
ENERGY: 1200000 1.7899 7.9585 4.5054 0.0000 -10428.0680 1319.7700 0.0000 0.0000 1789.1826 -7304.8614 306.6091 -9094.0441 -7426.2979 302.7390 -351.1691 -381.3154 30003.0111 -75.9464 -15.6060
ENERGY: 1500000 0.7692 7.4747 5.7690 0.0000 -10588.3322 1398.0539 0.0000 0.0000 1732.4348 -7443.8306 296.8843 -9176.2654 -7429.1371 301.5451 -159.8767 -96.7093 30124.9876 -111.0534 -50.2983
TCL: Running FEP window  16: Lambda1 0.24999999999999967 Lambda2 0.19999999999999968 [dLambda -0.04999999999999999]
TCL: Setting parameter firsttimestep to 0
TCL: Setting parameter alchLambda to 0.24999999999999967
Info: NONBONDED TABLE R-SQUARED SPACING: 0.0625
Info: NONBONDED TABLE SIZE: 705 POINTS
TCL: Setting parameter alchLambda2 to 0.19999999999999968
Info: NONBONDED TABLE R-SQUARED SPACING: 0.0625
Info: NONBONDED TABLE SIZE: 705 POINTS
TCL: Running for 1500000 steps
ETITLE: TS BOND ANGLE DIHED IMPRP ELECT VDW BOUNDARY MISC KINETIC TOTAL TEMP POTENTIAL TOTALAVG TEMPAVG PRESSURE GPRESSURE VOLUME PRESSAVG GPRESSAVG
ENERGY: 0 0.7692 7.4747 5.7690 0.0000 -10588.3318 1398.4618 0.0000 0.0000 1731.5800 -7444.2771 296.7379 -9175.8571 -7444.2771 296.7379 -171.3794 -96.6752 30124.9876 -171.3794 -96.6752
ENERGY: 300000 1.5454 8.7320 5.3145 0.0000 -10604.0933 1411.9839 0.0000 0.0000 1728.8435 -7447.6740 296.2689 -9176.5175 -7430.0804 299.7305 -362.3157 -248.4931 30287.3445 -235.5017 -161.2932
ENERGY: 600000 1.4266 7.7453 4.0403 0.0000 -10619.2914 1421.3950 0.0000 0.0000 1743.5912 -7441.0930 298.7962 -9184.6842 -7446.2937 299.3760 -139.0711 -54.1882 29992.3478 -125.7678 -56.5191
ENERGY: 900000 0.5741 6.8884 3.6408 0.0000 -10732.1175 1438.1607 0.0000 0.0000 1759.2028 -7523.6508 301.4715 -9282.8535 -7457.7547 298.4359 -29.3583 21.4663 29924.5577 -100.7614 -30.0656
ENERGY: 1200000 0.5633 6.5084 4.2203 0.0000 -10532.2927 1403.4662 0.0000 0.0000 1775.6798 -7341.8547 304.2952 -9117.5345 -7440.2178 299.0538 14.5160 20.7384 30221.8300 -33.4045 26.1861
ENERGY: 1500000 1.2865 8.6021 5.7630 0.0000 -10642.6673 1383.3349 0.0000 0.0000 1749.1892 -7494.4916 299.7555 -9243.6808 -7441.9743 299.8234 -411.3319 -404.3142 30116.0388 -39.9980 22.6931
TCL: Running FEP window  17: Lambda1 0.19999999999999968 Lambda2 0.1499999999999997 [dLambda -0.04999999999999999]
TCL: Setting parameter firsttimestep to 0
TCL: Setting parameter alchLambda to 0.19999999999999968
Info: NONBONDED TABLE R-SQUARED SPACING: 0.0625
Info: NONBONDED TABLE SIZE: 705 POINTS
TCL: Setting parameter alchLambda2 to 0.1499999999999997
Info: NONBONDED TABLE R-SQUARED SPACING: 0.0625
Info: NONBONDED TABLE SIZE: 705 POINTS
TCL: Running for 1500000 steps
ETITLE: TS BOND ANGLE DIHED IMPRP ELECT VDW BOUNDARY MISC KINETIC TOTAL TEMP POTENTIAL TOTALAVG TEMPAVG PRESSURE GPRESSURE VOLUME PRESSAVG GPRESSAVG
ENERGY: 0 1.2865 8.6021 5.7630 0.0000 -10642.6675 1382.8202 0.0000 0.0000 1748.2611 -7495.9346 299.5965 -9244.1957 -7495.9346 299.5965 -492.4569 -411.2123 30116.0388 -492.4569 -411.2123
ENERGY: 300000 1.7885 6.5333 7.0643 0.0000 -10695.6458 1436.5195 0.0000 0.0000 1801.8833 -7441.8568 308.7856 -9243.7402 -7441.3077 300.9848 -230.0411 -196.7488 30387.8474 -100.2509 -34.6416
ENERGY: 600000 0.8175 7.6642 5.8399 0.0000 -10674.3444 1479.0235 0.0000 0.0000 1725.1797 -7455.8197 295.6410 -9180.9994 -7434.9321 300.5288 382.9888 479.9103 29944.6487 -84.2298 -5.1020
ENERGY: 900000 1.4621 8.0270 4.2953 0.0000 -10666.1493 1481.6372 0.0000 0.0000 1730.2167 -7440.5110 296.5042 -9170.7277 -7437.0567 298.5508 332.5432 440.6397 30064.0525 77.2516 153.8785
ENERGY: 1200000 2.8055 8.6154 5.5220 0.0000 -10765.1633 1493.5556 0.0000 0.0000 1780.2706 -7474.3943 305.0819 -9254.6649 -7449.3689 298.6683 387.3082 411.8304 29957.3967 57.8738 132.3258
ENERGY: 1500000 2.7824 3.8279 4.6137 0.0000 -10653.8877 1444.2237 0.0000 0.0000 1788.7448 -7409.6952 306.5341 -9198.4400 -7442.6798 299.3046 352.1424 383.0833 29861.5975 168.1500 231.6781
TCL: Running FEP window  18: Lambda1 0.1499999999999997 Lambda2 0.09999999999999969 [dLambda -0.05 ]
TCL: Setting parameter firsttimestep to 0
TCL: Setting parameter alchLambda to 0.1499999999999997
Info: NONBONDED TABLE R-SQUARED SPACING: 0.0625
Info: NONBONDED TABLE SIZE: 705 POINTS
TCL: Setting parameter alchLambda2 to 0.09999999999999969
Info: NONBONDED TABLE R-SQUARED SPACING: 0.0625
Info: NONBONDED TABLE SIZE: 705 POINTS
TCL: Running for 1500000 steps
ETITLE: TS BOND ANGLE DIHED IMPRP ELECT VDW BOUNDARY MISC KINETIC TOTAL TEMP POTENTIAL TOTALAVG TEMPAVG PRESSURE GPRESSURE VOLUME PRESSAVG GPRESSAVG
ENERGY: 0 2.7824 3.8279 4.6137 0.0000 -10653.8873 1444.0838 0.0000 0.0000 1787.8717 -7410.7078 306.3845 -9198.5795 -7410.7078 306.3845 297.8912 379.8186 29861.5975 297.8912 379.8186
ENERGY: 300000 2.3485 9.5968 3.8083 0.0000 -10515.3772 1357.9142 0.0000 0.0000 1817.6632 -7324.0462 311.4898 -9141.7094 -7387.7671 304.5643 -517.6662 -410.1678 30184.3715 -28.3889 34.3711
ENERGY: 600000 1.6599 7.6268 5.8046 0.0000 -10631.0765 1428.3057 0.0000 0.0000 1753.0664 -7434.6130 300.4199 -9187.6794 -7405.3041 303.4676 43.8129 68.8061 29962.6140 -121.2546 -57.1853
ENERGY: 900000 1.3351 8.1133 3.3783 0.0000 -10618.9196 1420.0991 0.0000 0.0000 1750.0251 -7435.9688 299.8987 -9185.9938 -7420.6857 302.4242 -86.3324 31.8074 30312.9498 -36.3534 26.6462
ENERGY: 1200000 1.2691 5.7699 4.0133 0.0000 -10699.5985 1480.0942 0.0000 0.0000 1838.2878 -7370.1643 315.0242 -9208.4521 -7418.3338 302.6371 378.7663 454.1716 29995.6343 -20.8851 44.5429
ENERGY: 1500000 0.8470 5.8174 3.9517 0.0000 -10590.9093 1443.4678 0.0000 0.0000 1717.6019 -7419.2235 294.3424 -9136.8254 -7413.6762 302.2605 201.5393 266.0828 29937.1322 -36.6971 29.0555
TCL: Running FEP window  19: Lambda1 0.09999999999999969 Lambda2 0.049999999999999684 [dLambda -0.05 ]
TCL: Setting parameter firsttimestep to 0
TCL: Setting parameter alchLambda to 0.09999999999999969
Info: NONBONDED TABLE R-SQUARED SPACING: 0.0625
Info: NONBONDED TABLE SIZE: 705 POINTS
TCL: Setting parameter alchLambda2 to 0.049999999999999684
Info: NONBONDED TABLE R-SQUARED SPACING: 0.0625
Info: NONBONDED TABLE SIZE: 705 POINTS
TCL: Running for 1500000 steps
ETITLE: TS BOND ANGLE DIHED IMPRP ELECT VDW BOUNDARY MISC KINETIC TOTAL TEMP POTENTIAL TOTALAVG TEMPAVG PRESSURE GPRESSURE VOLUME PRESSAVG GPRESSAVG
ENERGY: 0 0.8470 5.8174 3.9517 0.0000 -10590.9092 1442.7713 0.0000 0.0000 1716.7398 -7420.7820 294.1947 -9137.5218 -7420.7820 294.1947 175.8843 259.6641 29937.1322 175.8843 259.6641
ENERGY: 300000 1.1349 9.0216 5.1663 0.0000 -10526.8259 1355.6547 0.0000 0.0000 1697.1221 -7458.7263 290.8329 -9155.8484 -7457.9835 294.9828 -710.8649 -677.1387 30651.6583 11.8745 84.9666
ENERGY: 600000 2.9734 9.4226 4.5794 0.0000 -10712.7065 1484.7191 0.0000 0.0000 1797.0045 -7414.0074 307.9495 -9211.0119 -7462.6091 296.3390 521.9569 613.1387 29639.8837 71.4783 137.3696
ENERGY: 900000 2.2117 5.5654 4.0119 0.0000 -10775.2606 1493.3778 0.0000 0.0000 1731.6691 -7538.4247 296.7531 -9270.0938 -7460.1229 297.6105 83.8194 215.5916 29938.6109 91.7395 161.9276
ENERGY: 1200000 0.5652 8.0073 6.7907 0.0000 -10683.3479 1457.0927 0.0000 0.0000 1737.7318 -7473.1603 297.7921 -9210.8920 -7457.5440 297.5191 232.4546 232.4077 29845.6472 98.8603 167.2994
ENERGY: 1500000 1.0920 3.4205 5.4356 0.0000 -10658.6274 1489.1981 0.0000 0.0000 1753.8543 -7405.6270 300.5550 -9159.4813 -7455.1857 297.9428 563.0595 700.4683 29794.1655 82.7736 155.3645
TCL: Running FEP window  20: Lambda1 0.049999999999999684 Lambda2 0.0    [dLambda -0.049999999999999684]
TCL: Setting parameter firsttimestep to 0
TCL: Setting parameter alchLambda to 0.049999999999999684
Info: NONBONDED TABLE R-SQUARED SPACING: 0.0625
Info: NONBONDED TABLE SIZE: 705 POINTS
TCL: Setting parameter alchLambda2 to 0.0
Info: NONBONDED TABLE R-SQUARED SPACING: 0.0625
Info: NONBONDED TABLE SIZE: 705 POINTS
TCL: Running for 1500000 steps
ETITLE: TS BOND ANGLE DIHED IMPRP ELECT VDW BOUNDARY MISC KINETIC TOTAL TEMP POTENTIAL TOTALAVG TEMPAVG PRESSURE GPRESSURE VOLUME PRESSAVG GPRESSAVG
ENERGY: 0 1.0920 3.4205 5.4356 0.0000 -10658.6265 1487.6085 0.0000 0.0000 1752.9928 -7408.0771 300.4073 -9161.0699 -7408.0771 300.4073 590.0072 692.9201 29794.1655 590.0072 692.9201
ENERGY: 300000 1.3455 8.2333 3.4963 0.0000 -10716.7767 1488.6892 0.0000 0.0000 1771.8101 -7443.2022 303.6320 -9215.0123 -7475.0021 297.3822 634.0186 699.2740 29344.3211 574.1422 644.9226
ENERGY: 600000 2.5640 4.7443 4.4830 0.0000 -10700.0133 1449.1833 0.0000 0.0000 1722.6755 -7516.3632 295.2119 -9239.0388 -7458.4329 300.2854 -483.0671 -386.7861 30603.0834 172.0971 243.3044
ENERGY: 900000 1.6024 9.4128 5.5948 0.0000 -10577.3029 1388.5579 0.0000 0.0000 1737.7559 -7434.3790 297.7962 -9172.1350 -7448.8768 299.1300 -80.4059 -34.0025 29835.7578 149.2799 219.1568
ENERGY: 1200000 1.6286 6.6891 3.3026 0.0000 -10534.2717 1388.4576 0.0000 0.0000 1779.3615 -7354.8324 304.9261 -9134.1939 -7435.3318 299.7581 -147.7166 -70.8662 29909.1788 116.0310 186.9468
ENERGY: 1500000 1.2593 11.5805 5.7478 0.0000 -10557.7723 1342.8206 0.0000 0.0000 1729.4838 -7466.8803 296.3786 -9196.3641 -7434.5929 299.9338 -771.5927 -724.3574 30067.5393 -4.9612 67.8393
TCL: Exiting due to exit command.
