Info: SIMULATION PARAMETERS:
Info: TIMESTEP               2
Info: NUMBER OF STEPS        0
Info: STEPS PER CYCLE        10
Info: PERIODIC CELL BASIS 1  30.6776 0 0
Info: PERIODIC CELL BASIS 2  0 31.9622 0
Info: PERIODIC CELL BASIS 3  0 0 30.6495
Info: PERIODIC CELL CENTER   0 0 0
Info: WRAPPING WATERS AROUND PERIODIC BOUNDARIES ON OUTPUT.
Info: WRAPPING ALL CLUSTERS AROUND PERIODIC BOUNDARIES ON OUTPUT.
Info: FIRST LDB TIMESTEP     50
Info: LAST LDB TIMESTEP     -1
Info: HOM BACKGROUND SCALING 1
Info: PME BACKGROUND SCALING 1
Info: MIN ATOMS PER PATCH    40
Info: EMPTY PATCH LOAD       40 ATOMS
Info: VELOCITY FILE          mobley_9624458_equil.vel
Info: CENTER OF MASS MOVING INITIALLY? NO
Info: DIELECTRIC             1
Info: EXCLUDE                SCALED ONE-FOUR
Info: 1-4 ELECTROSTATICS SCALED BY 0.833333
Info: MODIFIED 1-4 VDW PARAMETERS WILL BE USED
Info: DCD FILENAME           mobley_9624458_prod.dcd
Info: DCD FREQUENCY          100000
Info: DCD FIRST STEP         100000
Info: DCD FILE WILL CONTAIN UNIT CELL DATA
Info: XST FILENAME           mobley_9624458_prod.xst
Info: XST FREQUENCY          100000
Info: NO VELOCITY DCD OUTPUT
Info: NO FORCE DCD OUTPUT
Info: OUTPUT FILENAME        mobley_9624458_prod
Info: BINARY OUTPUT FILES WILL BE USED
Info: RESTART FILENAME       mobley_9624458_prod.restart
Info: RESTART FREQUENCY      100000
Info: BINARY RESTART FILES WILL BE USED
Info: CUTOFF                 9
Info: PAIRLIST DISTANCE      11
Info: PAIRLIST SHRINK RATE   0.01
Info: PAIRLIST GROW RATE     0.01
Info: PAIRLIST TRIGGER       0.3
Info: PAIRLISTS PER CYCLE    2
Info: PAIRLISTS ENABLED
Info: MARGIN                 2
Info: HYDROGEN GROUP CUTOFF  2.5
Info: PATCH DIMENSION        15.5
Info: ENERGY OUTPUT STEPS    100000
Info: ENERGY EVALUATION STEPS    100000
Info: OUTPUT ENERGY PRECISION 4
Info: CROSSTERM ENERGY INCLUDED IN DIHEDRAL
Info: TIMING OUTPUT STEPS    1000000
Info: PRESSURE OUTPUT STEPS  100000
Info: ALCHEMICAL FEP ON
Info: FEP CURRENT LAMBDA VALUE     1
Info: FEP COMPARISON LAMBDA VALUE  0.95
Info: FEP INTRA-ALCHEMICAL NON-BONDED INTERACTIONS WILL BE RETAINED
Info: FEP INTRA-ALCHEMICAL BONDED INTERACTIONS WILL BE RETAINED
Info: FEP VDW SHIFTING COEFFICIENT 5
Info: FEP ELEC. ACTIVE FOR ANNIHILATED PARTICLES BETWEEN LAMBDA = 0 AND LAMBDA = 0.5
Info: FEP ELEC. ACTIVE FOR EXNIHILATED PARTICLES BETWEEN LAMBDA = 0.5 AND LAMBDA = 1
Info: FEP VDW ACTIVE FOR ANNIHILATED PARTICLES BETWEEN LAMBDA = 0 AND LAMBDA = 1
Info: FEP VDW ACTIVE FOR EXNIHILATED PARTICLES BETWEEN LAMBDA = 0 AND LAMBDA = 1
Info: FEP BOND ACTIVE FOR ANNIHILATED PARTICLES BETWEEN LAMBDA = 1 AND LAMBDA = 1
Info: FEP BOND ACTIVE FOR EXNIHILATED PARTICLES BETWEEN LAMBDA = 0 AND LAMBDA = 0
Info: LANGEVIN DYNAMICS ACTIVE
Info: LANGEVIN TEMPERATURE   300
Info: LANGEVIN USING BBK INTEGRATOR
Info: LANGEVIN DAMPING COEFFICIENT IS 1 INVERSE PS
Info: LANGEVIN DYNAMICS APPLIED TO HYDROGENS
Info: LANGEVIN PISTON PRESSURE CONTROL ACTIVE
Info:        TARGET PRESSURE IS 1.01325 BAR
Info:     OSCILLATION PERIOD IS 50 FS
Info:             DECAY TIME IS 25 FS
Info:     PISTON TEMPERATURE IS 300 K
Info:       PRESSURE CONTROL IS GROUP-BASED
Info:    INITIAL STRAIN RATE IS 0.000620429 0.000620429 0.000620429
Info:       CELL FLUCTUATION IS ISOTROPIC
Info: PARTICLE MESH EWALD (PME) ACTIVE
Info: PME TOLERANCE               1e-06
Info: PME EWALD COEFFICIENT       0.348832
Info: PME INTERPOLATION ORDER     4
Info: PME GRID DIMENSIONS         32 32 32
Info: PME MAXIMUM GRID SPACING    1
Info: PME CALCULATION WILL BE PERFORMED ON GPU
Info: FULL ELECTROSTATIC EVALUATION FREQUENCY      2
Info: USING VERLET I (r-RESPA) MTS SCHEME.
Info: C1 SPLITTING OF LONG RANGE ELECTROSTATICS
Info: PLACING ATOMS IN PATCHES BY HYDROGEN GROUPS
Info: RIGID BONDS TO HYDROGEN : ALL
Info:         ERROR TOLERANCE : 1e-08
Info:          MAX ITERATIONS : 100
Info: RIGID WATER USING SETTLE ALGORITHM
Info: RANDOM NUMBER SEED     1743822005
Info: USE HYDROGEN BONDS?    NO
Info: Using AMBER format force field!
Info: AMBER PARM FILE        mobley_9624458.prmtop
Info: COORDINATE PDB         mobley_9624458.pdb
Info: Exclusions will be read from PARM file!
Info: SCNB (VDW SCALING)     2
Info: USING ARITHMETIC MEAN TO COMBINE L-J SIGMA PARAMETERS
Info: BINARY COORDINATES     mobley_9624458_equil.coor
Info: SUMMARY OF PARAMETERS:
Info: 6 BONDS
Info: 7 ANGLES
Info:   7 HARMONIC
Info:   0 COSINE-BASED
Info: 3 DIHEDRAL
Info: 0 IMPROPER
Info: 0 CROSSTERM
Info: 0 VDW
Info: 21 VDW_PAIRS
Info: 0 NBTHOLE_PAIRS
Info: To read alchdata from file: mobley_9624458.pdb
Info: To read alchflag data from column: 5
Info: STRUCTURE SUMMARY:
Info: 2909 ATOMS
Info: 2908 BONDS
Info: 18 ANGLES
Info: 22 DIHEDRALS
Info: 0 IMPROPERS
Info: 0 CROSSTERMS
Info: 2944 EXCLUSIONS
Info: 2904 RIGID BONDS
Info: ALCH: 0 ATOMS TO DISAPPEAR IN FINAL STATE
Info: ALCH: 11 ATOMS TO APPEAR IN FINAL STATE
Info: 5823 DEGREES OF FREEDOM
Info: 971 HYDROGEN GROUPS
Info: 3 ATOMS IN LARGEST HYDROGEN GROUP
Info: 971 MIGRATION GROUPS
Info: 3 ATOMS IN LARGEST MIGRATION GROUP
Info: TOTAL MASS = 17516.4 amu
Info: TOTAL CHARGE = 0 e
Info: MASS DENSITY = 0.967885 g/cm^3
Info: ATOM DENSITY = 0.0967971 atoms/A^3
Info: ADDED 0 IMPLICIT EXCLUSIONS
Info: NONBONDED TABLE R-SQUARED SPACING: 0.0625
Info: NONBONDED TABLE SIZE: 705 POINTS
Info: REMOVING COM VELOCITY 0.0446591 0.104155 0.150541
Info: Use 3D box decompostion in PME FFT.
Info: Updated CUDA force table with 4096 elements.
Info: Updated CUDA LJ table with 6 x 6 elements.
Info: Found 14 unique exclusion lists needing 24 bytes
TCL: Running for 1500000 steps
ETITLE: TS BOND ANGLE DIHED IMPRP ELECT VDW BOUNDARY MISC KINETIC TOTAL TEMP POTENTIAL TOTALAVG TEMPAVG PRESSURE GPRESSURE VOLUME PRESSAVG GPRESSAVG
ENERGY: 0 1.8379 3.9227 1.2963 0.0000 -10571.9241 1386.8154 0.0000 0.0000 1732.2031 -7445.8488 299.3935 -9178.0519 -7445.8488 299.3935 -343.6086 -268.2130 30052.5451 -343.6086 -268.2130
ENERGY: 300000 1.0621 1.8272 2.3158 0.0000 -10521.2486 1349.1110 0.0000 0.0000 1736.3684 -7430.5642 300.1135 -9166.9325 -7401.0527 301.3520 -429.8261 -314.1800 29929.8643 -21.9303 64.5969
ENERGY: 600000 1.8925 5.1813 1.0460 0.0000 -10570.6212 1436.0262 0.0000 0.0000 1707.9452 -7418.5300 295.2008 -9126.4752 -7404.2090 300.0251 -52.8872 -57.4828 30134.5987 25.4097 99.3153
ENERGY: 900000 1.0069 4.0565 1.4020 0.0000 -10509.0257 1420.7614 0.0000 0.0000 1734.0884 -7347.7106 299.7194 -9081.7990 -7408.5805 300.5573 37.7926 127.9499 29926.9102 -51.4417 18.4896
ENERGY: 1200000 0.5573 3.2393 1.9771 0.0000 -10456.1736 1377.4843 0.0000 0.0000 1732.2175 -7340.6980 299.3960 -9072.9156 -7399.2958 300.4865 -259.7762 -166.1317 30352.5716 -72.9145 -6.3877
ENERGY: 1500000 1.3186 2.5649 1.1420 0.0000 -10585.9341 1461.5383 0.0000 0.0000 1748.8837 -7370.4866 302.2766 -9119.3703 -7394.4850 300.9512 497.6416 588.2160 29771.5790 -50.4881 21.8177
TCL: Running FEP window   2: Lambda1 0.95   Lambda2 0.8999999999999999 [dLambda -0.050000000000000044]
TCL: Setting parameter firsttimestep to 0
TCL: Setting parameter alchLambda to 0.95
Info: NONBONDED TABLE R-SQUARED SPACING: 0.0625
Info: NONBONDED TABLE SIZE: 705 POINTS
TCL: Setting parameter alchLambda2 to 0.8999999999999999
Info: NONBONDED TABLE R-SQUARED SPACING: 0.0625
Info: NONBONDED TABLE SIZE: 705 POINTS
TCL: Running for 1500000 steps
ETITLE: TS BOND ANGLE DIHED IMPRP ELECT VDW BOUNDARY MISC KINETIC TOTAL TEMP POTENTIAL TOTALAVG TEMPAVG PRESSURE GPRESSURE VOLUME PRESSAVG GPRESSAVG
ENERGY: 0 1.3186 2.5649 1.1420 0.0000 -10585.7746 1461.8602 0.0000 0.0000 1748.0570 -7370.8319 302.1337 -9118.8889 -7370.8319 302.1337 498.3679 583.3593 29771.5790 498.3679 583.3593
ENERGY: 300000 2.3069 2.6562 2.0059 0.0000 -10313.4282 1265.4563 0.0000 0.0000 1789.5107 -7251.4923 309.2986 -9041.0030 -7371.6529 301.9819 -1316.7071 -1271.0088 30958.6302 -88.6884 -12.6565
ENERGY: 600000 0.7964 4.2018 1.6628 0.0000 -10626.7303 1427.8339 0.0000 0.0000 1698.6455 -7493.5899 293.5934 -9192.2355 -7381.0046 301.1883 -159.1232 -64.6032 29954.1237 -48.7051 27.2429
ENERGY: 900000 3.1386 3.6313 1.9132 0.0000 -10548.1740 1415.5343 0.0000 0.0000 1716.5845 -7407.3720 296.6940 -9123.9565 -7389.7668 299.0053 15.6270 78.1169 29956.4827 -176.9757 -108.0929
ENERGY: 1200000 2.4299 2.5695 2.5943 0.0000 -10557.5910 1405.0230 0.0000 0.0000 1734.5290 -7410.4453 299.7955 -9144.9743 -7393.5874 299.2535 -131.0324 22.1922 29756.4345 -88.8409 -15.8490
ENERGY: 1500000 0.3959 5.1970 1.7023 0.0000 -10594.2053 1412.1958 0.0000 0.0000 1776.2867 -7398.4274 307.0129 -9174.7142 -7403.0196 299.5864 -261.8711 -198.6949 30300.5197 -79.8850 -13.7435
TCL: Running FEP window   3: Lambda1 0.8999999999999999 Lambda2 0.8499999999999999 [dLambda -0.050000000000000044]
TCL: Setting parameter firsttimestep to 0
TCL: Setting parameter alchLambda to 0.8999999999999999
Info: NONBONDED TABLE R-SQUARED SPACING: 0.0625
Info: NONBONDED TABLE SIZE: 705 POINTS
TCL: Setting parameter alchLambda2 to 0.8499999999999999
Info: NONBONDED TABLE R-SQUARED SPACING: 0.0625
Info: NONBONDED TABLE SIZE: 705 POINTS
TCL: Running for 1500000 steps
ETITLE: TS BOND ANGLE DIHED IMPRP ELECT VDW BOUNDARY MISC KINETIC TOTAL TEMP POTENTIAL TOTALAVG TEMPAVG PRESSURE GPRESSURE VOLUME PRESSAVG GPRESSAVG
ENERGY: 0 0.3959 5.1970 1.7023 0.0000 -10594.1181 1412.4845 0.0000 0.0000 1775.4171 -7398.9212 306.8626 -9174.3383 -7398.9212 306.8626 -279.1004 -204.0196 30300.5197 -279.1004 -204.0196
ENERGY: 300000 1.6175 9.2844 1.1264 0.0000 -10523.5410 1399.3881 0.0000 0.0000 1774.2825 -7337.8420 306.6665 -9112.1246 -7351.3885 302.4509 -343.2389 -313.0937 30440.0775 -211.5928 -157.6778
ENERGY: 600000 0.3823 6.2184 1.1679 0.0000 -10646.1262 1427.0233 0.0000 0.0000 1714.6786 -7496.6557 296.3646 -9211.3343 -7372.9351 300.1165 -434.8708 -363.3757 30164.8087 -149.1560 -82.5391
ENERGY: 900000 1.9393 5.5517 2.4409 0.0000 -10486.3096 1377.1977 0.0000 0.0000 1735.7197 -7363.4604 300.0013 -9099.1801 -7382.2938 300.2997 -311.9518 -245.2503 30036.1860 -162.6313 -105.6818
ENERGY: 1200000 1.5193 7.2148 1.8080 0.0000 -10478.5641 1382.5831 0.0000 0.0000 1752.7127 -7332.7262 302.9384 -9085.4389 -7380.2495 299.4186 -117.6665 -36.5838 29834.5679 -141.9179 -86.6113
ENERGY: 1500000 1.0514 9.3410 1.4653 0.0000 -10602.2775 1447.7687 0.0000 0.0000 1764.2603 -7378.3908 304.9343 -9142.6512 -7378.7682 300.1217 407.4309 557.8249 29495.2481 -117.6078 -52.8844
TCL: Running FEP window   4: Lambda1 0.8499999999999999 Lambda2 0.7999999999999998 [dLambda -0.050000000000000044]
TCL: Setting parameter firsttimestep to 0
TCL: Setting parameter alchLambda to 0.8499999999999999
Info: NONBONDED TABLE R-SQUARED SPACING: 0.0625
Info: NONBONDED TABLE SIZE: 705 POINTS
TCL: Setting parameter alchLambda2 to 0.7999999999999998
Info: NONBONDED TABLE R-SQUARED SPACING: 0.0625
Info: NONBONDED TABLE SIZE: 705 POINTS
TCL: Running for 1500000 steps
ETITLE: TS BOND ANGLE DIHED IMPRP ELECT VDW BOUNDARY MISC KINETIC TOTAL TEMP POTENTIAL TOTALAVG TEMPAVG PRESSURE GPRESSURE VOLUME PRESSAVG GPRESSAVG
ENERGY: 0 1.0514 9.3410 1.4653 0.0000 -10602.1718 1448.2546 0.0000 0.0000 1763.3696 -7378.6900 304.7803 -9142.0595 -7378.6900 304.7803 454.4009 553.8850 29495.2481 454.4009 553.8850
ENERGY: 300000 0.3083 3.6078 1.3131 0.0000 -10463.0751 1304.3332 0.0000 0.0000 1746.2140 -7407.2986 301.8152 -9153.5127 -7396.9426 300.9501 -717.9960 -613.6308 29493.2649 -271.4756 -180.2918
ENERGY: 600000 0.5249 6.0396 2.5532 0.0000 -10587.9174 1486.7361 0.0000 0.0000 1713.1080 -7378.9556 296.0931 -9092.0636 -7388.7426 299.9446 663.2283 769.0742 29780.1277 -192.6119 -103.5785
ENERGY: 900000 0.5301 4.7155 1.9056 0.0000 -10512.6199 1428.5386 0.0000 0.0000 1759.8719 -7317.0582 304.1758 -9076.9301 -7364.1646 301.4998 348.4930 394.3652 29708.1000 -203.5059 -115.6199
ENERGY: 1200000 4.7984 1.9818 1.3625 0.0000 -10551.9777 1414.1358 0.0000 0.0000 1751.9741 -7377.7251 302.8107 -9129.6992 -7366.4953 301.5739 17.9214 58.5951 29880.0966 -119.3778 -37.6026
ENERGY: 1500000 2.4067 3.5388 1.3271 0.0000 -10518.2491 1400.7608 0.0000 0.0000 1701.2197 -7408.9959 294.0384 -9110.2156 -7372.3939 300.9648 -530.0673 -446.7398 30463.4402 -101.6726 -27.6461
TCL: Running FEP window   5: Lambda1 0.7999999999999998 Lambda2 0.7499999999999998 [dLambda -0.050000000000000044]
TCL: Setting parameter firsttimestep to 0
TCL: Setting parameter alchLambda to 0.7999999999999998
Info: NONBONDED TABLE R-SQUARED SPACING: 0.0625
Info: NONBONDED TABLE SIZE: 705 POINTS
TCL: Setting parameter alchLambda2 to 0.7499999999999998
Info: NONBONDED TABLE R-SQUARED SPACING: 0.0625
Info: NONBONDED TABLE SIZE: 705 POINTS
TCL: Running for 1500000 steps
ETITLE: TS BOND ANGLE DIHED IMPRP ELECT VDW BOUNDARY MISC KINETIC TOTAL TEMP POTENTIAL TOTALAVG TEMPAVG PRESSURE GPRESSURE VOLUME PRESSAVG GPRESSAVG
ENERGY: 0 2.4067 3.5388 1.3271 0.0000 -10518.1123 1401.1772 0.0000 0.0000 1700.3351 -7409.3274 293.8855 -9109.6625 -7409.3274 293.8855 -535.9311 -450.9979 30463.4402 -535.9311 -450.9979
ENERGY: 300000 0.7232 4.2385 1.0717 0.0000 -10585.1320 1446.6001 0.0000 0.0000 1758.6818 -7373.8167 303.9701 -9132.4985 -7398.7985 296.1075 108.1529 151.6679 29900.7287 -198.8374 -144.1648
ENERGY: 600000 0.1956 4.2720 2.4335 0.0000 -10510.4576 1336.8246 0.0000 0.0000 1734.1838 -7432.5481 299.7359 -9166.7319 -7392.5595 297.9634 -688.8516 -654.4488 30074.4426 -209.8061 -152.5579
ENERGY: 900000 1.0285 7.1244 2.8282 0.0000 -10573.4610 1405.7613 0.0000 0.0000 1735.0470 -7421.6717 299.8851 -9156.7187 -7407.1607 297.9227 -31.9784 56.7870 29584.4459 -94.4034 -19.5786
ENERGY: 1200000 0.8815 4.0260 2.1304 0.0000 -10463.3976 1367.9868 0.0000 0.0000 1718.9650 -7369.4078 297.1055 -9088.3728 -7402.6602 298.1783 -314.1508 -224.4404 29934.4142 -66.9542 5.9065
ENERGY: 1500000 1.9897 2.7737 1.3002 0.0000 -10649.7953 1457.7315 0.0000 0.0000 1727.3997 -7458.6004 298.5633 -9186.0001 -7407.3699 298.3058 -62.3559 4.7283 29994.9471 -128.6913 -55.8998
TCL: Running FEP window   6: Lambda1 0.7499999999999998 Lambda2 0.6999999999999997 [dLambda -0.050000000000000044]
TCL: Setting parameter firsttimestep to 0
TCL: Setting parameter alchLambda to 0.7499999999999998
Info: NONBONDED TABLE R-SQUARED SPACING: 0.0625
Info: NONBONDED TABLE SIZE: 705 POINTS
TCL: Setting parameter alchLambda2 to 0.6999999999999997
Info: NONBONDED TABLE R-SQUARED SPACING: 0.0625
Info: NONBONDED TABLE SIZE: 705 POINTS
TCL: Running for 1500000 steps
ETITLE: TS BOND ANGLE DIHED IMPRP ELECT VDW BOUNDARY MISC KINETIC TOTAL TEMP POTENTIAL TOTALAVG TEMPAVG PRESSURE GPRESSURE VOLUME PRESSAVG GPRESSAVG
ENERGY: 0 1.9897 2.7737 1.3002 0.0000 -10649.3856 1458.2666 0.0000 0.0000 1726.5251 -7458.5303 298.4121 -9185.0554 -7458.5303 298.4121 -92.0790 4.0472 29994.9471 -92.0790 4.0472
ENERGY: 300000 0.4826 1.8234 1.3433 0.0000 -10578.5309 1449.7049 0.0000 0.0000 1769.0762 -7356.1006 305.7667 -9125.1768 -7426.1017 300.4667 460.9362 548.6811 29504.4548 -130.7491 -73.4833
ENERGY: 600000 0.6294 7.0837 1.7489 0.0000 -10471.2487 1285.1361 0.0000 0.0000 1772.2630 -7404.3874 306.3175 -9176.6505 -7403.8705 300.6211 -1124.7794 -1073.0344 29895.6591 -334.4335 -283.5488
ENERGY: 900000 2.4556 4.0749 1.3633 0.0000 -10439.7213 1310.8619 0.0000 0.0000 1682.2295 -7438.7361 290.7561 -9120.9656 -7407.3194 299.3161 -866.4416 -847.0669 30201.9230 -360.2808 -308.6955
ENERGY: 1200000 2.2240 3.7545 1.2682 0.0000 -10469.1626 1366.5354 0.0000 0.0000 1721.0900 -7374.2904 297.4727 -9095.3804 -7404.3104 298.4816 -368.4225 -428.2935 30213.1228 -344.7855 -302.7799
ENERGY: 1500000 1.4909 3.8496 0.8672 0.0000 -10556.4055 1417.7058 0.0000 0.0000 1749.5771 -7382.9148 302.3964 -9132.4919 -7396.5795 298.5464 17.4454 89.0087 30017.1899 -243.3183 -194.9111
TCL: Running FEP window   7: Lambda1 0.6999999999999997 Lambda2 0.6499999999999997 [dLambda -0.050000000000000044]
TCL: Setting parameter firsttimestep to 0
TCL: Setting parameter alchLambda to 0.6999999999999997
Info: NONBONDED TABLE R-SQUARED SPACING: 0.0625
Info: NONBONDED TABLE SIZE: 705 POINTS
TCL: Setting parameter alchLambda2 to 0.6499999999999997
Info: NONBONDED TABLE R-SQUARED SPACING: 0.0625
Info: NONBONDED TABLE SIZE: 705 POINTS
TCL: Running for 1500000 steps
ETITLE: TS BOND ANGLE DIHED IMPRP ELECT VDW BOUNDARY MISC KINETIC TOTAL TEMP POTENTIAL TOTALAVG TEMPAVG PRESSURE GPRESSURE VOLUME PRESSAVG GPRESSAVG
ENERGY: 0 1.4909 3.8496 0.8672 0.0000 -10556.0258 1418.1424 0.0000 0.0000 1748.7212 -7382.9544 302.2485 -9131.6757 -7382.9544 302.2485 16.1251 87.6951 30017.1899 16.1251 87.6951
ENERGY: 300000 1.4563 4.9418 1.8064 0.0000 -10371.8121 1316.5819 0.0000 0.0000 1653.0516 -7393.9742 285.7130 -9047.0258 -7367.5159 298.9070 -784.8437 -694.8846 30407.8299 -71.6679 -4.0381
ENERGY: 600000 2.7120 4.7843 1.8394 0.0000 -10604.1286 1459.4737 0.0000 0.0000 1728.5746 -7406.7446 298.7664 -9135.3192 -7372.8800 299.7265 67.5564 168.6484 30067.0658 -40.6567 10.7319
ENERGY: 900000 1.6748 6.3950 1.0207 0.0000 -10462.5249 1351.8369 0.0000 0.0000 1687.1562 -7414.4414 291.6076 -9101.5975 -7385.0378 300.4031 -756.1785 -725.8478 30358.4201 -163.6105 -107.0265
ENERGY: 1200000 2.1859 4.8920 1.2814 0.0000 -10510.0016 1396.9929 0.0000 0.0000 1765.2234 -7339.4260 305.1007 -9104.6494 -7371.7563 301.1169 17.5434 93.0652 30087.7799 -62.9365 -3.6862
ENERGY: 1500000 0.6552 5.3045 1.6819 0.0000 -10425.9154 1355.9588 0.0000 0.0000 1768.4438 -7293.8712 305.6574 -9062.3150 -7365.4984 301.5946 -233.0901 -152.1041 30010.7403 -119.6437 -55.5071
TCL: Running FEP window   8: Lambda1 0.6499999999999997 Lambda2 0.5999999999999996 [dLambda -0.050000000000000044]
TCL: Setting parameter firsttimestep to 0
TCL: Setting parameter alchLambda to 0.6499999999999997
Info: NONBONDED TABLE R-SQUARED SPACING: 0.0625
Info: NONBONDED TABLE SIZE: 705 POINTS
TCL: Setting parameter alchLambda2 to 0.5999999999999996
Info: NONBONDED TABLE R-SQUARED SPACING: 0.0625
Info: NONBONDED TABLE SIZE: 705 POINTS
TCL: Running for 1500000 steps
ETITLE: TS BOND ANGLE DIHED IMPRP ELECT VDW BOUNDARY MISC KINETIC TOTAL TEMP POTENTIAL TOTALAVG TEMPAVG PRESSURE GPRESSURE VOLUME PRESSAVG GPRESSAVG
ENERGY: 0 0.6552 5.3045 1.6819 0.0000 -10425.9255 1356.0866 0.0000 0.0000 1767.5494 -7294.6479 305.5028 -9062.1973 -7294.6479 305.5028 -247.8496 -157.1714 30010.7403 -247.8496 -157.1714
ENERGY: 300000 0.5403 2.5212 2.8917 0.0000 -10599.8742 1438.8604 0.0000 0.0000 1752.3504 -7402.7101 302.8758 -9155.0606 -7355.4140 301.2700 -90.3180 -3.6442 30081.6032 -178.1956 -97.5181
ENERGY: 600000 0.8386 4.8789 1.3868 0.0000 -10582.3097 1489.6266 0.0000 0.0000 1738.2762 -7347.3026 300.4432 -9085.5788 -7346.4593 300.3530 1083.9544 1092.4398 29396.0643 73.9724 140.1724
ENERGY: 900000 0.7632 3.2634 1.5211 0.0000 -10486.4423 1431.3529 0.0000 0.0000 1685.1295 -7364.4122 291.2573 -9049.5417 -7355.5488 299.9226 441.4906 448.0813 29813.4064 -60.1008 1.9214
ENERGY: 1200000 1.0293 6.0791 1.5061 0.0000 -10517.9631 1385.1071 0.0000 0.0000 1732.2366 -7392.0049 299.3993 -9124.2415 -7373.6945 298.0859 -169.2454 -139.5781 29911.5158 -27.4291 30.4844
ENERGY: 1500000 1.1369 3.4643 1.1458 0.0000 -10663.8676 1442.5658 0.0000 0.0000 1673.5108 -7542.0439 289.2492 -9215.5548 -7379.5852 298.6075 -28.4502 41.0765 29528.3138 -18.4552 43.5101
TCL: Running FEP window   9: Lambda1 0.5999999999999996 Lambda2 0.5499999999999996 [dLambda -0.050000000000000044]
TCL: Setting parameter firsttimestep to 0
TCL: Setting parameter alchLambda to 0.5999999999999996
Info: NONBONDED TABLE R-SQUARED SPACING: 0.0625
Info: NONBONDED TABLE SIZE: 705 POINTS
TCL: Setting parameter alchLambda2 to 0.5499999999999996
Info: NONBONDED TABLE R-SQUARED SPACING: 0.0625
Info: NONBONDED TABLE SIZE: 705 POINTS
TCL: Running for 1500000 steps
ETITLE: TS BOND ANGLE DIHED IMPRP ELECT VDW BOUNDARY MISC KINETIC TOTAL TEMP POTENTIAL TOTALAVG TEMPAVG PRESSURE GPRESSURE VOLUME PRESSAVG GPRESSAVG
ENERGY: 0 1.1369 3.4643 1.1458 0.0000 -10663.5916 1442.8990 0.0000 0.0000 1672.6487 -7542.2970 289.1002 -9214.9457 -7542.2970 289.1002 -25.5656 39.0372 29528.3138 -25.5656 39.0372
ENERGY: 300000 1.4408 3.4136 0.8614 0.0000 -10528.7053 1437.9392 0.0000 0.0000 1749.2412 -7335.8091 302.3384 -9085.0503 -7457.2522 296.2181 347.9813 380.2317 29988.1790 184.2768 218.2981
ENERGY: 600000 0.1649 4.0960 1.2202 0.0000 -10569.4795 1369.0134 0.0000 0.0000 1672.5197 -7522.4653 289.0779 -9194.9851 -7443.0513 296.6304 -682.5472 -606.3417 29788.4147 147.9842 188.7082
ENERGY: 900000 0.9373 2.9426 0.9502 0.0000 -10647.5130 1467.9102 0.0000 0.0000 1737.3409 -7437.4318 300.2815 -9174.7727 -7431.5693 297.6018 318.3928 436.8153 29659.9960 216.4976 279.2211
ENERGY: 1200000 0.3389 3.9887 0.8932 0.0000 -10426.8991 1323.8419 0.0000 0.0000 1778.1954 -7319.6410 307.3428 -9097.8364 -7424.9239 298.8731 -554.4154 -508.7634 30161.3351 72.1765 142.9585
ENERGY: 1500000 1.0510 4.6540 2.8254 0.0000 -10448.1522 1375.9955 0.0000 0.0000 1761.2696 -7302.3568 304.4174 -9063.6263 -7413.8611 299.0045 -256.2318 -111.4462 29911.6173 36.7511 105.4847
TCL: Running FEP window  10: Lambda1 0.5499999999999996 Lambda2 0.4999999999999996 [dLambda -0.04999999999999999]
TCL: Setting parameter firsttimestep to 0
TCL: Setting parameter alchLambda to 0.5499999999999996
Info: NONBONDED TABLE R-SQUARED SPACING: 0.0625
Info: NONBONDED TABLE SIZE: 705 POINTS
TCL: Setting parameter alchLambda2 to 0.4999999999999996
Info: NONBONDED TABLE R-SQUARED SPACING: 0.0625
Info: NONBONDED TABLE SIZE: 705 POINTS
TCL: Running for 1500000 steps
ETITLE: TS BOND ANGLE DIHED IMPRP ELECT VDW BOUNDARY MISC KINETIC TOTAL TEMP POTENTIAL TOTALAVG TEMPAVG PRESSURE GPRESSURE VOLUME PRESSAVG GPRESSAVG
ENERGY: 0 1.0510 4.6540 2.8254 0.0000 -10447.9271 1376.3167 0.0000 0.0000 1760.3843 -7302.6957 304.2643 -9063.0800 -7302.6957 304.2643 -195.3090 -113.0379 29911.6173 -195.3090 -113.0379
ENERGY: 300000 2.7041 3.7752 0.8919 0.0000 -10495.6166 1359.5337 0.0000 0.0000 1734.1725 -7394.5392 299.7339 -9128.7117 -7347.9983 303.6865 -808.8325 -691.9399 30455.0569 -399.7624 -323.9108
ENERGY: 600000 4.9003 6.4713 1.3600 0.0000 -10437.8519 1364.7657 0.0000 0.0000 1727.7066 -7332.6482 298.6163 -9060.3547 -7357.3147 301.1309 -289.5257 -198.9817 30041.6586 -440.0998 -382.3490
ENERGY: 900000 1.7618 7.0628 1.5420 0.0000 -10610.0138 1403.8908 0.0000 0.0000 1752.9026 -7442.8537 302.9712 -9195.7563 -7363.1673 300.7834 -334.1068 -351.3050 29984.4655 -417.2196 -355.8082
ENERGY: 1200000 0.3061 3.3963 1.0994 0.0000 -10568.4005 1415.9404 0.0000 0.0000 1753.1681 -7394.4903 303.0171 -9147.6584 -7372.4050 301.0957 213.3726 243.4830 29592.5393 -397.6642 -338.9629
ENERGY: 1500000 0.3879 2.8409 1.9727 0.0000 -10570.5382 1397.4299 0.0000 0.0000 1783.4594 -7384.4474 308.2527 -9167.9068 -7372.4587 302.4074 -177.6522 -147.9971 29832.9564 -326.5785 -271.0819
TCL: Running FEP window  11: Lambda1 0.4999999999999996 Lambda2 0.4499999999999996 [dLambda -0.04999999999999999]
TCL: Setting parameter firsttimestep to 0
TCL: Setting parameter alchLambda to 0.4999999999999996
Info: NONBONDED TABLE R-SQUARED SPACING: 0.0625
Info: NONBONDED TABLE SIZE: 705 POINTS
TCL: Setting parameter alchLambda2 to 0.4499999999999996
Info: NONBONDED TABLE R-SQUARED SPACING: 0.0625
Info: NONBONDED TABLE SIZE: 705 POINTS
TCL: Running for 1500000 steps
ETITLE: TS BOND ANGLE DIHED IMPRP ELECT VDW BOUNDARY MISC KINETIC TOTAL TEMP POTENTIAL TOTALAVG TEMPAVG PRESSURE GPRESSURE VOLUME PRESSAVG GPRESSAVG
ENERGY: 0 0.3879 2.8409 1.9727 0.0000 -10570.4759 1397.5565 0.0000 0.0000 1782.5954 -7385.1225 308.1033 -9167.7179 -7385.1225 308.1033 -239.6238 -150.5097 29832.9564 -239.6238 -150.5097
ENERGY: 300000 0.6013 5.2803 1.1108 0.0000 -10466.9129 1319.0671 0.0000 0.0000 1681.7542 -7459.0991 290.6740 -9140.8533 -7378.1702 301.7503 -924.0365 -787.0106 30156.3465 -223.4505 -136.0942
ENERGY: 600000 1.5493 5.3489 1.2311 0.0000 -10607.4311 1480.8695 0.0000 0.0000 1755.8949 -7362.5373 303.4884 -9118.4322 -7364.0094 303.3030 589.7794 699.2378 29460.8958 -121.1204 -34.7146
ENERGY: 900000 1.3522 5.3962 1.5212 0.0000 -10494.0279 1379.4707 0.0000 0.0000 1762.3996 -7343.8880 304.6127 -9106.2876 -7380.2061 302.0157 -311.0560 -213.9595 29881.6293 -171.4014 -84.6355
ENERGY: 1200000 1.9994 5.2995 1.1130 0.0000 -10426.2244 1324.7130 0.0000 0.0000 1770.2213 -7322.8782 305.9646 -9093.0995 -7378.3176 301.4243 -882.5720 -792.1881 30286.6609 -210.3291 -125.1764
ENERGY: 1500000 1.7667 2.1375 1.2447 0.0000 -10494.6312 1369.1778 0.0000 0.0000 1816.2017 -7304.1027 313.9118 -9120.3044 -7377.3055 301.9633 -394.8491 -272.7815 29884.0467 -173.6241 -91.7920
TCL: Running FEP window  12: Lambda1 0.4499999999999996 Lambda2 0.39999999999999963 [dLambda -0.04999999999999999]
TCL: Setting parameter firsttimestep to 0
TCL: Setting parameter alchLambda to 0.4499999999999996
Info: NONBONDED TABLE R-SQUARED SPACING: 0.0625
Info: NONBONDED TABLE SIZE: 705 POINTS
TCL: Setting parameter alchLambda2 to 0.39999999999999963
Info: NONBONDED TABLE R-SQUARED SPACING: 0.0625
Info: NONBONDED TABLE SIZE: 705 POINTS
TCL: Running for 1500000 steps
ETITLE: TS BOND ANGLE DIHED IMPRP ELECT VDW BOUNDARY MISC KINETIC TOTAL TEMP POTENTIAL TOTALAVG TEMPAVG PRESSURE GPRESSURE VOLUME PRESSAVG GPRESSAVG
ENERGY: 0 1.7667 2.1375 1.2447 0.0000 -10494.6316 1369.4088 0.0000 0.0000 1815.3304 -7304.7434 313.7612 -9120.0738 -7304.7434 313.7612 -351.9242 -274.9884 29884.0467 -351.9242 -274.9884
ENERGY: 300000 0.5234 8.3973 1.0605 0.0000 -10537.0903 1455.0157 0.0000 0.0000 1721.9327 -7350.1609 297.6184 -9072.0935 -7347.3172 303.5404 509.7685 482.1703 30025.5798 20.7955 70.4081
ENERGY: 600000 1.7985 3.8118 2.4732 0.0000 -10705.6739 1554.6825 0.0000 0.0000 1719.4948 -7423.4132 297.1970 -9142.9080 -7385.3372 301.7283 950.6588 1037.7078 29792.9715 -78.8661 -12.3651
ENERGY: 900000 1.7284 3.5653 1.4047 0.0000 -10664.4889 1475.6085 0.0000 0.0000 1768.0970 -7414.0849 305.5974 -9182.1819 -7366.0707 303.2424 376.0329 415.8324 29762.4057 -71.6917 -2.9504
ENERGY: 1200000 0.9942 5.8100 1.5586 0.0000 -10479.3889 1365.9740 0.0000 0.0000 1710.0351 -7395.0170 295.5620 -9105.0521 -7373.6430 301.1055 -385.7876 -288.0162 29864.1834 -185.3467 -114.6414
ENERGY: 1500000 2.0226 7.6399 1.3677 0.0000 -10581.7129 1481.5432 0.0000 0.0000 1719.2144 -7369.9251 297.1486 -9089.1395 -7372.8709 301.0973 476.3499 552.6186 30042.6096 -232.6482 -160.7722
TCL: Running FEP window  13: Lambda1 0.39999999999999963 Lambda2 0.34999999999999964 [dLambda -0.04999999999999999]
TCL: Setting parameter firsttimestep to 0
TCL: Setting parameter alchLambda to 0.39999999999999963
Info: NONBONDED TABLE R-SQUARED SPACING: 0.0625
Info: NONBONDED TABLE SIZE: 705 POINTS
TCL: Setting parameter alchLambda2 to 0.34999999999999964
Info: NONBONDED TABLE R-SQUARED SPACING: 0.0625
Info: NONBONDED TABLE SIZE: 705 POINTS
TCL: Running for 1500000 steps
ETITLE: TS BOND ANGLE DIHED IMPRP ELECT VDW BOUNDARY MISC KINETIC TOTAL TEMP POTENTIAL TOTALAVG TEMPAVG PRESSURE GPRESSURE VOLUME PRESSAVG GPRESSAVG
ENERGY: 0 2.0226 7.6399 1.3677 0.0000 -10581.7137 1481.6732 0.0000 0.0000 1718.3540 -7370.6562 296.9999 -9089.0102 -7370.6562 296.9999 471.9218 549.0970 30042.6096 471.9218 549.0970
ENERGY: 300000 1.1677 3.8742 1.3116 0.0000 -10521.0260 1442.9759 0.0000 0.0000 1744.3855 -7327.3111 301.4991 -9071.6966 -7328.2418 301.7384 294.0398 339.6129 30259.3665 33.2097 109.8964
ENERGY: 600000 1.9583 2.4548 1.7633 0.0000 -10396.6376 1316.8299 0.0000 0.0000 1705.9861 -7367.6451 294.8622 -9073.6313 -7348.9800 301.5063 -788.5514 -631.4443 30059.9365 -260.8917 -176.0491
ENERGY: 900000 0.5973 2.1154 1.7440 0.0000 -10675.5576 1436.9264 0.0000 0.0000 1673.7888 -7560.3856 289.2972 -9234.1744 -7374.7621 299.8203 -11.7520 38.7018 29304.7607 -124.2391 -48.0727
ENERGY: 1200000 1.5933 6.8044 2.1402 0.0000 -10460.6109 1395.0404 0.0000 0.0000 1777.7360 -7277.2967 307.2634 -9055.0327 -7357.2663 300.1928 -244.6442 -112.8586 30193.5020 -119.6515 -32.8367
ENERGY: 1500000 0.5716 2.0502 0.8221 0.0000 -10562.3235 1472.0391 0.0000 0.0000 1732.9131 -7353.9273 299.5162 -9086.8404 -7357.9665 300.2576 393.3393 431.3735 30050.2650 -136.3610 -60.5083
TCL: Running FEP window  14: Lambda1 0.34999999999999964 Lambda2 0.29999999999999966 [dLambda -0.04999999999999999]
TCL: Setting parameter firsttimestep to 0
TCL: Setting parameter alchLambda to 0.34999999999999964
Info: NONBONDED TABLE R-SQUARED SPACING: 0.0625
Info: NONBONDED TABLE SIZE: 705 POINTS
TCL: Setting parameter alchLambda2 to 0.29999999999999966
Info: NONBONDED TABLE R-SQUARED SPACING: 0.0625
Info: NONBONDED TABLE SIZE: 705 POINTS
TCL: Running for 1500000 steps
ETITLE: TS BOND ANGLE DIHED IMPRP ELECT VDW BOUNDARY MISC KINETIC TOTAL TEMP POTENTIAL TOTALAVG TEMPAVG PRESSURE GPRESSURE VOLUME PRESSAVG GPRESSAVG
ENERGY: 0 0.5717 2.0502 0.8221 0.0000 -10562.3223 1472.3987 0.0000 0.0000 1732.0532 -7354.4263 299.3676 -9086.4796 -7354.4263 299.3676 341.5936 430.3104 30050.2650 341.5936 430.3104
ENERGY: 300000 0.9542 7.2666 1.0563 0.0000 -10711.5084 1515.1946 0.0000 0.0000 1720.7820 -7466.2548 297.4195 -9187.0368 -7407.4987 299.7180 736.5792 766.3227 29518.5615 204.3784 268.5006
ENERGY: 600000 1.6396 4.2999 0.7879 0.0000 -10524.5804 1401.1989 0.0000 0.0000 1716.2099 -7400.4442 296.6293 -9116.6541 -7413.4447 298.0587 72.1524 178.0855 29606.2620 -71.1130 -11.4095
ENERGY: 900000 0.9131 3.4965 1.4440 0.0000 -10601.9415 1403.1950 0.0000 0.0000 1726.7178 -7466.1751 298.4454 -9192.8929 -7422.4034 297.6345 -584.4411 -591.1702 30393.6551 -40.6954 10.7223
ENERGY: 1200000 1.0392 6.3421 1.0006 0.0000 -10634.3290 1475.9973 0.0000 0.0000 1740.2531 -7409.6965 300.7849 -9149.9497 -7410.8837 298.0835 462.7364 542.0913 29671.0082 0.4905 54.9220
ENERGY: 1500000 3.6446 4.1789 1.5510 0.0000 -10594.5419 1472.9472 0.0000 0.0000 1747.5621 -7364.6580 302.0482 -9112.2201 -7416.8277 297.7673 586.6738 586.2438 30091.8514 -31.0610 26.4351
TCL: Running FEP window  15: Lambda1 0.29999999999999966 Lambda2 0.24999999999999967 [dLambda -0.04999999999999999]
TCL: Setting parameter firsttimestep to 0
TCL: Setting parameter alchLambda to 0.29999999999999966
Info: NONBONDED TABLE R-SQUARED SPACING: 0.0625
Info: NONBONDED TABLE SIZE: 705 POINTS
TCL: Setting parameter alchLambda2 to 0.24999999999999967
Info: NONBONDED TABLE R-SQUARED SPACING: 0.0625
Info: NONBONDED TABLE SIZE: 705 POINTS
TCL: Running for 1500000 steps
ETITLE: TS BOND ANGLE DIHED IMPRP ELECT VDW BOUNDARY MISC KINETIC TOTAL TEMP POTENTIAL TOTALAVG TEMPAVG PRESSURE GPRESSURE VOLUME PRESSAVG GPRESSAVG
ENERGY: 0 3.6446 4.1789 1.5510 0.0000 -10594.5417 1472.8731 0.0000 0.0000 1746.6941 -7365.6000 301.8981 -9112.2941 -7365.6000 301.8981 502.4757 581.1935 30091.8514 502.4757 581.1935
ENERGY: 300000 0.7957 7.0444 1.4467 0.0000 -10512.4075 1409.7549 0.0000 0.0000 1763.6647 -7329.7011 304.8313 -9093.3658 -7408.5955 299.8693 262.1147 313.3500 29627.9934 205.2641 255.3670
ENERGY: 600000 4.6695 4.4281 1.9997 0.0000 -10673.9426 1446.5597 0.0000 0.0000 1684.5248 -7531.7608 291.1528 -9216.2857 -7386.1493 301.2379 -231.8177 -173.4931 29850.6000 202.6027 261.3752
ENERGY: 900000 2.2543 3.8050 0.9793 0.0000 -10720.0283 1523.9904 0.0000 0.0000 1707.6526 -7481.3468 295.1502 -9188.9994 -7385.4888 300.7520 829.7848 889.2421 29146.9246 141.0028 206.4132
ENERGY: 1200000 0.2655 2.6431 2.2505 0.0000 -10501.3496 1401.0632 0.0000 0.0000 1727.2572 -7367.8700 298.5387 -9095.1272 -7386.1383 300.8893 140.3492 216.4154 29600.4008 93.8512 164.9504
ENERGY: 1500000 0.5119 7.1118 1.2423 0.0000 -10505.1287 1374.7514 0.0000 0.0000 1742.1630 -7379.3483 301.1150 -9121.5113 -7388.5069 300.4085 -390.6807 -308.8387 29953.2028 19.9636 85.6630
TCL: Running FEP window  16: Lambda1 0.24999999999999967 Lambda2 0.19999999999999968 [dLambda -0.04999999999999999]
TCL: Setting parameter firsttimestep to 0
TCL: Setting parameter alchLambda to 0.24999999999999967
Info: NONBONDED TABLE R-SQUARED SPACING: 0.0625
Info: NONBONDED TABLE SIZE: 705 POINTS
TCL: Setting parameter alchLambda2 to 0.19999999999999968
Info: NONBONDED TABLE R-SQUARED SPACING: 0.0625
Info: NONBONDED TABLE SIZE: 705 POINTS
TCL: Running for 1500000 steps
ETITLE: TS BOND ANGLE DIHED IMPRP ELECT VDW BOUNDARY MISC KINETIC TOTAL TEMP POTENTIAL TOTALAVG TEMPAVG PRESSURE GPRESSURE VOLUME PRESSAVG GPRESSAVG
ENERGY: 0 0.5119 7.1118 1.2423 0.0000 -10505.1288 1374.2471 0.0000 0.0000 1741.2830 -7380.7328 300.9629 -9122.0158 -7380.7328 300.9629 -404.9811 -315.3053 29953.2028 -404.9811 -315.3053
ENERGY: 300000 3.1703 3.0800 2.7998 0.0000 -10639.5805 1439.8862 0.0000 0.0000 1680.7087 -7509.9354 290.4933 -9190.6442 -7459.1276 294.8227 -124.7017 -105.4898 29946.7460 -140.7084 -84.5434
ENERGY: 600000 1.1972 5.1895 1.1248 0.0000 -10570.3653 1434.6458 0.0000 0.0000 1679.2695 -7448.9384 290.2445 -9128.2079 -7434.4251 296.0249 249.7050 310.8080 29433.5889 161.6553 217.3563
ENERGY: 900000 0.6383 7.3665 1.5360 0.0000 -10457.6896 1360.2829 0.0000 0.0000 1755.3838 -7332.4821 303.4001 -9087.8659 -7417.7564 297.2074 -360.5244 -305.0816 29916.5160 128.4863 174.6660
ENERGY: 1200000 1.3330 6.2170 1.5030 0.0000 -10620.2203 1393.4730 0.0000 0.0000 1679.9798 -7537.7145 290.3673 -9217.6943 -7426.8106 297.3757 -558.5666 -581.0205 29982.0945 79.8864 117.1771
ENERGY: 1500000 0.7887 2.0121 0.8802 0.0000 -10514.6274 1393.4727 0.0000 0.0000 1765.1579 -7352.3158 305.0894 -9117.4736 -7411.1352 298.1781 -429.5315 -378.6779 30275.8548 -24.9673 15.4854
TCL: Running FEP window  17: Lambda1 0.19999999999999968 Lambda2 0.1499999999999997 [dLambda -0.04999999999999999]
TCL: Setting parameter firsttimestep to 0
TCL: Setting parameter alchLambda to 0.19999999999999968
Info: NONBONDED TABLE R-SQUARED SPACING: 0.0625
Info: NONBONDED TABLE SIZE: 705 POINTS
TCL: Setting parameter alchLambda2 to 0.1499999999999997
Info: NONBONDED TABLE R-SQUARED SPACING: 0.0625
Info: NONBONDED TABLE SIZE: 705 POINTS
TCL: Running for 1500000 steps
ETITLE: TS BOND ANGLE DIHED IMPRP ELECT VDW BOUNDARY MISC KINETIC TOTAL TEMP POTENTIAL TOTALAVG TEMPAVG PRESSURE GPRESSURE VOLUME PRESSAVG GPRESSAVG
ENERGY: 0 0.7887 2.0121 0.8802 0.0000 -10514.6273 1393.7274 0.0000 0.0000 1764.2871 -7352.9318 304.9389 -9117.2189 -7352.9318 304.9389 -463.6987 -380.8236 30275.8548 -463.6987 -380.8236
ENERGY: 300000 0.2569 5.3199 0.8039 0.0000 -10560.5834 1425.0061 0.0000 0.0000 1718.3570 -7410.8395 297.0004 -9129.1965 -7384.9221 301.9926 -75.4517 -10.7835 29763.4422 -260.0937 -185.9444
ENERGY: 600000 1.9713 5.6543 0.8444 0.0000 -10469.6993 1384.0069 0.0000 0.0000 1740.1935 -7337.0288 300.7746 -9077.2224 -7381.8365 301.9396 -109.0533 -73.3788 29895.3951 -101.8775 -30.2823
ENERGY: 900000 0.4419 4.8156 1.0300 0.0000 -10686.1410 1495.6359 0.0000 0.0000 1748.9447 -7435.2729 302.2871 -9184.2177 -7393.1141 301.3199 663.9650 710.4686 29475.3063 28.0661 91.1165
ENERGY: 1200000 1.8643 4.8080 1.8813 0.0000 -10547.7374 1432.8084 0.0000 0.0000 1714.6416 -7391.7339 296.3582 -9106.3755 -7387.7662 301.1069 253.5581 248.3299 29912.7838 -41.8960 22.0164
ENERGY: 1500000 3.2214 9.0410 1.4065 0.0000 -10344.0489 1332.4129 0.0000 0.0000 1749.7461 -7248.2210 302.4257 -8997.9671 -7374.2727 300.7793 -675.5031 -553.1508 30213.1046 -77.7123 -12.3232
TCL: Running FEP window  18: Lambda1 0.1499999999999997 Lambda2 0.09999999999999969 [dLambda -0.05 ]
TCL: Setting parameter firsttimestep to 0
TCL: Setting parameter alchLambda to 0.1499999999999997
Info: NONBONDED TABLE R-SQUARED SPACING: 0.0625
Info: NONBONDED TABLE SIZE: 705 POINTS
TCL: Setting parameter alchLambda2 to 0.09999999999999969
Info: NONBONDED TABLE R-SQUARED SPACING: 0.0625
Info: NONBONDED TABLE SIZE: 705 POINTS
TCL: Running for 1500000 steps
ETITLE: TS BOND ANGLE DIHED IMPRP ELECT VDW BOUNDARY MISC KINETIC TOTAL TEMP POTENTIAL TOTALAVG TEMPAVG PRESSURE GPRESSURE VOLUME PRESSAVG GPRESSAVG
ENERGY: 0 3.2214 9.0410 1.4065 0.0000 -10344.0492 1332.6464 0.0000 0.0000 1748.8639 -7248.8701 302.2732 -8997.7340 -7248.8701 302.2732 -631.0259 -554.6326 30213.1046 -631.0259 -554.6326
ENERGY: 300000 2.1856 5.6967 1.3993 0.0000 -10617.7292 1466.0738 0.0000 0.0000 1731.0449 -7411.3289 299.1934 -9142.3739 -7357.3326 303.2151 339.5419 340.1044 29702.8670 -242.9050 -200.9389
ENERGY: 600000 4.7585 5.6182 0.9920 0.0000 -10626.2813 1390.7108 0.0000 0.0000 1706.2015 -7518.0004 294.8994 -9224.2018 -7385.8286 302.6756 -506.2533 -446.3211 29520.0641 -277.4367 -230.2018
ENERGY: 900000 1.9265 2.6073 2.0418 0.0000 -10541.9913 1437.9184 0.0000 0.0000 1781.5118 -7315.9855 307.9160 -9097.4974 -7382.0437 301.9255 -13.6962 33.5926 30014.8338 -202.3262 -146.3490
ENERGY: 1200000 0.2529 7.2723 1.8451 0.0000 -10514.8680 1408.3794 0.0000 0.0000 1769.6536 -7327.4648 305.8665 -9097.1184 -7375.8678 301.8558 121.8376 137.0827 29761.5518 -75.7269 -22.6533
ENERGY: 1500000 0.5292 4.2641 1.1276 0.0000 -10566.9894 1395.2567 0.0000 0.0000 1752.7979 -7413.0139 302.9531 -9165.8118 -7371.6161 301.3237 -479.5354 -371.9092 30007.7649 -142.1092 -83.6737
TCL: Running FEP window  19: Lambda1 0.09999999999999969 Lambda2 0.049999999999999684 [dLambda -0.05 ]
TCL: Setting parameter firsttimestep to 0
TCL: Setting parameter alchLambda to 0.09999999999999969
Info: NONBONDED TABLE R-SQUARED SPACING: 0.0625
Info: NONBONDED TABLE SIZE: 705 POINTS
TCL: Setting parameter alchLambda2 to 0.049999999999999684
Info: NONBONDED TABLE R-SQUARED SPACING: 0.0625
Info: NONBONDED TABLE SIZE: 705 POINTS
TCL: Running for 1500000 steps
ETITLE: TS BOND ANGLE DIHED IMPRP ELECT VDW BOUNDARY MISC KINETIC TOTAL TEMP POTENTIAL TOTALAVG TEMPAVG PRESSURE GPRESSURE VOLUME PRESSAVG GPRESSAVG
ENERGY: 0 0.5292 4.2641 1.1276 0.0000 -10566.9888 1395.5599 0.0000 0.0000 1751.9421 -7413.5659 302.8052 -9165.5080 -7413.5659 302.8052 -448.0971 -370.8308 30007.7649 -448.0971 -370.8308
ENERGY: 300000 0.6939 5.2288 1.6296 0.0000 -10480.1606 1401.7104 0.0000 0.0000 1804.2840 -7266.6140 311.8520 -9070.8980 -7339.0206 305.6771 129.7496 204.2454 29802.4242 -260.9970 -190.7636
ENERGY: 600000 1.5468 3.9942 1.8215 0.0000 -10509.9129 1450.6542 0.0000 0.0000 1777.2097 -7274.6866 307.1725 -9051.8963 -7347.4489 303.9864 358.8952 410.4581 30142.2679 3.2737 69.6678
ENERGY: 900000 0.8898 5.4006 1.4225 0.0000 -10666.5502 1460.4964 0.0000 0.0000 1713.6673 -7484.6737 296.1898 -9198.3409 -7364.5959 302.8489 185.7999 265.3921 29386.9443 28.7007 93.0357
ENERGY: 1200000 0.3659 3.9735 1.9514 0.0000 -10579.4532 1404.0175 0.0000 0.0000 1704.1685 -7464.9764 294.5480 -9169.1449 -7377.2959 301.9803 -376.5423 -220.9339 29847.9851 71.5533 137.3350
ENERGY: 1500000 0.4542 2.4837 2.4677 0.0000 -10512.2945 1444.0972 0.0000 0.0000 1732.4226 -7330.3691 299.4315 -9062.7917 -7381.3319 301.9288 244.2393 386.6626 29784.1130 142.2884 209.4615
TCL: Running FEP window  20: Lambda1 0.049999999999999684 Lambda2 0.0    [dLambda -0.049999999999999684]
TCL: Setting parameter firsttimestep to 0
TCL: Setting parameter alchLambda to 0.049999999999999684
Info: NONBONDED TABLE R-SQUARED SPACING: 0.0625
Info: NONBONDED TABLE SIZE: 705 POINTS
TCL: Setting parameter alchLambda2 to 0.0
Info: NONBONDED TABLE R-SQUARED SPACING: 0.0625
Info: NONBONDED TABLE SIZE: 705 POINTS
TCL: Running for 1500000 steps
ETITLE: TS BOND ANGLE DIHED IMPRP ELECT VDW BOUNDARY MISC KINETIC TOTAL TEMP POTENTIAL TOTALAVG TEMPAVG PRESSURE GPRESSURE VOLUME PRESSAVG GPRESSAVG
ENERGY: 0 0.4542 2.4837 2.4677 0.0000 -10512.2943 1444.1002 0.0000 0.0000 1731.5438 -7331.2447 299.2796 -9062.7885 -7331.2447 299.2796 287.7177 384.7183 29784.1130 287.7177 384.7183
ENERGY: 300000 1.1736 6.4336 1.4314 0.0000 -10514.7420 1400.6555 0.0000 0.0000 1741.8580 -7363.1900 301.0623 -9105.0479 -7356.9122 301.3544 -184.6994 -123.8350 30002.3592 -112.2574 -15.3428
ENERGY: 600000 2.1341 3.6465 1.4342 0.0000 -10566.8103 1356.3727 0.0000 0.0000 1728.4731 -7474.7498 298.7488 -9203.2229 -7396.6399 299.6819 -701.7295 -667.6275 29722.7634 -154.4075 -71.7600
ENERGY: 900000 1.0128 4.6442 2.2508 0.0000 -10545.1809 1418.5651 0.0000 0.0000 1751.5921 -7367.1160 302.7447 -9118.7080 -7393.9905 300.9674 76.3246 241.1184 29646.6424 -175.1437 -89.4016
ENERGY: 1200000 1.3267 2.0822 1.3180 0.0000 -10649.2198 1467.3542 0.0000 0.0000 1734.5511 -7442.5875 299.7994 -9177.1387 -7398.4670 300.1442 268.9855 327.8813 29725.2439 -147.4085 -61.8411
ENERGY: 1500000 0.4403 9.0599 1.4107 0.0000 -10545.3343 1405.7219 0.0000 0.0000 1759.8747 -7368.8267 304.1763 -9128.7015 -7394.4077 300.3734 -150.8675 -28.8840 29724.9792 -153.4708 -71.8826
TCL: Exiting due to exit command.
