Info: SIMULATION PARAMETERS:
Info: TIMESTEP               2
Info: NUMBER OF STEPS        0
Info: STEPS PER CYCLE        10
Info: PERIODIC CELL BASIS 1  31.9411 0 0
Info: PERIODIC CELL BASIS 2  0 31.4991 0
Info: PERIODIC CELL BASIS 3  0 0 30.7543
Info: PERIODIC CELL CENTER   0 0 0
Info: WRAPPING WATERS AROUND PERIODIC BOUNDARIES ON OUTPUT.
Info: WRAPPING ALL CLUSTERS AROUND PERIODIC BOUNDARIES ON OUTPUT.
Info: FIRST LDB TIMESTEP     50
Info: LAST LDB TIMESTEP     -1
Info: HOM BACKGROUND SCALING 1
Info: PME BACKGROUND SCALING 1
Info: MIN ATOMS PER PATCH    40
Info: EMPTY PATCH LOAD       40 ATOMS
Info: VELOCITY FILE          mobley_3269565_equil.vel
Info: CENTER OF MASS MOVING INITIALLY? NO
Info: DIELECTRIC             1
Info: EXCLUDE                SCALED ONE-FOUR
Info: 1-4 ELECTROSTATICS SCALED BY 0.833333
Info: MODIFIED 1-4 VDW PARAMETERS WILL BE USED
Info: DCD FILENAME           mobley_3269565_prod.dcd
Info: DCD FREQUENCY          100000
Info: DCD FIRST STEP         100000
Info: DCD FILE WILL CONTAIN UNIT CELL DATA
Info: XST FILENAME           mobley_3269565_prod.xst
Info: XST FREQUENCY          100000
Info: NO VELOCITY DCD OUTPUT
Info: NO FORCE DCD OUTPUT
Info: OUTPUT FILENAME        mobley_3269565_prod
Info: BINARY OUTPUT FILES WILL BE USED
Info: RESTART FILENAME       mobley_3269565_prod.restart
Info: RESTART FREQUENCY      100000
Info: BINARY RESTART FILES WILL BE USED
Info: CUTOFF                 9
Info: PAIRLIST DISTANCE      11
Info: PAIRLIST SHRINK RATE   0.01
Info: PAIRLIST GROW RATE     0.01
Info: PAIRLIST TRIGGER       0.3
Info: PAIRLISTS PER CYCLE    2
Info: PAIRLISTS ENABLED
Info: MARGIN                 2
Info: HYDROGEN GROUP CUTOFF  2.5
Info: PATCH DIMENSION        15.5
Info: ENERGY OUTPUT STEPS    100000
Info: ENERGY EVALUATION STEPS    100000
Info: OUTPUT ENERGY PRECISION 4
Info: CROSSTERM ENERGY INCLUDED IN DIHEDRAL
Info: TIMING OUTPUT STEPS    1000000
Info: PRESSURE OUTPUT STEPS  100000
Info: ALCHEMICAL FEP ON
Info: FEP CURRENT LAMBDA VALUE     1
Info: FEP COMPARISON LAMBDA VALUE  0.95
Info: FEP INTRA-ALCHEMICAL NON-BONDED INTERACTIONS WILL BE RETAINED
Info: FEP INTRA-ALCHEMICAL BONDED INTERACTIONS WILL BE RETAINED
Info: FEP VDW SHIFTING COEFFICIENT 5
Info: FEP ELEC. ACTIVE FOR ANNIHILATED PARTICLES BETWEEN LAMBDA = 0 AND LAMBDA = 0.5
Info: FEP ELEC. ACTIVE FOR EXNIHILATED PARTICLES BETWEEN LAMBDA = 0.5 AND LAMBDA = 1
Info: FEP VDW ACTIVE FOR ANNIHILATED PARTICLES BETWEEN LAMBDA = 0 AND LAMBDA = 1
Info: FEP VDW ACTIVE FOR EXNIHILATED PARTICLES BETWEEN LAMBDA = 0 AND LAMBDA = 1
Info: FEP BOND ACTIVE FOR ANNIHILATED PARTICLES BETWEEN LAMBDA = 1 AND LAMBDA = 1
Info: FEP BOND ACTIVE FOR EXNIHILATED PARTICLES BETWEEN LAMBDA = 0 AND LAMBDA = 0
Info: LANGEVIN DYNAMICS ACTIVE
Info: LANGEVIN TEMPERATURE   300
Info: LANGEVIN USING BBK INTEGRATOR
Info: LANGEVIN DAMPING COEFFICIENT IS 1 INVERSE PS
Info: LANGEVIN DYNAMICS APPLIED TO HYDROGENS
Info: LANGEVIN PISTON PRESSURE CONTROL ACTIVE
Info:        TARGET PRESSURE IS 1.01325 BAR
Info:     OSCILLATION PERIOD IS 50 FS
Info:             DECAY TIME IS 25 FS
Info:     PISTON TEMPERATURE IS 300 K
Info:       PRESSURE CONTROL IS GROUP-BASED
Info:    INITIAL STRAIN RATE IS -0.000242998 -0.000242998 -0.000242998
Info:       CELL FLUCTUATION IS ISOTROPIC
Info: PARTICLE MESH EWALD (PME) ACTIVE
Info: PME TOLERANCE               1e-06
Info: PME EWALD COEFFICIENT       0.348832
Info: PME INTERPOLATION ORDER     4
Info: PME GRID DIMENSIONS         32 32 32
Info: PME MAXIMUM GRID SPACING    1
Info: PME CALCULATION WILL BE PERFORMED ON GPU
Info: FULL ELECTROSTATIC EVALUATION FREQUENCY      2
Info: USING VERLET I (r-RESPA) MTS SCHEME.
Info: C1 SPLITTING OF LONG RANGE ELECTROSTATICS
Info: PLACING ATOMS IN PATCHES BY HYDROGEN GROUPS
Info: RIGID BONDS TO HYDROGEN : ALL
Info:         ERROR TOLERANCE : 1e-08
Info:          MAX ITERATIONS : 100
Info: RIGID WATER USING SETTLE ALGORITHM
Info: RANDOM NUMBER SEED     1743747644
Info: USE HYDROGEN BONDS?    NO
Info: Using AMBER format force field!
Info: AMBER PARM FILE        mobley_3269565.prmtop
Info: COORDINATE PDB         mobley_3269565.pdb
Info: Exclusions will be read from PARM file!
Info: SCNB (VDW SCALING)     2
Info: USING ARITHMETIC MEAN TO COMBINE L-J SIGMA PARAMETERS
Info: BINARY COORDINATES     mobley_3269565_equil.coor
Info: SUMMARY OF PARAMETERS:
Info: 6 BONDS
Info: 8 ANGLES
Info:   8 HARMONIC
Info:   0 COSINE-BASED
Info: 7 DIHEDRAL
Info: 0 IMPROPER
Info: 0 CROSSTERM
Info: 0 VDW
Info: 21 VDW_PAIRS
Info: 0 NBTHOLE_PAIRS
Info: To read alchdata from file: mobley_3269565.pdb
Info: To read alchflag data from column: 5
Info: STRUCTURE SUMMARY:
Info: 2964 ATOMS
Info: 2963 BONDS
Info: 25 ANGLES
Info: 32 DIHEDRALS
Info: 0 IMPROPERS
Info: 0 CROSSTERMS
Info: 3012 EXCLUSIONS
Info: 2959 RIGID BONDS
Info: ALCH: 0 ATOMS TO DISAPPEAR IN FINAL STATE
Info: ALCH: 15 ATOMS TO APPEAR IN FINAL STATE
Info: 5933 DEGREES OF FREEDOM
Info: 988 HYDROGEN GROUPS
Info: 4 ATOMS IN LARGEST HYDROGEN GROUP
Info: 988 MIGRATION GROUPS
Info: 4 ATOMS IN LARGEST MIGRATION GROUP
Info: TOTAL MASS = 17783.8 amu
Info: TOTAL CHARGE = -0.000399977 e
Info: MASS DENSITY = 0.954401 g/cm^3
Info: ATOM DENSITY = 0.0957909 atoms/A^3
Info: ADDED 0 IMPLICIT EXCLUSIONS
Info: NONBONDED TABLE R-SQUARED SPACING: 0.0625
Info: NONBONDED TABLE SIZE: 705 POINTS
Info: REDUCING NUMBER OF PATCHES TO IMPROVE LOAD BALANCE
Info: REMOVING COM VELOCITY 0.0777092 -0.151357 -0.0445506
Info: Use 3D box decompostion in PME FFT.
Info: Updated CUDA force table with 4096 elements.
Info: Updated CUDA LJ table with 6 x 6 elements.
Info: Found 18 unique exclusion lists needing 40 bytes
TCL: Running for 1500000 steps
ETITLE: TS BOND ANGLE DIHED IMPRP ELECT VDW BOUNDARY MISC KINETIC TOTAL TEMP POTENTIAL TOTALAVG TEMPAVG PRESSURE GPRESSURE VOLUME PRESSAVG GPRESSAVG
ENERGY: 0 2.6105 6.9070 4.1023 0.0000 -10745.4269 1488.9360 0.0000 0.0000 1736.3491 -7506.5220 294.5460 -9242.8711 -7506.5220 294.5460 193.1873 276.3050 30942.3977 193.1873 276.3050
ENERGY: 300000 1.3528 5.8945 3.2848 0.0000 -10682.5726 1426.2473 0.0000 0.0000 1791.4113 -7454.3819 303.8865 -9245.7932 -7495.8838 300.3140 17.9562 143.1821 30509.6149 141.6735 261.7906
ENERGY: 600000 0.3727 5.6798 2.9733 0.0000 -10709.8212 1389.5311 0.0000 0.0000 1741.6636 -7569.6007 295.4475 -9311.2644 -7497.9368 301.0176 -443.0872 -435.8964 30473.2173 -29.9850 42.2200
ENERGY: 900000 0.6221 6.9930 2.3316 0.0000 -10710.2803 1439.6108 0.0000 0.0000 1770.0793 -7490.6434 300.2678 -9260.7228 -7491.8336 300.3693 -85.3521 -12.5346 30753.1421 6.2331 83.5169
ENERGY: 1200000 2.2440 5.1294 4.1150 0.0000 -10800.5172 1521.5610 0.0000 0.0000 1735.9761 -7531.4916 294.4827 -9267.4677 -7506.7680 299.8674 840.6724 856.4324 30420.1961 160.3110 222.4930
ENERGY: 1500000 0.8975 6.2973 1.7850 0.0000 -10686.7212 1408.0093 0.0000 0.0000 1803.8626 -7465.8696 305.9986 -9269.7322 -7514.1331 299.3120 -238.0798 -171.6542 30611.6885 120.3253 179.4123
TCL: Running FEP window   2: Lambda1 0.95   Lambda2 0.8999999999999999 [dLambda -0.050000000000000044]
TCL: Setting parameter firsttimestep to 0
TCL: Setting parameter alchLambda to 0.95
Info: NONBONDED TABLE R-SQUARED SPACING: 0.0625
Info: NONBONDED TABLE SIZE: 705 POINTS
TCL: Setting parameter alchLambda2 to 0.8999999999999999
Info: NONBONDED TABLE R-SQUARED SPACING: 0.0625
Info: NONBONDED TABLE SIZE: 705 POINTS
TCL: Running for 1500000 steps
ETITLE: TS BOND ANGLE DIHED IMPRP ELECT VDW BOUNDARY MISC KINETIC TOTAL TEMP POTENTIAL TOTALAVG TEMPAVG PRESSURE GPRESSURE VOLUME PRESSAVG GPRESSAVG
ENERGY: 0 0.8975 6.2973 1.7850 0.0000 -10686.1945 1408.1970 0.0000 0.0000 1802.9904 -7466.0273 305.8507 -9269.0178 -7466.0273 305.8507 -252.2141 -175.8512 30611.6885 -252.2141 -175.8512
ENERGY: 300000 1.2858 8.3608 4.6952 0.0000 -10768.9497 1434.7134 0.0000 0.0000 1710.8531 -7609.0414 290.2210 -9319.8945 -7515.4606 299.0533 -56.1932 5.2300 30204.1732 -186.9927 -133.8119
ENERGY: 600000 0.9532 5.8325 2.4442 0.0000 -10824.3720 1493.9431 0.0000 0.0000 1736.4058 -7584.7932 294.5556 -9321.1990 -7531.9278 299.3554 475.7731 507.1084 30368.9847 -70.8205 -26.3346
ENERGY: 900000 0.7041 11.6292 3.5403 0.0000 -10786.4632 1416.8785 0.0000 0.0000 1787.2982 -7566.4128 303.1887 -9353.7111 -7534.9960 299.1314 -135.5637 -75.5550 30167.2037 -107.3271 -53.8870
ENERGY: 1200000 2.0349 4.6223 2.0625 0.0000 -10672.4927 1400.6519 0.0000 0.0000 1761.4273 -7501.6937 298.8001 -9263.1210 -7528.8980 299.5268 -339.0724 -310.8151 30767.3481 -102.4662 -43.3167
ENERGY: 1500000 0.7744 5.1758 2.3935 0.0000 -10785.0120 1524.4782 0.0000 0.0000 1772.1934 -7479.9968 300.6264 -9252.1903 -7517.6052 299.1967 872.7346 894.8909 30645.5132 -55.1211 0.2640
TCL: Running FEP window   3: Lambda1 0.8999999999999999 Lambda2 0.8499999999999999 [dLambda -0.050000000000000044]
TCL: Setting parameter firsttimestep to 0
TCL: Setting parameter alchLambda to 0.8999999999999999
Info: NONBONDED TABLE R-SQUARED SPACING: 0.0625
Info: NONBONDED TABLE SIZE: 705 POINTS
TCL: Setting parameter alchLambda2 to 0.8499999999999999
Info: NONBONDED TABLE R-SQUARED SPACING: 0.0625
Info: NONBONDED TABLE SIZE: 705 POINTS
TCL: Running for 1500000 steps
ETITLE: TS BOND ANGLE DIHED IMPRP ELECT VDW BOUNDARY MISC KINETIC TOTAL TEMP POTENTIAL TOTALAVG TEMPAVG PRESSURE GPRESSURE VOLUME PRESSAVG GPRESSAVG
ENERGY: 0 0.7744 5.1757 2.3935 0.0000 -10784.3086 1524.7204 0.0000 0.0000 1771.3033 -7479.9413 300.4754 -9251.2446 -7479.9413 300.4754 813.5790 889.7110 30645.5132 813.5790 889.7110
ENERGY: 300000 1.9366 4.0692 2.5208 0.0000 -10693.4653 1501.3635 0.0000 0.0000 1740.4929 -7443.0823 295.2489 -9183.5752 -7499.2864 296.6897 851.9658 957.0749 30156.7879 155.5122 225.0292
ENERGY: 600000 1.4259 10.1598 4.4838 0.0000 -10620.4785 1447.1978 0.0000 0.0000 1835.2278 -7321.9833 311.3193 -9157.2111 -7482.6992 298.5703 267.0699 370.3646 30785.9604 232.6487 310.8651
ENERGY: 900000 1.1972 7.1580 2.6093 0.0000 -10841.2735 1475.6497 0.0000 0.0000 1803.4033 -7551.2561 305.9207 -9354.6593 -7489.5143 300.8223 197.3355 245.3479 30243.0304 80.1862 147.6911
ENERGY: 1200000 0.4685 7.5329 2.6138 0.0000 -10870.5192 1479.9940 0.0000 0.0000 1801.6217 -7578.2884 305.6185 -9379.9101 -7498.5355 301.3607 32.7130 86.5231 30435.1938 46.5230 108.5338
ENERGY: 1500000 0.0475 7.3953 2.8769 0.0000 -10672.9166 1429.2072 0.0000 0.0000 1766.7345 -7466.6553 299.7004 -9233.3898 -7503.6900 300.8516 -154.5195 -60.1703 30849.0541 52.9015 120.2921
TCL: Running FEP window   4: Lambda1 0.8499999999999999 Lambda2 0.7999999999999998 [dLambda -0.050000000000000044]
TCL: Setting parameter firsttimestep to 0
TCL: Setting parameter alchLambda to 0.8499999999999999
Info: NONBONDED TABLE R-SQUARED SPACING: 0.0625
Info: NONBONDED TABLE SIZE: 705 POINTS
TCL: Setting parameter alchLambda2 to 0.7999999999999998
Info: NONBONDED TABLE R-SQUARED SPACING: 0.0625
Info: NONBONDED TABLE SIZE: 705 POINTS
TCL: Running for 1500000 steps
ETITLE: TS BOND ANGLE DIHED IMPRP ELECT VDW BOUNDARY MISC KINETIC TOTAL TEMP POTENTIAL TOTALAVG TEMPAVG PRESSURE GPRESSURE VOLUME PRESSAVG GPRESSAVG
ENERGY: 0 0.0475 7.3953 2.8769 0.0000 -10672.2499 1429.0722 0.0000 0.0000 1765.8471 -7467.0109 299.5499 -9232.8580 -7467.0109 299.5499 -162.1868 -68.5339 30849.0541 -162.1868 -68.5339
ENERGY: 300000 0.6808 8.5064 4.6641 0.0000 -10640.6134 1337.6167 0.0000 0.0000 1746.5263 -7542.6193 296.2724 -9289.1455 -7488.5421 300.1020 -757.8746 -728.3138 30465.5178 -202.0370 -155.4029
ENERGY: 600000 2.3127 6.9804 2.7624 0.0000 -10701.3697 1443.4742 0.0000 0.0000 1665.4998 -7580.3402 282.5274 -9245.8400 -7508.4320 298.5068 -72.7172 -17.8051 30535.2559 -107.3641 -66.0697
ENERGY: 900000 0.4053 8.2038 2.6739 0.0000 -10809.3711 1463.9838 0.0000 0.0000 1819.3577 -7514.7466 308.6271 -9334.1043 -7498.4213 299.9392 222.1050 288.6522 30200.8506 -56.9103 -7.3519
ENERGY: 1200000 1.9318 8.7990 2.1880 0.0000 -10845.5304 1520.7583 0.0000 0.0000 1784.2734 -7527.5799 302.6756 -9311.8533 -7505.8276 300.5646 535.6897 578.1148 30436.0945 -78.3490 -28.5711
ENERGY: 1500000 0.4810 8.7295 3.0438 0.0000 -10786.4129 1486.1328 0.0000 0.0000 1800.1435 -7487.8823 305.3677 -9288.0258 -7515.0396 300.2177 247.0546 350.9833 30433.5795 -58.9238 0.9126
TCL: Running FEP window   5: Lambda1 0.7999999999999998 Lambda2 0.7499999999999998 [dLambda -0.050000000000000044]
TCL: Setting parameter firsttimestep to 0
TCL: Setting parameter alchLambda to 0.7999999999999998
Info: NONBONDED TABLE R-SQUARED SPACING: 0.0625
Info: NONBONDED TABLE SIZE: 705 POINTS
TCL: Setting parameter alchLambda2 to 0.7499999999999998
Info: NONBONDED TABLE R-SQUARED SPACING: 0.0625
Info: NONBONDED TABLE SIZE: 705 POINTS
TCL: Running for 1500000 steps
ETITLE: TS BOND ANGLE DIHED IMPRP ELECT VDW BOUNDARY MISC KINETIC TOTAL TEMP POTENTIAL TOTALAVG TEMPAVG PRESSURE GPRESSURE VOLUME PRESSAVG GPRESSAVG
ENERGY: 0 0.4810 8.7295 3.0438 0.0000 -10785.4968 1486.3273 0.0000 0.0000 1799.2796 -7487.6355 305.2212 -9286.9151 -7487.6355 305.2212 270.9444 346.9651 30433.5795 270.9444 346.9651
ENERGY: 300000 3.0728 5.7767 4.1833 0.0000 -10653.1312 1372.4420 0.0000 0.0000 1774.1468 -7493.5097 300.9578 -9267.6564 -7539.5316 299.1712 -512.3129 -482.8346 30666.6749 -208.5542 -137.4812
ENERGY: 600000 1.9991 5.4399 1.9605 0.0000 -10793.2044 1464.0230 0.0000 0.0000 1785.3073 -7534.4745 302.8510 -9319.7818 -7514.3106 300.9499 -134.8637 -109.2651 30719.5931 -59.0821 -2.7012
ENERGY: 900000 1.1864 5.4828 3.6029 0.0000 -10694.6774 1433.5284 0.0000 0.0000 1712.3419 -7538.5350 290.4735 -9250.8769 -7510.1693 300.9402 -139.3107 -4.8857 30474.0357 -54.7278 12.9269
ENERGY: 1200000 2.3774 6.1491 3.2843 0.0000 -10569.6816 1363.0863 0.0000 0.0000 1778.5521 -7416.2325 301.7051 -9194.7846 -7507.4013 300.8266 -409.4441 -311.2641 30307.9059 9.8665 80.4454
ENERGY: 1500000 0.6889 6.3376 3.2637 0.0000 -10653.8263 1425.8512 0.0000 0.0000 1747.4289 -7470.2560 296.4255 -9217.6849 -7506.8718 299.9641 166.8841 188.1302 30388.7696 -35.3351 31.0896
TCL: Running FEP window   6: Lambda1 0.7499999999999998 Lambda2 0.6999999999999997 [dLambda -0.050000000000000044]
TCL: Setting parameter firsttimestep to 0
TCL: Setting parameter alchLambda to 0.7499999999999998
Info: NONBONDED TABLE R-SQUARED SPACING: 0.0625
Info: NONBONDED TABLE SIZE: 705 POINTS
TCL: Setting parameter alchLambda2 to 0.6999999999999997
Info: NONBONDED TABLE R-SQUARED SPACING: 0.0625
Info: NONBONDED TABLE SIZE: 705 POINTS
TCL: Running for 1500000 steps
ETITLE: TS BOND ANGLE DIHED IMPRP ELECT VDW BOUNDARY MISC KINETIC TOTAL TEMP POTENTIAL TOTALAVG TEMPAVG PRESSURE GPRESSURE VOLUME PRESSAVG GPRESSAVG
ENERGY: 0 0.6889 6.3376 3.2637 0.0000 -10653.0375 1425.7325 0.0000 0.0000 1746.5390 -7470.4759 296.2745 -9217.0149 -7470.4759 296.2745 98.3861 183.0526 30388.7696 98.3861 183.0526
ENERGY: 300000 1.4177 6.5510 5.6894 0.0000 -10768.6269 1558.8767 0.0000 0.0000 1773.0875 -7423.0047 300.7781 -9196.0922 -7503.2895 297.5047 1128.9856 1264.5721 30326.2392 65.1497 155.0180
ENERGY: 600000 0.2368 4.6530 3.6013 0.0000 -10684.8031 1381.9582 0.0000 0.0000 1780.5714 -7513.7824 302.0476 -9294.3538 -7488.8629 299.7448 -578.7531 -461.2141 30564.6334 26.8997 92.3917
ENERGY: 900000 0.3062 5.3628 4.0652 0.0000 -10829.1588 1511.1780 0.0000 0.0000 1767.8573 -7540.3893 299.8909 -9308.2466 -7495.8654 301.2461 611.7285 621.7369 30147.1868 20.3608 87.2463
ENERGY: 1200000 1.9730 9.7601 2.3136 0.0000 -10685.0594 1400.5544 0.0000 0.0000 1749.7999 -7520.6584 296.8277 -9270.4583 -7500.3932 301.2574 -478.1313 -450.0052 30825.6529 -97.5476 -40.7728
ENERGY: 1500000 1.1867 6.1420 4.2157 0.0000 -10653.9081 1392.0213 0.0000 0.0000 1744.6282 -7505.7143 295.9504 -9250.3424 -7508.6067 300.5780 -412.0638 -344.6260 30850.7282 -148.0133 -87.6904
TCL: Running FEP window   7: Lambda1 0.6999999999999997 Lambda2 0.6499999999999997 [dLambda -0.050000000000000044]
TCL: Setting parameter firsttimestep to 0
TCL: Setting parameter alchLambda to 0.6999999999999997
Info: NONBONDED TABLE R-SQUARED SPACING: 0.0625
Info: NONBONDED TABLE SIZE: 705 POINTS
TCL: Setting parameter alchLambda2 to 0.6499999999999997
Info: NONBONDED TABLE R-SQUARED SPACING: 0.0625
Info: NONBONDED TABLE SIZE: 705 POINTS
TCL: Running for 1500000 steps
ETITLE: TS BOND ANGLE DIHED IMPRP ELECT VDW BOUNDARY MISC KINETIC TOTAL TEMP POTENTIAL TOTALAVG TEMPAVG PRESSURE GPRESSURE VOLUME PRESSAVG GPRESSAVG
ENERGY: 0 1.1867 6.1420 4.2157 0.0000 -10653.6965 1392.1897 0.0000 0.0000 1743.7652 -7506.1972 295.8040 -9249.9624 -7506.1972 295.8040 -424.3908 -352.4516 30850.7282 -424.3908 -352.4516
ENERGY: 300000 0.2422 4.5135 4.0749 0.0000 -10817.5699 1513.5234 0.0000 0.0000 1792.2573 -7502.9585 304.0300 -9295.2158 -7504.0188 298.3196 472.3132 519.6197 30622.5302 -288.1857 -198.1805
ENERGY: 600000 1.0701 4.6200 3.0511 0.0000 -10887.0144 1499.1024 0.0000 0.0000 1784.0270 -7595.1437 302.6338 -9379.1707 -7522.0900 297.1082 481.0690 540.5948 29991.6485 -167.7949 -91.0114
ENERGY: 900000 1.2495 4.6572 3.8242 0.0000 -10629.3483 1352.7453 0.0000 0.0000 1755.3779 -7511.4941 297.7739 -9266.8720 -7533.3724 298.0589 -697.3462 -637.1926 30597.2483 -269.6793 -189.7725
ENERGY: 1200000 1.4644 5.9082 3.8696 0.0000 -10799.4782 1463.1484 0.0000 0.0000 1729.4173 -7595.6703 293.3701 -9325.0876 -7534.0474 297.8307 43.6255 20.8649 30604.4573 -197.9460 -131.6689
ENERGY: 1500000 0.5903 3.4503 2.2979 0.0000 -10841.4102 1534.3463 0.0000 0.0000 1756.3841 -7544.3412 297.9446 -9300.7253 -7539.2854 297.5877 569.5155 565.6977 30770.1683 -152.8967 -87.7831
TCL: Running FEP window   8: Lambda1 0.6499999999999997 Lambda2 0.5999999999999996 [dLambda -0.050000000000000044]
TCL: Setting parameter firsttimestep to 0
TCL: Setting parameter alchLambda to 0.6499999999999997
Info: NONBONDED TABLE R-SQUARED SPACING: 0.0625
Info: NONBONDED TABLE SIZE: 705 POINTS
TCL: Setting parameter alchLambda2 to 0.5999999999999996
Info: NONBONDED TABLE R-SQUARED SPACING: 0.0625
Info: NONBONDED TABLE SIZE: 705 POINTS
TCL: Running for 1500000 steps
ETITLE: TS BOND ANGLE DIHED IMPRP ELECT VDW BOUNDARY MISC KINETIC TOTAL TEMP POTENTIAL TOTALAVG TEMPAVG PRESSURE GPRESSURE VOLUME PRESSAVG GPRESSAVG
ENERGY: 0 0.5903 3.4503 2.2979 0.0000 -10840.7682 1534.5928 0.0000 0.0000 1755.4916 -7544.3453 297.7932 -9299.8369 -7544.3453 297.7932 470.3209 562.4469 30770.1683 470.3209 562.4469
ENERGY: 300000 0.7367 6.1997 2.3694 0.0000 -10735.3871 1419.4212 0.0000 0.0000 1760.1114 -7546.5487 298.5769 -9306.6600 -7543.7797 298.1661 -581.1030 -464.9091 31257.9199 -72.1452 -10.2899
ENERGY: 600000 0.7142 4.4944 3.7726 0.0000 -10781.4994 1483.1982 0.0000 0.0000 1744.8687 -7544.4512 295.9912 -9289.3199 -7529.2081 298.5900 11.6537 116.7676 30863.5507 -146.4010 -79.2243
ENERGY: 900000 0.6801 6.3787 2.0031 0.0000 -10701.1926 1395.5306 0.0000 0.0000 1758.8840 -7537.7161 298.3687 -9296.6001 -7517.6682 299.0445 -536.6684 -496.8700 30694.8931 -184.7748 -115.6197
ENERGY: 1200000 0.8143 8.1355 3.4006 0.0000 -10753.6874 1482.2138 0.0000 0.0000 1761.2463 -7497.8769 298.7694 -9259.1233 -7517.6371 298.8444 413.4686 435.4654 30379.4051 -216.7073 -143.9885
ENERGY: 1500000 0.3734 5.5586 4.8581 0.0000 -10793.1352 1443.8778 0.0000 0.0000 1832.6731 -7505.7943 310.8859 -9338.4674 -7519.5248 298.8011 -60.2141 -20.7377 30232.5666 -223.7887 -157.0208
TCL: Running FEP window   9: Lambda1 0.5999999999999996 Lambda2 0.5499999999999996 [dLambda -0.050000000000000044]
TCL: Setting parameter firsttimestep to 0
TCL: Setting parameter alchLambda to 0.5999999999999996
Info: NONBONDED TABLE R-SQUARED SPACING: 0.0625
Info: NONBONDED TABLE SIZE: 705 POINTS
TCL: Setting parameter alchLambda2 to 0.5499999999999996
Info: NONBONDED TABLE R-SQUARED SPACING: 0.0625
Info: NONBONDED TABLE SIZE: 705 POINTS
TCL: Running for 1500000 steps
ETITLE: TS BOND ANGLE DIHED IMPRP ELECT VDW BOUNDARY MISC KINETIC TOTAL TEMP POTENTIAL TOTALAVG TEMPAVG PRESSURE GPRESSURE VOLUME PRESSAVG GPRESSAVG
ENERGY: 0 0.3734 5.5586 4.8581 0.0000 -10792.3888 1443.7275 0.0000 0.0000 1831.8256 -7506.0456 310.7422 -9337.8713 -7506.0456 310.7422 -105.8362 -26.6491 30232.5666 -105.8362 -26.6491
ENERGY: 300000 0.2733 6.1115 3.2706 0.0000 -10776.4138 1452.1025 0.0000 0.0000 1744.2114 -7570.4445 295.8797 -9314.6559 -7504.9520 302.6284 -39.6133 41.0439 30350.6101 50.4480 107.6160
ENERGY: 600000 0.2279 11.1811 2.6637 0.0000 -10732.1814 1439.4019 0.0000 0.0000 1829.6421 -7449.0645 310.3718 -9278.7067 -7479.0158 304.6606 -188.8413 -140.9651 31036.8426 25.2324 86.1602
ENERGY: 900000 0.2229 8.3297 3.5554 0.0000 -10842.2735 1492.3725 0.0000 0.0000 1724.1211 -7613.6721 292.4717 -9337.7932 -7505.8178 302.8005 334.2534 324.0932 30133.1055 -74.8862 -26.1064
ENERGY: 1200000 2.1985 7.3472 2.5661 0.0000 -10826.8689 1522.4969 0.0000 0.0000 1787.8038 -7504.4565 303.2745 -9292.2602 -7504.1769 303.6757 588.5521 609.0762 30267.9701 -64.2631 -26.9376
ENERGY: 1500000 0.6964 5.6650 2.7611 0.0000 -10719.5521 1388.7625 0.0000 0.0000 1767.4626 -7554.2046 299.8239 -9321.6671 -7507.8426 302.5873 -464.2580 -468.5011 30408.7795 -124.4805 -84.6595
TCL: Running FEP window  10: Lambda1 0.5499999999999996 Lambda2 0.4999999999999996 [dLambda -0.04999999999999999]
TCL: Setting parameter firsttimestep to 0
TCL: Setting parameter alchLambda to 0.5499999999999996
Info: NONBONDED TABLE R-SQUARED SPACING: 0.0625
Info: NONBONDED TABLE SIZE: 705 POINTS
TCL: Setting parameter alchLambda2 to 0.4999999999999996
Info: NONBONDED TABLE R-SQUARED SPACING: 0.0625
Info: NONBONDED TABLE SIZE: 705 POINTS
TCL: Running for 1500000 steps
ETITLE: TS BOND ANGLE DIHED IMPRP ELECT VDW BOUNDARY MISC KINETIC TOTAL TEMP POTENTIAL TOTALAVG TEMPAVG PRESSURE GPRESSURE VOLUME PRESSAVG GPRESSAVG
ENERGY: 0 0.6964 5.6650 2.7611 0.0000 -10719.1866 1388.9173 0.0000 0.0000 1766.5540 -7554.5929 299.6698 -9321.1468 -7554.5929 299.6698 -543.6940 -471.3652 30408.7795 -543.6940 -471.3652
ENERGY: 300000 1.2905 4.1868 3.6784 0.0000 -10864.1784 1509.8468 0.0000 0.0000 1761.9584 -7583.2176 298.8902 -9345.1760 -7545.4470 300.9725 263.2141 398.4320 30226.5706 -3.4191 82.0700
ENERGY: 600000 1.0067 8.1532 2.5227 0.0000 -10786.8561 1411.7365 0.0000 0.0000 1730.8980 -7632.5389 293.6213 -9363.4369 -7535.8494 301.7905 -356.0083 -262.6124 30004.7051 -128.5507 -55.0575
ENERGY: 900000 1.0326 5.9080 2.9763 0.0000 -10685.0039 1386.5635 0.0000 0.0000 1765.1430 -7523.3805 299.4304 -9288.5236 -7542.9348 300.2879 -450.1096 -342.7832 30243.8097 -29.0613 39.9209
ENERGY: 1200000 0.4796 8.8239 3.0634 0.0000 -10676.2617 1455.0136 0.0000 0.0000 1760.7690 -7448.1122 298.6884 -9208.8813 -7527.2662 300.8551 365.8677 402.3829 30409.2224 23.6524 90.3005
ENERGY: 1500000 2.1233 4.6064 3.9707 0.0000 -10667.2078 1453.3730 0.0000 0.0000 1752.4153 -7450.7192 297.2714 -9203.1344 -7521.0693 300.8331 193.0302 293.6935 30426.8906 90.7520 162.4930
TCL: Running FEP window  11: Lambda1 0.4999999999999996 Lambda2 0.4499999999999996 [dLambda -0.04999999999999999]
TCL: Setting parameter firsttimestep to 0
TCL: Setting parameter alchLambda to 0.4999999999999996
Info: NONBONDED TABLE R-SQUARED SPACING: 0.0625
Info: NONBONDED TABLE SIZE: 705 POINTS
TCL: Setting parameter alchLambda2 to 0.4499999999999996
Info: NONBONDED TABLE R-SQUARED SPACING: 0.0625
Info: NONBONDED TABLE SIZE: 705 POINTS
TCL: Running for 1500000 steps
ETITLE: TS BOND ANGLE DIHED IMPRP ELECT VDW BOUNDARY MISC KINETIC TOTAL TEMP POTENTIAL TOTALAVG TEMPAVG PRESSURE GPRESSURE VOLUME PRESSAVG GPRESSAVG
ENERGY: 0 2.1233 4.6064 3.9707 0.0000 -10667.6100 1453.3187 0.0000 0.0000 1751.5509 -7452.0400 297.1247 -9203.5909 -7452.0400 297.1247 201.2910 288.9783 30426.8906 201.2910 288.9783
ENERGY: 300000 1.8041 4.6045 3.0625 0.0000 -10918.9518 1531.3704 0.0000 0.0000 1746.5818 -7631.5286 296.2818 -9378.1104 -7579.9914 296.2599 259.3424 300.7787 30383.4157 -80.7250 -15.4712
ENERGY: 600000 0.3303 6.2491 3.0518 0.0000 -10766.1186 1497.3742 0.0000 0.0000 1755.2031 -7503.9101 297.7443 -9259.1132 -7545.0774 296.9090 539.5630 620.6062 30338.9023 -119.2177 -52.7810
ENERGY: 900000 0.7389 3.5164 4.0686 0.0000 -10679.1348 1388.0333 0.0000 0.0000 1818.9682 -7463.8094 308.5611 -9282.7776 -7536.2152 298.7654 -336.4077 -304.3149 30385.6950 -98.3763 -40.0345
ENERGY: 1200000 1.2996 8.1113 2.3613 0.0000 -10644.7324 1426.9191 0.0000 0.0000 1768.2601 -7437.7810 299.9592 -9206.0411 -7535.5163 298.7041 61.1451 157.1221 30418.6447 -56.7105 9.4463
ENERGY: 1500000 1.5904 6.9200 3.7999 0.0000 -10751.5560 1470.3773 0.0000 0.0000 1799.8851 -7468.9834 305.3239 -9268.8684 -7525.5605 299.2688 306.4750 396.4331 30170.6845 -71.2323 -1.9889
TCL: Running FEP window  12: Lambda1 0.4499999999999996 Lambda2 0.39999999999999963 [dLambda -0.04999999999999999]
TCL: Setting parameter firsttimestep to 0
TCL: Setting parameter alchLambda to 0.4499999999999996
Info: NONBONDED TABLE R-SQUARED SPACING: 0.0625
Info: NONBONDED TABLE SIZE: 705 POINTS
TCL: Setting parameter alchLambda2 to 0.39999999999999963
Info: NONBONDED TABLE R-SQUARED SPACING: 0.0625
Info: NONBONDED TABLE SIZE: 705 POINTS
TCL: Running for 1500000 steps
ETITLE: TS BOND ANGLE DIHED IMPRP ELECT VDW BOUNDARY MISC KINETIC TOTAL TEMP POTENTIAL TOTALAVG TEMPAVG PRESSURE GPRESSURE VOLUME PRESSAVG GPRESSAVG
ENERGY: 0 1.5904 6.9200 3.7999 0.0000 -10751.5571 1470.4680 0.0000 0.0000 1798.9898 -7469.7891 305.1720 -9268.7789 -7469.7891 305.1720 307.3254 393.4975 30170.6845 307.3254 393.4975
ENERGY: 300000 0.9727 5.8438 4.2377 0.0000 -10661.9102 1374.3898 0.0000 0.0000 1701.1241 -7575.3421 288.5706 -9276.4662 -7541.7402 297.1769 -313.7212 -340.4431 30299.1018 86.9264 135.3191
ENERGY: 600000 1.2828 9.1015 3.7679 0.0000 -10793.0334 1498.3183 0.0000 0.0000 1744.0656 -7536.4973 295.8550 -9280.5629 -7527.0692 298.3485 462.6554 476.7604 30447.4604 -113.3415 -45.5141
ENERGY: 900000 4.5736 8.7372 2.3407 0.0000 -10827.1605 1495.0546 0.0000 0.0000 1814.5650 -7501.8893 307.8141 -9316.4543 -7529.4961 300.0342 711.3729 717.8148 29693.8566 -27.3480 31.3926
ENERGY: 1200000 0.7062 4.5089 3.6260 0.0000 -10599.8750 1361.5856 0.0000 0.0000 1738.9122 -7490.5361 294.9808 -9229.4484 -7530.8648 299.3957 -487.7694 -420.2176 30638.9035 -60.0568 -0.9300
ENERGY: 1500000 0.6339 6.4394 3.3365 0.0000 -10826.0798 1446.7104 0.0000 0.0000 1727.3007 -7641.6591 293.0110 -9368.9597 -7543.9224 298.7097 -67.2241 -15.7850 30014.3554 -53.9089 9.8614
TCL: Running FEP window  13: Lambda1 0.39999999999999963 Lambda2 0.34999999999999964 [dLambda -0.04999999999999999]
TCL: Setting parameter firsttimestep to 0
TCL: Setting parameter alchLambda to 0.39999999999999963
Info: NONBONDED TABLE R-SQUARED SPACING: 0.0625
Info: NONBONDED TABLE SIZE: 705 POINTS
TCL: Setting parameter alchLambda2 to 0.34999999999999964
Info: NONBONDED TABLE R-SQUARED SPACING: 0.0625
Info: NONBONDED TABLE SIZE: 705 POINTS
TCL: Running for 1500000 steps
ETITLE: TS BOND ANGLE DIHED IMPRP ELECT VDW BOUNDARY MISC KINETIC TOTAL TEMP POTENTIAL TOTALAVG TEMPAVG PRESSURE GPRESSURE VOLUME PRESSAVG GPRESSAVG
ENERGY: 0 0.6339 6.4394 3.3365 0.0000 -10826.0798 1446.9394 0.0000 0.0000 1726.4572 -7642.2734 292.8680 -9368.7306 -7642.2734 292.8680 -108.0795 -18.1371 30014.3554 -108.0795 -18.1371
ENERGY: 300000 2.2046 11.9097 2.0102 0.0000 -10831.8840 1548.8685 0.0000 0.0000 1723.0313 -7543.8597 292.2868 -9266.8910 -7563.7979 297.3142 984.8694 988.2225 30176.3209 316.8228 388.6137
ENERGY: 600000 0.4999 6.7216 2.6280 0.0000 -10756.0577 1407.2618 0.0000 0.0000 1686.5921 -7652.3542 286.1054 -9338.9464 -7577.2549 295.2083 -441.5813 -344.6765 29986.7122 30.5436 96.3773
ENERGY: 900000 0.1583 7.5842 4.0404 0.0000 -10698.2572 1410.8713 0.0000 0.0000 1772.4186 -7503.1844 300.6646 -9275.6030 -7560.6321 297.2560 -365.6558 -299.6699 30816.6472 107.4334 164.9004
ENERGY: 1200000 2.4739 5.4994 4.2992 0.0000 -10685.2203 1399.9324 0.0000 0.0000 1829.7406 -7443.2748 310.3885 -9273.0154 -7557.8935 299.0833 -598.0272 -543.6369 30840.6228 5.8070 64.5986
ENERGY: 1500000 1.9604 11.6102 4.1036 0.0000 -10801.5111 1461.0383 0.0000 0.0000 1780.3416 -7542.4569 302.0086 -9322.7985 -7545.7424 299.4501 -25.5583 58.4834 30574.5971 -36.3432 21.2761
TCL: Running FEP window  14: Lambda1 0.34999999999999964 Lambda2 0.29999999999999966 [dLambda -0.04999999999999999]
TCL: Setting parameter firsttimestep to 0
TCL: Setting parameter alchLambda to 0.34999999999999964
Info: NONBONDED TABLE R-SQUARED SPACING: 0.0625
Info: NONBONDED TABLE SIZE: 705 POINTS
TCL: Setting parameter alchLambda2 to 0.29999999999999966
Info: NONBONDED TABLE R-SQUARED SPACING: 0.0625
Info: NONBONDED TABLE SIZE: 705 POINTS
TCL: Running for 1500000 steps
ETITLE: TS BOND ANGLE DIHED IMPRP ELECT VDW BOUNDARY MISC KINETIC TOTAL TEMP POTENTIAL TOTALAVG TEMPAVG PRESSURE GPRESSURE VOLUME PRESSAVG GPRESSAVG
ENERGY: 0 1.9604 11.6102 4.1036 0.0000 -10801.5106 1460.8174 0.0000 0.0000 1779.4092 -7543.6098 301.8505 -9323.0190 -7543.6098 301.8505 -31.1276 54.6917 30574.5971 -31.1276 54.6917
ENERGY: 300000 1.3294 5.1987 4.2834 0.0000 -10869.8750 1561.0375 0.0000 0.0000 1785.1373 -7512.8887 302.8222 -9298.0260 -7539.3011 300.7550 1022.6903 1012.7181 30096.7318 131.9255 162.3229
ENERGY: 600000 1.3940 8.7638 4.5036 0.0000 -10838.2290 1475.4457 0.0000 0.0000 1772.0562 -7576.0656 300.6032 -9348.1219 -7528.2075 302.1292 -133.7412 -42.7975 30419.4384 84.8173 133.4231
ENERGY: 900000 1.7385 6.5473 3.5277 0.0000 -10757.5613 1484.9455 0.0000 0.0000 1764.5446 -7496.2577 299.3289 -9260.8023 -7533.7385 301.2674 521.1134 559.6490 30227.0842 195.8719 256.4523
ENERGY: 1200000 0.6496 6.4655 2.1909 0.0000 -10742.5744 1474.9409 0.0000 0.0000 1752.5970 -7505.7306 297.3022 -9258.3276 -7522.1012 301.8022 166.3287 133.6870 30691.8635 261.0571 319.4825
ENERGY: 1500000 0.7708 5.1949 4.0509 0.0000 -10859.1653 1555.4276 0.0000 0.0000 1775.7045 -7518.0167 301.2220 -9293.7212 -7517.3844 302.0145 859.3786 934.1536 30103.6773 287.7795 346.4848
TCL: Running FEP window  15: Lambda1 0.29999999999999966 Lambda2 0.24999999999999967 [dLambda -0.04999999999999999]
TCL: Setting parameter firsttimestep to 0
TCL: Setting parameter alchLambda to 0.29999999999999966
Info: NONBONDED TABLE R-SQUARED SPACING: 0.0625
Info: NONBONDED TABLE SIZE: 705 POINTS
TCL: Setting parameter alchLambda2 to 0.24999999999999967
Info: NONBONDED TABLE R-SQUARED SPACING: 0.0625
Info: NONBONDED TABLE SIZE: 705 POINTS
TCL: Running for 1500000 steps
ETITLE: TS BOND ANGLE DIHED IMPRP ELECT VDW BOUNDARY MISC KINETIC TOTAL TEMP POTENTIAL TOTALAVG TEMPAVG PRESSURE GPRESSURE VOLUME PRESSAVG GPRESSAVG
ENERGY: 0 0.7708 5.1949 4.0509 0.0000 -10859.1648 1555.1273 0.0000 0.0000 1774.8461 -7519.1748 301.0764 -9294.0210 -7519.1748 301.0764 844.6896 928.7367 30103.6773 844.6896 928.7367
ENERGY: 300000 0.1013 6.9934 2.9747 0.0000 -10682.5173 1423.1430 0.0000 0.0000 1794.5206 -7454.7844 304.4139 -9249.3050 -7496.7441 302.4411 -113.4193 -51.2326 30566.5325 424.7755 474.9010
ENERGY: 600000 0.2418 3.8089 5.7926 0.0000 -10802.4928 1514.4217 0.0000 0.0000 1751.8645 -7526.3633 297.1779 -9278.2278 -7493.4262 303.6565 400.5664 545.8049 30576.8842 234.9922 308.4762
ENERGY: 900000 0.5006 8.1236 2.1004 0.0000 -10711.9086 1388.5149 0.0000 0.0000 1786.9513 -7525.7178 303.1299 -9312.6691 -7494.0653 304.7584 -424.7620 -403.6207 30274.4354 21.8210 84.5636
ENERGY: 1200000 0.6221 5.7227 2.6961 0.0000 -10606.3885 1361.8669 0.0000 0.0000 1749.4137 -7486.0670 296.7622 -9235.4806 -7486.8185 304.4019 -449.6253 -360.1611 30305.2117 -34.9240 21.5407
ENERGY: 1500000 0.5007 5.7264 2.2092 0.0000 -10763.7899 1441.1957 0.0000 0.0000 1739.3545 -7574.8035 295.0558 -9314.1579 -7490.2420 304.0038 50.6972 112.8851 30164.0781 -8.5015 48.9340
TCL: Running FEP window  16: Lambda1 0.24999999999999967 Lambda2 0.19999999999999968 [dLambda -0.04999999999999999]
TCL: Setting parameter firsttimestep to 0
TCL: Setting parameter alchLambda to 0.24999999999999967
Info: NONBONDED TABLE R-SQUARED SPACING: 0.0625
Info: NONBONDED TABLE SIZE: 705 POINTS
TCL: Setting parameter alchLambda2 to 0.19999999999999968
Info: NONBONDED TABLE R-SQUARED SPACING: 0.0625
Info: NONBONDED TABLE SIZE: 705 POINTS
TCL: Running for 1500000 steps
ETITLE: TS BOND ANGLE DIHED IMPRP ELECT VDW BOUNDARY MISC KINETIC TOTAL TEMP POTENTIAL TOTALAVG TEMPAVG PRESSURE GPRESSURE VOLUME PRESSAVG GPRESSAVG
ENERGY: 0 0.5007 5.7264 2.2092 0.0000 -10763.7896 1441.1245 0.0000 0.0000 1738.4795 -7575.7493 294.9074 -9314.2288 -7575.7493 294.9074 25.3866 106.9730 30164.0781 25.3866 106.9730
ENERGY: 300000 1.0710 5.8825 3.0252 0.0000 -10668.0373 1468.1720 0.0000 0.0000 1813.9159 -7375.9707 307.7040 -9189.8866 -7473.5349 303.3432 387.5496 425.3119 30654.2941 28.2275 69.7996
ENERGY: 600000 0.6964 6.2149 4.6022 0.0000 -10754.2393 1494.9352 0.0000 0.0000 1786.3857 -7461.4048 303.0339 -9247.7905 -7454.1351 302.8174 478.1553 501.9150 30543.1282 91.1368 136.9893
ENERGY: 900000 2.9492 5.1789 3.1140 0.0000 -10738.2535 1421.7450 0.0000 0.0000 1762.6933 -7542.5731 299.0149 -9305.2664 -7488.9870 300.8393 -525.9630 -399.7648 30621.7467 50.2528 111.8177
ENERGY: 1200000 0.2234 7.9100 3.4231 0.0000 -10706.9311 1463.0870 0.0000 0.0000 1787.6502 -7444.6374 303.2484 -9232.2876 -7493.2898 301.4381 334.0302 469.3507 30270.7829 -31.2921 36.8076
ENERGY: 1500000 1.5653 5.1681 2.3970 0.0000 -10827.7323 1540.7946 0.0000 0.0000 1745.1183 -7532.6889 296.0335 -9277.8072 -7500.5985 301.3838 715.0227 749.0054 30614.0718 -9.2008 54.3125
TCL: Running FEP window  17: Lambda1 0.19999999999999968 Lambda2 0.1499999999999997 [dLambda -0.04999999999999999]
TCL: Setting parameter firsttimestep to 0
TCL: Setting parameter alchLambda to 0.19999999999999968
Info: NONBONDED TABLE R-SQUARED SPACING: 0.0625
Info: NONBONDED TABLE SIZE: 705 POINTS
TCL: Setting parameter alchLambda2 to 0.1499999999999997
Info: NONBONDED TABLE R-SQUARED SPACING: 0.0625
Info: NONBONDED TABLE SIZE: 705 POINTS
TCL: Running for 1500000 steps
ETITLE: TS BOND ANGLE DIHED IMPRP ELECT VDW BOUNDARY MISC KINETIC TOTAL TEMP POTENTIAL TOTALAVG TEMPAVG PRESSURE GPRESSURE VOLUME PRESSAVG GPRESSAVG
ENERGY: 0 1.5653 5.1681 2.3970 0.0000 -10827.7325 1540.2488 0.0000 0.0000 1744.2154 -7534.1379 295.8804 -9278.3533 -7534.1379 295.8804 664.5073 743.8902 30614.0718 664.5073 743.8902
ENERGY: 300000 1.0957 5.4407 3.4177 0.0000 -10760.4175 1480.9537 0.0000 0.0000 1785.0927 -7484.4170 302.8146 -9269.5097 -7520.7571 296.8315 116.6999 210.4215 30694.4010 154.5095 220.3090
ENERGY: 600000 1.5304 7.2157 5.0042 0.0000 -10763.6697 1369.0984 0.0000 0.0000 1738.1205 -7642.7005 294.8465 -9380.8210 -7539.3347 299.0872 -948.1164 -949.4708 30434.3915 -256.6037 -194.7750
ENERGY: 900000 0.7162 3.3885 2.3885 0.0000 -10833.8930 1473.7920 0.0000 0.0000 1768.3438 -7585.2640 299.9734 -9353.6079 -7547.5984 299.1541 133.0138 186.4141 30274.5889 -282.5869 -225.5062
ENERGY: 1200000 0.5631 10.8924 4.5823 0.0000 -10744.0850 1470.7250 0.0000 0.0000 1817.8852 -7439.4371 308.3774 -9257.3223 -7541.1051 299.6570 319.7201 387.1395 30534.7963 -132.5193 -76.4528
ENERGY: 1500000 1.4915 7.3321 3.4279 0.0000 -10670.3940 1459.7986 0.0000 0.0000 1742.8586 -7455.4852 295.6502 -9198.3438 -7536.1691 299.6854 273.5691 351.3614 30546.0362 -143.7338 -88.1394
TCL: Running FEP window  18: Lambda1 0.1499999999999997 Lambda2 0.09999999999999969 [dLambda -0.05 ]
TCL: Setting parameter firsttimestep to 0
TCL: Setting parameter alchLambda to 0.1499999999999997
Info: NONBONDED TABLE R-SQUARED SPACING: 0.0625
Info: NONBONDED TABLE SIZE: 705 POINTS
TCL: Setting parameter alchLambda2 to 0.09999999999999969
Info: NONBONDED TABLE R-SQUARED SPACING: 0.0625
Info: NONBONDED TABLE SIZE: 705 POINTS
TCL: Running for 1500000 steps
ETITLE: TS BOND ANGLE DIHED IMPRP ELECT VDW BOUNDARY MISC KINETIC TOTAL TEMP POTENTIAL TOTALAVG TEMPAVG PRESSURE GPRESSURE VOLUME PRESSAVG GPRESSAVG
ENERGY: 0 1.4915 7.3321 3.4279 0.0000 -10670.3922 1459.9980 0.0000 0.0000 1741.9668 -7456.1758 295.4989 -9198.1425 -7456.1758 295.4989 250.1340 350.6760 30546.0362 250.1340 350.6760
ENERGY: 300000 0.4958 4.0436 4.1978 0.0000 -10721.1966 1376.1667 0.0000 0.0000 1753.0525 -7583.2402 297.3795 -9336.2927 -7527.6152 296.3477 -641.6101 -542.0775 30368.4422 -337.5633 -250.6622
ENERGY: 600000 2.4783 7.8075 4.0683 0.0000 -10749.2651 1449.4739 0.0000 0.0000 1787.9853 -7497.4517 303.3053 -9285.4370 -7505.4006 300.5026 -66.6476 6.1756 30389.8462 -150.0386 -73.7853
ENERGY: 900000 0.3431 6.0261 2.4878 0.0000 -10676.7854 1379.1434 0.0000 0.0000 1764.2154 -7524.5696 299.2731 -9288.7850 -7509.2088 301.3481 -698.9991 -635.3662 30614.6074 -187.2256 -101.8190
ENERGY: 1200000 2.0848 6.8166 4.8527 0.0000 -10838.6416 1468.7636 0.0000 0.0000 1761.7092 -7594.4148 298.8479 -9356.1240 -7519.2792 300.7413 -321.9218 -294.9952 30620.2837 -148.9139 -67.1810
ENERGY: 1500000 1.1926 7.1602 2.9185 0.0000 -10801.2505 1477.2551 0.0000 0.0000 1809.9158 -7502.8083 307.0255 -9312.7241 -7513.1504 301.1766 -28.1690 28.5900 30554.0122 -216.0991 -141.0159
TCL: Running FEP window  19: Lambda1 0.09999999999999969 Lambda2 0.049999999999999684 [dLambda -0.05 ]
TCL: Setting parameter firsttimestep to 0
TCL: Setting parameter alchLambda to 0.09999999999999969
Info: NONBONDED TABLE R-SQUARED SPACING: 0.0625
Info: NONBONDED TABLE SIZE: 705 POINTS
TCL: Setting parameter alchLambda2 to 0.049999999999999684
Info: NONBONDED TABLE R-SQUARED SPACING: 0.0625
Info: NONBONDED TABLE SIZE: 705 POINTS
TCL: Running for 1500000 steps
ETITLE: TS BOND ANGLE DIHED IMPRP ELECT VDW BOUNDARY MISC KINETIC TOTAL TEMP POTENTIAL TOTALAVG TEMPAVG PRESSURE GPRESSURE VOLUME PRESSAVG GPRESSAVG
ENERGY: 0 1.1926 7.1602 2.9185 0.0000 -10801.2503 1476.0218 0.0000 0.0000 1809.0096 -7504.9476 306.8717 -9313.9572 -7504.9476 306.8717 -47.4889 19.1622 30554.0122 -47.4889 19.1622
ENERGY: 300000 0.5321 8.0690 2.9603 0.0000 -10771.8524 1479.0852 0.0000 0.0000 1724.8224 -7556.3833 292.5906 -9281.2057 -7513.1712 301.1366 672.4303 734.8512 29536.9912 94.9021 142.1521
ENERGY: 600000 1.1903 9.0347 2.6477 0.0000 -10691.2052 1360.5383 0.0000 0.0000 1800.8518 -7516.9424 305.4879 -9317.7942 -7522.1525 300.9129 -787.8622 -753.0322 30521.4097 -248.4032 -199.8760
ENERGY: 900000 1.3779 3.8403 3.9398 0.0000 -10678.6510 1411.7997 0.0000 0.0000 1748.1511 -7509.5422 296.5480 -9257.6933 -7524.2002 300.2882 -588.5706 -515.7902 30954.4287 -379.8713 -331.4038
ENERGY: 1200000 0.7308 9.0643 5.4368 0.0000 -10716.1880 1414.1447 0.0000 0.0000 1766.6704 -7520.1411 299.6895 -9286.8115 -7521.6331 300.6522 -329.0012 -255.8522 30358.2762 -351.6220 -300.9795
ENERGY: 1500000 1.7909 6.8088 4.1009 0.0000 -10640.0306 1409.9563 0.0000 0.0000 1775.6694 -7441.7043 301.2161 -9217.3736 -7519.6955 300.2543 -259.8532 -173.1645 30418.9109 -224.3142 -165.6995
TCL: Running FEP window  20: Lambda1 0.049999999999999684 Lambda2 0.0    [dLambda -0.049999999999999684]
TCL: Setting parameter firsttimestep to 0
TCL: Setting parameter alchLambda to 0.049999999999999684
Info: NONBONDED TABLE R-SQUARED SPACING: 0.0625
Info: NONBONDED TABLE SIZE: 705 POINTS
TCL: Setting parameter alchLambda2 to 0.0
Info: NONBONDED TABLE R-SQUARED SPACING: 0.0625
Info: NONBONDED TABLE SIZE: 705 POINTS
TCL: Running for 1500000 steps
ETITLE: TS BOND ANGLE DIHED IMPRP ELECT VDW BOUNDARY MISC KINETIC TOTAL TEMP POTENTIAL TOTALAVG TEMPAVG PRESSURE GPRESSURE VOLUME PRESSAVG GPRESSAVG
ENERGY: 0 1.7909 6.8088 4.1009 0.0000 -10640.0306 1409.3392 0.0000 0.0000 1774.8077 -7443.1831 301.0699 -9217.9907 -7443.1831 301.0699 -248.3798 -177.6323 30418.9109 -248.3798 -177.6323
ENERGY: 300000 1.8345 5.5071 2.7252 0.0000 -10733.0858 1462.1085 0.0000 0.0000 1787.2675 -7473.6431 303.1835 -9260.9105 -7510.1252 300.2033 266.7239 270.5421 30263.0336 56.8078 93.3144
ENERGY: 600000 0.3217 5.9430 2.4002 0.0000 -10973.6394 1580.6226 0.0000 0.0000 1786.7103 -7597.6416 303.0890 -9384.3519 -7518.4169 301.0676 709.3823 905.0701 30108.4676 194.6506 256.9835
ENERGY: 900000 0.9084 8.9802 4.4773 0.0000 -10834.8443 1480.6985 0.0000 0.0000 1718.6492 -7621.1307 291.5434 -9339.7799 -7524.3046 299.1945 254.5911 313.3890 30040.2759 22.2083 76.1405
ENERGY: 1200000 1.6294 4.7250 5.1308 0.0000 -10759.4728 1476.8059 0.0000 0.0000 1743.5392 -7527.6424 295.7657 -9271.1816 -7509.7713 300.0113 305.5622 368.3136 30090.0813 37.3138 91.2455
ENERGY: 1500000 0.8710 8.2893 2.9819 0.0000 -10916.1527 1487.8496 0.0000 0.0000 1732.5517 -7683.6092 293.9018 -9416.1609 -7518.6025 300.0684 314.3012 329.5669 29806.9853 29.6862 80.8783
TCL: Exiting due to exit command.
