Info: SIMULATION PARAMETERS:
Info: TIMESTEP               2
Info: NUMBER OF STEPS        0
Info: STEPS PER CYCLE        10
Info: PERIODIC CELL BASIS 1  30.954 0 0
Info: PERIODIC CELL BASIS 2  0 29.4747 0
Info: PERIODIC CELL BASIS 3  0 0 33.135
Info: PERIODIC CELL CENTER   0 0 0
Info: WRAPPING WATERS AROUND PERIODIC BOUNDARIES ON OUTPUT.
Info: WRAPPING ALL CLUSTERS AROUND PERIODIC BOUNDARIES ON OUTPUT.
Info: FIRST LDB TIMESTEP     50
Info: LAST LDB TIMESTEP     -1
Info: HOM BACKGROUND SCALING 1
Info: PME BACKGROUND SCALING 1
Info: MIN ATOMS PER PATCH    40
Info: EMPTY PATCH LOAD       40 ATOMS
Info: VELOCITY FILE          mobley_486214_equil.vel
Info: CENTER OF MASS MOVING INITIALLY? NO
Info: DIELECTRIC             1
Info: EXCLUDE                SCALED ONE-FOUR
Info: 1-4 ELECTROSTATICS SCALED BY 0.833333
Info: MODIFIED 1-4 VDW PARAMETERS WILL BE USED
Info: DCD FILENAME           mobley_486214_prod.dcd
Info: DCD FREQUENCY          100000
Info: DCD FIRST STEP         100000
Info: DCD FILE WILL CONTAIN UNIT CELL DATA
Info: XST FILENAME           mobley_486214_prod.xst
Info: XST FREQUENCY          100000
Info: NO VELOCITY DCD OUTPUT
Info: NO FORCE DCD OUTPUT
Info: OUTPUT FILENAME        mobley_486214_prod
Info: BINARY OUTPUT FILES WILL BE USED
Info: RESTART FILENAME       mobley_486214_prod.restart
Info: RESTART FREQUENCY      100000
Info: BINARY RESTART FILES WILL BE USED
Info: CUTOFF                 9
Info: PAIRLIST DISTANCE      11
Info: PAIRLIST SHRINK RATE   0.01
Info: PAIRLIST GROW RATE     0.01
Info: PAIRLIST TRIGGER       0.3
Info: PAIRLISTS PER CYCLE    2
Info: PAIRLISTS ENABLED
Info: MARGIN                 2
Info: HYDROGEN GROUP CUTOFF  2.5
Info: PATCH DIMENSION        15.5
Info: ENERGY OUTPUT STEPS    100000
Info: ENERGY EVALUATION STEPS    100000
Info: OUTPUT ENERGY PRECISION 4
Info: CROSSTERM ENERGY INCLUDED IN DIHEDRAL
Info: TIMING OUTPUT STEPS    1000000
Info: PRESSURE OUTPUT STEPS  100000
Info: ALCHEMICAL FEP ON
Info: FEP CURRENT LAMBDA VALUE     1
Info: FEP COMPARISON LAMBDA VALUE  0.95
Info: FEP INTRA-ALCHEMICAL NON-BONDED INTERACTIONS WILL BE RETAINED
Info: FEP INTRA-ALCHEMICAL BONDED INTERACTIONS WILL BE RETAINED
Info: FEP VDW SHIFTING COEFFICIENT 5
Info: FEP ELEC. ACTIVE FOR ANNIHILATED PARTICLES BETWEEN LAMBDA = 0 AND LAMBDA = 0.5
Info: FEP ELEC. ACTIVE FOR EXNIHILATED PARTICLES BETWEEN LAMBDA = 0.5 AND LAMBDA = 1
Info: FEP VDW ACTIVE FOR ANNIHILATED PARTICLES BETWEEN LAMBDA = 0 AND LAMBDA = 1
Info: FEP VDW ACTIVE FOR EXNIHILATED PARTICLES BETWEEN LAMBDA = 0 AND LAMBDA = 1
Info: FEP BOND ACTIVE FOR ANNIHILATED PARTICLES BETWEEN LAMBDA = 1 AND LAMBDA = 1
Info: FEP BOND ACTIVE FOR EXNIHILATED PARTICLES BETWEEN LAMBDA = 0 AND LAMBDA = 0
Info: LANGEVIN DYNAMICS ACTIVE
Info: LANGEVIN TEMPERATURE   300
Info: LANGEVIN USING BBK INTEGRATOR
Info: LANGEVIN DAMPING COEFFICIENT IS 1 INVERSE PS
Info: LANGEVIN DYNAMICS APPLIED TO HYDROGENS
Info: LANGEVIN PISTON PRESSURE CONTROL ACTIVE
Info:        TARGET PRESSURE IS 1.01325 BAR
Info:     OSCILLATION PERIOD IS 50 FS
Info:             DECAY TIME IS 25 FS
Info:     PISTON TEMPERATURE IS 300 K
Info:       PRESSURE CONTROL IS GROUP-BASED
Info:    INITIAL STRAIN RATE IS -0.000310491 -0.000310491 -0.000310491
Info:       CELL FLUCTUATION IS ISOTROPIC
Info: PARTICLE MESH EWALD (PME) ACTIVE
Info: PME TOLERANCE               1e-06
Info: PME EWALD COEFFICIENT       0.348832
Info: PME INTERPOLATION ORDER     4
Info: PME GRID DIMENSIONS         32 32 36
Info: PME MAXIMUM GRID SPACING    1
Info: PME CALCULATION WILL BE PERFORMED ON GPU
Info: FULL ELECTROSTATIC EVALUATION FREQUENCY      2
Info: USING VERLET I (r-RESPA) MTS SCHEME.
Info: C1 SPLITTING OF LONG RANGE ELECTROSTATICS
Info: PLACING ATOMS IN PATCHES BY HYDROGEN GROUPS
Info: RIGID BONDS TO HYDROGEN : ALL
Info:         ERROR TOLERANCE : 1e-08
Info:          MAX ITERATIONS : 100
Info: RIGID WATER USING SETTLE ALGORITHM
Info: RANDOM NUMBER SEED     1743870012
Info: USE HYDROGEN BONDS?    NO
Info: Using AMBER format force field!
Info: AMBER PARM FILE        mobley_486214.prmtop
Info: COORDINATE PDB         mobley_486214.pdb
Info: Exclusions will be read from PARM file!
Info: SCNB (VDW SCALING)     2
Info: USING ARITHMETIC MEAN TO COMBINE L-J SIGMA PARAMETERS
Info: BINARY COORDINATES     mobley_486214_equil.coor
Info: SUMMARY OF PARAMETERS:
Info: 9 BONDS
Info: 8 ANGLES
Info:   8 HARMONIC
Info:   0 COSINE-BASED
Info: 4 DIHEDRAL
Info: 0 IMPROPER
Info: 0 CROSSTERM
Info: 0 VDW
Info: 36 VDW_PAIRS
Info: 0 NBTHOLE_PAIRS
Info: To read alchdata from file: mobley_486214.pdb
Info: To read alchflag data from column: 5
Info: STRUCTURE SUMMARY:
Info: 2916 ATOMS
Info: 2916 BONDS
Info: 33 ANGLES
Info: 42 DIHEDRALS
Info: 0 IMPROPERS
Info: 0 CROSSTERMS
Info: 2982 EXCLUSIONS
Info: 2905 RIGID BONDS
Info: ALCH: 0 ATOMS TO DISAPPEAR IN FINAL STATE
Info: ALCH: 21 ATOMS TO APPEAR IN FINAL STATE
Info: 5843 DEGREES OF FREEDOM
Info: 976 HYDROGEN GROUPS
Info: 4 ATOMS IN LARGEST HYDROGEN GROUP
Info: 976 MIGRATION GROUPS
Info: 4 ATOMS IN LARGEST MIGRATION GROUP
Info: TOTAL MASS = 17539.6 amu
Info: TOTAL CHARGE = 0.000300005 e
Info: MASS DENSITY = 0.963442 g/cm^3
Info: ATOM DENSITY = 0.0964571 atoms/A^3
Info: ADDED 0 IMPLICIT EXCLUSIONS
Info: NONBONDED TABLE R-SQUARED SPACING: 0.0625
Info: NONBONDED TABLE SIZE: 705 POINTS
Info: REMOVING COM VELOCITY -0.279412 -0.164409 -0.0965772
Info: Use 3D box decompostion in PME FFT.
Info: Updated CUDA force table with 4096 elements.
Info: Updated CUDA LJ table with 8 x 8 elements.
Info: Found 22 unique exclusion lists needing 60 bytes
TCL: Running for 1500000 steps
ETITLE: TS BOND ANGLE DIHED IMPRP ELECT VDW BOUNDARY MISC KINETIC TOTAL TEMP POTENTIAL TOTALAVG TEMPAVG PRESSURE GPRESSURE VOLUME PRESSAVG GPRESSAVG
ENERGY: 0 2.3903 7.9096 8.6242 0.0000 -10457.8544 1372.2784 0.0000 0.0000 1755.8696 -7310.7824 302.4452 -9066.6519 -7310.7824 302.4452 -417.7552 -333.5787 30231.0601 -417.7552 -333.5787
ENERGY: 300000 2.7845 7.3031 6.9022 0.0000 -10559.7738 1425.3742 0.0000 0.0000 1726.7303 -7390.6794 297.4260 -9117.4097 -7372.0302 296.9131 31.1802 135.9822 30000.2797 -289.4743 -219.2439
ENERGY: 600000 2.5712 7.1332 4.9574 0.0000 -10536.5631 1433.9400 0.0000 0.0000 1775.6101 -7312.3512 305.8455 -9087.9613 -7345.1792 301.1189 319.6925 381.6868 29678.7832 -173.3049 -100.5866
ENERGY: 900000 5.3820 7.4222 4.8891 0.0000 -10544.5528 1440.9038 0.0000 0.0000 1745.3388 -7340.6170 300.6313 -9085.9558 -7359.3859 299.9559 24.9542 96.8232 30334.7493 -108.9573 -31.2733
ENERGY: 1200000 2.4349 10.5732 4.4275 0.0000 -10512.2295 1365.8771 0.0000 0.0000 1729.0544 -7399.8624 297.8264 -9128.9168 -7377.3113 299.2014 -513.4271 -436.2073 29940.2680 -113.1187 -37.9949
ENERGY: 1500000 3.3532 6.8696 5.8434 0.0000 -10483.6406 1356.0624 0.0000 0.0000 1698.2558 -7413.2561 292.5214 -9111.5120 -7377.1299 299.8532 -726.3216 -649.7279 30437.5473 -132.0031 -63.0063
TCL: Running FEP window   2: Lambda1 0.95   Lambda2 0.8999999999999999 [dLambda -0.050000000000000044]
TCL: Setting parameter firsttimestep to 0
TCL: Setting parameter alchLambda to 0.95
Info: NONBONDED TABLE R-SQUARED SPACING: 0.0625
Info: NONBONDED TABLE SIZE: 705 POINTS
TCL: Setting parameter alchLambda2 to 0.8999999999999999
Info: NONBONDED TABLE R-SQUARED SPACING: 0.0625
Info: NONBONDED TABLE SIZE: 705 POINTS
TCL: Running for 1500000 steps
ETITLE: TS BOND ANGLE DIHED IMPRP ELECT VDW BOUNDARY MISC KINETIC TOTAL TEMP POTENTIAL TOTALAVG TEMPAVG PRESSURE GPRESSURE VOLUME PRESSAVG GPRESSAVG
ENERGY: 0 3.3532 6.8696 5.8434 0.0000 -10482.2754 1356.3639 0.0000 0.0000 1697.3799 -7412.4654 292.3705 -9109.8453 -7412.4654 292.3705 -755.6092 -661.5319 30437.5473 -755.6092 -661.5319
ENERGY: 300000 9.0831 8.3877 2.0964 0.0000 -10514.0681 1398.4483 0.0000 0.0000 1757.5112 -7338.5415 302.7280 -9096.0526 -7369.6363 296.6378 -98.5741 -38.6228 29640.9577 -429.2666 -340.7613
ENERGY: 600000 1.6312 8.6148 5.5851 0.0000 -10573.9426 1466.7497 0.0000 0.0000 1741.6595 -7349.7022 299.9976 -9091.3617 -7384.4844 297.7203 460.6977 545.5649 30093.1929 -197.5632 -117.3259
ENERGY: 900000 1.8693 11.5737 8.4711 0.0000 -10358.1359 1328.3930 0.0000 0.0000 1757.4120 -7250.4168 302.7109 -9007.8288 -7375.6929 298.5726 -663.1034 -535.1082 30531.1119 -281.0245 -188.5371
ENERGY: 1200000 4.7782 5.4266 5.4756 0.0000 -10652.0322 1469.0849 0.0000 0.0000 1738.7945 -7428.4724 299.5041 -9167.2669 -7376.7457 299.8919 366.8367 485.5448 30014.3086 -119.7966 -26.1705
ENERGY: 1500000 2.7967 7.4575 3.1028 0.0000 -10424.7387 1318.5392 0.0000 0.0000 1696.1076 -7396.7349 292.1513 -9092.8424 -7386.5492 299.0286 -933.6755 -913.8329 30564.4738 -227.8979 -140.1284
TCL: Running FEP window   3: Lambda1 0.8999999999999999 Lambda2 0.8499999999999999 [dLambda -0.050000000000000044]
TCL: Setting parameter firsttimestep to 0
TCL: Setting parameter alchLambda to 0.8999999999999999
Info: NONBONDED TABLE R-SQUARED SPACING: 0.0625
Info: NONBONDED TABLE SIZE: 705 POINTS
TCL: Setting parameter alchLambda2 to 0.8499999999999999
Info: NONBONDED TABLE R-SQUARED SPACING: 0.0625
Info: NONBONDED TABLE SIZE: 705 POINTS
TCL: Running for 1500000 steps
ETITLE: TS BOND ANGLE DIHED IMPRP ELECT VDW BOUNDARY MISC KINETIC TOTAL TEMP POTENTIAL TOTALAVG TEMPAVG PRESSURE GPRESSURE VOLUME PRESSAVG GPRESSAVG
ENERGY: 0 2.7967 7.4575 3.1028 0.0000 -10422.1709 1317.8874 0.0000 0.0000 1695.2212 -7395.7053 291.9987 -9090.9265 -7395.7053 291.9987 -1019.7027 -931.0331 30564.4738 -1019.7027 -931.0331
ENERGY: 300000 4.4490 7.1158 5.2191 0.0000 -10502.9508 1328.5939 0.0000 0.0000 1735.8578 -7421.7152 298.9983 -9157.5730 -7403.5798 297.0764 -646.9093 -638.0649 29722.0581 -398.8674 -349.9808
ENERGY: 600000 2.3133 5.0206 5.9936 0.0000 -10493.2384 1342.2750 0.0000 0.0000 1793.1809 -7344.4550 308.8720 -9137.6359 -7384.5302 301.0575 -585.2538 -515.2536 29906.1110 -445.6799 -377.8680
ENERGY: 900000 2.5784 5.7400 12.0656 0.0000 -10544.4341 1378.5319 0.0000 0.0000 1714.1724 -7431.3458 295.2630 -9145.5182 -7384.4691 300.7544 -534.6955 -372.0145 30158.9601 -281.8610 -205.8918
ENERGY: 1200000 2.1537 10.4690 8.9858 0.0000 -10689.0696 1531.4286 0.0000 0.0000 1753.8528 -7382.1795 302.0979 -9136.0323 -7365.4082 302.1389 808.6559 884.7873 30143.8863 -135.1134 -58.0651
ENERGY: 1500000 3.1751 9.2907 6.9202 0.0000 -10236.8752 1250.3651 0.0000 0.0000 1704.1337 -7262.9904 293.5338 -8967.1241 -7353.9339 300.6512 -1132.4904 -1082.8573 30272.9025 -204.8053 -131.3287
TCL: Running FEP window   4: Lambda1 0.8499999999999999 Lambda2 0.7999999999999998 [dLambda -0.050000000000000044]
TCL: Setting parameter firsttimestep to 0
TCL: Setting parameter alchLambda to 0.8499999999999999
Info: NONBONDED TABLE R-SQUARED SPACING: 0.0625
Info: NONBONDED TABLE SIZE: 705 POINTS
TCL: Setting parameter alchLambda2 to 0.7999999999999998
Info: NONBONDED TABLE R-SQUARED SPACING: 0.0625
Info: NONBONDED TABLE SIZE: 705 POINTS
TCL: Running for 1500000 steps
ETITLE: TS BOND ANGLE DIHED IMPRP ELECT VDW BOUNDARY MISC KINETIC TOTAL TEMP POTENTIAL TOTALAVG TEMPAVG PRESSURE GPRESSURE VOLUME PRESSAVG GPRESSAVG
ENERGY: 0 3.1751 9.2907 6.9202 0.0000 -10235.4721 1250.7239 0.0000 0.0000 1703.2547 -7262.1074 293.3824 -8965.3621 -7262.1074 293.3824 -1172.9536 -1090.4624 30272.9025 -1172.9536 -1090.4624
ENERGY: 300000 1.1565 7.8034 3.3390 0.0000 -10534.4619 1370.3218 0.0000 0.0000 1705.1484 -7446.6928 293.7086 -9151.8412 -7353.4943 298.2205 -134.9458 -131.1548 29829.1733 -496.8603 -415.8910
ENERGY: 600000 1.4668 6.6226 10.3492 0.0000 -10672.2152 1522.8581 0.0000 0.0000 1751.7197 -7379.1987 301.7304 -9130.9184 -7365.3928 299.3478 731.1990 807.6141 30247.8684 -149.7319 -90.2165
ENERGY: 900000 2.0536 6.6469 4.8830 0.0000 -10514.3600 1435.4954 0.0000 0.0000 1725.3535 -7339.9274 297.1889 -9065.2810 -7360.9070 300.7509 412.4953 482.0358 29967.9012 -152.7828 -90.4947
ENERGY: 1200000 3.6734 9.3964 8.3090 0.0000 -10526.6049 1430.1819 0.0000 0.0000 1798.9398 -7276.1045 309.8640 -9075.0443 -7357.7449 301.8791 282.3889 366.1096 29914.2834 11.8319 74.5150
ENERGY: 1500000 2.9939 7.0923 4.0321 0.0000 -10642.8189 1606.7644 0.0000 0.0000 1704.4588 -7317.4774 293.5898 -9021.9362 -7362.2233 301.0490 1899.5099 1932.8245 29926.2687 152.5618 210.2725
TCL: Running FEP window   5: Lambda1 0.7999999999999998 Lambda2 0.7499999999999998 [dLambda -0.050000000000000044]
TCL: Setting parameter firsttimestep to 0
TCL: Setting parameter alchLambda to 0.7999999999999998
Info: NONBONDED TABLE R-SQUARED SPACING: 0.0625
Info: NONBONDED TABLE SIZE: 705 POINTS
TCL: Setting parameter alchLambda2 to 0.7499999999999998
Info: NONBONDED TABLE R-SQUARED SPACING: 0.0625
Info: NONBONDED TABLE SIZE: 705 POINTS
TCL: Running for 1500000 steps
ETITLE: TS BOND ANGLE DIHED IMPRP ELECT VDW BOUNDARY MISC KINETIC TOTAL TEMP POTENTIAL TOTALAVG TEMPAVG PRESSURE GPRESSURE VOLUME PRESSAVG GPRESSAVG
ENERGY: 0 2.9939 7.0923 4.0321 0.0000 -10641.0259 1606.6403 0.0000 0.0000 1703.6089 -7316.6584 293.4434 -9020.2672 -7316.6584 293.4434 1838.1619 1920.4246 29926.2687 1838.1619 1920.4246
ENERGY: 300000 3.7358 6.7921 3.6005 0.0000 -10468.0570 1391.3021 0.0000 0.0000 1763.6426 -7298.9840 303.7841 -9062.6266 -7315.0282 300.9546 -313.9185 -272.6849 30541.9406 79.6538 137.4507
ENERGY: 600000 4.8050 7.6283 7.6473 0.0000 -10434.4332 1299.3215 0.0000 0.0000 1746.6141 -7368.4171 300.8510 -9115.0312 -7341.2762 301.1854 -936.9698 -827.0619 29928.0239 117.4217 180.3950
ENERGY: 900000 4.2766 8.2293 8.5739 0.0000 -10490.0294 1379.5630 0.0000 0.0000 1780.6866 -7308.7000 306.7199 -9089.3866 -7345.7489 301.0432 -101.7166 -94.5466 29802.8973 -1.2691 40.6751
ENERGY: 1200000 6.1557 5.3881 5.3558 0.0000 -10571.9030 1400.7635 0.0000 0.0000 1692.8495 -7461.3904 291.5902 -9154.2400 -7362.9390 300.1703 -296.2731 -212.8480 29537.2692 113.2096 156.7592
ENERGY: 1500000 4.3180 8.1047 1.8351 0.0000 -10485.9960 1354.9129 0.0000 0.0000 1735.7659 -7381.0594 298.9824 -9116.8253 -7363.4502 299.7883 -335.2789 -342.3793 29703.3401 132.3700 171.4803
TCL: Running FEP window   6: Lambda1 0.7499999999999998 Lambda2 0.6999999999999997 [dLambda -0.050000000000000044]
TCL: Setting parameter firsttimestep to 0
TCL: Setting parameter alchLambda to 0.7499999999999998
Info: NONBONDED TABLE R-SQUARED SPACING: 0.0625
Info: NONBONDED TABLE SIZE: 705 POINTS
TCL: Setting parameter alchLambda2 to 0.6999999999999997
Info: NONBONDED TABLE R-SQUARED SPACING: 0.0625
Info: NONBONDED TABLE SIZE: 705 POINTS
TCL: Running for 1500000 steps
ETITLE: TS BOND ANGLE DIHED IMPRP ELECT VDW BOUNDARY MISC KINETIC TOTAL TEMP POTENTIAL TOTALAVG TEMPAVG PRESSURE GPRESSURE VOLUME PRESSAVG GPRESSAVG
ENERGY: 0 4.3180 8.1047 1.8351 0.0000 -10484.5009 1354.6417 0.0000 0.0000 1734.9047 -7380.6966 298.8341 -9115.6013 -7380.6966 298.8341 -435.3332 -357.8080 29703.3401 -435.3332 -357.8080
ENERGY: 300000 3.5809 8.6001 8.8675 0.0000 -10653.8863 1450.4655 0.0000 0.0000 1777.0237 -7405.3485 306.0890 -9182.3723 -7383.4789 301.5659 -116.1171 -92.8708 30142.9627 54.1521 111.3318
ENERGY: 600000 2.0778 6.6576 8.1074 0.0000 -10531.6358 1383.8428 0.0000 0.0000 1738.3843 -7392.5660 299.4334 -9130.9503 -7374.5097 301.4653 -345.3103 -342.9080 29932.4510 73.2846 122.4276
ENERGY: 900000 1.5037 7.4467 8.3836 0.0000 -10555.1214 1391.8333 0.0000 0.0000 1716.4115 -7429.5427 295.6487 -9145.9541 -7385.9031 299.7072 -268.9380 -215.1167 30301.9232 42.1947 95.6760
ENERGY: 1200000 4.0718 7.2875 9.4620 0.0000 -10484.0175 1362.9743 0.0000 0.0000 1676.0915 -7424.1304 288.7036 -9100.2219 -7384.3822 298.9467 -667.0584 -593.6203 30415.9919 -52.5497 0.2210
ENERGY: 1500000 4.6481 4.8405 5.7545 0.0000 -10462.6162 1372.1526 0.0000 0.0000 1757.5157 -7317.7048 302.7288 -9075.2205 -7382.4910 299.4824 -571.5294 -502.9530 30382.5679 -42.7101 10.3072
TCL: Running FEP window   7: Lambda1 0.6999999999999997 Lambda2 0.6499999999999997 [dLambda -0.050000000000000044]
TCL: Setting parameter firsttimestep to 0
TCL: Setting parameter alchLambda to 0.6999999999999997
Info: NONBONDED TABLE R-SQUARED SPACING: 0.0625
Info: NONBONDED TABLE SIZE: 705 POINTS
TCL: Setting parameter alchLambda2 to 0.6499999999999997
Info: NONBONDED TABLE R-SQUARED SPACING: 0.0625
Info: NONBONDED TABLE SIZE: 705 POINTS
TCL: Running for 1500000 steps
ETITLE: TS BOND ANGLE DIHED IMPRP ELECT VDW BOUNDARY MISC KINETIC TOTAL TEMP POTENTIAL TOTALAVG TEMPAVG PRESSURE GPRESSURE VOLUME PRESSAVG GPRESSAVG
ENERGY: 0 4.6481 4.8405 5.7545 0.0000 -10460.7942 1372.0777 0.0000 0.0000 1756.6153 -7316.8581 302.5737 -9073.4734 -7316.8581 302.5737 -598.5090 -512.0485 30382.5679 -598.5090 -512.0485
ENERGY: 300000 2.9221 12.9852 4.5758 0.0000 -10453.6593 1344.5204 0.0000 0.0000 1749.3640 -7339.2917 301.3247 -9088.6557 -7348.8078 299.6565 -684.2489 -610.9651 30332.9335 -220.4479 -140.2123
ENERGY: 600000 2.5508 10.0676 3.7278 0.0000 -10513.6200 1418.9885 0.0000 0.0000 1688.8633 -7389.4220 290.9035 -9078.2854 -7348.9950 297.8876 22.3407 40.6036 29612.3744 -191.4113 -114.5663
ENERGY: 900000 5.4981 7.8685 9.3507 0.0000 -10620.2973 1491.1067 0.0000 0.0000 1751.4321 -7355.0412 301.6809 -9106.4733 -7359.9395 298.9139 460.8341 536.4750 29718.5408 -74.4538 -8.1510
ENERGY: 1200000 4.9795 5.7616 6.0909 0.0000 -10561.1840 1442.1481 0.0000 0.0000 1786.7666 -7315.4373 307.7672 -9102.2038 -7361.5381 299.3818 203.1837 278.7079 29992.1097 -0.9539 60.5963
ENERGY: 1500000 2.2555 6.0137 7.6500 0.0000 -10622.2208 1469.8798 0.0000 0.0000 1705.6971 -7430.7246 293.8031 -9136.4218 -7365.9199 298.8644 554.9799 665.3114 29348.4804 37.5819 102.3380
TCL: Running FEP window   8: Lambda1 0.6499999999999997 Lambda2 0.5999999999999996 [dLambda -0.050000000000000044]
TCL: Setting parameter firsttimestep to 0
TCL: Setting parameter alchLambda to 0.6499999999999997
Info: NONBONDED TABLE R-SQUARED SPACING: 0.0625
Info: NONBONDED TABLE SIZE: 705 POINTS
TCL: Setting parameter alchLambda2 to 0.5999999999999996
Info: NONBONDED TABLE R-SQUARED SPACING: 0.0625
Info: NONBONDED TABLE SIZE: 705 POINTS
TCL: Running for 1500000 steps
ETITLE: TS BOND ANGLE DIHED IMPRP ELECT VDW BOUNDARY MISC KINETIC TOTAL TEMP POTENTIAL TOTALAVG TEMPAVG PRESSURE GPRESSURE VOLUME PRESSAVG GPRESSAVG
ENERGY: 0 2.2555 6.0137 7.6500 0.0000 -10621.2731 1470.2192 0.0000 0.0000 1704.8208 -7430.3139 293.6522 -9135.1347 -7430.3139 293.6522 583.0845 659.7446 29348.4804 583.0845 659.7446
ENERGY: 300000 3.6399 8.8499 9.7114 0.0000 -10528.8206 1429.4793 0.0000 0.0000 1680.2450 -7396.8950 289.4190 -9077.1400 -7382.4894 294.4288 -506.8359 -408.7658 30758.0604 43.5365 100.8080
ENERGY: 600000 2.7235 5.9155 7.8058 0.0000 -10663.6017 1509.5297 0.0000 0.0000 1744.4921 -7393.1351 300.4855 -9137.6272 -7366.4176 297.7896 819.2764 946.9077 29324.4466 36.6181 123.8273
ENERGY: 900000 7.8227 7.9247 5.2493 0.0000 -10443.7511 1375.4397 0.0000 0.0000 1742.3561 -7304.9587 300.1176 -9047.3147 -7353.6059 298.7009 -358.6221 -350.5724 30457.7033 -55.3812 15.6768
ENERGY: 1200000 2.5875 11.4743 7.8267 0.0000 -10529.9260 1394.7134 0.0000 0.0000 1750.2979 -7363.0261 301.4855 -9113.3240 -7359.1617 298.5684 -371.7005 -287.8857 30275.9619 -98.1635 -32.2599
ENERGY: 1500000 8.1150 12.6629 5.6094 0.0000 -10556.1436 1399.9338 0.0000 0.0000 1763.1933 -7366.6292 303.7067 -9129.8225 -7362.8607 298.2811 -212.0442 -175.5025 30072.3005 -165.7041 -104.8597
TCL: Running FEP window   9: Lambda1 0.5999999999999996 Lambda2 0.5499999999999996 [dLambda -0.050000000000000044]
TCL: Setting parameter firsttimestep to 0
TCL: Setting parameter alchLambda to 0.5999999999999996
Info: NONBONDED TABLE R-SQUARED SPACING: 0.0625
Info: NONBONDED TABLE SIZE: 705 POINTS
TCL: Setting parameter alchLambda2 to 0.5499999999999996
Info: NONBONDED TABLE R-SQUARED SPACING: 0.0625
Info: NONBONDED TABLE SIZE: 705 POINTS
TCL: Running for 1500000 steps
ETITLE: TS BOND ANGLE DIHED IMPRP ELECT VDW BOUNDARY MISC KINETIC TOTAL TEMP POTENTIAL TOTALAVG TEMPAVG PRESSURE GPRESSURE VOLUME PRESSAVG GPRESSAVG
ENERGY: 0 8.1150 12.6629 5.6094 0.0000 -10555.5621 1400.1924 0.0000 0.0000 1762.3900 -7366.5924 303.5684 -9128.9825 -7366.5924 303.5684 -257.8957 -183.1290 30072.3005 -257.8957 -183.1290
ENERGY: 300000 5.8785 5.5725 12.6115 0.0000 -10535.5753 1450.0043 0.0000 0.0000 1784.8435 -7276.6651 307.4359 -9061.5086 -7305.5927 305.2092 297.7933 344.7377 29980.3386 -7.1315 56.3497
ENERGY: 600000 4.1827 11.0889 5.2121 0.0000 -10447.6669 1311.3950 0.0000 0.0000 1771.1007 -7344.6876 305.0688 -9115.7883 -7320.7444 304.7714 -1139.1883 -1077.1218 30690.1188 -24.5143 30.6816
ENERGY: 900000 5.7637 6.4393 4.0306 0.0000 -10430.2363 1362.7810 0.0000 0.0000 1768.4223 -7282.7994 304.6074 -9051.2217 -7325.4328 303.2112 -434.3239 -466.7793 30404.7793 -47.4219 -2.8930
ENERGY: 1200000 2.4038 6.6547 5.9490 0.0000 -10296.4182 1267.9902 0.0000 0.0000 1728.5362 -7284.8843 297.7371 -9013.4205 -7335.7631 301.7523 -599.6222 -569.4467 29966.3631 5.4730 49.1175
ENERGY: 1500000 4.8982 12.8465 3.2610 0.0000 -10591.5044 1481.1807 0.0000 0.0000 1748.2631 -7341.0549 301.1350 -9089.3180 -7326.9139 301.8911 679.0012 692.7723 29710.3133 49.2726 95.5066
TCL: Running FEP window  10: Lambda1 0.5499999999999996 Lambda2 0.4999999999999996 [dLambda -0.04999999999999999]
TCL: Setting parameter firsttimestep to 0
TCL: Setting parameter alchLambda to 0.5499999999999996
Info: NONBONDED TABLE R-SQUARED SPACING: 0.0625
Info: NONBONDED TABLE SIZE: 705 POINTS
TCL: Setting parameter alchLambda2 to 0.4999999999999996
Info: NONBONDED TABLE R-SQUARED SPACING: 0.0625
Info: NONBONDED TABLE SIZE: 705 POINTS
TCL: Running for 1500000 steps
ETITLE: TS BOND ANGLE DIHED IMPRP ELECT VDW BOUNDARY MISC KINETIC TOTAL TEMP POTENTIAL TOTALAVG TEMPAVG PRESSURE GPRESSURE VOLUME PRESSAVG GPRESSAVG
ENERGY: 0 4.8982 12.8465 3.2610 0.0000 -10591.2374 1480.9153 0.0000 0.0000 1747.3944 -7341.9220 300.9854 -9089.3164 -7341.9220 300.9854 598.1682 682.1496 29710.3133 598.1682 682.1496
ENERGY: 300000 2.6317 8.1988 4.5577 0.0000 -10526.2569 1419.7294 0.0000 0.0000 1713.4308 -7377.7086 295.1352 -9091.1394 -7354.9603 300.5574 56.6126 91.0424 30086.6435 -149.7112 -64.4116
ENERGY: 600000 3.9394 9.8414 3.6987 0.0000 -10526.1194 1419.1987 0.0000 0.0000 1702.9282 -7386.5130 293.3262 -9089.4412 -7343.7794 300.6386 -86.0673 -42.9409 30134.5757 -92.4379 -35.7181
ENERGY: 900000 4.4919 7.8130 12.7885 0.0000 -10301.6691 1268.7139 0.0000 0.0000 1726.5047 -7281.3571 297.3872 -9007.8618 -7350.8914 298.1647 -1046.0184 -968.8345 30043.6339 -198.2650 -135.7997
ENERGY: 1200000 2.1796 10.5129 9.4037 0.0000 -10398.1528 1348.5855 0.0000 0.0000 1774.6953 -7252.7758 305.6879 -9027.4712 -7345.9327 297.7264 51.5819 72.3342 29742.5640 -198.7310 -144.6821
ENERGY: 1500000 5.9617 7.6387 5.7222 0.0000 -10494.2025 1417.7947 0.0000 0.0000 1731.5794 -7325.5059 298.2613 -9057.0853 -7341.7207 298.2340 -285.5160 -195.5523 30372.6432 -213.0375 -151.4461
TCL: Running FEP window  11: Lambda1 0.4999999999999996 Lambda2 0.4499999999999996 [dLambda -0.04999999999999999]
TCL: Setting parameter firsttimestep to 0
TCL: Setting parameter alchLambda to 0.4999999999999996
Info: NONBONDED TABLE R-SQUARED SPACING: 0.0625
Info: NONBONDED TABLE SIZE: 705 POINTS
TCL: Setting parameter alchLambda2 to 0.4499999999999996
Info: NONBONDED TABLE R-SQUARED SPACING: 0.0625
Info: NONBONDED TABLE SIZE: 705 POINTS
TCL: Running for 1500000 steps
ETITLE: TS BOND ANGLE DIHED IMPRP ELECT VDW BOUNDARY MISC KINETIC TOTAL TEMP POTENTIAL TOTALAVG TEMPAVG PRESSURE GPRESSURE VOLUME PRESSAVG GPRESSAVG
ENERGY: 0 5.9617 7.6387 5.7222 0.0000 -10493.6265 1418.0559 0.0000 0.0000 1730.6749 -7325.5732 298.1055 -9056.2481 -7325.5732 298.1055 -268.4864 -195.6441 30372.6432 -268.4864 -195.6441
ENERGY: 300000 6.2973 10.8369 6.7997 0.0000 -10645.4840 1441.0462 0.0000 0.0000 1758.1081 -7422.3959 302.8308 -9180.5039 -7361.6524 300.5077 -209.1188 -96.4554 29911.2041 -168.6408 -80.4964
ENERGY: 600000 1.5845 12.9941 2.6230 0.0000 -10546.9385 1407.8549 0.0000 0.0000 1754.9656 -7366.9164 302.2895 -9121.8820 -7347.7584 300.7895 11.4760 19.9672 29880.7555 -157.4545 -80.3689
ENERGY: 900000 4.9205 11.7175 2.7153 0.0000 -10665.6220 1533.7753 0.0000 0.0000 1747.6423 -7364.8512 301.0281 -9112.4935 -7359.7296 300.6276 1017.7284 1078.8358 29268.1765 66.5494 138.9410
ENERGY: 1200000 2.9935 6.1446 6.3264 0.0000 -10448.7178 1350.8943 0.0000 0.0000 1791.0213 -7291.3379 308.5001 -9082.3592 -7352.4204 301.1302 -230.4724 -148.3161 29647.3709 22.2285 91.1175
ENERGY: 1500000 3.5850 7.6941 7.5562 0.0000 -10582.1104 1456.3900 0.0000 0.0000 1733.5542 -7373.3309 298.6015 -9106.8852 -7349.8896 301.3981 280.2620 261.8753 30010.9492 87.9570 145.5979
TCL: Running FEP window  12: Lambda1 0.4499999999999996 Lambda2 0.39999999999999963 [dLambda -0.04999999999999999]
TCL: Setting parameter firsttimestep to 0
TCL: Setting parameter alchLambda to 0.4499999999999996
Info: NONBONDED TABLE R-SQUARED SPACING: 0.0625
Info: NONBONDED TABLE SIZE: 705 POINTS
TCL: Setting parameter alchLambda2 to 0.39999999999999963
Info: NONBONDED TABLE R-SQUARED SPACING: 0.0625
Info: NONBONDED TABLE SIZE: 705 POINTS
TCL: Running for 1500000 steps
ETITLE: TS BOND ANGLE DIHED IMPRP ELECT VDW BOUNDARY MISC KINETIC TOTAL TEMP POTENTIAL TOTALAVG TEMPAVG PRESSURE GPRESSURE VOLUME PRESSAVG GPRESSAVG
ENERGY: 0 3.5850 7.6941 7.5562 0.0000 -10582.1095 1456.9126 0.0000 0.0000 1732.6991 -7373.6625 298.4542 -9106.3616 -7373.6625 298.4542 171.2404 256.3811 30010.9492 171.2404 256.3811
ENERGY: 300000 1.3556 9.1041 4.2487 0.0000 -10575.5180 1441.3942 0.0000 0.0000 1772.4594 -7346.9560 305.3028 -9119.4154 -7359.9643 300.5390 337.1849 375.1358 29504.9727 255.2112 310.1646
ENERGY: 600000 0.9682 6.2661 8.4984 0.0000 -10489.1015 1386.1681 0.0000 0.0000 1730.3052 -7356.8956 298.0418 -9087.2008 -7375.0810 299.8256 -46.8864 11.4448 29621.1269 -22.5642 31.6131
ENERGY: 900000 5.3082 9.6991 2.8081 0.0000 -10511.9673 1378.8553 0.0000 0.0000 1715.4573 -7399.8394 295.4843 -9115.2966 -7375.6680 299.1723 -581.2660 -468.9087 30293.9652 -116.1333 -55.1607
ENERGY: 1200000 3.4220 6.6432 8.2060 0.0000 -10594.9738 1412.8769 0.0000 0.0000 1697.4268 -7466.3989 292.3786 -9163.8257 -7379.4260 299.9645 -206.0863 -135.5588 29862.1646 -209.1281 -147.8156
ENERGY: 1500000 2.7003 7.5516 9.5862 0.0000 -10616.8182 1407.6452 0.0000 0.0000 1806.8268 -7382.5081 311.2225 -9189.3348 -7379.0852 301.0393 -396.2947 -262.2639 29915.5333 -163.0567 -93.9332
TCL: Running FEP window  13: Lambda1 0.39999999999999963 Lambda2 0.34999999999999964 [dLambda -0.04999999999999999]
TCL: Setting parameter firsttimestep to 0
TCL: Setting parameter alchLambda to 0.39999999999999963
Info: NONBONDED TABLE R-SQUARED SPACING: 0.0625
Info: NONBONDED TABLE SIZE: 705 POINTS
TCL: Setting parameter alchLambda2 to 0.34999999999999964
Info: NONBONDED TABLE R-SQUARED SPACING: 0.0625
Info: NONBONDED TABLE SIZE: 705 POINTS
TCL: Running for 1500000 steps
ETITLE: TS BOND ANGLE DIHED IMPRP ELECT VDW BOUNDARY MISC KINETIC TOTAL TEMP POTENTIAL TOTALAVG TEMPAVG PRESSURE GPRESSURE VOLUME PRESSAVG GPRESSAVG
ENERGY: 0 2.7003 7.5516 9.5862 0.0000 -10616.8165 1407.4661 0.0000 0.0000 1805.9419 -7383.5703 311.0701 -9189.5122 -7383.5703 311.0701 -356.7419 -267.8674 29915.5333 -356.7419 -267.8674
ENERGY: 300000 3.3375 10.8784 6.8688 0.0000 -10484.7418 1430.0659 0.0000 0.0000 1714.1180 -7319.4732 295.2536 -9033.5913 -7374.8385 303.1901 37.8908 73.7145 30195.0775 -33.1369 10.4703
ENERGY: 600000 3.4259 5.8839 6.8901 0.0000 -10501.1595 1382.8232 0.0000 0.0000 1694.5746 -7407.5619 291.8873 -9102.1365 -7398.8980 299.2230 -434.5820 -303.5014 29864.8099 -27.1215 22.6064
ENERGY: 900000 1.6961 9.9614 7.4637 0.0000 -10395.2130 1363.9624 0.0000 0.0000 1734.8157 -7277.3138 298.8187 -9012.1295 -7381.0924 299.0326 -350.4038 -341.4772 30299.7474 -100.6260 -54.2145
ENERGY: 1200000 3.0027 5.4150 6.4495 0.0000 -10363.2575 1332.7655 0.0000 0.0000 1768.5872 -7247.0375 304.6358 -9015.6247 -7363.7394 299.4601 -181.3025 -185.2016 30103.5558 -111.1905 -66.2816
ENERGY: 1500000 7.6660 11.9811 9.3322 0.0000 -10571.5542 1489.5618 0.0000 0.0000 1773.3243 -7279.6888 305.4518 -9053.0130 -7360.2858 299.8747 738.2271 718.8385 29728.7816 -20.2331 16.1751
TCL: Running FEP window  14: Lambda1 0.34999999999999964 Lambda2 0.29999999999999966 [dLambda -0.04999999999999999]
TCL: Setting parameter firsttimestep to 0
TCL: Setting parameter alchLambda to 0.34999999999999964
Info: NONBONDED TABLE R-SQUARED SPACING: 0.0625
Info: NONBONDED TABLE SIZE: 705 POINTS
TCL: Setting parameter alchLambda2 to 0.29999999999999966
Info: NONBONDED TABLE R-SQUARED SPACING: 0.0625
Info: NONBONDED TABLE SIZE: 705 POINTS
TCL: Running for 1500000 steps
ETITLE: TS BOND ANGLE DIHED IMPRP ELECT VDW BOUNDARY MISC KINETIC TOTAL TEMP POTENTIAL TOTALAVG TEMPAVG PRESSURE GPRESSURE VOLUME PRESSAVG GPRESSAVG
ENERGY: 0 7.6660 11.9811 9.3322 0.0000 -10571.5540 1489.7426 0.0000 0.0000 1772.4530 -7280.3790 305.3017 -9052.8321 -7280.3790 305.3017 630.6516 714.2177 29728.7816 630.6516 714.2177
ENERGY: 300000 3.1216 8.5199 7.0865 0.0000 -10568.3947 1447.4061 0.0000 0.0000 1733.6951 -7368.5655 298.6257 -9102.2606 -7376.5442 298.3426 -18.2172 78.9756 30289.6102 260.9898 353.1985
ENERGY: 600000 4.9325 9.8708 10.4595 0.0000 -10461.5964 1416.8748 0.0000 0.0000 1747.5463 -7271.9125 301.0116 -9019.4587 -7359.1685 300.0459 -177.7618 -88.9439 30347.0374 185.6410 259.8276
ENERGY: 900000 1.9765 9.2776 8.4574 0.0000 -10633.3165 1520.7933 0.0000 0.0000 1741.1620 -7351.6497 299.9119 -9092.8117 -7350.6772 299.9956 1014.0662 1057.8229 29596.3742 293.5801 356.2379
ENERGY: 1200000 3.7523 10.0752 7.2642 0.0000 -10624.7496 1438.1303 0.0000 0.0000 1682.6378 -7482.8898 289.8312 -9165.5276 -7360.8721 299.0111 -57.9502 100.4106 29511.1876 117.7977 184.1712
ENERGY: 1500000 8.0335 7.6012 7.5737 0.0000 -10544.7452 1373.0153 0.0000 0.0000 1742.2326 -7406.2890 300.0963 -9148.5216 -7360.8707 299.1457 -553.5951 -492.1073 29839.1985 8.0251 71.6732
TCL: Running FEP window  15: Lambda1 0.29999999999999966 Lambda2 0.24999999999999967 [dLambda -0.04999999999999999]
TCL: Setting parameter firsttimestep to 0
TCL: Setting parameter alchLambda to 0.29999999999999966
Info: NONBONDED TABLE R-SQUARED SPACING: 0.0625
Info: NONBONDED TABLE SIZE: 705 POINTS
TCL: Setting parameter alchLambda2 to 0.24999999999999967
Info: NONBONDED TABLE R-SQUARED SPACING: 0.0625
Info: NONBONDED TABLE SIZE: 705 POINTS
TCL: Running for 1500000 steps
ETITLE: TS BOND ANGLE DIHED IMPRP ELECT VDW BOUNDARY MISC KINETIC TOTAL TEMP POTENTIAL TOTALAVG TEMPAVG PRESSURE GPRESSURE VOLUME PRESSAVG GPRESSAVG
ENERGY: 0 8.0335 7.6012 7.5737 0.0000 -10544.7459 1373.3807 0.0000 0.0000 1741.3246 -7406.8323 299.9399 -9148.1569 -7406.8323 299.9399 -578.6140 -495.0924 29839.1985 -578.6140 -495.0924
ENERGY: 300000 8.0221 7.3316 5.3626 0.0000 -10568.1546 1412.7575 0.0000 0.0000 1757.9596 -7376.7213 302.8052 -9134.6808 -7364.5256 301.0258 -303.4750 -294.4540 29808.9161 -285.5873 -258.7013
ENERGY: 600000 3.8991 15.7941 4.9553 0.0000 -10359.4163 1316.4261 0.0000 0.0000 1706.5302 -7311.8114 293.9466 -9018.3417 -7350.3066 300.2733 -882.9813 -849.1718 30360.9316 -215.1241 -185.9801
ENERGY: 900000 4.1131 8.5978 13.0045 0.0000 -10618.9857 1442.4043 0.0000 0.0000 1743.9625 -7406.9035 300.3943 -9150.8661 -7346.7475 301.1240 -25.7961 49.5404 29528.9500 -158.2801 -119.3038
ENERGY: 1200000 3.1756 9.9925 3.9574 0.0000 -10463.8805 1336.9671 0.0000 0.0000 1704.9119 -7404.8759 293.6679 -9109.7879 -7359.5349 299.6243 -833.2684 -757.6366 30130.8961 -180.6254 -144.6354
ENERGY: 1500000 3.9566 6.2946 10.0504 0.0000 -10580.1998 1472.9287 0.0000 0.0000 1767.3519 -7319.6176 304.4230 -9086.9695 -7357.4533 299.8763 74.4446 144.6722 30353.3358 -86.5634 -42.8092
TCL: Running FEP window  16: Lambda1 0.24999999999999967 Lambda2 0.19999999999999968 [dLambda -0.04999999999999999]
TCL: Setting parameter firsttimestep to 0
TCL: Setting parameter alchLambda to 0.24999999999999967
Info: NONBONDED TABLE R-SQUARED SPACING: 0.0625
Info: NONBONDED TABLE SIZE: 705 POINTS
TCL: Setting parameter alchLambda2 to 0.19999999999999968
Info: NONBONDED TABLE R-SQUARED SPACING: 0.0625
Info: NONBONDED TABLE SIZE: 705 POINTS
TCL: Running for 1500000 steps
ETITLE: TS BOND ANGLE DIHED IMPRP ELECT VDW BOUNDARY MISC KINETIC TOTAL TEMP POTENTIAL TOTALAVG TEMPAVG PRESSURE GPRESSURE VOLUME PRESSAVG GPRESSAVG
ENERGY: 0 3.9566 6.2946 10.0504 0.0000 -10580.1998 1473.3692 0.0000 0.0000 1766.4643 -7320.0647 304.2702 -9086.5290 -7320.0647 304.2702 56.4669 144.7765 30353.3358 56.4669 144.7765
ENERGY: 300000 6.8015 8.5485 7.6526 0.0000 -10679.7707 1416.3052 0.0000 0.0000 1730.2597 -7510.2031 298.0340 -9240.4629 -7360.1944 306.3663 -437.7211 -388.4901 29502.0885 126.1487 215.0782
ENERGY: 600000 4.9672 8.1777 7.0889 0.0000 -10634.6362 1527.7546 0.0000 0.0000 1732.7712 -7353.8765 298.4666 -9086.6477 -7344.3488 305.2326 938.7217 1021.3692 29429.7837 198.8331 281.2382
ENERGY: 900000 6.6674 9.6290 11.9340 0.0000 -10677.0243 1553.4463 0.0000 0.0000 1790.1739 -7305.1736 308.3541 -9095.3475 -7331.3997 305.0322 1305.6451 1347.9443 29616.7991 317.6308 381.0375
ENERGY: 1200000 3.0942 8.4751 9.2067 0.0000 -10570.3089 1437.9111 0.0000 0.0000 1820.9791 -7290.6428 313.6602 -9111.6219 -7328.0345 303.5889 -135.1790 -98.3745 30289.8554 166.4131 226.3694
ENERGY: 1500000 4.0738 10.4152 4.4014 0.0000 -10403.9819 1403.8831 0.0000 0.0000 1737.4681 -7243.7404 299.2756 -8981.2084 -7323.3658 303.1020 -40.4861 -19.7029 30232.7127 106.1600 164.7430
TCL: Running FEP window  17: Lambda1 0.19999999999999968 Lambda2 0.1499999999999997 [dLambda -0.04999999999999999]
TCL: Setting parameter firsttimestep to 0
TCL: Setting parameter alchLambda to 0.19999999999999968
Info: NONBONDED TABLE R-SQUARED SPACING: 0.0625
Info: NONBONDED TABLE SIZE: 705 POINTS
TCL: Setting parameter alchLambda2 to 0.1499999999999997
Info: NONBONDED TABLE R-SQUARED SPACING: 0.0625
Info: NONBONDED TABLE SIZE: 705 POINTS
TCL: Running for 1500000 steps
ETITLE: TS BOND ANGLE DIHED IMPRP ELECT VDW BOUNDARY MISC KINETIC TOTAL TEMP POTENTIAL TOTALAVG TEMPAVG PRESSURE GPRESSURE VOLUME PRESSAVG GPRESSAVG
ENERGY: 0 4.0738 10.4152 4.4014 0.0000 -10403.9803 1403.4128 0.0000 0.0000 1736.6207 -7245.0564 299.1296 -8981.6771 -7245.0564 299.1296 -100.5625 -25.1967 30232.7127 -100.5625 -25.1967
ENERGY: 300000 4.0908 5.3906 12.8277 0.0000 -10552.7834 1342.1629 0.0000 0.0000 1714.4474 -7473.8640 295.3103 -9188.3114 -7358.8715 296.3431 -582.4097 -483.4820 29200.9230 19.2189 104.3041
ENERGY: 600000 6.0506 4.6351 7.2493 0.0000 -10587.6960 1418.5980 0.0000 0.0000 1771.3306 -7379.8323 305.1084 -9151.1630 -7335.1931 300.2003 -78.7198 15.9531 29521.1740 67.2459 150.8830
ENERGY: 900000 3.7827 5.0852 7.7401 0.0000 -10636.9273 1393.1221 0.0000 0.0000 1751.2339 -7475.9632 301.6467 -9227.1971 -7351.6104 299.9336 -583.0717 -562.4230 29887.5502 47.2303 129.1206
ENERGY: 1200000 5.3652 10.6887 9.6355 0.0000 -10391.5730 1354.8092 0.0000 0.0000 1777.4908 -7233.5836 306.1695 -9011.0744 -7336.9838 301.0505 -357.2662 -312.7723 30191.2714 -31.6909 46.1004
ENERGY: 1500000 3.0029 8.4799 5.8880 0.0000 -10760.0868 1544.6143 0.0000 0.0000 1795.3427 -7402.7590 309.2444 -9198.1017 -7341.8192 301.0421 1119.5044 1137.8196 29136.0141 -8.9928 60.1617
TCL: Running FEP window  18: Lambda1 0.1499999999999997 Lambda2 0.09999999999999969 [dLambda -0.05 ]
TCL: Setting parameter firsttimestep to 0
TCL: Setting parameter alchLambda to 0.1499999999999997
Info: NONBONDED TABLE R-SQUARED SPACING: 0.0625
Info: NONBONDED TABLE SIZE: 705 POINTS
TCL: Setting parameter alchLambda2 to 0.09999999999999969
Info: NONBONDED TABLE R-SQUARED SPACING: 0.0625
Info: NONBONDED TABLE SIZE: 705 POINTS
TCL: Running for 1500000 steps
ETITLE: TS BOND ANGLE DIHED IMPRP ELECT VDW BOUNDARY MISC KINETIC TOTAL TEMP POTENTIAL TOTALAVG TEMPAVG PRESSURE GPRESSURE VOLUME PRESSAVG GPRESSAVG
ENERGY: 0 3.0029 8.4799 5.8880 0.0000 -10760.0869 1544.5465 0.0000 0.0000 1794.4255 -7403.7441 309.0864 -9198.1696 -7403.7441 309.0864 1055.7354 1134.9149 29136.0141 1055.7354 1134.9149
ENERGY: 300000 6.2761 7.7282 9.3957 0.0000 -10560.4914 1432.2963 0.0000 0.0000 1699.5404 -7405.2548 292.7426 -9104.7952 -7352.6421 303.1045 13.3795 70.1014 29564.5563 443.4444 505.3680
ENERGY: 600000 3.6914 5.3309 7.3074 0.0000 -10510.5863 1414.4523 0.0000 0.0000 1727.1795 -7352.6248 297.5034 -9079.8043 -7328.7209 302.4512 -7.3437 -1.8072 29804.0561 165.2515 213.3711
ENERGY: 900000 2.5281 5.9915 6.3825 0.0000 -10445.5801 1361.9270 0.0000 0.0000 1758.5268 -7310.2242 302.9029 -9068.7510 -7320.1389 302.5045 -317.2675 -216.9903 29700.5358 88.0252 140.5077
ENERGY: 1200000 3.4360 7.9175 5.3731 0.0000 -10732.3414 1527.7979 0.0000 0.0000 1731.6751 -7456.1418 298.2778 -9187.8169 -7336.9963 301.8706 798.4737 831.3529 29521.2902 77.2489 125.4372
ENERGY: 1500000 1.4012 12.5002 4.6695 0.0000 -10649.4686 1545.1696 0.0000 0.0000 1764.5385 -7321.1895 303.9384 -9085.7280 -7342.9350 301.5032 1018.9832 1053.7978 29758.5813 110.7924 159.8422
TCL: Running FEP window  19: Lambda1 0.09999999999999969 Lambda2 0.049999999999999684 [dLambda -0.05 ]
TCL: Setting parameter firsttimestep to 0
TCL: Setting parameter alchLambda to 0.09999999999999969
Info: NONBONDED TABLE R-SQUARED SPACING: 0.0625
Info: NONBONDED TABLE SIZE: 705 POINTS
TCL: Setting parameter alchLambda2 to 0.049999999999999684
Info: NONBONDED TABLE R-SQUARED SPACING: 0.0625
Info: NONBONDED TABLE SIZE: 705 POINTS
TCL: Running for 1500000 steps
ETITLE: TS BOND ANGLE DIHED IMPRP ELECT VDW BOUNDARY MISC KINETIC TOTAL TEMP POTENTIAL TOTALAVG TEMPAVG PRESSURE GPRESSURE VOLUME PRESSAVG GPRESSAVG
ENERGY: 0 1.4012 12.5002 4.6695 0.0000 -10649.4685 1545.6042 0.0000 0.0000 1763.6608 -7321.6325 303.7873 -9085.2933 -7321.6325 303.7873 977.5953 1052.1693 29758.5813 977.5953 1052.1693
ENERGY: 300000 9.9260 11.1428 7.6328 0.0000 -10460.7496 1390.8005 0.0000 0.0000 1781.6843 -7259.5631 306.8918 -9041.2475 -7316.8922 304.8714 -486.0700 -472.8299 30270.6551 -83.7953 -23.9132
ENERGY: 600000 5.7133 10.1099 10.0799 0.0000 -10559.0851 1440.8452 0.0000 0.0000 1712.1456 -7380.1912 294.9139 -9092.3368 -7347.2315 302.3461 90.5963 123.3947 29658.8391 -194.6815 -140.2073
ENERGY: 900000 3.4726 6.1688 6.5702 0.0000 -10475.3554 1383.9393 0.0000 0.0000 1728.3669 -7346.8375 297.7080 -9075.2044 -7339.1908 301.7721 26.9108 59.5160 29413.8373 -120.7743 -66.6427
ENERGY: 1200000 7.7567 8.5618 9.7844 0.0000 -10571.4219 1426.7510 0.0000 0.0000 1724.9841 -7393.5839 297.1253 -9118.5679 -7347.3786 300.7456 313.3546 371.9017 29573.0142 -119.3640 -57.5353
ENERGY: 1500000 5.0295 9.6541 6.9854 0.0000 -10480.8435 1386.6256 0.0000 0.0000 1730.3827 -7342.1662 298.0552 -9072.5489 -7342.8380 300.7827 -486.0346 -529.3817 30314.8902 -171.8252 -116.8984
TCL: Running FEP window  20: Lambda1 0.049999999999999684 Lambda2 0.0    [dLambda -0.049999999999999684]
TCL: Setting parameter firsttimestep to 0
TCL: Setting parameter alchLambda to 0.049999999999999684
Info: NONBONDED TABLE R-SQUARED SPACING: 0.0625
Info: NONBONDED TABLE SIZE: 705 POINTS
TCL: Setting parameter alchLambda2 to 0.0
Info: NONBONDED TABLE R-SQUARED SPACING: 0.0625
Info: NONBONDED TABLE SIZE: 705 POINTS
TCL: Running for 1500000 steps
ETITLE: TS BOND ANGLE DIHED IMPRP ELECT VDW BOUNDARY MISC KINETIC TOTAL TEMP POTENTIAL TOTALAVG TEMPAVG PRESSURE GPRESSURE VOLUME PRESSAVG GPRESSAVG
ENERGY: 0 5.0295 9.6541 6.9854 0.0000 -10480.8433 1385.6942 0.0000 0.0000 1729.5513 -7343.9288 297.9120 -9073.4801 -7343.9288 297.9120 -615.5934 -535.6247 30314.8902 -615.5934 -535.6247
ENERGY: 300000 4.8196 11.7451 5.2120 0.0000 -10519.3917 1389.1878 0.0000 0.0000 1736.8469 -7371.5803 299.1686 -9108.4272 -7349.2869 300.1470 -744.9762 -687.6161 30388.8927 -606.8184 -550.8471
ENERGY: 600000 3.1818 9.9246 6.4076 0.0000 -10489.7919 1466.3436 0.0000 0.0000 1752.3312 -7251.6032 301.8358 -9003.9344 -7328.2566 300.5202 522.8228 551.1443 30143.0151 -394.9134 -338.1961
ENERGY: 900000 2.9306 11.3238 3.7601 0.0000 -10709.8265 1482.9793 0.0000 0.0000 1763.4272 -7445.4055 303.7470 -9208.8326 -7342.5456 301.4353 71.4827 107.4993 29784.2360 -317.6549 -268.6498
ENERGY: 1200000 5.1070 13.6998 8.2810 0.0000 -10537.7439 1379.9192 0.0000 0.0000 1746.4941 -7384.2428 300.8303 -9130.7369 -7361.1133 300.1681 -394.2305 -357.1410 29669.6732 -280.7111 -240.1365
ENERGY: 1500000 4.0038 6.4017 6.3317 0.0000 -10555.5768 1423.8407 0.0000 0.0000 1697.6874 -7417.3116 292.4235 -9114.9990 -7362.8160 299.4503 -156.1191 -135.1821 29947.1751 -259.0672 -223.1785
TCL: Exiting due to exit command.
