Info: SIMULATION PARAMETERS:
Info: TIMESTEP               2
Info: NUMBER OF STEPS        0
Info: STEPS PER CYCLE        10
Info: PERIODIC CELL BASIS 1  31.8078 0 0
Info: PERIODIC CELL BASIS 2  0 31.2831 0
Info: PERIODIC CELL BASIS 3  0 0 30.6373
Info: PERIODIC CELL CENTER   0 0 0
Info: WRAPPING WATERS AROUND PERIODIC BOUNDARIES ON OUTPUT.
Info: WRAPPING ALL CLUSTERS AROUND PERIODIC BOUNDARIES ON OUTPUT.
Info: FIRST LDB TIMESTEP     50
Info: LAST LDB TIMESTEP     -1
Info: HOM BACKGROUND SCALING 1
Info: PME BACKGROUND SCALING 1
Info: MIN ATOMS PER PATCH    40
Info: EMPTY PATCH LOAD       40 ATOMS
Info: VELOCITY FILE          mobley_6929123_equil.vel
Info: CENTER OF MASS MOVING INITIALLY? NO
Info: DIELECTRIC             1
Info: EXCLUDE                SCALED ONE-FOUR
Info: 1-4 ELECTROSTATICS SCALED BY 0.833333
Info: MODIFIED 1-4 VDW PARAMETERS WILL BE USED
Info: DCD FILENAME           mobley_6929123_prod.dcd
Info: DCD FREQUENCY          100000
Info: DCD FIRST STEP         100000
Info: DCD FILE WILL CONTAIN UNIT CELL DATA
Info: XST FILENAME           mobley_6929123_prod.xst
Info: XST FREQUENCY          100000
Info: NO VELOCITY DCD OUTPUT
Info: NO FORCE DCD OUTPUT
Info: OUTPUT FILENAME        mobley_6929123_prod
Info: BINARY OUTPUT FILES WILL BE USED
Info: RESTART FILENAME       mobley_6929123_prod.restart
Info: RESTART FREQUENCY      100000
Info: BINARY RESTART FILES WILL BE USED
Info: CUTOFF                 9
Info: PAIRLIST DISTANCE      11
Info: PAIRLIST SHRINK RATE   0.01
Info: PAIRLIST GROW RATE     0.01
Info: PAIRLIST TRIGGER       0.3
Info: PAIRLISTS PER CYCLE    2
Info: PAIRLISTS ENABLED
Info: MARGIN                 2
Info: HYDROGEN GROUP CUTOFF  2.5
Info: PATCH DIMENSION        15.5
Info: ENERGY OUTPUT STEPS    100000
Info: ENERGY EVALUATION STEPS    100000
Info: OUTPUT ENERGY PRECISION 4
Info: CROSSTERM ENERGY INCLUDED IN DIHEDRAL
Info: TIMING OUTPUT STEPS    1000000
Info: PRESSURE OUTPUT STEPS  100000
Info: ALCHEMICAL FEP ON
Info: FEP CURRENT LAMBDA VALUE     0
Info: FEP COMPARISON LAMBDA VALUE  0.05
Info: FEP INTRA-ALCHEMICAL NON-BONDED INTERACTIONS WILL BE RETAINED
Info: FEP INTRA-ALCHEMICAL BONDED INTERACTIONS WILL BE RETAINED
Info: FEP VDW SHIFTING COEFFICIENT 5
Info: FEP ELEC. ACTIVE FOR ANNIHILATED PARTICLES BETWEEN LAMBDA = 0 AND LAMBDA = 0.5
Info: FEP ELEC. ACTIVE FOR EXNIHILATED PARTICLES BETWEEN LAMBDA = 0.5 AND LAMBDA = 1
Info: FEP VDW ACTIVE FOR ANNIHILATED PARTICLES BETWEEN LAMBDA = 0 AND LAMBDA = 1
Info: FEP VDW ACTIVE FOR EXNIHILATED PARTICLES BETWEEN LAMBDA = 0 AND LAMBDA = 1
Info: FEP BOND ACTIVE FOR ANNIHILATED PARTICLES BETWEEN LAMBDA = 1 AND LAMBDA = 1
Info: FEP BOND ACTIVE FOR EXNIHILATED PARTICLES BETWEEN LAMBDA = 0 AND LAMBDA = 0
Info: LANGEVIN DYNAMICS ACTIVE
Info: LANGEVIN TEMPERATURE   300
Info: LANGEVIN USING BBK INTEGRATOR
Info: LANGEVIN DAMPING COEFFICIENT IS 1 INVERSE PS
Info: LANGEVIN DYNAMICS APPLIED TO HYDROGENS
Info: LANGEVIN PISTON PRESSURE CONTROL ACTIVE
Info:        TARGET PRESSURE IS 1.01325 BAR
Info:     OSCILLATION PERIOD IS 50 FS
Info:             DECAY TIME IS 25 FS
Info:     PISTON TEMPERATURE IS 300 K
Info:       PRESSURE CONTROL IS GROUP-BASED
Info:    INITIAL STRAIN RATE IS 0.000562286 0.000562286 0.000562286
Info:       CELL FLUCTUATION IS ISOTROPIC
Info: PARTICLE MESH EWALD (PME) ACTIVE
Info: PME TOLERANCE               1e-06
Info: PME EWALD COEFFICIENT       0.348832
Info: PME INTERPOLATION ORDER     4
Info: PME GRID DIMENSIONS         32 32 32
Info: PME MAXIMUM GRID SPACING    1
Info: PME CALCULATION WILL BE PERFORMED ON GPU
Info: FULL ELECTROSTATIC EVALUATION FREQUENCY      2
Info: USING VERLET I (r-RESPA) MTS SCHEME.
Info: C1 SPLITTING OF LONG RANGE ELECTROSTATICS
Info: PLACING ATOMS IN PATCHES BY HYDROGEN GROUPS
Info: RIGID BONDS TO HYDROGEN : ALL
Info:         ERROR TOLERANCE : 1e-08
Info:          MAX ITERATIONS : 100
Info: RIGID WATER USING SETTLE ALGORITHM
Info: RANDOM NUMBER SEED     1743682431
Info: USE HYDROGEN BONDS?    NO
Info: Using AMBER format force field!
Info: AMBER PARM FILE        mobley_6929123.prmtop
Info: COORDINATE PDB         mobley_6929123.pdb
Info: Exclusions will be read from PARM file!
Info: SCNB (VDW SCALING)     2
Info: USING ARITHMETIC MEAN TO COMBINE L-J SIGMA PARAMETERS
Info: BINARY COORDINATES     mobley_6929123_equil.coor
Info: SUMMARY OF PARAMETERS:
Info: 8 BONDS
Info: 9 ANGLES
Info:   9 HARMONIC
Info:   0 COSINE-BASED
Info: 10 DIHEDRAL
Info: 0 IMPROPER
Info: 0 CROSSTERM
Info: 0 VDW
Info: 36 VDW_PAIRS
Info: 0 NBTHOLE_PAIRS
Info: To read alchdata from file: mobley_6929123.pdb
Info: To read alchflag data from column: 5
Info: STRUCTURE SUMMARY:
Info: 2915 ATOMS
Info: 2914 BONDS
Info: 16 ANGLES
Info: 19 DIHEDRALS
Info: 0 IMPROPERS
Info: 0 CROSSTERMS
Info: 2941 EXCLUSIONS
Info: 2909 RIGID BONDS
Info: ALCH: 0 ATOMS TO DISAPPEAR IN FINAL STATE
Info: ALCH: 11 ATOMS TO APPEAR IN FINAL STATE
Info: 5836 DEGREES OF FREEDOM
Info: 974 HYDROGEN GROUPS
Info: 4 ATOMS IN LARGEST HYDROGEN GROUP
Info: 974 MIGRATION GROUPS
Info: 4 ATOMS IN LARGEST MIGRATION GROUP
Info: TOTAL MASS = 17548 amu
Info: TOTAL CHARGE = -0.000200043 e
Info: MASS DENSITY = 0.955858 g/cm^3
Info: ATOM DENSITY = 0.0956192 atoms/A^3
Info: ADDED 0 IMPLICIT EXCLUSIONS
Info: NONBONDED TABLE R-SQUARED SPACING: 0.0625
Info: NONBONDED TABLE SIZE: 705 POINTS
Info: REDUCING NUMBER OF PATCHES TO IMPROVE LOAD BALANCE
Info: REMOVING COM VELOCITY -0.205341 0.0821958 -0.118186
Info: Use 3D box decompostion in PME FFT.
Info: Updated CUDA force table with 4096 elements.
Info: Updated CUDA LJ table with 8 x 8 elements.
Info: Found 14 unique exclusion lists needing 24 bytes
TCL: Running for 1500000 steps
ETITLE: TS BOND ANGLE DIHED IMPRP ELECT VDW BOUNDARY MISC KINETIC TOTAL TEMP POTENTIAL TOTALAVG TEMPAVG PRESSURE GPRESSURE VOLUME PRESSAVG GPRESSAVG
ENERGY: 0 2.4589 5.8760 1.2837 0.0000 -10548.7733 1361.8696 0.0000 0.0000 1783.7126 -7393.5727 307.6097 -9177.2852 -7393.5727 307.6097 -1053.6799 -975.2596 30485.5144 -1053.6799 -975.2596
ENERGY: 300000 0.9238 4.5026 2.6795 0.0000 -10518.6400 1394.1591 0.0000 0.0000 1732.1593 -7384.2157 298.7191 -9116.3750 -7381.7688 305.1113 46.6590 60.7408 29640.4378 -25.8632 -11.8022
ENERGY: 600000 3.1040 4.6673 5.0121 0.0000 -10613.2363 1419.7079 0.0000 0.0000 1759.2192 -7421.5258 303.3857 -9180.7450 -7394.8200 303.6751 -177.0011 -118.5701 30022.4266 130.4700 159.7727
ENERGY: 900000 0.1908 6.7460 3.8684 0.0000 -10612.8769 1418.8246 0.0000 0.0000 1736.1813 -7447.0657 299.4127 -9183.2470 -7399.1300 302.9963 46.2509 125.3942 29624.7801 73.6047 112.2976
ENERGY: 1200000 2.7967 2.4891 2.6007 0.0000 -10649.3347 1519.7678 0.0000 0.0000 1752.2478 -7369.4325 302.1834 -9121.6803 -7389.0075 304.2578 486.0217 606.2186 30212.1281 92.4366 135.3270
ENERGY: 1500000 0.7064 10.0000 0.9722 0.0000 -10527.5121 1400.5630 0.0000 0.0000 1707.8057 -7407.4647 294.5192 -9115.2704 -7396.7666 303.0941 -162.3253 -91.0085 29814.2410 82.2219 125.8609
TCL: Running FEP window   2: Lambda1 0.05   Lambda2 0.1    [dLambda 0.05  ]
TCL: Setting parameter firsttimestep to 0
TCL: Setting parameter alchLambda to 0.05
Info: NONBONDED TABLE R-SQUARED SPACING: 0.0625
Info: NONBONDED TABLE SIZE: 705 POINTS
TCL: Setting parameter alchLambda2 to 0.1
Info: NONBONDED TABLE R-SQUARED SPACING: 0.0625
Info: NONBONDED TABLE SIZE: 705 POINTS
TCL: Running for 1500000 steps
ETITLE: TS BOND ANGLE DIHED IMPRP ELECT VDW BOUNDARY MISC KINETIC TOTAL TEMP POTENTIAL TOTALAVG TEMPAVG PRESSURE GPRESSURE VOLUME PRESSAVG GPRESSAVG
ENERGY: 0 0.7064 10.0000 0.9722 0.0000 -10527.5139 1401.4962 0.0000 0.0000 1706.9852 -7407.3539 294.3777 -9114.3391 -7407.3539 294.3777 -171.3602 -86.0329 29814.2410 -171.3602 -86.0329
ENERGY: 300000 0.5324 7.6705 1.7108 0.0000 -10708.0861 1451.8815 0.0000 0.0000 1775.3358 -7470.9551 306.1650 -9246.2909 -7408.9865 302.5042 -381.3567 -278.0381 30333.5513 -63.4568 1.3132
ENERGY: 600000 0.6965 3.9781 3.4674 0.0000 -10616.3337 1510.5501 0.0000 0.0000 1796.8422 -7300.7994 309.8739 -9097.6416 -7394.5696 301.7465 898.6367 981.0073 29815.3954 -9.3547 60.7874
ENERGY: 900000 1.7801 4.0148 1.9591 0.0000 -10563.2944 1454.7245 0.0000 0.0000 1757.2235 -7343.5923 303.0415 -9100.8158 -7378.6909 301.0540 657.9417 747.4493 29436.6453 -12.8852 58.7544
ENERGY: 1200000 1.1879 3.6665 2.5149 0.0000 -10548.9512 1408.7213 0.0000 0.0000 1757.4405 -7375.4201 303.0789 -9132.8606 -7386.5871 300.8187 28.9735 50.3908 29886.8552 26.9075 95.3838
ENERGY: 1500000 1.4734 3.4275 2.4502 0.0000 -10600.7568 1385.0330 0.0000 0.0000 1708.7264 -7499.6463 294.6779 -9208.3727 -7402.4371 300.2626 -554.8599 -449.9067 30169.0453 -3.0783 63.7184
TCL: Running FEP window   3: Lambda1 0.1    Lambda2 0.15000000000000002 [dLambda 0.05000000000000002]
TCL: Setting parameter firsttimestep to 0
TCL: Setting parameter alchLambda to 0.1
Info: NONBONDED TABLE R-SQUARED SPACING: 0.0625
Info: NONBONDED TABLE SIZE: 705 POINTS
TCL: Setting parameter alchLambda2 to 0.15000000000000002
Info: NONBONDED TABLE R-SQUARED SPACING: 0.0625
Info: NONBONDED TABLE SIZE: 705 POINTS
TCL: Running for 1500000 steps
ETITLE: TS BOND ANGLE DIHED IMPRP ELECT VDW BOUNDARY MISC KINETIC TOTAL TEMP POTENTIAL TOTALAVG TEMPAVG PRESSURE GPRESSURE VOLUME PRESSAVG GPRESSAVG
ENERGY: 0 1.4734 3.4275 2.4502 0.0000 -10600.7587 1385.5826 0.0000 0.0000 1707.8416 -7499.9834 294.5254 -9207.8250 -7499.9834 294.5254 -529.3507 -445.8449 30169.0453 -529.3507 -445.8449
ENERGY: 300000 0.4181 4.8071 2.2608 0.0000 -10521.0945 1395.9497 0.0000 0.0000 1743.1823 -7374.4765 300.6200 -9117.6587 -7391.8101 297.8518 -110.4802 -68.3736 30108.8701 -223.2228 -160.0485
ENERGY: 600000 3.2848 6.5334 2.4643 0.0000 -10531.5563 1394.1282 0.0000 0.0000 1761.5498 -7363.5958 303.7876 -9125.1456 -7394.5050 298.3571 -152.7108 -85.2602 30021.7621 -191.4527 -122.7190
ENERGY: 900000 2.1827 1.7164 2.0160 0.0000 -10611.5038 1427.2926 0.0000 0.0000 1728.4134 -7449.8827 298.0731 -9178.2961 -7393.4711 299.1849 -63.2874 -43.7013 29743.0923 -105.0435 -46.4969
ENERGY: 1200000 0.5257 5.7369 1.5822 0.0000 -10665.7512 1479.0465 0.0000 0.0000 1765.5710 -7413.2889 304.4811 -9178.8599 -7398.9040 300.1732 616.8980 608.1563 29642.3169 -56.8253 -8.0659
ENERGY: 1500000 0.1808 2.3753 1.3668 0.0000 -10371.0568 1264.1621 0.0000 0.0000 1749.2853 -7353.6865 301.6725 -9102.9718 -7396.5175 300.6997 -1096.5494 -1010.4369 29892.7865 -58.5125 -11.1982
TCL: Running FEP window   4: Lambda1 0.15000000000000002 Lambda2 0.2    [dLambda 0.04999999999999999]
TCL: Setting parameter firsttimestep to 0
TCL: Setting parameter alchLambda to 0.15000000000000002
Info: NONBONDED TABLE R-SQUARED SPACING: 0.0625
Info: NONBONDED TABLE SIZE: 705 POINTS
TCL: Setting parameter alchLambda2 to 0.2
Info: NONBONDED TABLE R-SQUARED SPACING: 0.0625
Info: NONBONDED TABLE SIZE: 705 POINTS
TCL: Running for 1500000 steps
ETITLE: TS BOND ANGLE DIHED IMPRP ELECT VDW BOUNDARY MISC KINETIC TOTAL TEMP POTENTIAL TOTALAVG TEMPAVG PRESSURE GPRESSURE VOLUME PRESSAVG GPRESSAVG
ENERGY: 0 0.1808 2.3753 1.3668 0.0000 -10371.0571 1266.4442 0.0000 0.0000 1748.4074 -7352.2827 301.5211 -9100.6901 -7352.2827 301.5211 -1102.9320 -1003.2064 29892.7865 -1102.9320 -1003.2064
ENERGY: 300000 1.7021 4.8933 2.5166 0.0000 -10623.7765 1468.9043 0.0000 0.0000 1766.8900 -7378.8703 304.7085 -9145.7603 -7422.5438 299.5381 280.4438 376.4625 29964.3246 -542.2427 -482.4267
ENERGY: 600000 0.6687 2.3317 2.2511 0.0000 -10628.7654 1425.4716 0.0000 0.0000 1718.0603 -7479.9820 296.2876 -9198.0423 -7424.7768 298.7322 -117.9422 -79.4920 30026.0468 -489.9238 -437.4745
ENERGY: 900000 2.0564 3.6318 2.1793 0.0000 -10689.8349 1476.6758 0.0000 0.0000 1717.2633 -7488.0282 296.1502 -9205.2916 -7433.6494 297.4926 442.0418 479.7131 29610.1732 -326.8749 -273.7932
ENERGY: 1200000 3.4102 5.5454 1.7775 0.0000 -10545.8009 1361.4505 0.0000 0.0000 1756.9596 -7416.6576 302.9960 -9173.6172 -7417.5472 298.9841 -697.6231 -620.3194 29909.2352 -283.3211 -230.0777
ENERGY: 1500000 0.5228 1.8303 1.9111 0.0000 -10678.2295 1472.7113 0.0000 0.0000 1733.5303 -7467.7238 298.9555 -9201.2541 -7419.9996 298.6508 169.4372 254.6963 29850.5753 -236.4401 -185.7106
TCL: Running FEP window   5: Lambda1 0.2    Lambda2 0.25   [dLambda 0.04999999999999999]
TCL: Setting parameter firsttimestep to 0
TCL: Setting parameter alchLambda to 0.2
Info: NONBONDED TABLE R-SQUARED SPACING: 0.0625
Info: NONBONDED TABLE SIZE: 705 POINTS
TCL: Setting parameter alchLambda2 to 0.25
Info: NONBONDED TABLE R-SQUARED SPACING: 0.0625
Info: NONBONDED TABLE SIZE: 705 POINTS
TCL: Running for 1500000 steps
ETITLE: TS BOND ANGLE DIHED IMPRP ELECT VDW BOUNDARY MISC KINETIC TOTAL TEMP POTENTIAL TOTALAVG TEMPAVG PRESSURE GPRESSURE VOLUME PRESSAVG GPRESSAVG
ENERGY: 0 0.5228 1.8303 1.9111 0.0000 -10678.2278 1473.5870 0.0000 0.0000 1732.6456 -7467.7311 298.8029 -9200.3767 -7467.7311 298.8029 164.6416 260.2778 29850.5753 164.6416 260.2778
ENERGY: 300000 0.9880 5.5651 1.9711 0.0000 -10689.4907 1502.8491 0.0000 0.0000 1735.0251 -7443.0923 299.2133 -9178.1174 -7423.9057 299.6821 445.8007 545.4010 29919.7819 380.1299 461.1540
ENERGY: 600000 0.7871 1.8473 1.4682 0.0000 -10441.4132 1350.1400 0.0000 0.0000 1757.3708 -7329.7997 303.0669 -9087.1705 -7412.2056 298.9897 -723.9472 -640.6019 30420.2671 99.1783 176.1886
ENERGY: 900000 0.3448 4.7194 2.2558 0.0000 -10557.3494 1372.6432 0.0000 0.0000 1730.1995 -7447.1868 298.3811 -9177.3862 -7423.5272 298.0978 -670.6378 -511.9977 29953.7885 -40.0034 48.2884
ENERGY: 1200000 0.4338 3.6116 1.0582 0.0000 -10596.3099 1425.1679 0.0000 0.0000 1739.0881 -7426.9502 299.9140 -9166.0383 -7412.2573 299.1621 146.4261 186.1046 29675.1612 -73.8483 9.0824
ENERGY: 1500000 0.9505 5.5133 2.1672 0.0000 -10589.1161 1422.9648 0.0000 0.0000 1725.1749 -7432.3454 297.5146 -9157.5203 -7413.7660 299.9688 -215.2844 -136.3136 30200.3545 -62.0734 20.9969
TCL: Running FEP window   6: Lambda1 0.25   Lambda2 0.3    [dLambda 0.04999999999999999]
TCL: Setting parameter firsttimestep to 0
TCL: Setting parameter alchLambda to 0.25
Info: NONBONDED TABLE R-SQUARED SPACING: 0.0625
Info: NONBONDED TABLE SIZE: 705 POINTS
TCL: Setting parameter alchLambda2 to 0.3
Info: NONBONDED TABLE R-SQUARED SPACING: 0.0625
Info: NONBONDED TABLE SIZE: 705 POINTS
TCL: Running for 1500000 steps
ETITLE: TS BOND ANGLE DIHED IMPRP ELECT VDW BOUNDARY MISC KINETIC TOTAL TEMP POTENTIAL TOTALAVG TEMPAVG PRESSURE GPRESSURE VOLUME PRESSAVG GPRESSAVG
ENERGY: 0 0.9505 5.5133 2.1672 0.0000 -10589.1143 1423.7271 0.0000 0.0000 1724.3165 -7432.4396 297.3665 -9156.7562 -7432.4396 297.3665 -198.6231 -129.3890 30200.3545 -198.6231 -129.3890
ENERGY: 300000 2.3716 1.9237 1.2532 0.0000 -10348.9794 1272.5691 0.0000 0.0000 1709.9039 -7360.9578 294.8810 -9070.8618 -7393.9750 299.1779 -1241.7669 -1209.7660 30551.3169 -266.4732 -223.1896
ENERGY: 600000 5.8450 7.3902 1.5750 0.0000 -10678.2672 1461.3014 0.0000 0.0000 1723.1944 -7478.9613 297.1730 -9202.1556 -7410.3707 300.0944 167.7446 308.9266 29541.0007 -210.0879 -146.2073
ENERGY: 900000 0.4154 4.6605 3.0561 0.0000 -10549.5374 1420.5644 0.0000 0.0000 1781.2547 -7339.5863 307.1858 -9120.8409 -7408.8495 300.8532 262.1550 313.8745 29628.2558 -163.2442 -96.9056
ENERGY: 1200000 1.2085 8.4772 4.0506 0.0000 -10561.5044 1434.8433 0.0000 0.0000 1786.7878 -7326.1370 308.1400 -9112.9248 -7400.4002 301.9462 268.5919 338.5827 30065.1549 -32.4003 37.0187
ENERGY: 1500000 1.7112 1.3515 2.4232 0.0000 -10933.0662 1590.5663 0.0000 0.0000 1730.9774 -7606.0366 298.5152 -9337.0140 -7408.5567 301.7451 769.7341 769.3275 29898.2514 56.6192 117.4552
TCL: Running FEP window   7: Lambda1 0.3    Lambda2 0.35   [dLambda 0.04999999999999999]
TCL: Setting parameter firsttimestep to 0
TCL: Setting parameter alchLambda to 0.3
Info: NONBONDED TABLE R-SQUARED SPACING: 0.0625
Info: NONBONDED TABLE SIZE: 705 POINTS
TCL: Setting parameter alchLambda2 to 0.35
Info: NONBONDED TABLE R-SQUARED SPACING: 0.0625
Info: NONBONDED TABLE SIZE: 705 POINTS
TCL: Running for 1500000 steps
ETITLE: TS BOND ANGLE DIHED IMPRP ELECT VDW BOUNDARY MISC KINETIC TOTAL TEMP POTENTIAL TOTALAVG TEMPAVG PRESSURE GPRESSURE VOLUME PRESSAVG GPRESSAVG
ENERGY: 0 1.7112 1.3515 2.4232 0.0000 -10933.0659 1591.0833 0.0000 0.0000 1730.0959 -7606.4008 298.3632 -9336.4967 -7606.4008 298.3632 697.0848 776.0802 29898.2514 697.0848 776.0802
ENERGY: 300000 0.8848 5.6174 3.9057 0.0000 -10543.5143 1391.1561 0.0000 0.0000 1687.9167 -7454.0336 291.0892 -9141.9504 -7452.8008 299.0302 -376.2483 -273.7359 30176.4727 210.9515 296.6825
ENERGY: 600000 0.8743 2.7289 2.7611 0.0000 -10532.0782 1457.3368 0.0000 0.0000 1687.4032 -7380.9739 291.0007 -9068.3771 -7444.4700 297.7938 588.7698 636.5550 29764.4485 209.8117 294.9135
ENERGY: 900000 2.0035 3.0488 1.1409 0.0000 -10573.4830 1390.0095 0.0000 0.0000 1692.6541 -7484.6262 291.9062 -9177.2803 -7436.6195 298.7305 -458.9097 -388.8037 29877.2521 80.9088 163.6611
ENERGY: 1200000 0.5195 3.8250 3.6177 0.0000 -10625.2268 1416.6328 0.0000 0.0000 1724.5760 -7476.0558 297.4113 -9200.6318 -7428.4847 299.1008 -325.1514 -287.3321 30228.6836 103.3520 177.8211
ENERGY: 1500000 2.3871 2.6392 2.1204 0.0000 -10559.3824 1417.6617 0.0000 0.0000 1756.0555 -7378.5184 302.8401 -9134.5739 -7428.2984 299.0245 10.2485 60.6898 29704.1676 59.6736 132.4570
TCL: Running FEP window   8: Lambda1 0.35   Lambda2 0.39999999999999997 [dLambda 0.04999999999999999]
TCL: Setting parameter firsttimestep to 0
TCL: Setting parameter alchLambda to 0.35
Info: NONBONDED TABLE R-SQUARED SPACING: 0.0625
Info: NONBONDED TABLE SIZE: 705 POINTS
TCL: Setting parameter alchLambda2 to 0.39999999999999997
Info: NONBONDED TABLE R-SQUARED SPACING: 0.0625
Info: NONBONDED TABLE SIZE: 705 POINTS
TCL: Running for 1500000 steps
ETITLE: TS BOND ANGLE DIHED IMPRP ELECT VDW BOUNDARY MISC KINETIC TOTAL TEMP POTENTIAL TOTALAVG TEMPAVG PRESSURE GPRESSURE VOLUME PRESSAVG GPRESSAVG
ENERGY: 0 2.3871 2.6392 2.1204 0.0000 -10559.3818 1418.0817 0.0000 0.0000 1755.2059 -7378.9474 302.6936 -9134.1533 -7378.9474 302.6936 -16.8659 68.3419 29704.1676 -16.8659 68.3419
ENERGY: 300000 0.6817 3.6812 2.5261 0.0000 -10564.3366 1408.4652 0.0000 0.0000 1745.2097 -7403.7727 300.9697 -9148.9824 -7394.0478 300.0314 -309.3759 -212.5441 30379.9548 -16.0170 66.3049
ENERGY: 600000 1.2487 4.0667 2.8978 0.0000 -10746.4508 1452.3522 0.0000 0.0000 1724.4713 -7561.4141 297.3932 -9285.8854 -7418.2322 301.2027 14.3178 162.5061 29682.0013 109.9685 189.4770
ENERGY: 900000 1.5964 4.8855 1.9122 0.0000 -10644.5958 1444.3740 0.0000 0.0000 1738.7777 -7453.0501 299.8604 -9191.8277 -7418.9911 301.0039 -7.7444 24.3334 29979.1362 -11.0219 60.7943
ENERGY: 1200000 5.0059 2.0718 2.6701 0.0000 -10438.6776 1297.4240 0.0000 0.0000 1755.1029 -7376.4029 302.6758 -9131.5058 -7421.0816 300.3289 -1133.4992 -1071.3322 30447.7419 -76.4100 -12.0898
ENERGY: 1500000 1.5635 3.1153 3.6325 0.0000 -10541.5717 1396.4598 0.0000 0.0000 1743.0229 -7393.7776 300.5925 -9136.8005 -7418.5716 300.1276 0.5700 70.4156 29835.6248 -54.8800 12.2119
TCL: Running FEP window   9: Lambda1 0.39999999999999997 Lambda2 0.44999999999999996 [dLambda 0.04999999999999999]
TCL: Setting parameter firsttimestep to 0
TCL: Setting parameter alchLambda to 0.39999999999999997
Info: NONBONDED TABLE R-SQUARED SPACING: 0.0625
Info: NONBONDED TABLE SIZE: 705 POINTS
TCL: Setting parameter alchLambda2 to 0.44999999999999996
Info: NONBONDED TABLE R-SQUARED SPACING: 0.0625
Info: NONBONDED TABLE SIZE: 705 POINTS
TCL: Running for 1500000 steps
ETITLE: TS BOND ANGLE DIHED IMPRP ELECT VDW BOUNDARY MISC KINETIC TOTAL TEMP POTENTIAL TOTALAVG TEMPAVG PRESSURE GPRESSURE VOLUME PRESSAVG GPRESSAVG
ENERGY: 0 1.5635 3.1153 3.6325 0.0000 -10541.5709 1397.3165 0.0000 0.0000 1742.1214 -7393.8216 300.4371 -9135.9430 -7393.8216 300.4371 5.5362 84.0272 29835.6248 5.5362 84.0272
ENERGY: 300000 1.3159 3.2408 2.7585 0.0000 -10730.8080 1561.1235 0.0000 0.0000 1746.0216 -7416.3478 301.1097 -9162.3694 -7365.8179 303.0795 958.4211 1018.1854 30050.2772 355.7708 404.3231
ENERGY: 600000 0.6414 3.9215 2.6802 0.0000 -10528.1055 1397.8315 0.0000 0.0000 1708.8132 -7414.2176 294.6929 -9123.0309 -7401.6767 300.0757 -286.9968 -190.9441 30065.9179 201.1189 247.1529
ENERGY: 900000 3.2375 3.7610 2.2501 0.0000 -10580.0146 1469.2359 0.0000 0.0000 1760.9495 -7340.5806 303.6841 -9101.5301 -7402.6012 300.1759 377.5061 393.2794 30131.6635 140.9405 183.7205
ENERGY: 1200000 1.3727 5.1479 3.4264 0.0000 -10681.1706 1535.2324 0.0000 0.0000 1717.8874 -7418.1038 296.2578 -9135.9912 -7405.5218 299.7069 821.5028 814.0769 30238.4076 230.3513 272.3382
ENERGY: 1500000 2.1655 6.2088 2.2477 0.0000 -10545.2998 1323.0791 0.0000 0.0000 1705.0298 -7506.5690 294.0404 -9211.5988 -7404.5105 300.1361 -761.4197 -675.6475 29383.5343 80.4578 127.7979
TCL: Running FEP window  10: Lambda1 0.44999999999999996 Lambda2 0.49999999999999994 [dLambda 0.04999999999999999]
TCL: Setting parameter firsttimestep to 0
TCL: Setting parameter alchLambda to 0.44999999999999996
Info: NONBONDED TABLE R-SQUARED SPACING: 0.0625
Info: NONBONDED TABLE SIZE: 705 POINTS
TCL: Setting parameter alchLambda2 to 0.49999999999999994
Info: NONBONDED TABLE R-SQUARED SPACING: 0.0625
Info: NONBONDED TABLE SIZE: 705 POINTS
TCL: Running for 1500000 steps
ETITLE: TS BOND ANGLE DIHED IMPRP ELECT VDW BOUNDARY MISC KINETIC TOTAL TEMP POTENTIAL TOTALAVG TEMPAVG PRESSURE GPRESSURE VOLUME PRESSAVG GPRESSAVG
ENERGY: 0 2.1655 6.2088 2.2477 0.0000 -10545.3002 1322.7710 0.0000 0.0000 1704.1981 -7507.7092 293.8970 -9211.9073 -7507.7092 293.8970 -758.0876 -676.5388 29383.5343 -758.0876 -676.5388
ENERGY: 300000 1.6156 5.1865 1.9305 0.0000 -10480.1448 1360.0096 0.0000 0.0000 1699.5865 -7411.8162 293.1017 -9111.4027 -7442.7867 294.3377 -766.0439 -699.7782 30455.6898 -217.9808 -168.6600
ENERGY: 600000 1.4957 3.4767 1.9535 0.0000 -10665.4914 1445.9832 0.0000 0.0000 1685.2831 -7527.2993 290.6350 -9212.5823 -7434.5675 297.5768 251.4707 248.7277 29484.3977 -118.8422 -73.4009
ENERGY: 900000 0.1709 3.7854 1.9282 0.0000 -10648.2408 1455.3174 0.0000 0.0000 1694.0537 -7492.9851 292.1476 -9187.0389 -7446.0236 295.8116 304.5196 356.8707 29887.0377 49.9521 103.6460
ENERGY: 1200000 0.2812 3.2336 1.7432 0.0000 -10674.3728 1490.7638 0.0000 0.0000 1746.9620 -7431.3889 301.2719 -9178.3510 -7437.0906 297.8941 553.7364 625.0847 29865.6997 14.5508 66.7974
ENERGY: 1500000 0.4669 3.8828 1.9320 0.0000 -10423.4267 1336.2626 0.0000 0.0000 1713.7983 -7367.0839 295.5526 -9080.8823 -7425.5305 298.0815 -838.5677 -735.7160 30615.1621 -114.7378 -54.9887
TCL: Running FEP window  11: Lambda1 0.49999999999999994 Lambda2 0.5499999999999999 [dLambda 0.04999999999999999]
TCL: Setting parameter firsttimestep to 0
TCL: Setting parameter alchLambda to 0.49999999999999994
Info: NONBONDED TABLE R-SQUARED SPACING: 0.0625
Info: NONBONDED TABLE SIZE: 705 POINTS
TCL: Setting parameter alchLambda2 to 0.5499999999999999
Info: NONBONDED TABLE R-SQUARED SPACING: 0.0625
Info: NONBONDED TABLE SIZE: 705 POINTS
TCL: Running for 1500000 steps
ETITLE: TS BOND ANGLE DIHED IMPRP ELECT VDW BOUNDARY MISC KINETIC TOTAL TEMP POTENTIAL TOTALAVG TEMPAVG PRESSURE GPRESSURE VOLUME PRESSAVG GPRESSAVG
ENERGY: 0 0.4669 3.8828 1.9320 0.0000 -10423.4266 1336.7872 0.0000 0.0000 1712.9049 -7367.4527 295.3985 -9080.3576 -7367.4527 295.3985 -807.1419 -723.2198 30615.1621 -807.1419 -723.2198
ENERGY: 300000 3.3294 1.3886 2.9023 0.0000 -10661.8473 1494.9550 0.0000 0.0000 1721.2651 -7438.0069 296.8403 -9159.2720 -7389.3222 298.7929 404.2245 505.8493 29820.8166 -106.7715 -20.2962
ENERGY: 600000 2.8511 4.1661 2.5245 0.0000 -10579.7523 1375.4128 0.0000 0.0000 1772.9997 -7421.7982 305.7622 -9194.7979 -7404.4329 299.1736 -521.8716 -404.2743 29874.1265 -278.9174 -188.0898
ENERGY: 900000 1.7840 7.0965 1.3925 0.0000 -10713.6631 1473.4500 0.0000 0.0000 1778.4834 -7451.4567 306.7079 -9229.9401 -7406.3865 300.8001 457.7813 525.6621 29541.3507 -224.2394 -147.9025
ENERGY: 1200000 2.1467 2.6892 1.1663 0.0000 -10523.7688 1415.3070 0.0000 0.0000 1735.4619 -7366.9978 299.2886 -9102.4597 -7404.0921 300.2635 -100.0341 60.2936 30085.2225 -259.2129 -176.3429
ENERGY: 1500000 2.3759 5.9965 2.6556 0.0000 -10461.8650 1351.2135 0.0000 0.0000 1755.7498 -7343.8737 302.7873 -9099.6235 -7405.4229 300.2582 -515.3476 -440.8502 30261.3671 -232.2375 -153.2162
TCL: Running FEP window  12: Lambda1 0.5499999999999999 Lambda2 0.6    [dLambda 0.050000000000000044]
TCL: Setting parameter firsttimestep to 0
TCL: Setting parameter alchLambda to 0.5499999999999999
Info: NONBONDED TABLE R-SQUARED SPACING: 0.0625
Info: NONBONDED TABLE SIZE: 705 POINTS
TCL: Setting parameter alchLambda2 to 0.6
Info: NONBONDED TABLE R-SQUARED SPACING: 0.0625
Info: NONBONDED TABLE SIZE: 705 POINTS
TCL: Running for 1500000 steps
ETITLE: TS BOND ANGLE DIHED IMPRP ELECT VDW BOUNDARY MISC KINETIC TOTAL TEMP POTENTIAL TOTALAVG TEMPAVG PRESSURE GPRESSURE VOLUME PRESSAVG GPRESSAVG
ENERGY: 0 2.3759 5.9965 2.6556 0.0000 -10462.1820 1351.3803 0.0000 0.0000 1754.8638 -7344.9099 302.6345 -9099.7737 -7344.9099 302.6345 -522.7341 -435.4686 30261.3671 -522.7341 -435.4686
ENERGY: 300000 5.4976 4.3705 2.8080 0.0000 -10538.9627 1396.6071 0.0000 0.0000 1758.2745 -7371.4049 303.2228 -9129.6795 -7377.7437 300.5167 116.0796 92.2292 30015.2027 -171.9934 -107.2416
ENERGY: 600000 1.4132 1.8532 2.4052 0.0000 -10607.8338 1406.7420 0.0000 0.0000 1733.7986 -7461.6217 299.0018 -9195.4202 -7382.7336 302.0650 -234.9509 -183.1605 30188.8301 -0.8506 64.4885
ENERGY: 900000 3.1179 4.7437 2.7486 0.0000 -10655.4012 1451.8144 0.0000 0.0000 1763.5184 -7429.4582 304.1271 -9192.9766 -7376.9045 301.9923 -43.4280 33.7519 30109.5956 -7.7735 59.5572
ENERGY: 1200000 1.2962 3.2034 1.5213 0.0000 -10620.9000 1419.7862 0.0000 0.0000 1725.5144 -7469.5786 297.5731 -9195.0929 -7392.7556 301.2696 -378.0137 -358.9147 30475.1696 -74.1994 -8.9343
ENERGY: 1500000 2.6155 3.2323 3.4258 0.0000 -10660.8828 1437.4754 0.0000 0.0000 1727.5375 -7486.5963 297.9220 -9214.1338 -7401.9182 301.0104 -136.3045 -7.6198 30192.9018 -108.7374 -43.8045
TCL: Running FEP window  13: Lambda1 0.6    Lambda2 0.65   [dLambda 0.050000000000000044]
TCL: Setting parameter firsttimestep to 0
TCL: Setting parameter alchLambda to 0.6
Info: NONBONDED TABLE R-SQUARED SPACING: 0.0625
Info: NONBONDED TABLE SIZE: 705 POINTS
TCL: Setting parameter alchLambda2 to 0.65
Info: NONBONDED TABLE R-SQUARED SPACING: 0.0625
Info: NONBONDED TABLE SIZE: 705 POINTS
TCL: Running for 1500000 steps
ETITLE: TS BOND ANGLE DIHED IMPRP ELECT VDW BOUNDARY MISC KINETIC TOTAL TEMP POTENTIAL TOTALAVG TEMPAVG PRESSURE GPRESSURE VOLUME PRESSAVG GPRESSAVG
ENERGY: 0 2.6155 3.2323 3.4258 0.0000 -10661.0140 1437.1266 0.0000 0.0000 1726.6619 -7487.9521 297.7710 -9214.6139 -7487.9521 297.7710 -89.2714 -5.4301 30192.9018 -89.2714 -5.4301
ENERGY: 300000 2.2911 4.5687 1.9359 0.0000 -10467.1678 1435.7091 0.0000 0.0000 1768.0631 -7254.5999 304.9108 -9022.6630 -7382.2251 300.6069 213.3938 327.8474 30188.9408 -118.2135 -32.8992
ENERGY: 600000 1.2656 3.8267 2.9976 0.0000 -10538.1687 1432.4475 0.0000 0.0000 1799.1051 -7298.5262 310.2642 -9097.6312 -7393.0785 300.2609 551.2691 606.5140 29543.0661 -54.4051 25.9247
ENERGY: 900000 3.2862 2.7402 2.0244 0.0000 -10642.9214 1471.0566 0.0000 0.0000 1705.6557 -7458.1583 294.1484 -9163.8140 -7392.0104 300.2272 154.3604 253.1441 30090.3783 -158.0673 -74.9338
ENERGY: 1200000 1.0268 4.1506 2.7823 0.0000 -10625.4352 1455.9439 0.0000 0.0000 1763.6480 -7397.8834 304.1494 -9161.5315 -7387.9343 300.4323 322.4147 435.5666 29929.0562 -125.8207 -44.7100
ENERGY: 1500000 0.9889 4.6408 2.9502 0.0000 -10699.2210 1492.3495 0.0000 0.0000 1757.9716 -7440.3199 303.1705 -9198.2915 -7390.3191 300.3633 489.2098 560.9965 29797.4315 -83.7300 -6.9015
TCL: Running FEP window  14: Lambda1 0.65   Lambda2 0.7000000000000001 [dLambda 0.050000000000000044]
TCL: Setting parameter firsttimestep to 0
TCL: Setting parameter alchLambda to 0.65
Info: NONBONDED TABLE R-SQUARED SPACING: 0.0625
Info: NONBONDED TABLE SIZE: 705 POINTS
TCL: Setting parameter alchLambda2 to 0.7000000000000001
Info: NONBONDED TABLE R-SQUARED SPACING: 0.0625
Info: NONBONDED TABLE SIZE: 705 POINTS
TCL: Running for 1500000 steps
ETITLE: TS BOND ANGLE DIHED IMPRP ELECT VDW BOUNDARY MISC KINETIC TOTAL TEMP POTENTIAL TOTALAVG TEMPAVG PRESSURE GPRESSURE VOLUME PRESSAVG GPRESSAVG
ENERGY: 0 0.9889 4.6408 2.9502 0.0000 -10700.0006 1491.9513 0.0000 0.0000 1757.1550 -7442.3143 303.0297 -9199.4693 -7442.3143 303.0297 485.3754 560.8112 29797.4315 485.3754 560.8112
ENERGY: 300000 0.7120 6.3334 3.4038 0.0000 -10683.2023 1445.0908 0.0000 0.0000 1714.4150 -7513.2473 295.6590 -9227.6623 -7425.1321 297.6131 61.4684 117.0584 29781.7235 -155.5840 -108.3177
ENERGY: 600000 0.8014 5.2646 1.6989 0.0000 -10510.3153 1448.6402 0.0000 0.0000 1699.2574 -7354.6528 293.0450 -9053.9102 -7417.2519 296.3940 52.5053 171.7468 30643.0676 -157.1241 -99.5647
ENERGY: 900000 0.3342 2.8280 1.7484 0.0000 -10462.6480 1373.7009 0.0000 0.0000 1703.0431 -7380.9934 293.6978 -9084.0365 -7412.5516 297.0179 -361.6704 -299.9128 30606.0435 -143.1056 -73.9536
ENERGY: 1200000 1.6875 7.9483 2.3748 0.0000 -10584.7542 1361.8908 0.0000 0.0000 1794.0493 -7416.8035 309.3923 -9210.8528 -7420.9298 297.4453 -711.1195 -615.9062 30021.4426 -134.5450 -56.0265
ENERGY: 1500000 1.0968 8.6311 2.4662 0.0000 -10516.4543 1394.2076 0.0000 0.0000 1749.5658 -7360.4869 301.7209 -9110.0527 -7416.2124 298.6556 -124.3715 -52.8862 30075.9719 -136.3814 -55.6977
TCL: Running FEP window  15: Lambda1 0.7000000000000001 Lambda2 0.7500000000000001 [dLambda 0.050000000000000044]
TCL: Setting parameter firsttimestep to 0
TCL: Setting parameter alchLambda to 0.7000000000000001
Info: NONBONDED TABLE R-SQUARED SPACING: 0.0625
Info: NONBONDED TABLE SIZE: 705 POINTS
TCL: Setting parameter alchLambda2 to 0.7500000000000001
Info: NONBONDED TABLE R-SQUARED SPACING: 0.0625
Info: NONBONDED TABLE SIZE: 705 POINTS
TCL: Running for 1500000 steps
ETITLE: TS BOND ANGLE DIHED IMPRP ELECT VDW BOUNDARY MISC KINETIC TOTAL TEMP POTENTIAL TOTALAVG TEMPAVG PRESSURE GPRESSURE VOLUME PRESSAVG GPRESSAVG
ENERGY: 0 1.0968 8.6311 2.4662 0.0000 -10517.0711 1394.0357 0.0000 0.0000 1748.6789 -7362.1625 301.5679 -9110.8414 -7362.1625 301.5679 -127.9353 -48.3526 30075.9719 -127.9353 -48.3526
ENERGY: 300000 0.8298 4.8487 2.1210 0.0000 -10506.1815 1369.2423 0.0000 0.0000 1780.5605 -7348.5792 307.0661 -9129.1397 -7363.1342 303.9184 -44.6369 -24.9032 29710.8925 -291.8382 -238.2187
ENERGY: 600000 1.8200 4.5501 4.1343 0.0000 -10775.8586 1551.1696 0.0000 0.0000 1780.8303 -7433.3543 307.1126 -9214.1846 -7377.3083 302.5215 988.9937 1094.5969 29662.3823 -67.7467 -1.3850
ENERGY: 900000 1.5777 1.8634 2.4506 0.0000 -10507.6159 1376.6772 0.0000 0.0000 1740.2178 -7384.8292 300.1088 -9125.0470 -7386.0868 303.2050 -506.7298 -431.3145 30264.3472 -93.5451 -19.6386
ENERGY: 1200000 2.6375 5.3018 1.7391 0.0000 -10565.9952 1371.0767 0.0000 0.0000 1675.0239 -7510.2162 288.8658 -9185.2402 -7396.0714 301.7144 -583.9187 -461.4991 29926.8327 -91.3059 -14.4729
ENERGY: 1500000 0.2871 3.0782 2.2764 0.0000 -10741.1870 1531.4533 0.0000 0.0000 1679.3311 -7524.7609 289.6086 -9204.0920 -7406.6759 300.3709 1017.5449 1066.6735 29434.6143 -54.1487 25.8654
TCL: Running FEP window  16: Lambda1 0.7500000000000001 Lambda2 0.8000000000000002 [dLambda 0.050000000000000044]
TCL: Setting parameter firsttimestep to 0
TCL: Setting parameter alchLambda to 0.7500000000000001
Info: NONBONDED TABLE R-SQUARED SPACING: 0.0625
Info: NONBONDED TABLE SIZE: 705 POINTS
TCL: Setting parameter alchLambda2 to 0.8000000000000002
Info: NONBONDED TABLE R-SQUARED SPACING: 0.0625
Info: NONBONDED TABLE SIZE: 705 POINTS
TCL: Running for 1500000 steps
ETITLE: TS BOND ANGLE DIHED IMPRP ELECT VDW BOUNDARY MISC KINETIC TOTAL TEMP POTENTIAL TOTALAVG TEMPAVG PRESSURE GPRESSURE VOLUME PRESSAVG GPRESSAVG
ENERGY: 0 0.2871 3.0782 2.2764 0.0000 -10741.8867 1531.5157 0.0000 0.0000 1678.5039 -7526.2254 289.4659 -9204.7293 -7526.2254 289.4659 993.6214 1075.3173 29434.6143 993.6214 1075.3173
ENERGY: 300000 0.8050 1.8634 1.8621 0.0000 -10596.8250 1393.6287 0.0000 0.0000 1765.8322 -7432.8335 304.5261 -9198.6658 -7476.3563 297.3808 -266.4844 -194.6704 29886.4235 578.0692 661.7013
ENERGY: 600000 0.5556 5.6008 2.2821 0.0000 -10661.0174 1485.5880 0.0000 0.0000 1718.9091 -7448.0818 296.4340 -9166.9909 -7460.4723 297.5766 454.1713 556.6257 30034.2371 431.9362 516.9091
ENERGY: 900000 0.1905 4.2027 1.1210 0.0000 -10737.6780 1544.4793 0.0000 0.0000 1771.7113 -7415.9732 305.5400 -9187.6845 -7450.6436 299.0931 948.8081 980.5373 30153.2142 319.6136 393.0759
ENERGY: 1200000 1.6688 6.7711 2.0033 0.0000 -10480.6496 1331.1453 0.0000 0.0000 1752.2598 -7386.8013 302.1855 -9139.0611 -7434.0241 299.1862 -904.3588 -820.8809 30332.8127 285.6961 356.2174
ENERGY: 1500000 0.9700 3.7387 2.7117 0.0000 -10558.6055 1415.4823 0.0000 0.0000 1794.3272 -7341.3756 309.4402 -9135.7028 -7417.5312 300.4626 -127.0419 -81.4896 30435.6992 209.2195 278.9837
TCL: Running FEP window  17: Lambda1 0.8000000000000002 Lambda2 0.8500000000000002 [dLambda 0.050000000000000044]
TCL: Setting parameter firsttimestep to 0
TCL: Setting parameter alchLambda to 0.8000000000000002
Info: NONBONDED TABLE R-SQUARED SPACING: 0.0625
Info: NONBONDED TABLE SIZE: 705 POINTS
TCL: Setting parameter alchLambda2 to 0.8500000000000002
Info: NONBONDED TABLE R-SQUARED SPACING: 0.0625
Info: NONBONDED TABLE SIZE: 705 POINTS
TCL: Running for 1500000 steps
ETITLE: TS BOND ANGLE DIHED IMPRP ELECT VDW BOUNDARY MISC KINETIC TOTAL TEMP POTENTIAL TOTALAVG TEMPAVG PRESSURE GPRESSURE VOLUME PRESSAVG GPRESSAVG
ENERGY: 0 0.9700 3.7387 2.7117 0.0000 -10559.4684 1415.5206 0.0000 0.0000 1793.4487 -7343.0787 309.2887 -9136.5274 -7343.0787 309.2887 -156.8657 -75.5836 30435.6992 -156.8657 -75.5836
ENERGY: 300000 0.7015 3.7153 1.5545 0.0000 -10583.2778 1424.2288 0.0000 0.0000 1695.5739 -7457.5038 292.4097 -9153.0777 -7397.6503 299.1686 37.7292 105.4320 29945.1463 34.8491 104.2657
ENERGY: 600000 0.8682 3.6137 2.3051 0.0000 -10699.7297 1450.7879 0.0000 0.0000 1774.4570 -7467.6977 306.0135 -9242.1548 -7418.6804 299.1588 260.4060 252.4050 29508.9251 57.8485 113.4449
ENERGY: 900000 0.8661 2.5899 1.5056 0.0000 -10652.1043 1507.4424 0.0000 0.0000 1807.6846 -7332.0156 311.7438 -9139.7002 -7405.2119 300.6515 657.0452 696.7613 30172.0768 20.1222 78.1001
ENERGY: 1200000 0.7319 7.4635 2.2096 0.0000 -10552.2277 1380.7696 0.0000 0.0000 1739.4524 -7421.6006 299.9768 -9161.0531 -7403.4944 300.8813 -409.2995 -321.9644 30169.0938 -87.7826 -33.8996
ENERGY: 1500000 0.5627 3.5836 2.8896 0.0000 -10654.7054 1488.3164 0.0000 0.0000 1700.9577 -7458.3953 293.3382 -9159.3531 -7404.2072 300.5104 641.4996 659.9631 29858.0857 -91.8936 -39.9558
TCL: Running FEP window  18: Lambda1 0.8500000000000002 Lambda2 0.9000000000000002 [dLambda 0.050000000000000044]
TCL: Setting parameter firsttimestep to 0
TCL: Setting parameter alchLambda to 0.8500000000000002
Info: NONBONDED TABLE R-SQUARED SPACING: 0.0625
Info: NONBONDED TABLE SIZE: 705 POINTS
TCL: Setting parameter alchLambda2 to 0.9000000000000002
Info: NONBONDED TABLE R-SQUARED SPACING: 0.0625
Info: NONBONDED TABLE SIZE: 705 POINTS
TCL: Running for 1500000 steps
ETITLE: TS BOND ANGLE DIHED IMPRP ELECT VDW BOUNDARY MISC KINETIC TOTAL TEMP POTENTIAL TOTALAVG TEMPAVG PRESSURE GPRESSURE VOLUME PRESSAVG GPRESSAVG
ENERGY: 0 0.5627 3.5836 2.8896 0.0000 -10656.5246 1488.9621 0.0000 0.0000 1700.0963 -7460.4303 293.1896 -9160.5266 -7460.4303 293.1896 593.0103 675.5924 29858.0857 593.0103 675.5924
ENERGY: 300000 1.7417 6.8600 2.7245 0.0000 -10523.8888 1374.1490 0.0000 0.0000 1717.6452 -7420.7685 296.2160 -9138.4137 -7421.1004 298.9157 -132.0633 -170.9026 29895.7444 323.0384 361.0853
ENERGY: 600000 1.6368 3.1271 1.7723 0.0000 -10598.5934 1436.9629 0.0000 0.0000 1709.5121 -7445.5822 294.8134 -9155.0943 -7415.3198 301.2479 -13.1721 93.4113 30219.1384 121.2640 175.1078
ENERGY: 900000 1.0221 3.4373 3.0078 0.0000 -10440.2723 1366.7374 0.0000 0.0000 1760.0616 -7306.0061 303.5309 -9066.0678 -7418.0327 301.0361 -117.5764 -97.2625 30403.0391 156.4480 212.9649
ENERGY: 1200000 1.3586 2.1199 3.0199 0.0000 -10542.8494 1356.1086 0.0000 0.0000 1757.0234 -7423.2189 303.0070 -9180.2423 -7429.9527 300.5868 -303.3253 -290.3469 29698.7377 93.2461 150.6533
ENERGY: 1500000 3.0021 5.1629 1.2904 0.0000 -10726.5114 1534.8198 0.0000 0.0000 1766.8533 -7415.3828 304.7022 -9182.2361 -7433.0452 300.9261 847.7496 836.1982 29926.5392 163.8576 213.6505
TCL: Running FEP window  19: Lambda1 0.9000000000000002 Lambda2 0.9500000000000003 [dLambda 0.050000000000000044]
TCL: Setting parameter firsttimestep to 0
TCL: Setting parameter alchLambda to 0.9000000000000002
Info: NONBONDED TABLE R-SQUARED SPACING: 0.0625
Info: NONBONDED TABLE SIZE: 705 POINTS
TCL: Setting parameter alchLambda2 to 0.9500000000000003
Info: NONBONDED TABLE R-SQUARED SPACING: 0.0625
Info: NONBONDED TABLE SIZE: 705 POINTS
TCL: Running for 1500000 steps
ETITLE: TS BOND ANGLE DIHED IMPRP ELECT VDW BOUNDARY MISC KINETIC TOTAL TEMP POTENTIAL TOTALAVG TEMPAVG PRESSURE GPRESSURE VOLUME PRESSAVG GPRESSAVG
ENERGY: 0 3.0022 5.1628 1.2904 0.0000 -10727.4467 1535.0123 0.0000 0.0000 1765.9550 -7417.0239 304.5473 -9182.9789 -7417.0239 304.5473 769.8821 846.5585 29926.5392 769.8821 846.5585
ENERGY: 300000 2.3358 5.4235 2.3107 0.0000 -10559.8328 1445.4265 0.0000 0.0000 1783.3727 -7320.9636 307.5511 -9104.3363 -7393.9900 303.3169 387.6260 473.7413 30047.2672 469.9187 535.3214
ENERGY: 600000 1.1854 4.3911 2.9662 0.0000 -10561.9400 1448.4909 0.0000 0.0000 1699.2976 -7405.6088 293.0519 -9104.9064 -7390.6771 302.6852 -179.6327 -70.5900 31035.7042 180.0207 247.5678
ENERGY: 900000 5.7197 4.0862 2.2443 0.0000 -10575.1710 1406.3568 0.0000 0.0000 1698.9319 -7457.8321 292.9888 -9156.7640 -7405.6882 300.0090 -72.1899 74.2071 29879.3589 98.8601 172.6001
ENERGY: 1200000 3.3525 3.5474 1.8483 0.0000 -10583.2339 1425.1255 0.0000 0.0000 1748.6555 -7400.7048 301.5639 -9149.3603 -7415.0541 299.5786 55.0877 127.7526 29966.2803 102.7770 175.5643
ENERGY: 1500000 0.1262 2.4015 2.8403 0.0000 -10605.9349 1454.8775 0.0000 0.0000 1718.4434 -7427.2460 296.3537 -9145.6894 -7414.2266 299.4618 -182.7656 -152.4471 30959.5286 36.9432 104.9920
TCL: Running FEP window  20: Lambda1 0.9500000000000003 Lambda2 1.0    [dLambda 0.04999999999999971]
TCL: Setting parameter firsttimestep to 0
TCL: Setting parameter alchLambda to 0.9500000000000003
Info: NONBONDED TABLE R-SQUARED SPACING: 0.0625
Info: NONBONDED TABLE SIZE: 705 POINTS
TCL: Setting parameter alchLambda2 to 1.0
Info: NONBONDED TABLE R-SQUARED SPACING: 0.0625
Info: NONBONDED TABLE SIZE: 705 POINTS
TCL: Running for 1500000 steps
ETITLE: TS BOND ANGLE DIHED IMPRP ELECT VDW BOUNDARY MISC KINETIC TOTAL TEMP POTENTIAL TOTALAVG TEMPAVG PRESSURE GPRESSURE VOLUME PRESSAVG GPRESSAVG
ENERGY: 0 0.1262 2.4015 2.8403 0.0000 -10606.9129 1455.0352 0.0000 0.0000 1717.5851 -7428.9246 296.2057 -9146.5097 -7428.9246 296.2057 -218.2073 -140.8962 30959.5286 -218.2073 -140.8962
ENERGY: 300000 0.5918 5.6379 3.6077 0.0000 -10529.9911 1368.8523 0.0000 0.0000 1753.2265 -7398.0750 302.3522 -9151.3015 -7404.7827 298.7192 -372.6949 -318.7379 30232.1244 -277.8564 -221.4334
ENERGY: 600000 0.4376 6.0730 3.1764 0.0000 -10600.8028 1368.1320 0.0000 0.0000 1763.9538 -7459.0300 304.2022 -9222.9838 -7426.9679 299.4501 -542.9616 -459.4587 29722.9542 -334.6754 -276.1294
ENERGY: 900000 0.7138 3.6969 1.2564 0.0000 -10573.8507 1389.8428 0.0000 0.0000 1752.9285 -7425.4123 302.3008 -9178.3408 -7419.0965 300.0758 -462.3569 -378.1556 30366.8264 -299.2195 -244.2368
ENERGY: 1200000 0.6900 6.2603 0.8463 0.0000 -10538.3799 1333.9234 0.0000 0.0000 1784.8421 -7411.8178 307.8045 -9196.6599 -7419.9776 301.9652 -918.8147 -891.2517 30392.5690 -368.2963 -316.9541
ENERGY: 1500000 0.8706 2.2038 2.7559 0.0000 -10633.1480 1406.2678 0.0000 0.0000 1769.9066 -7451.1432 305.2288 -9221.0498 -7422.6558 301.8799 -316.2402 -244.1216 30138.3569 -417.2216 -365.0855
TCL: Exiting due to exit command.
