Info: SIMULATION PARAMETERS:
Info: TIMESTEP               2
Info: NUMBER OF STEPS        0
Info: STEPS PER CYCLE        10
Info: PERIODIC CELL BASIS 1  31.9764 0 0
Info: PERIODIC CELL BASIS 2  0 30.5795 0
Info: PERIODIC CELL BASIS 3  0 0 31.4846
Info: PERIODIC CELL CENTER   0 0 0
Info: WRAPPING WATERS AROUND PERIODIC BOUNDARIES ON OUTPUT.
Info: WRAPPING ALL CLUSTERS AROUND PERIODIC BOUNDARIES ON OUTPUT.
Info: FIRST LDB TIMESTEP     50
Info: LAST LDB TIMESTEP     -1
Info: HOM BACKGROUND SCALING 1
Info: PME BACKGROUND SCALING 1
Info: MIN ATOMS PER PATCH    40
Info: EMPTY PATCH LOAD       40 ATOMS
Info: VELOCITY FILE          mobley_7610437_equil.vel
Info: CENTER OF MASS MOVING INITIALLY? NO
Info: DIELECTRIC             1
Info: EXCLUDE                SCALED ONE-FOUR
Info: 1-4 ELECTROSTATICS SCALED BY 0.833333
Info: MODIFIED 1-4 VDW PARAMETERS WILL BE USED
Info: DCD FILENAME           mobley_7610437_prod.dcd
Info: DCD FREQUENCY          100000
Info: DCD FIRST STEP         100000
Info: DCD FILE WILL CONTAIN UNIT CELL DATA
Info: XST FILENAME           mobley_7610437_prod.xst
Info: XST FREQUENCY          100000
Info: NO VELOCITY DCD OUTPUT
Info: NO FORCE DCD OUTPUT
Info: OUTPUT FILENAME        mobley_7610437_prod
Info: BINARY OUTPUT FILES WILL BE USED
Info: RESTART FILENAME       mobley_7610437_prod.restart
Info: RESTART FREQUENCY      100000
Info: BINARY RESTART FILES WILL BE USED
Info: CUTOFF                 9
Info: PAIRLIST DISTANCE      11
Info: PAIRLIST SHRINK RATE   0.01
Info: PAIRLIST GROW RATE     0.01
Info: PAIRLIST TRIGGER       0.3
Info: PAIRLISTS PER CYCLE    2
Info: PAIRLISTS ENABLED
Info: MARGIN                 2
Info: HYDROGEN GROUP CUTOFF  2.5
Info: PATCH DIMENSION        15.5
Info: ENERGY OUTPUT STEPS    100000
Info: ENERGY EVALUATION STEPS    100000
Info: OUTPUT ENERGY PRECISION 4
Info: CROSSTERM ENERGY INCLUDED IN DIHEDRAL
Info: TIMING OUTPUT STEPS    1000000
Info: PRESSURE OUTPUT STEPS  100000
Info: ALCHEMICAL FEP ON
Info: FEP CURRENT LAMBDA VALUE     1
Info: FEP COMPARISON LAMBDA VALUE  0.95
Info: FEP INTRA-ALCHEMICAL NON-BONDED INTERACTIONS WILL BE RETAINED
Info: FEP INTRA-ALCHEMICAL BONDED INTERACTIONS WILL BE RETAINED
Info: FEP VDW SHIFTING COEFFICIENT 5
Info: FEP ELEC. ACTIVE FOR ANNIHILATED PARTICLES BETWEEN LAMBDA = 0 AND LAMBDA = 0.5
Info: FEP ELEC. ACTIVE FOR EXNIHILATED PARTICLES BETWEEN LAMBDA = 0.5 AND LAMBDA = 1
Info: FEP VDW ACTIVE FOR ANNIHILATED PARTICLES BETWEEN LAMBDA = 0 AND LAMBDA = 1
Info: FEP VDW ACTIVE FOR EXNIHILATED PARTICLES BETWEEN LAMBDA = 0 AND LAMBDA = 1
Info: FEP BOND ACTIVE FOR ANNIHILATED PARTICLES BETWEEN LAMBDA = 1 AND LAMBDA = 1
Info: FEP BOND ACTIVE FOR EXNIHILATED PARTICLES BETWEEN LAMBDA = 0 AND LAMBDA = 0
Info: LANGEVIN DYNAMICS ACTIVE
Info: LANGEVIN TEMPERATURE   300
Info: LANGEVIN USING BBK INTEGRATOR
Info: LANGEVIN DAMPING COEFFICIENT IS 1 INVERSE PS
Info: LANGEVIN DYNAMICS APPLIED TO HYDROGENS
Info: LANGEVIN PISTON PRESSURE CONTROL ACTIVE
Info:        TARGET PRESSURE IS 1.01325 BAR
Info:     OSCILLATION PERIOD IS 50 FS
Info:             DECAY TIME IS 25 FS
Info:     PISTON TEMPERATURE IS 300 K
Info:       PRESSURE CONTROL IS GROUP-BASED
Info:    INITIAL STRAIN RATE IS -0.000255881 -0.000255881 -0.000255881
Info:       CELL FLUCTUATION IS ISOTROPIC
Info: PARTICLE MESH EWALD (PME) ACTIVE
Info: PME TOLERANCE               1e-06
Info: PME EWALD COEFFICIENT       0.348832
Info: PME INTERPOLATION ORDER     4
Info: PME GRID DIMENSIONS         32 32 32
Info: PME MAXIMUM GRID SPACING    1
Info: PME CALCULATION WILL BE PERFORMED ON GPU
Info: FULL ELECTROSTATIC EVALUATION FREQUENCY      2
Info: USING VERLET I (r-RESPA) MTS SCHEME.
Info: C1 SPLITTING OF LONG RANGE ELECTROSTATICS
Info: PLACING ATOMS IN PATCHES BY HYDROGEN GROUPS
Info: RIGID BONDS TO HYDROGEN : ALL
Info:         ERROR TOLERANCE : 1e-08
Info:          MAX ITERATIONS : 100
Info: RIGID WATER USING SETTLE ALGORITHM
Info: RANDOM NUMBER SEED     1743875721
Info: USE HYDROGEN BONDS?    NO
Info: Using AMBER format force field!
Info: AMBER PARM FILE        mobley_7610437.prmtop
Info: COORDINATE PDB         mobley_7610437.pdb
Info: Exclusions will be read from PARM file!
Info: SCNB (VDW SCALING)     2
Info: USING ARITHMETIC MEAN TO COMBINE L-J SIGMA PARAMETERS
Info: BINARY COORDINATES     mobley_7610437_equil.coor
Info: SUMMARY OF PARAMETERS:
Info: 7 BONDS
Info: 7 ANGLES
Info:   7 HARMONIC
Info:   0 COSINE-BASED
Info: 9 DIHEDRAL
Info: 0 IMPROPER
Info: 0 CROSSTERM
Info: 0 VDW
Info: 21 VDW_PAIRS
Info: 0 NBTHOLE_PAIRS
Info: To read alchdata from file: mobley_7610437.pdb
Info: To read alchflag data from column: 5
Info: STRUCTURE SUMMARY:
Info: 2976 ATOMS
Info: 2975 BONDS
Info: 37 ANGLES
Info: 59 DIHEDRALS
Info: 0 IMPROPERS
Info: 0 CROSSTERMS
Info: 3060 EXCLUSIONS
Info: 2969 RIGID BONDS
Info: ALCH: 0 ATOMS TO DISAPPEAR IN FINAL STATE
Info: ALCH: 21 ATOMS TO APPEAR IN FINAL STATE
Info: 5959 DEGREES OF FREEDOM
Info: 992 HYDROGEN GROUPS
Info: 4 ATOMS IN LARGEST HYDROGEN GROUP
Info: 992 MIGRATION GROUPS
Info: 4 ATOMS IN LARGEST MIGRATION GROUP
Info: TOTAL MASS = 17847.9 amu
Info: TOTAL CHARGE = -0.000399996 e
Info: MASS DENSITY = 0.962695 g/cm^3
Info: ATOM DENSITY = 0.0966661 atoms/A^3
Info: ADDED 0 IMPLICIT EXCLUSIONS
Info: NONBONDED TABLE R-SQUARED SPACING: 0.0625
Info: NONBONDED TABLE SIZE: 705 POINTS
Info: REMOVING COM VELOCITY -0.169007 -0.162106 -0.0944504
Info: Use 3D box decompostion in PME FFT.
Info: Updated CUDA force table with 4096 elements.
Info: Updated CUDA LJ table with 6 x 6 elements.
Info: Found 24 unique exclusion lists needing 68 bytes
TCL: Running for 1500000 steps
ETITLE: TS BOND ANGLE DIHED IMPRP ELECT VDW BOUNDARY MISC KINETIC TOTAL TEMP POTENTIAL TOTALAVG TEMPAVG PRESSURE GPRESSURE VOLUME PRESSAVG GPRESSAVG
ENERGY: 0 1.6727 12.9023 2.8427 0.0000 -10895.2621 1530.7044 0.0000 0.0000 1790.5486 -7556.5914 302.4148 -9347.1400 -7556.5914 302.4148 533.0227 602.8906 30786.3760 533.0227 602.8906
ENERGY: 300000 2.3822 11.7932 3.4198 0.0000 -10726.8585 1418.4888 0.0000 0.0000 1735.8118 -7554.9628 293.1701 -9290.7746 -7538.9895 296.0066 -357.6601 -295.5248 30917.7254 222.2738 272.3904
ENERGY: 600000 1.6196 7.1933 3.4112 0.0000 -10785.9465 1420.1678 0.0000 0.0000 1770.3004 -7583.2542 298.9950 -9353.5546 -7547.7896 298.6462 -485.3990 -430.7057 30992.6360 28.0486 79.9697
ENERGY: 900000 2.1530 9.0482 3.4067 0.0000 -10758.0901 1407.0666 0.0000 0.0000 1791.7548 -7544.6606 302.6186 -9336.4154 -7542.8697 299.1046 -506.0031 -475.4423 31350.9340 44.7442 92.6575
ENERGY: 1200000 3.3595 8.5884 3.1862 0.0000 -10772.7998 1454.4061 0.0000 0.0000 1759.2979 -7543.9618 297.1368 -9303.2596 -7545.5471 297.3715 110.0897 160.1601 30650.8309 -23.1261 34.2147
ENERGY: 1500000 0.7747 12.7274 3.7812 0.0000 -10791.7629 1466.5091 0.0000 0.0000 1794.0611 -7513.9093 303.0081 -9307.9704 -7539.7289 297.6089 13.7411 84.2432 30554.8508 -8.8252 49.7267
TCL: Running FEP window   2: Lambda1 0.95   Lambda2 0.8999999999999999 [dLambda -0.050000000000000044]
TCL: Setting parameter firsttimestep to 0
TCL: Setting parameter alchLambda to 0.95
Info: NONBONDED TABLE R-SQUARED SPACING: 0.0625
Info: NONBONDED TABLE SIZE: 705 POINTS
TCL: Setting parameter alchLambda2 to 0.8999999999999999
Info: NONBONDED TABLE R-SQUARED SPACING: 0.0625
Info: NONBONDED TABLE SIZE: 705 POINTS
TCL: Running for 1500000 steps
ETITLE: TS BOND ANGLE DIHED IMPRP ELECT VDW BOUNDARY MISC KINETIC TOTAL TEMP POTENTIAL TOTALAVG TEMPAVG PRESSURE GPRESSURE VOLUME PRESSAVG GPRESSAVG
ENERGY: 0 0.7747 12.7274 3.7812 0.0000 -10790.7076 1466.9765 0.0000 0.0000 1793.1222 -7513.3255 302.8495 -9306.4477 -7513.3255 302.8495 -5.8490 82.4436 30554.8508 -5.8490 82.4436
ENERGY: 300000 0.7730 12.0162 5.9248 0.0000 -10813.2046 1483.0638 0.0000 0.0000 1760.2221 -7551.2046 297.2929 -9311.4267 -7503.6385 301.8455 207.1040 275.2014 30801.5151 -329.5706 -259.9549
ENERGY: 600000 3.1256 6.3704 3.1438 0.0000 -10641.9847 1358.9075 0.0000 0.0000 1760.3482 -7510.0891 297.3142 -9270.4374 -7520.3653 300.4398 -587.2861 -585.1290 30743.3169 -146.7325 -89.3925
ENERGY: 900000 0.9980 15.7578 3.6218 0.0000 -10900.9131 1507.7546 0.0000 0.0000 1724.6251 -7648.1557 291.2807 -9372.7808 -7530.5329 300.2030 206.5619 337.6655 30493.3536 -132.2895 -60.6991
ENERGY: 1200000 0.4650 12.5680 4.2921 0.0000 -10740.7193 1455.0511 0.0000 0.0000 1767.5628 -7500.7803 298.5327 -9268.3431 -7529.0314 300.5062 150.8689 149.5263 31051.7254 -174.9780 -115.8002
ENERGY: 1500000 1.5525 10.0672 5.5241 0.0000 -10790.6128 1462.4041 0.0000 0.0000 1757.7444 -7553.3205 296.8744 -9311.0649 -7522.9575 300.5063 299.1801 415.6114 30188.6831 -103.6147 -47.1770
TCL: Running FEP window   3: Lambda1 0.8999999999999999 Lambda2 0.8499999999999999 [dLambda -0.050000000000000044]
TCL: Setting parameter firsttimestep to 0
TCL: Setting parameter alchLambda to 0.8999999999999999
Info: NONBONDED TABLE R-SQUARED SPACING: 0.0625
Info: NONBONDED TABLE SIZE: 705 POINTS
TCL: Setting parameter alchLambda2 to 0.8499999999999999
Info: NONBONDED TABLE R-SQUARED SPACING: 0.0625
Info: NONBONDED TABLE SIZE: 705 POINTS
TCL: Running for 1500000 steps
ETITLE: TS BOND ANGLE DIHED IMPRP ELECT VDW BOUNDARY MISC KINETIC TOTAL TEMP POTENTIAL TOTALAVG TEMPAVG PRESSURE GPRESSURE VOLUME PRESSAVG GPRESSAVG
ENERGY: 0 1.5524 10.0672 5.5242 0.0000 -10789.3939 1460.7372 0.0000 0.0000 1756.8081 -7554.7048 296.7162 -9311.5129 -7554.7048 296.7162 307.8338 387.4523 30188.6831 307.8338 387.4523
ENERGY: 300000 0.9275 10.3406 3.2791 0.0000 -10849.6828 1489.9385 0.0000 0.0000 1784.4756 -7560.7215 301.3892 -9345.1971 -7542.6381 301.6227 62.7303 168.5249 30701.7579 317.6933 400.8103
ENERGY: 600000 1.7600 10.0993 3.4891 0.0000 -10753.4497 1395.1273 0.0000 0.0000 1748.6535 -7594.3206 295.3390 -9342.9741 -7548.3427 299.0517 -443.7706 -378.8817 30719.0467 10.4708 91.7173
ENERGY: 900000 1.6734 6.9555 8.0462 0.0000 -10782.2355 1472.6140 0.0000 0.0000 1787.9147 -7505.0318 301.9700 -9292.9464 -7538.1842 299.1755 151.5275 220.5156 30890.6902 -96.8623 -13.7494
ENERGY: 1200000 1.6468 8.1456 2.6912 0.0000 -10723.7421 1349.4587 0.0000 0.0000 1771.4217 -7590.3780 299.1844 -9361.7998 -7529.6447 300.0376 -990.0027 -1001.4463 30881.4799 -182.9658 -108.8652
ENERGY: 1500000 1.9368 10.8121 5.3607 0.0000 -10727.4024 1444.9362 0.0000 0.0000 1781.5559 -7482.8006 300.8960 -9264.3566 -7521.0165 300.8202 227.5109 295.3663 30395.9293 -111.6159 -43.1359
TCL: Running FEP window   4: Lambda1 0.8499999999999999 Lambda2 0.7999999999999998 [dLambda -0.050000000000000044]
TCL: Setting parameter firsttimestep to 0
TCL: Setting parameter alchLambda to 0.8499999999999999
Info: NONBONDED TABLE R-SQUARED SPACING: 0.0625
Info: NONBONDED TABLE SIZE: 705 POINTS
TCL: Setting parameter alchLambda2 to 0.7999999999999998
Info: NONBONDED TABLE R-SQUARED SPACING: 0.0625
Info: NONBONDED TABLE SIZE: 705 POINTS
TCL: Running for 1500000 steps
ETITLE: TS BOND ANGLE DIHED IMPRP ELECT VDW BOUNDARY MISC KINETIC TOTAL TEMP POTENTIAL TOTALAVG TEMPAVG PRESSURE GPRESSURE VOLUME PRESSAVG GPRESSAVG
ENERGY: 0 1.9368 10.8121 5.3607 0.0000 -10726.2243 1445.0826 0.0000 0.0000 1780.6455 -7482.3865 300.7423 -9263.0321 -7482.3865 300.7423 209.3048 288.9585 30395.9293 209.3048 288.9585
ENERGY: 300000 2.0642 14.1173 5.9878 0.0000 -10715.7612 1382.3954 0.0000 0.0000 1729.8355 -7581.3611 292.1607 -9311.1966 -7531.5238 297.4416 -658.3957 -530.6510 30575.1857 -6.0100 72.0888
ENERGY: 600000 0.5875 9.0210 2.9553 0.0000 -10911.7608 1519.8438 0.0000 0.0000 1735.9871 -7643.3662 293.1997 -9379.3532 -7532.0921 299.1567 493.4625 535.8102 30581.0504 186.8958 232.9346
ENERGY: 900000 1.9603 12.5369 3.7496 0.0000 -10691.2490 1370.9485 0.0000 0.0000 1810.7617 -7491.2919 305.8287 -9302.0536 -7531.6803 299.1792 -671.5663 -647.0046 31108.8907 58.7120 110.1112
ENERGY: 1200000 1.2666 12.0598 5.6949 0.0000 -10764.8153 1512.5546 0.0000 0.0000 1780.3646 -7452.8747 300.6948 -9233.2394 -7527.8554 299.2573 832.3272 880.6797 30326.3317 65.6606 116.1521
ENERGY: 1500000 0.3610 12.5709 2.8937 0.0000 -10731.7768 1388.8537 0.0000 0.0000 1763.1278 -7563.9697 297.7836 -9327.0975 -7533.9700 299.5292 -527.1154 -422.6300 30577.1790 105.9164 158.9406
TCL: Running FEP window   5: Lambda1 0.7999999999999998 Lambda2 0.7499999999999998 [dLambda -0.050000000000000044]
TCL: Setting parameter firsttimestep to 0
TCL: Setting parameter alchLambda to 0.7999999999999998
Info: NONBONDED TABLE R-SQUARED SPACING: 0.0625
Info: NONBONDED TABLE SIZE: 705 POINTS
TCL: Setting parameter alchLambda2 to 0.7499999999999998
Info: NONBONDED TABLE R-SQUARED SPACING: 0.0625
Info: NONBONDED TABLE SIZE: 705 POINTS
TCL: Running for 1500000 steps
ETITLE: TS BOND ANGLE DIHED IMPRP ELECT VDW BOUNDARY MISC KINETIC TOTAL TEMP POTENTIAL TOTALAVG TEMPAVG PRESSURE GPRESSURE VOLUME PRESSAVG GPRESSAVG
ENERGY: 0 0.3610 12.5709 2.8937 0.0000 -10730.2922 1387.5963 0.0000 0.0000 1762.2652 -7564.6052 297.6379 -9326.8704 -7564.6052 297.6379 -538.9983 -439.7344 30577.1790 -538.9983 -439.7344
ENERGY: 300000 2.0548 8.9010 3.4518 0.0000 -10808.8881 1458.9132 0.0000 0.0000 1815.1325 -7520.4348 306.5670 -9335.5673 -7547.8216 299.4903 -12.9506 5.4872 30780.9625 -83.0755 -17.9543
ENERGY: 600000 3.0359 10.2415 3.9445 0.0000 -10729.1078 1408.8002 0.0000 0.0000 1778.0719 -7525.0138 300.3076 -9303.0857 -7529.8744 299.6218 -370.1581 -323.3251 31001.5777 -64.0588 0.8654
ENERGY: 900000 2.8063 12.7011 3.9639 0.0000 -10788.0335 1462.7262 0.0000 0.0000 1740.3407 -7565.4953 293.9350 -9305.8361 -7524.0718 299.5773 61.1531 191.7425 30440.4846 -17.5040 56.4888
ENERGY: 1200000 4.4005 10.9828 4.4039 0.0000 -10795.0416 1481.7154 0.0000 0.0000 1747.4719 -7546.0671 295.1394 -9293.5390 -7524.7182 299.6783 -10.0237 121.4240 30753.6375 -79.2826 -11.0151
ENERGY: 1500000 1.9053 8.5292 5.4142 0.0000 -10737.3841 1383.4317 0.0000 0.0000 1765.2613 -7572.8424 298.1440 -9338.1037 -7524.2818 299.1705 -666.1567 -620.4346 30748.0844 -186.0406 -121.9245
TCL: Running FEP window   6: Lambda1 0.7499999999999998 Lambda2 0.6999999999999997 [dLambda -0.050000000000000044]
TCL: Setting parameter firsttimestep to 0
TCL: Setting parameter alchLambda to 0.7499999999999998
Info: NONBONDED TABLE R-SQUARED SPACING: 0.0625
Info: NONBONDED TABLE SIZE: 705 POINTS
TCL: Setting parameter alchLambda2 to 0.6999999999999997
Info: NONBONDED TABLE R-SQUARED SPACING: 0.0625
Info: NONBONDED TABLE SIZE: 705 POINTS
TCL: Running for 1500000 steps
ETITLE: TS BOND ANGLE DIHED IMPRP ELECT VDW BOUNDARY MISC KINETIC TOTAL TEMP POTENTIAL TOTALAVG TEMPAVG PRESSURE GPRESSURE VOLUME PRESSAVG GPRESSAVG
ENERGY: 0 1.9053 8.5292 5.4142 0.0000 -10736.4463 1383.5265 0.0000 0.0000 1764.4037 -7572.6674 297.9991 -9337.0711 -7572.6674 297.9991 -713.2001 -628.9343 30748.0844 -713.2001 -628.9343
ENERGY: 300000 2.3356 13.5997 4.2695 0.0000 -10786.4423 1473.3890 0.0000 0.0000 1812.1794 -7480.6691 306.0682 -9292.8485 -7520.7751 299.8783 92.5031 222.8276 30829.3610 -446.2477 -342.1247
ENERGY: 600000 1.3029 10.7334 4.6022 0.0000 -10784.0643 1471.4711 0.0000 0.0000 1790.4963 -7505.4585 302.4060 -9295.9548 -7517.9536 299.1284 222.3818 335.5441 30450.6013 -317.2728 -231.6596
ENERGY: 900000 1.5206 8.5329 3.0290 0.0000 -10724.5861 1420.4834 0.0000 0.0000 1757.3358 -7533.6844 296.8054 -9291.0202 -7530.1697 298.1386 -200.2357 -151.2650 30537.5434 -388.5564 -323.2853
ENERGY: 1200000 2.5770 8.9364 4.4812 0.0000 -10714.7802 1409.3565 0.0000 0.0000 1805.5234 -7483.9056 304.9440 -9289.4291 -7517.0289 299.8952 -301.3733 -236.9518 30480.2962 -402.4451 -335.1006
ENERGY: 1500000 1.8001 5.6087 5.3243 0.0000 -10727.0943 1389.3244 0.0000 0.0000 1761.9767 -7563.0601 297.5892 -9325.0368 -7526.1605 299.4565 -534.3134 -446.0456 30468.8253 -280.2909 -214.4820
TCL: Running FEP window   7: Lambda1 0.6999999999999997 Lambda2 0.6499999999999997 [dLambda -0.050000000000000044]
TCL: Setting parameter firsttimestep to 0
TCL: Setting parameter alchLambda to 0.6999999999999997
Info: NONBONDED TABLE R-SQUARED SPACING: 0.0625
Info: NONBONDED TABLE SIZE: 705 POINTS
TCL: Setting parameter alchLambda2 to 0.6499999999999997
Info: NONBONDED TABLE R-SQUARED SPACING: 0.0625
Info: NONBONDED TABLE SIZE: 705 POINTS
TCL: Running for 1500000 steps
ETITLE: TS BOND ANGLE DIHED IMPRP ELECT VDW BOUNDARY MISC KINETIC TOTAL TEMP POTENTIAL TOTALAVG TEMPAVG PRESSURE GPRESSURE VOLUME PRESSAVG GPRESSAVG
ENERGY: 0 1.8001 5.6087 5.3243 0.0000 -10725.6474 1389.2634 0.0000 0.0000 1761.0960 -7562.5549 297.4404 -9323.6508 -7562.5549 297.4404 -545.5081 -452.5575 30468.8253 -545.5081 -452.5575
ENERGY: 300000 1.0520 8.4277 5.0499 0.0000 -10782.4478 1457.9158 0.0000 0.0000 1803.3740 -7506.6284 304.5810 -9310.0024 -7569.2556 300.2308 22.6770 99.9709 30423.1534 -245.1699 -180.7654
ENERGY: 600000 1.1868 13.3290 3.2198 0.0000 -10790.7624 1467.4104 0.0000 0.0000 1757.5963 -7548.0201 296.8494 -9305.6164 -7535.3142 301.8331 361.5565 443.5716 30395.2965 -131.7202 -70.9777
ENERGY: 900000 5.4407 12.4038 4.2096 0.0000 -10828.7988 1453.9161 0.0000 0.0000 1771.4915 -7581.3371 299.1962 -9352.8286 -7536.3497 300.5789 -380.7566 -299.2210 30722.1042 -173.8784 -119.9635
ENERGY: 1200000 1.7417 12.6401 4.1031 0.0000 -10763.2957 1461.4060 0.0000 0.0000 1809.9751 -7473.4298 305.6959 -9283.4049 -7510.1570 302.1180 182.6843 231.6751 30551.5040 -130.4619 -78.6396
ENERGY: 1500000 2.6826 7.5938 3.8014 0.0000 -10622.8042 1405.8649 0.0000 0.0000 1782.5547 -7420.3068 301.0647 -9202.8615 -7502.4264 301.8181 -227.8329 -134.8504 30858.7628 -128.1373 -75.4479
TCL: Running FEP window   8: Lambda1 0.6499999999999997 Lambda2 0.5999999999999996 [dLambda -0.050000000000000044]
TCL: Setting parameter firsttimestep to 0
TCL: Setting parameter alchLambda to 0.6499999999999997
Info: NONBONDED TABLE R-SQUARED SPACING: 0.0625
Info: NONBONDED TABLE SIZE: 705 POINTS
TCL: Setting parameter alchLambda2 to 0.5999999999999996
Info: NONBONDED TABLE R-SQUARED SPACING: 0.0625
Info: NONBONDED TABLE SIZE: 705 POINTS
TCL: Running for 1500000 steps
ETITLE: TS BOND ANGLE DIHED IMPRP ELECT VDW BOUNDARY MISC KINETIC TOTAL TEMP POTENTIAL TOTALAVG TEMPAVG PRESSURE GPRESSURE VOLUME PRESSAVG GPRESSAVG
ENERGY: 0 2.6826 7.5938 3.8014 0.0000 -10622.0275 1406.2559 0.0000 0.0000 1781.6330 -7420.0608 300.9090 -9201.6938 -7420.0608 300.9090 -232.9021 -139.8226 30858.7628 -232.9021 -139.8226
ENERGY: 300000 2.3176 8.9374 2.6055 0.0000 -10818.3432 1465.8149 0.0000 0.0000 1702.6343 -7636.0334 287.5666 -9338.6678 -7533.9131 296.5235 -43.3683 44.7955 30905.6504 -199.3927 -135.6560
ENERGY: 600000 3.6546 9.6302 6.4371 0.0000 -10851.5125 1516.9660 0.0000 0.0000 1812.2480 -7502.5764 306.0798 -9314.8245 -7532.8141 298.2078 544.5278 587.6572 30403.8815 -169.1185 -111.1194
ENERGY: 900000 3.9882 12.6443 4.6052 0.0000 -10751.9697 1444.5280 0.0000 0.0000 1763.8213 -7522.3826 297.9007 -9286.2040 -7530.2300 298.8030 -87.5561 -42.5010 30852.8514 -112.3994 -49.1745
ENERGY: 1200000 1.7906 7.9195 3.8596 0.0000 -10609.8172 1341.5271 0.0000 0.0000 1789.8140 -7464.9063 302.2908 -9254.7204 -7532.8911 298.8107 -558.1557 -474.4637 30424.3538 -240.1036 -171.4471
ENERGY: 1500000 2.8142 10.6063 5.4540 0.0000 -10759.8711 1451.3708 0.0000 0.0000 1769.6650 -7519.9607 298.8877 -9289.6257 -7528.4218 299.3220 -47.4440 10.6218 30554.2151 -201.6960 -132.4510
TCL: Running FEP window   9: Lambda1 0.5999999999999996 Lambda2 0.5499999999999996 [dLambda -0.050000000000000044]
TCL: Setting parameter firsttimestep to 0
TCL: Setting parameter alchLambda to 0.5999999999999996
Info: NONBONDED TABLE R-SQUARED SPACING: 0.0625
Info: NONBONDED TABLE SIZE: 705 POINTS
TCL: Setting parameter alchLambda2 to 0.5499999999999996
Info: NONBONDED TABLE R-SQUARED SPACING: 0.0625
Info: NONBONDED TABLE SIZE: 705 POINTS
TCL: Running for 1500000 steps
ETITLE: TS BOND ANGLE DIHED IMPRP ELECT VDW BOUNDARY MISC KINETIC TOTAL TEMP POTENTIAL TOTALAVG TEMPAVG PRESSURE GPRESSURE VOLUME PRESSAVG GPRESSAVG
ENERGY: 0 2.8142 10.6063 5.4540 0.0000 -10759.5808 1451.0376 0.0000 0.0000 1768.7871 -7520.8816 298.7394 -9289.6687 -7520.8816 298.7394 -96.6829 -1.8137 30554.2151 -96.6829 -1.8137
ENERGY: 300000 1.2321 11.0585 3.3243 0.0000 -10723.1018 1411.9946 0.0000 0.0000 1826.0472 -7469.4450 308.4104 -9295.4922 -7522.4285 299.6792 -379.1836 -312.6083 30536.6204 -43.1747 13.8552
ENERGY: 600000 3.7884 8.2371 3.4932 0.0000 -10688.2631 1377.7669 0.0000 0.0000 1758.6306 -7536.3469 297.0241 -9294.9775 -7503.1165 299.3172 -903.4438 -830.3619 31082.8992 -352.4746 -299.2163
ENERGY: 900000 2.0102 11.6878 3.2002 0.0000 -10759.8332 1434.3775 0.0000 0.0000 1793.7107 -7514.8467 302.9489 -9308.5574 -7508.5410 299.9206 -540.5237 -431.0681 31003.5917 -370.3638 -309.4594
ENERGY: 1200000 2.8603 9.0431 4.1280 0.0000 -10896.9830 1508.1851 0.0000 0.0000 1802.8802 -7569.8863 304.4976 -9372.7665 -7501.6751 301.2994 348.6012 409.7298 30316.2926 -300.6025 -234.9179
ENERGY: 1500000 1.2271 10.2483 3.3938 0.0000 -10829.1550 1460.4179 0.0000 0.0000 1758.8457 -7595.0221 297.0604 -9353.8678 -7514.2984 301.4718 -69.6910 -46.0468 30596.0006 -225.7244 -162.6227
TCL: Running FEP window  10: Lambda1 0.5499999999999996 Lambda2 0.4999999999999996 [dLambda -0.04999999999999999]
TCL: Setting parameter firsttimestep to 0
TCL: Setting parameter alchLambda to 0.5499999999999996
Info: NONBONDED TABLE R-SQUARED SPACING: 0.0625
Info: NONBONDED TABLE SIZE: 705 POINTS
TCL: Setting parameter alchLambda2 to 0.4999999999999996
Info: NONBONDED TABLE R-SQUARED SPACING: 0.0625
Info: NONBONDED TABLE SIZE: 705 POINTS
TCL: Running for 1500000 steps
ETITLE: TS BOND ANGLE DIHED IMPRP ELECT VDW BOUNDARY MISC KINETIC TOTAL TEMP POTENTIAL TOTALAVG TEMPAVG PRESSURE GPRESSURE VOLUME PRESSAVG GPRESSAVG
ENERGY: 0 1.2271 10.2483 3.3938 0.0000 -10828.7798 1460.4847 0.0000 0.0000 1757.9946 -7595.4313 296.9166 -9353.4259 -7595.4313 296.9166 -131.5090 -53.5972 30596.0006 -131.5090 -53.5972
ENERGY: 300000 0.4371 8.7080 2.9814 0.0000 -10686.4095 1425.6422 0.0000 0.0000 1795.9701 -7452.6707 303.3305 -9248.6408 -7499.9390 303.2964 8.9243 48.1459 30680.6785 135.4550 189.7291
ENERGY: 600000 3.4864 7.0253 2.4985 0.0000 -10694.2315 1441.4046 0.0000 0.0000 1784.7818 -7455.0349 301.4409 -9239.8167 -7494.0161 302.4080 266.5552 285.0292 30566.9184 87.2808 143.7585
ENERGY: 900000 2.8794 7.7064 3.4550 0.0000 -10745.6519 1476.3922 0.0000 0.0000 1720.5264 -7534.6924 290.5884 -9255.2189 -7514.8868 300.8077 63.7088 138.3428 30610.7037 59.7193 130.4190
ENERGY: 1200000 2.6628 8.4898 3.8943 0.0000 -10662.2709 1396.0491 0.0000 0.0000 1843.9615 -7407.2134 311.4360 -9251.1749 -7506.5490 301.7878 -294.0014 -147.4287 30808.1413 25.3325 108.8280
ENERGY: 1500000 4.0526 13.1173 4.8726 0.0000 -10792.9831 1517.4204 0.0000 0.0000 1780.3886 -7473.1316 300.6989 -9253.5202 -7494.1809 302.1155 434.6805 510.4566 30657.8745 -17.9552 60.4097
TCL: Running FEP window  11: Lambda1 0.4999999999999996 Lambda2 0.4499999999999996 [dLambda -0.04999999999999999]
TCL: Setting parameter firsttimestep to 0
TCL: Setting parameter alchLambda to 0.4999999999999996
Info: NONBONDED TABLE R-SQUARED SPACING: 0.0625
Info: NONBONDED TABLE SIZE: 705 POINTS
TCL: Setting parameter alchLambda2 to 0.4499999999999996
Info: NONBONDED TABLE R-SQUARED SPACING: 0.0625
Info: NONBONDED TABLE SIZE: 705 POINTS
TCL: Running for 1500000 steps
ETITLE: TS BOND ANGLE DIHED IMPRP ELECT VDW BOUNDARY MISC KINETIC TOTAL TEMP POTENTIAL TOTALAVG TEMPAVG PRESSURE GPRESSURE VOLUME PRESSAVG GPRESSAVG
ENERGY: 0 4.0526 13.1173 4.8726 0.0000 -10792.8329 1517.7907 0.0000 0.0000 1779.4735 -7473.5262 300.5443 -9252.9997 -7473.5262 300.5443 436.4229 507.4215 30657.8745 436.4229 507.4215
ENERGY: 300000 2.2335 14.0685 4.9366 0.0000 -10800.1474 1462.6193 0.0000 0.0000 1798.5866 -7517.7028 303.7724 -9316.2894 -7463.9412 304.3123 -98.7917 -19.1828 30770.8358 147.0910 229.3963
ENERGY: 600000 0.9615 10.5077 3.9728 0.0000 -10728.8698 1463.5320 0.0000 0.0000 1790.7682 -7459.1276 302.4519 -9249.8958 -7466.4144 302.4977 114.0096 166.5976 30874.9300 146.5104 223.5405
ENERGY: 900000 4.1322 9.3486 3.6748 0.0000 -10742.4182 1495.0134 0.0000 0.0000 1773.8076 -7456.4416 299.5874 -9230.2492 -7489.9266 300.9715 693.5892 781.6627 30579.3616 35.4382 121.3775
ENERGY: 1200000 0.9038 12.9541 3.3204 0.0000 -10782.1263 1455.6727 0.0000 0.0000 1813.2516 -7496.0237 306.2493 -9309.2753 -7489.5630 300.8468 143.8116 216.9098 30453.3694 56.0638 132.0382
ENERGY: 1500000 2.3860 6.5266 7.4122 0.0000 -10747.9925 1444.9748 0.0000 0.0000 1760.9144 -7525.7786 297.4098 -9286.6930 -7491.2600 301.4893 -108.6934 43.3183 30583.2420 29.9667 113.5554
TCL: Running FEP window  12: Lambda1 0.4499999999999996 Lambda2 0.39999999999999963 [dLambda -0.04999999999999999]
TCL: Setting parameter firsttimestep to 0
TCL: Setting parameter alchLambda to 0.4499999999999996
Info: NONBONDED TABLE R-SQUARED SPACING: 0.0625
Info: NONBONDED TABLE SIZE: 705 POINTS
TCL: Setting parameter alchLambda2 to 0.39999999999999963
Info: NONBONDED TABLE R-SQUARED SPACING: 0.0625
Info: NONBONDED TABLE SIZE: 705 POINTS
TCL: Running for 1500000 steps
ETITLE: TS BOND ANGLE DIHED IMPRP ELECT VDW BOUNDARY MISC KINETIC TOTAL TEMP POTENTIAL TOTALAVG TEMPAVG PRESSURE GPRESSURE VOLUME PRESSAVG GPRESSAVG
ENERGY: 0 2.3860 6.5265 7.4122 0.0000 -10747.9935 1445.4610 0.0000 0.0000 1760.0156 -7526.1921 297.2580 -9286.2077 -7526.1921 297.2580 -40.7256 43.7259 30583.2420 -40.7256 43.7259
ENERGY: 300000 3.1443 6.7800 3.9920 0.0000 -10769.1639 1467.6460 0.0000 0.0000 1761.4086 -7526.1930 297.4932 -9287.6016 -7500.4812 300.9069 219.4640 271.4182 30549.9285 -131.9005 -82.2654
ENERGY: 600000 3.2866 11.7544 2.9903 0.0000 -10633.7201 1407.1064 0.0000 0.0000 1723.4099 -7485.1725 291.0755 -9208.5824 -7495.5340 300.9157 -143.8728 -137.3430 30894.8479 -82.7553 -30.0894
ENERGY: 900000 3.0257 11.3193 4.7230 0.0000 -10756.9636 1426.2455 0.0000 0.0000 1795.9444 -7515.7057 303.3262 -9311.6501 -7493.8331 300.9606 -332.9632 -222.1736 30661.6516 -272.0594 -198.7424
ENERGY: 1200000 1.0397 8.0522 6.3417 0.0000 -10742.9433 1455.3203 0.0000 0.0000 1774.3394 -7497.8500 299.6772 -9272.1894 -7499.1707 300.3804 48.8349 32.6264 30534.4459 -261.0746 -202.0601
ENERGY: 1500000 0.3004 9.4402 3.6830 0.0000 -10880.3873 1533.9322 0.0000 0.0000 1726.3009 -7606.7307 291.5637 -9333.0316 -7508.4887 299.8913 837.0401 925.6823 30038.3962 -190.5281 -134.0415
TCL: Running FEP window  13: Lambda1 0.39999999999999963 Lambda2 0.34999999999999964 [dLambda -0.04999999999999999]
TCL: Setting parameter firsttimestep to 0
TCL: Setting parameter alchLambda to 0.39999999999999963
Info: NONBONDED TABLE R-SQUARED SPACING: 0.0625
Info: NONBONDED TABLE SIZE: 705 POINTS
TCL: Setting parameter alchLambda2 to 0.34999999999999964
Info: NONBONDED TABLE R-SQUARED SPACING: 0.0625
Info: NONBONDED TABLE SIZE: 705 POINTS
TCL: Running for 1500000 steps
ETITLE: TS BOND ANGLE DIHED IMPRP ELECT VDW BOUNDARY MISC KINETIC TOTAL TEMP POTENTIAL TOTALAVG TEMPAVG PRESSURE GPRESSURE VOLUME PRESSAVG GPRESSAVG
ENERGY: 0 0.3004 9.4402 3.6830 0.0000 -10880.3873 1534.5215 0.0000 0.0000 1725.4459 -7606.9964 291.4193 -9332.4423 -7606.9964 291.4193 849.6596 924.5297 30038.3962 849.6596 924.5297
ENERGY: 300000 0.7559 8.6290 3.6096 0.0000 -10675.3780 1392.1413 0.0000 0.0000 1800.6831 -7469.5590 304.1265 -9270.2421 -7548.8520 298.6877 -541.3806 -395.2166 30883.9728 375.2449 471.3804
ENERGY: 600000 1.7804 6.4187 3.3965 0.0000 -10714.2829 1472.7859 0.0000 0.0000 1806.0137 -7423.8877 305.0268 -9229.9014 -7502.1792 301.7715 178.5437 235.8512 30889.9609 301.3395 388.0842
ENERGY: 900000 0.6295 7.7385 3.4434 0.0000 -10848.8699 1504.0497 0.0000 0.0000 1780.8648 -7552.1440 300.7793 -9333.0087 -7518.9013 301.1472 186.5559 238.6473 30828.6238 181.6416 267.0300
ENERGY: 1200000 1.5861 8.6288 4.6009 0.0000 -10571.6435 1388.4374 0.0000 0.0000 1758.2083 -7410.1820 296.9527 -9168.3903 -7523.8321 300.4705 -370.3059 -240.6065 31071.3300 158.8007 244.7383
ENERGY: 1500000 0.2095 10.4009 3.5788 0.0000 -10689.9699 1435.2277 0.0000 0.0000 1740.4665 -7500.0864 293.9562 -9240.5529 -7521.8433 299.5931 -139.9696 -107.9757 30982.8528 158.5382 234.5531
TCL: Running FEP window  14: Lambda1 0.34999999999999964 Lambda2 0.29999999999999966 [dLambda -0.04999999999999999]
TCL: Setting parameter firsttimestep to 0
TCL: Setting parameter alchLambda to 0.34999999999999964
Info: NONBONDED TABLE R-SQUARED SPACING: 0.0625
Info: NONBONDED TABLE SIZE: 705 POINTS
TCL: Setting parameter alchLambda2 to 0.29999999999999966
Info: NONBONDED TABLE R-SQUARED SPACING: 0.0625
Info: NONBONDED TABLE SIZE: 705 POINTS
TCL: Running for 1500000 steps
ETITLE: TS BOND ANGLE DIHED IMPRP ELECT VDW BOUNDARY MISC KINETIC TOTAL TEMP POTENTIAL TOTALAVG TEMPAVG PRESSURE GPRESSURE VOLUME PRESSAVG GPRESSAVG
ENERGY: 0 0.2095 10.4009 3.5788 0.0000 -10689.9712 1435.3580 0.0000 0.0000 1739.5916 -7500.8324 293.8085 -9240.4240 -7500.8324 293.8085 -197.1886 -114.2301 30982.8528 -197.1886 -114.2301
ENERGY: 300000 2.0430 10.4919 4.1837 0.0000 -10645.9405 1421.7836 0.0000 0.0000 1759.5373 -7447.9008 297.1772 -9207.4381 -7485.8589 295.5634 -147.9662 -83.1378 30979.0093 -391.4008 -303.8740
ENERGY: 600000 1.1451 13.0333 3.6931 0.0000 -10859.5463 1460.6708 0.0000 0.0000 1798.6402 -7582.3639 303.7815 -9381.0040 -7509.6852 298.7084 -188.2569 -129.7421 30471.4894 -470.2462 -408.4606
ENERGY: 900000 2.9627 15.3583 5.3555 0.0000 -10691.9294 1457.9839 0.0000 0.0000 1748.9909 -7461.2780 295.3960 -9210.2689 -7523.0108 298.7429 376.7468 391.1348 30431.7810 -397.9734 -339.0276
ENERGY: 1200000 2.1828 6.9037 4.9825 0.0000 -10685.5073 1421.1621 0.0000 0.0000 1799.8690 -7450.4073 303.9890 -9250.2763 -7515.0733 299.5393 124.7365 155.8502 30480.9050 -301.7885 -252.4848
ENERGY: 1500000 1.6409 7.4086 3.1674 0.0000 -10783.9091 1482.8600 0.0000 0.0000 1776.7371 -7512.0952 300.0821 -9288.8323 -7504.2823 300.9422 206.6928 259.0250 30596.1980 -211.2493 -165.8060
TCL: Running FEP window  15: Lambda1 0.29999999999999966 Lambda2 0.24999999999999967 [dLambda -0.04999999999999999]
TCL: Setting parameter firsttimestep to 0
TCL: Setting parameter alchLambda to 0.29999999999999966
Info: NONBONDED TABLE R-SQUARED SPACING: 0.0625
Info: NONBONDED TABLE SIZE: 705 POINTS
TCL: Setting parameter alchLambda2 to 0.24999999999999967
Info: NONBONDED TABLE R-SQUARED SPACING: 0.0625
Info: NONBONDED TABLE SIZE: 705 POINTS
TCL: Running for 1500000 steps
ETITLE: TS BOND ANGLE DIHED IMPRP ELECT VDW BOUNDARY MISC KINETIC TOTAL TEMP POTENTIAL TOTALAVG TEMPAVG PRESSURE GPRESSURE VOLUME PRESSAVG GPRESSAVG
ENERGY: 0 1.6409 7.4086 3.1674 0.0000 -10783.9094 1482.6991 0.0000 0.0000 1775.8687 -7513.1247 299.9355 -9288.9934 -7513.1247 299.9355 177.8114 252.9628 30596.1980 177.8114 252.9628
ENERGY: 300000 1.0346 9.8223 4.5948 0.0000 -10751.6583 1464.7292 0.0000 0.0000 1784.6812 -7486.7962 301.4239 -9271.4774 -7510.1899 298.7828 12.2765 69.3418 31006.1334 208.8240 263.8703
ENERGY: 600000 1.5037 16.5840 5.3395 0.0000 -10824.0651 1487.0414 0.0000 0.0000 1784.4472 -7529.1493 301.3843 -9313.5965 -7519.1006 298.5692 454.5957 487.0196 30181.1618 38.3102 104.0306
ENERGY: 900000 1.5379 11.6066 4.0517 0.0000 -10780.2473 1435.6604 0.0000 0.0000 1777.2188 -7550.1719 300.1635 -9327.3908 -7532.6846 298.7169 -77.3270 -37.4636 30246.7141 -58.4232 0.8385
ENERGY: 1200000 4.3121 11.0884 5.3981 0.0000 -10743.9591 1459.9356 0.0000 0.0000 1798.3036 -7464.9213 303.7246 -9263.2249 -7518.1181 299.4660 346.7027 348.9613 29992.4033 -61.8813 -8.8868
ENERGY: 1500000 1.6808 12.6961 4.4172 0.0000 -10734.8660 1417.5208 0.0000 0.0000 1742.5722 -7555.9789 294.3119 -9298.5511 -7521.8612 299.0525 -115.2861 -98.5533 30464.0546 -117.2775 -63.6848
TCL: Running FEP window  16: Lambda1 0.24999999999999967 Lambda2 0.19999999999999968 [dLambda -0.04999999999999999]
TCL: Setting parameter firsttimestep to 0
TCL: Setting parameter alchLambda to 0.24999999999999967
Info: NONBONDED TABLE R-SQUARED SPACING: 0.0625
Info: NONBONDED TABLE SIZE: 705 POINTS
TCL: Setting parameter alchLambda2 to 0.19999999999999968
Info: NONBONDED TABLE R-SQUARED SPACING: 0.0625
Info: NONBONDED TABLE SIZE: 705 POINTS
TCL: Running for 1500000 steps
ETITLE: TS BOND ANGLE DIHED IMPRP ELECT VDW BOUNDARY MISC KINETIC TOTAL TEMP POTENTIAL TOTALAVG TEMPAVG PRESSURE GPRESSURE VOLUME PRESSAVG GPRESSAVG
ENERGY: 0 1.6808 12.6961 4.4172 0.0000 -10734.8657 1417.9837 0.0000 0.0000 1741.6729 -7556.4150 294.1600 -9298.0878 -7556.4150 294.1600 -169.2622 -98.6033 30464.0546 -169.2622 -98.6033
ENERGY: 300000 1.4084 12.3330 3.2001 0.0000 -10803.7215 1496.8709 0.0000 0.0000 1784.7948 -7505.1143 301.4431 -9289.9090 -7521.0772 299.4323 320.9187 405.5532 30667.0018 -15.8952 34.9685
ENERGY: 600000 4.9536 13.9780 5.5108 0.0000 -10767.1615 1471.0071 0.0000 0.0000 1797.6410 -7474.0711 303.6127 -9271.7121 -7528.1689 299.4462 193.3058 223.7293 30496.2176 50.4197 113.4021
ENERGY: 900000 0.4307 8.4865 4.1519 0.0000 -10825.5775 1472.6292 0.0000 0.0000 1790.7006 -7549.1787 302.4405 -9339.8793 -7537.9113 300.4776 83.9961 108.4706 30365.1181 93.0437 149.0108
ENERGY: 1200000 2.6036 12.6375 3.5912 0.0000 -10824.8896 1429.0460 0.0000 0.0000 1808.4558 -7568.5555 305.4393 -9377.0113 -7540.4729 301.2650 -457.3547 -413.5295 30376.6335 -38.4781 16.3855
ENERGY: 1500000 2.2995 12.3120 3.9330 0.0000 -10683.9074 1399.3420 0.0000 0.0000 1717.3123 -7548.7086 290.0456 -9266.0209 -7548.6952 300.1389 -227.1409 -306.3870 30372.5500 -65.1645 -19.7369
TCL: Running FEP window  17: Lambda1 0.19999999999999968 Lambda2 0.1499999999999997 [dLambda -0.04999999999999999]
TCL: Setting parameter firsttimestep to 0
TCL: Setting parameter alchLambda to 0.19999999999999968
Info: NONBONDED TABLE R-SQUARED SPACING: 0.0625
Info: NONBONDED TABLE SIZE: 705 POINTS
TCL: Setting parameter alchLambda2 to 0.1499999999999997
Info: NONBONDED TABLE R-SQUARED SPACING: 0.0625
Info: NONBONDED TABLE SIZE: 705 POINTS
TCL: Running for 1500000 steps
ETITLE: TS BOND ANGLE DIHED IMPRP ELECT VDW BOUNDARY MISC KINETIC TOTAL TEMP POTENTIAL TOTALAVG TEMPAVG PRESSURE GPRESSURE VOLUME PRESSAVG GPRESSAVG
ENERGY: 0 2.2995 12.3120 3.9330 0.0000 -10683.9090 1399.7735 0.0000 0.0000 1716.4129 -7549.1782 289.8937 -9265.5910 -7549.1782 289.8937 -370.1461 -306.7589 30372.5500 -370.1461 -306.7589
ENERGY: 300000 2.0657 9.7874 3.8897 0.0000 -10691.5888 1418.4388 0.0000 0.0000 1831.6987 -7425.7084 309.3649 -9257.4071 -7517.8548 300.5060 -191.1861 -106.0361 30442.6868 -15.9611 53.6941
ENERGY: 600000 4.7214 7.5235 3.9905 0.0000 -10733.6107 1401.1595 0.0000 0.0000 1756.3111 -7559.9046 296.6323 -9316.2158 -7514.2933 300.6947 -403.4758 -389.7880 30287.3200 4.7483 60.5431
ENERGY: 900000 1.6231 10.0276 4.3477 0.0000 -10765.3666 1494.3507 0.0000 0.0000 1736.6618 -7518.3557 293.3136 -9255.0175 -7531.4114 299.1765 147.0563 217.9036 31026.1835 17.9747 71.3350
ENERGY: 1200000 1.1795 8.8412 4.9063 0.0000 -10726.0362 1437.3731 0.0000 0.0000 1788.9614 -7484.7746 302.1468 -9273.7360 -7523.4095 299.5042 43.9546 143.0904 30207.6594 47.1648 101.4865
ENERGY: 1500000 1.2714 14.2154 3.8549 0.0000 -10909.5493 1554.1475 0.0000 0.0000 1757.4456 -7578.6144 296.8239 -9336.0600 -7525.0057 298.8028 715.8660 863.8023 30229.9411 77.6931 138.5946
TCL: Running FEP window  18: Lambda1 0.1499999999999997 Lambda2 0.09999999999999969 [dLambda -0.05 ]
TCL: Setting parameter firsttimestep to 0
TCL: Setting parameter alchLambda to 0.1499999999999997
Info: NONBONDED TABLE R-SQUARED SPACING: 0.0625
Info: NONBONDED TABLE SIZE: 705 POINTS
TCL: Setting parameter alchLambda2 to 0.09999999999999969
Info: NONBONDED TABLE R-SQUARED SPACING: 0.0625
Info: NONBONDED TABLE SIZE: 705 POINTS
TCL: Running for 1500000 steps
ETITLE: TS BOND ANGLE DIHED IMPRP ELECT VDW BOUNDARY MISC KINETIC TOTAL TEMP POTENTIAL TOTALAVG TEMPAVG PRESSURE GPRESSURE VOLUME PRESSAVG GPRESSAVG
ENERGY: 0 1.2715 14.2154 3.8549 0.0000 -10909.5490 1554.1032 0.0000 0.0000 1756.5652 -7579.5388 296.6752 -9336.1040 -7579.5388 296.6752 765.8357 857.8200 30229.9411 765.8357 857.8200
ENERGY: 300000 2.5923 8.9611 3.6131 0.0000 -10757.1448 1491.1305 0.0000 0.0000 1746.7369 -7504.1110 295.0153 -9250.8478 -7532.9481 296.6559 185.8433 197.6347 30674.0357 336.7913 400.6614
ENERGY: 600000 1.7780 12.8377 3.6785 0.0000 -10748.3019 1454.0516 0.0000 0.0000 1766.1118 -7509.8443 298.2876 -9275.9562 -7520.5924 296.4830 106.2521 112.1015 30396.3856 82.8629 149.0026
ENERGY: 900000 1.2708 12.2868 5.5493 0.0000 -10649.9373 1382.1788 0.0000 0.0000 1778.8162 -7469.8355 300.4333 -9248.6517 -7514.6744 297.5788 -514.3039 -462.2693 30601.1524 44.9858 112.3971
ENERGY: 1200000 2.5889 13.7778 4.2772 0.0000 -10877.8536 1519.2282 0.0000 0.0000 1758.5698 -7579.4116 297.0138 -9337.9815 -7523.3205 297.2608 316.4345 355.2946 30422.8161 94.9292 157.0599
ENERGY: 1500000 3.8214 11.0029 4.6494 0.0000 -10731.9063 1397.3932 0.0000 0.0000 1766.9687 -7548.0708 298.4323 -9315.0394 -7509.9852 298.6466 -636.9196 -641.8214 30650.8484 65.4578 123.5785
TCL: Running FEP window  19: Lambda1 0.09999999999999969 Lambda2 0.049999999999999684 [dLambda -0.05 ]
TCL: Setting parameter firsttimestep to 0
TCL: Setting parameter alchLambda to 0.09999999999999969
Info: NONBONDED TABLE R-SQUARED SPACING: 0.0625
Info: NONBONDED TABLE SIZE: 705 POINTS
TCL: Setting parameter alchLambda2 to 0.049999999999999684
Info: NONBONDED TABLE R-SQUARED SPACING: 0.0625
Info: NONBONDED TABLE SIZE: 705 POINTS
TCL: Running for 1500000 steps
ETITLE: TS BOND ANGLE DIHED IMPRP ELECT VDW BOUNDARY MISC KINETIC TOTAL TEMP POTENTIAL TOTALAVG TEMPAVG PRESSURE GPRESSURE VOLUME PRESSAVG GPRESSAVG
ENERGY: 0 3.8214 11.0029 4.6494 0.0000 -10731.9074 1396.3401 0.0000 0.0000 1766.0727 -7550.0210 298.2810 -9316.0937 -7550.0210 298.2810 -720.3516 -648.7690 30650.8484 -720.3516 -648.7690
ENERGY: 300000 1.7786 9.9086 3.3896 0.0000 -10638.9901 1301.5664 0.0000 0.0000 1746.9946 -7575.3523 295.0588 -9322.3469 -7541.9099 295.6158 -1442.8745 -1402.9770 30820.4779 -411.1149 -361.3639
ENERGY: 600000 3.6328 11.4564 5.1259 0.0000 -10677.2796 1382.8173 0.0000 0.0000 1798.9408 -7475.3064 303.8323 -9274.2472 -7514.3511 300.1333 -708.2022 -578.2842 30696.2609 -383.1609 -320.7777
ENERGY: 900000 2.1016 12.0574 3.4196 0.0000 -10769.2840 1454.4521 0.0000 0.0000 1805.3811 -7491.8722 304.9200 -9297.2533 -7515.9691 300.2617 80.1079 185.2759 30241.9516 -287.8522 -217.7300
ENERGY: 1200000 0.5698 8.1953 2.9040 0.0000 -10847.8742 1486.6925 0.0000 0.0000 1740.5589 -7608.9537 293.9718 -9349.5126 -7529.4912 300.0405 277.2891 374.4147 29975.8255 -207.7093 -130.9989
ENERGY: 1500000 2.4758 11.1982 2.7401 0.0000 -10824.5724 1447.9786 0.0000 0.0000 1739.1233 -7621.0564 293.7294 -9360.1798 -7530.3566 299.3331 -183.9496 -85.8265 30018.0003 -102.5688 -22.7323
TCL: Running FEP window  20: Lambda1 0.049999999999999684 Lambda2 0.0    [dLambda -0.049999999999999684]
TCL: Setting parameter firsttimestep to 0
TCL: Setting parameter alchLambda to 0.049999999999999684
Info: NONBONDED TABLE R-SQUARED SPACING: 0.0625
Info: NONBONDED TABLE SIZE: 705 POINTS
TCL: Setting parameter alchLambda2 to 0.0
Info: NONBONDED TABLE R-SQUARED SPACING: 0.0625
Info: NONBONDED TABLE SIZE: 705 POINTS
TCL: Running for 1500000 steps
ETITLE: TS BOND ANGLE DIHED IMPRP ELECT VDW BOUNDARY MISC KINETIC TOTAL TEMP POTENTIAL TOTALAVG TEMPAVG PRESSURE GPRESSURE VOLUME PRESSAVG GPRESSAVG
ENERGY: 0 2.4758 11.1982 2.7401 0.0000 -10824.5739 1447.6781 0.0000 0.0000 1738.2638 -7622.2179 293.5842 -9360.4818 -7622.2179 293.5842 -181.1880 -90.6828 30018.0003 -181.1880 -90.6828
ENERGY: 300000 1.9100 9.5693 3.4501 0.0000 -10737.4624 1392.3315 0.0000 0.0000 1803.3987 -7526.8028 304.5852 -9330.2015 -7577.2340 298.7147 -717.2990 -647.6690 30731.5711 -193.4498 -126.2812
ENERGY: 600000 1.8365 9.8414 6.7642 0.0000 -10776.4250 1471.6842 0.0000 0.0000 1761.4755 -7524.8232 297.5046 -9286.2988 -7535.4368 301.2184 283.4451 340.1101 30229.4497 -92.0544 -32.9877
ENERGY: 900000 3.4535 15.1015 3.7468 0.0000 -10764.4804 1417.9600 0.0000 0.0000 1795.3815 -7528.8372 303.2311 -9324.2187 -7542.5701 300.0224 -402.2025 -338.9756 30580.0093 -107.6117 -46.8038
ENERGY: 1200000 2.0763 7.1756 4.1882 0.0000 -10845.0913 1532.5266 0.0000 0.0000 1756.4433 -7542.6813 296.6546 -9299.1246 -7541.1467 299.2884 829.7968 847.7221 30039.9453 -56.1179 -2.5039
ENERGY: 1500000 1.2661 10.8843 3.7697 0.0000 -10804.2391 1518.1452 0.0000 0.0000 1765.8007 -7504.3731 298.2350 -9270.1737 -7545.0347 298.5985 302.7870 377.4823 30929.0126 -84.2005 -26.9028
TCL: Exiting due to exit command.
