Info: SIMULATION PARAMETERS:
Info: TIMESTEP               2
Info: NUMBER OF STEPS        0
Info: STEPS PER CYCLE        10
Info: PERIODIC CELL BASIS 1  31.6684 0 0
Info: PERIODIC CELL BASIS 2  0 30.5171 0
Info: PERIODIC CELL BASIS 3  0 0 30.744
Info: PERIODIC CELL CENTER   0 0 0
Info: WRAPPING WATERS AROUND PERIODIC BOUNDARIES ON OUTPUT.
Info: WRAPPING ALL CLUSTERS AROUND PERIODIC BOUNDARIES ON OUTPUT.
Info: FIRST LDB TIMESTEP     50
Info: LAST LDB TIMESTEP     -1
Info: HOM BACKGROUND SCALING 1
Info: PME BACKGROUND SCALING 1
Info: MIN ATOMS PER PATCH    40
Info: EMPTY PATCH LOAD       40 ATOMS
Info: VELOCITY FILE          mobley_8337977_equil.vel
Info: CENTER OF MASS MOVING INITIALLY? NO
Info: DIELECTRIC             1
Info: EXCLUDE                SCALED ONE-FOUR
Info: 1-4 ELECTROSTATICS SCALED BY 0.833333
Info: MODIFIED 1-4 VDW PARAMETERS WILL BE USED
Info: DCD FILENAME           mobley_8337977_prod.dcd
Info: DCD FREQUENCY          100000
Info: DCD FIRST STEP         100000
Info: DCD FILE WILL CONTAIN UNIT CELL DATA
Info: XST FILENAME           mobley_8337977_prod.xst
Info: XST FREQUENCY          100000
Info: NO VELOCITY DCD OUTPUT
Info: NO FORCE DCD OUTPUT
Info: OUTPUT FILENAME        mobley_8337977_prod
Info: BINARY OUTPUT FILES WILL BE USED
Info: RESTART FILENAME       mobley_8337977_prod.restart
Info: RESTART FREQUENCY      100000
Info: BINARY RESTART FILES WILL BE USED
Info: CUTOFF                 9
Info: PAIRLIST DISTANCE      11
Info: PAIRLIST SHRINK RATE   0.01
Info: PAIRLIST GROW RATE     0.01
Info: PAIRLIST TRIGGER       0.3
Info: PAIRLISTS PER CYCLE    2
Info: PAIRLISTS ENABLED
Info: MARGIN                 2
Info: HYDROGEN GROUP CUTOFF  2.5
Info: PATCH DIMENSION        15.5
Info: ENERGY OUTPUT STEPS    100000
Info: ENERGY EVALUATION STEPS    100000
Info: OUTPUT ENERGY PRECISION 4
Info: CROSSTERM ENERGY INCLUDED IN DIHEDRAL
Info: TIMING OUTPUT STEPS    1000000
Info: PRESSURE OUTPUT STEPS  100000
Info: ALCHEMICAL FEP ON
Info: FEP CURRENT LAMBDA VALUE     0
Info: FEP COMPARISON LAMBDA VALUE  0.05
Info: FEP INTRA-ALCHEMICAL NON-BONDED INTERACTIONS WILL BE RETAINED
Info: FEP INTRA-ALCHEMICAL BONDED INTERACTIONS WILL BE RETAINED
Info: FEP VDW SHIFTING COEFFICIENT 5
Info: FEP ELEC. ACTIVE FOR ANNIHILATED PARTICLES BETWEEN LAMBDA = 0 AND LAMBDA = 0.5
Info: FEP ELEC. ACTIVE FOR EXNIHILATED PARTICLES BETWEEN LAMBDA = 0.5 AND LAMBDA = 1
Info: FEP VDW ACTIVE FOR ANNIHILATED PARTICLES BETWEEN LAMBDA = 0 AND LAMBDA = 1
Info: FEP VDW ACTIVE FOR EXNIHILATED PARTICLES BETWEEN LAMBDA = 0 AND LAMBDA = 1
Info: FEP BOND ACTIVE FOR ANNIHILATED PARTICLES BETWEEN LAMBDA = 1 AND LAMBDA = 1
Info: FEP BOND ACTIVE FOR EXNIHILATED PARTICLES BETWEEN LAMBDA = 0 AND LAMBDA = 0
Info: LANGEVIN DYNAMICS ACTIVE
Info: LANGEVIN TEMPERATURE   300
Info: LANGEVIN USING BBK INTEGRATOR
Info: LANGEVIN DAMPING COEFFICIENT IS 1 INVERSE PS
Info: LANGEVIN DYNAMICS APPLIED TO HYDROGENS
Info: LANGEVIN PISTON PRESSURE CONTROL ACTIVE
Info:        TARGET PRESSURE IS 1.01325 BAR
Info:     OSCILLATION PERIOD IS 50 FS
Info:             DECAY TIME IS 25 FS
Info:     PISTON TEMPERATURE IS 300 K
Info:       PRESSURE CONTROL IS GROUP-BASED
Info:    INITIAL STRAIN RATE IS -0.00045538 -0.00045538 -0.00045538
Info:       CELL FLUCTUATION IS ISOTROPIC
Info: PARTICLE MESH EWALD (PME) ACTIVE
Info: PME TOLERANCE               1e-06
Info: PME EWALD COEFFICIENT       0.348832
Info: PME INTERPOLATION ORDER     4
Info: PME GRID DIMENSIONS         32 32 32
Info: PME MAXIMUM GRID SPACING    1
Info: PME CALCULATION WILL BE PERFORMED ON GPU
Info: FULL ELECTROSTATIC EVALUATION FREQUENCY      2
Info: USING VERLET I (r-RESPA) MTS SCHEME.
Info: C1 SPLITTING OF LONG RANGE ELECTROSTATICS
Info: PLACING ATOMS IN PATCHES BY HYDROGEN GROUPS
Info: RIGID BONDS TO HYDROGEN : ALL
Info:         ERROR TOLERANCE : 1e-08
Info:          MAX ITERATIONS : 100
Info: RIGID WATER USING SETTLE ALGORITHM
Info: RANDOM NUMBER SEED     1743857964
Info: USE HYDROGEN BONDS?    NO
Info: Using AMBER format force field!
Info: AMBER PARM FILE        mobley_8337977.prmtop
Info: COORDINATE PDB         mobley_8337977.pdb
Info: Exclusions will be read from PARM file!
Info: SCNB (VDW SCALING)     2
Info: USING ARITHMETIC MEAN TO COMBINE L-J SIGMA PARAMETERS
Info: BINARY COORDINATES     mobley_8337977_equil.coor
Info: SUMMARY OF PARAMETERS:
Info: 6 BONDS
Info: 7 ANGLES
Info:   7 HARMONIC
Info:   0 COSINE-BASED
Info: 8 DIHEDRAL
Info: 0 IMPROPER
Info: 0 CROSSTERM
Info: 0 VDW
Info: 21 VDW_PAIRS
Info: 0 NBTHOLE_PAIRS
Info: To read alchdata from file: mobley_8337977.pdb
Info: To read alchflag data from column: 5
Info: STRUCTURE SUMMARY:
Info: 2905 ATOMS
Info: 2904 BONDS
Info: 33 ANGLES
Info: 50 DIHEDRALS
Info: 0 IMPROPERS
Info: 0 CROSSTERMS
Info: 2976 EXCLUSIONS
Info: 2898 RIGID BONDS
Info: ALCH: 0 ATOMS TO DISAPPEAR IN FINAL STATE
Info: ALCH: 19 ATOMS TO APPEAR IN FINAL STATE
Info: 5817 DEGREES OF FREEDOM
Info: 969 HYDROGEN GROUPS
Info: 4 ATOMS IN LARGEST HYDROGEN GROUP
Info: 969 MIGRATION GROUPS
Info: 4 ATOMS IN LARGEST MIGRATION GROUP
Info: TOTAL MASS = 17431.5 amu
Info: TOTAL CHARGE = 7.07805e-08 e
Info: MASS DENSITY = 0.974241 g/cm^3
Info: ATOM DENSITY = 0.0977726 atoms/A^3
Info: ADDED 0 IMPLICIT EXCLUSIONS
Info: NONBONDED TABLE R-SQUARED SPACING: 0.0625
Info: NONBONDED TABLE SIZE: 705 POINTS
Info: REMOVING COM VELOCITY 0.0216777 -0.0825961 0.14021
Info: Use 3D box decompostion in PME FFT.
Info: Updated CUDA force table with 4096 elements.
Info: Updated CUDA LJ table with 6 x 6 elements.
Info: Found 22 unique exclusion lists needing 56 bytes
TCL: Running for 1500000 steps
ETITLE: TS BOND ANGLE DIHED IMPRP ELECT VDW BOUNDARY MISC KINETIC TOTAL TEMP POTENTIAL TOTALAVG TEMPAVG PRESSURE GPRESSURE VOLUME PRESSAVG GPRESSAVG
ENERGY: 0 2.5193 7.1292 7.8274 0.0000 -10610.9853 1481.7105 0.0000 0.0000 1749.4139 -7362.3848 302.6801 -9111.7988 -7362.3848 302.6801 343.7684 422.8738 29711.7957 343.7684 422.8738
ENERGY: 300000 3.0008 12.2071 4.8776 0.0000 -10482.9366 1317.4307 0.0000 0.0000 1728.2352 -7417.1852 299.0158 -9145.4204 -7345.9635 302.9771 -1047.7416 -973.6773 29669.3830 -185.7480 -132.2065
ENERGY: 600000 0.6743 7.7425 4.2046 0.0000 -10486.9825 1332.2249 0.0000 0.0000 1730.4814 -7411.6548 299.4045 -9142.1362 -7360.9517 301.0646 -869.9120 -841.3771 30074.8381 -447.1777 -396.3460
ENERGY: 900000 2.8566 11.9460 6.4430 0.0000 -10505.7123 1385.6724 0.0000 0.0000 1741.0589 -7357.7354 301.2346 -9098.7944 -7365.5909 299.4177 -222.2356 -152.1092 29711.8913 -282.1582 -226.6327
ENERGY: 1200000 2.0406 6.6916 5.2799 0.0000 -10566.5366 1421.3436 0.0000 0.0000 1759.3996 -7371.7813 304.4078 -9131.1809 -7368.5413 300.6399 -94.8766 -24.9636 29589.7120 -209.5602 -155.3139
ENERGY: 1500000 2.5266 5.7757 4.8630 0.0000 -10582.6941 1413.4727 0.0000 0.0000 1722.8408 -7433.2153 298.0825 -9156.0561 -7367.6916 300.5783 -267.6345 -199.2881 29635.2249 -202.3577 -148.5373
TCL: Running FEP window   2: Lambda1 0.05   Lambda2 0.1    [dLambda 0.05  ]
TCL: Setting parameter firsttimestep to 0
TCL: Setting parameter alchLambda to 0.05
Info: NONBONDED TABLE R-SQUARED SPACING: 0.0625
Info: NONBONDED TABLE SIZE: 705 POINTS
TCL: Setting parameter alchLambda2 to 0.1
Info: NONBONDED TABLE R-SQUARED SPACING: 0.0625
Info: NONBONDED TABLE SIZE: 705 POINTS
TCL: Running for 1500000 steps
ETITLE: TS BOND ANGLE DIHED IMPRP ELECT VDW BOUNDARY MISC KINETIC TOTAL TEMP POTENTIAL TOTALAVG TEMPAVG PRESSURE GPRESSURE VOLUME PRESSAVG GPRESSAVG
ENERGY: 0 2.5266 5.7757 4.8630 0.0000 -10582.6931 1414.6322 0.0000 0.0000 1721.9705 -7432.9252 297.9319 -9154.8957 -7432.9252 297.9319 -252.4055 -193.4639 29635.2249 -252.4055 -193.4639
ENERGY: 300000 2.3724 11.1155 4.0280 0.0000 -10499.5995 1355.8137 0.0000 0.0000 1726.4316 -7399.8384 298.7038 -9126.2700 -7413.3147 298.8663 -470.7451 -364.6588 29390.6428 -297.8501 -229.9519
ENERGY: 600000 0.2712 13.1515 5.2223 0.0000 -10492.6642 1476.5781 0.0000 0.0000 1711.1261 -7286.3150 296.0556 -8997.4412 -7379.4718 298.1554 347.8248 456.3558 30098.0565 -316.3524 -237.3074
ENERGY: 900000 1.5646 7.1352 5.4633 0.0000 -10573.4305 1394.1760 0.0000 0.0000 1754.8864 -7410.2050 303.6270 -9165.0914 -7363.3793 300.2443 -488.5006 -496.9087 29815.9027 -255.5663 -192.9868
ENERGY: 1200000 2.8058 4.1714 4.0940 0.0000 -10568.3846 1409.1322 0.0000 0.0000 1743.1895 -7404.9917 301.6032 -9148.1812 -7371.8503 300.0835 -216.6406 -148.1075 29721.3177 -281.2163 -224.3979
ENERGY: 1500000 1.2760 12.8919 5.3843 0.0000 -10479.9883 1406.1552 0.0000 0.0000 1731.4929 -7322.7880 299.5795 -9054.2810 -7369.3319 299.5704 -216.2076 -109.7031 30072.5912 -229.6881 -167.3156
TCL: Running FEP window   3: Lambda1 0.1    Lambda2 0.15000000000000002 [dLambda 0.05000000000000002]
TCL: Setting parameter firsttimestep to 0
TCL: Setting parameter alchLambda to 0.1
Info: NONBONDED TABLE R-SQUARED SPACING: 0.0625
Info: NONBONDED TABLE SIZE: 705 POINTS
TCL: Setting parameter alchLambda2 to 0.15000000000000002
Info: NONBONDED TABLE R-SQUARED SPACING: 0.0625
Info: NONBONDED TABLE SIZE: 705 POINTS
TCL: Running for 1500000 steps
ETITLE: TS BOND ANGLE DIHED IMPRP ELECT VDW BOUNDARY MISC KINETIC TOTAL TEMP POTENTIAL TOTALAVG TEMPAVG PRESSURE GPRESSURE VOLUME PRESSAVG GPRESSAVG
ENERGY: 0 1.2760 12.8919 5.3843 0.0000 -10479.9889 1406.6962 0.0000 0.0000 1730.6624 -7323.0781 299.4358 -9053.7405 -7323.0781 299.4358 -184.9470 -104.2241 30072.5912 -184.9470 -104.2241
ENERGY: 300000 0.5619 11.0095 5.6927 0.0000 -10470.4935 1402.0380 0.0000 0.0000 1746.8021 -7304.3893 302.2282 -9051.1913 -7329.7346 303.6082 -192.4841 -140.0262 30113.1344 -284.7997 -215.3602
ENERGY: 600000 3.2149 8.7789 4.6887 0.0000 -10593.7195 1500.9122 0.0000 0.0000 1703.4983 -7372.6265 294.7359 -9076.1247 -7345.8579 301.0172 952.4155 1057.5737 29196.2335 -123.1807 -49.6813
ENERGY: 900000 0.4446 6.4814 5.0783 0.0000 -10513.6324 1346.1789 0.0000 0.0000 1748.3591 -7407.0900 302.4976 -9155.4491 -7356.6378 301.0572 -732.4535 -709.6529 29662.3217 -183.3413 -125.6355
ENERGY: 1200000 2.9524 7.6071 4.3615 0.0000 -10452.9548 1381.4089 0.0000 0.0000 1720.6249 -7335.9999 297.6991 -9056.6248 -7357.2931 300.7600 -331.0321 -289.7814 29823.3809 -216.4520 -157.7370
ENERGY: 1500000 1.2424 6.3764 4.9039 0.0000 -10549.4002 1417.1978 0.0000 0.0000 1746.8010 -7372.8787 302.2280 -9119.6797 -7359.8299 300.0677 -160.6797 -111.4497 30016.9810 -207.4365 -152.3610
TCL: Running FEP window   4: Lambda1 0.15000000000000002 Lambda2 0.2    [dLambda 0.04999999999999999]
TCL: Setting parameter firsttimestep to 0
TCL: Setting parameter alchLambda to 0.15000000000000002
Info: NONBONDED TABLE R-SQUARED SPACING: 0.0625
Info: NONBONDED TABLE SIZE: 705 POINTS
TCL: Setting parameter alchLambda2 to 0.2
Info: NONBONDED TABLE R-SQUARED SPACING: 0.0625
Info: NONBONDED TABLE SIZE: 705 POINTS
TCL: Running for 1500000 steps
ETITLE: TS BOND ANGLE DIHED IMPRP ELECT VDW BOUNDARY MISC KINETIC TOTAL TEMP POTENTIAL TOTALAVG TEMPAVG PRESSURE GPRESSURE VOLUME PRESSAVG GPRESSAVG
ENERGY: 0 1.2424 6.3764 4.9039 0.0000 -10549.4016 1418.1570 0.0000 0.0000 1745.9390 -7372.7829 302.0789 -9118.7219 -7372.7829 302.0789 -180.7614 -107.2878 30016.9810 -180.7614 -107.2878
ENERGY: 300000 2.8220 6.5806 6.0744 0.0000 -10662.8167 1496.0615 0.0000 0.0000 1802.4608 -7348.8174 311.8582 -9151.2782 -7359.9651 301.6835 402.4653 475.9565 29675.2946 24.0067 104.0926
ENERGY: 600000 2.9528 7.4118 6.4308 0.0000 -10611.2482 1482.5570 0.0000 0.0000 1712.1004 -7399.7955 296.2242 -9111.8959 -7368.4898 299.9662 323.6767 407.2814 29804.3810 161.1280 225.8456
ENERGY: 900000 1.1283 10.3829 6.5876 0.0000 -10745.1576 1619.1317 0.0000 0.0000 1724.5959 -7383.3311 298.3862 -9107.9270 -7360.5460 300.9916 1834.5731 1859.2030 29366.5160 315.0553 372.7518
ENERGY: 1200000 1.8518 11.6014 5.3424 0.0000 -10609.8916 1454.5296 0.0000 0.0000 1702.3926 -7434.1738 294.5446 -9136.5664 -7360.2085 301.6092 163.0430 220.2148 29671.3921 219.8882 284.3883
ENERGY: 1500000 3.8780 9.5846 4.7726 0.0000 -10668.0065 1508.8008 0.0000 0.0000 1717.4907 -7423.4799 297.1568 -9140.9705 -7362.2405 301.1340 773.9438 756.9500 29590.7777 306.1844 368.6753
TCL: Running FEP window   5: Lambda1 0.2    Lambda2 0.25   [dLambda 0.04999999999999999]
TCL: Setting parameter firsttimestep to 0
TCL: Setting parameter alchLambda to 0.2
Info: NONBONDED TABLE R-SQUARED SPACING: 0.0625
Info: NONBONDED TABLE SIZE: 705 POINTS
TCL: Setting parameter alchLambda2 to 0.25
Info: NONBONDED TABLE R-SQUARED SPACING: 0.0625
Info: NONBONDED TABLE SIZE: 705 POINTS
TCL: Running for 1500000 steps
ETITLE: TS BOND ANGLE DIHED IMPRP ELECT VDW BOUNDARY MISC KINETIC TOTAL TEMP POTENTIAL TOTALAVG TEMPAVG PRESSURE GPRESSURE VOLUME PRESSAVG GPRESSAVG
ENERGY: 0 3.8780 9.5846 4.7726 0.0000 -10668.0056 1509.9168 0.0000 0.0000 1716.6157 -7423.2380 297.0054 -9139.8536 -7423.2380 297.0054 679.9905 762.5365 29590.7777 679.9905 762.5365
ENERGY: 300000 0.8372 9.2155 4.8507 0.0000 -10570.3272 1483.0322 0.0000 0.0000 1798.4988 -7273.8929 311.1727 -9072.3917 -7327.4889 302.4580 682.0246 736.8236 29813.3100 276.3549 351.9589
ENERGY: 600000 3.0037 11.5078 5.1139 0.0000 -10648.6578 1484.6955 0.0000 0.0000 1744.4287 -7399.9082 301.8176 -9144.3369 -7343.1322 299.5407 749.0759 820.5747 29055.2832 247.7460 312.1693
ENERGY: 900000 1.7537 12.6863 4.9713 0.0000 -10497.4163 1371.8996 0.0000 0.0000 1731.2187 -7374.8867 299.5320 -9106.1053 -7352.0772 299.1197 -442.7137 -405.4509 30046.2700 22.6327 84.1725
ENERGY: 1200000 0.9664 8.3174 4.0435 0.0000 -10513.7636 1393.9731 0.0000 0.0000 1716.2165 -7390.2467 296.9364 -9106.4632 -7363.3603 298.7433 -289.3905 -254.3131 29817.5610 -70.0775 -7.4169
ENERGY: 1500000 3.7042 10.7947 5.0934 0.0000 -10537.0611 1392.4822 0.0000 0.0000 1731.2294 -7393.7573 299.5339 -9124.9866 -7358.1580 299.9792 -477.3594 -458.4276 29868.6775 54.0389 112.0035
TCL: Running FEP window   6: Lambda1 0.25   Lambda2 0.3    [dLambda 0.04999999999999999]
TCL: Setting parameter firsttimestep to 0
TCL: Setting parameter alchLambda to 0.25
Info: NONBONDED TABLE R-SQUARED SPACING: 0.0625
Info: NONBONDED TABLE SIZE: 705 POINTS
TCL: Setting parameter alchLambda2 to 0.3
Info: NONBONDED TABLE R-SQUARED SPACING: 0.0625
Info: NONBONDED TABLE SIZE: 705 POINTS
TCL: Running for 1500000 steps
ETITLE: TS BOND ANGLE DIHED IMPRP ELECT VDW BOUNDARY MISC KINETIC TOTAL TEMP POTENTIAL TOTALAVG TEMPAVG PRESSURE GPRESSURE VOLUME PRESSAVG GPRESSAVG
ENERGY: 0 3.7042 10.7947 5.0934 0.0000 -10537.0627 1392.5540 0.0000 0.0000 1730.3464 -7394.5701 299.3811 -9124.9165 -7394.5701 299.3811 -532.4325 -456.9739 29868.6775 -532.4325 -456.9739
ENERGY: 300000 1.6548 9.0038 3.8629 0.0000 -10615.7855 1463.5280 0.0000 0.0000 1709.1040 -7428.6318 295.7058 -9137.7358 -7393.9508 298.8660 390.5206 417.0895 29402.1707 82.9283 128.6315
ENERGY: 600000 1.6166 9.3979 5.2300 0.0000 -10533.7951 1384.6020 0.0000 0.0000 1701.9013 -7431.0474 294.4596 -9132.9486 -7392.5882 298.3664 -345.3260 -354.0870 29859.7577 -3.0899 39.3278
ENERGY: 900000 0.8509 7.9753 4.1088 0.0000 -10702.4451 1509.4516 0.0000 0.0000 1714.9707 -7465.0878 296.7208 -9180.0584 -7398.6816 298.7058 821.0455 897.6099 29215.3216 151.5227 194.9366
ENERGY: 1200000 1.8250 7.6511 5.0998 0.0000 -10559.4687 1439.3517 0.0000 0.0000 1812.7087 -7292.8324 313.6313 -9105.5411 -7379.1930 300.1957 50.6349 146.8705 29842.9394 49.0306 98.9739
ENERGY: 1500000 1.0289 7.1896 4.7713 0.0000 -10535.5150 1462.1388 0.0000 0.0000 1705.4628 -7354.9235 295.0758 -9060.3864 -7381.3632 299.7055 480.6746 484.3488 29703.4159 60.0587 111.3816
TCL: Running FEP window   7: Lambda1 0.3    Lambda2 0.35   [dLambda 0.04999999999999999]
TCL: Setting parameter firsttimestep to 0
TCL: Setting parameter alchLambda to 0.3
Info: NONBONDED TABLE R-SQUARED SPACING: 0.0625
Info: NONBONDED TABLE SIZE: 705 POINTS
TCL: Setting parameter alchLambda2 to 0.35
Info: NONBONDED TABLE R-SQUARED SPACING: 0.0625
Info: NONBONDED TABLE SIZE: 705 POINTS
TCL: Running for 1500000 steps
ETITLE: TS BOND ANGLE DIHED IMPRP ELECT VDW BOUNDARY MISC KINETIC TOTAL TEMP POTENTIAL TOTALAVG TEMPAVG PRESSURE GPRESSURE VOLUME PRESSAVG GPRESSAVG
ENERGY: 0 1.0290 7.1896 4.7713 0.0000 -10535.5126 1463.3375 0.0000 0.0000 1704.6190 -7354.5661 294.9298 -9059.1852 -7354.5661 294.9298 418.7851 495.5995 29703.4159 418.7851 495.5995
ENERGY: 300000 4.5684 5.8512 4.4598 0.0000 -10572.7466 1442.9048 0.0000 0.0000 1734.0864 -7380.8759 300.0282 -9114.9624 -7356.0524 300.2669 -287.4434 -155.7141 30202.6235 -14.4333 65.5847
ENERGY: 600000 2.3527 8.6968 4.9058 0.0000 -10505.4875 1401.6921 0.0000 0.0000 1762.0680 -7325.7721 304.8695 -9087.8401 -7345.6987 300.8211 -136.6029 -93.4280 30067.8081 -169.4844 -108.3207
ENERGY: 900000 2.0996 9.8730 4.5155 0.0000 -10489.1161 1385.3036 0.0000 0.0000 1712.3761 -7374.9484 296.2719 -9087.3244 -7365.7030 299.2344 -381.3220 -384.2147 29969.8205 -85.5886 -27.3751
ENERGY: 1200000 0.8909 7.2323 6.1620 0.0000 -10536.9004 1392.9105 0.0000 0.0000 1794.3488 -7335.3560 310.4547 -9129.7048 -7362.7923 300.0016 -200.1366 -162.7758 29651.2226 41.0804 106.2349
ENERGY: 1500000 2.7700 7.9762 4.4209 0.0000 -10517.2889 1483.2216 0.0000 0.0000 1745.9883 -7272.9119 302.0874 -9018.9002 -7355.4614 300.4541 636.0134 697.1952 30023.7728 139.0887 200.0623
TCL: Running FEP window   8: Lambda1 0.35   Lambda2 0.39999999999999997 [dLambda 0.04999999999999999]
TCL: Setting parameter firsttimestep to 0
TCL: Setting parameter alchLambda to 0.35
Info: NONBONDED TABLE R-SQUARED SPACING: 0.0625
Info: NONBONDED TABLE SIZE: 705 POINTS
TCL: Setting parameter alchLambda2 to 0.39999999999999997
Info: NONBONDED TABLE R-SQUARED SPACING: 0.0625
Info: NONBONDED TABLE SIZE: 705 POINTS
TCL: Running for 1500000 steps
ETITLE: TS BOND ANGLE DIHED IMPRP ELECT VDW BOUNDARY MISC KINETIC TOTAL TEMP POTENTIAL TOTALAVG TEMPAVG PRESSURE GPRESSURE VOLUME PRESSAVG GPRESSAVG
ENERGY: 0 2.7700 7.9762 4.4209 0.0000 -10517.2884 1483.2985 0.0000 0.0000 1745.1412 -7273.6815 301.9409 -9018.8227 -7273.6815 301.9409 619.5281 701.5876 30023.7728 619.5281 701.5876
ENERGY: 300000 2.1673 7.8178 4.7789 0.0000 -10527.2006 1470.5966 0.0000 0.0000 1744.0577 -7297.7822 301.7534 -9041.8400 -7300.8888 302.7506 515.8377 587.7570 29888.7888 -37.2641 18.8693
ENERGY: 600000 1.5042 7.8044 5.3828 0.0000 -10575.3239 1451.8941 0.0000 0.0000 1758.4823 -7350.2561 304.2491 -9108.7383 -7310.0802 301.4852 358.7863 410.1935 29534.6903 13.4324 65.9628
ENERGY: 900000 2.8674 8.4088 3.6435 0.0000 -10453.5608 1390.2809 0.0000 0.0000 1782.1317 -7266.2285 308.3409 -9048.3602 -7303.7900 303.3088 -227.5168 -162.2075 30133.5739 22.2129 74.2817
ENERGY: 1200000 0.6698 9.0646 6.5985 0.0000 -10653.1857 1421.9104 0.0000 0.0000 1760.8277 -7454.1147 304.6549 -9214.9424 -7317.8742 304.1029 -195.7089 -103.1918 29702.3674 27.7353 81.5130
ENERGY: 1500000 1.0124 4.7036 5.1769 0.0000 -10590.3224 1457.7901 0.0000 0.0000 1764.3635 -7357.2757 305.2667 -9121.6393 -7327.9664 303.9212 397.1873 432.0187 29619.0795 77.6720 133.6931
TCL: Running FEP window   9: Lambda1 0.39999999999999997 Lambda2 0.44999999999999996 [dLambda 0.04999999999999999]
TCL: Setting parameter firsttimestep to 0
TCL: Setting parameter alchLambda to 0.39999999999999997
Info: NONBONDED TABLE R-SQUARED SPACING: 0.0625
Info: NONBONDED TABLE SIZE: 705 POINTS
TCL: Setting parameter alchLambda2 to 0.44999999999999996
Info: NONBONDED TABLE R-SQUARED SPACING: 0.0625
Info: NONBONDED TABLE SIZE: 705 POINTS
TCL: Running for 1500000 steps
ETITLE: TS BOND ANGLE DIHED IMPRP ELECT VDW BOUNDARY MISC KINETIC TOTAL TEMP POTENTIAL TOTALAVG TEMPAVG PRESSURE GPRESSURE VOLUME PRESSAVG GPRESSAVG
ENERGY: 0 1.0124 4.7036 5.1769 0.0000 -10590.3216 1458.6445 0.0000 0.0000 1763.4883 -7357.2958 305.1152 -9120.7841 -7357.2958 305.1152 352.6463 446.5961 29619.0795 352.6463 446.5961
ENERGY: 300000 1.2868 7.5291 6.3798 0.0000 -10435.2848 1401.0244 0.0000 0.0000 1709.3596 -7309.7052 295.7500 -9019.0648 -7369.7147 299.4000 -17.3878 72.7721 29914.1496 -184.4128 -128.2933
ENERGY: 600000 1.2564 16.7920 3.8303 0.0000 -10652.1234 1510.4759 0.0000 0.0000 1757.9601 -7361.8088 304.1588 -9119.7689 -7385.8664 298.1563 645.3246 714.8968 29781.1936 -148.7785 -85.1449
ENERGY: 900000 2.0103 6.0128 5.1774 0.0000 -10449.0880 1366.4287 0.0000 0.0000 1723.3999 -7346.0589 298.1792 -9069.4588 -7375.4520 299.6398 -420.2276 -417.0169 30086.4107 -45.7284 19.4601
ENERGY: 1200000 1.6017 6.6077 4.6936 0.0000 -10434.9618 1311.6138 0.0000 0.0000 1759.1877 -7351.2573 304.3712 -9110.4450 -7375.3980 299.9278 -903.7520 -849.0452 29798.4535 -140.7428 -83.0401
ENERGY: 1500000 0.9516 8.6708 5.8939 0.0000 -10608.5414 1439.1046 0.0000 0.0000 1815.8784 -7338.0422 314.1797 -9153.9205 -7373.4807 300.5688 7.0752 110.5424 29622.0886 -93.3130 -33.9719
TCL: Running FEP window  10: Lambda1 0.44999999999999996 Lambda2 0.49999999999999994 [dLambda 0.04999999999999999]
TCL: Setting parameter firsttimestep to 0
TCL: Setting parameter alchLambda to 0.44999999999999996
Info: NONBONDED TABLE R-SQUARED SPACING: 0.0625
Info: NONBONDED TABLE SIZE: 705 POINTS
TCL: Setting parameter alchLambda2 to 0.49999999999999994
Info: NONBONDED TABLE R-SQUARED SPACING: 0.0625
Info: NONBONDED TABLE SIZE: 705 POINTS
TCL: Running for 1500000 steps
ETITLE: TS BOND ANGLE DIHED IMPRP ELECT VDW BOUNDARY MISC KINETIC TOTAL TEMP POTENTIAL TOTALAVG TEMPAVG PRESSURE GPRESSURE VOLUME PRESSAVG GPRESSAVG
ENERGY: 0 0.9516 8.6708 5.8939 0.0000 -10608.5409 1439.2614 0.0000 0.0000 1815.0136 -7338.7496 314.0300 -9153.7632 -7338.7496 314.0300 29.0171 118.7350 29622.0886 29.0171 118.7350
ENERGY: 300000 0.1807 10.5274 4.5353 0.0000 -10629.7103 1521.4555 0.0000 0.0000 1741.8757 -7351.1356 301.3759 -9093.0113 -7335.7491 304.9031 954.7519 1077.2939 29576.1631 87.5457 152.5217
ENERGY: 600000 1.5889 4.9908 4.4463 0.0000 -10542.2050 1436.9593 0.0000 0.0000 1720.6478 -7373.5719 297.7031 -9094.2197 -7343.4510 301.7067 170.5932 214.2090 29988.1112 -63.2952 10.1451
ENERGY: 900000 1.4861 6.0022 5.5694 0.0000 -10489.0055 1395.8030 0.0000 0.0000 1713.8521 -7366.2926 296.5273 -9080.1447 -7345.4195 300.7782 -230.2067 -187.3043 30242.7908 -72.6187 -9.4732
ENERGY: 1200000 3.6590 7.7020 4.6171 0.0000 -10624.5921 1455.5957 0.0000 0.0000 1714.8080 -7438.2103 296.6927 -9153.0183 -7343.7493 300.4694 479.8678 505.1984 29627.1886 -18.4919 43.4900
ENERGY: 1500000 1.3912 10.1089 5.3277 0.0000 -10561.5979 1455.6178 0.0000 0.0000 1677.1470 -7412.0055 290.1766 -9089.1524 -7344.0883 300.8395 428.5611 527.4585 29663.5107 -31.4056 32.1388
TCL: Running FEP window  11: Lambda1 0.49999999999999994 Lambda2 0.5499999999999999 [dLambda 0.04999999999999999]
TCL: Setting parameter firsttimestep to 0
TCL: Setting parameter alchLambda to 0.49999999999999994
Info: NONBONDED TABLE R-SQUARED SPACING: 0.0625
Info: NONBONDED TABLE SIZE: 705 POINTS
TCL: Setting parameter alchLambda2 to 0.5499999999999999
Info: NONBONDED TABLE R-SQUARED SPACING: 0.0625
Info: NONBONDED TABLE SIZE: 705 POINTS
TCL: Running for 1500000 steps
ETITLE: TS BOND ANGLE DIHED IMPRP ELECT VDW BOUNDARY MISC KINETIC TOTAL TEMP POTENTIAL TOTALAVG TEMPAVG PRESSURE GPRESSURE VOLUME PRESSAVG GPRESSAVG
ENERGY: 0 1.3912 10.1089 5.3277 0.0000 -10561.5984 1456.2536 0.0000 0.0000 1676.2438 -7412.2733 290.0204 -9088.5171 -7412.2733 290.0204 447.0273 537.2060 29663.5107 447.0273 537.2060
ENERGY: 300000 6.4522 8.4444 5.2777 0.0000 -10575.6214 1439.3075 0.0000 0.0000 1742.5308 -7373.6087 301.4892 -9116.1395 -7398.4629 296.5323 -142.6265 -47.4346 30222.9860 173.8862 261.2408
ENERGY: 600000 4.0830 6.9069 6.3635 0.0000 -10456.5280 1374.2075 0.0000 0.0000 1791.3783 -7273.5889 309.9407 -9064.9671 -7379.4269 298.7288 -145.9633 -87.5776 29809.9605 255.8818 318.9364
ENERGY: 900000 2.1655 5.8646 5.5680 0.0000 -10391.3342 1343.2480 0.0000 0.0000 1691.2032 -7343.2848 292.6086 -9034.4881 -7361.7695 299.9441 -611.2112 -533.0397 29988.9142 142.4842 207.0174
ENERGY: 1200000 1.9129 6.1841 4.5972 0.0000 -10398.6392 1344.2133 0.0000 0.0000 1776.0790 -7265.6526 307.2937 -9041.7316 -7362.0104 301.1259 -509.7825 -494.7982 30237.7246 116.4232 181.0325
ENERGY: 1500000 1.6234 12.0289 4.6967 0.0000 -10592.7589 1487.1996 0.0000 0.0000 1775.6414 -7311.5689 307.2179 -9087.2103 -7361.0569 300.7221 918.6395 965.8013 29063.4888 172.6094 231.9717
TCL: Running FEP window  12: Lambda1 0.5499999999999999 Lambda2 0.6    [dLambda 0.050000000000000044]
TCL: Setting parameter firsttimestep to 0
TCL: Setting parameter alchLambda to 0.5499999999999999
Info: NONBONDED TABLE R-SQUARED SPACING: 0.0625
Info: NONBONDED TABLE SIZE: 705 POINTS
TCL: Setting parameter alchLambda2 to 0.6
Info: NONBONDED TABLE R-SQUARED SPACING: 0.0625
Info: NONBONDED TABLE SIZE: 705 POINTS
TCL: Running for 1500000 steps
ETITLE: TS BOND ANGLE DIHED IMPRP ELECT VDW BOUNDARY MISC KINETIC TOTAL TEMP POTENTIAL TOTALAVG TEMPAVG PRESSURE GPRESSURE VOLUME PRESSAVG GPRESSAVG
ENERGY: 0 1.6234 12.0289 4.6967 0.0000 -10592.3560 1489.3118 0.0000 0.0000 1774.7792 -7309.9160 307.0688 -9084.6952 -7309.9160 307.0688 905.7257 990.5659 29063.4888 905.7257 990.5659
ENERGY: 300000 1.2417 4.3745 5.1137 0.0000 -10577.4857 1453.7929 0.0000 0.0000 1755.9867 -7356.9762 303.8173 -9112.9629 -7341.6131 299.4238 144.4278 168.7622 30019.8833 199.5995 258.5562
ENERGY: 600000 0.5032 9.7357 5.1700 0.0000 -10606.4016 1447.3049 0.0000 0.0000 1754.9424 -7388.7454 303.6366 -9143.6878 -7352.3159 300.8865 83.7975 148.2879 30168.0423 194.8276 253.5144
ENERGY: 900000 2.6056 14.2676 4.8873 0.0000 -10571.9205 1380.4088 0.0000 0.0000 1713.5241 -7456.2270 296.4705 -9169.7511 -7361.2015 300.3076 -393.0054 -350.7391 29534.0291 11.2712 59.8049
ENERGY: 1200000 1.0739 8.3308 5.4423 0.0000 -10527.3482 1438.2194 0.0000 0.0000 1764.4000 -7309.8818 305.2730 -9074.2817 -7359.3752 300.3821 126.7342 196.3338 30063.1120 3.8678 56.1285
ENERGY: 1500000 1.1095 10.7642 5.1491 0.0000 -10476.0753 1346.5616 0.0000 0.0000 1740.1333 -7372.3576 301.0744 -9112.4908 -7356.3014 299.9064 -741.3560 -699.2510 30429.6002 -86.1162 -37.7178
TCL: Running FEP window  13: Lambda1 0.6    Lambda2 0.65   [dLambda 0.050000000000000044]
TCL: Setting parameter firsttimestep to 0
TCL: Setting parameter alchLambda to 0.6
Info: NONBONDED TABLE R-SQUARED SPACING: 0.0625
Info: NONBONDED TABLE SIZE: 705 POINTS
TCL: Setting parameter alchLambda2 to 0.65
Info: NONBONDED TABLE R-SQUARED SPACING: 0.0625
Info: NONBONDED TABLE SIZE: 705 POINTS
TCL: Running for 1500000 steps
ETITLE: TS BOND ANGLE DIHED IMPRP ELECT VDW BOUNDARY MISC KINETIC TOTAL TEMP POTENTIAL TOTALAVG TEMPAVG PRESSURE GPRESSURE VOLUME PRESSAVG GPRESSAVG
ENERGY: 0 1.1095 10.7642 5.1491 0.0000 -10476.0768 1346.2404 0.0000 0.0000 1739.2624 -7373.5512 300.9237 -9112.8136 -7373.5512 300.9237 -792.4216 -696.3706 30429.6002 -792.4216 -696.3706
ENERGY: 300000 5.6668 9.2596 4.1994 0.0000 -10470.0761 1371.2376 0.0000 0.0000 1734.3478 -7345.3649 300.0734 -9079.7127 -7372.7307 299.6309 -301.3976 -258.3159 29697.3881 -221.5525 -155.5392
ENERGY: 600000 2.5007 12.9889 5.2333 0.0000 -10578.4259 1496.9969 0.0000 0.0000 1702.4839 -7358.2222 294.5604 -9060.7061 -7363.3078 298.3211 477.6972 568.6487 30109.7394 9.8800 85.1517
ENERGY: 900000 2.2030 7.5509 6.1973 0.0000 -10462.1849 1388.8076 0.0000 0.0000 1724.2235 -7333.2025 298.3217 -9057.4260 -7370.6316 297.8766 -285.2185 -207.1417 29972.4518 -61.4409 17.0080
ENERGY: 1200000 1.6168 8.1113 6.2825 0.0000 -10422.4525 1359.6218 0.0000 0.0000 1777.5214 -7269.2987 307.5432 -9046.8200 -7359.1272 299.7797 -206.2126 -89.4018 29862.0146 -211.5362 -135.0446
ENERGY: 1500000 1.1723 7.9055 6.0346 0.0000 -10504.7254 1419.1703 0.0000 0.0000 1756.4821 -7313.9606 303.9030 -9070.4427 -7363.9202 300.1205 -4.5462 83.8229 29874.2877 -139.0763 -67.1716
TCL: Running FEP window  14: Lambda1 0.65   Lambda2 0.7000000000000001 [dLambda 0.050000000000000044]
TCL: Setting parameter firsttimestep to 0
TCL: Setting parameter alchLambda to 0.65
Info: NONBONDED TABLE R-SQUARED SPACING: 0.0625
Info: NONBONDED TABLE SIZE: 705 POINTS
TCL: Setting parameter alchLambda2 to 0.7000000000000001
Info: NONBONDED TABLE R-SQUARED SPACING: 0.0625
Info: NONBONDED TABLE SIZE: 705 POINTS
TCL: Running for 1500000 steps
ETITLE: TS BOND ANGLE DIHED IMPRP ELECT VDW BOUNDARY MISC KINETIC TOTAL TEMP POTENTIAL TOTALAVG TEMPAVG PRESSURE GPRESSURE VOLUME PRESSAVG GPRESSAVG
ENERGY: 0 1.1723 7.9055 6.0346 0.0000 -10504.8291 1418.7772 0.0000 0.0000 1755.6422 -7315.2972 303.7577 -9070.9394 -7315.2972 303.7577 -13.4143 87.3703 29874.2877 -13.4143 87.3703
ENERGY: 300000 1.6867 12.1416 4.6249 0.0000 -10495.2632 1373.6228 0.0000 0.0000 1733.1695 -7370.0176 299.8695 -9103.1871 -7336.3904 300.7536 -358.5849 -267.1814 29908.3668 -349.1239 -290.8939
ENERGY: 600000 1.0155 7.5628 5.1833 0.0000 -10428.3676 1358.9820 0.0000 0.0000 1715.6853 -7339.9387 296.8445 -9055.6240 -7343.1586 299.8444 -399.9959 -362.3746 29723.4548 -229.5523 -172.5033
ENERGY: 900000 0.6829 9.0742 4.8751 0.0000 -10542.4936 1420.7763 0.0000 0.0000 1709.6228 -7397.4623 295.7955 -9107.0851 -7358.6708 299.1699 10.6840 102.3488 29895.5896 -92.5608 -30.3504
ENERGY: 1200000 1.1756 12.0939 5.5253 0.0000 -10753.9787 1569.0724 0.0000 0.0000 1696.2879 -7469.8235 293.4884 -9166.1114 -7370.2633 299.4240 937.6057 1012.3303 29763.0361 62.0885 110.5031
ENERGY: 1500000 1.3454 8.0279 6.5993 0.0000 -10454.6518 1373.6458 0.0000 0.0000 1702.0423 -7362.9910 294.4840 -9065.0333 -7369.2606 298.9577 -229.9297 -118.5432 29823.7954 34.5209 92.0273
TCL: Running FEP window  15: Lambda1 0.7000000000000001 Lambda2 0.7500000000000001 [dLambda 0.050000000000000044]
TCL: Setting parameter firsttimestep to 0
TCL: Setting parameter alchLambda to 0.7000000000000001
Info: NONBONDED TABLE R-SQUARED SPACING: 0.0625
Info: NONBONDED TABLE SIZE: 705 POINTS
TCL: Setting parameter alchLambda2 to 0.7500000000000001
Info: NONBONDED TABLE R-SQUARED SPACING: 0.0625
Info: NONBONDED TABLE SIZE: 705 POINTS
TCL: Running for 1500000 steps
ETITLE: TS BOND ANGLE DIHED IMPRP ELECT VDW BOUNDARY MISC KINETIC TOTAL TEMP POTENTIAL TOTALAVG TEMPAVG PRESSURE GPRESSURE VOLUME PRESSAVG GPRESSAVG
ENERGY: 0 1.3454 8.0279 6.5993 0.0000 -10455.4453 1374.8829 0.0000 0.0000 1701.2079 -7363.3819 294.3396 -9064.5897 -7363.3819 294.3396 -194.2969 -101.8970 29823.7954 -194.2969 -101.8970
ENERGY: 300000 1.3038 11.4800 6.0643 0.0000 -10489.9992 1368.1142 0.0000 0.0000 1731.6597 -7371.3773 299.6083 -9103.0370 -7365.4346 300.6671 -448.6920 -377.4422 29783.7968 -9.4055 66.1972
ENERGY: 600000 2.1848 7.5524 5.1307 0.0000 -10402.7838 1312.7428 0.0000 0.0000 1765.8694 -7309.3037 305.5272 -9075.1731 -7355.3742 301.3879 -1145.0655 -1049.7475 30599.9726 -115.3109 -42.5285
ENERGY: 900000 0.3887 6.9730 5.1261 0.0000 -10461.0336 1348.4570 0.0000 0.0000 1698.1293 -7401.9595 293.8070 -9100.0888 -7362.5544 299.9871 -806.8794 -666.7434 30416.0655 -81.6740 -3.3303
ENERGY: 1200000 2.7456 14.8721 3.6539 0.0000 -10414.8668 1357.9036 0.0000 0.0000 1712.9827 -7322.7089 296.3769 -9035.6916 -7359.3491 299.4191 -502.4518 -383.5838 29969.7064 -146.7137 -70.3110
ENERGY: 1500000 2.3795 10.8514 5.4343 0.0000 -10437.3313 1373.5779 0.0000 0.0000 1736.6618 -7308.4264 300.4738 -9045.0882 -7359.2219 299.1911 -391.2367 -263.7064 29922.5198 -130.9448 -57.7072
TCL: Running FEP window  16: Lambda1 0.7500000000000001 Lambda2 0.8000000000000002 [dLambda 0.050000000000000044]
TCL: Setting parameter firsttimestep to 0
TCL: Setting parameter alchLambda to 0.7500000000000001
Info: NONBONDED TABLE R-SQUARED SPACING: 0.0625
Info: NONBONDED TABLE SIZE: 705 POINTS
TCL: Setting parameter alchLambda2 to 0.8000000000000002
Info: NONBONDED TABLE R-SQUARED SPACING: 0.0625
Info: NONBONDED TABLE SIZE: 705 POINTS
TCL: Running for 1500000 steps
ETITLE: TS BOND ANGLE DIHED IMPRP ELECT VDW BOUNDARY MISC KINETIC TOTAL TEMP POTENTIAL TOTALAVG TEMPAVG PRESSURE GPRESSURE VOLUME PRESSAVG GPRESSAVG
ENERGY: 0 2.3795 10.8514 5.4343 0.0000 -10438.2064 1373.0788 0.0000 0.0000 1735.8078 -7310.6546 300.3260 -9046.4624 -7310.6546 300.3260 -344.9352 -262.7635 29922.5198 -344.9352 -262.7635
ENERGY: 300000 3.0633 8.7985 4.7030 0.0000 -10508.1918 1424.5287 0.0000 0.0000 1706.6412 -7360.4571 295.2797 -9067.0983 -7355.9321 297.1970 283.0915 339.3607 29639.8003 -3.0313 81.0792
ENERGY: 600000 0.9710 6.8358 5.1112 0.0000 -10626.8826 1471.2810 0.0000 0.0000 1687.4068 -7455.2768 291.9518 -9142.6836 -7384.9294 296.4882 531.0810 507.2552 29540.4240 1.3219 63.2152
ENERGY: 900000 3.1264 9.9764 3.7746 0.0000 -10574.8695 1485.6408 0.0000 0.0000 1731.5330 -7340.8182 299.5864 -9072.3512 -7394.7626 295.8250 740.6792 853.2679 29804.7917 -51.9810 12.7639
ENERGY: 1200000 1.6010 9.7537 4.2727 0.0000 -10570.0181 1424.3860 0.0000 0.0000 1671.7136 -7458.2912 289.2366 -9130.0048 -7390.3831 296.0506 182.6905 198.0243 29481.9564 -85.7713 -22.4553
ENERGY: 1500000 1.5872 8.4254 3.7226 0.0000 -10434.8637 1374.5903 0.0000 0.0000 1691.5993 -7354.9389 292.6771 -9046.5382 -7380.6289 297.0551 -286.9379 -177.0570 30066.4914 -175.8245 -106.7295
TCL: Running FEP window  17: Lambda1 0.8000000000000002 Lambda2 0.8500000000000002 [dLambda 0.050000000000000044]
TCL: Setting parameter firsttimestep to 0
TCL: Setting parameter alchLambda to 0.8000000000000002
Info: NONBONDED TABLE R-SQUARED SPACING: 0.0625
Info: NONBONDED TABLE SIZE: 705 POINTS
TCL: Setting parameter alchLambda2 to 0.8500000000000002
Info: NONBONDED TABLE R-SQUARED SPACING: 0.0625
Info: NONBONDED TABLE SIZE: 705 POINTS
TCL: Running for 1500000 steps
ETITLE: TS BOND ANGLE DIHED IMPRP ELECT VDW BOUNDARY MISC KINETIC TOTAL TEMP POTENTIAL TOTALAVG TEMPAVG PRESSURE GPRESSURE VOLUME PRESSAVG GPRESSAVG
ENERGY: 0 1.5872 8.4254 3.7226 0.0000 -10436.0717 1374.3739 0.0000 0.0000 1690.7113 -7357.2512 292.5235 -9047.9626 -7357.2512 292.5235 -257.0375 -172.0542 30066.4914 -257.0375 -172.0542
ENERGY: 300000 1.7111 10.1244 5.6535 0.0000 -10598.6596 1477.2959 0.0000 0.0000 1763.9387 -7339.9361 305.1932 -9103.8748 -7388.5961 297.3780 392.8873 521.7043 30252.2258 5.1769 81.1859
ENERGY: 600000 0.6843 6.5134 6.0246 0.0000 -10429.6644 1320.0155 0.0000 0.0000 1718.8239 -7377.6027 297.3875 -9096.4266 -7379.1657 298.1449 -887.0860 -815.1201 30125.7460 -172.4478 -105.5218
ENERGY: 900000 3.1256 8.8955 5.7986 0.0000 -10421.6842 1373.4825 0.0000 0.0000 1729.8952 -7300.4867 299.3030 -9030.3819 -7361.3157 300.2704 70.5611 117.4280 29888.9780 -223.3684 -155.7091
ENERGY: 1200000 2.4643 10.8960 5.1634 0.0000 -10544.3115 1409.9752 0.0000 0.0000 1772.9251 -7342.8875 306.7480 -9115.8126 -7349.3608 301.0720 -73.9833 44.0716 29754.6239 -204.9650 -136.2052
ENERGY: 1500000 0.7919 7.7267 5.6253 0.0000 -10558.7787 1399.4467 0.0000 0.0000 1713.2424 -7431.9457 296.4218 -9145.1881 -7356.6292 300.4635 -25.2817 34.9533 29449.7892 -201.9850 -130.2725
TCL: Running FEP window  18: Lambda1 0.8500000000000002 Lambda2 0.9000000000000002 [dLambda 0.050000000000000044]
TCL: Setting parameter firsttimestep to 0
TCL: Setting parameter alchLambda to 0.8500000000000002
Info: NONBONDED TABLE R-SQUARED SPACING: 0.0625
Info: NONBONDED TABLE SIZE: 705 POINTS
TCL: Setting parameter alchLambda2 to 0.9000000000000002
Info: NONBONDED TABLE R-SQUARED SPACING: 0.0625
Info: NONBONDED TABLE SIZE: 705 POINTS
TCL: Running for 1500000 steps
ETITLE: TS BOND ANGLE DIHED IMPRP ELECT VDW BOUNDARY MISC KINETIC TOTAL TEMP POTENTIAL TOTALAVG TEMPAVG PRESSURE GPRESSURE VOLUME PRESSAVG GPRESSAVG
ENERGY: 0 0.7919 7.7267 5.6253 0.0000 -10560.0659 1399.2937 0.0000 0.0000 1712.3814 -7434.2469 296.2728 -9146.6283 -7434.2469 296.2728 -43.9369 40.7426 29449.7892 -43.9369 40.7426
ENERGY: 300000 0.3726 6.7213 5.8703 0.0000 -10648.6260 1492.6290 0.0000 0.0000 1761.1020 -7381.9307 304.7024 -9143.0328 -7388.2033 297.1667 891.1281 911.5391 29419.2287 220.2888 293.5273
ENERGY: 600000 1.2507 8.4628 4.8683 0.0000 -10477.3190 1433.1554 0.0000 0.0000 1737.8302 -7291.7516 300.6759 -9029.5818 -7381.3269 299.0160 153.0619 266.7301 30170.3643 4.8564 76.7834
ENERGY: 900000 0.4060 9.1850 6.4354 0.0000 -10517.9853 1371.5187 0.0000 0.0000 1749.0912 -7381.3490 302.6243 -9130.4402 -7384.8012 297.9515 -476.8071 -452.0769 30091.6095 -49.2898 6.2647
ENERGY: 1200000 2.4442 4.8877 4.6844 0.0000 -10410.7222 1350.7662 0.0000 0.0000 1716.8998 -7331.0399 297.0546 -9047.9397 -7361.5002 298.5072 -140.7637 -57.6110 29524.8119 -22.8668 38.0010
ENERGY: 1500000 4.1419 8.6086 5.2309 0.0000 -10501.5466 1403.2474 0.0000 0.0000 1706.8632 -7373.4545 295.3181 -9080.3177 -7357.2183 298.5371 -250.4502 -158.8172 29845.9399 -83.6154 -23.2491
TCL: Running FEP window  19: Lambda1 0.9000000000000002 Lambda2 0.9500000000000003 [dLambda 0.050000000000000044]
TCL: Setting parameter firsttimestep to 0
TCL: Setting parameter alchLambda to 0.9000000000000002
Info: NONBONDED TABLE R-SQUARED SPACING: 0.0625
Info: NONBONDED TABLE SIZE: 705 POINTS
TCL: Setting parameter alchLambda2 to 0.9500000000000003
Info: NONBONDED TABLE R-SQUARED SPACING: 0.0625
Info: NONBONDED TABLE SIZE: 705 POINTS
TCL: Running for 1500000 steps
ETITLE: TS BOND ANGLE DIHED IMPRP ELECT VDW BOUNDARY MISC KINETIC TOTAL TEMP POTENTIAL TOTALAVG TEMPAVG PRESSURE GPRESSURE VOLUME PRESSAVG GPRESSAVG
ENERGY: 0 4.1419 8.6086 5.2309 0.0000 -10501.9264 1403.4444 0.0000 0.0000 1705.9760 -7374.5246 295.1646 -9080.5006 -7374.5246 295.1646 -243.9501 -147.1092 29845.9399 -243.9501 -147.1092
ENERGY: 300000 1.9212 15.1440 4.6970 0.0000 -10481.1794 1402.7765 0.0000 0.0000 1712.6846 -7343.9560 296.3253 -9056.6406 -7350.7026 301.0421 308.3321 346.5408 29823.6048 119.6085 186.4658
ENERGY: 600000 0.9915 11.2430 4.4553 0.0000 -10463.1607 1357.5090 0.0000 0.0000 1825.2253 -7263.7366 315.7968 -9088.9619 -7352.8265 302.6261 -354.4028 -313.3765 29849.5655 14.8443 76.5535
ENERGY: 900000 0.4911 6.6347 3.8886 0.0000 -10550.4848 1479.5806 0.0000 0.0000 1768.3007 -7291.5891 305.9479 -9059.8898 -7330.6404 302.5886 709.2015 775.8283 30073.4100 234.1890 296.6904
ENERGY: 1200000 0.4893 6.4870 5.6539 0.0000 -10442.6765 1360.9263 0.0000 0.0000 1756.3127 -7312.8073 303.8737 -9069.1200 -7335.1485 302.4112 -192.1557 -190.2570 30018.8783 224.1497 285.1870
ENERGY: 1500000 2.8656 7.4022 7.2555 0.0000 -10470.6842 1401.1370 0.0000 0.0000 1750.9987 -7301.0252 302.9543 -9052.0239 -7341.9875 301.9063 -41.7471 3.5311 30106.2503 159.5636 218.9342
TCL: Running FEP window  20: Lambda1 0.9500000000000003 Lambda2 1.0    [dLambda 0.04999999999999971]
TCL: Setting parameter firsttimestep to 0
TCL: Setting parameter alchLambda to 0.9500000000000003
Info: NONBONDED TABLE R-SQUARED SPACING: 0.0625
Info: NONBONDED TABLE SIZE: 705 POINTS
TCL: Setting parameter alchLambda2 to 1.0
Info: NONBONDED TABLE R-SQUARED SPACING: 0.0625
Info: NONBONDED TABLE SIZE: 705 POINTS
TCL: Running for 1500000 steps
ETITLE: TS BOND ANGLE DIHED IMPRP ELECT VDW BOUNDARY MISC KINETIC TOTAL TEMP POTENTIAL TOTALAVG TEMPAVG PRESSURE GPRESSURE VOLUME PRESSAVG GPRESSAVG
ENERGY: 0 2.8656 7.4022 7.2555 0.0000 -10471.8118 1401.7416 0.0000 0.0000 1750.1273 -7302.4195 302.8036 -9052.5468 -7302.4195 302.8036 -77.0025 19.6450 30106.2503 -77.0025 19.6450
ENERGY: 300000 0.5645 6.5923 4.5012 0.0000 -10412.4181 1351.8371 0.0000 0.0000 1753.9057 -7295.0174 303.4573 -9048.9231 -7375.7071 299.0788 -210.9017 -157.9295 29903.1282 -160.7140 -132.1122
ENERGY: 600000 4.1519 12.0743 5.5015 0.0000 -10599.8556 1460.1080 0.0000 0.0000 1784.8378 -7333.1820 308.8091 -9118.0198 -7377.8325 301.1246 386.4143 421.9806 30020.2053 26.7434 63.7785
ENERGY: 900000 1.8170 9.9315 5.9614 0.0000 -10338.8468 1296.6169 0.0000 0.0000 1774.7662 -7249.7539 307.0665 -9024.5201 -7374.4713 299.9942 -746.0896 -647.3025 30242.0373 -91.6854 -47.8321
ENERGY: 1200000 1.2232 6.2954 4.4891 0.0000 -10434.6552 1339.9487 0.0000 0.0000 1739.7911 -7342.9076 301.0152 -9082.6987 -7360.9713 300.4762 -437.4770 -374.9110 29993.2951 -126.5097 -86.0881
ENERGY: 1500000 2.7153 9.1951 5.6676 0.0000 -10531.4641 1450.3613 0.0000 0.0000 1715.1809 -7348.3440 296.7572 -9063.5249 -7361.9632 300.4609 503.1742 554.4231 29745.6744 -95.6146 -49.8028
TCL: Exiting due to exit command.
