Info: SIMULATION PARAMETERS:
Info: TIMESTEP               2
Info: NUMBER OF STEPS        0
Info: STEPS PER CYCLE        10
Info: PERIODIC CELL BASIS 1  31.9323 0 0
Info: PERIODIC CELL BASIS 2  0 29.4001 0
Info: PERIODIC CELL BASIS 3  0 0 32.1145
Info: PERIODIC CELL CENTER   0 0 0
Info: WRAPPING WATERS AROUND PERIODIC BOUNDARIES ON OUTPUT.
Info: WRAPPING ALL CLUSTERS AROUND PERIODIC BOUNDARIES ON OUTPUT.
Info: FIRST LDB TIMESTEP     50
Info: LAST LDB TIMESTEP     -1
Info: HOM BACKGROUND SCALING 1
Info: PME BACKGROUND SCALING 1
Info: MIN ATOMS PER PATCH    40
Info: EMPTY PATCH LOAD       40 ATOMS
Info: VELOCITY FILE          mobley_8883511_equil.vel
Info: CENTER OF MASS MOVING INITIALLY? NO
Info: DIELECTRIC             1
Info: EXCLUDE                SCALED ONE-FOUR
Info: 1-4 ELECTROSTATICS SCALED BY 0.833333
Info: MODIFIED 1-4 VDW PARAMETERS WILL BE USED
Info: DCD FILENAME           mobley_8883511_prod.dcd
Info: DCD FREQUENCY          100000
Info: DCD FIRST STEP         100000
Info: DCD FILE WILL CONTAIN UNIT CELL DATA
Info: XST FILENAME           mobley_8883511_prod.xst
Info: XST FREQUENCY          100000
Info: NO VELOCITY DCD OUTPUT
Info: NO FORCE DCD OUTPUT
Info: OUTPUT FILENAME        mobley_8883511_prod
Info: BINARY OUTPUT FILES WILL BE USED
Info: RESTART FILENAME       mobley_8883511_prod.restart
Info: RESTART FREQUENCY      100000
Info: BINARY RESTART FILES WILL BE USED
Info: CUTOFF                 9
Info: PAIRLIST DISTANCE      11
Info: PAIRLIST SHRINK RATE   0.01
Info: PAIRLIST GROW RATE     0.01
Info: PAIRLIST TRIGGER       0.3
Info: PAIRLISTS PER CYCLE    2
Info: PAIRLISTS ENABLED
Info: MARGIN                 2
Info: HYDROGEN GROUP CUTOFF  2.5
Info: PATCH DIMENSION        15.5
Info: ENERGY OUTPUT STEPS    100000
Info: ENERGY EVALUATION STEPS    100000
Info: OUTPUT ENERGY PRECISION 4
Info: CROSSTERM ENERGY INCLUDED IN DIHEDRAL
Info: TIMING OUTPUT STEPS    1000000
Info: PRESSURE OUTPUT STEPS  100000
Info: ALCHEMICAL FEP ON
Info: FEP CURRENT LAMBDA VALUE     1
Info: FEP COMPARISON LAMBDA VALUE  0.95
Info: FEP INTRA-ALCHEMICAL NON-BONDED INTERACTIONS WILL BE RETAINED
Info: FEP INTRA-ALCHEMICAL BONDED INTERACTIONS WILL BE RETAINED
Info: FEP VDW SHIFTING COEFFICIENT 5
Info: FEP ELEC. ACTIVE FOR ANNIHILATED PARTICLES BETWEEN LAMBDA = 0 AND LAMBDA = 0.5
Info: FEP ELEC. ACTIVE FOR EXNIHILATED PARTICLES BETWEEN LAMBDA = 0.5 AND LAMBDA = 1
Info: FEP VDW ACTIVE FOR ANNIHILATED PARTICLES BETWEEN LAMBDA = 0 AND LAMBDA = 1
Info: FEP VDW ACTIVE FOR EXNIHILATED PARTICLES BETWEEN LAMBDA = 0 AND LAMBDA = 1
Info: FEP BOND ACTIVE FOR ANNIHILATED PARTICLES BETWEEN LAMBDA = 1 AND LAMBDA = 1
Info: FEP BOND ACTIVE FOR EXNIHILATED PARTICLES BETWEEN LAMBDA = 0 AND LAMBDA = 0
Info: LANGEVIN DYNAMICS ACTIVE
Info: LANGEVIN TEMPERATURE   300
Info: LANGEVIN USING BBK INTEGRATOR
Info: LANGEVIN DAMPING COEFFICIENT IS 1 INVERSE PS
Info: LANGEVIN DYNAMICS APPLIED TO HYDROGENS
Info: LANGEVIN PISTON PRESSURE CONTROL ACTIVE
Info:        TARGET PRESSURE IS 1.01325 BAR
Info:     OSCILLATION PERIOD IS 50 FS
Info:             DECAY TIME IS 25 FS
Info:     PISTON TEMPERATURE IS 300 K
Info:       PRESSURE CONTROL IS GROUP-BASED
Info:    INITIAL STRAIN RATE IS -0.000776557 -0.000776557 -0.000776557
Info:       CELL FLUCTUATION IS ISOTROPIC
Info: PARTICLE MESH EWALD (PME) ACTIVE
Info: PME TOLERANCE               1e-06
Info: PME EWALD COEFFICIENT       0.348832
Info: PME INTERPOLATION ORDER     4
Info: PME GRID DIMENSIONS         32 32 36
Info: PME MAXIMUM GRID SPACING    1
Info: PME CALCULATION WILL BE PERFORMED ON GPU
Info: FULL ELECTROSTATIC EVALUATION FREQUENCY      2
Info: USING VERLET I (r-RESPA) MTS SCHEME.
Info: C1 SPLITTING OF LONG RANGE ELECTROSTATICS
Info: PLACING ATOMS IN PATCHES BY HYDROGEN GROUPS
Info: RIGID BONDS TO HYDROGEN : ALL
Info:         ERROR TOLERANCE : 1e-08
Info:          MAX ITERATIONS : 100
Info: RIGID WATER USING SETTLE ALGORITHM
Info: RANDOM NUMBER SEED     1743775312
Info: USE HYDROGEN BONDS?    NO
Info: Using AMBER format force field!
Info: AMBER PARM FILE        mobley_8883511.prmtop
Info: COORDINATE PDB         mobley_8883511.pdb
Info: Exclusions will be read from PARM file!
Info: SCNB (VDW SCALING)     2
Info: USING ARITHMETIC MEAN TO COMBINE L-J SIGMA PARAMETERS
Info: BINARY COORDINATES     mobley_8883511_equil.coor
Info: SUMMARY OF PARAMETERS:
Info: 9 BONDS
Info: 9 ANGLES
Info:   9 HARMONIC
Info:   0 COSINE-BASED
Info: 5 DIHEDRAL
Info: 0 IMPROPER
Info: 0 CROSSTERM
Info: 0 VDW
Info: 36 VDW_PAIRS
Info: 0 NBTHOLE_PAIRS
Info: To read alchdata from file: mobley_8883511.pdb
Info: To read alchflag data from column: 5
Info: STRUCTURE SUMMARY:
Info: 2966 ATOMS
Info: 2966 BONDS
Info: 27 ANGLES
Info: 41 DIHEDRALS
Info: 0 IMPROPERS
Info: 0 CROSSTERMS
Info: 3024 EXCLUSIONS
Info: 2957 RIGID BONDS
Info: ALCH: 0 ATOMS TO DISAPPEAR IN FINAL STATE
Info: ALCH: 17 ATOMS TO APPEAR IN FINAL STATE
Info: 5941 DEGREES OF FREEDOM
Info: 992 HYDROGEN GROUPS
Info: 4 ATOMS IN LARGEST HYDROGEN GROUP
Info: 992 MIGRATION GROUPS
Info: 4 ATOMS IN LARGEST MIGRATION GROUP
Info: TOTAL MASS = 17829.9 amu
Info: TOTAL CHARGE = 2.74449e-08 e
Info: MASS DENSITY = 0.982035 g/cm^3
Info: ATOM DENSITY = 0.0983763 atoms/A^3
Info: ADDED 0 IMPLICIT EXCLUSIONS
Info: NONBONDED TABLE R-SQUARED SPACING: 0.0625
Info: NONBONDED TABLE SIZE: 705 POINTS
Info: REMOVING COM VELOCITY -0.134822 -0.0415967 -0.0945783
Info: Use 3D box decompostion in PME FFT.
Info: Updated CUDA force table with 4096 elements.
Info: Updated CUDA LJ table with 8 x 8 elements.
Info: Found 16 unique exclusion lists needing 40 bytes
TCL: Running for 1500000 steps
ETITLE: TS BOND ANGLE DIHED IMPRP ELECT VDW BOUNDARY MISC KINETIC TOTAL TEMP POTENTIAL TOTALAVG TEMPAVG PRESSURE GPRESSURE VOLUME PRESSAVG GPRESSAVG
ENERGY: 0 1.9911 6.8511 2.5126 0.0000 -10781.6296 1460.5896 0.0000 0.0000 1761.1452 -7548.5400 298.3500 -9309.6852 -7548.5400 298.3500 318.0929 394.4098 30149.5353 318.0929 394.4098
ENERGY: 300000 2.3216 8.3627 0.3234 0.0000 -10721.8992 1451.2357 0.0000 0.0000 1795.8331 -7463.8227 304.2263 -9259.6558 -7530.9600 298.2747 180.0593 241.5032 30902.7937 392.4315 484.2249
ENERGY: 600000 3.0940 9.4107 6.3445 0.0000 -10653.1840 1406.8272 0.0000 0.0000 1670.5391 -7556.9686 283.0007 -9227.5077 -7524.8076 296.6920 -458.5705 -320.0778 30826.2741 44.8309 144.2926
ENERGY: 900000 0.9630 3.5917 2.3703 0.0000 -10826.9007 1450.7846 0.0000 0.0000 1786.7908 -7582.4003 302.6945 -9369.1911 -7527.8937 296.9845 114.8301 155.8913 30183.6672 52.7157 140.9625
ENERGY: 1200000 1.7422 4.4708 4.9459 0.0000 -10771.0443 1428.0407 0.0000 0.0000 1839.6572 -7492.1875 311.6504 -9331.8447 -7513.7790 299.1551 -196.6684 -131.7496 30580.2773 54.3203 141.0168
ENERGY: 1500000 4.7583 4.2573 2.6424 0.0000 -10708.0737 1419.8858 0.0000 0.0000 1759.5964 -7516.9336 298.0876 -9276.5300 -7514.3044 299.2241 -23.6863 -16.1767 30126.9965 -29.5711 49.7225
TCL: Running FEP window   2: Lambda1 0.95   Lambda2 0.8999999999999999 [dLambda -0.050000000000000044]
TCL: Setting parameter firsttimestep to 0
TCL: Setting parameter alchLambda to 0.95
Info: NONBONDED TABLE R-SQUARED SPACING: 0.0625
Info: NONBONDED TABLE SIZE: 705 POINTS
TCL: Setting parameter alchLambda2 to 0.8999999999999999
Info: NONBONDED TABLE R-SQUARED SPACING: 0.0625
Info: NONBONDED TABLE SIZE: 705 POINTS
TCL: Running for 1500000 steps
ETITLE: TS BOND ANGLE DIHED IMPRP ELECT VDW BOUNDARY MISC KINETIC TOTAL TEMP POTENTIAL TOTALAVG TEMPAVG PRESSURE GPRESSURE VOLUME PRESSAVG GPRESSAVG
ENERGY: 0 4.7583 4.2573 2.6424 0.0000 -10706.8980 1420.0138 0.0000 0.0000 1758.6862 -7516.5401 297.9334 -9275.2263 -7516.5401 297.9334 -111.3164 -23.1813 30126.9965 -111.3164 -23.1813
ENERGY: 300000 4.6435 6.5431 6.0086 0.0000 -10704.7742 1341.8829 0.0000 0.0000 1740.1090 -7605.5871 294.7863 -9345.6960 -7538.8200 299.6971 -723.3541 -643.9606 30160.4159 -64.1380 -19.9691
ENERGY: 600000 1.8977 3.3746 7.8420 0.0000 -10731.5964 1430.8210 0.0000 0.0000 1780.8666 -7506.7944 301.6909 -9287.6610 -7520.4444 298.6958 -128.4231 -51.0781 30253.3468 -135.0295 -92.4609
ENERGY: 900000 1.4126 4.5512 3.8361 0.0000 -10867.0582 1590.1518 0.0000 0.0000 1738.1667 -7528.9398 294.4573 -9267.1065 -7515.0899 298.5836 1304.4812 1351.9164 30557.6258 67.8783 110.4550
ENERGY: 1200000 5.0903 4.8628 3.2504 0.0000 -10686.8076 1382.4224 0.0000 0.0000 1713.0850 -7578.0967 290.2082 -9291.1817 -7507.8698 299.1707 -805.7985 -719.5764 30843.5280 -74.1366 -26.8851
ENERGY: 1500000 2.8621 3.8883 1.6124 0.0000 -10671.7201 1402.9843 0.0000 0.0000 1748.2277 -7512.1452 296.1617 -9260.3729 -7502.1210 299.3292 -204.1677 -74.5748 30421.6549 -118.3519 -67.5560
TCL: Running FEP window   3: Lambda1 0.8999999999999999 Lambda2 0.8499999999999999 [dLambda -0.050000000000000044]
TCL: Setting parameter firsttimestep to 0
TCL: Setting parameter alchLambda to 0.8999999999999999
Info: NONBONDED TABLE R-SQUARED SPACING: 0.0625
Info: NONBONDED TABLE SIZE: 705 POINTS
TCL: Setting parameter alchLambda2 to 0.8499999999999999
Info: NONBONDED TABLE R-SQUARED SPACING: 0.0625
Info: NONBONDED TABLE SIZE: 705 POINTS
TCL: Running for 1500000 steps
ETITLE: TS BOND ANGLE DIHED IMPRP ELECT VDW BOUNDARY MISC KINETIC TOTAL TEMP POTENTIAL TOTALAVG TEMPAVG PRESSURE GPRESSURE VOLUME PRESSAVG GPRESSAVG
ENERGY: 0 2.8621 3.8883 1.6124 0.0000 -10670.1663 1403.1326 0.0000 0.0000 1747.3418 -7511.3291 296.0116 -9258.6709 -7511.3291 296.0116 -161.8869 -83.2756 30421.6549 -161.8869 -83.2756
ENERGY: 300000 2.2530 4.7533 4.4531 0.0000 -10816.1633 1511.8702 0.0000 0.0000 1778.9242 -7513.9095 301.3618 -9292.8336 -7526.0186 300.0547 526.2919 602.9647 30764.8479 228.8151 304.4664
ENERGY: 600000 1.8821 6.1245 3.0947 0.0000 -10675.0318 1405.0046 0.0000 0.0000 1781.8452 -7477.0806 301.8567 -9258.9259 -7524.9476 299.1301 -348.1311 -252.5455 30529.0092 70.0556 134.2396
ENERGY: 900000 6.1438 6.4588 2.9904 0.0000 -10772.0330 1523.9307 0.0000 0.0000 1745.2573 -7487.2519 295.6585 -9232.5092 -7533.3392 298.1708 508.6145 559.5884 30948.6488 97.1105 168.3667
ENERGY: 1200000 7.2357 3.5468 4.6156 0.0000 -10622.1991 1373.4190 0.0000 0.0000 1743.3111 -7490.0710 295.3287 -9233.3821 -7536.8112 297.8384 -618.5143 -535.6739 30801.2877 4.4357 73.3259
ENERGY: 1500000 5.8878 3.8011 8.8493 0.0000 -10700.3113 1427.1419 0.0000 0.0000 1778.6504 -7475.9807 301.3155 -9254.6312 -7528.0038 299.0405 -463.5013 -407.9985 30921.6515 9.3207 79.4053
TCL: Running FEP window   4: Lambda1 0.8499999999999999 Lambda2 0.7999999999999998 [dLambda -0.050000000000000044]
TCL: Setting parameter firsttimestep to 0
TCL: Setting parameter alchLambda to 0.8499999999999999
Info: NONBONDED TABLE R-SQUARED SPACING: 0.0625
Info: NONBONDED TABLE SIZE: 705 POINTS
TCL: Setting parameter alchLambda2 to 0.7999999999999998
Info: NONBONDED TABLE R-SQUARED SPACING: 0.0625
Info: NONBONDED TABLE SIZE: 705 POINTS
TCL: Running for 1500000 steps
ETITLE: TS BOND ANGLE DIHED IMPRP ELECT VDW BOUNDARY MISC KINETIC TOTAL TEMP POTENTIAL TOTALAVG TEMPAVG PRESSURE GPRESSURE VOLUME PRESSAVG GPRESSAVG
ENERGY: 0 5.8879 3.8011 8.8493 0.0000 -10698.9003 1426.2095 0.0000 0.0000 1777.7362 -7476.4163 301.1606 -9254.1525 -7476.4163 301.1606 -513.5097 -427.5807 30921.6515 -513.5097 -427.5807
ENERGY: 300000 2.2195 7.6932 3.4335 0.0000 -10708.3616 1413.6725 0.0000 0.0000 1774.0600 -7507.2829 300.5378 -9281.3429 -7469.9260 300.7240 12.9808 62.1806 30359.6318 -318.9360 -281.2490
ENERGY: 600000 2.1880 3.5681 1.0180 0.0000 -10733.5401 1428.4679 0.0000 0.0000 1819.5814 -7478.7166 308.2495 -9298.2980 -7496.4545 301.9354 -109.2704 -20.3309 30500.8863 -345.5653 -296.1750
ENERGY: 900000 4.2859 7.3879 3.1399 0.0000 -10623.6409 1412.7508 0.0000 0.0000 1761.6561 -7434.4203 298.4365 -9196.0764 -7495.6677 301.7367 42.1852 -14.0462 30569.3210 -231.0891 -186.5033
ENERGY: 1200000 3.4687 4.4862 2.9172 0.0000 -10784.5984 1495.8574 0.0000 0.0000 1741.9080 -7535.9608 295.0911 -9277.8689 -7501.7001 300.4406 388.6364 447.4583 30435.5258 -208.9518 -158.7174
ENERGY: 1500000 0.8531 3.1497 3.6751 0.0000 -10874.1669 1524.6678 0.0000 0.0000 1801.9408 -7539.8803 305.2610 -9341.8211 -7502.0830 300.2442 384.1902 498.9145 30753.9732 -74.0050 -18.0935
TCL: Running FEP window   5: Lambda1 0.7999999999999998 Lambda2 0.7499999999999998 [dLambda -0.050000000000000044]
TCL: Setting parameter firsttimestep to 0
TCL: Setting parameter alchLambda to 0.7999999999999998
Info: NONBONDED TABLE R-SQUARED SPACING: 0.0625
Info: NONBONDED TABLE SIZE: 705 POINTS
TCL: Setting parameter alchLambda2 to 0.7499999999999998
Info: NONBONDED TABLE R-SQUARED SPACING: 0.0625
Info: NONBONDED TABLE SIZE: 705 POINTS
TCL: Running for 1500000 steps
ETITLE: TS BOND ANGLE DIHED IMPRP ELECT VDW BOUNDARY MISC KINETIC TOTAL TEMP POTENTIAL TOTALAVG TEMPAVG PRESSURE GPRESSURE VOLUME PRESSAVG GPRESSAVG
ENERGY: 0 0.8531 3.1497 3.6751 0.0000 -10872.5048 1524.1563 0.0000 0.0000 1801.0819 -7539.5886 305.1155 -9340.6705 -7539.5886 305.1155 406.9757 486.0612 30753.9732 406.9757 486.0612
ENERGY: 300000 4.2701 6.3288 0.6754 0.0000 -10683.6634 1391.7379 0.0000 0.0000 1786.8009 -7493.8503 302.6962 -9280.6512 -7510.8892 302.6328 -635.3119 -584.8382 31099.5314 -42.8295 15.6275
ENERGY: 600000 3.2795 4.9269 5.3787 0.0000 -10710.4700 1454.1339 0.0000 0.0000 1695.6697 -7547.0814 287.2580 -9242.7511 -7508.8170 298.9177 36.3559 119.8683 30727.0825 -76.4918 -14.5255
ENERGY: 900000 6.9076 4.2234 2.7964 0.0000 -10711.6840 1442.1638 0.0000 0.0000 1755.2580 -7500.3348 297.3526 -9255.5928 -7501.4488 298.7348 -158.2238 -167.0252 30739.8252 -68.5831 -19.4121
ENERGY: 1200000 2.4083 6.6782 2.3679 0.0000 -10724.6612 1418.6851 0.0000 0.0000 1801.5799 -7492.9419 305.1999 -9294.5217 -7500.6740 299.6713 -162.5397 -137.8675 30313.4112 -133.0351 -86.7534
ENERGY: 1500000 2.9210 3.3584 5.6316 0.0000 -10667.5851 1344.5243 0.0000 0.0000 1805.8483 -7505.3015 305.9230 -9311.1499 -7497.0760 300.5862 -1083.1866 -1054.8710 31164.9171 -194.1549 -141.4069
TCL: Running FEP window   6: Lambda1 0.7499999999999998 Lambda2 0.6999999999999997 [dLambda -0.050000000000000044]
TCL: Setting parameter firsttimestep to 0
TCL: Setting parameter alchLambda to 0.7499999999999998
Info: NONBONDED TABLE R-SQUARED SPACING: 0.0625
Info: NONBONDED TABLE SIZE: 705 POINTS
TCL: Setting parameter alchLambda2 to 0.6999999999999997
Info: NONBONDED TABLE R-SQUARED SPACING: 0.0625
Info: NONBONDED TABLE SIZE: 705 POINTS
TCL: Running for 1500000 steps
ETITLE: TS BOND ANGLE DIHED IMPRP ELECT VDW BOUNDARY MISC KINETIC TOTAL TEMP POTENTIAL TOTALAVG TEMPAVG PRESSURE GPRESSURE VOLUME PRESSAVG GPRESSAVG
ENERGY: 0 2.9210 3.3584 5.6316 0.0000 -10665.9682 1344.7346 0.0000 0.0000 1804.9544 -7504.3682 305.7715 -9309.3227 -7504.3682 305.7715 -1131.9871 -1058.9173 31164.9171 -1131.9871 -1058.9173
ENERGY: 300000 2.6815 5.7672 4.8389 0.0000 -10566.2283 1353.1131 0.0000 0.0000 1733.6396 -7466.1879 293.6903 -9199.8276 -7486.3216 297.9640 -620.3226 -619.9587 30849.9432 -738.3153 -680.0597
ENERGY: 600000 1.1875 5.4760 0.6441 0.0000 -10774.8098 1436.0230 0.0000 0.0000 1788.5349 -7542.9444 302.9900 -9331.4793 -7507.7236 300.4003 -352.2865 -239.6217 30694.6466 -604.7536 -542.5593
ENERGY: 900000 3.4207 3.1472 5.6761 0.0000 -10692.5664 1451.1631 0.0000 0.0000 1792.5217 -7436.6376 303.6654 -9229.1593 -7506.2170 299.5726 271.0636 338.1816 30599.8116 -417.5414 -345.8134
ENERGY: 1200000 2.3908 7.6535 2.5112 0.0000 -10740.4120 1477.1047 0.0000 0.0000 1764.7386 -7486.0131 298.9587 -9250.7517 -7499.1728 300.1671 546.5146 580.9197 30311.1844 -344.4158 -273.8063
ENERGY: 1500000 2.5563 5.5337 7.2930 0.0000 -10825.2975 1521.4742 0.0000 0.0000 1823.5384 -7464.9019 308.9198 -9288.4403 -7492.9508 301.7045 967.8153 1045.9070 29951.8755 -226.9923 -157.3409
TCL: Running FEP window   7: Lambda1 0.6999999999999997 Lambda2 0.6499999999999997 [dLambda -0.050000000000000044]
TCL: Setting parameter firsttimestep to 0
TCL: Setting parameter alchLambda to 0.6999999999999997
Info: NONBONDED TABLE R-SQUARED SPACING: 0.0625
Info: NONBONDED TABLE SIZE: 705 POINTS
TCL: Setting parameter alchLambda2 to 0.6499999999999997
Info: NONBONDED TABLE R-SQUARED SPACING: 0.0625
Info: NONBONDED TABLE SIZE: 705 POINTS
TCL: Running for 1500000 steps
ETITLE: TS BOND ANGLE DIHED IMPRP ELECT VDW BOUNDARY MISC KINETIC TOTAL TEMP POTENTIAL TOTALAVG TEMPAVG PRESSURE GPRESSURE VOLUME PRESSAVG GPRESSAVG
ENERGY: 0 2.5563 5.5337 7.2930 0.0000 -10824.3049 1521.4454 0.0000 0.0000 1822.6110 -7464.8654 308.7627 -9287.4764 -7464.8654 308.7627 975.1432 1040.0154 29951.8755 975.1432 1040.0154
ENERGY: 300000 1.3202 3.3728 3.9168 0.0000 -10698.7625 1419.3642 0.0000 0.0000 1778.4249 -7492.3636 301.2773 -9270.7885 -7509.4941 300.9607 -258.4702 -242.5858 30936.7502 282.2056 340.7886
ENERGY: 600000 4.0664 2.8950 2.9548 0.0000 -10746.7050 1536.0860 0.0000 0.0000 1786.8371 -7413.8656 302.7023 -9200.7026 -7506.6119 299.1107 738.4346 828.3152 30456.8348 313.9443 388.5802
ENERGY: 900000 6.3358 2.8796 2.5977 0.0000 -10673.0995 1415.4764 0.0000 0.0000 1781.6046 -7464.2054 301.8159 -9245.8100 -7504.3219 298.9489 47.0116 113.4741 30362.9292 220.7186 296.6537
ENERGY: 1200000 7.2010 3.0130 2.4538 0.0000 -10811.8921 1447.6878 0.0000 0.0000 1729.9283 -7621.6082 293.0616 -9351.5365 -7507.3490 299.4949 -15.6939 52.8816 30135.4219 209.8271 280.1506
ENERGY: 1500000 1.3976 4.0943 2.3422 0.0000 -10597.3061 1402.0490 0.0000 0.0000 1752.0874 -7435.3356 296.8155 -9187.4230 -7500.4434 299.1742 -168.3065 -118.3760 30754.8548 122.9342 197.1554
TCL: Running FEP window   8: Lambda1 0.6499999999999997 Lambda2 0.5999999999999996 [dLambda -0.050000000000000044]
TCL: Setting parameter firsttimestep to 0
TCL: Setting parameter alchLambda to 0.6499999999999997
Info: NONBONDED TABLE R-SQUARED SPACING: 0.0625
Info: NONBONDED TABLE SIZE: 705 POINTS
TCL: Setting parameter alchLambda2 to 0.5999999999999996
Info: NONBONDED TABLE R-SQUARED SPACING: 0.0625
Info: NONBONDED TABLE SIZE: 705 POINTS
TCL: Running for 1500000 steps
ETITLE: TS BOND ANGLE DIHED IMPRP ELECT VDW BOUNDARY MISC KINETIC TOTAL TEMP POTENTIAL TOTALAVG TEMPAVG PRESSURE GPRESSURE VOLUME PRESSAVG GPRESSAVG
ENERGY: 0 1.3976 4.0943 2.3422 0.0000 -10596.4960 1402.3178 0.0000 0.0000 1751.2144 -7435.1297 296.6676 -9186.3441 -7435.1297 296.6676 -221.6007 -121.2672 30754.8548 -221.6007 -121.2672
ENERGY: 300000 2.9114 3.5441 3.7826 0.0000 -10613.1581 1354.6495 0.0000 0.0000 1783.9977 -7464.2728 302.2213 -9248.2705 -7456.3042 300.4646 -983.4938 -887.6285 31142.0962 -150.0904 -78.0842
ENERGY: 600000 1.9818 4.6229 3.0336 0.0000 -10596.1819 1368.5944 0.0000 0.0000 1814.0487 -7403.9004 307.3122 -9217.9491 -7455.1329 303.6185 -238.7005 -211.5435 30338.1932 -174.4171 -124.3236
ENERGY: 900000 3.4612 2.5282 4.8170 0.0000 -10816.0693 1514.7536 0.0000 0.0000 1778.7403 -7511.7691 301.3307 -9290.5093 -7482.0725 302.1993 482.9007 538.5340 30618.3605 -38.9918 -0.6309
ENERGY: 1200000 1.8315 4.0617 2.7123 0.0000 -10738.3257 1409.8245 0.0000 0.0000 1725.4861 -7594.4096 292.3091 -9319.8957 -7489.1327 302.1496 -282.5569 -270.6943 30265.4250 -23.5209 6.8154
ENERGY: 1500000 1.6067 8.0510 5.7040 0.0000 -10846.8925 1522.5022 0.0000 0.0000 1850.5020 -7458.5266 313.4876 -9309.0286 -7485.2171 303.1303 536.6137 620.5347 30301.5257 31.8722 65.5393
TCL: Running FEP window   9: Lambda1 0.5999999999999996 Lambda2 0.5499999999999996 [dLambda -0.050000000000000044]
TCL: Setting parameter firsttimestep to 0
TCL: Setting parameter alchLambda to 0.5999999999999996
Info: NONBONDED TABLE R-SQUARED SPACING: 0.0625
Info: NONBONDED TABLE SIZE: 705 POINTS
TCL: Setting parameter alchLambda2 to 0.5499999999999996
Info: NONBONDED TABLE R-SQUARED SPACING: 0.0625
Info: NONBONDED TABLE SIZE: 705 POINTS
TCL: Running for 1500000 steps
ETITLE: TS BOND ANGLE DIHED IMPRP ELECT VDW BOUNDARY MISC KINETIC TOTAL TEMP POTENTIAL TOTALAVG TEMPAVG PRESSURE GPRESSURE VOLUME PRESSAVG GPRESSAVG
ENERGY: 0 1.6067 8.0510 5.7040 0.0000 -10845.8180 1522.6950 0.0000 0.0000 1849.6078 -7458.1535 313.3361 -9307.7613 -7458.1535 313.3361 523.1718 613.9511 30301.5257 523.1718 613.9511
ENERGY: 300000 5.0609 3.7098 0.6141 0.0000 -10661.0674 1406.0775 0.0000 0.0000 1734.4152 -7511.1899 293.8217 -9245.6051 -7494.1387 304.6965 -654.7241 -556.4782 30858.0560 -179.3893 -89.7774
ENERGY: 600000 3.6933 4.9654 5.7181 0.0000 -10840.6359 1497.8928 0.0000 0.0000 1730.3633 -7598.0030 293.1353 -9328.3663 -7515.3007 303.8743 205.2923 222.8928 30403.8642 -245.3345 -178.8289
ENERGY: 900000 1.7220 8.1792 5.3893 0.0000 -10739.1477 1409.5310 0.0000 0.0000 1728.1886 -7586.1376 292.7669 -9314.3262 -7524.2627 301.9760 -460.6199 -373.0784 30327.9894 -182.2142 -121.8576
ENERGY: 1200000 3.3439 8.1125 2.2740 0.0000 -10748.4933 1487.2820 0.0000 0.0000 1713.8482 -7533.6327 290.3375 -9247.4809 -7527.7698 300.0557 133.2439 184.7767 30803.6640 -63.5411 -11.0563
ENERGY: 1500000 4.9956 3.1244 3.3494 0.0000 -10620.6445 1374.2551 0.0000 0.0000 1736.5604 -7498.3596 294.1851 -9234.9200 -7529.7360 298.9718 -516.1199 -409.5693 30728.3575 -182.6191 -129.4412
TCL: Running FEP window  10: Lambda1 0.5499999999999996 Lambda2 0.4999999999999996 [dLambda -0.04999999999999999]
TCL: Setting parameter firsttimestep to 0
TCL: Setting parameter alchLambda to 0.5499999999999996
Info: NONBONDED TABLE R-SQUARED SPACING: 0.0625
Info: NONBONDED TABLE SIZE: 705 POINTS
TCL: Setting parameter alchLambda2 to 0.4999999999999996
Info: NONBONDED TABLE R-SQUARED SPACING: 0.0625
Info: NONBONDED TABLE SIZE: 705 POINTS
TCL: Running for 1500000 steps
ETITLE: TS BOND ANGLE DIHED IMPRP ELECT VDW BOUNDARY MISC KINETIC TOTAL TEMP POTENTIAL TOTALAVG TEMPAVG PRESSURE GPRESSURE VOLUME PRESSAVG GPRESSAVG
ENERGY: 0 4.9956 3.1244 3.3494 0.0000 -10619.2589 1373.9490 0.0000 0.0000 1735.6660 -7498.1745 294.0336 -9233.8406 -7498.1745 294.0336 -501.1941 -417.4579 30728.3575 -501.1941 -417.4579
ENERGY: 300000 7.1980 4.0717 3.8776 0.0000 -10732.8020 1462.8936 0.0000 0.0000 1848.6272 -7406.1338 313.1700 -9254.7610 -7469.2239 303.9709 -253.5233 -108.5999 30946.4566 -76.8423 15.1651
ENERGY: 600000 3.1866 7.9849 6.4397 0.0000 -10631.9291 1419.7770 0.0000 0.0000 1843.1385 -7351.4023 312.2402 -9194.5408 -7470.9689 301.7554 -87.8184 -38.6695 30736.0291 -99.6740 -18.7987
ENERGY: 900000 3.7309 6.0976 2.6690 0.0000 -10656.1625 1439.9723 0.0000 0.0000 1762.7894 -7440.9033 298.6285 -9203.6927 -7478.0388 300.5440 -317.1699 -264.3454 31028.4405 22.0820 99.0546
ENERGY: 1200000 3.1107 4.7098 3.8479 0.0000 -10725.5596 1443.7157 0.0000 0.0000 1729.7965 -7540.3790 293.0393 -9270.1755 -7485.5113 298.9339 115.2789 218.5360 30292.6587 -28.1051 51.6458
ENERGY: 1500000 1.3324 4.4582 2.6951 0.0000 -10716.9250 1487.3773 0.0000 0.0000 1789.8609 -7431.2011 303.2146 -9221.0620 -7487.1049 299.7011 696.5652 731.5845 30374.4614 36.0183 107.8947
TCL: Running FEP window  11: Lambda1 0.4999999999999996 Lambda2 0.4499999999999996 [dLambda -0.04999999999999999]
TCL: Setting parameter firsttimestep to 0
TCL: Setting parameter alchLambda to 0.4999999999999996
Info: NONBONDED TABLE R-SQUARED SPACING: 0.0625
Info: NONBONDED TABLE SIZE: 705 POINTS
TCL: Setting parameter alchLambda2 to 0.4499999999999996
Info: NONBONDED TABLE R-SQUARED SPACING: 0.0625
Info: NONBONDED TABLE SIZE: 705 POINTS
TCL: Running for 1500000 steps
ETITLE: TS BOND ANGLE DIHED IMPRP ELECT VDW BOUNDARY MISC KINETIC TOTAL TEMP POTENTIAL TOTALAVG TEMPAVG PRESSURE GPRESSURE VOLUME PRESSAVG GPRESSAVG
ENERGY: 0 1.3324 4.4582 2.6951 0.0000 -10716.7529 1486.5630 0.0000 0.0000 1788.9543 -7432.7500 303.0610 -9221.7043 -7432.7500 303.0610 642.1998 719.1956 30374.4614 642.1998 719.1956
ENERGY: 300000 3.1580 5.3355 5.8213 0.0000 -10895.7827 1561.9963 0.0000 0.0000 1743.6919 -7575.7797 295.3933 -9319.4716 -7482.4371 302.8505 990.8254 993.8167 30046.9757 681.6361 734.2527
ENERGY: 600000 3.4979 3.7862 6.9008 0.0000 -10569.0053 1352.2838 0.0000 0.0000 1751.6929 -7450.8437 296.7487 -9202.5366 -7497.3100 301.4904 -780.9850 -736.8189 31361.1807 204.5179 251.4092
ENERGY: 900000 1.8616 7.2588 2.8859 0.0000 -10639.6593 1416.8974 0.0000 0.0000 1791.1859 -7419.5697 303.4391 -9210.7556 -7474.6927 304.1403 -30.1467 18.9724 30498.5735 146.0124 199.4443
ENERGY: 1200000 3.2010 3.7311 2.3687 0.0000 -10738.6400 1525.4250 0.0000 0.0000 1827.0429 -7376.8714 309.5135 -9203.9143 -7466.6918 303.9900 966.1563 994.1194 30601.4593 203.2880 256.4279
ENERGY: 1500000 2.7601 6.6177 0.5685 0.0000 -10796.5283 1476.8281 0.0000 0.0000 1726.9624 -7582.7915 292.5592 -9309.7539 -7476.5482 302.5404 -253.9732 -138.7291 30785.9799 99.2204 152.9157
TCL: Running FEP window  12: Lambda1 0.4499999999999996 Lambda2 0.39999999999999963 [dLambda -0.04999999999999999]
TCL: Setting parameter firsttimestep to 0
TCL: Setting parameter alchLambda to 0.4499999999999996
Info: NONBONDED TABLE R-SQUARED SPACING: 0.0625
Info: NONBONDED TABLE SIZE: 705 POINTS
TCL: Setting parameter alchLambda2 to 0.39999999999999963
Info: NONBONDED TABLE R-SQUARED SPACING: 0.0625
Info: NONBONDED TABLE SIZE: 705 POINTS
TCL: Running for 1500000 steps
ETITLE: TS BOND ANGLE DIHED IMPRP ELECT VDW BOUNDARY MISC KINETIC TOTAL TEMP POTENTIAL TOTALAVG TEMPAVG PRESSURE GPRESSURE VOLUME PRESSAVG GPRESSAVG
ENERGY: 0 2.7601 6.6177 0.5685 0.0000 -10796.5291 1477.2463 0.0000 0.0000 1726.1184 -7583.2181 292.4162 -9309.3365 -7583.2181 292.4162 -231.4637 -138.9436 30785.9799 -231.4637 -138.9436
ENERGY: 300000 3.8606 6.8047 6.0324 0.0000 -10850.9766 1571.6468 0.0000 0.0000 1780.6247 -7482.0074 301.6499 -9262.6321 -7513.2820 298.8362 910.9089 941.9293 30377.3095 580.0423 637.4280
ENERGY: 600000 2.6904 4.2785 4.1369 0.0000 -10736.5336 1417.0203 0.0000 0.0000 1746.7920 -7561.6156 295.9184 -9308.4076 -7520.0298 299.8411 -108.3913 -63.3217 30409.2437 368.2355 436.5953
ENERGY: 900000 6.5797 5.0404 4.1504 0.0000 -10827.0037 1534.5605 0.0000 0.0000 1769.0051 -7507.6678 299.6815 -9276.6729 -7523.3664 299.6640 573.7736 606.1089 30415.6161 340.9861 398.3482
ENERGY: 1200000 1.9938 5.0737 3.5987 0.0000 -10747.8000 1475.5225 0.0000 0.0000 1757.0611 -7504.5502 297.6581 -9261.6113 -7511.2451 300.7147 369.6830 421.5725 30082.9933 206.2369 267.8222
ENERGY: 1500000 2.5358 3.1955 3.7681 0.0000 -10523.2343 1289.7886 0.0000 0.0000 1788.7088 -7435.2374 303.0194 -9223.9462 -7499.9101 301.2187 -1379.4213 -1317.5113 31198.2560 52.9749 112.6758
TCL: Running FEP window  13: Lambda1 0.39999999999999963 Lambda2 0.34999999999999964 [dLambda -0.04999999999999999]
TCL: Setting parameter firsttimestep to 0
TCL: Setting parameter alchLambda to 0.39999999999999963
Info: NONBONDED TABLE R-SQUARED SPACING: 0.0625
Info: NONBONDED TABLE SIZE: 705 POINTS
TCL: Setting parameter alchLambda2 to 0.34999999999999964
Info: NONBONDED TABLE R-SQUARED SPACING: 0.0625
Info: NONBONDED TABLE SIZE: 705 POINTS
TCL: Running for 1500000 steps
ETITLE: TS BOND ANGLE DIHED IMPRP ELECT VDW BOUNDARY MISC KINETIC TOTAL TEMP POTENTIAL TOTALAVG TEMPAVG PRESSURE GPRESSURE VOLUME PRESSAVG GPRESSAVG
ENERGY: 0 2.5358 3.1955 3.7681 0.0000 -10523.2356 1290.0583 0.0000 0.0000 1787.8830 -7435.7949 302.8795 -9223.6779 -7435.7949 302.8795 -1399.0873 -1320.6552 31198.2560 -1399.0873 -1320.6552
ENERGY: 300000 1.9769 5.5563 2.1575 0.0000 -10592.4130 1457.4126 0.0000 0.0000 1763.9578 -7361.3518 298.8264 -9125.3096 -7434.9166 296.7672 366.3203 424.8641 30970.9833 -339.1149 -270.3301
ENERGY: 600000 1.9694 6.8104 3.5512 0.0000 -10800.2103 1497.5620 0.0000 0.0000 1781.0243 -7509.2930 301.7176 -9290.3174 -7465.8723 297.6037 383.9791 462.8046 30353.0009 -148.2054 -89.1068
ENERGY: 900000 1.2480 4.6907 3.4399 0.0000 -10784.7989 1437.0904 0.0000 0.0000 1776.4846 -7561.8452 300.9486 -9338.3298 -7482.4833 297.7558 -157.5836 -111.2044 30236.3225 -0.7015 59.0840
ENERGY: 1200000 3.8719 3.2389 3.2702 0.0000 -10890.6046 1526.8758 0.0000 0.0000 1785.5825 -7567.7652 302.4898 -9353.3478 -7493.7504 298.6180 415.9544 487.7151 30114.8074 -38.3141 22.9961
ENERGY: 1500000 3.1323 6.4090 2.8734 0.0000 -10742.6485 1483.2149 0.0000 0.0000 1807.8459 -7439.1731 306.2614 -9247.0190 -7491.0795 298.7672 277.6550 328.4671 30810.9972 -5.2780 56.6453
TCL: Running FEP window  14: Lambda1 0.34999999999999964 Lambda2 0.29999999999999966 [dLambda -0.04999999999999999]
TCL: Setting parameter firsttimestep to 0
TCL: Setting parameter alchLambda to 0.34999999999999964
Info: NONBONDED TABLE R-SQUARED SPACING: 0.0625
Info: NONBONDED TABLE SIZE: 705 POINTS
TCL: Setting parameter alchLambda2 to 0.29999999999999966
Info: NONBONDED TABLE R-SQUARED SPACING: 0.0625
Info: NONBONDED TABLE SIZE: 705 POINTS
TCL: Running for 1500000 steps
ETITLE: TS BOND ANGLE DIHED IMPRP ELECT VDW BOUNDARY MISC KINETIC TOTAL TEMP POTENTIAL TOTALAVG TEMPAVG PRESSURE GPRESSURE VOLUME PRESSAVG GPRESSAVG
ENERGY: 0 3.1323 6.4090 2.8734 0.0000 -10742.6485 1483.3758 0.0000 0.0000 1806.9904 -7439.8677 306.1165 -9246.8581 -7439.8677 306.1165 243.5322 323.6017 30810.9972 243.5322 323.6017
ENERGY: 300000 0.8513 5.1773 1.1019 0.0000 -10587.6710 1396.3313 0.0000 0.0000 1771.4344 -7412.7749 300.0930 -9184.2093 -7471.6169 300.6639 -400.0477 -349.1720 31081.0285 -28.5561 26.4192
ENERGY: 600000 4.6628 2.9995 3.0491 0.0000 -10620.1277 1371.8620 0.0000 0.0000 1757.7878 -7479.7666 297.7812 -9237.5544 -7479.9794 300.4300 -597.8525 -545.1432 30602.2237 -109.6589 -58.6905
ENERGY: 900000 2.8076 5.7188 4.6913 0.0000 -10643.5219 1357.5539 0.0000 0.0000 1783.4981 -7489.2522 302.1367 -9272.7502 -7462.6550 300.7737 -1081.3644 -982.4781 30958.3462 -248.3334 -194.8404
ENERGY: 1200000 3.1217 3.3893 4.5526 0.0000 -10695.9095 1361.7595 0.0000 0.0000 1805.0341 -7518.0522 305.7851 -9323.0864 -7468.1618 301.1628 -936.0224 -868.7613 30739.8977 -277.2475 -221.2557
ENERGY: 1500000 4.1188 8.0276 3.2626 0.0000 -10858.7978 1586.7255 0.0000 0.0000 1814.7974 -7441.8661 307.4390 -9256.6634 -7472.0648 300.7271 1086.2678 1089.2682 30560.1523 -171.8845 -121.3953
TCL: Running FEP window  15: Lambda1 0.29999999999999966 Lambda2 0.24999999999999967 [dLambda -0.04999999999999999]
TCL: Setting parameter firsttimestep to 0
TCL: Setting parameter alchLambda to 0.29999999999999966
Info: NONBONDED TABLE R-SQUARED SPACING: 0.0625
Info: NONBONDED TABLE SIZE: 705 POINTS
TCL: Setting parameter alchLambda2 to 0.24999999999999967
Info: NONBONDED TABLE R-SQUARED SPACING: 0.0625
Info: NONBONDED TABLE SIZE: 705 POINTS
TCL: Running for 1500000 steps
ETITLE: TS BOND ANGLE DIHED IMPRP ELECT VDW BOUNDARY MISC KINETIC TOTAL TEMP POTENTIAL TOTALAVG TEMPAVG PRESSURE GPRESSURE VOLUME PRESSAVG GPRESSAVG
ENERGY: 0 4.1188 8.0276 3.2626 0.0000 -10858.7951 1587.3042 0.0000 0.0000 1813.8969 -7442.1851 307.2865 -9256.0820 -7442.1851 307.2865 1016.2537 1088.9101 30560.1523 1016.2537 1088.9101
ENERGY: 300000 3.9590 7.7399 3.1333 0.0000 -10701.1606 1453.7215 0.0000 0.0000 1809.4730 -7423.1339 306.5370 -9232.6069 -7475.0532 306.5290 -192.7874 -173.7488 31041.2428 103.2863 167.0084
ENERGY: 600000 2.5361 5.8835 3.1962 0.0000 -10886.6159 1537.6443 0.0000 0.0000 1765.0046 -7572.3512 299.0038 -9337.3558 -7489.5452 303.3153 284.3299 299.7130 30718.9057 20.6218 76.7914
ENERGY: 900000 1.7204 5.3076 1.7636 0.0000 -10646.0966 1369.7872 0.0000 0.0000 1739.3063 -7528.2114 294.6503 -9267.5178 -7504.2472 300.7273 -708.1482 -634.1157 30756.4173 -183.1599 -127.1340
ENERGY: 1200000 4.8468 7.8520 3.0374 0.0000 -10768.0240 1496.6561 0.0000 0.0000 1787.7080 -7467.9237 302.8499 -9255.6317 -7504.5965 300.8019 351.3358 439.6591 30381.9551 -139.9295 -87.0366
ENERGY: 1500000 2.1431 6.7466 3.5743 0.0000 -10686.3393 1384.3026 0.0000 0.0000 1776.5414 -7513.0314 300.9582 -9289.5728 -7503.7724 301.0555 -493.8686 -401.8846 30167.4270 -157.4583 -95.0868
TCL: Running FEP window  16: Lambda1 0.24999999999999967 Lambda2 0.19999999999999968 [dLambda -0.04999999999999999]
TCL: Setting parameter firsttimestep to 0
TCL: Setting parameter alchLambda to 0.24999999999999967
Info: NONBONDED TABLE R-SQUARED SPACING: 0.0625
Info: NONBONDED TABLE SIZE: 705 POINTS
TCL: Setting parameter alchLambda2 to 0.19999999999999968
Info: NONBONDED TABLE R-SQUARED SPACING: 0.0625
Info: NONBONDED TABLE SIZE: 705 POINTS
TCL: Running for 1500000 steps
ETITLE: TS BOND ANGLE DIHED IMPRP ELECT VDW BOUNDARY MISC KINETIC TOTAL TEMP POTENTIAL TOTALAVG TEMPAVG PRESSURE GPRESSURE VOLUME PRESSAVG GPRESSAVG
ENERGY: 0 2.1431 6.7466 3.5743 0.0000 -10686.3391 1384.7984 0.0000 0.0000 1775.6970 -7513.3797 300.8151 -9289.0768 -7513.3797 300.8151 -490.6397 -399.9465 30167.4270 -490.6397 -399.9465
ENERGY: 300000 3.3634 4.5901 2.9142 0.0000 -10726.5036 1399.3620 0.0000 0.0000 1761.2724 -7555.0015 298.3715 -9316.2739 -7494.4620 297.5782 -612.7973 -588.2832 30336.5586 -275.1020 -190.9825
ENERGY: 600000 4.2689 2.7342 3.9985 0.0000 -10681.3135 1451.2744 0.0000 0.0000 1807.0429 -7411.9946 306.1253 -9219.0375 -7489.8513 299.1877 133.9263 158.1199 30523.5676 -142.1269 -61.4991
ENERGY: 900000 1.7809 3.1968 1.5031 0.0000 -10791.6628 1455.2743 0.0000 0.0000 1765.1756 -7564.7320 299.0328 -9329.9077 -7504.7115 299.6564 -153.0251 -120.7572 30413.8919 -111.6135 -29.1547
ENERGY: 1200000 2.5095 6.0012 3.6212 0.0000 -10671.7049 1435.1455 0.0000 0.0000 1743.5363 -7480.8912 295.3669 -9224.4275 -7505.4561 299.3863 -88.9326 -68.2115 30750.9528 -180.3235 -103.5777
ENERGY: 1500000 0.7660 3.1753 4.0341 0.0000 -10655.0161 1394.4993 0.0000 0.0000 1747.0265 -7505.5149 295.9582 -9252.5414 -7512.5001 299.0120 -373.5243 -283.7212 30445.2228 -197.2915 -121.8665
TCL: Running FEP window  17: Lambda1 0.19999999999999968 Lambda2 0.1499999999999997 [dLambda -0.04999999999999999]
TCL: Setting parameter firsttimestep to 0
TCL: Setting parameter alchLambda to 0.19999999999999968
Info: NONBONDED TABLE R-SQUARED SPACING: 0.0625
Info: NONBONDED TABLE SIZE: 705 POINTS
TCL: Setting parameter alchLambda2 to 0.1499999999999997
Info: NONBONDED TABLE R-SQUARED SPACING: 0.0625
Info: NONBONDED TABLE SIZE: 705 POINTS
TCL: Running for 1500000 steps
ETITLE: TS BOND ANGLE DIHED IMPRP ELECT VDW BOUNDARY MISC KINETIC TOTAL TEMP POTENTIAL TOTALAVG TEMPAVG PRESSURE GPRESSURE VOLUME PRESSAVG GPRESSAVG
ENERGY: 0 0.7660 3.1753 4.0341 0.0000 -10655.0185 1394.1360 0.0000 0.0000 1746.1222 -7506.7849 295.8050 -9252.9071 -7506.7849 295.8050 -386.6495 -294.9520 30445.2228 -386.6495 -294.9520
ENERGY: 300000 5.7443 5.7603 3.1541 0.0000 -10771.7154 1433.1373 0.0000 0.0000 1797.1354 -7526.7840 304.4470 -9323.9194 -7513.2258 297.2654 -221.8249 -183.8932 30322.5132 -246.6439 -172.0545
ENERGY: 600000 3.2539 2.3721 3.6998 0.0000 -10723.6734 1409.2998 0.0000 0.0000 1787.5977 -7517.4502 302.8312 -9305.0479 -7509.7137 298.2111 -337.7739 -273.9156 30020.9058 -284.9285 -206.0193
ENERGY: 900000 1.9608 4.9298 3.0170 0.0000 -10728.9767 1488.1600 0.0000 0.0000 1739.2401 -7491.6691 294.6391 -9230.9091 -7508.9784 297.5710 286.5513 361.9376 30519.4676 -173.3973 -105.1179
ENERGY: 1200000 2.0775 5.7344 3.9261 0.0000 -10808.9404 1498.5327 0.0000 0.0000 1782.4185 -7516.2511 301.9538 -9298.6696 -7497.9952 299.1173 714.4742 794.3466 29837.5487 -116.2206 -43.7848
ENERGY: 1500000 4.5477 4.0223 2.2894 0.0000 -10655.6736 1333.8360 0.0000 0.0000 1792.3493 -7518.6288 303.6362 -9310.9781 -7507.9240 298.7607 -1175.2936 -1096.1191 30437.0433 -178.7955 -108.6132
TCL: Running FEP window  18: Lambda1 0.1499999999999997 Lambda2 0.09999999999999969 [dLambda -0.05 ]
TCL: Setting parameter firsttimestep to 0
TCL: Setting parameter alchLambda to 0.1499999999999997
Info: NONBONDED TABLE R-SQUARED SPACING: 0.0625
Info: NONBONDED TABLE SIZE: 705 POINTS
TCL: Setting parameter alchLambda2 to 0.09999999999999969
Info: NONBONDED TABLE R-SQUARED SPACING: 0.0625
Info: NONBONDED TABLE SIZE: 705 POINTS
TCL: Running for 1500000 steps
ETITLE: TS BOND ANGLE DIHED IMPRP ELECT VDW BOUNDARY MISC KINETIC TOTAL TEMP POTENTIAL TOTALAVG TEMPAVG PRESSURE GPRESSURE VOLUME PRESSAVG GPRESSAVG
ENERGY: 0 4.5477 4.0223 2.2894 0.0000 -10655.6742 1332.5184 0.0000 0.0000 1791.4843 -7520.8121 303.4896 -9312.2964 -7520.8121 303.4896 -1191.3734 -1102.8266 30437.0433 -1191.3734 -1102.8266
ENERGY: 300000 3.0895 5.4647 4.7140 0.0000 -10766.5564 1493.9768 0.0000 0.0000 1793.5568 -7465.7546 303.8407 -9259.3114 -7501.8042 301.2912 445.9929 533.9210 30293.9612 119.3373 185.0935
ENERGY: 600000 2.7082 4.1239 1.5891 0.0000 -10832.6608 1511.3388 0.0000 0.0000 1792.9796 -7519.9212 303.7429 -9312.9008 -7494.1160 300.9771 407.4363 511.3104 30468.5666 142.5738 206.4163
ENERGY: 900000 2.3055 1.6223 7.2038 0.0000 -10751.9208 1472.9856 0.0000 0.0000 1800.8644 -7466.9392 305.0787 -9267.8036 -7482.7924 302.1017 139.5205 196.1266 30643.4479 146.4342 196.4322
ENERGY: 1200000 2.1132 5.2343 2.5891 0.0000 -10649.6438 1385.0231 0.0000 0.0000 1707.2014 -7547.4826 289.2115 -9254.6840 -7485.8607 300.0324 -331.4359 -293.4084 30398.9181 108.0597 155.9172
ENERGY: 1500000 5.5048 4.9945 3.3454 0.0000 -10761.7628 1429.9281 0.0000 0.0000 1705.3482 -7612.6418 288.8976 -9317.9899 -7496.4581 298.6390 -311.2117 -196.0085 30093.3806 10.2519 57.7985
TCL: Running FEP window  19: Lambda1 0.09999999999999969 Lambda2 0.049999999999999684 [dLambda -0.05 ]
TCL: Setting parameter firsttimestep to 0
TCL: Setting parameter alchLambda to 0.09999999999999969
Info: NONBONDED TABLE R-SQUARED SPACING: 0.0625
Info: NONBONDED TABLE SIZE: 705 POINTS
TCL: Setting parameter alchLambda2 to 0.049999999999999684
Info: NONBONDED TABLE R-SQUARED SPACING: 0.0625
Info: NONBONDED TABLE SIZE: 705 POINTS
TCL: Running for 1500000 steps
ETITLE: TS BOND ANGLE DIHED IMPRP ELECT VDW BOUNDARY MISC KINETIC TOTAL TEMP POTENTIAL TOTALAVG TEMPAVG PRESSURE GPRESSURE VOLUME PRESSAVG GPRESSAVG
ENERGY: 0 5.5048 4.9945 3.3454 0.0000 -10761.7631 1429.8430 0.0000 0.0000 1704.4539 -7613.6215 288.7461 -9318.0754 -7613.6215 288.7461 -296.1606 -199.2235 30093.3806 -296.1606 -199.2235
ENERGY: 300000 2.6902 7.8765 2.9984 0.0000 -10727.9862 1426.6260 0.0000 0.0000 1765.2085 -7522.5866 299.0383 -9287.7951 -7506.0606 299.3719 -530.2010 -495.8385 31282.9136 -265.7439 -200.9314
ENERGY: 600000 2.2413 2.7240 2.6259 0.0000 -10778.2869 1510.0714 0.0000 0.0000 1718.5488 -7542.0754 291.1339 -9260.6243 -7516.7937 298.4137 313.7847 423.1454 30525.0624 -220.1085 -138.1232
ENERGY: 900000 0.9446 6.6462 4.9538 0.0000 -10731.5647 1447.4586 0.0000 0.0000 1755.1071 -7516.4545 297.3271 -9271.5616 -7525.8386 297.4514 -9.1263 46.9387 30407.9170 -201.0945 -132.3672
ENERGY: 1200000 1.6678 4.4589 5.0808 0.0000 -10760.4958 1455.4301 0.0000 0.0000 1791.7091 -7502.1491 303.5277 -9293.8582 -7528.3226 297.6396 54.1750 98.5846 30303.7357 -114.8539 -45.4174
ENERGY: 1500000 2.3364 2.9516 4.5366 0.0000 -10702.2765 1413.9039 0.0000 0.0000 1751.5640 -7526.9840 296.7268 -9278.5480 -7516.2363 298.5097 -214.1463 -131.8927 30201.5307 -124.6516 -61.2172
TCL: Running FEP window  20: Lambda1 0.049999999999999684 Lambda2 0.0    [dLambda -0.049999999999999684]
TCL: Setting parameter firsttimestep to 0
TCL: Setting parameter alchLambda to 0.049999999999999684
Info: NONBONDED TABLE R-SQUARED SPACING: 0.0625
Info: NONBONDED TABLE SIZE: 705 POINTS
TCL: Setting parameter alchLambda2 to 0.0
Info: NONBONDED TABLE R-SQUARED SPACING: 0.0625
Info: NONBONDED TABLE SIZE: 705 POINTS
TCL: Running for 1500000 steps
ETITLE: TS BOND ANGLE DIHED IMPRP ELECT VDW BOUNDARY MISC KINETIC TOTAL TEMP POTENTIAL TOTALAVG TEMPAVG PRESSURE GPRESSURE VOLUME PRESSAVG GPRESSAVG
ENERGY: 0 2.3364 2.9516 4.5366 0.0000 -10702.2764 1413.8690 0.0000 0.0000 1750.7025 -7527.8803 296.5809 -9278.5828 -7527.8803 296.5809 -209.9330 -136.4136 30201.5307 -209.9330 -136.4136
ENERGY: 300000 1.9837 2.6253 4.6032 0.0000 -10702.8448 1470.9636 0.0000 0.0000 1794.1021 -7428.5669 303.9331 -9222.6690 -7459.3133 298.3607 113.7673 186.7955 30715.3003 -70.8652 33.7533
ENERGY: 600000 2.9165 4.0721 3.6980 0.0000 -10748.2639 1413.5146 0.0000 0.0000 1770.0018 -7554.0608 299.8503 -9324.0626 -7489.4913 298.3883 -652.1680 -478.1082 30419.3899 -94.4464 12.7004
ENERGY: 900000 2.6216 6.1415 5.5325 0.0000 -10701.2328 1427.4092 0.0000 0.0000 1785.2056 -7474.3225 302.4260 -9259.5281 -7493.8024 298.5928 -169.5324 -144.0822 30558.9262 50.5516 141.0153
ENERGY: 1200000 4.9363 3.5101 4.9301 0.0000 -10708.8477 1414.8690 0.0000 0.0000 1791.3238 -7489.2783 303.4624 -9280.6021 -7493.9074 298.8068 -493.5791 -431.8770 30367.6548 -25.0850 50.6990
ENERGY: 1500000 6.0528 6.0615 4.8476 0.0000 -10734.0822 1490.5039 0.0000 0.0000 1768.4010 -7458.2153 299.5791 -9226.6163 -7486.9216 299.3056 317.4461 384.0013 30481.3027 -33.0061 43.8984
TCL: Exiting due to exit command.
