Info: SIMULATION PARAMETERS:
Info: TIMESTEP               2
Info: NUMBER OF STEPS        0
Info: STEPS PER CYCLE        10
Info: PERIODIC CELL BASIS 1  30.8097 0 0
Info: PERIODIC CELL BASIS 2  0 30.0295 0
Info: PERIODIC CELL BASIS 3  0 0 32.755
Info: PERIODIC CELL CENTER   0 0 0
Info: WRAPPING WATERS AROUND PERIODIC BOUNDARIES ON OUTPUT.
Info: WRAPPING ALL CLUSTERS AROUND PERIODIC BOUNDARIES ON OUTPUT.
Info: FIRST LDB TIMESTEP     50
Info: LAST LDB TIMESTEP     -1
Info: HOM BACKGROUND SCALING 1
Info: PME BACKGROUND SCALING 1
Info: MIN ATOMS PER PATCH    40
Info: EMPTY PATCH LOAD       40 ATOMS
Info: VELOCITY FILE          mobley_1160109_equil.vel
Info: CENTER OF MASS MOVING INITIALLY? NO
Info: DIELECTRIC             1
Info: EXCLUDE                SCALED ONE-FOUR
Info: 1-4 ELECTROSTATICS SCALED BY 0.833333
Info: MODIFIED 1-4 VDW PARAMETERS WILL BE USED
Info: DCD FILENAME           mobley_1160109_prod.dcd
Info: DCD FREQUENCY          100000
Info: DCD FIRST STEP         100000
Info: DCD FILE WILL CONTAIN UNIT CELL DATA
Info: XST FILENAME           mobley_1160109_prod.xst
Info: XST FREQUENCY          100000
Info: NO VELOCITY DCD OUTPUT
Info: NO FORCE DCD OUTPUT
Info: OUTPUT FILENAME        mobley_1160109_prod
Info: BINARY OUTPUT FILES WILL BE USED
Info: RESTART FILENAME       mobley_1160109_prod.restart
Info: RESTART FREQUENCY      100000
Info: BINARY RESTART FILES WILL BE USED
Info: CUTOFF                 9
Info: PAIRLIST DISTANCE      11
Info: PAIRLIST SHRINK RATE   0.01
Info: PAIRLIST GROW RATE     0.01
Info: PAIRLIST TRIGGER       0.3
Info: PAIRLISTS PER CYCLE    2
Info: PAIRLISTS ENABLED
Info: MARGIN                 2
Info: HYDROGEN GROUP CUTOFF  2.5
Info: PATCH DIMENSION        15.5
Info: ENERGY OUTPUT STEPS    100000
Info: ENERGY EVALUATION STEPS    100000
Info: OUTPUT ENERGY PRECISION 4
Info: CROSSTERM ENERGY INCLUDED IN DIHEDRAL
Info: TIMING OUTPUT STEPS    1000000
Info: PRESSURE OUTPUT STEPS  100000
Info: ALCHEMICAL FEP ON
Info: FEP CURRENT LAMBDA VALUE     1
Info: FEP COMPARISON LAMBDA VALUE  0.95
Info: FEP INTRA-ALCHEMICAL NON-BONDED INTERACTIONS WILL BE RETAINED
Info: FEP INTRA-ALCHEMICAL BONDED INTERACTIONS WILL BE RETAINED
Info: FEP VDW SHIFTING COEFFICIENT 5
Info: FEP ELEC. ACTIVE FOR ANNIHILATED PARTICLES BETWEEN LAMBDA = 0 AND LAMBDA = 0.5
Info: FEP ELEC. ACTIVE FOR EXNIHILATED PARTICLES BETWEEN LAMBDA = 0.5 AND LAMBDA = 1
Info: FEP VDW ACTIVE FOR ANNIHILATED PARTICLES BETWEEN LAMBDA = 0 AND LAMBDA = 1
Info: FEP VDW ACTIVE FOR EXNIHILATED PARTICLES BETWEEN LAMBDA = 0 AND LAMBDA = 1
Info: FEP BOND ACTIVE FOR ANNIHILATED PARTICLES BETWEEN LAMBDA = 1 AND LAMBDA = 1
Info: FEP BOND ACTIVE FOR EXNIHILATED PARTICLES BETWEEN LAMBDA = 0 AND LAMBDA = 0
Info: LANGEVIN DYNAMICS ACTIVE
Info: LANGEVIN TEMPERATURE   300
Info: LANGEVIN USING BBK INTEGRATOR
Info: LANGEVIN DAMPING COEFFICIENT IS 1 INVERSE PS
Info: LANGEVIN DYNAMICS APPLIED TO HYDROGENS
Info: LANGEVIN PISTON PRESSURE CONTROL ACTIVE
Info:        TARGET PRESSURE IS 1.01325 BAR
Info:     OSCILLATION PERIOD IS 50 FS
Info:             DECAY TIME IS 25 FS
Info:     PISTON TEMPERATURE IS 300 K
Info:       PRESSURE CONTROL IS GROUP-BASED
Info:    INITIAL STRAIN RATE IS 0.000470691 0.000470691 0.000470691
Info:       CELL FLUCTUATION IS ISOTROPIC
Info: PARTICLE MESH EWALD (PME) ACTIVE
Info: PME TOLERANCE               1e-06
Info: PME EWALD COEFFICIENT       0.348832
Info: PME INTERPOLATION ORDER     4
Info: PME GRID DIMENSIONS         32 32 36
Info: PME MAXIMUM GRID SPACING    1
Info: PME CALCULATION WILL BE PERFORMED ON GPU
Info: FULL ELECTROSTATIC EVALUATION FREQUENCY      2
Info: USING VERLET I (r-RESPA) MTS SCHEME.
Info: C1 SPLITTING OF LONG RANGE ELECTROSTATICS
Info: PLACING ATOMS IN PATCHES BY HYDROGEN GROUPS
Info: RIGID BONDS TO HYDROGEN : ALL
Info:         ERROR TOLERANCE : 1e-08
Info:          MAX ITERATIONS : 100
Info: RIGID WATER USING SETTLE ALGORITHM
Info: RANDOM NUMBER SEED     1743815614
Info: USE HYDROGEN BONDS?    NO
Info: Using AMBER format force field!
Info: AMBER PARM FILE        mobley_1160109.prmtop
Info: COORDINATE PDB         mobley_1160109.pdb
Info: Exclusions will be read from PARM file!
Info: SCNB (VDW SCALING)     2
Info: USING ARITHMETIC MEAN TO COMBINE L-J SIGMA PARAMETERS
Info: BINARY COORDINATES     mobley_1160109_equil.coor
Info: SUMMARY OF PARAMETERS:
Info: 9 BONDS
Info: 13 ANGLES
Info:   13 HARMONIC
Info:   0 COSINE-BASED
Info: 15 DIHEDRAL
Info: 0 IMPROPER
Info: 0 CROSSTERM
Info: 0 VDW
Info: 28 VDW_PAIRS
Info: 0 NBTHOLE_PAIRS
Info: To read alchdata from file: mobley_1160109.pdb
Info: To read alchflag data from column: 5
Info: STRUCTURE SUMMARY:
Info: 2952 ATOMS
Info: 2952 BONDS
Info: 51 ANGLES
Info: 96 DIHEDRALS
Info: 0 IMPROPERS
Info: 0 CROSSTERMS
Info: 3073 EXCLUSIONS
Info: 2941 RIGID BONDS
Info: ALCH: 0 ATOMS TO DISAPPEAR IN FINAL STATE
Info: ALCH: 27 ATOMS TO APPEAR IN FINAL STATE
Info: 5915 DEGREES OF FREEDOM
Info: 986 HYDROGEN GROUPS
Info: 4 ATOMS IN LARGEST HYDROGEN GROUP
Info: 986 MIGRATION GROUPS
Info: 4 ATOMS IN LARGEST MIGRATION GROUP
Info: TOTAL MASS = 17717.8 amu
Info: TOTAL CHARGE = -0.000199955 e
Info: MASS DENSITY = 0.970859 g/cm^3
Info: ATOM DENSITY = 0.0974099 atoms/A^3
Info: ADDED 0 IMPLICIT EXCLUSIONS
Info: NONBONDED TABLE R-SQUARED SPACING: 0.0625
Info: NONBONDED TABLE SIZE: 705 POINTS
Info: REMOVING COM VELOCITY -0.0527358 0.124552 -0.0674967
Info: Use 3D box decompostion in PME FFT.
Info: Updated CUDA force table with 4096 elements.
Info: Updated CUDA LJ table with 7 x 7 elements.
Info: Found 28 unique exclusion lists needing 92 bytes
TCL: Running for 1500000 steps
ETITLE: TS BOND ANGLE DIHED IMPRP ELECT VDW BOUNDARY MISC KINETIC TOTAL TEMP POTENTIAL TOTALAVG TEMPAVG PRESSURE GPRESSURE VOLUME PRESSAVG GPRESSAVG
ENERGY: 0 1.2287 12.2438 10.0768 0.0000 -10603.4412 1377.1442 0.0000 0.0000 1783.5027 -7419.2450 303.4656 -9202.7477 -7419.2450 303.4656 -296.8476 -221.3273 30304.9344 -296.8476 -221.3273
ENERGY: 300000 5.6647 14.5683 11.3510 0.0000 -10736.3527 1480.8885 0.0000 0.0000 1787.1152 -7436.7651 304.0802 -9223.8803 -7435.9979 302.5086 390.9867 491.2485 30368.2014 284.2408 346.9980
ENERGY: 600000 5.3932 9.2887 9.5668 0.0000 -10611.6538 1390.0850 0.0000 0.0000 1758.6773 -7438.6428 299.2415 -9197.3201 -7429.2719 301.7173 -419.3392 -385.9888 30694.7397 142.9059 193.2047
ENERGY: 900000 2.5803 11.5252 9.4784 0.0000 -10628.1634 1444.2253 0.0000 0.0000 1738.5517 -7421.8024 295.8171 -9160.3541 -7421.5378 300.1019 207.3473 279.7907 30766.0120 77.0886 132.1749
ENERGY: 1200000 2.3569 15.5510 10.7737 0.0000 -10651.5598 1415.3013 0.0000 0.0000 1745.0513 -7462.5256 296.9230 -9207.5769 -7421.9738 299.8756 -83.7290 -25.2620 30459.1642 12.2030 71.7085
ENERGY: 1500000 2.4091 10.7285 10.3092 0.0000 -10673.4759 1421.6710 0.0000 0.0000 1791.0853 -7437.2728 304.7557 -9228.3580 -7421.2873 301.0284 -147.2545 -95.9652 30522.5098 65.1406 127.8948
TCL: Running FEP window   2: Lambda1 0.95   Lambda2 0.8999999999999999 [dLambda -0.050000000000000044]
TCL: Setting parameter firsttimestep to 0
TCL: Setting parameter alchLambda to 0.95
Info: NONBONDED TABLE R-SQUARED SPACING: 0.0625
Info: NONBONDED TABLE SIZE: 705 POINTS
TCL: Setting parameter alchLambda2 to 0.8999999999999999
Info: NONBONDED TABLE R-SQUARED SPACING: 0.0625
Info: NONBONDED TABLE SIZE: 705 POINTS
TCL: Running for 1500000 steps
ETITLE: TS BOND ANGLE DIHED IMPRP ELECT VDW BOUNDARY MISC KINETIC TOTAL TEMP POTENTIAL TOTALAVG TEMPAVG PRESSURE GPRESSURE VOLUME PRESSAVG GPRESSAVG
ENERGY: 0 2.4091 10.7285 10.3092 0.0000 -10672.2526 1422.2079 0.0000 0.0000 1790.2091 -7436.3888 304.6067 -9226.5979 -7436.3888 304.6067 -189.6597 -106.0794 30522.5098 -189.6597 -106.0794
ENERGY: 300000 4.8219 9.5726 10.5126 0.0000 -10728.6152 1461.2347 0.0000 0.0000 1766.5776 -7475.8958 300.5857 -9242.4734 -7473.3189 303.0333 29.9717 54.3487 30603.2791 9.9307 57.1246
ENERGY: 600000 2.1070 11.2898 10.4344 0.0000 -10697.2447 1442.7666 0.0000 0.0000 1796.1917 -7434.4552 305.6246 -9230.6469 -7429.6726 304.1481 183.9673 349.8376 30009.5149 165.5751 237.9735
ENERGY: 900000 7.4386 10.7728 10.5527 0.0000 -10693.6892 1434.9146 0.0000 0.0000 1737.6588 -7492.3517 295.6651 -9230.0104 -7445.1434 301.4101 -6.3929 64.8321 30496.0549 97.2776 173.8573
ENERGY: 1200000 3.7415 7.7224 11.2514 0.0000 -10566.9131 1305.3758 0.0000 0.0000 1777.5476 -7461.2744 302.4523 -9238.8220 -7444.7652 300.8112 -1041.0560 -1014.4562 30365.6961 -111.0012 -41.0671
ENERGY: 1500000 2.8869 13.7608 10.1126 0.0000 -10621.2347 1467.0332 0.0000 0.0000 1760.5231 -7366.9182 299.5555 -9127.4412 -7434.7236 300.2150 558.6396 627.8966 30462.0929 -57.1274 12.9590
TCL: Running FEP window   3: Lambda1 0.8999999999999999 Lambda2 0.8499999999999999 [dLambda -0.050000000000000044]
TCL: Setting parameter firsttimestep to 0
TCL: Setting parameter alchLambda to 0.8999999999999999
Info: NONBONDED TABLE R-SQUARED SPACING: 0.0625
Info: NONBONDED TABLE SIZE: 705 POINTS
TCL: Setting parameter alchLambda2 to 0.8499999999999999
Info: NONBONDED TABLE R-SQUARED SPACING: 0.0625
Info: NONBONDED TABLE SIZE: 705 POINTS
TCL: Running for 1500000 steps
ETITLE: TS BOND ANGLE DIHED IMPRP ELECT VDW BOUNDARY MISC KINETIC TOTAL TEMP POTENTIAL TOTALAVG TEMPAVG PRESSURE GPRESSURE VOLUME PRESSAVG GPRESSAVG
ENERGY: 0 2.8869 13.7608 10.1126 0.0000 -10619.4102 1466.7288 0.0000 0.0000 1759.6104 -7366.3107 299.4003 -9125.9212 -7366.3107 299.4003 534.1369 609.9730 30462.0929 534.1369 609.9730
ENERGY: 300000 5.3951 14.8856 10.3196 0.0000 -10622.0332 1383.2551 0.0000 0.0000 1814.3413 -7393.8364 308.7128 -9208.1778 -7419.1701 301.4943 -215.6953 -186.6800 30177.5619 -83.0365 -17.0242
ENERGY: 600000 2.1826 14.0206 10.7993 0.0000 -10749.4447 1477.1995 0.0000 0.0000 1738.9666 -7506.2760 295.8877 -9245.2426 -7461.8201 299.5521 128.2374 229.3650 30263.7266 125.5775 190.9045
ENERGY: 900000 1.6017 7.9097 10.9317 0.0000 -10693.3974 1449.8926 0.0000 0.0000 1758.5209 -7464.5409 299.2149 -9223.0617 -7450.0133 300.6232 233.1756 319.8427 30164.1101 181.8962 247.8015
ENERGY: 1200000 3.2900 10.7632 10.6982 0.0000 -10670.5638 1451.9553 0.0000 0.0000 1762.1882 -7431.6689 299.8389 -9193.8571 -7444.6445 300.8598 93.9277 180.6611 30441.1970 150.7431 221.8301
ENERGY: 1500000 3.2768 9.9818 10.2252 0.0000 -10510.2754 1397.6712 0.0000 0.0000 1771.5683 -7317.5521 301.4349 -9089.1204 -7436.4087 300.8986 131.4139 276.8379 30006.9669 148.8660 219.5717
TCL: Running FEP window   4: Lambda1 0.8499999999999999 Lambda2 0.7999999999999998 [dLambda -0.050000000000000044]
TCL: Setting parameter firsttimestep to 0
TCL: Setting parameter alchLambda to 0.8499999999999999
Info: NONBONDED TABLE R-SQUARED SPACING: 0.0625
Info: NONBONDED TABLE SIZE: 705 POINTS
TCL: Setting parameter alchLambda2 to 0.7999999999999998
Info: NONBONDED TABLE R-SQUARED SPACING: 0.0625
Info: NONBONDED TABLE SIZE: 705 POINTS
TCL: Running for 1500000 steps
ETITLE: TS BOND ANGLE DIHED IMPRP ELECT VDW BOUNDARY MISC KINETIC TOTAL TEMP POTENTIAL TOTALAVG TEMPAVG PRESSURE GPRESSURE VOLUME PRESSAVG GPRESSAVG
ENERGY: 0 3.2768 9.9818 10.2252 0.0000 -10508.8056 1397.4982 0.0000 0.0000 1770.6728 -7317.1508 301.2825 -9087.8237 -7317.1508 301.2825 185.0145 262.8120 30006.9669 185.0145 262.8120
ENERGY: 300000 3.6903 10.2842 10.3848 0.0000 -10487.1712 1337.3666 0.0000 0.0000 1778.1352 -7347.3102 302.5523 -9125.4454 -7393.3612 301.5496 -726.7595 -646.3228 30660.4220 -175.4961 -85.7729
ENERGY: 600000 2.7030 11.7661 9.7218 0.0000 -10811.1241 1529.5589 0.0000 0.0000 1786.5069 -7470.8674 303.9767 -9257.3743 -7420.4642 300.0193 650.5135 747.4236 30304.0661 -67.1608 22.5021
ENERGY: 900000 1.7788 12.9513 10.7326 0.0000 -10647.7318 1409.3304 0.0000 0.0000 1800.7823 -7412.1564 306.4057 -9212.9388 -7429.5302 301.0296 -286.4447 -294.5166 30657.9659 -95.6193 -29.5339
ENERGY: 1200000 2.9848 21.3612 11.8046 0.0000 -10625.4672 1391.7296 0.0000 0.0000 1758.7115 -7438.8755 299.2473 -9197.5870 -7429.0466 301.2729 -381.4616 -240.8935 30477.7130 -155.8757 -84.3999
ENERGY: 1500000 2.9851 10.9159 9.2139 0.0000 -10719.6161 1478.0810 0.0000 0.0000 1730.7263 -7487.6939 294.4856 -9218.4202 -7430.5460 300.8916 222.5631 357.1071 30251.3487 -113.2459 -39.9961
TCL: Running FEP window   5: Lambda1 0.7999999999999998 Lambda2 0.7499999999999998 [dLambda -0.050000000000000044]
TCL: Setting parameter firsttimestep to 0
TCL: Setting parameter alchLambda to 0.7999999999999998
Info: NONBONDED TABLE R-SQUARED SPACING: 0.0625
Info: NONBONDED TABLE SIZE: 705 POINTS
TCL: Setting parameter alchLambda2 to 0.7499999999999998
Info: NONBONDED TABLE R-SQUARED SPACING: 0.0625
Info: NONBONDED TABLE SIZE: 705 POINTS
TCL: Running for 1500000 steps
ETITLE: TS BOND ANGLE DIHED IMPRP ELECT VDW BOUNDARY MISC KINETIC TOTAL TEMP POTENTIAL TOTALAVG TEMPAVG PRESSURE GPRESSURE VOLUME PRESSAVG GPRESSAVG
ENERGY: 0 2.9851 10.9159 9.2139 0.0000 -10717.9091 1476.9062 0.0000 0.0000 1729.8641 -7488.0238 294.3389 -9217.8879 -7488.0238 294.3389 262.1900 331.6181 30251.3487 262.1900 331.6181
ENERGY: 300000 5.9488 9.1303 9.8984 0.0000 -10660.3472 1428.3055 0.0000 0.0000 1747.7358 -7459.3283 297.3798 -9207.0642 -7420.1399 299.8846 119.8744 156.4417 30189.1402 295.5390 343.9719
ENERGY: 600000 3.1323 11.9212 11.3302 0.0000 -10613.3023 1384.9160 0.0000 0.0000 1766.4702 -7435.5323 300.5674 -9202.0025 -7428.9120 301.4960 -418.3911 -323.2950 30520.4369 235.1554 305.6503
ENERGY: 900000 4.8587 11.8634 11.4279 0.0000 -10750.2577 1439.5201 0.0000 0.0000 1734.8857 -7547.7019 295.1933 -9282.5876 -7425.1183 301.5155 -518.9892 -440.8860 30656.2759 232.1738 299.9247
ENERGY: 1200000 5.2993 9.3445 9.3425 0.0000 -10594.7449 1366.6795 0.0000 0.0000 1835.3450 -7368.7341 312.2866 -9204.0791 -7422.9566 302.1618 -432.2523 -373.1689 30131.4637 138.6250 200.5620
ENERGY: 1500000 2.8715 9.9701 8.8789 0.0000 -10649.6817 1388.5470 0.0000 0.0000 1784.8998 -7454.5143 303.7033 -9239.4141 -7428.1192 302.0452 -43.8522 -9.3501 29830.7929 109.2218 164.2902
TCL: Running FEP window   6: Lambda1 0.7499999999999998 Lambda2 0.6999999999999997 [dLambda -0.050000000000000044]
TCL: Setting parameter firsttimestep to 0
TCL: Setting parameter alchLambda to 0.7499999999999998
Info: NONBONDED TABLE R-SQUARED SPACING: 0.0625
Info: NONBONDED TABLE SIZE: 705 POINTS
TCL: Setting parameter alchLambda2 to 0.6999999999999997
Info: NONBONDED TABLE R-SQUARED SPACING: 0.0625
Info: NONBONDED TABLE SIZE: 705 POINTS
TCL: Running for 1500000 steps
ETITLE: TS BOND ANGLE DIHED IMPRP ELECT VDW BOUNDARY MISC KINETIC TOTAL TEMP POTENTIAL TOTALAVG TEMPAVG PRESSURE GPRESSURE VOLUME PRESSAVG GPRESSAVG
ENERGY: 0 2.8715 9.9701 8.8789 0.0000 -10648.0657 1388.8784 0.0000 0.0000 1784.0220 -7453.4447 303.5539 -9237.4667 -7453.4447 303.5539 -104.4796 -14.5517 29830.7929 -104.4796 -14.5517
ENERGY: 300000 1.6523 16.4154 10.6010 0.0000 -10634.6110 1392.1092 0.0000 0.0000 1724.4236 -7489.4096 293.4132 -9213.8332 -7461.4289 300.5284 -472.9276 -450.6837 30258.3238 -326.3128 -266.6892
ENERGY: 600000 3.5533 9.5821 10.0849 0.0000 -10590.9866 1397.5788 0.0000 0.0000 1772.0929 -7398.0948 301.5242 -9170.1877 -7439.3215 301.4387 -39.7793 44.7784 30188.2025 -410.4692 -349.1483
ENERGY: 900000 5.4994 12.7022 8.9761 0.0000 -10742.0407 1494.5483 0.0000 0.0000 1688.7059 -7531.6088 287.3357 -9220.3147 -7434.5543 300.4436 359.9807 329.7468 30101.9278 -104.9405 -57.9063
ENERGY: 1200000 4.0140 13.7426 9.6115 0.0000 -10497.1889 1299.0651 0.0000 0.0000 1774.4479 -7396.3077 301.9249 -9170.7557 -7443.4223 300.1492 -1166.5350 -1150.8664 30497.9946 -165.2248 -118.8256
ENERGY: 1500000 4.2320 10.1884 11.4576 0.0000 -10503.7531 1353.2303 0.0000 0.0000 1702.5728 -7422.0720 289.6952 -9124.6448 -7443.1466 298.8863 -427.8173 -374.5357 30407.3706 -105.7951 -59.8644
TCL: Running FEP window   7: Lambda1 0.6999999999999997 Lambda2 0.6499999999999997 [dLambda -0.050000000000000044]
TCL: Setting parameter firsttimestep to 0
TCL: Setting parameter alchLambda to 0.6999999999999997
Info: NONBONDED TABLE R-SQUARED SPACING: 0.0625
Info: NONBONDED TABLE SIZE: 705 POINTS
TCL: Setting parameter alchLambda2 to 0.6499999999999997
Info: NONBONDED TABLE R-SQUARED SPACING: 0.0625
Info: NONBONDED TABLE SIZE: 705 POINTS
TCL: Running for 1500000 steps
ETITLE: TS BOND ANGLE DIHED IMPRP ELECT VDW BOUNDARY MISC KINETIC TOTAL TEMP POTENTIAL TOTALAVG TEMPAVG PRESSURE GPRESSURE VOLUME PRESSAVG GPRESSAVG
ENERGY: 0 4.2320 10.1884 11.4576 0.0000 -10502.5189 1353.4687 0.0000 0.0000 1701.7278 -7421.4444 289.5514 -9123.1721 -7421.4444 289.5514 -472.5299 -379.4208 30407.3706 -472.5299 -379.4208
ENERGY: 300000 2.4654 10.6777 9.4201 0.0000 -10692.6348 1465.7949 0.0000 0.0000 1786.7179 -7417.5587 304.0126 -9204.2766 -7422.6810 299.5249 187.5031 284.0630 30368.7858 -42.6714 34.1197
ENERGY: 600000 3.7922 11.5234 11.4128 0.0000 -10538.5865 1380.2178 0.0000 0.0000 1809.6708 -7321.9695 307.9181 -9131.6403 -7407.7548 302.8679 -323.0281 -345.9616 30674.5881 -78.9729 -30.3463
ENERGY: 900000 2.2874 14.2995 9.8961 0.0000 -10589.6415 1410.4256 0.0000 0.0000 1727.6452 -7425.0878 293.9613 -9152.7330 -7423.0962 300.4255 -105.6002 -75.8056 30456.9057 -183.6363 -128.8745
ENERGY: 1200000 4.5340 13.3383 10.6770 0.0000 -10697.9667 1434.4497 0.0000 0.0000 1782.0288 -7452.9390 303.2148 -9234.9678 -7423.5275 300.6491 -91.4687 -20.4850 30102.7412 -114.1852 -64.0228
ENERGY: 1500000 3.1566 11.9184 9.7846 0.0000 -10655.4448 1410.6196 0.0000 0.0000 1797.5740 -7422.3917 305.8598 -9219.9657 -7429.4194 300.2791 15.3089 -27.7668 30056.9758 -171.6547 -123.2387
TCL: Running FEP window   8: Lambda1 0.6499999999999997 Lambda2 0.5999999999999996 [dLambda -0.050000000000000044]
TCL: Setting parameter firsttimestep to 0
TCL: Setting parameter alchLambda to 0.6499999999999997
Info: NONBONDED TABLE R-SQUARED SPACING: 0.0625
Info: NONBONDED TABLE SIZE: 705 POINTS
TCL: Setting parameter alchLambda2 to 0.5999999999999996
Info: NONBONDED TABLE R-SQUARED SPACING: 0.0625
Info: NONBONDED TABLE SIZE: 705 POINTS
TCL: Running for 1500000 steps
ETITLE: TS BOND ANGLE DIHED IMPRP ELECT VDW BOUNDARY MISC KINETIC TOTAL TEMP POTENTIAL TOTALAVG TEMPAVG PRESSURE GPRESSURE VOLUME PRESSAVG GPRESSAVG
ENERGY: 0 3.1566 11.9184 9.7846 0.0000 -10654.2331 1410.3868 0.0000 0.0000 1796.7503 -7422.2365 305.7197 -9218.9868 -7422.2365 305.7197 -119.2356 -38.3177 30056.9758 -119.2356 -38.3177
ENERGY: 300000 3.8216 11.0292 9.9778 0.0000 -10768.5531 1457.1605 0.0000 0.0000 1797.5398 -7489.0242 305.8540 -9286.5640 -7460.8005 302.4594 279.3155 344.4433 29794.3394 -87.8990 -13.4986
ENERGY: 600000 5.2446 11.3173 9.4011 0.0000 -10640.9161 1425.8114 0.0000 0.0000 1719.8435 -7469.2981 292.6338 -9189.1416 -7438.3961 302.5031 86.9165 115.1573 30281.4668 52.1172 121.1756
ENERGY: 900000 1.3092 17.9149 9.9291 0.0000 -10727.0385 1492.1174 0.0000 0.0000 1793.9407 -7411.8272 305.2416 -9205.7679 -7452.6831 302.0997 702.3861 757.1139 29989.2638 146.0080 204.4641
ENERGY: 1200000 4.0270 14.4535 9.3715 0.0000 -10632.9701 1429.0633 0.0000 0.0000 1725.5727 -7450.4821 293.6087 -9176.0548 -7454.1536 300.3591 205.8864 259.1126 30265.3570 172.8838 233.7275
ENERGY: 1500000 4.3058 18.6435 9.8204 0.0000 -10745.3485 1470.8110 0.0000 0.0000 1784.3756 -7457.3922 303.6141 -9241.7678 -7452.8222 301.1093 107.7200 214.8261 30105.9450 201.1428 260.8484
TCL: Running FEP window   9: Lambda1 0.5999999999999996 Lambda2 0.5499999999999996 [dLambda -0.050000000000000044]
TCL: Setting parameter firsttimestep to 0
TCL: Setting parameter alchLambda to 0.5999999999999996
Info: NONBONDED TABLE R-SQUARED SPACING: 0.0625
Info: NONBONDED TABLE SIZE: 705 POINTS
TCL: Setting parameter alchLambda2 to 0.5499999999999996
Info: NONBONDED TABLE R-SQUARED SPACING: 0.0625
Info: NONBONDED TABLE SIZE: 705 POINTS
TCL: Running for 1500000 steps
ETITLE: TS BOND ANGLE DIHED IMPRP ELECT VDW BOUNDARY MISC KINETIC TOTAL TEMP POTENTIAL TOTALAVG TEMPAVG PRESSURE GPRESSURE VOLUME PRESSAVG GPRESSAVG
ENERGY: 0 4.3058 18.6435 9.8204 0.0000 -10744.6737 1471.1758 0.0000 0.0000 1783.4789 -7457.2493 303.4615 -9240.7282 -7457.2493 303.4615 124.8005 209.9761 30105.9450 124.8005 209.9761
ENERGY: 300000 6.7112 8.2465 10.6804 0.0000 -10611.2476 1398.0564 0.0000 0.0000 1786.6119 -7400.9413 303.9946 -9187.5531 -7453.2809 300.8895 -398.3743 -341.2913 30490.8394 244.3163 321.3785
ENERGY: 600000 2.2784 16.6178 9.6416 0.0000 -10660.4029 1399.8493 0.0000 0.0000 1720.2645 -7511.7513 292.7055 -9232.0157 -7453.2317 299.5972 -473.9697 -392.0829 30552.3247 -37.1069 43.9704
ENERGY: 900000 2.2926 13.0144 10.6434 0.0000 -10809.6970 1542.5102 0.0000 0.0000 1755.0685 -7486.1679 298.6274 -9241.2364 -7446.4188 300.4913 910.9005 1002.1057 29952.3680 37.8575 128.0610
ENERGY: 1200000 3.7439 9.9015 8.6011 0.0000 -10726.9407 1426.7516 0.0000 0.0000 1806.3461 -7471.5966 307.3524 -9277.9427 -7449.8426 300.9469 -505.5468 -412.1692 30459.8181 12.8452 94.8491
ENERGY: 1500000 3.7278 12.9782 11.3676 0.0000 -10692.8265 1498.0048 0.0000 0.0000 1774.9708 -7391.7774 302.0138 -9166.7482 -7444.4750 301.6805 945.0507 1032.9605 29781.0381 101.0907 178.9954
TCL: Running FEP window  10: Lambda1 0.5499999999999996 Lambda2 0.4999999999999996 [dLambda -0.04999999999999999]
TCL: Setting parameter firsttimestep to 0
TCL: Setting parameter alchLambda to 0.5499999999999996
Info: NONBONDED TABLE R-SQUARED SPACING: 0.0625
Info: NONBONDED TABLE SIZE: 705 POINTS
TCL: Setting parameter alchLambda2 to 0.4999999999999996
Info: NONBONDED TABLE R-SQUARED SPACING: 0.0625
Info: NONBONDED TABLE SIZE: 705 POINTS
TCL: Running for 1500000 steps
ETITLE: TS BOND ANGLE DIHED IMPRP ELECT VDW BOUNDARY MISC KINETIC TOTAL TEMP POTENTIAL TOTALAVG TEMPAVG PRESSURE GPRESSURE VOLUME PRESSAVG GPRESSAVG
ENERGY: 0 3.7278 12.9782 11.3676 0.0000 -10693.1364 1497.5967 0.0000 0.0000 1774.0748 -7393.3914 301.8614 -9167.4661 -7393.3914 301.8614 936.5622 1013.1354 29781.0381 936.5622 1013.1354
ENERGY: 300000 2.1996 14.3238 9.6710 0.0000 -10660.2766 1475.6807 0.0000 0.0000 1786.1369 -7372.2646 303.9138 -9158.4015 -7447.4431 299.0320 544.3699 639.8566 30034.9941 365.6531 443.4809
ENERGY: 600000 1.7421 13.3319 11.6489 0.0000 -10522.0263 1316.2203 0.0000 0.0000 1772.8033 -7406.2798 301.6450 -9179.0831 -7436.5129 299.2319 -863.8682 -742.6390 30208.2200 103.6689 180.5915
ENERGY: 900000 2.9581 7.7094 9.2087 0.0000 -10746.5601 1507.6704 0.0000 0.0000 1793.2904 -7425.7231 305.1310 -9219.0135 -7430.7285 300.1764 540.8463 630.1599 30196.3703 227.0548 299.1313
ENERGY: 1200000 1.7978 10.8683 9.5965 0.0000 -10563.4533 1404.5495 0.0000 0.0000 1741.1521 -7395.4891 296.2595 -9136.6413 -7436.2053 299.7777 -143.1461 -143.6043 30405.4970 128.2706 189.6768
ENERGY: 1500000 3.3442 11.0131 10.4624 0.0000 -10650.2560 1447.2264 0.0000 0.0000 1781.3305 -7396.8795 303.0959 -9178.2100 -7428.6233 300.7350 423.3578 528.3235 29926.2526 117.5491 183.4261
TCL: Running FEP window  11: Lambda1 0.4999999999999996 Lambda2 0.4499999999999996 [dLambda -0.04999999999999999]
TCL: Setting parameter firsttimestep to 0
TCL: Setting parameter alchLambda to 0.4999999999999996
Info: NONBONDED TABLE R-SQUARED SPACING: 0.0625
Info: NONBONDED TABLE SIZE: 705 POINTS
TCL: Setting parameter alchLambda2 to 0.4499999999999996
Info: NONBONDED TABLE R-SQUARED SPACING: 0.0625
Info: NONBONDED TABLE SIZE: 705 POINTS
TCL: Running for 1500000 steps
ETITLE: TS BOND ANGLE DIHED IMPRP ELECT VDW BOUNDARY MISC KINETIC TOTAL TEMP POTENTIAL TOTALAVG TEMPAVG PRESSURE GPRESSURE VOLUME PRESSAVG GPRESSAVG
ENERGY: 0 3.3442 11.0131 10.4624 0.0000 -10650.2509 1447.0789 0.0000 0.0000 1780.4600 -7397.8924 302.9478 -9178.3524 -7397.8924 302.9478 444.9760 520.0721 29926.2526 444.9760 520.0721
ENERGY: 300000 2.1996 11.2161 8.5703 0.0000 -10736.2521 1504.7076 0.0000 0.0000 1768.9858 -7440.5727 300.9955 -9209.5585 -7408.9738 300.7571 736.0897 778.4116 30037.2444 343.0491 418.0520
ENERGY: 600000 2.8135 12.3156 9.9082 0.0000 -10614.7169 1447.1375 0.0000 0.0000 1737.8082 -7404.7339 295.6906 -9142.5421 -7402.6848 300.1850 167.2790 297.4837 30156.5742 240.7446 318.1183
ENERGY: 900000 2.1808 9.6707 10.4173 0.0000 -10673.1043 1465.8140 0.0000 0.0000 1794.0252 -7390.9963 305.2560 -9185.0214 -7391.1205 300.8654 300.6668 421.0830 30092.6028 241.9731 316.6240
ENERGY: 1200000 2.1359 8.1945 13.4531 0.0000 -10556.6479 1319.8386 0.0000 0.0000 1795.3913 -7417.6345 305.4884 -9213.0258 -7398.3379 301.4173 -902.2362 -874.5352 30127.9194 101.7522 175.9360
ENERGY: 1500000 2.0775 16.2636 11.7144 0.0000 -10752.0826 1488.4500 0.0000 0.0000 1781.6074 -7451.9698 303.1431 -9233.5771 -7406.7931 301.1395 608.7416 624.3484 29934.3678 92.8269 159.8696
TCL: Running FEP window  12: Lambda1 0.4499999999999996 Lambda2 0.39999999999999963 [dLambda -0.04999999999999999]
TCL: Setting parameter firsttimestep to 0
TCL: Setting parameter alchLambda to 0.4499999999999996
Info: NONBONDED TABLE R-SQUARED SPACING: 0.0625
Info: NONBONDED TABLE SIZE: 705 POINTS
TCL: Setting parameter alchLambda2 to 0.39999999999999963
Info: NONBONDED TABLE R-SQUARED SPACING: 0.0625
Info: NONBONDED TABLE SIZE: 705 POINTS
TCL: Running for 1500000 steps
ETITLE: TS BOND ANGLE DIHED IMPRP ELECT VDW BOUNDARY MISC KINETIC TOTAL TEMP POTENTIAL TOTALAVG TEMPAVG PRESSURE GPRESSURE VOLUME PRESSAVG GPRESSAVG
ENERGY: 0 2.0775 16.2635 11.7144 0.0000 -10752.0828 1488.4705 0.0000 0.0000 1780.7167 -7452.8401 302.9915 -9233.5568 -7452.8401 302.9915 543.6662 616.0908 29934.3678 543.6662 616.0908
ENERGY: 300000 1.5451 9.5383 8.7205 0.0000 -10531.2476 1417.3487 0.0000 0.0000 1796.4069 -7297.6881 305.6612 -9094.0950 -7422.5770 300.7756 276.0759 363.7295 30325.5852 62.4334 127.7242
ENERGY: 600000 4.7427 16.5351 10.5516 0.0000 -10709.5493 1467.9863 0.0000 0.0000 1754.9957 -7454.7380 298.6150 -9209.7337 -7421.7990 302.9622 176.0383 183.5130 30551.5133 -0.0052 58.1356
ENERGY: 900000 5.4945 10.4007 11.5616 0.0000 -10698.6321 1440.2192 0.0000 0.0000 1759.7616 -7471.1946 299.4260 -9230.9562 -7421.1072 304.5009 88.8773 89.2008 29981.1185 -75.6216 -17.5865
ENERGY: 1200000 3.3121 15.1147 11.9877 0.0000 -10691.7928 1409.1953 0.0000 0.0000 1765.5977 -7486.5853 300.4190 -9252.1831 -7417.4850 304.2548 -430.7436 -311.6918 30155.2853 -129.3443 -65.6496
ENERGY: 1500000 2.6901 12.7728 11.6871 0.0000 -10639.7515 1502.9571 0.0000 0.0000 1741.3306 -7368.3139 296.2899 -9109.6445 -7407.4947 303.7117 851.4392 896.4464 30351.5553 -97.6630 -38.0480
TCL: Running FEP window  13: Lambda1 0.39999999999999963 Lambda2 0.34999999999999964 [dLambda -0.04999999999999999]
TCL: Setting parameter firsttimestep to 0
TCL: Setting parameter alchLambda to 0.39999999999999963
Info: NONBONDED TABLE R-SQUARED SPACING: 0.0625
Info: NONBONDED TABLE SIZE: 705 POINTS
TCL: Setting parameter alchLambda2 to 0.34999999999999964
Info: NONBONDED TABLE R-SQUARED SPACING: 0.0625
Info: NONBONDED TABLE SIZE: 705 POINTS
TCL: Running for 1500000 steps
ETITLE: TS BOND ANGLE DIHED IMPRP ELECT VDW BOUNDARY MISC KINETIC TOTAL TEMP POTENTIAL TOTALAVG TEMPAVG PRESSURE GPRESSURE VOLUME PRESSAVG GPRESSAVG
ENERGY: 0 2.6901 12.7728 11.6871 0.0000 -10639.7501 1503.1057 0.0000 0.0000 1740.4500 -7369.0445 296.1401 -9109.4945 -7369.0445 296.1401 805.5033 890.6944 30351.5553 805.5033 890.6944
ENERGY: 300000 5.9270 12.3897 12.4129 0.0000 -10669.8329 1428.1930 0.0000 0.0000 1743.1084 -7467.8018 296.5924 -9210.9103 -7398.9053 302.7552 -70.5318 -14.7770 30025.5161 226.3822 309.7134
ENERGY: 600000 2.3984 14.6633 10.1164 0.0000 -10686.5199 1452.6884 0.0000 0.0000 1762.3353 -7444.3180 299.8639 -9206.6533 -7424.5915 300.4450 -108.5176 4.5669 30614.1454 238.3530 306.2105
ENERGY: 900000 8.1729 11.2870 10.2236 0.0000 -10511.7431 1353.8618 0.0000 0.0000 1734.7441 -7393.4537 295.1692 -9128.1978 -7416.2486 298.9005 -988.7017 -935.6674 31031.1761 100.9529 155.5440
ENERGY: 1200000 5.0070 15.5333 12.5057 0.0000 -10683.1636 1461.8692 0.0000 0.0000 1792.3947 -7395.8537 304.9786 -9188.2485 -7411.7116 299.6511 73.2035 143.9907 30226.7451 177.2146 236.3574
ENERGY: 1500000 2.0441 13.4516 10.4384 0.0000 -10420.2102 1287.6938 0.0000 0.0000 1802.8816 -7303.7008 306.7629 -9106.5824 -7406.9203 299.7777 -945.8588 -885.2561 30420.4858 90.4826 151.9022
TCL: Running FEP window  14: Lambda1 0.34999999999999964 Lambda2 0.29999999999999966 [dLambda -0.04999999999999999]
TCL: Setting parameter firsttimestep to 0
TCL: Setting parameter alchLambda to 0.34999999999999964
Info: NONBONDED TABLE R-SQUARED SPACING: 0.0625
Info: NONBONDED TABLE SIZE: 705 POINTS
TCL: Setting parameter alchLambda2 to 0.29999999999999966
Info: NONBONDED TABLE R-SQUARED SPACING: 0.0625
Info: NONBONDED TABLE SIZE: 705 POINTS
TCL: Running for 1500000 steps
ETITLE: TS BOND ANGLE DIHED IMPRP ELECT VDW BOUNDARY MISC KINETIC TOTAL TEMP POTENTIAL TOTALAVG TEMPAVG PRESSURE GPRESSURE VOLUME PRESSAVG GPRESSAVG
ENERGY: 0 2.0441 13.4516 10.4384 0.0000 -10420.2086 1287.8917 0.0000 0.0000 1801.9920 -7304.3908 306.6115 -9106.3828 -7304.3908 306.6115 -960.1401 -894.5131 30420.4858 -960.1401 -894.5131
ENERGY: 300000 2.9200 10.2726 10.8034 0.0000 -10539.3842 1395.1184 0.0000 0.0000 1790.8127 -7329.4571 304.7094 -9120.2698 -7352.1869 304.5483 -207.1155 -98.3297 30628.2258 -558.2175 -468.7402
ENERGY: 600000 1.9228 12.3344 9.8937 0.0000 -10697.2869 1413.8558 0.0000 0.0000 1765.6094 -7493.6708 300.4210 -9259.2801 -7382.5706 303.4557 -341.4725 -259.2649 30168.3466 -278.9443 -208.1125
ENERGY: 900000 5.5758 14.4846 11.9455 0.0000 -10740.0333 1473.2404 0.0000 0.0000 1776.6404 -7458.1466 302.2979 -9234.7870 -7410.3816 301.0466 133.3326 167.0019 30127.7036 -250.5437 -188.4707
ENERGY: 1200000 4.6907 13.6984 11.8127 0.0000 -10696.3834 1464.3567 0.0000 0.0000 1714.5788 -7487.2462 291.7381 -9201.8250 -7420.6260 300.2213 -2.2732 102.8775 30389.0355 -205.9634 -132.2619
ENERGY: 1500000 4.3596 10.2387 10.2942 0.0000 -10556.1683 1395.0243 0.0000 0.0000 1818.9165 -7317.3350 309.4913 -9136.2515 -7419.9960 300.5682 -323.6854 -282.7257 30645.2554 -188.9894 -114.7530
TCL: Running FEP window  15: Lambda1 0.29999999999999966 Lambda2 0.24999999999999967 [dLambda -0.04999999999999999]
TCL: Setting parameter firsttimestep to 0
TCL: Setting parameter alchLambda to 0.29999999999999966
Info: NONBONDED TABLE R-SQUARED SPACING: 0.0625
Info: NONBONDED TABLE SIZE: 705 POINTS
TCL: Setting parameter alchLambda2 to 0.24999999999999967
Info: NONBONDED TABLE R-SQUARED SPACING: 0.0625
Info: NONBONDED TABLE SIZE: 705 POINTS
TCL: Running for 1500000 steps
ETITLE: TS BOND ANGLE DIHED IMPRP ELECT VDW BOUNDARY MISC KINETIC TOTAL TEMP POTENTIAL TOTALAVG TEMPAVG PRESSURE GPRESSURE VOLUME PRESSAVG GPRESSAVG
ENERGY: 0 4.3596 10.2387 10.2942 0.0000 -10556.1691 1395.5068 0.0000 0.0000 1818.0277 -7317.7422 309.3400 -9135.7699 -7317.7422 309.3400 -358.8187 -283.4700 30645.2554 -358.8187 -283.4700
ENERGY: 300000 3.0367 13.8988 9.7319 0.0000 -10647.1925 1446.8666 0.0000 0.0000 1782.1337 -7391.5248 303.2326 -9173.6585 -7365.7730 303.3826 192.4697 336.7566 29749.7373 145.9532 210.7961
ENERGY: 600000 4.3007 9.7818 9.6935 0.0000 -10587.9204 1383.0977 0.0000 0.0000 1742.0271 -7439.0195 296.4084 -9181.0466 -7397.5949 301.3876 -179.7942 -189.4067 29986.5177 -44.0892 1.9609
ENERGY: 900000 3.0583 11.9782 11.4297 0.0000 -10622.2133 1458.5652 0.0000 0.0000 1762.0240 -7375.1578 299.8109 -9137.1819 -7393.9097 301.0384 426.8776 489.7345 30049.0901 -14.4991 32.7380
ENERGY: 1200000 1.4621 12.1254 10.1564 0.0000 -10514.8298 1305.8614 0.0000 0.0000 1780.3257 -7404.8989 302.9250 -9185.2245 -7392.8418 302.0283 -801.7145 -774.7539 30121.8785 -121.3547 -71.3204
ENERGY: 1500000 2.7630 11.8168 8.7992 0.0000 -10570.0798 1356.9013 0.0000 0.0000 1777.0585 -7412.7408 302.3691 -9189.7994 -7395.3762 301.4549 -679.8143 -632.0075 30585.9027 -139.7278 -84.8135
TCL: Running FEP window  16: Lambda1 0.24999999999999967 Lambda2 0.19999999999999968 [dLambda -0.04999999999999999]
TCL: Setting parameter firsttimestep to 0
TCL: Setting parameter alchLambda to 0.24999999999999967
Info: NONBONDED TABLE R-SQUARED SPACING: 0.0625
Info: NONBONDED TABLE SIZE: 705 POINTS
TCL: Setting parameter alchLambda2 to 0.19999999999999968
Info: NONBONDED TABLE R-SQUARED SPACING: 0.0625
Info: NONBONDED TABLE SIZE: 705 POINTS
TCL: Running for 1500000 steps
ETITLE: TS BOND ANGLE DIHED IMPRP ELECT VDW BOUNDARY MISC KINETIC TOTAL TEMP POTENTIAL TOTALAVG TEMPAVG PRESSURE GPRESSURE VOLUME PRESSAVG GPRESSAVG
ENERGY: 0 2.7630 11.8168 8.7992 0.0000 -10570.0778 1357.0728 0.0000 0.0000 1776.2100 -7413.4159 302.2247 -9189.6259 -7413.4159 302.2247 -706.7609 -634.8509 30585.9027 -706.7609 -634.8509
ENERGY: 300000 1.8522 12.6579 10.6844 0.0000 -10733.3194 1508.4699 0.0000 0.0000 1778.4432 -7421.2119 302.6047 -9199.6551 -7435.6444 300.1889 354.5876 433.5461 30464.8377 141.1780 184.6787
ENERGY: 600000 3.2933 13.8139 9.8728 0.0000 -10779.2624 1542.8704 0.0000 0.0000 1820.8490 -7388.5630 309.8201 -9209.4120 -7428.7097 300.9973 795.2268 912.9415 29842.0651 214.6645 272.3608
ENERGY: 900000 4.2520 10.3012 9.6543 0.0000 -10792.3068 1538.4195 0.0000 0.0000 1843.8954 -7385.7843 313.7415 -9229.6797 -7436.8767 300.9556 938.0573 1045.1367 29622.4840 303.4456 369.5098
ENERGY: 1200000 3.5247 15.8356 9.1042 0.0000 -10752.4792 1465.2301 0.0000 0.0000 1773.4613 -7485.3233 301.7570 -9258.7846 -7441.5750 300.5986 286.4411 269.1485 29973.9561 306.1811 369.7220
ENERGY: 1500000 4.8480 10.3600 11.4793 0.0000 -10596.0656 1350.4340 0.0000 0.0000 1765.1204 -7453.8238 300.3378 -9218.9442 -7438.8575 300.1522 -737.8863 -739.5437 30327.9916 153.4156 213.0274
TCL: Running FEP window  17: Lambda1 0.19999999999999968 Lambda2 0.1499999999999997 [dLambda -0.04999999999999999]
TCL: Setting parameter firsttimestep to 0
TCL: Setting parameter alchLambda to 0.19999999999999968
Info: NONBONDED TABLE R-SQUARED SPACING: 0.0625
Info: NONBONDED TABLE SIZE: 705 POINTS
TCL: Setting parameter alchLambda2 to 0.1499999999999997
Info: NONBONDED TABLE R-SQUARED SPACING: 0.0625
Info: NONBONDED TABLE SIZE: 705 POINTS
TCL: Running for 1500000 steps
ETITLE: TS BOND ANGLE DIHED IMPRP ELECT VDW BOUNDARY MISC KINETIC TOTAL TEMP POTENTIAL TOTALAVG TEMPAVG PRESSURE GPRESSURE VOLUME PRESSAVG GPRESSAVG
ENERGY: 0 4.8480 10.3600 11.4793 0.0000 -10596.0646 1350.8347 0.0000 0.0000 1764.2460 -7454.2965 300.1890 -9218.5426 -7454.2965 300.1890 -813.5188 -740.5409 30327.9916 -813.5188 -740.5409
ENERGY: 300000 4.9894 12.7093 10.3143 0.0000 -10634.3261 1397.6464 0.0000 0.0000 1759.6992 -7448.9675 299.4154 -9208.6668 -7424.6617 298.9099 -345.9786 -349.5371 30178.4311 -310.5103 -276.4862
ENERGY: 600000 7.2937 9.8129 10.0728 0.0000 -10724.5693 1489.3642 0.0000 0.0000 1764.6392 -7443.3867 300.2559 -9208.0259 -7430.3589 299.1433 525.6613 495.4164 29860.2816 -78.6506 -42.1934
ENERGY: 900000 2.4091 16.1579 13.0914 0.0000 -10684.0032 1453.4174 0.0000 0.0000 1784.9911 -7413.9364 303.7188 -9198.9274 -7429.5908 300.1766 472.1384 417.7758 29949.6357 -54.6062 -27.0394
ENERGY: 1200000 4.9878 13.4006 10.3043 0.0000 -10775.9423 1487.7749 0.0000 0.0000 1799.7457 -7459.7289 306.2293 -9259.4746 -7439.7394 301.1934 254.3512 297.6380 29706.1388 31.6121 58.8965
ENERGY: 1500000 6.4043 9.8843 10.0604 0.0000 -10594.5192 1398.6558 0.0000 0.0000 1734.8855 -7434.6287 295.1933 -9169.5142 -7443.1946 299.9456 -102.0890 -100.0948 30040.2407 -7.6325 15.6514
TCL: Running FEP window  18: Lambda1 0.1499999999999997 Lambda2 0.09999999999999969 [dLambda -0.05 ]
TCL: Setting parameter firsttimestep to 0
TCL: Setting parameter alchLambda to 0.1499999999999997
Info: NONBONDED TABLE R-SQUARED SPACING: 0.0625
Info: NONBONDED TABLE SIZE: 705 POINTS
TCL: Setting parameter alchLambda2 to 0.09999999999999969
Info: NONBONDED TABLE R-SQUARED SPACING: 0.0625
Info: NONBONDED TABLE SIZE: 705 POINTS
TCL: Running for 1500000 steps
ETITLE: TS BOND ANGLE DIHED IMPRP ELECT VDW BOUNDARY MISC KINETIC TOTAL TEMP POTENTIAL TOTALAVG TEMPAVG PRESSURE GPRESSURE VOLUME PRESSAVG GPRESSAVG
ENERGY: 0 6.4044 9.8844 10.0604 0.0000 -10594.5180 1399.1922 0.0000 0.0000 1734.0203 -7434.9563 295.0461 -9168.9766 -7434.9563 295.0461 -180.5361 -104.7404 30040.2407 -180.5361 -104.7404
ENERGY: 300000 6.0470 10.5639 10.0985 0.0000 -10761.5368 1512.7880 0.0000 0.0000 1753.3689 -7468.6705 298.3382 -9222.0394 -7454.3103 298.2224 152.3657 222.8598 30450.3316 -164.9412 -119.4926
ENERGY: 600000 3.1189 13.4124 10.6973 0.0000 -10633.5635 1486.4423 0.0000 0.0000 1798.2732 -7321.6194 305.9788 -9119.8926 -7432.3106 301.3362 492.6796 555.0404 30186.9787 -142.4376 -98.0282
ENERGY: 900000 3.7247 13.7036 9.6894 0.0000 -10622.1521 1426.6394 0.0000 0.0000 1774.8947 -7393.5003 302.0009 -9168.3950 -7422.5075 301.4869 25.3456 76.2565 30009.7771 -103.7726 -54.7494
ENERGY: 1200000 2.5520 13.1320 10.7550 0.0000 -10762.7525 1478.3928 0.0000 0.0000 1745.0397 -7512.8810 296.9210 -9257.9207 -7426.8013 301.2765 29.6033 120.4600 30293.7854 -92.2383 -36.6496
ENERGY: 1500000 4.6588 10.8865 10.0173 0.0000 -10520.8216 1331.1204 0.0000 0.0000 1780.3902 -7383.7484 302.9360 -9164.1386 -7426.1350 301.2331 -1016.2249 -915.4591 30447.8168 -141.6577 -79.0871
TCL: Running FEP window  19: Lambda1 0.09999999999999969 Lambda2 0.049999999999999684 [dLambda -0.05 ]
TCL: Setting parameter firsttimestep to 0
TCL: Setting parameter alchLambda to 0.09999999999999969
Info: NONBONDED TABLE R-SQUARED SPACING: 0.0625
Info: NONBONDED TABLE SIZE: 705 POINTS
TCL: Setting parameter alchLambda2 to 0.049999999999999684
Info: NONBONDED TABLE R-SQUARED SPACING: 0.0625
Info: NONBONDED TABLE SIZE: 705 POINTS
TCL: Running for 1500000 steps
ETITLE: TS BOND ANGLE DIHED IMPRP ELECT VDW BOUNDARY MISC KINETIC TOTAL TEMP POTENTIAL TOTALAVG TEMPAVG PRESSURE GPRESSURE VOLUME PRESSAVG GPRESSAVG
ENERGY: 0 4.6588 10.8865 10.0173 0.0000 -10520.8217 1331.5015 0.0000 0.0000 1779.5000 -7384.2576 302.7845 -9163.7577 -7384.2576 302.7845 -1009.1006 -919.8739 30447.8168 -1009.1006 -919.8739
ENERGY: 300000 5.0792 5.4327 9.7939 0.0000 -10513.5972 1322.1803 0.0000 0.0000 1788.5105 -7382.6007 304.3176 -9171.1112 -7392.6830 299.5114 -953.2573 -884.4648 30024.3521 -453.7877 -412.2134
ENERGY: 600000 3.0139 12.9443 9.3803 0.0000 -10813.6204 1514.3910 0.0000 0.0000 1729.9797 -7543.9112 294.3585 -9273.8909 -7431.6755 297.4606 147.4369 249.6083 30133.0416 -169.1418 -109.8540
ENERGY: 900000 2.2285 13.0524 10.3000 0.0000 -10714.8651 1459.5984 0.0000 0.0000 1767.1696 -7462.5162 300.6865 -9229.6858 -7437.8746 298.7308 -14.8684 56.3725 30130.6852 -197.8278 -138.0507
ENERGY: 1200000 4.1057 13.8527 10.0021 0.0000 -10548.0375 1347.6256 0.0000 0.0000 1812.5151 -7359.9363 308.4021 -9172.4514 -7423.5893 300.2583 -677.3368 -676.3911 30505.7668 -248.6374 -190.4647
ENERGY: 1500000 4.4539 17.0447 10.4951 0.0000 -10703.7090 1411.0941 0.0000 0.0000 1784.5153 -7476.1059 303.6378 -9260.6212 -7426.0507 300.3160 -444.3071 -417.5907 30220.6267 -205.7130 -145.1680
TCL: Running FEP window  20: Lambda1 0.049999999999999684 Lambda2 0.0    [dLambda -0.049999999999999684]
TCL: Setting parameter firsttimestep to 0
TCL: Setting parameter alchLambda to 0.049999999999999684
Info: NONBONDED TABLE R-SQUARED SPACING: 0.0625
Info: NONBONDED TABLE SIZE: 705 POINTS
TCL: Setting parameter alchLambda2 to 0.0
Info: NONBONDED TABLE R-SQUARED SPACING: 0.0625
Info: NONBONDED TABLE SIZE: 705 POINTS
TCL: Running for 1500000 steps
ETITLE: TS BOND ANGLE DIHED IMPRP ELECT VDW BOUNDARY MISC KINETIC TOTAL TEMP POTENTIAL TOTALAVG TEMPAVG PRESSURE GPRESSURE VOLUME PRESSAVG GPRESSAVG
ENERGY: 0 4.4539 17.0447 10.4951 0.0000 -10703.7080 1410.9697 0.0000 0.0000 1783.6501 -7477.0944 303.4906 -9260.7445 -7477.0944 303.4906 -494.0507 -420.5420 30220.6267 -494.0507 -420.5420
ENERGY: 300000 2.9025 15.4117 13.2076 0.0000 -10449.9445 1339.0728 0.0000 0.0000 1765.8941 -7313.4557 300.4694 -9079.3498 -7412.3817 297.7601 -866.0181 -772.0129 30607.3312 -367.2862 -292.1604
ENERGY: 600000 4.8842 12.3366 11.0028 0.0000 -10551.7563 1372.8260 0.0000 0.0000 1803.9190 -7346.7877 306.9394 -9150.7067 -7408.9260 299.5344 -400.3796 -371.7715 30245.0330 -195.4978 -140.8801
ENERGY: 900000 2.6576 13.4977 9.7900 0.0000 -10669.3647 1418.4647 0.0000 0.0000 1683.3456 -7541.6091 286.4237 -9224.9546 -7431.3185 298.7887 -306.9617 -273.2835 30329.4944 -150.4755 -96.0659
ENERGY: 1200000 2.9283 13.5692 9.4548 0.0000 -10657.8578 1425.7725 0.0000 0.0000 1764.6229 -7441.5100 300.2531 -9206.1329 -7424.9793 299.7006 -37.9880 15.7319 29883.0733 -157.6959 -100.4976
ENERGY: 1500000 5.2586 10.1286 11.9219 0.0000 -10661.5179 1403.5257 0.0000 0.0000 1747.0735 -7483.6095 297.2671 -9230.6831 -7425.8370 299.2757 -502.8783 -442.5564 30084.1008 -137.4411 -80.1558
TCL: Exiting due to exit command.
