Info: SIMULATION PARAMETERS:
Info: TIMESTEP               2
Info: NUMBER OF STEPS        0
Info: STEPS PER CYCLE        10
Info: PERIODIC CELL BASIS 1  30.9514 0 0
Info: PERIODIC CELL BASIS 2  0 29.5518 0
Info: PERIODIC CELL BASIS 3  0 0 32.9056
Info: PERIODIC CELL CENTER   0 0 0
Info: WRAPPING WATERS AROUND PERIODIC BOUNDARIES ON OUTPUT.
Info: WRAPPING ALL CLUSTERS AROUND PERIODIC BOUNDARIES ON OUTPUT.
Info: FIRST LDB TIMESTEP     50
Info: LAST LDB TIMESTEP     -1
Info: HOM BACKGROUND SCALING 1
Info: PME BACKGROUND SCALING 1
Info: MIN ATOMS PER PATCH    40
Info: EMPTY PATCH LOAD       40 ATOMS
Info: VELOCITY FILE          mobley_755351_equil.vel
Info: CENTER OF MASS MOVING INITIALLY? NO
Info: DIELECTRIC             1
Info: EXCLUDE                SCALED ONE-FOUR
Info: 1-4 ELECTROSTATICS SCALED BY 0.833333
Info: MODIFIED 1-4 VDW PARAMETERS WILL BE USED
Info: DCD FILENAME           mobley_755351_prod.dcd
Info: DCD FREQUENCY          100000
Info: DCD FIRST STEP         100000
Info: DCD FILE WILL CONTAIN UNIT CELL DATA
Info: XST FILENAME           mobley_755351_prod.xst
Info: XST FREQUENCY          100000
Info: NO VELOCITY DCD OUTPUT
Info: NO FORCE DCD OUTPUT
Info: OUTPUT FILENAME        mobley_755351_prod
Info: BINARY OUTPUT FILES WILL BE USED
Info: RESTART FILENAME       mobley_755351_prod.restart
Info: RESTART FREQUENCY      100000
Info: BINARY RESTART FILES WILL BE USED
Info: CUTOFF                 9
Info: PAIRLIST DISTANCE      11
Info: PAIRLIST SHRINK RATE   0.01
Info: PAIRLIST GROW RATE     0.01
Info: PAIRLIST TRIGGER       0.3
Info: PAIRLISTS PER CYCLE    2
Info: PAIRLISTS ENABLED
Info: MARGIN                 2
Info: HYDROGEN GROUP CUTOFF  2.5
Info: PATCH DIMENSION        15.5
Info: ENERGY OUTPUT STEPS    100000
Info: ENERGY EVALUATION STEPS    100000
Info: OUTPUT ENERGY PRECISION 4
Info: CROSSTERM ENERGY INCLUDED IN DIHEDRAL
Info: TIMING OUTPUT STEPS    1000000
Info: PRESSURE OUTPUT STEPS  100000
Info: ALCHEMICAL FEP ON
Info: FEP CURRENT LAMBDA VALUE     1
Info: FEP COMPARISON LAMBDA VALUE  0.95
Info: FEP INTRA-ALCHEMICAL NON-BONDED INTERACTIONS WILL BE RETAINED
Info: FEP INTRA-ALCHEMICAL BONDED INTERACTIONS WILL BE RETAINED
Info: FEP VDW SHIFTING COEFFICIENT 5
Info: FEP ELEC. ACTIVE FOR ANNIHILATED PARTICLES BETWEEN LAMBDA = 0 AND LAMBDA = 0.5
Info: FEP ELEC. ACTIVE FOR EXNIHILATED PARTICLES BETWEEN LAMBDA = 0.5 AND LAMBDA = 1
Info: FEP VDW ACTIVE FOR ANNIHILATED PARTICLES BETWEEN LAMBDA = 0 AND LAMBDA = 1
Info: FEP VDW ACTIVE FOR EXNIHILATED PARTICLES BETWEEN LAMBDA = 0 AND LAMBDA = 1
Info: FEP BOND ACTIVE FOR ANNIHILATED PARTICLES BETWEEN LAMBDA = 1 AND LAMBDA = 1
Info: FEP BOND ACTIVE FOR EXNIHILATED PARTICLES BETWEEN LAMBDA = 0 AND LAMBDA = 0
Info: LANGEVIN DYNAMICS ACTIVE
Info: LANGEVIN TEMPERATURE   300
Info: LANGEVIN USING BBK INTEGRATOR
Info: LANGEVIN DAMPING COEFFICIENT IS 1 INVERSE PS
Info: LANGEVIN DYNAMICS APPLIED TO HYDROGENS
Info: LANGEVIN PISTON PRESSURE CONTROL ACTIVE
Info:        TARGET PRESSURE IS 1.01325 BAR
Info:     OSCILLATION PERIOD IS 50 FS
Info:             DECAY TIME IS 25 FS
Info:     PISTON TEMPERATURE IS 300 K
Info:       PRESSURE CONTROL IS GROUP-BASED
Info:    INITIAL STRAIN RATE IS -0.000537576 -0.000537576 -0.000537576
Info:       CELL FLUCTUATION IS ISOTROPIC
Info: PARTICLE MESH EWALD (PME) ACTIVE
Info: PME TOLERANCE               1e-06
Info: PME EWALD COEFFICIENT       0.348832
Info: PME INTERPOLATION ORDER     4
Info: PME GRID DIMENSIONS         32 32 36
Info: PME MAXIMUM GRID SPACING    1
Info: PME CALCULATION WILL BE PERFORMED ON GPU
Info: FULL ELECTROSTATIC EVALUATION FREQUENCY      2
Info: USING VERLET I (r-RESPA) MTS SCHEME.
Info: C1 SPLITTING OF LONG RANGE ELECTROSTATICS
Info: PLACING ATOMS IN PATCHES BY HYDROGEN GROUPS
Info: RIGID BONDS TO HYDROGEN : ALL
Info:         ERROR TOLERANCE : 1e-08
Info:          MAX ITERATIONS : 100
Info: RIGID WATER USING SETTLE ALGORITHM
Info: RANDOM NUMBER SEED     1743777003
Info: USE HYDROGEN BONDS?    NO
Info: Using AMBER format force field!
Info: AMBER PARM FILE        mobley_755351.prmtop
Info: COORDINATE PDB         mobley_755351.pdb
Info: Exclusions will be read from PARM file!
Info: SCNB (VDW SCALING)     2
Info: USING ARITHMETIC MEAN TO COMBINE L-J SIGMA PARAMETERS
Info: BINARY COORDINATES     mobley_755351_equil.coor
Info: SUMMARY OF PARAMETERS:
Info: 9 BONDS
Info: 9 ANGLES
Info:   9 HARMONIC
Info:   0 COSINE-BASED
Info: 5 DIHEDRAL
Info: 0 IMPROPER
Info: 0 CROSSTERM
Info: 0 VDW
Info: 45 VDW_PAIRS
Info: 0 NBTHOLE_PAIRS
Info: To read alchdata from file: mobley_755351.pdb
Info: To read alchflag data from column: 5
Info: STRUCTURE SUMMARY:
Info: 2937 ATOMS
Info: 2937 BONDS
Info: 28 ANGLES
Info: 40 DIHEDRALS
Info: 0 IMPROPERS
Info: 0 CROSSTERMS
Info: 2995 EXCLUSIONS
Info: 2928 RIGID BONDS
Info: ALCH: 0 ATOMS TO DISAPPEAR IN FINAL STATE
Info: ALCH: 18 ATOMS TO APPEAR IN FINAL STATE
Info: 5883 DEGREES OF FREEDOM
Info: 982 HYDROGEN GROUPS
Info: 4 ATOMS IN LARGEST HYDROGEN GROUP
Info: 982 MIGRATION GROUPS
Info: 4 ATOMS IN LARGEST MIGRATION GROUP
Info: TOTAL MASS = 17652.7 amu
Info: TOTAL CHARGE = -0.000100024 e
Info: MASS DENSITY = 0.973949 g/cm^3
Info: ATOM DENSITY = 0.0975819 atoms/A^3
Info: ADDED 0 IMPLICIT EXCLUSIONS
Info: NONBONDED TABLE R-SQUARED SPACING: 0.0625
Info: NONBONDED TABLE SIZE: 705 POINTS
Info: REMOVING COM VELOCITY 0.0444896 0.0278752 -0.00146711
Info: Use 3D box decompostion in PME FFT.
Info: Updated CUDA force table with 4096 elements.
Info: Updated CUDA LJ table with 9 x 9 elements.
Info: Found 19 unique exclusion lists needing 48 bytes
TCL: Running for 1500000 steps
ETITLE: TS BOND ANGLE DIHED IMPRP ELECT VDW BOUNDARY MISC KINETIC TOTAL TEMP POTENTIAL TOTALAVG TEMPAVG PRESSURE GPRESSURE VOLUME PRESSAVG GPRESSAVG
ENERGY: 0 1.7548 9.3900 4.2689 0.0000 -10672.9259 1500.8019 0.0000 0.0000 1736.2712 -7420.4391 297.0360 -9156.7103 -7420.4391 297.0360 920.2596 1012.4186 30097.7957 920.2596 1012.4186
ENERGY: 300000 3.2138 1.8530 5.0576 0.0000 -10742.2426 1495.2963 0.0000 0.0000 1682.8848 -7553.9370 287.9028 -9236.8218 -7474.7334 299.1629 624.3722 658.9558 30135.7343 176.6553 233.2900
ENERGY: 600000 0.7620 3.5723 4.5279 0.0000 -10683.9538 1426.4858 0.0000 0.0000 1816.2722 -7432.3336 310.7223 -9248.6058 -7444.3070 303.1470 38.4044 56.3749 30214.9302 67.0261 118.0305
ENERGY: 900000 2.8692 5.5112 10.0912 0.0000 -10604.2379 1357.9665 0.0000 0.0000 1751.0325 -7476.7673 299.5613 -9227.7998 -7446.2760 303.0951 -554.4625 -546.0290 30436.1845 -25.4793 22.8583
ENERGY: 1200000 2.3886 4.1947 5.8916 0.0000 -10689.8156 1435.5350 0.0000 0.0000 1764.7369 -7477.0688 301.9058 -9241.8056 -7450.8607 303.5898 22.8536 98.7058 30580.9804 -106.2123 -46.9135
ENERGY: 1500000 1.8253 5.9755 5.1690 0.0000 -10663.4642 1418.7712 0.0000 0.0000 1740.4893 -7491.2339 297.7576 -9231.7232 -7459.7516 302.2665 -233.5882 -128.0158 30353.9313 -155.6530 -93.7539
TCL: Running FEP window   2: Lambda1 0.95   Lambda2 0.8999999999999999 [dLambda -0.050000000000000044]
TCL: Setting parameter firsttimestep to 0
TCL: Setting parameter alchLambda to 0.95
Info: NONBONDED TABLE R-SQUARED SPACING: 0.0625
Info: NONBONDED TABLE SIZE: 705 POINTS
TCL: Setting parameter alchLambda2 to 0.8999999999999999
Info: NONBONDED TABLE R-SQUARED SPACING: 0.0625
Info: NONBONDED TABLE SIZE: 705 POINTS
TCL: Running for 1500000 steps
ETITLE: TS BOND ANGLE DIHED IMPRP ELECT VDW BOUNDARY MISC KINETIC TOTAL TEMP POTENTIAL TOTALAVG TEMPAVG PRESSURE GPRESSURE VOLUME PRESSAVG GPRESSAVG
ENERGY: 0 1.8253 5.9755 5.1690 0.0000 -10661.8916 1419.4765 0.0000 0.0000 1739.5896 -7489.8556 297.6037 -9229.4452 -7489.8556 297.6037 -198.0466 -128.3839 30353.9313 -198.0466 -128.3839
ENERGY: 300000 3.3234 7.6856 2.1835 0.0000 -10502.8404 1312.1862 0.0000 0.0000 1758.6676 -7418.7941 300.8675 -9177.4617 -7478.2468 299.2056 -729.1286 -733.9177 30148.1728 -258.5211 -193.8774
ENERGY: 600000 2.3297 3.0988 7.5049 0.0000 -10841.8048 1491.9508 0.0000 0.0000 1786.5283 -7550.3924 305.6338 -9336.9207 -7478.6161 301.7930 367.8436 441.2933 30185.7075 -89.8866 -32.9478
ENERGY: 900000 1.5932 8.9801 9.8885 0.0000 -10510.5004 1283.9997 0.0000 0.0000 1718.5804 -7487.4585 294.0095 -9206.0389 -7482.6013 301.5107 -1106.2292 -1029.7899 30289.7084 -153.2501 -88.1516
ENERGY: 1200000 4.2531 4.2788 4.5823 0.0000 -10642.6769 1414.9708 0.0000 0.0000 1716.4892 -7498.1028 293.6518 -9214.5920 -7480.7770 300.9135 4.7358 37.5673 30236.6467 -153.4775 -85.8607
ENERGY: 1500000 2.7250 3.9443 5.2226 0.0000 -10813.1208 1535.6365 0.0000 0.0000 1690.5305 -7575.0619 289.2108 -9265.5924 -7483.1816 299.7678 928.4266 968.3287 29676.8022 -21.7749 47.0186
TCL: Running FEP window   3: Lambda1 0.8999999999999999 Lambda2 0.8499999999999999 [dLambda -0.050000000000000044]
TCL: Setting parameter firsttimestep to 0
TCL: Setting parameter alchLambda to 0.8999999999999999
Info: NONBONDED TABLE R-SQUARED SPACING: 0.0625
Info: NONBONDED TABLE SIZE: 705 POINTS
TCL: Setting parameter alchLambda2 to 0.8499999999999999
Info: NONBONDED TABLE R-SQUARED SPACING: 0.0625
Info: NONBONDED TABLE SIZE: 705 POINTS
TCL: Running for 1500000 steps
ETITLE: TS BOND ANGLE DIHED IMPRP ELECT VDW BOUNDARY MISC KINETIC TOTAL TEMP POTENTIAL TOTALAVG TEMPAVG PRESSURE GPRESSURE VOLUME PRESSAVG GPRESSAVG
ENERGY: 0 2.7250 3.9443 5.2226 0.0000 -10811.2081 1534.9637 0.0000 0.0000 1689.6781 -7574.6744 289.0650 -9264.3525 -7574.6744 289.0650 861.2429 950.5682 29676.8022 861.2429 950.5682
ENERGY: 300000 4.2365 5.3907 5.9511 0.0000 -10602.3796 1379.7185 0.0000 0.0000 1804.2590 -7402.8238 308.6672 -9207.0828 -7485.8559 299.7380 -558.8015 -415.8656 30480.0958 127.1236 204.0173
ENERGY: 600000 1.6979 3.9837 5.9737 0.0000 -10739.5425 1405.3099 0.0000 0.0000 1723.7749 -7598.8024 294.8982 -9322.5773 -7484.5772 299.6866 -301.4835 -212.8413 29746.3076 49.3519 116.5154
ENERGY: 900000 5.5676 5.7208 5.4729 0.0000 -10694.0390 1355.1017 0.0000 0.0000 1749.9324 -7572.2436 299.3731 -9322.1759 -7488.9661 300.7852 -680.0806 -611.5739 29970.3819 -76.2564 -15.6098
ENERGY: 1200000 2.2503 4.6012 5.7698 0.0000 -10567.3537 1319.5243 0.0000 0.0000 1743.2691 -7491.9390 298.2332 -9235.2081 -7481.7713 300.7823 -932.3290 -826.2308 30288.3601 -214.4206 -151.6896
ENERGY: 1500000 1.7668 6.4294 9.2499 0.0000 -10609.0469 1350.5608 0.0000 0.0000 1765.1662 -7475.8738 301.9793 -9241.0399 -7479.6173 301.5410 -532.3365 -468.8721 30110.8861 -228.6290 -164.2409
TCL: Running FEP window   4: Lambda1 0.8499999999999999 Lambda2 0.7999999999999998 [dLambda -0.050000000000000044]
TCL: Setting parameter firsttimestep to 0
TCL: Setting parameter alchLambda to 0.8499999999999999
Info: NONBONDED TABLE R-SQUARED SPACING: 0.0625
Info: NONBONDED TABLE SIZE: 705 POINTS
TCL: Setting parameter alchLambda2 to 0.7999999999999998
Info: NONBONDED TABLE R-SQUARED SPACING: 0.0625
Info: NONBONDED TABLE SIZE: 705 POINTS
TCL: Running for 1500000 steps
ETITLE: TS BOND ANGLE DIHED IMPRP ELECT VDW BOUNDARY MISC KINETIC TOTAL TEMP POTENTIAL TOTALAVG TEMPAVG PRESSURE GPRESSURE VOLUME PRESSAVG GPRESSAVG
ENERGY: 0 1.7668 6.4294 9.2499 0.0000 -10606.8078 1349.9740 0.0000 0.0000 1764.3193 -7475.0684 301.8344 -9239.3877 -7475.0684 301.8344 -568.1922 -485.4015 30110.8861 -568.1922 -485.4015
ENERGY: 300000 3.2030 6.7940 2.1552 0.0000 -10609.0676 1447.8356 0.0000 0.0000 1722.0924 -7426.9874 294.6103 -9149.0798 -7442.3683 299.4321 305.3845 401.8635 30203.9665 35.5282 122.8689
ENERGY: 600000 1.3935 6.5123 6.6111 0.0000 -10765.8024 1483.5423 0.0000 0.0000 1766.0709 -7501.6722 302.1340 -9267.7431 -7473.8157 299.6703 544.3860 552.8127 29855.8649 87.6530 145.4416
ENERGY: 900000 1.5837 5.1877 3.6430 0.0000 -10637.8409 1404.7505 0.0000 0.0000 1769.7172 -7452.9589 302.7578 -9222.6761 -7475.9752 300.5203 -62.0843 16.8771 30152.6881 -74.1573 -15.8598
ENERGY: 1200000 2.4716 7.7813 5.0599 0.0000 -10499.1792 1310.0018 0.0000 0.0000 1774.9064 -7398.9582 303.6456 -9173.8646 -7471.9230 300.7311 -850.2410 -842.2890 30554.6212 -151.9292 -97.0997
ENERGY: 1500000 1.5023 5.3717 6.0998 0.0000 -10497.4331 1322.0860 0.0000 0.0000 1695.1342 -7467.2391 289.9984 -9162.3734 -7466.7609 299.9572 -820.3415 -761.4494 30720.5355 -238.8587 -182.4869
TCL: Running FEP window   5: Lambda1 0.7999999999999998 Lambda2 0.7499999999999998 [dLambda -0.050000000000000044]
TCL: Setting parameter firsttimestep to 0
TCL: Setting parameter alchLambda to 0.7999999999999998
Info: NONBONDED TABLE R-SQUARED SPACING: 0.0625
Info: NONBONDED TABLE SIZE: 705 POINTS
TCL: Setting parameter alchLambda2 to 0.7499999999999998
Info: NONBONDED TABLE R-SQUARED SPACING: 0.0625
Info: NONBONDED TABLE SIZE: 705 POINTS
TCL: Running for 1500000 steps
ETITLE: TS BOND ANGLE DIHED IMPRP ELECT VDW BOUNDARY MISC KINETIC TOTAL TEMP POTENTIAL TOTALAVG TEMPAVG PRESSURE GPRESSURE VOLUME PRESSAVG GPRESSAVG
ENERGY: 0 1.5023 5.3717 6.0998 0.0000 -10495.4651 1322.1170 0.0000 0.0000 1694.1971 -7466.1772 289.8381 -9160.3743 -7466.1772 289.8381 -852.0677 -769.1097 30720.5355 -852.0677 -769.1097
ENERGY: 300000 2.7716 6.0786 5.2702 0.0000 -10634.4929 1420.3256 0.0000 0.0000 1758.7660 -7441.2809 300.8843 -9200.0469 -7462.4816 297.9544 -372.8422 -321.9120 30947.6763 -45.2067 12.7928
ENERGY: 600000 5.0308 3.8879 3.9871 0.0000 -10567.8135 1387.0218 0.0000 0.0000 1720.5779 -7447.3080 294.3513 -9167.8860 -7454.5323 297.8376 151.7056 230.2693 29876.9952 21.4354 84.2025
ENERGY: 900000 4.0888 5.8252 5.4534 0.0000 -10628.6200 1443.1217 0.0000 0.0000 1764.8816 -7405.2493 301.9306 -9170.1309 -7452.8187 298.2979 63.1218 62.8077 30884.9257 -8.1626 50.7581
ENERGY: 1200000 1.1512 3.3440 6.2663 0.0000 -10644.1855 1402.0163 0.0000 0.0000 1735.6116 -7495.7960 296.9232 -9231.4077 -7456.7647 298.4714 -131.6432 -115.6393 30194.7948 48.3419 102.1982
ENERGY: 1500000 3.4269 5.4553 7.2003 0.0000 -10713.6581 1383.2140 0.0000 0.0000 1779.1636 -7535.1980 304.3739 -9314.3615 -7469.4356 298.6239 -614.4230 -575.5774 30100.3852 5.9766 60.0388
TCL: Running FEP window   6: Lambda1 0.7499999999999998 Lambda2 0.6999999999999997 [dLambda -0.050000000000000044]
TCL: Setting parameter firsttimestep to 0
TCL: Setting parameter alchLambda to 0.7499999999999998
Info: NONBONDED TABLE R-SQUARED SPACING: 0.0625
Info: NONBONDED TABLE SIZE: 705 POINTS
TCL: Setting parameter alchLambda2 to 0.6999999999999997
Info: NONBONDED TABLE R-SQUARED SPACING: 0.0625
Info: NONBONDED TABLE SIZE: 705 POINTS
TCL: Running for 1500000 steps
ETITLE: TS BOND ANGLE DIHED IMPRP ELECT VDW BOUNDARY MISC KINETIC TOTAL TEMP POTENTIAL TOTALAVG TEMPAVG PRESSURE GPRESSURE VOLUME PRESSAVG GPRESSAVG
ENERGY: 0 3.4269 5.4553 7.2003 0.0000 -10712.7650 1383.4759 0.0000 0.0000 1778.2559 -7534.9507 304.2186 -9313.2066 -7534.9507 304.2186 -671.0279 -586.0950 30100.3852 -671.0279 -586.0950
ENERGY: 300000 2.7322 3.0547 9.1355 0.0000 -10711.6809 1442.6523 0.0000 0.0000 1713.3780 -7540.7282 293.1195 -9254.1062 -7506.1282 300.8275 -30.7302 -10.9607 30312.1656 -402.2530 -336.6627
ENERGY: 600000 2.7447 7.1353 6.5867 0.0000 -10517.5632 1272.8157 0.0000 0.0000 1702.6272 -7525.6536 291.2803 -9228.2808 -7501.0837 300.7705 -1328.3759 -1292.6297 30488.2471 -496.0855 -431.3068
ENERGY: 900000 2.1830 6.5758 5.8642 0.0000 -10683.1665 1408.3638 0.0000 0.0000 1747.3036 -7512.8761 298.9234 -9260.1798 -7499.2645 299.5633 42.7195 105.5640 29982.6829 -437.8826 -379.4485
ENERGY: 1200000 2.1525 4.9811 5.5000 0.0000 -10659.9397 1408.1775 0.0000 0.0000 1770.8417 -7468.2869 302.9502 -9239.1286 -7486.0460 300.2206 62.7983 166.5117 30011.9322 -270.6533 -210.4429
ENERGY: 1500000 2.2639 5.6856 5.9744 0.0000 -10597.6671 1358.2626 0.0000 0.0000 1784.7716 -7440.7091 305.3333 -9225.4807 -7487.4564 300.2292 -536.5144 -407.8089 30391.4106 -251.4307 -188.9117
TCL: Running FEP window   7: Lambda1 0.6999999999999997 Lambda2 0.6499999999999997 [dLambda -0.050000000000000044]
TCL: Setting parameter firsttimestep to 0
TCL: Setting parameter alchLambda to 0.6999999999999997
Info: NONBONDED TABLE R-SQUARED SPACING: 0.0625
Info: NONBONDED TABLE SIZE: 705 POINTS
TCL: Setting parameter alchLambda2 to 0.6499999999999997
Info: NONBONDED TABLE R-SQUARED SPACING: 0.0625
Info: NONBONDED TABLE SIZE: 705 POINTS
TCL: Running for 1500000 steps
ETITLE: TS BOND ANGLE DIHED IMPRP ELECT VDW BOUNDARY MISC KINETIC TOTAL TEMP POTENTIAL TOTALAVG TEMPAVG PRESSURE GPRESSURE VOLUME PRESSAVG GPRESSAVG
ENERGY: 0 2.2639 5.6856 5.9744 0.0000 -10596.5219 1358.1321 0.0000 0.0000 1783.8353 -7440.6307 305.1731 -9224.4660 -7440.6307 305.1731 -501.7953 -420.0688 30391.4106 -501.7953 -420.0688
ENERGY: 300000 3.9655 2.8632 7.1407 0.0000 -10747.3233 1452.2234 0.0000 0.0000 1778.9300 -7502.2006 304.3339 -9281.1306 -7448.5513 303.4337 255.9139 343.4719 29912.0210 -358.2123 -284.9661
ENERGY: 600000 1.5588 8.6461 5.9393 0.0000 -10604.9572 1318.6010 0.0000 0.0000 1760.4025 -7509.8095 301.1643 -9270.2120 -7465.2512 302.8153 -1195.9007 -1126.3677 30705.4854 -264.4322 -198.7281
ENERGY: 900000 2.1824 6.4083 4.2755 0.0000 -10690.0965 1447.5611 0.0000 0.0000 1713.7891 -7515.8801 293.1898 -9229.6692 -7471.8211 300.8539 71.1717 124.7857 30151.3499 -288.2228 -218.8913
ENERGY: 1200000 2.5102 3.4095 7.2451 0.0000 -10650.7343 1338.1506 0.0000 0.0000 1711.5886 -7587.8303 292.8134 -9299.4189 -7472.5384 301.2066 -754.5652 -671.4428 29952.2942 -317.0200 -250.6477
ENERGY: 1500000 1.7667 8.9755 2.4031 0.0000 -10821.8640 1532.3830 0.0000 0.0000 1715.6900 -7560.6456 293.5150 -9276.3356 -7478.5785 300.4938 1043.4587 1197.6632 29530.9636 -212.1499 -141.6984
TCL: Running FEP window   8: Lambda1 0.6499999999999997 Lambda2 0.5999999999999996 [dLambda -0.050000000000000044]
TCL: Setting parameter firsttimestep to 0
TCL: Setting parameter alchLambda to 0.6499999999999997
Info: NONBONDED TABLE R-SQUARED SPACING: 0.0625
Info: NONBONDED TABLE SIZE: 705 POINTS
TCL: Setting parameter alchLambda2 to 0.5999999999999996
Info: NONBONDED TABLE R-SQUARED SPACING: 0.0625
Info: NONBONDED TABLE SIZE: 705 POINTS
TCL: Running for 1500000 steps
ETITLE: TS BOND ANGLE DIHED IMPRP ELECT VDW BOUNDARY MISC KINETIC TOTAL TEMP POTENTIAL TOTALAVG TEMPAVG PRESSURE GPRESSURE VOLUME PRESSAVG GPRESSAVG
ENERGY: 0 1.7667 8.9755 2.4031 0.0000 -10819.9839 1531.8581 0.0000 0.0000 1714.8329 -7560.1475 293.3684 -9274.9804 -7560.1475 293.3684 1100.3720 1187.2596 29530.9636 1100.3720 1187.2596
ENERGY: 300000 2.6313 7.4273 4.3490 0.0000 -10768.6921 1522.5400 0.0000 0.0000 1753.9019 -7477.8425 300.0522 -9231.7444 -7480.3092 299.2524 705.1064 754.8511 30194.3033 265.6732 323.5215
ENERGY: 600000 2.0529 5.1045 3.5991 0.0000 -10587.8971 1385.0290 0.0000 0.0000 1794.9654 -7397.1462 307.0772 -9192.1115 -7461.0324 301.0505 -66.2901 -56.0888 30314.3288 125.8589 161.5073
ENERGY: 900000 2.7180 7.3389 3.7499 0.0000 -10675.2560 1457.5901 0.0000 0.0000 1764.3494 -7439.5097 301.8395 -9203.8591 -7470.7260 300.6617 275.5769 324.5486 30319.0817 188.5552 228.0299
ENERGY: 1200000 3.2662 7.3940 5.2360 0.0000 -10847.2101 1463.7091 0.0000 0.0000 1766.2183 -7601.3864 302.1593 -9367.6047 -7486.9723 300.5451 -213.0056 -216.5455 30138.0540 25.1176 67.5709
ENERGY: 1500000 2.5033 9.8271 4.2935 0.0000 -10631.7552 1395.7756 0.0000 0.0000 1764.1885 -7455.1672 301.8120 -9219.3557 -7481.6459 300.4543 -201.1152 -176.7403 30163.5221 76.6735 124.9842
TCL: Running FEP window   9: Lambda1 0.5999999999999996 Lambda2 0.5499999999999996 [dLambda -0.050000000000000044]
TCL: Setting parameter firsttimestep to 0
TCL: Setting parameter alchLambda to 0.5999999999999996
Info: NONBONDED TABLE R-SQUARED SPACING: 0.0625
Info: NONBONDED TABLE SIZE: 705 POINTS
TCL: Setting parameter alchLambda2 to 0.5499999999999996
Info: NONBONDED TABLE R-SQUARED SPACING: 0.0625
Info: NONBONDED TABLE SIZE: 705 POINTS
TCL: Running for 1500000 steps
ETITLE: TS BOND ANGLE DIHED IMPRP ELECT VDW BOUNDARY MISC KINETIC TOTAL TEMP POTENTIAL TOTALAVG TEMPAVG PRESSURE GPRESSURE VOLUME PRESSAVG GPRESSAVG
ENERGY: 0 2.5033 9.8271 4.2935 0.0000 -10630.5914 1395.3931 0.0000 0.0000 1763.3058 -7455.2687 301.6610 -9218.5745 -7455.2687 301.6610 -278.8288 -187.0268 30163.5221 -278.8288 -187.0268
ENERGY: 300000 1.0096 2.9630 6.6841 0.0000 -10650.7727 1470.9595 0.0000 0.0000 1764.6837 -7404.4727 301.8967 -9169.1564 -7481.1556 303.0295 254.4146 293.1709 30818.4747 359.7625 420.8543
ENERGY: 600000 1.6084 4.6925 6.9675 0.0000 -10479.4961 1326.1092 0.0000 0.0000 1789.2300 -7350.8886 306.0960 -9140.1185 -7460.4905 303.5942 -630.7561 -499.0533 30546.4412 50.9260 131.0889
ENERGY: 900000 1.7688 5.7151 5.4212 0.0000 -10620.1345 1416.9379 0.0000 0.0000 1799.3802 -7390.9113 307.8325 -9190.2915 -7449.0532 303.3281 90.5247 85.1630 30150.0614 163.8710 226.7784
ENERGY: 1200000 3.6313 3.7406 6.1023 0.0000 -10559.8935 1338.4736 0.0000 0.0000 1799.9485 -7407.9972 307.9297 -9207.9457 -7451.8729 302.9249 -657.9889 -599.4856 30250.8819 -22.1385 43.0782
ENERGY: 1500000 0.8078 8.5737 6.0448 0.0000 -10596.0715 1337.2044 0.0000 0.0000 1762.5424 -7480.8983 301.5304 -9243.4407 -7450.2668 302.7241 -872.0940 -856.7859 30530.0758 -141.7598 -78.6302
TCL: Running FEP window  10: Lambda1 0.5499999999999996 Lambda2 0.4999999999999996 [dLambda -0.04999999999999999]
TCL: Setting parameter firsttimestep to 0
TCL: Setting parameter alchLambda to 0.5499999999999996
Info: NONBONDED TABLE R-SQUARED SPACING: 0.0625
Info: NONBONDED TABLE SIZE: 705 POINTS
TCL: Setting parameter alchLambda2 to 0.4999999999999996
Info: NONBONDED TABLE R-SQUARED SPACING: 0.0625
Info: NONBONDED TABLE SIZE: 705 POINTS
TCL: Running for 1500000 steps
ETITLE: TS BOND ANGLE DIHED IMPRP ELECT VDW BOUNDARY MISC KINETIC TOTAL TEMP POTENTIAL TOTALAVG TEMPAVG PRESSURE GPRESSURE VOLUME PRESSAVG GPRESSAVG
ENERGY: 0 0.8078 8.5737 6.0448 0.0000 -10595.8166 1337.7191 0.0000 0.0000 1761.6998 -7480.9713 301.3863 -9242.6712 -7480.9713 301.3863 -931.4674 -857.5776 30530.0758 -931.4674 -857.5776
ENERGY: 300000 1.7714 9.8995 7.6701 0.0000 -10711.6547 1462.0607 0.0000 0.0000 1771.3543 -7458.8987 303.0379 -9230.2530 -7475.7785 302.1126 170.9733 181.7109 30319.4603 -379.5671 -330.5160
ENERGY: 600000 4.2437 5.8224 4.6719 0.0000 -10604.9959 1405.7525 0.0000 0.0000 1729.7384 -7454.7670 295.9184 -9184.5054 -7454.4995 302.2742 -371.5215 -310.7839 30659.5627 -459.2315 -399.8397
ENERGY: 900000 1.9977 9.2256 3.4526 0.0000 -10577.9947 1369.7831 0.0000 0.0000 1720.3300 -7473.2056 294.3088 -9193.5356 -7459.1127 301.0047 -382.5075 -368.4907 30318.9555 -307.5470 -259.3030
ENERGY: 1200000 0.2620 6.5027 2.4493 0.0000 -10677.2893 1406.2631 0.0000 0.0000 1771.4506 -7490.3615 303.0544 -9261.8121 -7468.8893 301.1385 -253.0936 -182.1070 30233.6022 -287.0024 -231.1491
ENERGY: 1500000 4.6304 4.6864 5.5198 0.0000 -10819.7848 1566.5387 0.0000 0.0000 1754.0081 -7484.4014 300.0704 -9238.4095 -7472.4614 301.3165 1102.6040 1189.9619 29983.7665 -101.1434 -39.8683
TCL: Running FEP window  11: Lambda1 0.4999999999999996 Lambda2 0.4499999999999996 [dLambda -0.04999999999999999]
TCL: Setting parameter firsttimestep to 0
TCL: Setting parameter alchLambda to 0.4999999999999996
Info: NONBONDED TABLE R-SQUARED SPACING: 0.0625
Info: NONBONDED TABLE SIZE: 705 POINTS
TCL: Setting parameter alchLambda2 to 0.4499999999999996
Info: NONBONDED TABLE R-SQUARED SPACING: 0.0625
Info: NONBONDED TABLE SIZE: 705 POINTS
TCL: Running for 1500000 steps
ETITLE: TS BOND ANGLE DIHED IMPRP ELECT VDW BOUNDARY MISC KINETIC TOTAL TEMP POTENTIAL TOTALAVG TEMPAVG PRESSURE GPRESSURE VOLUME PRESSAVG GPRESSAVG
ENERGY: 0 4.6304 4.6864 5.5198 0.0000 -10820.3285 1566.9669 0.0000 0.0000 1753.1765 -7485.3486 299.9281 -9238.5251 -7485.3486 299.9281 1118.6113 1187.1752 29983.7665 1118.6113 1187.1752
ENERGY: 300000 3.9449 4.0624 4.6743 0.0000 -10616.1071 1403.3215 0.0000 0.0000 1732.5958 -7467.5083 296.4072 -9200.1041 -7469.9958 299.5591 -306.2884 -219.2314 30150.5784 14.8582 109.0321
ENERGY: 600000 1.1768 6.5102 3.5871 0.0000 -10716.4763 1457.9486 0.0000 0.0000 1770.8280 -7476.4256 302.9479 -9247.2536 -7468.5278 302.1519 2.6625 79.8203 30222.9291 46.9874 128.0569
ENERGY: 900000 2.6311 4.5355 6.1494 0.0000 -10625.0178 1378.4876 0.0000 0.0000 1804.1733 -7429.0409 308.6525 -9233.2142 -7463.6170 302.7171 -644.0488 -536.7921 30457.1227 -68.7038 8.5823
ENERGY: 1200000 4.2919 5.2593 5.8582 0.0000 -10619.7819 1346.5798 0.0000 0.0000 1709.3582 -7548.4344 292.4318 -9257.7926 -7460.4490 302.6048 -773.8464 -685.0975 30118.0818 -106.1619 -27.7667
ENERGY: 1500000 3.0473 4.7557 5.9006 0.0000 -10505.4872 1297.2713 0.0000 0.0000 1771.4073 -7423.1051 303.0470 -9194.5123 -7461.0164 301.7580 -950.9171 -851.4429 30129.3174 -213.7937 -138.7993
TCL: Running FEP window  12: Lambda1 0.4499999999999996 Lambda2 0.39999999999999963 [dLambda -0.04999999999999999]
TCL: Setting parameter firsttimestep to 0
TCL: Setting parameter alchLambda to 0.4499999999999996
Info: NONBONDED TABLE R-SQUARED SPACING: 0.0625
Info: NONBONDED TABLE SIZE: 705 POINTS
TCL: Setting parameter alchLambda2 to 0.39999999999999963
Info: NONBONDED TABLE R-SQUARED SPACING: 0.0625
Info: NONBONDED TABLE SIZE: 705 POINTS
TCL: Running for 1500000 steps
ETITLE: TS BOND ANGLE DIHED IMPRP ELECT VDW BOUNDARY MISC KINETIC TOTAL TEMP POTENTIAL TOTALAVG TEMPAVG PRESSURE GPRESSURE VOLUME PRESSAVG GPRESSAVG
ENERGY: 0 3.0473 4.7557 5.9006 0.0000 -10505.4856 1297.7725 0.0000 0.0000 1770.5249 -7423.4846 302.8960 -9194.0095 -7423.4846 302.8960 -932.7580 -853.3146 30129.3174 -932.7580 -853.3146
ENERGY: 300000 1.7687 7.3907 7.1120 0.0000 -10769.4140 1473.0874 0.0000 0.0000 1817.7847 -7462.2704 310.9811 -9280.0551 -7482.4327 300.7938 570.6960 606.7862 29839.0425 -262.5428 -218.3120
ENERGY: 600000 3.0376 3.0735 4.8036 0.0000 -10653.0652 1395.0705 0.0000 0.0000 1745.7254 -7501.3546 298.6534 -9247.0800 -7471.7985 301.6867 -457.6334 -382.0728 30164.2031 -147.6468 -111.1173
ENERGY: 900000 2.4108 6.9412 3.1900 0.0000 -10643.1792 1411.9762 0.0000 0.0000 1726.2684 -7492.3926 295.3248 -9218.6610 -7472.9255 299.2405 -545.3267 -483.6149 30859.3550 -214.4321 -182.0825
ENERGY: 1200000 1.7940 6.5212 3.2851 0.0000 -10602.0035 1427.2840 0.0000 0.0000 1666.6545 -7496.4648 285.1262 -9163.1193 -7474.3541 298.6096 32.0236 111.9053 30316.6013 -185.3932 -148.7523
ENERGY: 1500000 5.1625 8.9479 4.6264 0.0000 -10826.6282 1510.5091 0.0000 0.0000 1759.6295 -7537.7529 301.0321 -9297.3824 -7481.8726 298.2848 382.4059 399.4806 29944.3621 -116.5457 -83.7784
TCL: Running FEP window  13: Lambda1 0.39999999999999963 Lambda2 0.34999999999999964 [dLambda -0.04999999999999999]
TCL: Setting parameter firsttimestep to 0
TCL: Setting parameter alchLambda to 0.39999999999999963
Info: NONBONDED TABLE R-SQUARED SPACING: 0.0625
Info: NONBONDED TABLE SIZE: 705 POINTS
TCL: Setting parameter alchLambda2 to 0.34999999999999964
Info: NONBONDED TABLE R-SQUARED SPACING: 0.0625
Info: NONBONDED TABLE SIZE: 705 POINTS
TCL: Running for 1500000 steps
ETITLE: TS BOND ANGLE DIHED IMPRP ELECT VDW BOUNDARY MISC KINETIC TOTAL TEMP POTENTIAL TOTALAVG TEMPAVG PRESSURE GPRESSURE VOLUME PRESSAVG GPRESSAVG
ENERGY: 0 5.1625 8.9479 4.6264 0.0000 -10826.6280 1510.4797 0.0000 0.0000 1758.7615 -7538.6500 300.8836 -9297.4115 -7538.6500 300.8836 318.3070 394.9296 29944.3621 318.3070 394.9296
ENERGY: 300000 1.0965 4.6601 6.4144 0.0000 -10722.6897 1490.0271 0.0000 0.0000 1716.6099 -7503.8817 293.6724 -9220.4916 -7530.7910 297.3401 337.8701 397.1017 30233.6293 135.4742 198.6605
ENERGY: 600000 1.8222 4.2809 2.8977 0.0000 -10825.1294 1511.6814 0.0000 0.0000 1745.0572 -7559.3900 298.5391 -9304.4471 -7549.1683 297.7565 570.0624 675.8268 29626.8782 90.4503 144.6839
ENERGY: 900000 2.9098 4.9535 4.3003 0.0000 -10797.7281 1525.6157 0.0000 0.0000 1788.6237 -7471.3253 305.9923 -9259.9490 -7520.8945 301.1728 406.3440 493.3425 30431.1357 153.5254 213.9821
ENERGY: 1200000 4.5999 6.7336 5.4377 0.0000 -10570.6268 1390.8516 0.0000 0.0000 1698.3679 -7464.6360 290.5516 -9163.0039 -7511.0504 300.5006 -162.0984 -122.6004 30206.7250 7.9457 64.0407
ENERGY: 1500000 2.5702 9.2820 2.2817 0.0000 -10746.5307 1471.2823 0.0000 0.0000 1729.8242 -7531.2904 295.9331 -9261.1145 -7514.0418 299.1076 -190.0770 -71.7130 30454.3995 -43.9681 17.1183
TCL: Running FEP window  14: Lambda1 0.34999999999999964 Lambda2 0.29999999999999966 [dLambda -0.04999999999999999]
TCL: Setting parameter firsttimestep to 0
TCL: Setting parameter alchLambda to 0.34999999999999964
Info: NONBONDED TABLE R-SQUARED SPACING: 0.0625
Info: NONBONDED TABLE SIZE: 705 POINTS
TCL: Setting parameter alchLambda2 to 0.29999999999999966
Info: NONBONDED TABLE R-SQUARED SPACING: 0.0625
Info: NONBONDED TABLE SIZE: 705 POINTS
TCL: Running for 1500000 steps
ETITLE: TS BOND ANGLE DIHED IMPRP ELECT VDW BOUNDARY MISC KINETIC TOTAL TEMP POTENTIAL TOTALAVG TEMPAVG PRESSURE GPRESSURE VOLUME PRESSAVG GPRESSAVG
ENERGY: 0 2.5702 9.2820 2.2817 0.0000 -10746.5305 1471.1763 0.0000 0.0000 1728.9314 -7532.2889 295.7803 -9261.2203 -7532.2889 295.7803 -166.1422 -78.5244 30454.3995 -166.1422 -78.5244
ENERGY: 300000 4.3600 5.4391 4.6400 0.0000 -10668.9022 1393.4372 0.0000 0.0000 1825.3613 -7435.6645 312.2773 -9261.0258 -7484.5261 300.4668 -114.8045 -78.8763 29987.2757 -44.1672 13.4436
ENERGY: 600000 2.9383 4.8073 7.6610 0.0000 -10696.9281 1400.3999 0.0000 0.0000 1773.3754 -7507.7462 303.3837 -9281.1217 -7465.8067 302.1233 -415.5519 -392.3328 30122.7001 19.6138 69.3620
ENERGY: 900000 2.4934 5.1529 6.3105 0.0000 -10824.5440 1514.3653 0.0000 0.0000 1830.9009 -7465.3210 313.2250 -9296.2219 -7471.8094 302.9636 691.5986 718.8354 29902.8953 123.3856 175.7917
ENERGY: 1200000 2.6193 8.6828 7.1652 0.0000 -10693.4694 1432.7539 0.0000 0.0000 1741.2852 -7500.9630 297.8938 -9242.2481 -7478.4251 301.6270 164.1982 207.7999 29839.2780 88.0098 142.5150
ENERGY: 1500000 1.8941 6.8813 5.7521 0.0000 -10535.2549 1365.8064 0.0000 0.0000 1742.5526 -7412.3683 298.1106 -9154.9209 -7478.3370 300.5916 -656.6164 -600.9430 31006.4784 -27.6282 28.6948
TCL: Running FEP window  15: Lambda1 0.29999999999999966 Lambda2 0.24999999999999967 [dLambda -0.04999999999999999]
TCL: Setting parameter firsttimestep to 0
TCL: Setting parameter alchLambda to 0.29999999999999966
Info: NONBONDED TABLE R-SQUARED SPACING: 0.0625
Info: NONBONDED TABLE SIZE: 705 POINTS
TCL: Setting parameter alchLambda2 to 0.24999999999999967
Info: NONBONDED TABLE R-SQUARED SPACING: 0.0625
Info: NONBONDED TABLE SIZE: 705 POINTS
TCL: Running for 1500000 steps
ETITLE: TS BOND ANGLE DIHED IMPRP ELECT VDW BOUNDARY MISC KINETIC TOTAL TEMP POTENTIAL TOTALAVG TEMPAVG PRESSURE GPRESSURE VOLUME PRESSAVG GPRESSAVG
ENERGY: 0 1.8941 6.8814 5.7521 0.0000 -10535.2548 1366.3284 0.0000 0.0000 1741.6441 -7412.7546 297.9552 -9154.3987 -7412.7546 297.9552 -687.4827 -604.4232 31006.4784 -687.4827 -604.4232
ENERGY: 300000 3.8154 4.1779 3.4312 0.0000 -10767.2949 1512.6456 0.0000 0.0000 1751.7684 -7491.4564 299.6872 -9243.2249 -7432.4516 302.9356 317.6221 392.0188 30070.8448 52.2445 119.0217
ENERGY: 600000 5.7023 5.6322 2.4347 0.0000 -10542.6475 1374.3318 0.0000 0.0000 1740.9916 -7413.5548 297.8436 -9154.5464 -7441.7001 302.6398 -719.0992 -580.1868 30553.1465 58.5846 145.4772
ENERGY: 900000 0.5084 4.6414 8.3801 0.0000 -10824.3385 1526.9562 0.0000 0.0000 1827.1424 -7456.7101 312.5820 -9283.8525 -7457.8000 302.5274 887.1198 945.8029 29588.8119 222.6319 298.0828
ENERGY: 1200000 4.6894 7.1244 4.1282 0.0000 -10686.7879 1470.5662 0.0000 0.0000 1825.8807 -7374.3989 312.3661 -9200.2796 -7437.9347 303.8910 575.8117 552.2375 29738.6121 168.0437 229.2570
ENERGY: 1500000 2.4794 5.8355 5.5333 0.0000 -10580.1271 1400.2838 0.0000 0.0000 1809.1584 -7356.8367 309.5053 -9165.9950 -7437.3022 304.3689 117.3096 236.6503 29796.1698 149.7922 214.1994
TCL: Running FEP window  16: Lambda1 0.24999999999999967 Lambda2 0.19999999999999968 [dLambda -0.04999999999999999]
TCL: Setting parameter firsttimestep to 0
TCL: Setting parameter alchLambda to 0.24999999999999967
Info: NONBONDED TABLE R-SQUARED SPACING: 0.0625
Info: NONBONDED TABLE SIZE: 705 POINTS
TCL: Setting parameter alchLambda2 to 0.19999999999999968
Info: NONBONDED TABLE R-SQUARED SPACING: 0.0625
Info: NONBONDED TABLE SIZE: 705 POINTS
TCL: Running for 1500000 steps
ETITLE: TS BOND ANGLE DIHED IMPRP ELECT VDW BOUNDARY MISC KINETIC TOTAL TEMP POTENTIAL TOTALAVG TEMPAVG PRESSURE GPRESSURE VOLUME PRESSAVG GPRESSAVG
ENERGY: 0 2.4794 5.8355 5.5333 0.0000 -10580.1274 1400.4919 0.0000 0.0000 1808.2704 -7357.5168 309.3534 -9165.7872 -7357.5168 309.3534 139.9888 234.2978 29796.1698 139.9888 234.2978
ENERGY: 300000 3.6955 3.2216 4.1301 0.0000 -10721.5822 1471.0867 0.0000 0.0000 1765.5696 -7473.8788 302.0483 -9239.4484 -7458.2234 300.3443 335.3061 415.9292 29978.9693 -183.4662 -93.3824
ENERGY: 600000 2.7832 6.0746 4.8636 0.0000 -10664.7258 1496.9955 0.0000 0.0000 1738.5405 -7415.4684 297.4242 -9154.0089 -7468.3302 300.3934 284.2136 331.7114 30919.5770 -169.9309 -109.6361
ENERGY: 900000 2.8022 6.4001 8.9173 0.0000 -10723.8555 1445.6379 0.0000 0.0000 1786.8742 -7473.2239 305.6930 -9260.0981 -7475.5045 300.9837 89.3702 84.5589 30235.6269 -112.5482 -58.7023
ENERGY: 1200000 3.4886 6.0604 6.2525 0.0000 -10722.9878 1477.7706 0.0000 0.0000 1706.0986 -7523.3171 291.8742 -9229.4158 -7485.1656 299.4665 306.3240 396.7987 30340.7579 5.3701 55.4501
ENERGY: 1500000 4.5767 2.1927 6.7031 0.0000 -10576.4114 1373.4121 0.0000 0.0000 1744.6312 -7444.8956 298.4662 -9189.5268 -7480.2721 299.4624 -684.6482 -560.4344 30599.4883 -67.2712 -5.2705
TCL: Running FEP window  17: Lambda1 0.19999999999999968 Lambda2 0.1499999999999997 [dLambda -0.04999999999999999]
TCL: Setting parameter firsttimestep to 0
TCL: Setting parameter alchLambda to 0.19999999999999968
Info: NONBONDED TABLE R-SQUARED SPACING: 0.0625
Info: NONBONDED TABLE SIZE: 705 POINTS
TCL: Setting parameter alchLambda2 to 0.1499999999999997
Info: NONBONDED TABLE R-SQUARED SPACING: 0.0625
Info: NONBONDED TABLE SIZE: 705 POINTS
TCL: Running for 1500000 steps
ETITLE: TS BOND ANGLE DIHED IMPRP ELECT VDW BOUNDARY MISC KINETIC TOTAL TEMP POTENTIAL TOTALAVG TEMPAVG PRESSURE GPRESSURE VOLUME PRESSAVG GPRESSAVG
ENERGY: 0 4.5767 2.1927 6.7031 0.0000 -10576.4107 1373.1740 0.0000 0.0000 1743.7363 -7446.0279 298.3131 -9189.7642 -7446.0279 298.3131 -654.2661 -562.5383 30599.4883 -654.2661 -562.5383
ENERGY: 300000 2.5751 8.0289 5.8711 0.0000 -10673.6556 1423.1154 0.0000 0.0000 1752.9528 -7481.1124 299.8898 -9234.0652 -7481.2272 299.9496 -95.6720 -31.3990 30014.3692 -84.0699 -3.7272
ENERGY: 600000 1.8681 7.3229 5.9587 0.0000 -10702.4105 1483.9893 0.0000 0.0000 1746.6980 -7456.5735 298.8198 -9203.2715 -7463.7861 301.0765 359.7740 440.2354 30002.6009 38.5065 102.6562
ENERGY: 900000 8.2096 4.8456 5.1231 0.0000 -10553.9262 1332.9912 0.0000 0.0000 1793.7255 -7409.0311 306.8651 -9202.7566 -7462.6497 301.1300 -766.0541 -735.0232 30245.5844 -187.9962 -125.5366
ENERGY: 1200000 3.0146 8.6737 7.8990 0.0000 -10650.1598 1425.6145 0.0000 0.0000 1743.1641 -7461.7939 298.2152 -9204.9580 -7455.4618 301.7798 -234.3254 -154.9109 30601.3502 -230.6321 -161.1889
ENERGY: 1500000 1.2483 7.4902 5.6085 0.0000 -10805.5384 1444.3291 0.0000 0.0000 1764.7582 -7582.1041 301.9095 -9346.8624 -7452.2132 302.0681 -96.9908 -21.1537 29752.2322 -172.9495 -100.0428
TCL: Running FEP window  18: Lambda1 0.1499999999999997 Lambda2 0.09999999999999969 [dLambda -0.05 ]
TCL: Setting parameter firsttimestep to 0
TCL: Setting parameter alchLambda to 0.1499999999999997
Info: NONBONDED TABLE R-SQUARED SPACING: 0.0625
Info: NONBONDED TABLE SIZE: 705 POINTS
TCL: Setting parameter alchLambda2 to 0.09999999999999969
Info: NONBONDED TABLE R-SQUARED SPACING: 0.0625
Info: NONBONDED TABLE SIZE: 705 POINTS
TCL: Running for 1500000 steps
ETITLE: TS BOND ANGLE DIHED IMPRP ELECT VDW BOUNDARY MISC KINETIC TOTAL TEMP POTENTIAL TOTALAVG TEMPAVG PRESSURE GPRESSURE VOLUME PRESSAVG GPRESSAVG
ENERGY: 0 1.2483 7.4902 5.6085 0.0000 -10805.5381 1443.9943 0.0000 0.0000 1763.9059 -7583.2909 301.7637 -9347.1968 -7583.2909 301.7637 -98.4447 -25.2260 29752.2322 -98.4447 -25.2260
ENERGY: 300000 1.2510 4.6189 6.2863 0.0000 -10678.3052 1441.1062 0.0000 0.0000 1825.0237 -7400.0191 312.2195 -9225.0428 -7440.5582 306.9046 194.3284 243.2567 30093.2687 -174.7565 -118.3272
ENERGY: 600000 1.3428 7.0673 4.6399 0.0000 -10731.9434 1421.3508 0.0000 0.0000 1757.6973 -7539.8453 300.7015 -9297.5426 -7458.8471 303.5046 -59.3389 -65.6285 29869.6912 -37.9534 3.6618
ENERGY: 900000 1.3859 7.5902 5.4354 0.0000 -10777.5357 1500.6205 0.0000 0.0000 1720.0421 -7542.4616 294.2596 -9262.5038 -7473.5119 302.2992 486.9745 552.1592 29828.5622 85.9895 128.0112
ENERGY: 1200000 1.4600 6.5576 2.9228 0.0000 -10626.8252 1369.2543 0.0000 0.0000 1750.0556 -7496.5750 299.3942 -9246.6305 -7483.6499 301.3328 -509.7892 -449.2007 29913.4455 26.0876 77.2523
ENERGY: 1500000 2.2521 4.8249 4.2031 0.0000 -10598.8081 1381.3765 0.0000 0.0000 1742.8491 -7463.3024 298.1613 -9206.1515 -7480.1944 300.5390 -226.4692 -184.6704 30168.1056 37.6364 88.0397
TCL: Running FEP window  19: Lambda1 0.09999999999999969 Lambda2 0.049999999999999684 [dLambda -0.05 ]
TCL: Setting parameter firsttimestep to 0
TCL: Setting parameter alchLambda to 0.09999999999999969
Info: NONBONDED TABLE R-SQUARED SPACING: 0.0625
Info: NONBONDED TABLE SIZE: 705 POINTS
TCL: Setting parameter alchLambda2 to 0.049999999999999684
Info: NONBONDED TABLE R-SQUARED SPACING: 0.0625
Info: NONBONDED TABLE SIZE: 705 POINTS
TCL: Running for 1500000 steps
ETITLE: TS BOND ANGLE DIHED IMPRP ELECT VDW BOUNDARY MISC KINETIC TOTAL TEMP POTENTIAL TOTALAVG TEMPAVG PRESSURE GPRESSURE VOLUME PRESSAVG GPRESSAVG
ENERGY: 0 2.2522 4.8249 4.2031 0.0000 -10598.8085 1381.1764 0.0000 0.0000 1741.9843 -7464.3678 298.0134 -9206.3520 -7464.3678 298.0134 -275.4627 -190.9274 30168.1056 -275.4627 -190.9274
ENERGY: 300000 2.5401 7.0263 6.4511 0.0000 -10735.6311 1493.4659 0.0000 0.0000 1808.9112 -7417.2366 309.4630 -9226.1477 -7440.7698 303.3499 347.2777 348.5999 30064.5346 -212.8343 -151.2113
ENERGY: 600000 1.9650 5.1409 2.8924 0.0000 -10644.9615 1368.0871 0.0000 0.0000 1697.4224 -7569.4536 290.3899 -9266.8761 -7470.1194 300.8655 -664.9905 -653.5536 30188.3471 -349.5818 -287.2582
ENERGY: 900000 4.7396 8.5863 2.4634 0.0000 -10636.0070 1460.7587 0.0000 0.0000 1726.7366 -7432.7224 295.4049 -9159.4590 -7458.1715 300.8591 36.8005 125.3303 30319.7853 -247.1675 -184.9584
ENERGY: 1200000 4.3176 3.0406 2.3872 0.0000 -10652.1294 1397.7685 0.0000 0.0000 1744.8254 -7499.7901 298.4994 -9244.6156 -7464.3923 300.4984 -509.5977 -428.4709 30087.5085 -196.3321 -135.6047
ENERGY: 1500000 2.2096 6.1434 5.4228 0.0000 -10574.3181 1429.7915 0.0000 0.0000 1760.1334 -7370.6174 301.1183 -9130.7508 -7465.3081 299.9197 -125.5485 -42.4332 30347.9945 -248.5090 -182.2635
TCL: Running FEP window  20: Lambda1 0.049999999999999684 Lambda2 0.0    [dLambda -0.049999999999999684]
TCL: Setting parameter firsttimestep to 0
TCL: Setting parameter alchLambda to 0.049999999999999684
Info: NONBONDED TABLE R-SQUARED SPACING: 0.0625
Info: NONBONDED TABLE SIZE: 705 POINTS
TCL: Setting parameter alchLambda2 to 0.0
Info: NONBONDED TABLE R-SQUARED SPACING: 0.0625
Info: NONBONDED TABLE SIZE: 705 POINTS
TCL: Running for 1500000 steps
ETITLE: TS BOND ANGLE DIHED IMPRP ELECT VDW BOUNDARY MISC KINETIC TOTAL TEMP POTENTIAL TOTALAVG TEMPAVG PRESSURE GPRESSURE VOLUME PRESSAVG GPRESSAVG
ENERGY: 0 2.2096 6.1434 5.4228 0.0000 -10574.3188 1427.9533 0.0000 0.0000 1759.2495 -7373.3402 300.9671 -9132.5897 -7373.3402 300.9671 -132.1458 -50.8037 30347.9945 -132.1458 -50.8037
ENERGY: 300000 2.5292 4.9593 6.0250 0.0000 -10714.6733 1481.6116 0.0000 0.0000 1761.6325 -7457.9157 301.3747 -9219.5482 -7443.1057 300.7667 555.9664 641.2309 29758.8228 45.0675 100.7339
ENERGY: 600000 3.5547 7.0606 5.3861 0.0000 -10623.4467 1410.8193 0.0000 0.0000 1719.9214 -7476.7045 294.2389 -9196.6259 -7444.8267 299.9106 -411.1848 -321.5243 30413.4770 -104.7397 -40.4775
ENERGY: 900000 2.8384 8.6362 5.1003 0.0000 -10665.7214 1397.4093 0.0000 0.0000 1740.2363 -7511.5009 297.7143 -9251.7372 -7453.1023 299.8734 -312.5491 -245.8658 30066.2202 -139.0241 -73.4057
ENERGY: 1200000 2.4641 6.3246 6.1162 0.0000 -10680.1016 1408.0006 0.0000 0.0000 1763.2165 -7493.9795 301.6457 -9257.1960 -7472.1485 300.3987 -345.4620 -276.8298 30022.7377 -171.2694 -100.1940
ENERGY: 1500000 9.3301 12.4968 6.7021 0.0000 -10671.3439 1390.7328 0.0000 0.0000 1785.2493 -7466.8328 305.4150 -9252.0820 -7471.6809 300.6234 -753.4547 -661.4808 30357.9683 -212.8416 -138.0250
TCL: Exiting due to exit command.
