Info: SIMULATION PARAMETERS:
Info: TIMESTEP               2
Info: NUMBER OF STEPS        0
Info: STEPS PER CYCLE        10
Info: PERIODIC CELL BASIS 1  30.4432 0 0
Info: PERIODIC CELL BASIS 2  0 29.8514 0
Info: PERIODIC CELL BASIS 3  0 0 33.4967
Info: PERIODIC CELL CENTER   0 0 0
Info: WRAPPING WATERS AROUND PERIODIC BOUNDARIES ON OUTPUT.
Info: WRAPPING ALL CLUSTERS AROUND PERIODIC BOUNDARIES ON OUTPUT.
Info: FIRST LDB TIMESTEP     50
Info: LAST LDB TIMESTEP     -1
Info: HOM BACKGROUND SCALING 1
Info: PME BACKGROUND SCALING 1
Info: MIN ATOMS PER PATCH    40
Info: EMPTY PATCH LOAD       40 ATOMS
Info: VELOCITY FILE          mobley_1449384_equil.vel
Info: CENTER OF MASS MOVING INITIALLY? NO
Info: DIELECTRIC             1
Info: EXCLUDE                SCALED ONE-FOUR
Info: 1-4 ELECTROSTATICS SCALED BY 0.833333
Info: MODIFIED 1-4 VDW PARAMETERS WILL BE USED
Info: DCD FILENAME           mobley_1449384_prod.dcd
Info: DCD FREQUENCY          100000
Info: DCD FIRST STEP         100000
Info: DCD FILE WILL CONTAIN UNIT CELL DATA
Info: XST FILENAME           mobley_1449384_prod.xst
Info: XST FREQUENCY          100000
Info: NO VELOCITY DCD OUTPUT
Info: NO FORCE DCD OUTPUT
Info: OUTPUT FILENAME        mobley_1449384_prod
Info: BINARY OUTPUT FILES WILL BE USED
Info: RESTART FILENAME       mobley_1449384_prod.restart
Info: RESTART FREQUENCY      100000
Info: BINARY RESTART FILES WILL BE USED
Info: CUTOFF                 9
Info: PAIRLIST DISTANCE      11
Info: PAIRLIST SHRINK RATE   0.01
Info: PAIRLIST GROW RATE     0.01
Info: PAIRLIST TRIGGER       0.3
Info: PAIRLISTS PER CYCLE    2
Info: PAIRLISTS ENABLED
Info: MARGIN                 2
Info: HYDROGEN GROUP CUTOFF  2.5
Info: PATCH DIMENSION        15.5
Info: ENERGY OUTPUT STEPS    100000
Info: ENERGY EVALUATION STEPS    100000
Info: OUTPUT ENERGY PRECISION 4
Info: CROSSTERM ENERGY INCLUDED IN DIHEDRAL
Info: TIMING OUTPUT STEPS    1000000
Info: PRESSURE OUTPUT STEPS  100000
Info: ALCHEMICAL FEP ON
Info: FEP CURRENT LAMBDA VALUE     0
Info: FEP COMPARISON LAMBDA VALUE  0.05
Info: FEP INTRA-ALCHEMICAL NON-BONDED INTERACTIONS WILL BE RETAINED
Info: FEP INTRA-ALCHEMICAL BONDED INTERACTIONS WILL BE RETAINED
Info: FEP VDW SHIFTING COEFFICIENT 5
Info: FEP ELEC. ACTIVE FOR ANNIHILATED PARTICLES BETWEEN LAMBDA = 0 AND LAMBDA = 0.5
Info: FEP ELEC. ACTIVE FOR EXNIHILATED PARTICLES BETWEEN LAMBDA = 0.5 AND LAMBDA = 1
Info: FEP VDW ACTIVE FOR ANNIHILATED PARTICLES BETWEEN LAMBDA = 0 AND LAMBDA = 1
Info: FEP VDW ACTIVE FOR EXNIHILATED PARTICLES BETWEEN LAMBDA = 0 AND LAMBDA = 1
Info: FEP BOND ACTIVE FOR ANNIHILATED PARTICLES BETWEEN LAMBDA = 1 AND LAMBDA = 1
Info: FEP BOND ACTIVE FOR EXNIHILATED PARTICLES BETWEEN LAMBDA = 0 AND LAMBDA = 0
Info: LANGEVIN DYNAMICS ACTIVE
Info: LANGEVIN TEMPERATURE   300
Info: LANGEVIN USING BBK INTEGRATOR
Info: LANGEVIN DAMPING COEFFICIENT IS 1 INVERSE PS
Info: LANGEVIN DYNAMICS APPLIED TO HYDROGENS
Info: LANGEVIN PISTON PRESSURE CONTROL ACTIVE
Info:        TARGET PRESSURE IS 1.01325 BAR
Info:     OSCILLATION PERIOD IS 50 FS
Info:             DECAY TIME IS 25 FS
Info:     PISTON TEMPERATURE IS 300 K
Info:       PRESSURE CONTROL IS GROUP-BASED
Info:    INITIAL STRAIN RATE IS 0.000407624 0.000407624 0.000407624
Info:       CELL FLUCTUATION IS ISOTROPIC
Info: PARTICLE MESH EWALD (PME) ACTIVE
Info: PME TOLERANCE               1e-06
Info: PME EWALD COEFFICIENT       0.348832
Info: PME INTERPOLATION ORDER     4
Info: PME GRID DIMENSIONS         32 32 36
Info: PME MAXIMUM GRID SPACING    1
Info: PME CALCULATION WILL BE PERFORMED ON GPU
Info: FULL ELECTROSTATIC EVALUATION FREQUENCY      2
Info: USING VERLET I (r-RESPA) MTS SCHEME.
Info: C1 SPLITTING OF LONG RANGE ELECTROSTATICS
Info: PLACING ATOMS IN PATCHES BY HYDROGEN GROUPS
Info: RIGID BONDS TO HYDROGEN : ALL
Info:         ERROR TOLERANCE : 1e-08
Info:          MAX ITERATIONS : 100
Info: RIGID WATER USING SETTLE ALGORITHM
Info: RANDOM NUMBER SEED     1743812813
Info: USE HYDROGEN BONDS?    NO
Info: Using AMBER format force field!
Info: AMBER PARM FILE        mobley_1449384.prmtop
Info: COORDINATE PDB         mobley_1449384.pdb
Info: Exclusions will be read from PARM file!
Info: SCNB (VDW SCALING)     2
Info: USING ARITHMETIC MEAN TO COMBINE L-J SIGMA PARAMETERS
Info: BINARY COORDINATES     mobley_1449384_equil.coor
Info: SUMMARY OF PARAMETERS:
Info: 7 BONDS
Info: 8 ANGLES
Info:   8 HARMONIC
Info:   0 COSINE-BASED
Info: 6 DIHEDRAL
Info: 0 IMPROPER
Info: 0 CROSSTERM
Info: 0 VDW
Info: 21 VDW_PAIRS
Info: 0 NBTHOLE_PAIRS
Info: To read alchdata from file: mobley_1449384.pdb
Info: To read alchflag data from column: 5
Info: STRUCTURE SUMMARY:
Info: 2964 ATOMS
Info: 2964 BONDS
Info: 42 ANGLES
Info: 60 DIHEDRALS
Info: 0 IMPROPERS
Info: 0 CROSSTERMS
Info: 3057 EXCLUSIONS
Info: 2954 RIGID BONDS
Info: ALCH: 0 ATOMS TO DISAPPEAR IN FINAL STATE
Info: ALCH: 24 ATOMS TO APPEAR IN FINAL STATE
Info: 5938 DEGREES OF FREEDOM
Info: 990 HYDROGEN GROUPS
Info: 4 ATOMS IN LARGEST HYDROGEN GROUP
Info: 990 MIGRATION GROUPS
Info: 4 ATOMS IN LARGEST MIGRATION GROUP
Info: TOTAL MASS = 17789.9 amu
Info: TOTAL CHARGE = 5.21541e-08 e
Info: MASS DENSITY = 0.970456 g/cm^3
Info: ATOM DENSITY = 0.0973691 atoms/A^3
Info: ADDED 0 IMPLICIT EXCLUSIONS
Info: NONBONDED TABLE R-SQUARED SPACING: 0.0625
Info: NONBONDED TABLE SIZE: 705 POINTS
Info: REMOVING COM VELOCITY -0.109042 -0.0777376 -0.13411
Info: Use 3D box decompostion in PME FFT.
Info: Updated CUDA force table with 4096 elements.
Info: Updated CUDA LJ table with 6 x 6 elements.
Info: Found 26 unique exclusion lists needing 80 bytes
TCL: Running for 1500000 steps
ETITLE: TS BOND ANGLE DIHED IMPRP ELECT VDW BOUNDARY MISC KINETIC TOTAL TEMP POTENTIAL TOTALAVG TEMPAVG PRESSURE GPRESSURE VOLUME PRESSAVG GPRESSAVG
ENERGY: 0 4.6408 12.2705 6.0613 0.0000 -10664.0378 1388.0019 0.0000 0.0000 1760.9527 -7492.1105 298.4681 -9253.0632 -7492.1105 298.4681 -692.6819 -602.4722 30440.8603 -692.6819 -602.4722
ENERGY: 300000 4.6773 5.2780 2.8878 0.0000 -10778.3895 1501.0839 0.0000 0.0000 1794.8323 -7469.6303 304.2104 -9264.4626 -7484.1534 300.2006 477.4695 513.8358 30220.3798 58.4139 109.8955
ENERGY: 600000 6.9344 15.7212 4.8711 0.0000 -10637.1758 1403.7847 0.0000 0.0000 1749.6334 -7456.2310 296.5495 -9205.8645 -7467.3160 299.8445 -461.1073 -338.1327 30232.6313 -89.6795 -25.5456
ENERGY: 900000 1.2782 9.0538 5.9256 0.0000 -10621.3003 1371.8771 0.0000 0.0000 1770.9268 -7462.2389 300.1586 -9233.1657 -7466.1559 299.7765 -493.5243 -475.0810 30446.2908 -112.0623 -49.3916
ENERGY: 1200000 2.4773 8.8898 3.3860 0.0000 -10729.0158 1462.5620 0.0000 0.0000 1820.5205 -7431.1802 308.5644 -9251.7006 -7474.1911 300.1628 -97.9282 -66.8738 30581.4296 -114.4386 -51.8522
ENERGY: 1500000 3.8016 8.1841 2.8806 0.0000 -10821.0916 1492.0927 0.0000 0.0000 1767.7611 -7546.3715 299.6220 -9314.1326 -7480.0385 300.6187 109.3212 183.5048 30352.9173 -88.2415 -24.7479
TCL: Running FEP window   2: Lambda1 0.05   Lambda2 0.1    [dLambda 0.05  ]
TCL: Setting parameter firsttimestep to 0
TCL: Setting parameter alchLambda to 0.05
Info: NONBONDED TABLE R-SQUARED SPACING: 0.0625
Info: NONBONDED TABLE SIZE: 705 POINTS
TCL: Setting parameter alchLambda2 to 0.1
Info: NONBONDED TABLE R-SQUARED SPACING: 0.0625
Info: NONBONDED TABLE SIZE: 705 POINTS
TCL: Running for 1500000 steps
ETITLE: TS BOND ANGLE DIHED IMPRP ELECT VDW BOUNDARY MISC KINETIC TOTAL TEMP POTENTIAL TOTALAVG TEMPAVG PRESSURE GPRESSURE VOLUME PRESSAVG GPRESSAVG
ENERGY: 0 3.8016 8.1841 2.8806 0.0000 -10821.0939 1497.9205 0.0000 0.0000 1766.8432 -7541.4639 299.4665 -9308.3071 -7541.4639 299.4665 107.5543 197.0567 30352.9173 107.5543 197.0567
ENERGY: 300000 3.1777 7.9857 3.1222 0.0000 -10791.2173 1480.7914 0.0000 0.0000 1731.1302 -7565.0101 293.4134 -9296.1402 -7523.4620 297.5078 174.8137 265.2342 29925.0728 -74.9022 12.8071
ENERGY: 600000 2.6195 8.6165 3.9550 0.0000 -10761.9201 1471.4245 0.0000 0.0000 1770.2983 -7505.0064 300.0521 -9275.3047 -7524.3701 297.2929 24.5025 49.2497 30737.9898 -82.7896 -11.4309
ENERGY: 900000 2.7023 11.1509 1.7057 0.0000 -10575.0804 1382.4177 0.0000 0.0000 1742.2857 -7434.8180 295.3042 -9177.1037 -7505.4192 296.8501 -381.0131 -353.5324 30466.6805 -92.1717 -38.0835
ENERGY: 1200000 3.1228 10.6745 3.7458 0.0000 -10675.3998 1396.5766 0.0000 0.0000 1774.9405 -7486.3395 300.8389 -9261.2800 -7505.9713 298.0875 -515.2344 -507.8243 30117.0301 -51.4755 1.3824
ENERGY: 1500000 2.2365 8.4215 2.5991 0.0000 -10653.7711 1373.7579 0.0000 0.0000 1748.5779 -7518.1783 296.3706 -9266.7562 -7496.9725 298.3360 -444.2295 -380.2876 29919.6382 -119.6756 -64.2149
TCL: Running FEP window   3: Lambda1 0.1    Lambda2 0.15000000000000002 [dLambda 0.05000000000000002]
TCL: Setting parameter firsttimestep to 0
TCL: Setting parameter alchLambda to 0.1
Info: NONBONDED TABLE R-SQUARED SPACING: 0.0625
Info: NONBONDED TABLE SIZE: 705 POINTS
TCL: Setting parameter alchLambda2 to 0.15000000000000002
Info: NONBONDED TABLE R-SQUARED SPACING: 0.0625
Info: NONBONDED TABLE SIZE: 705 POINTS
TCL: Running for 1500000 steps
ETITLE: TS BOND ANGLE DIHED IMPRP ELECT VDW BOUNDARY MISC KINETIC TOTAL TEMP POTENTIAL TOTALAVG TEMPAVG PRESSURE GPRESSURE VOLUME PRESSAVG GPRESSAVG
ENERGY: 0 2.2365 8.4215 2.5991 0.0000 -10653.7736 1374.2133 0.0000 0.0000 1747.6780 -7518.6252 296.2181 -9266.3032 -7518.6252 296.2181 -441.4877 -373.3935 29919.6382 -441.4877 -373.3935
ENERGY: 300000 3.2187 13.4302 3.0482 0.0000 -10860.9308 1544.9579 0.0000 0.0000 1751.7563 -7544.5195 296.9094 -9296.2758 -7497.5867 298.1186 600.5217 618.0518 30045.9268 -177.1052 -136.2402
ENERGY: 600000 4.6860 10.2090 3.6278 0.0000 -10642.9725 1392.2060 0.0000 0.0000 1773.1167 -7459.1270 300.5298 -9232.2437 -7493.7284 298.9457 -324.0933 -314.7737 30256.7168 -162.9239 -126.4316
ENERGY: 900000 4.2708 12.6781 4.5924 0.0000 -10673.6844 1441.2315 0.0000 0.0000 1738.1849 -7472.7266 294.6091 -9210.9115 -7488.3597 299.3699 33.4550 77.7248 30289.3807 -104.8781 -66.0505
ENERGY: 1200000 3.0359 8.2454 2.8021 0.0000 -10766.6992 1473.3939 0.0000 0.0000 1795.3418 -7483.8801 304.2968 -9279.2218 -7493.8333 299.4846 456.1596 518.3486 29714.5833 -75.4202 -29.3124
ENERGY: 1500000 2.3565 10.6461 1.9637 0.0000 -10657.0771 1369.7709 0.0000 0.0000 1741.3078 -7531.0321 295.1384 -9272.3400 -7492.8311 299.9333 -704.0059 -640.3955 30198.6516 -123.7626 -75.2142
TCL: Running FEP window   4: Lambda1 0.15000000000000002 Lambda2 0.2    [dLambda 0.04999999999999999]
TCL: Setting parameter firsttimestep to 0
TCL: Setting parameter alchLambda to 0.15000000000000002
Info: NONBONDED TABLE R-SQUARED SPACING: 0.0625
Info: NONBONDED TABLE SIZE: 705 POINTS
TCL: Setting parameter alchLambda2 to 0.2
Info: NONBONDED TABLE R-SQUARED SPACING: 0.0625
Info: NONBONDED TABLE SIZE: 705 POINTS
TCL: Running for 1500000 steps
ETITLE: TS BOND ANGLE DIHED IMPRP ELECT VDW BOUNDARY MISC KINETIC TOTAL TEMP POTENTIAL TOTALAVG TEMPAVG PRESSURE GPRESSURE VOLUME PRESSAVG GPRESSAVG
ENERGY: 0 2.3565 10.6461 1.9637 0.0000 -10657.0754 1371.5969 0.0000 0.0000 1740.4627 -7530.0495 294.9952 -9270.5122 -7530.0495 294.9952 -698.2370 -631.4480 30198.6516 -698.2370 -631.4480
ENERGY: 300000 4.2084 10.6113 1.6527 0.0000 -10761.9969 1470.3595 0.0000 0.0000 1788.0106 -7487.1543 303.0542 -9275.1649 -7489.8027 299.2919 195.4876 238.6073 30281.1360 -353.0057 -278.6775
ENERGY: 600000 3.8113 8.7134 3.7739 0.0000 -10769.8014 1434.9190 0.0000 0.0000 1765.1864 -7553.3974 299.1857 -9318.5838 -7513.4216 299.9021 -43.2406 -4.4522 30090.5775 -191.0562 -117.1513
ENERGY: 900000 4.9403 11.7663 1.5688 0.0000 -10644.5800 1365.8743 0.0000 0.0000 1700.9564 -7559.4740 288.2992 -9260.4304 -7509.9093 299.0756 -779.9535 -694.1174 30005.5137 -229.9250 -155.6048
ENERGY: 1200000 2.9884 8.7171 1.9426 0.0000 -10628.7648 1347.6658 0.0000 0.0000 1728.0131 -7539.4379 292.8851 -9267.4510 -7499.6912 299.5585 -1142.7972 -1108.0821 30972.2839 -271.5841 -208.7148
ENERGY: 1500000 4.7922 7.9710 3.8602 0.0000 -10690.7077 1405.9062 0.0000 0.0000 1769.6206 -7498.5576 299.9372 -9268.1782 -7493.7276 299.3484 -67.0661 -95.9504 30142.3848 -193.5901 -135.8321
TCL: Running FEP window   5: Lambda1 0.2    Lambda2 0.25   [dLambda 0.04999999999999999]
TCL: Setting parameter firsttimestep to 0
TCL: Setting parameter alchLambda to 0.2
Info: NONBONDED TABLE R-SQUARED SPACING: 0.0625
Info: NONBONDED TABLE SIZE: 705 POINTS
TCL: Setting parameter alchLambda2 to 0.25
Info: NONBONDED TABLE R-SQUARED SPACING: 0.0625
Info: NONBONDED TABLE SIZE: 705 POINTS
TCL: Running for 1500000 steps
ETITLE: TS BOND ANGLE DIHED IMPRP ELECT VDW BOUNDARY MISC KINETIC TOTAL TEMP POTENTIAL TOTALAVG TEMPAVG PRESSURE GPRESSURE VOLUME PRESSAVG GPRESSAVG
ENERGY: 0 4.7922 7.9710 3.8602 0.0000 -10690.7079 1407.4099 0.0000 0.0000 1768.7153 -7497.9594 299.7838 -9266.6746 -7497.9594 299.7838 -150.7116 -86.3213 30142.3848 -150.7116 -86.3213
ENERGY: 300000 4.1337 7.7667 4.0807 0.0000 -10924.1577 1573.4174 0.0000 0.0000 1754.5205 -7580.2388 297.3779 -9334.7593 -7500.9821 301.8064 900.3311 973.8866 29844.2115 246.3820 311.4501
ENERGY: 600000 4.6683 10.2939 2.8940 0.0000 -10782.5691 1492.0995 0.0000 0.0000 1769.0110 -7503.6024 299.8339 -9272.6134 -7492.8481 300.2927 224.8771 281.2589 30034.8677 169.8696 241.8784
ENERGY: 900000 4.1807 10.4401 5.1892 0.0000 -10551.8902 1368.7427 0.0000 0.0000 1732.2390 -7431.0985 293.6013 -9163.3375 -7489.9514 300.7099 -672.0289 -646.9695 30627.3520 90.4897 160.1175
ENERGY: 1200000 0.9670 7.0098 2.2021 0.0000 -10766.8406 1470.1229 0.0000 0.0000 1831.3968 -7455.1421 310.4078 -9286.5388 -7478.5558 301.5537 370.5425 384.7098 29830.9631 67.6910 133.2134
ENERGY: 1500000 5.2023 9.4336 3.5763 0.0000 -10638.2428 1369.9055 0.0000 0.0000 1786.4639 -7463.6611 302.7920 -9250.1250 -7472.6065 302.1974 -639.4725 -650.1402 30358.1622 -84.2454 -22.3783
TCL: Running FEP window   6: Lambda1 0.25   Lambda2 0.3    [dLambda 0.04999999999999999]
TCL: Setting parameter firsttimestep to 0
TCL: Setting parameter alchLambda to 0.25
Info: NONBONDED TABLE R-SQUARED SPACING: 0.0625
Info: NONBONDED TABLE SIZE: 705 POINTS
TCL: Setting parameter alchLambda2 to 0.3
Info: NONBONDED TABLE R-SQUARED SPACING: 0.0625
Info: NONBONDED TABLE SIZE: 705 POINTS
TCL: Running for 1500000 steps
ETITLE: TS BOND ANGLE DIHED IMPRP ELECT VDW BOUNDARY MISC KINETIC TOTAL TEMP POTENTIAL TOTALAVG TEMPAVG PRESSURE GPRESSURE VOLUME PRESSAVG GPRESSAVG
ENERGY: 0 5.2024 9.4336 3.5763 0.0000 -10638.2413 1371.0590 0.0000 0.0000 1785.5942 -7463.3758 302.6446 -9248.9700 -7463.3758 302.6446 -715.9386 -638.9452 30358.1622 -715.9386 -638.9452
ENERGY: 300000 1.8727 5.2637 3.5522 0.0000 -10798.1436 1554.4988 0.0000 0.0000 1758.7271 -7474.2293 298.0908 -9232.9564 -7442.9466 301.1349 760.7189 828.4707 30481.8857 -391.3743 -315.1690
ENERGY: 600000 4.1439 6.7744 4.9767 0.0000 -10632.6703 1408.2846 0.0000 0.0000 1756.4949 -7451.9958 297.7125 -9208.4908 -7451.2341 299.8759 -339.3908 -251.3308 30401.1079 -137.5638 -64.5161
ENERGY: 900000 4.1220 8.1392 2.5187 0.0000 -10595.1579 1372.1165 0.0000 0.0000 1775.3481 -7432.9133 300.9080 -9208.2614 -7458.9587 300.1887 -428.0609 -367.9142 30361.5598 -144.6976 -72.3682
ENERGY: 1200000 4.5260 9.0683 2.2385 0.0000 -10622.1459 1369.4182 0.0000 0.0000 1740.1941 -7496.7007 294.9497 -9236.8948 -7460.0291 301.0834 -851.6260 -763.3427 30867.9089 -117.5268 -46.2514
ENERGY: 1500000 1.9071 10.5251 3.5995 0.0000 -10824.1439 1521.3440 0.0000 0.0000 1732.9981 -7553.7701 293.7300 -9286.7683 -7468.7432 300.4862 429.3899 482.4338 30310.9958 -20.5800 46.1097
TCL: Running FEP window   7: Lambda1 0.3    Lambda2 0.35   [dLambda 0.04999999999999999]
TCL: Setting parameter firsttimestep to 0
TCL: Setting parameter alchLambda to 0.3
Info: NONBONDED TABLE R-SQUARED SPACING: 0.0625
Info: NONBONDED TABLE SIZE: 705 POINTS
TCL: Setting parameter alchLambda2 to 0.35
Info: NONBONDED TABLE R-SQUARED SPACING: 0.0625
Info: NONBONDED TABLE SIZE: 705 POINTS
TCL: Running for 1500000 steps
ETITLE: TS BOND ANGLE DIHED IMPRP ELECT VDW BOUNDARY MISC KINETIC TOTAL TEMP POTENTIAL TOTALAVG TEMPAVG PRESSURE GPRESSURE VOLUME PRESSAVG GPRESSAVG
ENERGY: 0 1.9071 10.5251 3.5995 0.0000 -10824.1455 1520.7840 0.0000 0.0000 1732.1204 -7555.2095 293.5812 -9287.3298 -7555.2095 293.5812 413.3329 481.5285 30310.9958 413.3329 481.5285
ENERGY: 300000 7.4621 10.8113 2.7411 0.0000 -10842.8111 1494.7488 0.0000 0.0000 1755.1366 -7571.9113 297.4823 -9327.0478 -7519.1637 297.1741 446.8798 539.7442 30031.5640 136.5096 221.1963
ENERGY: 600000 1.8237 8.0619 3.9212 0.0000 -10792.7531 1437.2673 0.0000 0.0000 1762.1386 -7579.5405 298.6691 -9341.6790 -7511.0751 299.2271 -323.7798 -264.3804 30545.3455 208.6964 288.9453
ENERGY: 900000 2.9972 6.8259 3.7559 0.0000 -10827.7596 1505.4458 0.0000 0.0000 1733.8694 -7574.8654 293.8777 -9308.7347 -7501.0497 299.9740 36.2896 88.2711 30708.9555 184.9559 256.8625
ENERGY: 1200000 5.0041 9.5310 4.6167 0.0000 -10684.9676 1452.8476 0.0000 0.0000 1764.2093 -7448.7590 299.0200 -9212.9683 -7487.7334 300.6681 -93.9648 -30.2992 30662.4810 159.8424 231.6677
ENERGY: 1500000 2.8897 9.0870 3.0820 0.0000 -10671.9642 1394.8411 0.0000 0.0000 1773.4578 -7488.6065 300.5876 -9262.0643 -7485.4678 301.3642 -547.3703 -433.4698 30664.1122 135.2306 205.3994
TCL: Running FEP window   8: Lambda1 0.35   Lambda2 0.39999999999999997 [dLambda 0.04999999999999999]
TCL: Setting parameter firsttimestep to 0
TCL: Setting parameter alchLambda to 0.35
Info: NONBONDED TABLE R-SQUARED SPACING: 0.0625
Info: NONBONDED TABLE SIZE: 705 POINTS
TCL: Setting parameter alchLambda2 to 0.39999999999999997
Info: NONBONDED TABLE R-SQUARED SPACING: 0.0625
Info: NONBONDED TABLE SIZE: 705 POINTS
TCL: Running for 1500000 steps
ETITLE: TS BOND ANGLE DIHED IMPRP ELECT VDW BOUNDARY MISC KINETIC TOTAL TEMP POTENTIAL TOTALAVG TEMPAVG PRESSURE GPRESSURE VOLUME PRESSAVG GPRESSAVG
ENERGY: 0 2.8897 9.0870 3.0820 0.0000 -10671.9652 1395.1521 0.0000 0.0000 1772.5714 -7489.1830 300.4373 -9261.7543 -7489.1830 300.4373 -505.7551 -425.2837 30664.1122 -505.7551 -425.2837
ENERGY: 300000 3.3462 7.1312 2.7263 0.0000 -10660.0495 1373.8214 0.0000 0.0000 1764.7718 -7508.2527 299.1154 -9273.0244 -7483.2791 299.3319 -587.8529 -465.2837 30273.0790 -204.8109 -108.7754
ENERGY: 600000 3.2077 9.9413 2.3724 0.0000 -10653.8008 1501.2550 0.0000 0.0000 1797.5003 -7339.5241 304.6626 -9137.0244 -7466.4237 299.5902 872.2596 976.3262 30125.4794 16.6303 92.2073
ENERGY: 900000 2.4897 11.5634 4.3156 0.0000 -10600.8012 1352.4863 0.0000 0.0000 1770.1985 -7459.7477 300.0352 -9229.9462 -7454.4033 299.2212 -753.4558 -656.0828 30445.5057 -167.5456 -94.7407
ENERGY: 1200000 3.5613 7.2140 4.7884 0.0000 -10701.5823 1375.3519 0.0000 0.0000 1787.4960 -7523.1707 302.9670 -9310.6667 -7470.0041 298.6168 -845.7875 -753.7504 30348.5969 -197.5691 -129.2682
ENERGY: 1500000 1.1245 9.2578 2.6710 0.0000 -10726.4991 1462.3259 0.0000 0.0000 1746.2813 -7504.8386 295.9814 -9251.1199 -7473.0609 298.1775 606.1295 673.8331 29703.7580 -106.2478 -39.6533
TCL: Running FEP window   9: Lambda1 0.39999999999999997 Lambda2 0.44999999999999996 [dLambda 0.04999999999999999]
TCL: Setting parameter firsttimestep to 0
TCL: Setting parameter alchLambda to 0.39999999999999997
Info: NONBONDED TABLE R-SQUARED SPACING: 0.0625
Info: NONBONDED TABLE SIZE: 705 POINTS
TCL: Setting parameter alchLambda2 to 0.44999999999999996
Info: NONBONDED TABLE R-SQUARED SPACING: 0.0625
Info: NONBONDED TABLE SIZE: 705 POINTS
TCL: Running for 1500000 steps
ETITLE: TS BOND ANGLE DIHED IMPRP ELECT VDW BOUNDARY MISC KINETIC TOTAL TEMP POTENTIAL TOTALAVG TEMPAVG PRESSURE GPRESSURE VOLUME PRESSAVG GPRESSAVG
ENERGY: 0 1.1245 9.2578 2.6710 0.0000 -10726.4987 1462.5041 0.0000 0.0000 1745.4287 -7505.5126 295.8369 -9250.9413 -7505.5126 295.8369 601.7969 680.9739 29703.7580 601.7969 680.9739
ENERGY: 300000 2.6039 7.0183 2.4592 0.0000 -10720.1850 1513.4859 0.0000 0.0000 1757.2063 -7437.4114 297.8331 -9194.6177 -7492.5814 297.0809 742.1330 841.4322 30116.5510 422.2515 472.2121
ENERGY: 600000 2.3887 8.8175 6.6930 0.0000 -10692.3847 1424.9273 0.0000 0.0000 1721.6465 -7527.9116 291.8060 -9249.5581 -7506.0823 296.9732 -179.0872 -110.0575 30406.9095 330.6729 391.2126
ENERGY: 900000 1.8186 9.1389 7.5453 0.0000 -10718.2156 1570.2949 0.0000 0.0000 1842.6872 -7286.7307 312.3214 -9129.4179 -7482.6462 299.2826 1310.9940 1336.5852 30665.7250 423.2594 472.6084
ENERGY: 1200000 1.9617 10.6679 2.0483 0.0000 -10751.6966 1465.4528 0.0000 0.0000 1757.3011 -7514.2648 297.8492 -9271.5659 -7486.3018 299.3981 168.7483 93.9985 30399.5400 361.9062 395.8800
ENERGY: 1500000 2.4131 9.1206 1.8352 0.0000 -10658.4878 1446.6327 0.0000 0.0000 1789.2519 -7409.2343 303.2646 -9198.4861 -7478.8797 299.9992 295.4502 397.0094 30086.0133 318.4912 355.7460
TCL: Running FEP window  10: Lambda1 0.44999999999999996 Lambda2 0.49999999999999994 [dLambda 0.04999999999999999]
TCL: Setting parameter firsttimestep to 0
TCL: Setting parameter alchLambda to 0.44999999999999996
Info: NONBONDED TABLE R-SQUARED SPACING: 0.0625
Info: NONBONDED TABLE SIZE: 705 POINTS
TCL: Setting parameter alchLambda2 to 0.49999999999999994
Info: NONBONDED TABLE R-SQUARED SPACING: 0.0625
Info: NONBONDED TABLE SIZE: 705 POINTS
TCL: Running for 1500000 steps
ETITLE: TS BOND ANGLE DIHED IMPRP ELECT VDW BOUNDARY MISC KINETIC TOTAL TEMP POTENTIAL TOTALAVG TEMPAVG PRESSURE GPRESSURE VOLUME PRESSAVG GPRESSAVG
ENERGY: 0 2.4131 9.1206 1.8352 0.0000 -10658.4867 1446.3906 0.0000 0.0000 1788.3387 -7410.3885 303.1098 -9198.7272 -7410.3885 303.1098 311.0704 400.5223 30086.0133 311.0704 400.5223
ENERGY: 300000 5.6125 8.4273 2.8612 0.0000 -10583.6069 1413.6098 0.0000 0.0000 1725.3130 -7427.7832 292.4274 -9153.0961 -7404.8012 298.9775 236.8160 330.7847 29974.7924 236.9417 320.0149
ENERGY: 600000 3.4328 6.9121 2.5752 0.0000 -10724.9502 1484.9072 0.0000 0.0000 1787.2201 -7439.9029 302.9202 -9227.1229 -7451.4773 298.3290 454.9071 496.2983 30690.2793 175.7983 253.8048
ENERGY: 900000 4.5145 8.7678 3.9761 0.0000 -10665.6771 1355.2405 0.0000 0.0000 1791.6119 -7501.5664 303.6646 -9293.1783 -7466.2360 299.8316 -764.3028 -680.9470 30517.9248 133.9808 212.8657
ENERGY: 1200000 0.9276 8.7520 3.9053 0.0000 -10823.8122 1477.6312 0.0000 0.0000 1766.2134 -7566.3826 299.3597 -9332.5960 -7464.6659 300.0717 46.9312 96.8605 30520.0769 184.4450 260.2289
ENERGY: 1500000 1.7439 8.1864 1.6712 0.0000 -10571.3499 1314.7163 0.0000 0.0000 1771.8400 -7473.1919 300.3134 -9245.0319 -7463.8614 299.9271 -1088.0898 -1127.6444 30784.2984 95.6922 159.2438
TCL: Running FEP window  11: Lambda1 0.49999999999999994 Lambda2 0.5499999999999999 [dLambda 0.04999999999999999]
TCL: Setting parameter firsttimestep to 0
TCL: Setting parameter alchLambda to 0.49999999999999994
Info: NONBONDED TABLE R-SQUARED SPACING: 0.0625
Info: NONBONDED TABLE SIZE: 705 POINTS
TCL: Setting parameter alchLambda2 to 0.5499999999999999
Info: NONBONDED TABLE R-SQUARED SPACING: 0.0625
Info: NONBONDED TABLE SIZE: 705 POINTS
TCL: Running for 1500000 steps
ETITLE: TS BOND ANGLE DIHED IMPRP ELECT VDW BOUNDARY MISC KINETIC TOTAL TEMP POTENTIAL TOTALAVG TEMPAVG PRESSURE GPRESSURE VOLUME PRESSAVG GPRESSAVG
ENERGY: 0 1.7439 8.1864 1.6712 0.0000 -10571.3498 1315.2632 0.0000 0.0000 1770.9676 -7473.5174 300.1655 -9244.4850 -7473.5174 300.1655 -1194.3583 -1112.4859 30784.2984 -1194.3583 -1112.4859
ENERGY: 300000 4.4947 6.0391 2.1063 0.0000 -10537.2822 1340.2877 0.0000 0.0000 1763.2014 -7421.1531 298.8492 -9184.3545 -7467.8728 298.3812 -770.2102 -712.4527 30778.4123 -777.9732 -714.6725
ENERGY: 600000 3.4993 7.1124 6.8255 0.0000 -10665.3495 1438.2701 0.0000 0.0000 1775.7025 -7433.9398 300.9681 -9209.6423 -7471.7903 297.9041 116.1629 213.7001 30645.7188 -341.3055 -275.6525
ENERGY: 900000 3.7293 15.6679 3.2352 0.0000 -10728.2795 1417.3105 0.0000 0.0000 1760.0341 -7528.3025 298.3124 -9288.3366 -7474.1994 299.3701 -510.0329 -445.4990 30735.2753 -154.7391 -89.9846
ENERGY: 1200000 4.5064 11.1249 6.0127 0.0000 -10794.5178 1529.2673 0.0000 0.0000 1771.0953 -7472.5113 300.1872 -9243.6065 -7468.6684 300.7485 1024.2041 1057.9753 29691.8855 41.6461 102.7616
ENERGY: 1500000 4.3150 4.3400 3.4174 0.0000 -10794.5147 1438.3728 0.0000 0.0000 1742.7628 -7601.3066 295.3850 -9344.0695 -7477.3381 300.5836 -122.0720 -113.8306 30343.3429 -36.3671 25.3573
TCL: Running FEP window  12: Lambda1 0.5499999999999999 Lambda2 0.6    [dLambda 0.050000000000000044]
TCL: Setting parameter firsttimestep to 0
TCL: Setting parameter alchLambda to 0.5499999999999999
Info: NONBONDED TABLE R-SQUARED SPACING: 0.0625
Info: NONBONDED TABLE SIZE: 705 POINTS
TCL: Setting parameter alchLambda2 to 0.6
Info: NONBONDED TABLE R-SQUARED SPACING: 0.0625
Info: NONBONDED TABLE SIZE: 705 POINTS
TCL: Running for 1500000 steps
ETITLE: TS BOND ANGLE DIHED IMPRP ELECT VDW BOUNDARY MISC KINETIC TOTAL TEMP POTENTIAL TOTALAVG TEMPAVG PRESSURE GPRESSURE VOLUME PRESSAVG GPRESSAVG
ENERGY: 0 4.3150 4.3400 3.4174 0.0000 -10794.4199 1438.0293 0.0000 0.0000 1741.8979 -7602.4204 295.2384 -9344.3183 -7602.4204 295.2384 -201.4163 -108.5419 30343.3429 -201.4163 -108.5419
ENERGY: 300000 2.2633 8.4416 3.0813 0.0000 -10711.9414 1491.9926 0.0000 0.0000 1857.2228 -7348.9398 314.7851 -9206.1626 -7501.5912 301.3331 412.2203 465.1865 30564.8951 -53.9718 -7.2803
ENERGY: 600000 2.9363 13.2706 5.1415 0.0000 -10603.0618 1341.7686 0.0000 0.0000 1730.5162 -7509.4287 293.3093 -9239.9449 -7501.3512 299.9166 -550.6639 -567.3818 30054.9952 26.1417 59.2710
ENERGY: 900000 7.5140 8.2942 6.5897 0.0000 -10696.6223 1446.4486 0.0000 0.0000 1811.1907 -7416.5851 306.9830 -9227.7758 -7490.2763 301.5279 95.8956 126.6078 30263.6813 -7.8636 35.3009
ENERGY: 1200000 3.7449 11.1990 2.7955 0.0000 -10682.9668 1368.0473 0.0000 0.0000 1735.4994 -7561.6808 294.1539 -9297.1801 -7500.0881 301.0447 -780.4038 -746.3828 30518.6056 -57.4034 -9.4306
ENERGY: 1500000 5.2041 12.5810 2.8181 0.0000 -10626.0859 1359.5596 0.0000 0.0000 1773.1018 -7472.8213 300.5272 -9245.9231 -7494.1398 300.7970 -501.2820 -387.2438 30084.8210 -70.8079 -16.8206
TCL: Running FEP window  13: Lambda1 0.6    Lambda2 0.65   [dLambda 0.050000000000000044]
TCL: Setting parameter firsttimestep to 0
TCL: Setting parameter alchLambda to 0.6
Info: NONBONDED TABLE R-SQUARED SPACING: 0.0625
Info: NONBONDED TABLE SIZE: 705 POINTS
TCL: Setting parameter alchLambda2 to 0.65
Info: NONBONDED TABLE R-SQUARED SPACING: 0.0625
Info: NONBONDED TABLE SIZE: 705 POINTS
TCL: Running for 1500000 steps
ETITLE: TS BOND ANGLE DIHED IMPRP ELECT VDW BOUNDARY MISC KINETIC TOTAL TEMP POTENTIAL TOTALAVG TEMPAVG PRESSURE GPRESSURE VOLUME PRESSAVG GPRESSAVG
ENERGY: 0 5.2041 12.5810 2.8181 0.0000 -10626.3542 1359.1892 0.0000 0.0000 1772.2113 -7474.3505 300.3763 -9246.5619 -7474.3505 300.3763 -476.9915 -379.3156 30084.8210 -476.9915 -379.3156
ENERGY: 300000 2.8732 7.6254 3.8019 0.0000 -10676.7822 1431.7608 0.0000 0.0000 1756.1497 -7474.5713 297.6540 -9230.7210 -7467.7251 300.6995 85.0835 130.8210 30352.0751 -264.5256 -218.4915
ENERGY: 600000 1.7858 8.5132 2.6452 0.0000 -10641.4566 1377.6447 0.0000 0.0000 1762.9124 -7487.9553 298.8002 -9250.8676 -7490.0668 299.1099 -712.7195 -703.6279 30922.8387 -165.8223 -108.8801
ENERGY: 900000 1.9851 8.7793 2.2503 0.0000 -10805.2118 1495.5819 0.0000 0.0000 1791.7662 -7504.8488 303.6907 -9296.6151 -7490.0108 299.5367 272.1182 321.6265 30582.4406 -251.2740 -187.9772
ENERGY: 1200000 3.9907 8.2987 2.1229 0.0000 -10706.0596 1426.2476 0.0000 0.0000 1766.7994 -7498.6003 299.4590 -9265.3997 -7480.2973 299.2454 -77.7388 -24.1339 30246.1701 -251.8832 -186.7955
ENERGY: 1500000 2.5324 10.1509 4.0315 0.0000 -10709.5048 1462.9423 0.0000 0.0000 1792.6845 -7437.1632 303.8464 -9229.8477 -7477.1114 300.2893 87.5693 134.2863 30805.7081 -147.6209 -93.0208
TCL: Running FEP window  14: Lambda1 0.65   Lambda2 0.7000000000000001 [dLambda 0.050000000000000044]
TCL: Setting parameter firsttimestep to 0
TCL: Setting parameter alchLambda to 0.65
Info: NONBONDED TABLE R-SQUARED SPACING: 0.0625
Info: NONBONDED TABLE SIZE: 705 POINTS
TCL: Setting parameter alchLambda2 to 0.7000000000000001
Info: NONBONDED TABLE R-SQUARED SPACING: 0.0625
Info: NONBONDED TABLE SIZE: 705 POINTS
TCL: Running for 1500000 steps
ETITLE: TS BOND ANGLE DIHED IMPRP ELECT VDW BOUNDARY MISC KINETIC TOTAL TEMP POTENTIAL TOTALAVG TEMPAVG PRESSURE GPRESSURE VOLUME PRESSAVG GPRESSAVG
ENERGY: 0 2.5324 10.1509 4.0315 0.0000 -10709.9543 1462.9460 0.0000 0.0000 1791.8060 -7438.4876 303.6975 -9230.2936 -7438.4876 303.6975 51.7914 142.0596 30805.7081 51.7914 142.0596
ENERGY: 300000 3.4386 6.0136 2.4559 0.0000 -10790.6003 1489.5177 0.0000 0.0000 1806.0444 -7483.1301 306.1108 -9289.1745 -7446.6181 301.9020 234.8125 202.3009 30583.7767 10.3913 52.1947
ENERGY: 600000 6.2210 8.4702 0.6489 0.0000 -10703.0160 1481.2569 0.0000 0.0000 1780.9372 -7425.4818 301.8553 -9206.4190 -7452.4000 301.9508 197.6074 228.0864 30813.0515 17.3526 55.7495
ENERGY: 900000 3.0445 8.3959 3.7607 0.0000 -10605.2129 1363.4733 0.0000 0.0000 1788.7491 -7437.7893 303.1794 -9226.5384 -7452.6095 301.6722 -582.1546 -489.7132 30375.3852 -73.1729 -22.9746
ENERGY: 1200000 5.4450 7.6030 2.5241 0.0000 -10778.4386 1438.8954 0.0000 0.0000 1802.0532 -7521.9179 305.4343 -9323.9712 -7455.1087 301.2081 -273.5437 -181.9677 30288.5513 -186.1067 -131.2475
ENERGY: 1500000 4.5683 5.8862 2.3851 0.0000 -10783.5316 1474.3803 0.0000 0.0000 1754.6243 -7541.6873 297.3955 -9296.3116 -7457.1744 301.8244 72.0509 124.8419 30574.0839 -125.7535 -70.4048
TCL: Running FEP window  15: Lambda1 0.7000000000000001 Lambda2 0.7500000000000001 [dLambda 0.050000000000000044]
TCL: Setting parameter firsttimestep to 0
TCL: Setting parameter alchLambda to 0.7000000000000001
Info: NONBONDED TABLE R-SQUARED SPACING: 0.0625
Info: NONBONDED TABLE SIZE: 705 POINTS
TCL: Setting parameter alchLambda2 to 0.7500000000000001
Info: NONBONDED TABLE R-SQUARED SPACING: 0.0625
Info: NONBONDED TABLE SIZE: 705 POINTS
TCL: Running for 1500000 steps
ETITLE: TS BOND ANGLE DIHED IMPRP ELECT VDW BOUNDARY MISC KINETIC TOTAL TEMP POTENTIAL TOTALAVG TEMPAVG PRESSURE GPRESSURE VOLUME PRESSAVG GPRESSAVG
ENERGY: 0 4.5683 5.8862 2.3851 0.0000 -10783.9290 1474.3626 0.0000 0.0000 1753.7704 -7542.9564 297.2507 -9296.7268 -7542.9564 297.2507 47.4201 135.8847 30574.0839 47.4201 135.8847
ENERGY: 300000 2.3454 8.4566 3.0843 0.0000 -10646.3974 1386.6268 0.0000 0.0000 1742.7844 -7503.0998 295.3887 -9245.8843 -7522.2312 298.8185 -383.7780 -360.6061 30352.4389 -171.8563 -103.8967
ENERGY: 600000 2.2635 10.6431 1.1621 0.0000 -10671.3924 1425.7286 0.0000 0.0000 1792.6488 -7438.9462 303.8403 -9231.5950 -7509.7167 300.3744 -384.2867 -251.6522 31001.5424 -156.9625 -100.5017
ENERGY: 900000 6.5287 8.6414 1.7336 0.0000 -10770.9302 1481.6982 0.0000 0.0000 1739.8689 -7532.4593 294.8945 -9272.3282 -7506.3753 300.4277 69.4594 131.6426 30424.3601 -83.5401 -34.5208
ENERGY: 1200000 5.1916 8.6327 3.7509 0.0000 -10649.0847 1415.7044 0.0000 0.0000 1788.6409 -7427.1643 303.1610 -9215.8052 -7504.0200 299.6922 13.2345 140.4948 30408.0638 24.9883 83.4826
ENERGY: 1500000 3.0731 6.2111 1.5073 0.0000 -10646.0621 1387.3490 0.0000 0.0000 1800.0399 -7447.8817 305.0931 -9247.9215 -7499.1397 299.9145 -429.8646 -358.3802 30334.2393 0.3511 65.2205
TCL: Running FEP window  16: Lambda1 0.7500000000000001 Lambda2 0.8000000000000002 [dLambda 0.050000000000000044]
TCL: Setting parameter firsttimestep to 0
TCL: Setting parameter alchLambda to 0.7500000000000001
Info: NONBONDED TABLE R-SQUARED SPACING: 0.0625
Info: NONBONDED TABLE SIZE: 705 POINTS
TCL: Setting parameter alchLambda2 to 0.8000000000000002
Info: NONBONDED TABLE R-SQUARED SPACING: 0.0625
Info: NONBONDED TABLE SIZE: 705 POINTS
TCL: Running for 1500000 steps
ETITLE: TS BOND ANGLE DIHED IMPRP ELECT VDW BOUNDARY MISC KINETIC TOTAL TEMP POTENTIAL TOTALAVG TEMPAVG PRESSURE GPRESSURE VOLUME PRESSAVG GPRESSAVG
ENERGY: 0 3.0731 6.2111 1.5073 0.0000 -10646.2340 1386.8625 0.0000 0.0000 1799.1074 -7449.4726 304.9350 -9248.5800 -7449.4726 304.9350 -436.8140 -352.5111 30334.2393 -436.8140 -352.5111
ENERGY: 300000 4.7465 6.3904 3.8744 0.0000 -10663.9326 1435.0917 0.0000 0.0000 1779.4773 -7434.3524 301.6078 -9213.8296 -7465.3485 302.2314 158.1288 208.1839 30346.9398 -305.7523 -270.2656
ENERGY: 600000 2.8111 6.6694 1.5990 0.0000 -10762.7790 1482.6536 0.0000 0.0000 1789.6105 -7479.4355 303.3254 -9269.0460 -7461.4989 302.5892 200.6320 247.3186 30874.1177 -77.1719 -47.0326
ENERGY: 900000 1.6809 7.2066 2.5830 0.0000 -10645.4521 1397.8456 0.0000 0.0000 1827.8171 -7408.3188 309.8011 -9236.1359 -7461.2608 302.9000 -227.1738 -156.7314 30560.5978 -207.8709 -160.4955
ENERGY: 1200000 7.2433 4.2720 2.0416 0.0000 -10588.5368 1339.2097 0.0000 0.0000 1809.7400 -7426.0303 306.7371 -9235.7703 -7472.3471 302.3698 -1167.4059 -1084.1256 30876.8941 -333.0596 -272.0020
ENERGY: 1500000 2.4287 10.4521 2.7466 0.0000 -10554.1756 1408.3224 0.0000 0.0000 1761.4918 -7368.7340 298.5594 -9130.2257 -7472.2910 301.4093 165.0410 162.9032 30480.0572 -264.5712 -207.6348
TCL: Running FEP window  17: Lambda1 0.8000000000000002 Lambda2 0.8500000000000002 [dLambda 0.050000000000000044]
TCL: Setting parameter firsttimestep to 0
TCL: Setting parameter alchLambda to 0.8000000000000002
Info: NONBONDED TABLE R-SQUARED SPACING: 0.0625
Info: NONBONDED TABLE SIZE: 705 POINTS
TCL: Setting parameter alchLambda2 to 0.8500000000000002
Info: NONBONDED TABLE R-SQUARED SPACING: 0.0625
Info: NONBONDED TABLE SIZE: 705 POINTS
TCL: Running for 1500000 steps
ETITLE: TS BOND ANGLE DIHED IMPRP ELECT VDW BOUNDARY MISC KINETIC TOTAL TEMP POTENTIAL TOTALAVG TEMPAVG PRESSURE GPRESSURE VOLUME PRESSAVG GPRESSAVG
ENERGY: 0 2.4287 10.4521 2.7466 0.0000 -10554.6285 1408.9521 0.0000 0.0000 1760.5777 -7369.4713 298.4045 -9130.0490 -7369.4713 298.4045 99.2926 177.8294 30480.0572 99.2926 177.8294
ENERGY: 300000 3.6641 7.8541 2.5355 0.0000 -10757.6588 1481.8150 0.0000 0.0000 1756.4934 -7505.2967 297.7123 -9261.7901 -7481.3202 295.1391 -15.5646 123.2225 30916.5634 -1.7788 91.4034
ENERGY: 600000 3.9225 9.0043 4.3772 0.0000 -10632.5378 1398.7755 0.0000 0.0000 1826.3955 -7390.0630 309.5601 -9216.4584 -7468.5729 298.3324 -280.9635 -195.0624 30722.0427 -8.6168 74.8417
ENERGY: 900000 2.9109 7.4653 3.0595 0.0000 -10520.9076 1329.0902 0.0000 0.0000 1805.2058 -7373.1759 305.9686 -9178.3817 -7451.2778 300.0249 -774.0581 -731.1956 31108.3495 -124.1591 -44.4469
ENERGY: 1200000 2.1578 11.6694 4.3050 0.0000 -10709.4448 1456.7800 0.0000 0.0000 1741.8139 -7492.7188 295.2242 -9234.5327 -7462.4633 298.2839 99.0417 145.5232 30694.8809 -159.2156 -84.0769
ENERGY: 1500000 2.8349 8.0400 2.6599 0.0000 -10791.2990 1541.8456 0.0000 0.0000 1732.3421 -7503.5764 293.6188 -9235.9185 -7464.8759 298.3885 866.8347 1017.7373 30110.1178 -48.7768 36.0503
TCL: Running FEP window  18: Lambda1 0.8500000000000002 Lambda2 0.9000000000000002 [dLambda 0.050000000000000044]
TCL: Setting parameter firsttimestep to 0
TCL: Setting parameter alchLambda to 0.8500000000000002
Info: NONBONDED TABLE R-SQUARED SPACING: 0.0625
Info: NONBONDED TABLE SIZE: 705 POINTS
TCL: Setting parameter alchLambda2 to 0.9000000000000002
Info: NONBONDED TABLE R-SQUARED SPACING: 0.0625
Info: NONBONDED TABLE SIZE: 705 POINTS
TCL: Running for 1500000 steps
ETITLE: TS BOND ANGLE DIHED IMPRP ELECT VDW BOUNDARY MISC KINETIC TOTAL TEMP POTENTIAL TOTALAVG TEMPAVG PRESSURE GPRESSURE VOLUME PRESSAVG GPRESSAVG
ENERGY: 0 2.8349 8.0400 2.6599 0.0000 -10791.9136 1543.4180 0.0000 0.0000 1731.4493 -7503.5115 293.4675 -9234.9608 -7503.5115 293.4675 969.9049 1050.1458 30110.1178 969.9049 1050.1458
ENERGY: 300000 4.2756 7.5299 1.1640 0.0000 -10698.0324 1421.5513 0.0000 0.0000 1748.5278 -7514.9839 296.3621 -9263.5117 -7492.7218 296.9935 -385.9873 -321.7877 30555.3536 260.1563 317.1861
ENERGY: 600000 3.0895 6.4006 3.1163 0.0000 -10788.7487 1437.4653 0.0000 0.0000 1787.6829 -7550.9941 302.9986 -9338.6770 -7508.1913 297.7350 -123.9367 -74.7786 30233.8033 143.9730 210.6791
ENERGY: 900000 2.3244 8.1033 4.1255 0.0000 -10755.0988 1453.0268 0.0000 0.0000 1767.5713 -7519.9475 299.5899 -9287.5188 -7516.4709 297.2954 -493.1010 -378.1225 31172.1846 45.3692 114.9763
ENERGY: 1200000 2.7815 7.1712 1.0013 0.0000 -10466.1007 1292.4681 0.0000 0.0000 1753.8709 -7408.8077 297.2678 -9162.6786 -7502.2071 297.8750 -1187.5919 -1145.5016 31151.4056 34.1206 100.3432
ENERGY: 1500000 3.4077 10.5139 6.6301 0.0000 -10655.3530 1441.3834 0.0000 0.0000 1755.7646 -7437.6532 297.5887 -9193.4178 -7498.8540 297.9692 276.2706 319.1086 30319.4336 54.7146 120.2180
TCL: Running FEP window  19: Lambda1 0.9000000000000002 Lambda2 0.9500000000000003 [dLambda 0.050000000000000044]
TCL: Setting parameter firsttimestep to 0
TCL: Setting parameter alchLambda to 0.9000000000000002
Info: NONBONDED TABLE R-SQUARED SPACING: 0.0625
Info: NONBONDED TABLE SIZE: 705 POINTS
TCL: Setting parameter alchLambda2 to 0.9500000000000003
Info: NONBONDED TABLE R-SQUARED SPACING: 0.0625
Info: NONBONDED TABLE SIZE: 705 POINTS
TCL: Running for 1500000 steps
ETITLE: TS BOND ANGLE DIHED IMPRP ELECT VDW BOUNDARY MISC KINETIC TOTAL TEMP POTENTIAL TOTALAVG TEMPAVG PRESSURE GPRESSURE VOLUME PRESSAVG GPRESSAVG
ENERGY: 0 3.4077 10.5139 6.6301 0.0000 -10655.5372 1442.0299 0.0000 0.0000 1754.9015 -7438.0540 297.4424 -9192.9555 -7438.0540 297.4424 257.3651 346.5532 30319.4336 257.3651 346.5532
ENERGY: 300000 3.8012 8.5215 8.4150 0.0000 -10859.7353 1524.2629 0.0000 0.0000 1813.3968 -7501.3380 307.3569 -9314.7348 -7463.9091 301.5058 495.2452 539.9373 30367.1099 187.6260 256.0625
ENERGY: 600000 2.5535 9.9893 2.9455 0.0000 -10642.4001 1361.4197 0.0000 0.0000 1807.0603 -7458.4318 306.2830 -9265.4921 -7453.8516 301.5391 -487.3759 -368.5575 30433.9095 128.5742 211.4130
ENERGY: 900000 1.3373 9.3585 2.9875 0.0000 -10781.5995 1458.6818 0.0000 0.0000 1815.5833 -7493.6512 307.7275 -9309.2345 -7471.5331 301.2423 97.2196 166.6422 30268.0433 45.8082 124.5221
ENERGY: 1200000 1.4058 10.1712 3.4155 0.0000 -10664.1732 1440.0903 0.0000 0.0000 1722.2352 -7486.8551 291.9058 -9209.0904 -7468.6818 301.0819 75.2279 136.5003 30631.9431 33.8474 107.9763
ENERGY: 1500000 5.2170 7.3793 3.6806 0.0000 -10693.3986 1445.0821 0.0000 0.0000 1746.4233 -7485.6164 296.0054 -9232.0397 -7469.8165 301.1897 -230.9168 -129.5362 30882.8020 20.3437 94.7268
TCL: Running FEP window  20: Lambda1 0.9500000000000003 Lambda2 1.0    [dLambda 0.04999999999999971]
TCL: Setting parameter firsttimestep to 0
TCL: Setting parameter alchLambda to 0.9500000000000003
Info: NONBONDED TABLE R-SQUARED SPACING: 0.0625
Info: NONBONDED TABLE SIZE: 705 POINTS
TCL: Setting parameter alchLambda2 to 1.0
Info: NONBONDED TABLE R-SQUARED SPACING: 0.0625
Info: NONBONDED TABLE SIZE: 705 POINTS
TCL: Running for 1500000 steps
ETITLE: TS BOND ANGLE DIHED IMPRP ELECT VDW BOUNDARY MISC KINETIC TOTAL TEMP POTENTIAL TOTALAVG TEMPAVG PRESSURE GPRESSURE VOLUME PRESSAVG GPRESSAVG
ENERGY: 0 5.2170 7.3793 3.6806 0.0000 -10693.8502 1444.7166 0.0000 0.0000 1745.5626 -7487.2941 295.8596 -9232.8567 -7487.2941 295.8596 -211.9650 -120.3733 30882.8020 -211.9650 -120.3733
ENERGY: 300000 5.1081 7.4173 2.4899 0.0000 -10580.0832 1387.0029 0.0000 0.0000 1717.8860 -7460.1790 291.1686 -9178.0650 -7458.1453 296.6439 -537.9285 -457.4892 30995.7121 -373.7818 -296.9655
ENERGY: 600000 3.3832 7.8339 3.8780 0.0000 -10705.1802 1412.0052 0.0000 0.0000 1756.5641 -7521.5157 297.7242 -9278.0799 -7474.7798 297.6808 52.0089 97.9933 30104.6771 -269.6610 -217.7895
ENERGY: 900000 3.8186 7.1078 2.6922 0.0000 -10516.0023 1333.8137 0.0000 0.0000 1820.8896 -7347.6805 308.6269 -9168.5701 -7472.1014 298.1982 -499.7342 -447.2678 30497.5639 -215.3882 -162.4207
ENERGY: 1200000 1.0942 13.3236 4.0201 0.0000 -10702.3475 1463.0444 0.0000 0.0000 1798.9193 -7421.9459 304.9031 -9220.8652 -7469.4687 298.8950 443.1312 524.5669 30300.2811 -133.1633 -74.0851
ENERGY: 1500000 4.3832 8.3597 3.5067 0.0000 -10708.3087 1423.2720 0.0000 0.0000 1729.3027 -7539.4844 293.1036 -9268.7871 -7480.3180 298.2269 -202.8747 -76.0466 30465.0485 -178.9709 -111.9631
TCL: Exiting due to exit command.
