Info: SIMULATION PARAMETERS:
Info: TIMESTEP               2
Info: NUMBER OF STEPS        0
Info: STEPS PER CYCLE        10
Info: PERIODIC CELL BASIS 1  30.8551 0 0
Info: PERIODIC CELL BASIS 2  0 29.3806 0
Info: PERIODIC CELL BASIS 3  0 0 33.8475
Info: PERIODIC CELL CENTER   0 0 0
Info: WRAPPING WATERS AROUND PERIODIC BOUNDARIES ON OUTPUT.
Info: WRAPPING ALL CLUSTERS AROUND PERIODIC BOUNDARIES ON OUTPUT.
Info: FIRST LDB TIMESTEP     50
Info: LAST LDB TIMESTEP     -1
Info: HOM BACKGROUND SCALING 1
Info: PME BACKGROUND SCALING 1
Info: MIN ATOMS PER PATCH    40
Info: EMPTY PATCH LOAD       40 ATOMS
Info: VELOCITY FILE          mobley_6175884_equil.vel
Info: CENTER OF MASS MOVING INITIALLY? NO
Info: DIELECTRIC             1
Info: EXCLUDE                SCALED ONE-FOUR
Info: 1-4 ELECTROSTATICS SCALED BY 0.833333
Info: MODIFIED 1-4 VDW PARAMETERS WILL BE USED
Info: DCD FILENAME           mobley_6175884_prod.dcd
Info: DCD FREQUENCY          100000
Info: DCD FIRST STEP         100000
Info: DCD FILE WILL CONTAIN UNIT CELL DATA
Info: XST FILENAME           mobley_6175884_prod.xst
Info: XST FREQUENCY          100000
Info: NO VELOCITY DCD OUTPUT
Info: NO FORCE DCD OUTPUT
Info: OUTPUT FILENAME        mobley_6175884_prod
Info: BINARY OUTPUT FILES WILL BE USED
Info: RESTART FILENAME       mobley_6175884_prod.restart
Info: RESTART FREQUENCY      100000
Info: BINARY RESTART FILES WILL BE USED
Info: CUTOFF                 9
Info: PAIRLIST DISTANCE      11
Info: PAIRLIST SHRINK RATE   0.01
Info: PAIRLIST GROW RATE     0.01
Info: PAIRLIST TRIGGER       0.3
Info: PAIRLISTS PER CYCLE    2
Info: PAIRLISTS ENABLED
Info: MARGIN                 2
Info: HYDROGEN GROUP CUTOFF  2.5
Info: PATCH DIMENSION        15.5
Info: ENERGY OUTPUT STEPS    100000
Info: ENERGY EVALUATION STEPS    100000
Info: OUTPUT ENERGY PRECISION 4
Info: CROSSTERM ENERGY INCLUDED IN DIHEDRAL
Info: TIMING OUTPUT STEPS    1000000
Info: PRESSURE OUTPUT STEPS  100000
Info: ALCHEMICAL FEP ON
Info: FEP CURRENT LAMBDA VALUE     1
Info: FEP COMPARISON LAMBDA VALUE  0.95
Info: FEP INTRA-ALCHEMICAL NON-BONDED INTERACTIONS WILL BE RETAINED
Info: FEP INTRA-ALCHEMICAL BONDED INTERACTIONS WILL BE RETAINED
Info: FEP VDW SHIFTING COEFFICIENT 5
Info: FEP ELEC. ACTIVE FOR ANNIHILATED PARTICLES BETWEEN LAMBDA = 0 AND LAMBDA = 0.5
Info: FEP ELEC. ACTIVE FOR EXNIHILATED PARTICLES BETWEEN LAMBDA = 0.5 AND LAMBDA = 1
Info: FEP VDW ACTIVE FOR ANNIHILATED PARTICLES BETWEEN LAMBDA = 0 AND LAMBDA = 1
Info: FEP VDW ACTIVE FOR EXNIHILATED PARTICLES BETWEEN LAMBDA = 0 AND LAMBDA = 1
Info: FEP BOND ACTIVE FOR ANNIHILATED PARTICLES BETWEEN LAMBDA = 1 AND LAMBDA = 1
Info: FEP BOND ACTIVE FOR EXNIHILATED PARTICLES BETWEEN LAMBDA = 0 AND LAMBDA = 0
Info: LANGEVIN DYNAMICS ACTIVE
Info: LANGEVIN TEMPERATURE   300
Info: LANGEVIN USING BBK INTEGRATOR
Info: LANGEVIN DAMPING COEFFICIENT IS 1 INVERSE PS
Info: LANGEVIN DYNAMICS APPLIED TO HYDROGENS
Info: LANGEVIN PISTON PRESSURE CONTROL ACTIVE
Info:        TARGET PRESSURE IS 1.01325 BAR
Info:     OSCILLATION PERIOD IS 50 FS
Info:             DECAY TIME IS 25 FS
Info:     PISTON TEMPERATURE IS 300 K
Info:       PRESSURE CONTROL IS GROUP-BASED
Info:    INITIAL STRAIN RATE IS 0.000253552 0.000253552 0.000253552
Info:       CELL FLUCTUATION IS ISOTROPIC
Info: PARTICLE MESH EWALD (PME) ACTIVE
Info: PME TOLERANCE               1e-06
Info: PME EWALD COEFFICIENT       0.348832
Info: PME INTERPOLATION ORDER     4
Info: PME GRID DIMENSIONS         32 32 36
Info: PME MAXIMUM GRID SPACING    1
Info: PME CALCULATION WILL BE PERFORMED ON GPU
Info: FULL ELECTROSTATIC EVALUATION FREQUENCY      2
Info: USING VERLET I (r-RESPA) MTS SCHEME.
Info: C1 SPLITTING OF LONG RANGE ELECTROSTATICS
Info: PLACING ATOMS IN PATCHES BY HYDROGEN GROUPS
Info: RIGID BONDS TO HYDROGEN : ALL
Info:         ERROR TOLERANCE : 1e-08
Info:          MAX ITERATIONS : 100
Info: RIGID WATER USING SETTLE ALGORITHM
Info: RANDOM NUMBER SEED     1743767920
Info: USE HYDROGEN BONDS?    NO
Info: Using AMBER format force field!
Info: AMBER PARM FILE        mobley_6175884.prmtop
Info: COORDINATE PDB         mobley_6175884.pdb
Info: Exclusions will be read from PARM file!
Info: SCNB (VDW SCALING)     2
Info: USING ARITHMETIC MEAN TO COMBINE L-J SIGMA PARAMETERS
Info: BINARY COORDINATES     mobley_6175884_equil.coor
Info: SUMMARY OF PARAMETERS:
Info: 9 BONDS
Info: 9 ANGLES
Info:   9 HARMONIC
Info:   0 COSINE-BASED
Info: 5 DIHEDRAL
Info: 0 IMPROPER
Info: 0 CROSSTERM
Info: 0 VDW
Info: 36 VDW_PAIRS
Info: 0 NBTHOLE_PAIRS
Info: To read alchdata from file: mobley_6175884.pdb
Info: To read alchflag data from column: 5
Info: STRUCTURE SUMMARY:
Info: 2984 ATOMS
Info: 2984 BONDS
Info: 27 ANGLES
Info: 41 DIHEDRALS
Info: 0 IMPROPERS
Info: 0 CROSSTERMS
Info: 3042 EXCLUSIONS
Info: 2975 RIGID BONDS
Info: ALCH: 0 ATOMS TO DISAPPEAR IN FINAL STATE
Info: ALCH: 17 ATOMS TO APPEAR IN FINAL STATE
Info: 5977 DEGREES OF FREEDOM
Info: 998 HYDROGEN GROUPS
Info: 4 ATOMS IN LARGEST HYDROGEN GROUP
Info: 998 MIGRATION GROUPS
Info: 4 ATOMS IN LARGEST MIGRATION GROUP
Info: TOTAL MASS = 17938 amu
Info: TOTAL CHARGE = 0.000200024 e
Info: MASS DENSITY = 0.970774 g/cm^3
Info: ATOM DENSITY = 0.0972489 atoms/A^3
Info: ADDED 0 IMPLICIT EXCLUSIONS
Info: NONBONDED TABLE R-SQUARED SPACING: 0.0625
Info: NONBONDED TABLE SIZE: 705 POINTS
Info: REMOVING COM VELOCITY -0.0521076 -0.0657889 -0.223878
Info: Use 3D box decompostion in PME FFT.
Info: Updated CUDA force table with 4096 elements.
Info: Updated CUDA LJ table with 8 x 8 elements.
Info: Found 19 unique exclusion lists needing 48 bytes
TCL: Running for 1500000 steps
ETITLE: TS BOND ANGLE DIHED IMPRP ELECT VDW BOUNDARY MISC KINETIC TOTAL TEMP POTENTIAL TOTALAVG TEMPAVG PRESSURE GPRESSURE VOLUME PRESSAVG GPRESSAVG
ENERGY: 0 3.2566 5.0274 3.7746 0.0000 -10885.9199 1437.8495 0.0000 0.0000 1773.2810 -7662.7309 298.5965 -9436.0119 -7662.7309 298.5965 -352.2688 -265.4085 30684.1545 -352.2688 -265.4085
ENERGY: 300000 1.6184 4.7622 5.9835 0.0000 -10698.4245 1396.3047 0.0000 0.0000 1797.5247 -7492.2309 302.6788 -9289.7556 -7553.9294 300.0536 -401.4876 -321.0915 31117.8857 -335.8430 -286.3846
ENERGY: 600000 2.3076 4.4689 2.2438 0.0000 -10804.6341 1445.3411 0.0000 0.0000 1787.1760 -7563.0967 300.9362 -9350.2727 -7573.0127 301.1689 86.1959 116.8390 30424.8630 -148.0426 -93.7448
ENERGY: 900000 3.3773 5.1592 5.4971 0.0000 -10763.7573 1441.3434 0.0000 0.0000 1815.1135 -7493.2669 305.6405 -9308.3804 -7550.6967 303.3022 24.5467 44.5920 30837.9176 -72.5170 -16.2191
ENERGY: 1200000 2.0738 3.9773 3.4413 0.0000 -10669.4619 1376.9602 0.0000 0.0000 1786.9120 -7496.0973 300.8918 -9283.0093 -7543.6287 303.3700 -768.7270 -644.3826 31490.6703 -241.1298 -181.3457
ENERGY: 1500000 1.9954 8.2384 4.8176 0.0000 -10817.9663 1449.7597 0.0000 0.0000 1786.9517 -7566.2034 300.8985 -9353.1552 -7546.4095 303.1688 -125.7460 -72.6320 30947.6749 -303.2032 -242.4358
TCL: Running FEP window   2: Lambda1 0.95   Lambda2 0.8999999999999999 [dLambda -0.050000000000000044]
TCL: Setting parameter firsttimestep to 0
TCL: Setting parameter alchLambda to 0.95
Info: NONBONDED TABLE R-SQUARED SPACING: 0.0625
Info: NONBONDED TABLE SIZE: 705 POINTS
TCL: Setting parameter alchLambda2 to 0.8999999999999999
Info: NONBONDED TABLE R-SQUARED SPACING: 0.0625
Info: NONBONDED TABLE SIZE: 705 POINTS
TCL: Running for 1500000 steps
ETITLE: TS BOND ANGLE DIHED IMPRP ELECT VDW BOUNDARY MISC KINETIC TOTAL TEMP POTENTIAL TOTALAVG TEMPAVG PRESSURE GPRESSURE VOLUME PRESSAVG GPRESSAVG
ENERGY: 0 1.9954 8.2384 4.8176 0.0000 -10816.1832 1449.0216 0.0000 0.0000 1786.0319 -7566.0783 300.7436 -9352.1102 -7566.0783 300.7436 -181.9265 -94.3076 30947.6749 -181.9265 -94.3076
ENERGY: 300000 2.0731 8.2062 4.1699 0.0000 -10869.6445 1538.3309 0.0000 0.0000 1850.5990 -7466.2654 311.6158 -9316.8644 -7546.0537 303.4186 692.4378 755.4323 30909.4376 185.3977 262.3652
ENERGY: 600000 1.7631 5.1800 1.6294 0.0000 -10808.3862 1492.1298 0.0000 0.0000 1754.6745 -7553.0093 295.4634 -9307.6838 -7544.0938 301.9385 295.1205 350.3341 31066.0216 31.2154 90.4218
ENERGY: 900000 6.2492 4.7366 4.2487 0.0000 -10838.1695 1507.0163 0.0000 0.0000 1769.9635 -7545.9552 298.0379 -9315.9187 -7542.6254 301.9339 196.1502 218.1671 31406.6725 63.6318 115.1475
ENERGY: 1200000 4.3787 8.3453 3.0423 0.0000 -10832.2372 1437.5449 0.0000 0.0000 1783.5399 -7595.3861 300.3239 -9378.9260 -7547.3638 301.1981 -184.3363 -111.6962 30305.0825 -10.0520 41.9292
ENERGY: 1500000 0.7911 4.6508 2.6524 0.0000 -10862.2421 1490.0750 0.0000 0.0000 1777.5100 -7586.5628 299.3086 -9364.0728 -7550.2100 300.9470 55.1583 157.5969 30779.5378 -42.6124 14.3933
TCL: Running FEP window   3: Lambda1 0.8999999999999999 Lambda2 0.8499999999999999 [dLambda -0.050000000000000044]
TCL: Setting parameter firsttimestep to 0
TCL: Setting parameter alchLambda to 0.8999999999999999
Info: NONBONDED TABLE R-SQUARED SPACING: 0.0625
Info: NONBONDED TABLE SIZE: 705 POINTS
TCL: Setting parameter alchLambda2 to 0.8499999999999999
Info: NONBONDED TABLE R-SQUARED SPACING: 0.0625
Info: NONBONDED TABLE SIZE: 705 POINTS
TCL: Running for 1500000 steps
ETITLE: TS BOND ANGLE DIHED IMPRP ELECT VDW BOUNDARY MISC KINETIC TOTAL TEMP POTENTIAL TOTALAVG TEMPAVG PRESSURE GPRESSURE VOLUME PRESSAVG GPRESSAVG
ENERGY: 0 0.7911 4.6508 2.6524 0.0000 -10861.4196 1490.0137 0.0000 0.0000 1776.6255 -7586.6860 299.1596 -9363.3115 -7586.6860 299.1596 64.5982 140.7357 30779.5378 64.5982 140.7357
ENERGY: 300000 2.9006 5.2393 2.7573 0.0000 -10776.4326 1488.9046 0.0000 0.0000 1814.3909 -7462.2399 305.5188 -9276.6309 -7584.8408 300.1656 284.7365 387.2428 30699.5957 -0.5832 62.5269
ENERGY: 600000 1.4350 5.1563 1.6752 0.0000 -10711.5582 1397.0021 0.0000 0.0000 1815.1763 -7491.1133 305.6511 -9306.2897 -7564.5319 302.7788 -523.6702 -463.4954 30996.3796 -94.0366 -30.3409
ENERGY: 900000 5.2149 4.6207 4.3393 0.0000 -10787.5722 1423.3616 0.0000 0.0000 1797.0550 -7552.9808 302.5997 -9350.0357 -7559.9922 301.6665 -263.9957 -125.3188 30687.8634 -155.6966 -87.3637
ENERGY: 1200000 2.4250 2.8100 2.9345 0.0000 -10830.9561 1470.7280 0.0000 0.0000 1759.7950 -7592.2636 296.3256 -9352.0586 -7561.7834 300.7270 143.6420 234.3571 30449.5446 -128.5289 -56.9890
ENERGY: 1500000 7.3692 4.6334 4.2452 0.0000 -10940.4505 1553.7443 0.0000 0.0000 1777.4260 -7593.0324 299.2944 -9370.4583 -7572.2963 299.8184 476.4297 479.2048 30736.2601 -57.9094 4.9457
TCL: Running FEP window   4: Lambda1 0.8499999999999999 Lambda2 0.7999999999999998 [dLambda -0.050000000000000044]
TCL: Setting parameter firsttimestep to 0
TCL: Setting parameter alchLambda to 0.8499999999999999
Info: NONBONDED TABLE R-SQUARED SPACING: 0.0625
Info: NONBONDED TABLE SIZE: 705 POINTS
TCL: Setting parameter alchLambda2 to 0.7999999999999998
Info: NONBONDED TABLE R-SQUARED SPACING: 0.0625
Info: NONBONDED TABLE SIZE: 705 POINTS
TCL: Running for 1500000 steps
ETITLE: TS BOND ANGLE DIHED IMPRP ELECT VDW BOUNDARY MISC KINETIC TOTAL TEMP POTENTIAL TOTALAVG TEMPAVG PRESSURE GPRESSURE VOLUME PRESSAVG GPRESSAVG
ENERGY: 0 7.3692 4.6334 4.2452 0.0000 -10938.5531 1553.1198 0.0000 0.0000 1776.5393 -7592.6462 299.1451 -9369.1855 -7592.6462 299.1451 378.2973 465.3135 30736.2601 378.2973 465.3135
ENERGY: 300000 1.8315 3.6548 3.2933 0.0000 -10644.6774 1337.4411 0.0000 0.0000 1781.6877 -7516.7691 300.0121 -9298.4568 -7568.0320 299.9488 -704.0060 -642.2536 30790.5297 -193.7972 -138.7828
ENERGY: 600000 2.0837 3.0561 4.7585 0.0000 -10797.4026 1437.0047 0.0000 0.0000 1802.6896 -7547.8101 303.5485 -9350.4998 -7569.2696 299.5550 -207.8439 -165.7369 30850.5032 -134.0470 -76.2867
ENERGY: 900000 1.6997 4.1722 2.3943 0.0000 -10641.4592 1319.9519 0.0000 0.0000 1767.0422 -7546.1989 297.5460 -9313.2411 -7556.9310 299.1762 -898.4413 -849.8733 30670.0948 -247.7984 -194.3008
ENERGY: 1200000 3.4898 10.6680 8.5329 0.0000 -10679.6565 1398.1167 0.0000 0.0000 1806.7194 -7452.1297 304.2271 -9258.8491 -7553.7280 298.9589 -162.3153 -88.9171 30684.4178 -284.1109 -229.4429
ENERGY: 1500000 3.0004 3.8354 3.5782 0.0000 -10890.8854 1495.8731 0.0000 0.0000 1841.0832 -7543.5152 310.0135 -9384.5984 -7561.7418 299.4744 163.6322 270.6395 30688.2293 -181.0102 -121.7514
TCL: Running FEP window   5: Lambda1 0.7999999999999998 Lambda2 0.7499999999999998 [dLambda -0.050000000000000044]
TCL: Setting parameter firsttimestep to 0
TCL: Setting parameter alchLambda to 0.7999999999999998
Info: NONBONDED TABLE R-SQUARED SPACING: 0.0625
Info: NONBONDED TABLE SIZE: 705 POINTS
TCL: Setting parameter alchLambda2 to 0.7499999999999998
Info: NONBONDED TABLE R-SQUARED SPACING: 0.0625
Info: NONBONDED TABLE SIZE: 705 POINTS
TCL: Running for 1500000 steps
ETITLE: TS BOND ANGLE DIHED IMPRP ELECT VDW BOUNDARY MISC KINETIC TOTAL TEMP POTENTIAL TOTALAVG TEMPAVG PRESSURE GPRESSURE VOLUME PRESSAVG GPRESSAVG
ENERGY: 0 3.0004 3.8354 3.5782 0.0000 -10889.2473 1495.6795 0.0000 0.0000 1840.1913 -7542.9626 309.8633 -9383.1539 -7542.9626 309.8633 178.5233 260.7628 30688.2293 178.5233 260.7628
ENERGY: 300000 2.6105 3.6485 3.4939 0.0000 -10924.2488 1479.2654 0.0000 0.0000 1822.2753 -7612.9552 306.8465 -9435.2305 -7598.8130 305.9550 -52.0580 -15.7901 30597.9348 -146.4929 -72.0141
ENERGY: 600000 1.8384 3.1573 2.1257 0.0000 -10800.0156 1446.9033 0.0000 0.0000 1798.9738 -7547.0171 302.9228 -9345.9908 -7597.1674 303.7198 -292.0705 -207.6977 30928.5917 -40.8360 8.6940
ENERGY: 900000 2.4256 6.1309 4.3614 0.0000 -10819.0342 1457.1384 0.0000 0.0000 1804.8345 -7544.1434 303.9097 -9348.9778 -7581.6135 303.4549 -147.5877 -100.7142 31146.4271 -80.2491 -24.4530
ENERGY: 1200000 3.0618 2.9559 0.8056 0.0000 -10936.9044 1488.8160 0.0000 0.0000 1763.9091 -7677.3560 297.0184 -9441.2651 -7590.1586 302.7569 -394.4503 -322.2730 30921.9151 -54.5474 -4.6509
ENERGY: 1500000 3.7388 2.8388 1.9973 0.0000 -10655.6075 1366.1509 0.0000 0.0000 1795.8404 -7485.0413 302.3952 -9280.8817 -7580.5944 302.5833 -755.6844 -727.7386 31448.2420 -64.0053 -17.2412
TCL: Running FEP window   6: Lambda1 0.7499999999999998 Lambda2 0.6999999999999997 [dLambda -0.050000000000000044]
TCL: Setting parameter firsttimestep to 0
TCL: Setting parameter alchLambda to 0.7499999999999998
Info: NONBONDED TABLE R-SQUARED SPACING: 0.0625
Info: NONBONDED TABLE SIZE: 705 POINTS
TCL: Setting parameter alchLambda2 to 0.6999999999999997
Info: NONBONDED TABLE R-SQUARED SPACING: 0.0625
Info: NONBONDED TABLE SIZE: 705 POINTS
TCL: Running for 1500000 steps
ETITLE: TS BOND ANGLE DIHED IMPRP ELECT VDW BOUNDARY MISC KINETIC TOTAL TEMP POTENTIAL TOTALAVG TEMPAVG PRESSURE GPRESSURE VOLUME PRESSAVG GPRESSAVG
ENERGY: 0 3.7388 2.8388 1.9973 0.0000 -10653.8618 1365.7972 0.0000 0.0000 1794.9462 -7484.5434 302.2446 -9279.4896 -7484.5434 302.2446 -813.2267 -738.2437 31448.2420 -813.2267 -738.2437
ENERGY: 300000 2.9431 5.1958 2.6919 0.0000 -10765.1993 1454.3322 0.0000 0.0000 1776.5261 -7523.5102 299.1429 -9300.0364 -7520.5053 302.0104 140.3000 192.3055 30657.3115 -39.2983 40.2235
ENERGY: 600000 2.3592 4.1122 3.6285 0.0000 -10879.2341 1509.5572 0.0000 0.0000 1692.8740 -7666.7030 285.0570 -9359.5770 -7575.3851 297.3078 286.0125 322.6880 30796.5034 -154.1653 -82.9027
ENERGY: 900000 4.8741 4.2780 4.2127 0.0000 -10777.3622 1373.9658 0.0000 0.0000 1741.6806 -7648.3509 293.2754 -9390.0315 -7571.5471 297.0422 -1005.2692 -998.8287 31112.7375 -145.0211 -90.7048
ENERGY: 1200000 0.7929 7.5075 4.3259 0.0000 -10957.8960 1612.7666 0.0000 0.0000 1826.1960 -7506.3071 307.5067 -9332.5031 -7560.1761 297.8216 1293.6613 1331.9649 30595.1115 13.2962 68.5470
ENERGY: 1500000 1.0225 6.6697 7.7038 0.0000 -10824.0874 1473.5048 0.0000 0.0000 1749.2825 -7585.9040 294.5555 -9335.1865 -7563.1276 298.7794 -15.4993 58.2264 30903.2885 39.9346 93.7852
TCL: Running FEP window   7: Lambda1 0.6999999999999997 Lambda2 0.6499999999999997 [dLambda -0.050000000000000044]
TCL: Setting parameter firsttimestep to 0
TCL: Setting parameter alchLambda to 0.6999999999999997
Info: NONBONDED TABLE R-SQUARED SPACING: 0.0625
Info: NONBONDED TABLE SIZE: 705 POINTS
TCL: Setting parameter alchLambda2 to 0.6499999999999997
Info: NONBONDED TABLE R-SQUARED SPACING: 0.0625
Info: NONBONDED TABLE SIZE: 705 POINTS
TCL: Running for 1500000 steps
ETITLE: TS BOND ANGLE DIHED IMPRP ELECT VDW BOUNDARY MISC KINETIC TOTAL TEMP POTENTIAL TOTALAVG TEMPAVG PRESSURE GPRESSURE VOLUME PRESSAVG GPRESSAVG
ENERGY: 0 1.0225 6.6697 7.7038 0.0000 -10823.3098 1474.0064 0.0000 0.0000 1748.4168 -7585.4906 294.4097 -9333.9074 -7585.4906 294.4097 -26.7073 52.6498 30903.2885 -26.7073 52.6498
ENERGY: 300000 4.6678 5.2273 1.2246 0.0000 -10812.2046 1414.9168 0.0000 0.0000 1773.0339 -7613.1341 298.5549 -9386.1681 -7581.6896 298.5793 -782.8331 -691.3572 30904.4019 -441.8476 -369.8031
ENERGY: 600000 2.1199 5.8766 3.5738 0.0000 -10882.7510 1562.0758 0.0000 0.0000 1774.9784 -7534.1266 298.8823 -9309.1050 -7559.4414 299.7332 975.3507 1032.5898 30505.5525 -142.6025 -78.2902
ENERGY: 900000 4.0321 8.3735 2.7623 0.0000 -10816.7433 1436.8584 0.0000 0.0000 1807.0305 -7557.6866 304.2794 -9364.7171 -7555.0647 299.6422 134.6298 120.1591 30306.5876 -80.9321 -29.7842
ENERGY: 1200000 3.4001 6.2101 5.3023 0.0000 -10778.1989 1518.5866 0.0000 0.0000 1755.8977 -7488.8021 295.6694 -9244.6998 -7553.7546 298.9542 803.7384 819.8315 30730.4150 62.5328 109.6736
ENERGY: 1500000 1.7783 4.1142 2.1100 0.0000 -10958.5168 1616.5678 0.0000 0.0000 1726.3985 -7607.5480 290.7021 -9333.9465 -7554.5238 298.4656 1276.6127 1347.1047 30673.1777 160.5595 213.9076
TCL: Running FEP window   8: Lambda1 0.6499999999999997 Lambda2 0.5999999999999996 [dLambda -0.050000000000000044]
TCL: Setting parameter firsttimestep to 0
TCL: Setting parameter alchLambda to 0.6499999999999997
Info: NONBONDED TABLE R-SQUARED SPACING: 0.0625
Info: NONBONDED TABLE SIZE: 705 POINTS
TCL: Setting parameter alchLambda2 to 0.5999999999999996
Info: NONBONDED TABLE R-SQUARED SPACING: 0.0625
Info: NONBONDED TABLE SIZE: 705 POINTS
TCL: Running for 1500000 steps
ETITLE: TS BOND ANGLE DIHED IMPRP ELECT VDW BOUNDARY MISC KINETIC TOTAL TEMP POTENTIAL TOTALAVG TEMPAVG PRESSURE GPRESSURE VOLUME PRESSAVG GPRESSAVG
ENERGY: 0 1.7783 4.1142 2.1100 0.0000 -10957.7412 1617.0815 0.0000 0.0000 1725.5336 -7607.1237 290.5565 -9332.6573 -7607.1237 290.5565 1254.3514 1344.0627 30673.1777 1254.3514 1344.0627
ENERGY: 300000 6.2116 3.5238 2.1229 0.0000 -10840.6766 1482.6343 0.0000 0.0000 1775.9638 -7570.2202 299.0482 -9346.1840 -7558.7601 299.4891 17.0691 149.6235 30876.1890 237.7445 327.1856
ENERGY: 600000 3.5390 6.6714 4.5768 0.0000 -10553.8768 1273.1175 0.0000 0.0000 1786.1310 -7479.8411 300.7602 -9265.9721 -7552.0602 298.2062 -1255.8691 -1282.5714 31003.6628 -29.3819 33.7995
ENERGY: 900000 2.1417 4.6909 2.9390 0.0000 -10766.6623 1430.3741 0.0000 0.0000 1741.2314 -7585.2852 293.1998 -9326.5167 -7551.4134 297.7254 -179.2200 -99.4832 30732.1205 -76.2700 -9.9290
ENERGY: 1200000 2.6868 7.2366 3.3108 0.0000 -10862.8674 1543.7196 0.0000 0.0000 1774.4546 -7531.4591 298.7941 -9305.9138 -7555.9341 297.7676 736.1846 843.4842 30472.7933 -1.1719 65.2399
ENERGY: 1500000 1.3703 6.0294 1.1125 0.0000 -10911.9900 1566.4302 0.0000 0.0000 1777.1071 -7559.9405 299.2407 -9337.0476 -7564.8617 298.0513 696.2679 747.7409 31111.3799 52.2479 117.6806
TCL: Running FEP window   9: Lambda1 0.5999999999999996 Lambda2 0.5499999999999996 [dLambda -0.050000000000000044]
TCL: Setting parameter firsttimestep to 0
TCL: Setting parameter alchLambda to 0.5999999999999996
Info: NONBONDED TABLE R-SQUARED SPACING: 0.0625
Info: NONBONDED TABLE SIZE: 705 POINTS
TCL: Setting parameter alchLambda2 to 0.5499999999999996
Info: NONBONDED TABLE R-SQUARED SPACING: 0.0625
Info: NONBONDED TABLE SIZE: 705 POINTS
TCL: Running for 1500000 steps
ETITLE: TS BOND ANGLE DIHED IMPRP ELECT VDW BOUNDARY MISC KINETIC TOTAL TEMP POTENTIAL TOTALAVG TEMPAVG PRESSURE GPRESSURE VOLUME PRESSAVG GPRESSAVG
ENERGY: 0 1.3703 6.0294 1.1125 0.0000 -10911.8498 1567.0465 0.0000 0.0000 1776.1861 -7560.1050 299.0857 -9336.2911 -7560.1050 299.0857 672.5798 745.5554 31111.3799 672.5798 745.5554
ENERGY: 300000 1.9996 2.9185 3.3075 0.0000 -10670.4035 1432.5009 0.0000 0.0000 1803.7113 -7425.9658 303.7205 -9229.6771 -7504.6455 301.5292 -139.4769 -59.3292 31206.9315 89.1884 151.7427
ENERGY: 600000 2.2352 2.2398 1.3815 0.0000 -10679.0888 1352.8897 0.0000 0.0000 1769.8407 -7550.5018 298.0172 -9320.3425 -7537.8434 298.0386 -1081.6630 -987.4272 31079.0987 -175.0329 -116.1841
ENERGY: 900000 7.6641 3.3473 2.7401 0.0000 -10799.2226 1448.6632 0.0000 0.0000 1781.9244 -7554.8834 300.0519 -9336.8079 -7545.0496 298.7968 -139.8366 -96.1261 30772.4388 -136.7639 -78.3139
ENERGY: 1200000 1.8460 4.5269 4.4054 0.0000 -10875.3908 1474.4076 0.0000 0.0000 1773.0611 -7617.1439 298.5595 -9390.2050 -7552.2795 298.7103 167.4648 269.1741 30151.7949 -78.8293 -13.4618
ENERGY: 1500000 5.1351 6.8901 2.8154 0.0000 -10827.1519 1508.4538 0.0000 0.0000 1787.9003 -7515.9572 301.0582 -9303.8575 -7544.0868 299.7471 281.0543 396.3239 30974.7944 0.6474 71.4129
TCL: Running FEP window  10: Lambda1 0.5499999999999996 Lambda2 0.4999999999999996 [dLambda -0.04999999999999999]
TCL: Setting parameter firsttimestep to 0
TCL: Setting parameter alchLambda to 0.5499999999999996
Info: NONBONDED TABLE R-SQUARED SPACING: 0.0625
Info: NONBONDED TABLE SIZE: 705 POINTS
TCL: Setting parameter alchLambda2 to 0.4999999999999996
Info: NONBONDED TABLE R-SQUARED SPACING: 0.0625
Info: NONBONDED TABLE SIZE: 705 POINTS
TCL: Running for 1500000 steps
ETITLE: TS BOND ANGLE DIHED IMPRP ELECT VDW BOUNDARY MISC KINETIC TOTAL TEMP POTENTIAL TOTALAVG TEMPAVG PRESSURE GPRESSURE VOLUME PRESSAVG GPRESSAVG
ENERGY: 0 5.1351 6.8901 2.8154 0.0000 -10827.0480 1508.8546 0.0000 0.0000 1786.9832 -7516.3696 300.9037 -9303.3528 -7516.3696 300.9037 296.9322 389.9494 30974.7944 296.9322 389.9494
ENERGY: 300000 3.8174 6.8017 3.9891 0.0000 -10768.0422 1453.6623 0.0000 0.0000 1794.6461 -7505.1256 302.1941 -9299.7717 -7526.9970 299.0798 69.8231 107.4844 30710.2739 -117.5594 -69.1552
ENERGY: 600000 2.5451 5.8966 2.7379 0.0000 -10918.1455 1565.2769 0.0000 0.0000 1723.1106 -7618.5785 290.1485 -9341.6891 -7556.1852 298.0632 612.8641 687.4714 31001.5458 88.8520 140.0015
ENERGY: 900000 5.2681 3.6280 4.3186 0.0000 -10677.9702 1368.2840 0.0000 0.0000 1799.0334 -7497.4381 302.9328 -9296.4715 -7540.8495 298.9930 -804.7894 -705.9698 31439.7514 -57.0203 2.3835
ENERGY: 1200000 3.2242 5.0925 1.4708 0.0000 -10727.3673 1386.3598 0.0000 0.0000 1801.8427 -7529.3771 303.4059 -9331.2198 -7539.3648 299.4596 -359.2533 -306.9105 30733.2567 -29.2082 28.4101
ENERGY: 1500000 1.8727 3.4487 1.7441 0.0000 -10710.7848 1402.1285 0.0000 0.0000 1764.5326 -7537.0581 297.1234 -9301.5907 -7549.5363 297.9995 -332.1504 -275.2836 30778.3072 -184.5973 -126.8573
TCL: Running FEP window  11: Lambda1 0.4999999999999996 Lambda2 0.4499999999999996 [dLambda -0.04999999999999999]
TCL: Setting parameter firsttimestep to 0
TCL: Setting parameter alchLambda to 0.4999999999999996
Info: NONBONDED TABLE R-SQUARED SPACING: 0.0625
Info: NONBONDED TABLE SIZE: 705 POINTS
TCL: Setting parameter alchLambda2 to 0.4499999999999996
Info: NONBONDED TABLE R-SQUARED SPACING: 0.0625
Info: NONBONDED TABLE SIZE: 705 POINTS
TCL: Running for 1500000 steps
ETITLE: TS BOND ANGLE DIHED IMPRP ELECT VDW BOUNDARY MISC KINETIC TOTAL TEMP POTENTIAL TOTALAVG TEMPAVG PRESSURE GPRESSURE VOLUME PRESSAVG GPRESSAVG
ENERGY: 0 1.8727 3.4487 1.7441 0.0000 -10710.5634 1402.4363 0.0000 0.0000 1763.6491 -7537.4124 296.9746 -9301.0616 -7537.4124 296.9746 -356.1878 -277.5995 30778.3072 -356.1878 -277.5995
ENERGY: 300000 3.9154 4.4754 2.5667 0.0000 -10643.4320 1380.6937 0.0000 0.0000 1814.5206 -7437.2601 305.5407 -9251.7808 -7485.4473 304.0339 -183.2936 -154.3434 30296.0497 -96.1188 -35.3759
ENERGY: 600000 4.0286 6.0053 4.5154 0.0000 -10853.8254 1508.4947 0.0000 0.0000 1797.0270 -7533.7544 302.5950 -9330.7814 -7498.1895 303.1419 122.4944 237.4805 30979.2092 -40.3770 27.6013
ENERGY: 900000 2.2362 4.6909 4.6921 0.0000 -10751.3446 1413.0935 0.0000 0.0000 1799.7374 -7526.8946 303.0514 -9326.6319 -7507.2447 302.1912 -428.4431 -362.3410 30753.4434 -2.2843 63.0974
ENERGY: 1200000 4.9975 4.6145 2.8819 0.0000 -10847.7821 1467.6315 0.0000 0.0000 1802.4005 -7565.2563 303.4998 -9367.6568 -7509.2201 302.8516 -308.3004 -262.0523 30929.3730 -104.5685 -44.9732
ENERGY: 1500000 2.1021 4.9014 2.7699 0.0000 -10828.2311 1463.7414 0.0000 0.0000 1766.6917 -7588.0246 297.4869 -9354.7162 -7517.8420 303.1017 -409.0830 -381.7451 31197.0447 -97.9401 -39.9861
TCL: Running FEP window  12: Lambda1 0.4499999999999996 Lambda2 0.39999999999999963 [dLambda -0.04999999999999999]
TCL: Setting parameter firsttimestep to 0
TCL: Setting parameter alchLambda to 0.4499999999999996
Info: NONBONDED TABLE R-SQUARED SPACING: 0.0625
Info: NONBONDED TABLE SIZE: 705 POINTS
TCL: Setting parameter alchLambda2 to 0.39999999999999963
Info: NONBONDED TABLE R-SQUARED SPACING: 0.0625
Info: NONBONDED TABLE SIZE: 705 POINTS
TCL: Running for 1500000 steps
ETITLE: TS BOND ANGLE DIHED IMPRP ELECT VDW BOUNDARY MISC KINETIC TOTAL TEMP POTENTIAL TOTALAVG TEMPAVG PRESSURE GPRESSURE VOLUME PRESSAVG GPRESSAVG
ENERGY: 0 2.1021 4.9014 2.7699 0.0000 -10828.2296 1463.6602 0.0000 0.0000 1765.8228 -7588.9731 297.3406 -9354.7960 -7588.9731 297.3406 -471.8319 -388.7550 31197.0447 -471.8319 -388.7550
ENERGY: 300000 2.0349 6.6245 4.4239 0.0000 -10952.4117 1547.5408 0.0000 0.0000 1813.3841 -7578.4035 305.3493 -9391.7875 -7526.7497 300.3087 621.5580 660.0507 30438.9288 16.5650 71.8160
ENERGY: 600000 1.5833 5.5448 2.0865 0.0000 -10848.8908 1477.7401 0.0000 0.0000 1769.0090 -7592.9271 297.8771 -9361.9360 -7532.1585 298.8381 90.6411 160.0993 30478.6703 -200.1673 -136.8880
ENERGY: 900000 3.7670 3.2787 2.6593 0.0000 -10837.4438 1470.0721 0.0000 0.0000 1781.7541 -7575.9126 300.0232 -9357.6667 -7541.1283 298.9484 52.9879 104.9912 30596.5455 -74.8969 -10.7916
ENERGY: 1200000 2.1386 5.2681 3.3988 0.0000 -10572.4664 1378.4052 0.0000 0.0000 1691.4664 -7491.7892 284.8200 -9183.2556 -7535.9355 297.9544 -277.4382 -185.3817 30730.8331 -31.8928 30.5059
ENERGY: 1500000 7.7853 5.7296 3.9841 0.0000 -10764.7620 1452.9136 0.0000 0.0000 1764.7596 -7529.5898 297.1616 -9294.3493 -7530.8833 297.4422 -51.5780 18.9922 30590.6438 -41.4992 17.7001
TCL: Running FEP window  13: Lambda1 0.39999999999999963 Lambda2 0.34999999999999964 [dLambda -0.04999999999999999]
TCL: Setting parameter firsttimestep to 0
TCL: Setting parameter alchLambda to 0.39999999999999963
Info: NONBONDED TABLE R-SQUARED SPACING: 0.0625
Info: NONBONDED TABLE SIZE: 705 POINTS
TCL: Setting parameter alchLambda2 to 0.34999999999999964
Info: NONBONDED TABLE R-SQUARED SPACING: 0.0625
Info: NONBONDED TABLE SIZE: 705 POINTS
TCL: Running for 1500000 steps
ETITLE: TS BOND ANGLE DIHED IMPRP ELECT VDW BOUNDARY MISC KINETIC TOTAL TEMP POTENTIAL TOTALAVG TEMPAVG PRESSURE GPRESSURE VOLUME PRESSAVG GPRESSAVG
ENERGY: 0 7.7853 5.7296 3.9841 0.0000 -10764.7597 1452.9786 0.0000 0.0000 1763.8583 -7530.4237 297.0098 -9294.2821 -7530.4237 297.0098 -78.3207 15.4663 30590.6438 -78.3207 15.4663
ENERGY: 300000 1.5666 5.2206 1.9455 0.0000 -10720.8014 1434.5727 0.0000 0.0000 1789.1264 -7488.3697 301.2646 -9277.4961 -7505.4534 301.5711 196.5763 272.5696 30330.6280 285.2868 359.6914
ENERGY: 600000 0.8494 5.3481 2.3015 0.0000 -10596.4612 1359.4247 0.0000 0.0000 1795.6356 -7432.9019 302.3607 -9228.5375 -7500.1336 302.1783 -361.7389 -298.3465 30548.9919 181.0196 253.0232
ENERGY: 900000 2.0958 3.2470 7.0218 0.0000 -10758.5210 1350.4286 0.0000 0.0000 1813.7177 -7582.0101 305.4055 -9395.7279 -7509.4018 303.1046 -897.1254 -857.6492 30528.9179 -44.5303 28.4989
ENERGY: 1200000 1.2291 5.5733 4.9450 0.0000 -10923.8142 1565.2184 0.0000 0.0000 1758.7044 -7588.1439 296.1420 -9346.8483 -7527.1188 301.1088 682.2590 758.0537 30713.7754 21.5506 100.6464
ENERGY: 1500000 3.7730 2.2987 4.9634 0.0000 -10787.4160 1517.6927 0.0000 0.0000 1797.3127 -7461.3754 302.6431 -9258.6882 -7522.2100 302.1164 316.4053 371.8133 31427.9398 18.3677 95.7853
TCL: Running FEP window  14: Lambda1 0.34999999999999964 Lambda2 0.29999999999999966 [dLambda -0.04999999999999999]
TCL: Setting parameter firsttimestep to 0
TCL: Setting parameter alchLambda to 0.34999999999999964
Info: NONBONDED TABLE R-SQUARED SPACING: 0.0625
Info: NONBONDED TABLE SIZE: 705 POINTS
TCL: Setting parameter alchLambda2 to 0.29999999999999966
Info: NONBONDED TABLE R-SQUARED SPACING: 0.0625
Info: NONBONDED TABLE SIZE: 705 POINTS
TCL: Running for 1500000 steps
ETITLE: TS BOND ANGLE DIHED IMPRP ELECT VDW BOUNDARY MISC KINETIC TOTAL TEMP POTENTIAL TOTALAVG TEMPAVG PRESSURE GPRESSURE VOLUME PRESSAVG GPRESSAVG
ENERGY: 0 3.7730 2.2987 4.9634 0.0000 -10787.4155 1517.9969 0.0000 0.0000 1796.4410 -7461.9425 302.4963 -9258.3835 -7461.9425 302.4963 283.7309 369.3671 31427.9398 283.7309 369.3671
ENERGY: 300000 8.0952 1.4100 2.9385 0.0000 -10935.3847 1490.6701 0.0000 0.0000 1760.9256 -7671.3453 296.5160 -9432.2709 -7543.6735 300.3265 -5.5115 99.7538 30246.0589 -162.4484 -105.0505
ENERGY: 600000 3.5037 3.5231 2.3137 0.0000 -10860.1427 1509.1816 0.0000 0.0000 1835.4277 -7506.1929 309.0611 -9341.6206 -7556.6708 301.4529 381.3715 411.1538 30636.0794 1.0282 61.8786
ENERGY: 900000 4.8912 8.8825 4.0815 0.0000 -10933.5962 1559.3109 0.0000 0.0000 1774.1854 -7582.2447 298.7488 -9356.4300 -7556.3725 301.8041 569.3598 603.5007 30701.4668 -23.0513 31.6230
ENERGY: 1200000 4.9479 5.4032 3.7459 0.0000 -10871.0396 1481.0150 0.0000 0.0000 1765.1243 -7610.8032 297.2230 -9375.9276 -7557.3175 300.9912 -319.0928 -247.1167 30819.5514 -112.5956 -54.0552
ENERGY: 1500000 1.2300 3.4802 2.8315 0.0000 -10849.8772 1528.4129 0.0000 0.0000 1799.4573 -7514.4653 303.0042 -9313.9226 -7548.5916 301.7738 560.8993 666.1116 30405.8279 -97.0355 -30.0388
TCL: Running FEP window  15: Lambda1 0.29999999999999966 Lambda2 0.24999999999999967 [dLambda -0.04999999999999999]
TCL: Setting parameter firsttimestep to 0
TCL: Setting parameter alchLambda to 0.29999999999999966
Info: NONBONDED TABLE R-SQUARED SPACING: 0.0625
Info: NONBONDED TABLE SIZE: 705 POINTS
TCL: Setting parameter alchLambda2 to 0.24999999999999967
Info: NONBONDED TABLE R-SQUARED SPACING: 0.0625
Info: NONBONDED TABLE SIZE: 705 POINTS
TCL: Running for 1500000 steps
ETITLE: TS BOND ANGLE DIHED IMPRP ELECT VDW BOUNDARY MISC KINETIC TOTAL TEMP POTENTIAL TOTALAVG TEMPAVG PRESSURE GPRESSURE VOLUME PRESSAVG GPRESSAVG
ENERGY: 0 1.2300 3.4802 2.8315 0.0000 -10849.8769 1528.7963 0.0000 0.0000 1798.5599 -7514.9789 302.8531 -9313.5388 -7514.9789 302.8531 567.9026 663.0091 30405.8279 567.9026 663.0091
ENERGY: 300000 1.2890 5.5910 1.6612 0.0000 -10812.6000 1507.8368 0.0000 0.0000 1757.6008 -7538.6214 295.9561 -9296.2222 -7550.5801 297.9728 405.1570 417.9112 30893.4390 -74.5873 -20.6335
ENERGY: 600000 1.5878 5.1218 1.7707 0.0000 -10965.5173 1556.7003 0.0000 0.0000 1797.0340 -7603.3027 302.5962 -9400.3367 -7550.9522 299.6723 998.9528 1079.8945 30037.6009 46.3813 111.5483
ENERGY: 900000 2.1481 6.3194 3.4945 0.0000 -10890.9261 1563.4968 0.0000 0.0000 1751.2886 -7564.1787 294.8933 -9315.4673 -7550.4173 299.6103 505.7010 573.4173 30838.3705 114.3296 179.6900
ENERGY: 1200000 5.1524 4.1925 4.1391 0.0000 -10845.4902 1471.1837 0.0000 0.0000 1818.3639 -7542.4586 306.1878 -9360.8225 -7552.7405 299.8220 -216.1132 -134.0157 30923.6674 57.8898 127.5479
ENERGY: 1500000 2.0319 4.8440 1.0865 0.0000 -10778.5429 1442.7247 0.0000 0.0000 1792.2288 -7535.6271 301.7870 -9327.8559 -7557.9867 300.4907 10.5022 66.1426 30624.1783 -25.4221 34.6264
TCL: Running FEP window  16: Lambda1 0.24999999999999967 Lambda2 0.19999999999999968 [dLambda -0.04999999999999999]
TCL: Setting parameter firsttimestep to 0
TCL: Setting parameter alchLambda to 0.24999999999999967
Info: NONBONDED TABLE R-SQUARED SPACING: 0.0625
Info: NONBONDED TABLE SIZE: 705 POINTS
TCL: Setting parameter alchLambda2 to 0.19999999999999968
Info: NONBONDED TABLE R-SQUARED SPACING: 0.0625
Info: NONBONDED TABLE SIZE: 705 POINTS
TCL: Running for 1500000 steps
ETITLE: TS BOND ANGLE DIHED IMPRP ELECT VDW BOUNDARY MISC KINETIC TOTAL TEMP POTENTIAL TOTALAVG TEMPAVG PRESSURE GPRESSURE VOLUME PRESSAVG GPRESSAVG
ENERGY: 0 2.0319 4.8440 1.0865 0.0000 -10778.5413 1442.9683 0.0000 0.0000 1791.3445 -7536.2661 301.6381 -9327.6106 -7536.2661 301.6381 -26.2958 65.5344 30624.1783 -26.2958 65.5344
ENERGY: 300000 0.4068 4.8308 2.9345 0.0000 -10809.5898 1469.8566 0.0000 0.0000 1799.7941 -7531.7669 303.0609 -9331.5610 -7503.0402 300.7692 -96.6729 -46.4000 30982.4113 237.7909 316.8977
ENERGY: 600000 2.2354 4.1099 4.6820 0.0000 -10826.6240 1430.8707 0.0000 0.0000 1792.7987 -7591.9274 301.8830 -9384.7260 -7527.6929 301.5030 -382.2847 -352.9107 30785.9980 110.7480 178.1199
ENERGY: 900000 3.8325 2.9016 3.7006 0.0000 -10873.9950 1510.7961 0.0000 0.0000 1810.4015 -7542.3627 304.8471 -9352.7642 -7535.3750 301.3364 324.2721 392.9467 30483.4488 239.7565 303.0511
ENERGY: 1200000 2.8317 4.4024 3.0385 0.0000 -10711.3614 1430.9464 0.0000 0.0000 1795.8191 -7474.3234 302.3916 -9270.1425 -7532.6843 300.9265 178.7647 239.9940 30197.5454 225.9988 293.0361
ENERGY: 1500000 7.3139 4.5762 3.3978 0.0000 -10970.4182 1553.7962 0.0000 0.0000 1810.1689 -7591.1651 304.8079 -9401.3340 -7543.5953 300.2592 220.7975 273.1013 30553.9397 200.0451 267.1066
TCL: Running FEP window  17: Lambda1 0.19999999999999968 Lambda2 0.1499999999999997 [dLambda -0.04999999999999999]
TCL: Setting parameter firsttimestep to 0
TCL: Setting parameter alchLambda to 0.19999999999999968
Info: NONBONDED TABLE R-SQUARED SPACING: 0.0625
Info: NONBONDED TABLE SIZE: 705 POINTS
TCL: Setting parameter alchLambda2 to 0.1499999999999997
Info: NONBONDED TABLE R-SQUARED SPACING: 0.0625
Info: NONBONDED TABLE SIZE: 705 POINTS
TCL: Running for 1500000 steps
ETITLE: TS BOND ANGLE DIHED IMPRP ELECT VDW BOUNDARY MISC KINETIC TOTAL TEMP POTENTIAL TOTALAVG TEMPAVG PRESSURE GPRESSURE VOLUME PRESSAVG GPRESSAVG
ENERGY: 0 7.3139 4.5762 3.3978 0.0000 -10970.4198 1553.3353 0.0000 0.0000 1809.2362 -7592.5605 304.6508 -9401.7967 -7592.5605 304.6508 168.2554 266.8207 30553.9397 168.2554 266.8207
ENERGY: 300000 5.9215 4.6152 5.3070 0.0000 -10712.7336 1400.8682 0.0000 0.0000 1738.0240 -7557.9977 292.6597 -9296.0217 -7571.9343 296.9272 -320.3980 -258.8227 30333.4162 50.0836 120.0022
ENERGY: 600000 1.2221 7.6862 3.4962 0.0000 -10849.0417 1490.3229 0.0000 0.0000 1781.6815 -7564.6328 300.0110 -9346.3142 -7553.9427 299.3255 51.0431 116.7381 30798.0626 199.4290 262.2419
ENERGY: 900000 1.7848 4.3715 3.4353 0.0000 -10774.0393 1448.5471 0.0000 0.0000 1729.4112 -7586.4893 291.2094 -9315.9005 -7557.3094 299.1196 -77.9087 -30.9617 30259.9649 96.0592 153.7823
ENERGY: 1200000 1.9895 2.4924 4.5685 0.0000 -10778.6540 1455.7642 0.0000 0.0000 1802.7086 -7511.1308 303.5517 -9313.8394 -7548.0088 300.1131 53.8797 152.7646 30668.0823 -5.0926 61.8467
ENERGY: 1500000 3.6481 4.4087 2.9825 0.0000 -10668.9814 1404.8068 0.0000 0.0000 1792.5810 -7460.5544 301.8463 -9253.1354 -7539.7326 301.0788 194.8569 289.3281 30266.0395 84.1860 147.5485
TCL: Running FEP window  18: Lambda1 0.1499999999999997 Lambda2 0.09999999999999969 [dLambda -0.05 ]
TCL: Setting parameter firsttimestep to 0
TCL: Setting parameter alchLambda to 0.1499999999999997
Info: NONBONDED TABLE R-SQUARED SPACING: 0.0625
Info: NONBONDED TABLE SIZE: 705 POINTS
TCL: Setting parameter alchLambda2 to 0.09999999999999969
Info: NONBONDED TABLE R-SQUARED SPACING: 0.0625
Info: NONBONDED TABLE SIZE: 705 POINTS
TCL: Running for 1500000 steps
ETITLE: TS BOND ANGLE DIHED IMPRP ELECT VDW BOUNDARY MISC KINETIC TOTAL TEMP POTENTIAL TOTALAVG TEMPAVG PRESSURE GPRESSURE VOLUME PRESSAVG GPRESSAVG
ENERGY: 0 3.6481 4.4087 2.9825 0.0000 -10668.9817 1405.4083 0.0000 0.0000 1791.6851 -7460.8490 301.6955 -9252.5342 -7460.8490 301.6955 191.4902 289.1211 30266.0395 191.4902 289.1211
ENERGY: 300000 2.4189 4.9780 4.1589 0.0000 -10788.7037 1463.1958 0.0000 0.0000 1790.6235 -7523.3286 301.5167 -9313.9521 -7536.6769 301.0490 377.2480 395.8834 30412.1201 90.1070 142.8886
ENERGY: 600000 3.6962 3.6580 4.0557 0.0000 -10762.2638 1422.8391 0.0000 0.0000 1746.1924 -7581.8223 294.0351 -9328.0148 -7554.1149 298.0759 -357.9441 -238.9292 30749.2310 -67.3325 -11.4426
ENERGY: 900000 3.5991 4.0457 1.5093 0.0000 -10802.1188 1409.4253 0.0000 0.0000 1795.8548 -7587.6847 302.3976 -9383.5395 -7553.1230 298.6252 -437.5452 -338.6092 30334.7534 -94.7072 -30.0103
ENERGY: 1200000 3.0321 5.2356 1.0271 0.0000 -10935.6877 1488.7789 0.0000 0.0000 1783.5603 -7654.0537 300.3274 -9437.6140 -7559.7637 299.6027 -64.6450 -30.2684 30640.8130 -125.2833 -59.8459
ENERGY: 1500000 2.1473 5.9281 0.9809 0.0000 -10805.2946 1491.7052 0.0000 0.0000 1790.5436 -7513.9896 301.5033 -9304.5332 -7560.1753 299.2111 482.2048 501.9027 30849.5790 -97.8979 -34.6206
TCL: Running FEP window  19: Lambda1 0.09999999999999969 Lambda2 0.049999999999999684 [dLambda -0.05 ]
TCL: Setting parameter firsttimestep to 0
TCL: Setting parameter alchLambda to 0.09999999999999969
Info: NONBONDED TABLE R-SQUARED SPACING: 0.0625
Info: NONBONDED TABLE SIZE: 705 POINTS
TCL: Setting parameter alchLambda2 to 0.049999999999999684
Info: NONBONDED TABLE R-SQUARED SPACING: 0.0625
Info: NONBONDED TABLE SIZE: 705 POINTS
TCL: Running for 1500000 steps
ETITLE: TS BOND ANGLE DIHED IMPRP ELECT VDW BOUNDARY MISC KINETIC TOTAL TEMP POTENTIAL TOTALAVG TEMPAVG PRESSURE GPRESSURE VOLUME PRESSAVG GPRESSAVG
ENERGY: 0 2.1473 5.9281 0.9809 0.0000 -10805.2939 1490.9383 0.0000 0.0000 1789.6950 -7515.6044 301.3604 -9305.2994 -7515.6044 301.3604 416.8017 493.3048 30849.5790 416.8017 493.3048
ENERGY: 300000 2.1618 4.6822 2.7938 0.0000 -10863.7659 1513.2938 0.0000 0.0000 1813.5575 -7527.2768 305.3785 -9340.8342 -7532.0242 300.5999 344.4283 402.2035 30719.1933 341.1335 415.2377
ENERGY: 600000 1.5128 9.4178 2.0237 0.0000 -10664.1928 1380.8778 0.0000 0.0000 1798.6959 -7471.6647 302.8760 -9270.3606 -7523.4171 301.6994 -760.7854 -687.9360 31231.8483 298.7228 368.3830
ENERGY: 900000 5.2240 5.0208 3.2437 0.0000 -10852.3122 1529.5607 0.0000 0.0000 1751.9866 -7557.2763 295.0108 -9309.2629 -7538.5826 300.8652 255.1767 298.6902 30891.7481 134.4267 200.5004
ENERGY: 1200000 1.6032 2.9870 6.4334 0.0000 -10872.3065 1533.2958 0.0000 0.0000 1771.3079 -7556.6793 298.2642 -9327.9872 -7552.7129 299.5871 454.6012 504.3921 30785.2804 101.4273 166.0657
ENERGY: 1500000 4.4500 4.8129 2.7051 0.0000 -10806.3669 1427.8804 0.0000 0.0000 1778.1489 -7588.3697 299.4162 -9366.5185 -7557.2186 299.3952 -519.3848 -429.6176 30513.0134 73.0016 144.5081
TCL: Running FEP window  20: Lambda1 0.049999999999999684 Lambda2 0.0    [dLambda -0.049999999999999684]
TCL: Setting parameter firsttimestep to 0
TCL: Setting parameter alchLambda to 0.049999999999999684
Info: NONBONDED TABLE R-SQUARED SPACING: 0.0625
Info: NONBONDED TABLE SIZE: 705 POINTS
TCL: Setting parameter alchLambda2 to 0.0
Info: NONBONDED TABLE R-SQUARED SPACING: 0.0625
Info: NONBONDED TABLE SIZE: 705 POINTS
TCL: Running for 1500000 steps
ETITLE: TS BOND ANGLE DIHED IMPRP ELECT VDW BOUNDARY MISC KINETIC TOTAL TEMP POTENTIAL TOTALAVG TEMPAVG PRESSURE GPRESSURE VOLUME PRESSAVG GPRESSAVG
ENERGY: 0 4.4500 4.8129 2.7051 0.0000 -10806.3663 1427.9196 0.0000 0.0000 1777.2337 -7589.2450 299.2621 -9366.4787 -7589.2450 299.2621 -508.2269 -430.1142 30513.0134 -508.2269 -430.1142
ENERGY: 300000 4.3691 5.8146 1.9049 0.0000 -10939.1158 1520.4787 0.0000 0.0000 1818.0049 -7588.5437 306.1274 -9406.5486 -7572.6639 300.4598 360.1340 394.6073 30278.1372 -43.6923 23.0555
ENERGY: 600000 3.2774 4.2097 3.5811 0.0000 -10912.2420 1495.8433 0.0000 0.0000 1798.5038 -7606.8268 302.8437 -9405.3306 -7585.6821 300.0304 221.3846 291.3681 29991.2959 -0.6116 69.1916
ENERGY: 900000 2.3485 9.2856 2.3942 0.0000 -10769.3561 1481.2767 0.0000 0.0000 1699.5003 -7574.5509 286.1728 -9274.0512 -7585.9851 298.4185 303.6795 334.3965 30616.3415 65.3167 128.7962
ENERGY: 1200000 5.6228 2.6103 5.4268 0.0000 -10762.6348 1397.7647 0.0000 0.0000 1791.4934 -7559.7169 301.6632 -9351.2103 -7570.1539 298.5421 -624.0913 -543.1347 30776.5121 -52.5811 16.9471
ENERGY: 1500000 2.7937 2.4762 3.2205 0.0000 -10890.8767 1496.3912 0.0000 0.0000 1762.3195 -7623.6756 296.7507 -9385.9951 -7564.4717 299.2109 70.3758 113.9820 30635.7942 10.2969 74.9335
TCL: Exiting due to exit command.
