Info: SIMULATION PARAMETERS:
Info: TIMESTEP               2
Info: NUMBER OF STEPS        0
Info: STEPS PER CYCLE        10
Info: PERIODIC CELL BASIS 1  30.7739 0 0
Info: PERIODIC CELL BASIS 2  0 31.1478 0
Info: PERIODIC CELL BASIS 3  0 0 31.3527
Info: PERIODIC CELL CENTER   0 0 0
Info: WRAPPING WATERS AROUND PERIODIC BOUNDARIES ON OUTPUT.
Info: WRAPPING ALL CLUSTERS AROUND PERIODIC BOUNDARIES ON OUTPUT.
Info: FIRST LDB TIMESTEP     50
Info: LAST LDB TIMESTEP     -1
Info: HOM BACKGROUND SCALING 1
Info: PME BACKGROUND SCALING 1
Info: MIN ATOMS PER PATCH    40
Info: EMPTY PATCH LOAD       40 ATOMS
Info: VELOCITY FILE          mobley_2143011_equil.vel
Info: CENTER OF MASS MOVING INITIALLY? NO
Info: DIELECTRIC             1
Info: EXCLUDE                SCALED ONE-FOUR
Info: 1-4 ELECTROSTATICS SCALED BY 0.833333
Info: MODIFIED 1-4 VDW PARAMETERS WILL BE USED
Info: DCD FILENAME           mobley_2143011_prod.dcd
Info: DCD FREQUENCY          100000
Info: DCD FIRST STEP         100000
Info: DCD FILE WILL CONTAIN UNIT CELL DATA
Info: XST FILENAME           mobley_2143011_prod.xst
Info: XST FREQUENCY          100000
Info: NO VELOCITY DCD OUTPUT
Info: NO FORCE DCD OUTPUT
Info: OUTPUT FILENAME        mobley_2143011_prod
Info: BINARY OUTPUT FILES WILL BE USED
Info: RESTART FILENAME       mobley_2143011_prod.restart
Info: RESTART FREQUENCY      100000
Info: BINARY RESTART FILES WILL BE USED
Info: CUTOFF                 9
Info: PAIRLIST DISTANCE      11
Info: PAIRLIST SHRINK RATE   0.01
Info: PAIRLIST GROW RATE     0.01
Info: PAIRLIST TRIGGER       0.3
Info: PAIRLISTS PER CYCLE    2
Info: PAIRLISTS ENABLED
Info: MARGIN                 2
Info: HYDROGEN GROUP CUTOFF  2.5
Info: PATCH DIMENSION        15.5
Info: ENERGY OUTPUT STEPS    100000
Info: ENERGY EVALUATION STEPS    100000
Info: OUTPUT ENERGY PRECISION 4
Info: CROSSTERM ENERGY INCLUDED IN DIHEDRAL
Info: TIMING OUTPUT STEPS    1000000
Info: PRESSURE OUTPUT STEPS  100000
Info: ALCHEMICAL FEP ON
Info: FEP CURRENT LAMBDA VALUE     1
Info: FEP COMPARISON LAMBDA VALUE  0.95
Info: FEP INTRA-ALCHEMICAL NON-BONDED INTERACTIONS WILL BE RETAINED
Info: FEP INTRA-ALCHEMICAL BONDED INTERACTIONS WILL BE RETAINED
Info: FEP VDW SHIFTING COEFFICIENT 5
Info: FEP ELEC. ACTIVE FOR ANNIHILATED PARTICLES BETWEEN LAMBDA = 0 AND LAMBDA = 0.5
Info: FEP ELEC. ACTIVE FOR EXNIHILATED PARTICLES BETWEEN LAMBDA = 0.5 AND LAMBDA = 1
Info: FEP VDW ACTIVE FOR ANNIHILATED PARTICLES BETWEEN LAMBDA = 0 AND LAMBDA = 1
Info: FEP VDW ACTIVE FOR EXNIHILATED PARTICLES BETWEEN LAMBDA = 0 AND LAMBDA = 1
Info: FEP BOND ACTIVE FOR ANNIHILATED PARTICLES BETWEEN LAMBDA = 1 AND LAMBDA = 1
Info: FEP BOND ACTIVE FOR EXNIHILATED PARTICLES BETWEEN LAMBDA = 0 AND LAMBDA = 0
Info: LANGEVIN DYNAMICS ACTIVE
Info: LANGEVIN TEMPERATURE   300
Info: LANGEVIN USING BBK INTEGRATOR
Info: LANGEVIN DAMPING COEFFICIENT IS 1 INVERSE PS
Info: LANGEVIN DYNAMICS APPLIED TO HYDROGENS
Info: LANGEVIN PISTON PRESSURE CONTROL ACTIVE
Info:        TARGET PRESSURE IS 1.01325 BAR
Info:     OSCILLATION PERIOD IS 50 FS
Info:             DECAY TIME IS 25 FS
Info:     PISTON TEMPERATURE IS 300 K
Info:       PRESSURE CONTROL IS GROUP-BASED
Info:    INITIAL STRAIN RATE IS 0.000572042 0.000572042 0.000572042
Info:       CELL FLUCTUATION IS ISOTROPIC
Info: PARTICLE MESH EWALD (PME) ACTIVE
Info: PME TOLERANCE               1e-06
Info: PME EWALD COEFFICIENT       0.348832
Info: PME INTERPOLATION ORDER     4
Info: PME GRID DIMENSIONS         32 32 32
Info: PME MAXIMUM GRID SPACING    1
Info: PME CALCULATION WILL BE PERFORMED ON GPU
Info: FULL ELECTROSTATIC EVALUATION FREQUENCY      2
Info: USING VERLET I (r-RESPA) MTS SCHEME.
Info: C1 SPLITTING OF LONG RANGE ELECTROSTATICS
Info: PLACING ATOMS IN PATCHES BY HYDROGEN GROUPS
Info: RIGID BONDS TO HYDROGEN : ALL
Info:         ERROR TOLERANCE : 1e-08
Info:          MAX ITERATIONS : 100
Info: RIGID WATER USING SETTLE ALGORITHM
Info: RANDOM NUMBER SEED     1743741687
Info: USE HYDROGEN BONDS?    NO
Info: Using AMBER format force field!
Info: AMBER PARM FILE        mobley_2143011.prmtop
Info: COORDINATE PDB         mobley_2143011.pdb
Info: Exclusions will be read from PARM file!
Info: SCNB (VDW SCALING)     2
Info: USING ARITHMETIC MEAN TO COMBINE L-J SIGMA PARAMETERS
Info: BINARY COORDINATES     mobley_2143011_equil.coor
Info: SUMMARY OF PARAMETERS:
Info: 7 BONDS
Info: 9 ANGLES
Info:   9 HARMONIC
Info:   0 COSINE-BASED
Info: 8 DIHEDRAL
Info: 0 IMPROPER
Info: 0 CROSSTERM
Info: 0 VDW
Info: 21 VDW_PAIRS
Info: 0 NBTHOLE_PAIRS
Info: To read alchdata from file: mobley_2143011.pdb
Info: To read alchflag data from column: 5
Info: STRUCTURE SUMMARY:
Info: 2955 ATOMS
Info: 2954 BONDS
Info: 24 ANGLES
Info: 32 DIHEDRALS
Info: 0 IMPROPERS
Info: 0 CROSSTERMS
Info: 3006 EXCLUSIONS
Info: 2950 RIGID BONDS
Info: ALCH: 0 ATOMS TO DISAPPEAR IN FINAL STATE
Info: ALCH: 15 ATOMS TO APPEAR IN FINAL STATE
Info: 5915 DEGREES OF FREEDOM
Info: 985 HYDROGEN GROUPS
Info: 4 ATOMS IN LARGEST HYDROGEN GROUP
Info: 985 MIGRATION GROUPS
Info: 4 ATOMS IN LARGEST MIGRATION GROUP
Info: TOTAL MASS = 17725.8 amu
Info: TOTAL CHARGE = 0.000199992 e
Info: MASS DENSITY = 0.979444 g/cm^3
Info: ATOM DENSITY = 0.0983268 atoms/A^3
Info: ADDED 0 IMPLICIT EXCLUSIONS
Info: NONBONDED TABLE R-SQUARED SPACING: 0.0625
Info: NONBONDED TABLE SIZE: 705 POINTS
Info: REMOVING COM VELOCITY -0.0442116 -0.0854069 0.056602
Info: Use 3D box decompostion in PME FFT.
Info: Updated CUDA force table with 4096 elements.
Info: Updated CUDA LJ table with 6 x 6 elements.
Info: Found 18 unique exclusion lists needing 40 bytes
TCL: Running for 1500000 steps
ETITLE: TS BOND ANGLE DIHED IMPRP ELECT VDW BOUNDARY MISC KINETIC TOTAL TEMP POTENTIAL TOTALAVG TEMPAVG PRESSURE GPRESSURE VOLUME PRESSAVG GPRESSAVG
ENERGY: 0 1.8761 5.4725 2.0102 0.0000 -10783.7999 1468.9496 0.0000 0.0000 1729.9700 -7575.5215 294.3569 -9305.4915 -7575.5215 294.3569 113.5371 207.5269 30052.8475 113.5371 207.5269
ENERGY: 300000 1.6957 3.8127 1.7595 0.0000 -10654.0069 1337.9668 0.0000 0.0000 1810.2168 -7498.5553 308.0110 -9308.7722 -7543.0867 299.8185 -1111.8300 -1052.5221 30965.4362 -356.4957 -283.7573
ENERGY: 600000 0.3855 6.5465 1.4939 0.0000 -10738.0341 1433.7146 0.0000 0.0000 1733.7532 -7562.1403 295.0006 -9295.8935 -7522.2521 297.6372 -165.9777 -132.3243 30387.9060 -231.2077 -164.9808
ENERGY: 900000 1.3930 5.2941 1.9539 0.0000 -10642.3299 1427.4809 0.0000 0.0000 1744.3306 -7461.8774 296.8004 -9206.2080 -7512.5893 296.6311 -34.9958 56.4555 30399.3732 -155.1823 -79.8228
ENERGY: 1200000 0.7653 6.6109 2.1542 0.0000 -10540.8619 1394.2877 0.0000 0.0000 1748.5882 -7388.4556 297.5248 -9137.0438 -7509.7170 296.3595 -197.8465 -166.6576 30940.7776 -194.5547 -129.3484
ENERGY: 1500000 0.3580 6.0452 3.9797 0.0000 -10682.0959 1437.4169 0.0000 0.0000 1751.6601 -7482.6360 298.0475 -9234.2961 -7509.1214 297.2368 187.5084 220.4506 30329.8843 -86.7147 -19.8058
TCL: Running FEP window   2: Lambda1 0.95   Lambda2 0.8999999999999999 [dLambda -0.050000000000000044]
TCL: Setting parameter firsttimestep to 0
TCL: Setting parameter alchLambda to 0.95
Info: NONBONDED TABLE R-SQUARED SPACING: 0.0625
Info: NONBONDED TABLE SIZE: 705 POINTS
TCL: Setting parameter alchLambda2 to 0.8999999999999999
Info: NONBONDED TABLE R-SQUARED SPACING: 0.0625
Info: NONBONDED TABLE SIZE: 705 POINTS
TCL: Running for 1500000 steps
ETITLE: TS BOND ANGLE DIHED IMPRP ELECT VDW BOUNDARY MISC KINETIC TOTAL TEMP POTENTIAL TOTALAVG TEMPAVG PRESSURE GPRESSURE VOLUME PRESSAVG GPRESSAVG
ENERGY: 0 0.3580 6.0452 3.9797 0.0000 -10681.9557 1437.4834 0.0000 0.0000 1750.7357 -7483.3538 297.8902 -9234.0895 -7483.3538 297.8902 127.3439 213.0811 30329.8843 127.3439 213.0811
ENERGY: 300000 1.5671 4.3177 1.3108 0.0000 -10777.4917 1510.3987 0.0000 0.0000 1764.9994 -7494.8980 300.3172 -9259.8974 -7515.6650 297.8664 631.7532 647.3178 30410.3387 256.3049 304.0416
ENERGY: 600000 1.2435 3.7384 2.3992 0.0000 -10737.5465 1464.2780 0.0000 0.0000 1718.2414 -7547.6459 292.3613 -9265.8873 -7512.0770 296.2559 36.9055 80.0959 30636.6632 31.9970 84.5440
ENERGY: 900000 0.6134 6.5918 1.2776 0.0000 -10806.4698 1522.0180 0.0000 0.0000 1721.4545 -7554.5145 292.9080 -9275.9691 -7507.1781 296.9891 645.8517 667.0716 30250.9375 157.8299 208.7848
ENERGY: 1200000 1.2155 4.7880 3.7703 0.0000 -10790.7729 1482.6131 0.0000 0.0000 1776.7204 -7521.6655 302.3115 -9298.3859 -7504.9613 298.1693 216.7432 311.5136 30277.5452 120.4193 174.6626
ENERGY: 1500000 0.4776 7.5339 2.3142 0.0000 -10707.6719 1437.7691 0.0000 0.0000 1784.9927 -7474.5843 303.7191 -9259.5770 -7504.2941 298.4860 -103.3055 -30.8357 30678.3140 17.4076 76.5464
TCL: Running FEP window   3: Lambda1 0.8999999999999999 Lambda2 0.8499999999999999 [dLambda -0.050000000000000044]
TCL: Setting parameter firsttimestep to 0
TCL: Setting parameter alchLambda to 0.8999999999999999
Info: NONBONDED TABLE R-SQUARED SPACING: 0.0625
Info: NONBONDED TABLE SIZE: 705 POINTS
TCL: Setting parameter alchLambda2 to 0.8499999999999999
Info: NONBONDED TABLE R-SQUARED SPACING: 0.0625
Info: NONBONDED TABLE SIZE: 705 POINTS
TCL: Running for 1500000 steps
ETITLE: TS BOND ANGLE DIHED IMPRP ELECT VDW BOUNDARY MISC KINETIC TOTAL TEMP POTENTIAL TOTALAVG TEMPAVG PRESSURE GPRESSURE VOLUME PRESSAVG GPRESSAVG
ENERGY: 0 0.4776 7.5339 2.3142 0.0000 -10707.5727 1438.1011 0.0000 0.0000 1784.1080 -7475.0379 303.5686 -9259.1459 -7475.0379 303.5686 -108.1961 -33.3330 30678.3140 -108.1961 -33.3330
ENERGY: 300000 1.4586 7.3540 3.4719 0.0000 -10615.4202 1411.1393 0.0000 0.0000 1741.9804 -7450.0161 296.4005 -9191.9965 -7464.5594 300.8991 27.2257 103.8451 30537.8617 -192.1536 -115.8072
ENERGY: 600000 5.0121 7.1913 2.4075 0.0000 -10635.8084 1375.0340 0.0000 0.0000 1783.0119 -7463.1516 303.3820 -9246.1635 -7486.2885 300.7048 -291.4070 -195.8439 29868.7025 -202.6190 -134.9966
ENERGY: 900000 0.7102 3.4240 1.6651 0.0000 -10613.8595 1380.7066 0.0000 0.0000 1685.8642 -7541.4894 286.8522 -9227.3535 -7487.5008 299.1350 -351.5462 -292.5341 30454.6867 -187.6420 -125.0134
ENERGY: 1200000 0.5770 5.4315 1.0749 0.0000 -10737.3622 1457.7693 0.0000 0.0000 1776.7436 -7495.7660 302.3155 -9272.5095 -7490.5082 299.7825 193.5306 242.5587 30416.6355 -252.9376 -192.2201
ENERGY: 1500000 1.4249 10.2523 2.8272 0.0000 -10663.8188 1422.1508 0.0000 0.0000 1790.8072 -7436.3565 304.7084 -9227.1636 -7483.0302 300.6787 -159.2712 -106.8162 30666.0575 -172.9044 -111.7126
TCL: Running FEP window   4: Lambda1 0.8499999999999999 Lambda2 0.7999999999999998 [dLambda -0.050000000000000044]
TCL: Setting parameter firsttimestep to 0
TCL: Setting parameter alchLambda to 0.8499999999999999
Info: NONBONDED TABLE R-SQUARED SPACING: 0.0625
Info: NONBONDED TABLE SIZE: 705 POINTS
TCL: Setting parameter alchLambda2 to 0.7999999999999998
Info: NONBONDED TABLE R-SQUARED SPACING: 0.0625
Info: NONBONDED TABLE SIZE: 705 POINTS
TCL: Running for 1500000 steps
ETITLE: TS BOND ANGLE DIHED IMPRP ELECT VDW BOUNDARY MISC KINETIC TOTAL TEMP POTENTIAL TOTALAVG TEMPAVG PRESSURE GPRESSURE VOLUME PRESSAVG GPRESSAVG
ENERGY: 0 1.4249 10.2523 2.8272 0.0000 -10663.7802 1421.9854 0.0000 0.0000 1789.9275 -7437.3629 304.5587 -9227.2904 -7437.3629 304.5587 -207.4497 -118.4797 30666.0575 -207.4497 -118.4797
ENERGY: 300000 0.6571 4.2083 2.3805 0.0000 -10726.5975 1475.4769 0.0000 0.0000 1808.2750 -7435.5997 307.6806 -9243.8747 -7466.9433 302.1923 204.8118 236.1851 30784.6504 -429.4006 -381.8190
ENERGY: 600000 0.7371 5.0346 3.9832 0.0000 -10661.1535 1397.9783 0.0000 0.0000 1773.9551 -7479.4652 301.8410 -9253.4204 -7497.3282 300.2189 -404.0929 -317.3647 30404.5178 -539.0521 -473.8623
ENERGY: 900000 0.8945 3.5686 2.2630 0.0000 -10761.0065 1492.4008 0.0000 0.0000 1744.8808 -7516.9987 296.8940 -9261.8795 -7491.3401 300.2533 225.6270 299.9539 30905.0054 -326.3929 -268.0604
ENERGY: 1200000 1.0112 3.4194 3.9273 0.0000 -10635.4810 1370.4295 0.0000 0.0000 1777.2056 -7479.4881 302.3941 -9256.6937 -7485.8529 300.2494 -613.1109 -563.7340 30851.7935 -375.6635 -320.7831
ENERGY: 1500000 0.7834 8.9292 1.4466 0.0000 -10774.5781 1493.7763 0.0000 0.0000 1812.5616 -7457.0810 308.4100 -9269.6426 -7488.8906 300.9322 344.3073 439.5824 30330.5114 -300.5502 -244.5416
TCL: Running FEP window   5: Lambda1 0.7999999999999998 Lambda2 0.7499999999999998 [dLambda -0.050000000000000044]
TCL: Setting parameter firsttimestep to 0
TCL: Setting parameter alchLambda to 0.7999999999999998
Info: NONBONDED TABLE R-SQUARED SPACING: 0.0625
Info: NONBONDED TABLE SIZE: 705 POINTS
TCL: Setting parameter alchLambda2 to 0.7499999999999998
Info: NONBONDED TABLE R-SQUARED SPACING: 0.0625
Info: NONBONDED TABLE SIZE: 705 POINTS
TCL: Running for 1500000 steps
ETITLE: TS BOND ANGLE DIHED IMPRP ELECT VDW BOUNDARY MISC KINETIC TOTAL TEMP POTENTIAL TOTALAVG TEMPAVG PRESSURE GPRESSURE VOLUME PRESSAVG GPRESSAVG
ENERGY: 0 0.7834 8.9292 1.4466 0.0000 -10774.3745 1494.2332 0.0000 0.0000 1811.6958 -7457.2864 308.2627 -9268.9822 -7457.2864 308.2627 352.4964 435.8906 30330.5114 352.4964 435.8906
ENERGY: 300000 2.9853 5.2789 2.7730 0.0000 -10775.5263 1466.2368 0.0000 0.0000 1750.1247 -7548.1275 297.7862 -9298.2522 -7495.8304 302.3565 -243.9515 -132.4199 30554.7862 -296.3950 -199.6361
ENERGY: 600000 0.3461 3.6161 6.0605 0.0000 -10780.6312 1429.0786 0.0000 0.0000 1786.9444 -7554.5855 304.0512 -9341.5299 -7499.8124 303.4206 -135.3335 -79.5700 30297.8394 -172.7848 -88.1996
ENERGY: 900000 0.7106 4.2736 2.0379 0.0000 -10742.4436 1487.2587 0.0000 0.0000 1809.1086 -7439.0542 307.8224 -9248.1628 -7497.3137 303.8282 382.2524 519.1750 30320.9292 -102.5754 -19.2691
ENERGY: 1200000 0.4897 7.2116 4.4909 0.0000 -10703.1526 1442.1637 0.0000 0.0000 1768.4803 -7480.3164 300.9095 -9248.7967 -7496.1151 303.1358 222.1484 333.8696 29985.7106 -49.9012 30.1584
ENERGY: 1500000 0.7331 4.3447 2.1848 0.0000 -10720.7256 1389.2463 0.0000 0.0000 1774.1773 -7550.0394 301.8788 -9324.2167 -7501.9074 302.2774 -537.6529 -587.4162 30452.2834 -52.6767 9.7298
TCL: Running FEP window   6: Lambda1 0.7499999999999998 Lambda2 0.6999999999999997 [dLambda -0.050000000000000044]
TCL: Setting parameter firsttimestep to 0
TCL: Setting parameter alchLambda to 0.7499999999999998
Info: NONBONDED TABLE R-SQUARED SPACING: 0.0625
Info: NONBONDED TABLE SIZE: 705 POINTS
TCL: Setting parameter alchLambda2 to 0.6999999999999997
Info: NONBONDED TABLE R-SQUARED SPACING: 0.0625
Info: NONBONDED TABLE SIZE: 705 POINTS
TCL: Running for 1500000 steps
ETITLE: TS BOND ANGLE DIHED IMPRP ELECT VDW BOUNDARY MISC KINETIC TOTAL TEMP POTENTIAL TOTALAVG TEMPAVG PRESSURE GPRESSURE VOLUME PRESSAVG GPRESSAVG
ENERGY: 0 0.7331 4.3447 2.1848 0.0000 -10720.6754 1389.6220 0.0000 0.0000 1773.2966 -7550.4942 301.7290 -9323.7907 -7550.4942 301.7290 -669.2936 -588.5699 30452.2834 -669.2936 -588.5699
ENERGY: 300000 1.6630 3.9650 3.1238 0.0000 -10547.4776 1270.9377 0.0000 0.0000 1747.0765 -7520.7116 297.2676 -9267.7881 -7518.5029 297.2753 -1465.4527 -1437.1626 30689.1512 -554.3577 -495.0007
ENERGY: 600000 1.5801 7.9750 1.3114 0.0000 -10690.2842 1456.9937 0.0000 0.0000 1747.1972 -7475.2269 297.2881 -9222.4240 -7506.5997 298.5084 278.3871 250.3602 30211.5904 -270.7582 -228.1016
ENERGY: 900000 1.2030 3.6570 3.0253 0.0000 -10704.0438 1415.1555 0.0000 0.0000 1776.5090 -7504.4939 302.2756 -9281.0029 -7509.6111 298.2277 -249.9993 -186.6725 30327.5276 -144.8802 -90.8160
ENERGY: 1200000 0.9967 12.0736 4.6773 0.0000 -10776.5739 1475.6233 0.0000 0.0000 1687.0722 -7596.1309 287.0578 -9283.2031 -7515.0674 297.4848 68.2326 138.5982 30271.3596 -153.3797 -96.1496
ENERGY: 1500000 1.8778 7.9145 3.8115 0.0000 -10759.5755 1474.8023 0.0000 0.0000 1782.1786 -7488.9909 303.2403 -9271.1694 -7510.3968 297.9836 158.5383 166.9519 30535.7020 -33.6193 19.2006
TCL: Running FEP window   7: Lambda1 0.6999999999999997 Lambda2 0.6499999999999997 [dLambda -0.050000000000000044]
TCL: Setting parameter firsttimestep to 0
TCL: Setting parameter alchLambda to 0.6999999999999997
Info: NONBONDED TABLE R-SQUARED SPACING: 0.0625
Info: NONBONDED TABLE SIZE: 705 POINTS
TCL: Setting parameter alchLambda2 to 0.6499999999999997
Info: NONBONDED TABLE R-SQUARED SPACING: 0.0625
Info: NONBONDED TABLE SIZE: 705 POINTS
TCL: Running for 1500000 steps
ETITLE: TS BOND ANGLE DIHED IMPRP ELECT VDW BOUNDARY MISC KINETIC TOTAL TEMP POTENTIAL TOTALAVG TEMPAVG PRESSURE GPRESSURE VOLUME PRESSAVG GPRESSAVG
ENERGY: 0 1.8778 7.9145 3.8115 0.0000 -10759.5653 1475.1026 0.0000 0.0000 1781.2877 -7489.5712 303.0887 -9270.8589 -7489.5712 303.0887 90.8103 165.7994 30535.7020 90.8103 165.7994
ENERGY: 300000 3.1798 6.2567 1.2677 0.0000 -10765.7307 1497.3079 0.0000 0.0000 1778.2046 -7479.5140 302.5641 -9257.7186 -7495.1717 303.3078 519.9179 556.7147 30320.5376 93.9344 152.5379
ENERGY: 600000 1.5527 5.2659 2.0590 0.0000 -10643.5780 1457.4360 0.0000 0.0000 1703.4656 -7473.7987 289.8471 -9177.2643 -7483.2591 300.5796 512.1246 543.5150 29926.0871 3.8789 62.5313
ENERGY: 900000 2.0605 9.4032 2.8658 0.0000 -10572.1574 1365.9234 0.0000 0.0000 1723.3333 -7468.5712 293.2277 -9191.9045 -7477.7425 300.1353 -471.2505 -330.0378 30437.5942 -46.2832 21.1295
ENERGY: 1200000 0.3276 5.9131 1.4787 0.0000 -10685.8671 1394.7722 0.0000 0.0000 1769.5684 -7513.8071 301.0946 -9283.3755 -7482.3293 300.1159 -101.3154 -103.4673 29997.3741 -29.9999 30.6257
ENERGY: 1500000 2.3881 4.4987 1.3987 0.0000 -10733.3676 1464.2702 0.0000 0.0000 1793.4903 -7467.3217 305.1650 -9260.8120 -7483.0298 300.1546 400.9295 433.9368 29762.8024 -58.5579 4.9658
TCL: Running FEP window   8: Lambda1 0.6499999999999997 Lambda2 0.5999999999999996 [dLambda -0.050000000000000044]
TCL: Setting parameter firsttimestep to 0
TCL: Setting parameter alchLambda to 0.6499999999999997
Info: NONBONDED TABLE R-SQUARED SPACING: 0.0625
Info: NONBONDED TABLE SIZE: 705 POINTS
TCL: Setting parameter alchLambda2 to 0.5999999999999996
Info: NONBONDED TABLE R-SQUARED SPACING: 0.0625
Info: NONBONDED TABLE SIZE: 705 POINTS
TCL: Running for 1500000 steps
ETITLE: TS BOND ANGLE DIHED IMPRP ELECT VDW BOUNDARY MISC KINETIC TOTAL TEMP POTENTIAL TOTALAVG TEMPAVG PRESSURE GPRESSURE VOLUME PRESSAVG GPRESSAVG
ENERGY: 0 2.3881 4.4987 1.3987 0.0000 -10733.4195 1464.5384 0.0000 0.0000 1792.6443 -7467.9514 305.0210 -9260.5957 -7467.9514 305.0210 349.8656 429.6351 29762.8024 349.8656 429.6351
ENERGY: 300000 3.9271 10.8951 1.7693 0.0000 -10744.5033 1416.2186 0.0000 0.0000 1749.9189 -7561.7743 297.7512 -9311.6932 -7487.4871 300.5833 -460.2302 -415.2397 30466.8123 12.0282 47.5239
ENERGY: 600000 3.6247 9.7637 3.1499 0.0000 -10915.8996 1592.1821 0.0000 0.0000 1779.5476 -7527.6317 302.7926 -9307.1793 -7490.2098 300.6215 1373.4484 1398.7536 29733.4530 353.5274 412.3801
ENERGY: 900000 1.2605 6.1319 3.1606 0.0000 -10785.9048 1434.4201 0.0000 0.0000 1772.7627 -7568.1690 301.6381 -9340.9317 -7505.6424 300.0531 -149.2812 -139.0558 30092.3168 226.0117 278.2607
ENERGY: 1200000 0.4621 1.9927 1.6551 0.0000 -10676.2389 1416.3905 0.0000 0.0000 1790.7737 -7464.9648 304.7027 -9255.7385 -7497.9839 300.6355 -106.1850 -37.9973 30402.9972 112.5446 165.3106
ENERGY: 1500000 1.5635 3.7581 1.9762 0.0000 -10752.3607 1414.9615 0.0000 0.0000 1758.8495 -7571.2518 299.2708 -9330.1014 -7509.5940 299.8282 -337.9414 -313.0052 30341.2384 43.1493 96.1896
TCL: Running FEP window   9: Lambda1 0.5999999999999996 Lambda2 0.5499999999999996 [dLambda -0.050000000000000044]
TCL: Setting parameter firsttimestep to 0
TCL: Setting parameter alchLambda to 0.5999999999999996
Info: NONBONDED TABLE R-SQUARED SPACING: 0.0625
Info: NONBONDED TABLE SIZE: 705 POINTS
TCL: Setting parameter alchLambda2 to 0.5499999999999996
Info: NONBONDED TABLE R-SQUARED SPACING: 0.0625
Info: NONBONDED TABLE SIZE: 705 POINTS
TCL: Running for 1500000 steps
ETITLE: TS BOND ANGLE DIHED IMPRP ELECT VDW BOUNDARY MISC KINETIC TOTAL TEMP POTENTIAL TOTALAVG TEMPAVG PRESSURE GPRESSURE VOLUME PRESSAVG GPRESSAVG
ENERGY: 0 1.5635 3.7581 1.9762 0.0000 -10752.4196 1415.4567 0.0000 0.0000 1757.9851 -7571.6800 299.1237 -9329.6651 -7571.6800 299.1237 -393.7441 -312.7547 30341.2384 -393.7441 -312.7547
ENERGY: 300000 1.5139 7.0972 3.8159 0.0000 -10630.9689 1389.1567 0.0000 0.0000 1762.3603 -7467.0250 299.8681 -9229.3853 -7529.1739 297.5824 -127.9281 -58.1292 29968.5114 -214.5006 -156.5694
ENERGY: 600000 1.9296 4.7178 2.4841 0.0000 -10805.7252 1493.9959 0.0000 0.0000 1772.3116 -7530.2862 301.5614 -9302.5978 -7513.3101 298.5332 36.1244 81.7185 30718.8845 -92.1057 -41.9187
ENERGY: 900000 0.8897 6.4735 4.4881 0.0000 -10920.0727 1611.1132 0.0000 0.0000 1713.6241 -7583.4841 291.5756 -9297.1082 -7498.4322 297.8301 1074.0026 1163.1989 30195.5889 -42.3026 17.9365
ENERGY: 1200000 1.0895 4.0087 1.3989 0.0000 -10744.6029 1504.8999 0.0000 0.0000 1861.5535 -7371.6525 316.7460 -9233.2060 -7490.9538 299.0788 552.5874 634.7561 30292.2194 2.2912 69.4868
ENERGY: 1500000 2.0625 10.8326 1.2969 0.0000 -10651.3392 1412.7314 0.0000 0.0000 1687.4434 -7536.9725 287.1209 -9224.4159 -7498.3547 297.7310 -557.5373 -481.8335 30812.7922 -18.5927 44.6780
TCL: Running FEP window  10: Lambda1 0.5499999999999996 Lambda2 0.4999999999999996 [dLambda -0.04999999999999999]
TCL: Setting parameter firsttimestep to 0
TCL: Setting parameter alchLambda to 0.5499999999999996
Info: NONBONDED TABLE R-SQUARED SPACING: 0.0625
Info: NONBONDED TABLE SIZE: 705 POINTS
TCL: Setting parameter alchLambda2 to 0.4999999999999996
Info: NONBONDED TABLE R-SQUARED SPACING: 0.0625
Info: NONBONDED TABLE SIZE: 705 POINTS
TCL: Running for 1500000 steps
ETITLE: TS BOND ANGLE DIHED IMPRP ELECT VDW BOUNDARY MISC KINETIC TOTAL TEMP POTENTIAL TOTALAVG TEMPAVG PRESSURE GPRESSURE VOLUME PRESSAVG GPRESSAVG
ENERGY: 0 2.0625 10.8326 1.2969 0.0000 -10651.5296 1412.9575 0.0000 0.0000 1686.5539 -7537.8263 286.9696 -9224.3802 -7537.8263 286.9696 -570.1713 -482.5247 30812.7922 -570.1713 -482.5247
ENERGY: 300000 1.5936 4.4677 1.3317 0.0000 -10732.5446 1420.5799 0.0000 0.0000 1723.0426 -7581.5291 293.1782 -9304.5718 -7525.0086 292.7903 -117.7724 -109.0780 30130.4319 -3.6344 37.8339
ENERGY: 600000 0.6554 7.7514 0.8728 0.0000 -10674.6911 1399.1666 0.0000 0.0000 1792.4838 -7473.7610 304.9937 -9266.2449 -7530.7446 295.2737 -332.9462 -278.3258 30416.8342 -35.3257 8.1700
ENERGY: 900000 2.0100 9.7742 2.5007 0.0000 -10760.0754 1527.2901 0.0000 0.0000 1772.4683 -7446.0321 301.5880 -9218.5004 -7512.5003 297.3673 763.4988 804.3885 30151.3137 -55.7192 -15.7057
ENERGY: 1200000 2.1766 6.8069 1.4016 0.0000 -10602.7668 1402.2321 0.0000 0.0000 1796.7957 -7393.3539 305.7274 -9190.1496 -7508.4237 298.3806 -185.7164 -131.7924 30370.8627 -79.4311 -39.3371
ENERGY: 1500000 0.9082 5.2023 1.3187 0.0000 -10734.5951 1467.4269 0.0000 0.0000 1749.4888 -7510.2502 297.6780 -9259.7390 -7507.1560 298.7390 200.6907 257.2003 30145.7908 -70.5253 -24.7406
TCL: Running FEP window  11: Lambda1 0.4999999999999996 Lambda2 0.4499999999999996 [dLambda -0.04999999999999999]
TCL: Setting parameter firsttimestep to 0
TCL: Setting parameter alchLambda to 0.4999999999999996
Info: NONBONDED TABLE R-SQUARED SPACING: 0.0625
Info: NONBONDED TABLE SIZE: 705 POINTS
TCL: Setting parameter alchLambda2 to 0.4499999999999996
Info: NONBONDED TABLE R-SQUARED SPACING: 0.0625
Info: NONBONDED TABLE SIZE: 705 POINTS
TCL: Running for 1500000 steps
ETITLE: TS BOND ANGLE DIHED IMPRP ELECT VDW BOUNDARY MISC KINETIC TOTAL TEMP POTENTIAL TOTALAVG TEMPAVG PRESSURE GPRESSURE VOLUME PRESSAVG GPRESSAVG
ENERGY: 0 0.9082 5.2023 1.3187 0.0000 -10734.5230 1466.4951 0.0000 0.0000 1748.6170 -7511.9817 297.5297 -9260.5986 -7511.9817 297.5297 159.4948 240.9710 30145.7908 159.4948 240.9710
ENERGY: 300000 0.5015 3.2429 1.0252 0.0000 -10592.5802 1394.7531 0.0000 0.0000 1760.2489 -7432.8086 299.5089 -9193.0575 -7477.0083 298.2986 -376.0983 -316.4260 30542.8698 -164.1970 -75.0183
ENERGY: 600000 0.6634 4.8505 1.4510 0.0000 -10726.3875 1404.3244 0.0000 0.0000 1774.8666 -7540.2317 301.9961 -9315.0983 -7464.3299 300.3064 -233.3249 -125.7665 30117.4025 -249.3014 -163.5163
ENERGY: 900000 1.0016 3.4684 2.5385 0.0000 -10684.6000 1470.1515 0.0000 0.0000 1717.8356 -7489.6043 292.2922 -9207.4399 -7474.4692 298.7945 617.1231 756.2546 29872.3956 -134.9414 -62.3694
ENERGY: 1200000 0.7185 4.8198 3.3804 0.0000 -10783.1497 1445.3392 0.0000 0.0000 1725.2244 -7603.6675 293.5494 -9328.8919 -7490.8301 298.1795 -193.0116 -127.8509 30363.9317 -108.2526 -38.9841
ENERGY: 1500000 1.5127 4.5553 0.9979 0.0000 -10796.0265 1525.8245 0.0000 0.0000 1719.3444 -7543.7917 292.5489 -9263.1361 -7501.2831 297.9474 807.5767 846.0220 30023.6535 -25.9132 38.2899
TCL: Running FEP window  12: Lambda1 0.4499999999999996 Lambda2 0.39999999999999963 [dLambda -0.04999999999999999]
TCL: Setting parameter firsttimestep to 0
TCL: Setting parameter alchLambda to 0.4499999999999996
Info: NONBONDED TABLE R-SQUARED SPACING: 0.0625
Info: NONBONDED TABLE SIZE: 705 POINTS
TCL: Setting parameter alchLambda2 to 0.39999999999999963
Info: NONBONDED TABLE R-SQUARED SPACING: 0.0625
Info: NONBONDED TABLE SIZE: 705 POINTS
TCL: Running for 1500000 steps
ETITLE: TS BOND ANGLE DIHED IMPRP ELECT VDW BOUNDARY MISC KINETIC TOTAL TEMP POTENTIAL TOTALAVG TEMPAVG PRESSURE GPRESSURE VOLUME PRESSAVG GPRESSAVG
ENERGY: 0 1.5127 4.5553 0.9979 0.0000 -10796.0264 1526.2839 0.0000 0.0000 1718.4805 -7544.1962 292.4019 -9262.6766 -7544.1962 292.4019 769.1377 846.3797 30023.6535 769.1377 846.3797
ENERGY: 300000 1.0974 3.2593 1.8340 0.0000 -10713.7216 1442.2656 0.0000 0.0000 1718.1750 -7547.0904 292.3499 -9265.2653 -7508.9215 299.0668 -274.1596 -216.3468 30800.5323 170.4189 214.4264
ENERGY: 600000 1.0865 4.6580 1.1854 0.0000 -10622.3182 1411.9771 0.0000 0.0000 1736.0948 -7467.3164 295.3990 -9203.4113 -7489.6959 298.2338 -109.8159 -93.6361 30499.3706 163.4006 218.6313
ENERGY: 900000 0.7401 3.3316 2.3968 0.0000 -10704.5527 1421.7383 0.0000 0.0000 1740.9421 -7535.4038 296.2238 -9276.3460 -7507.7005 296.9960 -331.4482 -214.3232 30350.2930 46.0104 103.6941
ENERGY: 1200000 1.2813 5.0139 1.6422 0.0000 -10803.2148 1511.7406 0.0000 0.0000 1782.1050 -7501.4318 303.2277 -9283.5368 -7494.0075 297.9379 448.7778 560.9584 30283.7929 141.5428 204.3339
ENERGY: 1500000 1.6221 8.7840 1.3331 0.0000 -10643.0948 1400.4807 0.0000 0.0000 1785.7991 -7445.0758 303.8563 -9230.8749 -7486.6049 298.4165 -333.4245 -294.5191 30612.1520 35.4468 96.8904
TCL: Running FEP window  13: Lambda1 0.39999999999999963 Lambda2 0.34999999999999964 [dLambda -0.04999999999999999]
TCL: Setting parameter firsttimestep to 0
TCL: Setting parameter alchLambda to 0.39999999999999963
Info: NONBONDED TABLE R-SQUARED SPACING: 0.0625
Info: NONBONDED TABLE SIZE: 705 POINTS
TCL: Setting parameter alchLambda2 to 0.34999999999999964
Info: NONBONDED TABLE R-SQUARED SPACING: 0.0625
Info: NONBONDED TABLE SIZE: 705 POINTS
TCL: Running for 1500000 steps
ETITLE: TS BOND ANGLE DIHED IMPRP ELECT VDW BOUNDARY MISC KINETIC TOTAL TEMP POTENTIAL TOTALAVG TEMPAVG PRESSURE GPRESSURE VOLUME PRESSAVG GPRESSAVG
ENERGY: 0 1.6221 8.7840 1.3331 0.0000 -10643.0937 1400.6257 0.0000 0.0000 1784.9347 -7445.7942 303.7092 -9230.7288 -7445.7942 303.7092 -370.2254 -296.3628 30612.1520 -370.2254 -296.3628
ENERGY: 300000 1.9835 4.4873 4.3183 0.0000 -10645.9198 1468.6177 0.0000 0.0000 1726.2630 -7440.2502 293.7261 -9166.5132 -7479.7171 300.6192 639.2434 668.0029 29875.5311 -83.0748 -44.2506
ENERGY: 600000 1.8175 7.9067 1.7353 0.0000 -10591.1066 1378.5021 0.0000 0.0000 1765.9493 -7435.1957 300.4788 -9201.1451 -7470.5001 300.6407 -412.7835 -345.9052 30537.8421 -199.2304 -152.7750
ENERGY: 900000 0.5074 6.5736 1.9417 0.0000 -10694.9264 1377.1829 0.0000 0.0000 1759.6022 -7549.1185 299.3989 -9308.7207 -7493.3135 299.5261 -534.0709 -447.7884 30033.3651 -136.4555 -91.6614
ENERGY: 1200000 0.3997 6.0190 1.5148 0.0000 -10527.5468 1333.8646 0.0000 0.0000 1753.4847 -7432.2641 298.3579 -9185.7488 -7498.0618 299.0357 -464.8599 -365.3887 30051.7657 -125.0202 -76.1988
ENERGY: 1500000 0.2347 5.6711 2.2757 0.0000 -10534.1401 1329.5888 0.0000 0.0000 1740.7405 -7455.6292 296.1895 -9196.3697 -7495.1280 299.4669 -936.1298 -868.6465 30964.2083 -135.1137 -83.3873
TCL: Running FEP window  14: Lambda1 0.34999999999999964 Lambda2 0.29999999999999966 [dLambda -0.04999999999999999]
TCL: Setting parameter firsttimestep to 0
TCL: Setting parameter alchLambda to 0.34999999999999964
Info: NONBONDED TABLE R-SQUARED SPACING: 0.0625
Info: NONBONDED TABLE SIZE: 705 POINTS
TCL: Setting parameter alchLambda2 to 0.29999999999999966
Info: NONBONDED TABLE R-SQUARED SPACING: 0.0625
Info: NONBONDED TABLE SIZE: 705 POINTS
TCL: Running for 1500000 steps
ETITLE: TS BOND ANGLE DIHED IMPRP ELECT VDW BOUNDARY MISC KINETIC TOTAL TEMP POTENTIAL TOTALAVG TEMPAVG PRESSURE GPRESSURE VOLUME PRESSAVG GPRESSAVG
ENERGY: 0 0.2347 5.6711 2.2757 0.0000 -10534.1395 1328.9917 0.0000 0.0000 1739.8818 -7457.0845 296.0434 -9196.9663 -7457.0845 296.0434 -965.1049 -875.6617 30964.2083 -965.1049 -875.6617
ENERGY: 300000 0.6765 5.6885 2.8034 0.0000 -10701.2482 1382.6651 0.0000 0.0000 1761.4741 -7547.9407 299.7174 -9309.4148 -7500.1647 296.3222 -952.1606 -859.5375 30923.2981 -488.4965 -407.1112
ENERGY: 600000 0.5221 4.5031 2.2258 0.0000 -10708.9340 1437.8558 0.0000 0.0000 1800.7187 -7463.1085 306.3949 -9263.8272 -7493.6236 299.1599 -223.6793 -102.8724 30574.1931 -260.2364 -178.6191
ENERGY: 900000 2.4529 7.4966 2.1854 0.0000 -10644.9563 1453.3285 0.0000 0.0000 1766.5047 -7412.9882 300.5733 -9179.4930 -7479.8394 300.6174 294.3683 379.3251 30279.8394 -48.1289 30.7639
ENERGY: 1200000 0.6119 4.7263 0.9579 0.0000 -10689.5316 1462.7417 0.0000 0.0000 1741.4622 -7479.0314 296.3123 -9220.4936 -7473.3903 300.8471 517.0570 521.6607 29893.5445 -22.9258 50.6860
ENERGY: 1500000 2.5971 8.5331 3.5886 0.0000 -10690.1122 1452.6362 0.0000 0.0000 1793.2923 -7429.4649 305.1313 -9222.7572 -7473.1199 301.7790 316.7484 375.2586 30232.6611 -30.4491 41.1743
TCL: Running FEP window  15: Lambda1 0.29999999999999966 Lambda2 0.24999999999999967 [dLambda -0.04999999999999999]
TCL: Setting parameter firsttimestep to 0
TCL: Setting parameter alchLambda to 0.29999999999999966
Info: NONBONDED TABLE R-SQUARED SPACING: 0.0625
Info: NONBONDED TABLE SIZE: 705 POINTS
TCL: Setting parameter alchLambda2 to 0.24999999999999967
Info: NONBONDED TABLE R-SQUARED SPACING: 0.0625
Info: NONBONDED TABLE SIZE: 705 POINTS
TCL: Running for 1500000 steps
ETITLE: TS BOND ANGLE DIHED IMPRP ELECT VDW BOUNDARY MISC KINETIC TOTAL TEMP POTENTIAL TOTALAVG TEMPAVG PRESSURE GPRESSURE VOLUME PRESSAVG GPRESSAVG
ENERGY: 0 2.5971 8.5331 3.5886 0.0000 -10690.1133 1452.7463 0.0000 0.0000 1792.4152 -7430.2329 304.9820 -9222.6481 -7430.2329 304.9820 287.9082 374.7102 30232.6611 287.9082 374.7102
ENERGY: 300000 1.9364 8.1771 3.1824 0.0000 -10687.9662 1404.2036 0.0000 0.0000 1767.0679 -7503.3988 300.6691 -9270.4667 -7483.6266 301.8585 -354.4049 -221.9513 30254.0911 92.1688 194.2485
ENERGY: 600000 2.9320 6.5465 1.3348 0.0000 -10568.5062 1333.1894 0.0000 0.0000 1771.5386 -7452.9650 301.4298 -9224.5035 -7470.0978 302.0698 -713.9029 -619.5464 30236.9851 79.1758 171.2132
ENERGY: 900000 2.2536 4.3085 1.9260 0.0000 -10759.8399 1374.2928 0.0000 0.0000 1772.6210 -7604.4381 301.6140 -9377.0590 -7479.9045 300.9590 -933.5459 -858.5476 30210.4483 -28.7679 64.4284
ENERGY: 1200000 0.6589 5.4557 3.5086 0.0000 -10773.2804 1505.8416 0.0000 0.0000 1741.2268 -7516.5888 296.2723 -9257.8156 -7477.7432 300.0681 594.1698 649.6696 30007.4349 51.5800 142.6759
ENERGY: 1500000 1.7256 6.7686 0.8145 0.0000 -10732.8655 1454.3410 0.0000 0.0000 1787.8430 -7481.3728 304.2041 -9269.2158 -7461.2026 301.7224 205.6556 290.9962 30015.6926 120.4165 211.3255
TCL: Running FEP window  16: Lambda1 0.24999999999999967 Lambda2 0.19999999999999968 [dLambda -0.04999999999999999]
TCL: Setting parameter firsttimestep to 0
TCL: Setting parameter alchLambda to 0.24999999999999967
Info: NONBONDED TABLE R-SQUARED SPACING: 0.0625
Info: NONBONDED TABLE SIZE: 705 POINTS
TCL: Setting parameter alchLambda2 to 0.19999999999999968
Info: NONBONDED TABLE R-SQUARED SPACING: 0.0625
Info: NONBONDED TABLE SIZE: 705 POINTS
TCL: Running for 1500000 steps
ETITLE: TS BOND ANGLE DIHED IMPRP ELECT VDW BOUNDARY MISC KINETIC TOTAL TEMP POTENTIAL TOTALAVG TEMPAVG PRESSURE GPRESSURE VOLUME PRESSAVG GPRESSAVG
ENERGY: 0 1.7256 6.7686 0.8145 0.0000 -10732.8653 1454.6005 0.0000 0.0000 1786.9660 -7481.9902 304.0548 -9268.9562 -7481.9902 304.0548 210.9911 288.9140 30015.6926 210.9911 288.9140
ENERGY: 300000 0.5495 6.9637 2.3415 0.0000 -10699.1121 1448.7815 0.0000 0.0000 1790.1778 -7450.2979 304.6013 -9240.4758 -7466.6829 302.6277 170.9094 230.5301 30175.6155 377.2096 433.3535
ENERGY: 600000 1.7523 4.0441 1.0919 0.0000 -10609.8122 1348.2195 0.0000 0.0000 1745.9877 -7508.7166 297.0823 -9254.7043 -7463.4755 300.8746 -850.3421 -790.7617 30588.4571 70.0236 133.5185
ENERGY: 900000 1.7585 4.9684 3.7838 0.0000 -10697.3401 1423.1714 0.0000 0.0000 1745.6934 -7517.9647 297.0323 -9263.6581 -7467.1487 299.5843 -383.8573 -305.3355 30712.8413 35.9453 103.1232
ENERGY: 1200000 0.3912 4.7471 2.0994 0.0000 -10717.7935 1414.1188 0.0000 0.0000 1712.7144 -7583.7225 291.4208 -9296.4369 -7467.9528 300.6182 -394.2960 -337.1914 30219.0361 14.5922 75.1860
ENERGY: 1500000 1.0756 3.4325 1.0056 0.0000 -10648.9558 1420.1327 0.0000 0.0000 1788.2065 -7435.1029 304.2659 -9223.3094 -7472.4723 300.4158 78.9067 90.6613 30008.9849 35.8892 98.5096
TCL: Running FEP window  17: Lambda1 0.19999999999999968 Lambda2 0.1499999999999997 [dLambda -0.04999999999999999]
TCL: Setting parameter firsttimestep to 0
TCL: Setting parameter alchLambda to 0.19999999999999968
Info: NONBONDED TABLE R-SQUARED SPACING: 0.0625
Info: NONBONDED TABLE SIZE: 705 POINTS
TCL: Setting parameter alchLambda2 to 0.1499999999999997
Info: NONBONDED TABLE R-SQUARED SPACING: 0.0625
Info: NONBONDED TABLE SIZE: 705 POINTS
TCL: Running for 1500000 steps
ETITLE: TS BOND ANGLE DIHED IMPRP ELECT VDW BOUNDARY MISC KINETIC TOTAL TEMP POTENTIAL TOTALAVG TEMPAVG PRESSURE GPRESSURE VOLUME PRESSAVG GPRESSAVG
ENERGY: 0 1.0756 3.4325 1.0056 0.0000 -10648.9566 1420.2619 0.0000 0.0000 1787.3070 -7435.8741 304.1129 -9223.1811 -7435.8741 304.1129 7.8111 88.9139 30008.9849 7.8111 88.9139
ENERGY: 300000 2.4169 5.6226 2.9537 0.0000 -10771.2110 1473.0555 0.0000 0.0000 1759.0251 -7528.1371 299.3007 -9287.1623 -7492.0752 298.5482 88.2177 149.8323 30306.8919 2.3557 65.1269
ENERGY: 600000 1.0294 5.6994 2.2748 0.0000 -10546.4848 1344.4595 0.0000 0.0000 1826.0020 -7367.0196 310.6969 -9193.0216 -7484.8608 301.0791 -364.9715 -297.0954 30498.0755 11.5107 73.2641
ENERGY: 900000 0.7709 5.9478 3.4276 0.0000 -10654.5651 1420.1103 0.0000 0.0000 1701.7647 -7522.5438 289.5577 -9224.3085 -7482.7396 300.0207 -512.2506 -503.9462 30872.4715 -111.9615 -49.9310
ENERGY: 1200000 1.3810 6.8024 2.9447 0.0000 -10805.6185 1469.9964 0.0000 0.0000 1694.5465 -7629.9475 288.3295 -9324.4940 -7487.8246 299.7423 -177.9645 -185.6171 30726.3796 -158.2657 -102.5836
ENERGY: 1500000 0.8903 5.3544 3.9871 0.0000 -10617.0514 1395.0299 0.0000 0.0000 1774.5484 -7437.2412 301.9420 -9211.7897 -7488.1727 299.8947 -156.6176 -79.6545 30116.5892 -233.6751 -170.3274
TCL: Running FEP window  18: Lambda1 0.1499999999999997 Lambda2 0.09999999999999969 [dLambda -0.05 ]
TCL: Setting parameter firsttimestep to 0
TCL: Setting parameter alchLambda to 0.1499999999999997
Info: NONBONDED TABLE R-SQUARED SPACING: 0.0625
Info: NONBONDED TABLE SIZE: 705 POINTS
TCL: Setting parameter alchLambda2 to 0.09999999999999969
Info: NONBONDED TABLE R-SQUARED SPACING: 0.0625
Info: NONBONDED TABLE SIZE: 705 POINTS
TCL: Running for 1500000 steps
ETITLE: TS BOND ANGLE DIHED IMPRP ELECT VDW BOUNDARY MISC KINETIC TOTAL TEMP POTENTIAL TOTALAVG TEMPAVG PRESSURE GPRESSURE VOLUME PRESSAVG GPRESSAVG
ENERGY: 0 0.8903 5.3544 3.9871 0.0000 -10617.0518 1395.1093 0.0000 0.0000 1773.6619 -7438.0487 301.7911 -9211.7106 -7438.0487 301.7911 -177.0447 -82.4485 30116.5892 -177.0447 -82.4485
ENERGY: 300000 0.9417 6.1450 1.6038 0.0000 -10776.6085 1531.1604 0.0000 0.0000 1774.4479 -7462.3098 301.9249 -9236.7577 -7458.8203 302.6488 1097.7575 1151.3894 29831.6067 279.8899 352.6736
ENERGY: 600000 3.4292 4.7784 1.0078 0.0000 -10755.3469 1488.0869 0.0000 0.0000 1776.7785 -7481.2660 302.3214 -9258.0445 -7482.4331 300.7766 291.7408 361.2121 30522.2905 116.3736 175.0525
ENERGY: 900000 1.0953 4.3286 2.9920 0.0000 -10757.4899 1477.3881 0.0000 0.0000 1713.9097 -7557.7761 291.6242 -9271.6857 -7488.2663 300.7861 478.4952 498.1498 29844.0216 95.2159 158.1295
ENERGY: 1200000 1.4402 8.1887 4.2672 0.0000 -10587.9631 1335.2319 0.0000 0.0000 1779.9182 -7458.9169 302.8556 -9238.8351 -7498.8031 300.5681 -980.9369 -935.1967 30434.6139 9.8612 71.3971
ENERGY: 1500000 3.4271 5.5955 1.4843 0.0000 -10796.2192 1493.2415 0.0000 0.0000 1782.1387 -7510.3321 303.2335 -9292.4708 -7503.6626 300.5835 -220.0321 -129.3852 30793.4160 -27.2289 37.9774
TCL: Running FEP window  19: Lambda1 0.09999999999999969 Lambda2 0.049999999999999684 [dLambda -0.05 ]
TCL: Setting parameter firsttimestep to 0
TCL: Setting parameter alchLambda to 0.09999999999999969
Info: NONBONDED TABLE R-SQUARED SPACING: 0.0625
Info: NONBONDED TABLE SIZE: 705 POINTS
TCL: Setting parameter alchLambda2 to 0.049999999999999684
Info: NONBONDED TABLE R-SQUARED SPACING: 0.0625
Info: NONBONDED TABLE SIZE: 705 POINTS
TCL: Running for 1500000 steps
ETITLE: TS BOND ANGLE DIHED IMPRP ELECT VDW BOUNDARY MISC KINETIC TOTAL TEMP POTENTIAL TOTALAVG TEMPAVG PRESSURE GPRESSURE VOLUME PRESSAVG GPRESSAVG
ENERGY: 0 3.4271 5.5955 1.4843 0.0000 -10796.2180 1491.2366 0.0000 0.0000 1781.2922 -7513.1823 303.0894 -9294.4745 -7513.1823 303.0894 -220.9479 -138.0086 30793.4160 -220.9479 -138.0086
ENERGY: 300000 2.6325 6.6406 2.0340 0.0000 -10709.9036 1433.9761 0.0000 0.0000 1799.5519 -7465.0686 306.1964 -9264.6205 -7476.1094 302.8551 -137.8248 -33.9421 30223.2908 -419.2970 -340.4963
ENERGY: 600000 0.6027 5.5975 1.4761 0.0000 -10677.1553 1378.9114 0.0000 0.0000 1799.2772 -7491.2904 306.1496 -9290.5675 -7483.1121 301.3793 -885.1714 -800.2791 30624.6937 -346.6282 -284.2949
ENERGY: 900000 0.1030 7.6269 1.3291 0.0000 -10635.4452 1379.7646 0.0000 0.0000 1751.7260 -7494.8958 298.0587 -9246.6218 -7493.2636 299.9419 -518.1420 -496.6223 30418.6644 -306.1038 -244.2811
ENERGY: 1200000 0.8181 4.1629 1.5200 0.0000 -10621.0793 1390.4743 0.0000 0.0000 1810.1825 -7413.9214 308.0052 -9224.1039 -7486.1510 300.5808 -398.5113 -339.9967 30585.6650 -312.0411 -249.0295
ENERGY: 1500000 1.2769 7.7865 2.2831 0.0000 -10709.0297 1459.4438 0.0000 0.0000 1755.8527 -7482.3868 298.7609 -9238.2394 -7488.6718 300.4333 235.6448 264.4472 30501.7331 -252.0107 -191.7174
TCL: Running FEP window  20: Lambda1 0.049999999999999684 Lambda2 0.0    [dLambda -0.049999999999999684]
TCL: Setting parameter firsttimestep to 0
TCL: Setting parameter alchLambda to 0.049999999999999684
Info: NONBONDED TABLE R-SQUARED SPACING: 0.0625
Info: NONBONDED TABLE SIZE: 705 POINTS
TCL: Setting parameter alchLambda2 to 0.0
Info: NONBONDED TABLE R-SQUARED SPACING: 0.0625
Info: NONBONDED TABLE SIZE: 705 POINTS
TCL: Running for 1500000 steps
ETITLE: TS BOND ANGLE DIHED IMPRP ELECT VDW BOUNDARY MISC KINETIC TOTAL TEMP POTENTIAL TOTALAVG TEMPAVG PRESSURE GPRESSURE VOLUME PRESSAVG GPRESSAVG
ENERGY: 0 1.2769 7.7865 2.2831 0.0000 -10709.0285 1458.3904 0.0000 0.0000 1754.9868 -7484.3048 298.6135 -9239.2917 -7484.3048 298.6135 168.6707 256.6316 30501.7331 168.6707 256.6316
ENERGY: 300000 1.2564 10.2186 1.4718 0.0000 -10877.5451 1582.1320 0.0000 0.0000 1812.1912 -7470.2752 308.3469 -9282.4664 -7526.4034 299.6016 858.7710 899.0084 30502.2743 391.8946 459.0274
ENERGY: 600000 1.1094 5.7153 2.3802 0.0000 -10708.7968 1460.2273 0.0000 0.0000 1793.9758 -7445.3888 305.2476 -9239.3645 -7502.3658 300.5800 -66.0540 -3.8239 30560.0726 162.2598 225.6937
ENERGY: 900000 0.5064 5.5209 2.8983 0.0000 -10703.1760 1407.4280 0.0000 0.0000 1766.5463 -7520.2761 300.5804 -9286.8224 -7495.3314 300.7967 -122.3056 -114.2211 29961.2746 173.1714 230.4908
ENERGY: 1200000 0.8484 2.7780 1.7294 0.0000 -10610.8837 1353.4392 0.0000 0.0000 1754.2973 -7497.7915 298.4962 -9252.0888 -7496.6102 300.8204 -795.7583 -733.2585 30406.9661 25.5434 81.3601
ENERGY: 1500000 1.1951 5.4847 2.0440 0.0000 -10819.6948 1460.0821 0.0000 0.0000 1752.7136 -7598.1753 298.2268 -9350.8889 -7505.2373 299.9848 -254.4326 -259.5153 30301.0292 -49.8732 -3.7435
TCL: Exiting due to exit command.
