Info: SIMULATION PARAMETERS:
Info: TIMESTEP               2
Info: NUMBER OF STEPS        0
Info: STEPS PER CYCLE        10
Info: PERIODIC CELL BASIS 1  30.1622 0 0
Info: PERIODIC CELL BASIS 2  0 29.7576 0
Info: PERIODIC CELL BASIS 3  0 0 34.0489
Info: PERIODIC CELL CENTER   0 0 0
Info: WRAPPING WATERS AROUND PERIODIC BOUNDARIES ON OUTPUT.
Info: WRAPPING ALL CLUSTERS AROUND PERIODIC BOUNDARIES ON OUTPUT.
Info: FIRST LDB TIMESTEP     50
Info: LAST LDB TIMESTEP     -1
Info: HOM BACKGROUND SCALING 1
Info: PME BACKGROUND SCALING 1
Info: MIN ATOMS PER PATCH    40
Info: EMPTY PATCH LOAD       40 ATOMS
Info: VELOCITY FILE          mobley_5561855_equil.vel
Info: CENTER OF MASS MOVING INITIALLY? NO
Info: DIELECTRIC             1
Info: EXCLUDE                SCALED ONE-FOUR
Info: 1-4 ELECTROSTATICS SCALED BY 0.833333
Info: MODIFIED 1-4 VDW PARAMETERS WILL BE USED
Info: DCD FILENAME           mobley_5561855_prod.dcd
Info: DCD FREQUENCY          100000
Info: DCD FIRST STEP         100000
Info: DCD FILE WILL CONTAIN UNIT CELL DATA
Info: XST FILENAME           mobley_5561855_prod.xst
Info: XST FREQUENCY          100000
Info: NO VELOCITY DCD OUTPUT
Info: NO FORCE DCD OUTPUT
Info: OUTPUT FILENAME        mobley_5561855_prod
Info: BINARY OUTPUT FILES WILL BE USED
Info: RESTART FILENAME       mobley_5561855_prod.restart
Info: RESTART FREQUENCY      100000
Info: BINARY RESTART FILES WILL BE USED
Info: CUTOFF                 9
Info: PAIRLIST DISTANCE      11
Info: PAIRLIST SHRINK RATE   0.01
Info: PAIRLIST GROW RATE     0.01
Info: PAIRLIST TRIGGER       0.3
Info: PAIRLISTS PER CYCLE    2
Info: PAIRLISTS ENABLED
Info: MARGIN                 2
Info: HYDROGEN GROUP CUTOFF  2.5
Info: PATCH DIMENSION        15.5
Info: ENERGY OUTPUT STEPS    100000
Info: ENERGY EVALUATION STEPS    100000
Info: OUTPUT ENERGY PRECISION 4
Info: CROSSTERM ENERGY INCLUDED IN DIHEDRAL
Info: TIMING OUTPUT STEPS    1000000
Info: PRESSURE OUTPUT STEPS  100000
Info: ALCHEMICAL FEP ON
Info: FEP CURRENT LAMBDA VALUE     0
Info: FEP COMPARISON LAMBDA VALUE  0.05
Info: FEP INTRA-ALCHEMICAL NON-BONDED INTERACTIONS WILL BE RETAINED
Info: FEP INTRA-ALCHEMICAL BONDED INTERACTIONS WILL BE RETAINED
Info: FEP VDW SHIFTING COEFFICIENT 5
Info: FEP ELEC. ACTIVE FOR ANNIHILATED PARTICLES BETWEEN LAMBDA = 0 AND LAMBDA = 0.5
Info: FEP ELEC. ACTIVE FOR EXNIHILATED PARTICLES BETWEEN LAMBDA = 0.5 AND LAMBDA = 1
Info: FEP VDW ACTIVE FOR ANNIHILATED PARTICLES BETWEEN LAMBDA = 0 AND LAMBDA = 1
Info: FEP VDW ACTIVE FOR EXNIHILATED PARTICLES BETWEEN LAMBDA = 0 AND LAMBDA = 1
Info: FEP BOND ACTIVE FOR ANNIHILATED PARTICLES BETWEEN LAMBDA = 1 AND LAMBDA = 1
Info: FEP BOND ACTIVE FOR EXNIHILATED PARTICLES BETWEEN LAMBDA = 0 AND LAMBDA = 0
Info: LANGEVIN DYNAMICS ACTIVE
Info: LANGEVIN TEMPERATURE   300
Info: LANGEVIN USING BBK INTEGRATOR
Info: LANGEVIN DAMPING COEFFICIENT IS 1 INVERSE PS
Info: LANGEVIN DYNAMICS APPLIED TO HYDROGENS
Info: LANGEVIN PISTON PRESSURE CONTROL ACTIVE
Info:        TARGET PRESSURE IS 1.01325 BAR
Info:     OSCILLATION PERIOD IS 50 FS
Info:             DECAY TIME IS 25 FS
Info:     PISTON TEMPERATURE IS 300 K
Info:       PRESSURE CONTROL IS GROUP-BASED
Info:    INITIAL STRAIN RATE IS 2.13988e-05 2.13988e-05 2.13988e-05
Info:       CELL FLUCTUATION IS ISOTROPIC
Info: PARTICLE MESH EWALD (PME) ACTIVE
Info: PME TOLERANCE               1e-06
Info: PME EWALD COEFFICIENT       0.348832
Info: PME INTERPOLATION ORDER     4
Info: PME GRID DIMENSIONS         32 32 36
Info: PME MAXIMUM GRID SPACING    1
Info: PME CALCULATION WILL BE PERFORMED ON GPU
Info: FULL ELECTROSTATIC EVALUATION FREQUENCY      2
Info: USING VERLET I (r-RESPA) MTS SCHEME.
Info: C1 SPLITTING OF LONG RANGE ELECTROSTATICS
Info: PLACING ATOMS IN PATCHES BY HYDROGEN GROUPS
Info: RIGID BONDS TO HYDROGEN : ALL
Info:         ERROR TOLERANCE : 1e-08
Info:          MAX ITERATIONS : 100
Info: RIGID WATER USING SETTLE ALGORITHM
Info: RANDOM NUMBER SEED     1743803647
Info: USE HYDROGEN BONDS?    NO
Info: Using AMBER format force field!
Info: AMBER PARM FILE        mobley_5561855.prmtop
Info: COORDINATE PDB         mobley_5561855.pdb
Info: Exclusions will be read from PARM file!
Info: SCNB (VDW SCALING)     2
Info: USING ARITHMETIC MEAN TO COMBINE L-J SIGMA PARAMETERS
Info: BINARY COORDINATES     mobley_5561855_equil.coor
Info: SUMMARY OF PARAMETERS:
Info: 7 BONDS
Info: 7 ANGLES
Info:   7 HARMONIC
Info:   0 COSINE-BASED
Info: 3 DIHEDRAL
Info: 0 IMPROPER
Info: 0 CROSSTERM
Info: 0 VDW
Info: 15 VDW_PAIRS
Info: 0 NBTHOLE_PAIRS
Info: To read alchdata from file: mobley_5561855.pdb
Info: To read alchflag data from column: 5
Info: STRUCTURE SUMMARY:
Info: 2968 ATOMS
Info: 2969 BONDS
Info: 36 ANGLES
Info: 64 DIHEDRALS
Info: 0 IMPROPERS
Info: 0 CROSSTERMS
Info: 3051 EXCLUSIONS
Info: 2951 RIGID BONDS
Info: ALCH: 0 ATOMS TO DISAPPEAR IN FINAL STATE
Info: ALCH: 22 ATOMS TO APPEAR IN FINAL STATE
Info: 5953 DEGREES OF FREEDOM
Info: 999 HYDROGEN GROUPS
Info: 3 ATOMS IN LARGEST HYDROGEN GROUP
Info: 999 MIGRATION GROUPS
Info: 3 ATOMS IN LARGEST MIGRATION GROUP
Info: TOTAL MASS = 18018.1 amu
Info: TOTAL CHARGE = 1.11759e-08 e
Info: MASS DENSITY = 0.979048 g/cm^3
Info: ATOM DENSITY = 0.0971178 atoms/A^3
Info: ADDED 0 IMPLICIT EXCLUSIONS
Info: NONBONDED TABLE R-SQUARED SPACING: 0.0625
Info: NONBONDED TABLE SIZE: 705 POINTS
Info: REMOVING COM VELOCITY -0.164017 -0.0251507 -0.20643
Info: Use 3D box decompostion in PME FFT.
Info: Updated CUDA force table with 4096 elements.
Info: Updated CUDA LJ table with 5 x 5 elements.
Info: Found 25 unique exclusion lists needing 72 bytes
TCL: Running for 1500000 steps
ETITLE: TS BOND ANGLE DIHED IMPRP ELECT VDW BOUNDARY MISC KINETIC TOTAL TEMP POTENTIAL TOTALAVG TEMPAVG PRESSURE GPRESSURE VOLUME PRESSAVG GPRESSAVG
ENERGY: 0 5.4276 3.9745 11.1168 0.0000 -10644.8657 1435.2553 0.0000 0.0000 1787.3884 -7401.7030 302.1854 -9189.0914 -7401.7030 302.1854 83.9248 165.8111 30560.8109 83.9248 165.8111
ENERGY: 300000 4.6656 5.7032 13.4571 0.0000 -10667.8695 1413.5596 0.0000 0.0000 1724.0758 -7506.4081 291.4814 -9230.4839 -7478.2562 299.0499 -334.3685 -322.2681 30606.9236 94.1112 132.8875
ENERGY: 600000 7.2281 3.9085 15.7841 0.0000 -10735.7589 1435.2144 0.0000 0.0000 1716.1672 -7557.4565 290.1443 -9273.6237 -7502.3169 297.0845 57.0320 102.7876 30014.1633 171.6566 206.1705
ENERGY: 900000 2.8267 4.9012 12.3660 0.0000 -10718.7234 1400.2111 0.0000 0.0000 1761.3208 -7537.0975 297.7782 -9298.4183 -7498.8875 297.1868 -455.6619 -385.4451 30465.0347 124.3406 167.6189
ENERGY: 1200000 4.5621 4.7840 16.5338 0.0000 -10719.7915 1477.4883 0.0000 0.0000 1764.7103 -7451.7130 298.3513 -9216.4233 -7482.7713 298.6437 268.8026 312.9942 30747.7859 32.7419 78.0871
ENERGY: 1500000 5.2086 5.0637 17.0534 0.0000 -10635.0142 1392.4451 0.0000 0.0000 1820.6579 -7394.5855 307.8101 -9215.2435 -7481.4274 299.1555 -79.7951 -36.9568 30240.9252 -59.8180 -12.0355
TCL: Running FEP window   2: Lambda1 0.05   Lambda2 0.1    [dLambda 0.05  ]
TCL: Setting parameter firsttimestep to 0
TCL: Setting parameter alchLambda to 0.05
Info: NONBONDED TABLE R-SQUARED SPACING: 0.0625
Info: NONBONDED TABLE SIZE: 705 POINTS
TCL: Setting parameter alchLambda2 to 0.1
Info: NONBONDED TABLE R-SQUARED SPACING: 0.0625
Info: NONBONDED TABLE SIZE: 705 POINTS
TCL: Running for 1500000 steps
ETITLE: TS BOND ANGLE DIHED IMPRP ELECT VDW BOUNDARY MISC KINETIC TOTAL TEMP POTENTIAL TOTALAVG TEMPAVG PRESSURE GPRESSURE VOLUME PRESSAVG GPRESSAVG
ENERGY: 0 5.2086 5.0637 17.0534 0.0000 -10635.0171 1402.1956 0.0000 0.0000 1819.7238 -7385.7720 307.6522 -9205.4958 -7385.7720 307.6522 -90.0222 -18.5301 30240.9252 -90.0222 -18.5301
ENERGY: 300000 5.9353 5.2439 11.7468 0.0000 -10674.2071 1470.5049 0.0000 0.0000 1798.7932 -7381.9830 304.1135 -9180.7763 -7443.9932 299.8776 214.3942 242.2071 30506.7645 -68.0184 -7.9412
ENERGY: 600000 7.0850 5.6488 13.4008 0.0000 -10840.8090 1510.0406 0.0000 0.0000 1760.7229 -7543.9109 297.6772 -9304.6339 -7443.1341 300.9121 389.8791 455.0697 30316.0796 -50.0984 12.7073
ENERGY: 900000 6.7147 3.9628 11.9733 0.0000 -10620.8270 1434.4788 0.0000 0.0000 1759.1853 -7404.5121 297.4172 -9163.6974 -7438.9099 301.6719 63.8003 201.4773 30310.1327 -7.2436 67.4640
ENERGY: 1200000 5.5216 4.5469 13.3902 0.0000 -10673.7521 1366.7317 0.0000 0.0000 1820.7327 -7462.8291 307.8227 -9283.5618 -7457.6583 301.8800 -578.3187 -525.0940 30342.1817 -122.4896 -48.9822
ENERGY: 1500000 5.5806 5.8101 10.7873 0.0000 -10783.5194 1474.3255 0.0000 0.0000 1709.1567 -7577.8591 288.9591 -9287.0159 -7466.0833 300.8540 177.3709 185.3838 30184.6814 -112.4092 -49.8719
TCL: Running FEP window   3: Lambda1 0.1    Lambda2 0.15000000000000002 [dLambda 0.05000000000000002]
TCL: Setting parameter firsttimestep to 0
TCL: Setting parameter alchLambda to 0.1
Info: NONBONDED TABLE R-SQUARED SPACING: 0.0625
Info: NONBONDED TABLE SIZE: 705 POINTS
TCL: Setting parameter alchLambda2 to 0.15000000000000002
Info: NONBONDED TABLE R-SQUARED SPACING: 0.0625
Info: NONBONDED TABLE SIZE: 705 POINTS
TCL: Running for 1500000 steps
ETITLE: TS BOND ANGLE DIHED IMPRP ELECT VDW BOUNDARY MISC KINETIC TOTAL TEMP POTENTIAL TOTALAVG TEMPAVG PRESSURE GPRESSURE VOLUME PRESSAVG GPRESSAVG
ENERGY: 0 5.5806 5.8101 10.7873 0.0000 -10783.5198 1478.1829 0.0000 0.0000 1708.2959 -7574.8630 288.8136 -9283.1589 -7574.8630 288.8136 121.5831 205.2989 30184.6814 121.5831 205.2989
ENERGY: 300000 8.5088 8.1609 11.4667 0.0000 -10968.4377 1625.7547 0.0000 0.0000 1748.1504 -7566.3963 295.5516 -9314.5467 -7473.8179 298.1542 1320.9746 1336.9848 30241.9561 90.7121 121.3334
ENERGY: 600000 5.7293 8.2982 12.4816 0.0000 -10522.2677 1348.9486 0.0000 0.0000 1788.1545 -7358.6555 302.3149 -9146.8100 -7447.9477 299.7045 -708.2848 -656.3967 30627.6109 -38.7788 -3.3721
ENERGY: 900000 5.0683 9.2882 14.3569 0.0000 -10803.1627 1482.1485 0.0000 0.0000 1761.5506 -7530.7503 297.8171 -9292.3009 -7458.2310 300.2778 70.5899 128.9392 30459.9326 -73.5732 -36.4441
ENERGY: 1200000 4.2072 7.5073 11.4439 0.0000 -10846.3697 1504.6574 0.0000 0.0000 1800.2534 -7518.3005 304.3604 -9318.5539 -7469.1546 299.9265 246.9854 335.5106 30111.5700 -24.4598 18.9654
ENERGY: 1500000 6.5030 5.2915 14.5471 0.0000 -10697.7701 1380.8234 0.0000 0.0000 1814.7702 -7475.8348 306.8147 -9290.6050 -7462.1944 300.1972 -807.8029 -716.7527 30418.3114 -16.5936 31.5359
TCL: Running FEP window   4: Lambda1 0.15000000000000002 Lambda2 0.2    [dLambda 0.04999999999999999]
TCL: Setting parameter firsttimestep to 0
TCL: Setting parameter alchLambda to 0.15000000000000002
Info: NONBONDED TABLE R-SQUARED SPACING: 0.0625
Info: NONBONDED TABLE SIZE: 705 POINTS
TCL: Setting parameter alchLambda2 to 0.2
Info: NONBONDED TABLE R-SQUARED SPACING: 0.0625
Info: NONBONDED TABLE SIZE: 705 POINTS
TCL: Running for 1500000 steps
ETITLE: TS BOND ANGLE DIHED IMPRP ELECT VDW BOUNDARY MISC KINETIC TOTAL TEMP POTENTIAL TOTALAVG TEMPAVG PRESSURE GPRESSURE VOLUME PRESSAVG GPRESSAVG
ENERGY: 0 6.5031 5.2915 14.5471 0.0000 -10697.7701 1382.4997 0.0000 0.0000 1813.8831 -7475.0455 306.6647 -9288.9287 -7475.0455 306.6647 -787.2987 -702.3746 30418.3114 -787.2987 -702.3746
ENERGY: 300000 2.8234 5.8588 14.1428 0.0000 -10739.4016 1491.4647 0.0000 0.0000 1736.0704 -7489.0416 293.5093 -9225.1120 -7462.8709 301.4331 118.0882 145.4471 31031.8689 -35.7456 16.6138
ENERGY: 600000 6.4837 6.2946 11.2500 0.0000 -10823.1366 1457.5673 0.0000 0.0000 1812.0409 -7529.5001 306.3532 -9341.5409 -7471.1625 301.8717 -245.5197 -162.0878 30333.1019 123.3159 172.9363
ENERGY: 900000 3.5254 6.1727 11.1636 0.0000 -10900.2613 1457.0762 0.0000 0.0000 1712.2005 -7710.1228 289.4737 -9422.3233 -7484.6393 301.0752 -574.2907 -530.7870 30499.9758 71.4101 117.8106
ENERGY: 1200000 8.0387 6.5386 12.7335 0.0000 -10752.7460 1505.7891 0.0000 0.0000 1755.4216 -7464.2246 296.7809 -9219.6461 -7476.7465 300.8761 495.6448 626.5832 30364.2800 59.6276 114.4208
ENERGY: 1500000 4.9463 4.2521 10.4680 0.0000 -10650.9152 1459.4620 0.0000 0.0000 1803.7701 -7368.0168 304.9549 -9171.7869 -7469.2815 301.0362 103.3887 205.6218 30605.5175 92.5129 144.8094
TCL: Running FEP window   5: Lambda1 0.2    Lambda2 0.25   [dLambda 0.04999999999999999]
TCL: Setting parameter firsttimestep to 0
TCL: Setting parameter alchLambda to 0.2
Info: NONBONDED TABLE R-SQUARED SPACING: 0.0625
Info: NONBONDED TABLE SIZE: 705 POINTS
TCL: Setting parameter alchLambda2 to 0.25
Info: NONBONDED TABLE R-SQUARED SPACING: 0.0625
Info: NONBONDED TABLE SIZE: 705 POINTS
TCL: Running for 1500000 steps
ETITLE: TS BOND ANGLE DIHED IMPRP ELECT VDW BOUNDARY MISC KINETIC TOTAL TEMP POTENTIAL TOTALAVG TEMPAVG PRESSURE GPRESSURE VOLUME PRESSAVG GPRESSAVG
ENERGY: 0 4.9463 4.2521 10.4680 0.0000 -10650.9160 1459.7817 0.0000 0.0000 1802.9182 -7368.5498 304.8109 -9171.4680 -7368.5498 304.8109 127.9676 215.2098 30605.5175 127.9676 215.2098
ENERGY: 300000 2.7317 5.6512 11.7650 0.0000 -10701.5031 1399.5750 0.0000 0.0000 1739.2481 -7542.5320 294.0465 -9281.7802 -7490.4051 298.9122 -481.9855 -413.0728 30708.1427 -24.9336 42.0888
ENERGY: 600000 5.2384 5.7044 13.9114 0.0000 -10594.1243 1386.1291 0.0000 0.0000 1759.8739 -7423.2671 297.5336 -9183.1410 -7462.4240 300.1520 -906.0617 -823.1388 31343.8783 -237.1994 -179.2900
ENERGY: 900000 9.0031 3.1114 16.2802 0.0000 -10560.5539 1404.7788 0.0000 0.0000 1745.2359 -7382.1445 295.0589 -9127.3804 -7457.7719 299.7861 -91.7139 12.1885 31000.6466 -170.8084 -111.5051
ENERGY: 1200000 6.5866 7.7785 10.6641 0.0000 -10455.8383 1255.0222 0.0000 0.0000 1799.5163 -7376.2705 304.2358 -9175.7868 -7445.6986 299.9955 -1400.3706 -1242.1628 31027.5007 -270.4490 -197.3087
ENERGY: 1500000 8.4718 6.9172 15.7580 0.0000 -10768.4611 1478.8760 0.0000 0.0000 1828.4496 -7429.9884 309.1274 -9258.4380 -7450.1237 300.8197 345.2714 385.0377 30545.1364 -237.0997 -161.9652
TCL: Running FEP window   6: Lambda1 0.25   Lambda2 0.3    [dLambda 0.04999999999999999]
TCL: Setting parameter firsttimestep to 0
TCL: Setting parameter alchLambda to 0.25
Info: NONBONDED TABLE R-SQUARED SPACING: 0.0625
Info: NONBONDED TABLE SIZE: 705 POINTS
TCL: Setting parameter alchLambda2 to 0.3
Info: NONBONDED TABLE R-SQUARED SPACING: 0.0625
Info: NONBONDED TABLE SIZE: 705 POINTS
TCL: Running for 1500000 steps
ETITLE: TS BOND ANGLE DIHED IMPRP ELECT VDW BOUNDARY MISC KINETIC TOTAL TEMP POTENTIAL TOTALAVG TEMPAVG PRESSURE GPRESSURE VOLUME PRESSAVG GPRESSAVG
ENERGY: 0 8.4718 6.9172 15.7580 0.0000 -10768.4611 1480.1115 0.0000 0.0000 1827.5901 -7429.6124 308.9821 -9257.2025 -7429.6124 308.9821 334.8982 398.3397 30545.1364 334.8982 398.3397
ENERGY: 300000 3.5191 9.0781 13.4286 0.0000 -10784.4297 1469.8870 0.0000 0.0000 1770.3689 -7518.1480 299.3080 -9288.5169 -7474.3164 303.2812 -64.8174 -27.7493 30899.6481 -129.2662 -68.6674
ENERGY: 600000 8.1306 3.2521 11.1642 0.0000 -10823.2592 1461.9660 0.0000 0.0000 1770.5991 -7568.1472 299.3469 -9338.7463 -7517.4143 299.8252 -303.2624 -261.5044 30670.3593 -271.5039 -201.0794
ENERGY: 900000 8.1703 7.1767 11.9527 0.0000 -10753.2246 1505.3719 0.0000 0.0000 1804.3525 -7416.2003 305.0534 -9220.5529 -7502.7466 300.3779 492.3524 528.0652 30244.4584 -146.5065 -83.1567
ENERGY: 1200000 6.1788 4.1842 11.7434 0.0000 -10645.8807 1433.7921 0.0000 0.0000 1808.8989 -7381.0832 305.8220 -9189.9821 -7483.1951 300.3977 158.8807 163.3849 30678.5438 -63.5658 -0.4661
ENERGY: 1500000 7.1771 5.5135 12.0237 0.0000 -10744.1572 1505.7250 0.0000 0.0000 1814.6854 -7399.0325 306.8003 -9213.7178 -7469.4792 300.3270 742.2281 845.1111 30171.2325 -6.0711 63.5877
TCL: Running FEP window   7: Lambda1 0.3    Lambda2 0.35   [dLambda 0.04999999999999999]
TCL: Setting parameter firsttimestep to 0
TCL: Setting parameter alchLambda to 0.3
Info: NONBONDED TABLE R-SQUARED SPACING: 0.0625
Info: NONBONDED TABLE SIZE: 705 POINTS
TCL: Setting parameter alchLambda2 to 0.35
Info: NONBONDED TABLE R-SQUARED SPACING: 0.0625
Info: NONBONDED TABLE SIZE: 705 POINTS
TCL: Running for 1500000 steps
ETITLE: TS BOND ANGLE DIHED IMPRP ELECT VDW BOUNDARY MISC KINETIC TOTAL TEMP POTENTIAL TOTALAVG TEMPAVG PRESSURE GPRESSURE VOLUME PRESSAVG GPRESSAVG
ENERGY: 0 7.1771 5.5135 12.0237 0.0000 -10744.1558 1505.5963 0.0000 0.0000 1813.8263 -7400.0188 306.6551 -9213.8452 -7400.0188 306.6551 761.3421 850.9380 30171.2325 761.3421 850.9380
ENERGY: 300000 10.2294 3.4046 11.8371 0.0000 -10512.2331 1362.5163 0.0000 0.0000 1790.9477 -7333.2981 302.7871 -9124.2458 -7398.5472 305.0516 -312.5378 -227.2613 31018.3587 63.0957 122.8964
ENERGY: 600000 7.0170 4.9046 12.0111 0.0000 -10679.1474 1396.5294 0.0000 0.0000 1733.7441 -7524.9412 293.1160 -9258.6853 -7443.3182 302.2353 -255.2837 -148.3973 29940.2724 50.6375 110.2328
ENERGY: 900000 9.4887 2.2189 10.6857 0.0000 -10701.0141 1461.1854 0.0000 0.0000 1714.3612 -7503.0743 289.8390 -9217.4355 -7446.4672 301.6932 260.5182 305.1967 30547.9889 82.1026 151.8561
ENERGY: 1200000 5.9793 5.8518 11.9732 0.0000 -10681.1984 1411.3217 0.0000 0.0000 1724.4754 -7521.5970 291.5490 -9246.0724 -7456.8367 302.0484 -574.4762 -514.7422 30998.2626 -12.6232 53.0646
ENERGY: 1500000 5.9295 4.7490 13.8180 0.0000 -10632.3606 1387.9452 0.0000 0.0000 1770.5866 -7449.3322 299.3448 -9219.9188 -7447.2459 302.6391 -95.3761 -44.0328 30534.9189 -25.7911 38.7540
TCL: Running FEP window   8: Lambda1 0.35   Lambda2 0.39999999999999997 [dLambda 0.04999999999999999]
TCL: Setting parameter firsttimestep to 0
TCL: Setting parameter alchLambda to 0.35
Info: NONBONDED TABLE R-SQUARED SPACING: 0.0625
Info: NONBONDED TABLE SIZE: 705 POINTS
TCL: Setting parameter alchLambda2 to 0.39999999999999997
Info: NONBONDED TABLE R-SQUARED SPACING: 0.0625
Info: NONBONDED TABLE SIZE: 705 POINTS
TCL: Running for 1500000 steps
ETITLE: TS BOND ANGLE DIHED IMPRP ELECT VDW BOUNDARY MISC KINETIC TOTAL TEMP POTENTIAL TOTALAVG TEMPAVG PRESSURE GPRESSURE VOLUME PRESSAVG GPRESSAVG
ENERGY: 0 5.9295 4.7490 13.8180 0.0000 -10632.3598 1388.5221 0.0000 0.0000 1769.7355 -7449.6056 299.2009 -9219.3411 -7449.6056 299.2009 -120.6506 -32.9661 30534.9189 -120.6506 -32.9661
ENERGY: 300000 7.0002 8.4202 13.4875 0.0000 -10762.3249 1379.7140 0.0000 0.0000 1749.6878 -7604.0152 295.8115 -9353.7030 -7469.0658 300.0410 -631.5466 -605.0235 30134.1062 -90.2027 -40.8420
ENERGY: 600000 5.1296 1.7074 13.1381 0.0000 -10768.4178 1433.9708 0.0000 0.0000 1795.2750 -7519.1969 303.5187 -9314.4718 -7488.0686 301.4105 -282.1463 -257.0964 30373.6811 -147.1433 -92.9190
ENERGY: 900000 6.9076 5.1856 13.5253 0.0000 -10696.4940 1478.6018 0.0000 0.0000 1758.0067 -7434.2669 297.2179 -9192.2736 -7472.7365 301.2050 178.8450 265.2438 31280.8503 31.0157 81.4046
ENERGY: 1200000 7.1489 2.2315 16.4573 0.0000 -10680.9717 1447.5523 0.0000 0.0000 1799.7281 -7407.8535 304.2716 -9207.5817 -7465.6521 302.1300 -518.1732 -459.5927 31302.6063 -56.8332 -2.1655
ENERGY: 1500000 7.1072 5.4386 15.0002 0.0000 -10811.0759 1483.6288 0.0000 0.0000 1829.8091 -7470.0919 309.3572 -9299.9010 -7460.3250 302.8596 379.3049 416.7735 30167.4628 -22.1251 34.2456
TCL: Running FEP window   9: Lambda1 0.39999999999999997 Lambda2 0.44999999999999996 [dLambda 0.04999999999999999]
TCL: Setting parameter firsttimestep to 0
TCL: Setting parameter alchLambda to 0.39999999999999997
Info: NONBONDED TABLE R-SQUARED SPACING: 0.0625
Info: NONBONDED TABLE SIZE: 705 POINTS
TCL: Setting parameter alchLambda2 to 0.44999999999999996
Info: NONBONDED TABLE R-SQUARED SPACING: 0.0625
Info: NONBONDED TABLE SIZE: 705 POINTS
TCL: Running for 1500000 steps
ETITLE: TS BOND ANGLE DIHED IMPRP ELECT VDW BOUNDARY MISC KINETIC TOTAL TEMP POTENTIAL TOTALAVG TEMPAVG PRESSURE GPRESSURE VOLUME PRESSAVG GPRESSAVG
ENERGY: 0 7.1072 5.4386 15.0002 0.0000 -10811.0780 1483.9108 0.0000 0.0000 1828.9605 -7470.6605 309.2138 -9299.6211 -7470.6605 309.2138 351.8239 428.5686 30167.4628 351.8239 428.5686
ENERGY: 300000 7.3941 6.9012 11.6405 0.0000 -10837.9581 1519.5778 0.0000 0.0000 1747.1199 -7545.3246 295.3774 -9292.4446 -7470.5951 302.6892 868.9339 852.4330 30096.8527 324.4272 353.9549
ENERGY: 600000 9.5213 6.1799 12.0427 0.0000 -10894.0322 1563.7252 0.0000 0.0000 1798.6814 -7503.8817 304.0946 -9302.5631 -7462.8619 303.1595 757.5499 787.0967 30469.9597 294.5913 345.5587
ENERGY: 900000 8.5789 7.3962 12.4952 0.0000 -10749.8014 1471.3766 0.0000 0.0000 1798.7077 -7451.2468 304.0991 -9249.9545 -7468.0557 302.1404 -58.8983 29.0078 30825.3398 227.1039 282.4803
ENERGY: 1200000 4.2390 7.9469 13.1528 0.0000 -10831.2774 1504.3204 0.0000 0.0000 1782.8943 -7518.7240 301.4256 -9301.6183 -7457.9553 302.3670 349.5033 439.3630 30471.5567 137.0445 195.4571
ENERGY: 1500000 6.6124 6.1182 11.9795 0.0000 -10977.3181 1627.7580 0.0000 0.0000 1767.3815 -7557.4685 298.8029 -9324.8500 -7471.3336 301.4915 1203.7799 1317.9006 30350.0303 268.7971 329.8186
TCL: Running FEP window  10: Lambda1 0.44999999999999996 Lambda2 0.49999999999999994 [dLambda 0.04999999999999999]
TCL: Setting parameter firsttimestep to 0
TCL: Setting parameter alchLambda to 0.44999999999999996
Info: NONBONDED TABLE R-SQUARED SPACING: 0.0625
Info: NONBONDED TABLE SIZE: 705 POINTS
TCL: Setting parameter alchLambda2 to 0.49999999999999994
Info: NONBONDED TABLE R-SQUARED SPACING: 0.0625
Info: NONBONDED TABLE SIZE: 705 POINTS
TCL: Running for 1500000 steps
ETITLE: TS BOND ANGLE DIHED IMPRP ELECT VDW BOUNDARY MISC KINETIC TOTAL TEMP POTENTIAL TOTALAVG TEMPAVG PRESSURE GPRESSURE VOLUME PRESSAVG GPRESSAVG
ENERGY: 0 6.6124 6.1182 11.9795 0.0000 -10977.3188 1627.3230 0.0000 0.0000 1766.4998 -7558.7859 298.6538 -9325.2857 -7558.7859 298.6538 1242.3394 1323.7672 30350.0303 1242.3394 1323.7672
ENERGY: 300000 5.5006 6.6741 9.0823 0.0000 -10688.7690 1411.6632 0.0000 0.0000 1731.0345 -7524.8142 292.6579 -9255.8487 -7512.1524 296.0838 -8.3786 60.0330 30520.1943 103.6458 156.8020
ENERGY: 600000 7.2136 6.4645 12.6875 0.0000 -10810.8112 1493.4927 0.0000 0.0000 1785.1421 -7505.8108 301.8056 -9290.9529 -7504.5613 297.2381 562.1135 584.2745 29942.6615 -13.3680 37.8349
ENERGY: 900000 5.9446 4.6893 13.7778 0.0000 -10740.7154 1458.3452 0.0000 0.0000 1797.8374 -7460.1211 303.9519 -9257.9585 -7484.2644 298.3072 -148.2677 -89.7544 31040.7913 43.7113 102.2306
ENERGY: 1200000 5.2139 5.6390 9.5902 0.0000 -10683.3531 1417.0410 0.0000 0.0000 1761.3549 -7484.5139 297.7840 -9245.8689 -7479.1537 298.1807 -452.7375 -387.4109 31107.8029 -25.0092 38.7589
ENERGY: 1500000 3.1888 7.5726 12.6277 0.0000 -10674.1535 1382.4116 0.0000 0.0000 1766.0055 -7502.3473 298.5703 -9268.3528 -7473.6900 298.6349 -554.9461 -428.5963 30583.2490 -74.6725 -6.3371
TCL: Running FEP window  11: Lambda1 0.49999999999999994 Lambda2 0.5499999999999999 [dLambda 0.04999999999999999]
TCL: Setting parameter firsttimestep to 0
TCL: Setting parameter alchLambda to 0.49999999999999994
Info: NONBONDED TABLE R-SQUARED SPACING: 0.0625
Info: NONBONDED TABLE SIZE: 705 POINTS
TCL: Setting parameter alchLambda2 to 0.5499999999999999
Info: NONBONDED TABLE R-SQUARED SPACING: 0.0625
Info: NONBONDED TABLE SIZE: 705 POINTS
TCL: Running for 1500000 steps
ETITLE: TS BOND ANGLE DIHED IMPRP ELECT VDW BOUNDARY MISC KINETIC TOTAL TEMP POTENTIAL TOTALAVG TEMPAVG PRESSURE GPRESSURE VOLUME PRESSAVG GPRESSAVG
ENERGY: 0 3.1888 7.5726 12.6277 0.0000 -10674.1532 1382.7994 0.0000 0.0000 1765.1239 -7502.8408 298.4212 -9267.9647 -7502.8408 298.4212 -497.8535 -413.7809 30583.2490 -497.8535 -413.7809
ENERGY: 300000 3.3276 6.0549 12.7474 0.0000 -10773.7094 1509.5314 0.0000 0.0000 1798.6411 -7443.4069 304.0878 -9242.0480 -7498.8681 301.1541 696.6738 780.3410 30553.8674 143.2269 200.3010
ENERGY: 600000 3.5677 9.1674 14.6699 0.0000 -10689.6134 1489.3634 0.0000 0.0000 1785.6154 -7387.2295 301.8856 -9172.8449 -7485.7826 300.8827 543.3412 646.2899 30753.6308 85.8227 147.6550
ENERGY: 900000 4.8026 5.3201 13.2350 0.0000 -10731.2483 1417.7621 0.0000 0.0000 1768.2479 -7521.8807 298.9494 -9290.1286 -7494.9901 300.6968 -549.4536 -391.9729 30967.2348 91.6801 164.1036
ENERGY: 1200000 9.1748 5.1237 12.7801 0.0000 -10665.6675 1441.0183 0.0000 0.0000 1786.8123 -7410.7583 302.0880 -9197.5706 -7486.5922 300.6625 283.8824 318.9106 30261.1079 0.8648 76.1856
ENERGY: 1500000 8.6362 4.3530 15.4603 0.0000 -10571.9937 1366.0039 0.0000 0.0000 1782.8697 -7394.6707 301.4214 -9177.5404 -7475.2723 301.5232 -126.7499 19.5821 30211.9075 39.5169 125.5091
TCL: Running FEP window  12: Lambda1 0.5499999999999999 Lambda2 0.6    [dLambda 0.050000000000000044]
TCL: Setting parameter firsttimestep to 0
TCL: Setting parameter alchLambda to 0.5499999999999999
Info: NONBONDED TABLE R-SQUARED SPACING: 0.0625
Info: NONBONDED TABLE SIZE: 705 POINTS
TCL: Setting parameter alchLambda2 to 0.6
Info: NONBONDED TABLE R-SQUARED SPACING: 0.0625
Info: NONBONDED TABLE SIZE: 705 POINTS
TCL: Running for 1500000 steps
ETITLE: TS BOND ANGLE DIHED IMPRP ELECT VDW BOUNDARY MISC KINETIC TOTAL TEMP POTENTIAL TOTALAVG TEMPAVG PRESSURE GPRESSURE VOLUME PRESSAVG GPRESSAVG
ENERGY: 0 8.6362 4.3530 15.4603 0.0000 -10571.9030 1365.9927 0.0000 0.0000 1781.9793 -7395.4816 301.2709 -9177.4608 -7395.4816 301.2709 -45.4832 31.1913 30211.9075 -45.4832 31.1913
ENERGY: 300000 8.9807 7.1533 13.9602 0.0000 -10647.0294 1315.0725 0.0000 0.0000 1758.3645 -7543.4982 297.2784 -9301.8627 -7472.2788 303.8385 -1479.0114 -1391.9541 30855.8314 -462.6706 -385.8135
ENERGY: 600000 5.7117 4.7476 13.5769 0.0000 -10850.7436 1493.9155 0.0000 0.0000 1772.5638 -7560.2281 299.6790 -9332.7919 -7495.5098 301.7964 126.2293 206.7467 30355.4953 -289.3241 -222.7575
ENERGY: 900000 3.4440 4.6108 16.8889 0.0000 -10721.6202 1460.1638 0.0000 0.0000 1808.7106 -7427.8021 305.7902 -9236.5126 -7474.0793 302.3479 100.7696 128.6086 30817.5742 -223.0253 -156.3992
ENERGY: 1200000 3.3191 4.5413 11.0651 0.0000 -10694.8454 1419.1553 0.0000 0.0000 1804.7818 -7451.9828 305.1260 -9256.7646 -7475.9461 302.1894 -188.0377 -101.3462 30438.1001 -149.1253 -79.5539
ENERGY: 1500000 4.9429 5.1809 14.1832 0.0000 -10704.5183 1451.4072 0.0000 0.0000 1764.6114 -7464.1928 298.3346 -9228.8042 -7480.6012 300.9942 94.6196 137.1041 30894.4103 -117.9820 -45.8557
TCL: Running FEP window  13: Lambda1 0.6    Lambda2 0.65   [dLambda 0.050000000000000044]
TCL: Setting parameter firsttimestep to 0
TCL: Setting parameter alchLambda to 0.6
Info: NONBONDED TABLE R-SQUARED SPACING: 0.0625
Info: NONBONDED TABLE SIZE: 705 POINTS
TCL: Setting parameter alchLambda2 to 0.65
Info: NONBONDED TABLE R-SQUARED SPACING: 0.0625
Info: NONBONDED TABLE SIZE: 705 POINTS
TCL: Running for 1500000 steps
ETITLE: TS BOND ANGLE DIHED IMPRP ELECT VDW BOUNDARY MISC KINETIC TOTAL TEMP POTENTIAL TOTALAVG TEMPAVG PRESSURE GPRESSURE VOLUME PRESSAVG GPRESSAVG
ENERGY: 0 4.9429 5.1809 14.1832 0.0000 -10704.5423 1451.4195 0.0000 0.0000 1763.7348 -7465.0812 298.1864 -9228.8159 -7465.0812 298.1864 69.4045 149.9098 30894.4103 69.4045 149.9098
ENERGY: 300000 5.7561 4.7438 14.0930 0.0000 -10589.2225 1303.0338 0.0000 0.0000 1732.8919 -7528.7039 292.9719 -9261.5958 -7476.1897 297.6107 -1378.7655 -1302.3997 31202.6707 -228.4974 -164.0336
ENERGY: 600000 9.8754 6.1321 14.2523 0.0000 -10689.5120 1441.2072 0.0000 0.0000 1761.4576 -7456.5875 297.8014 -9218.0451 -7472.8524 298.4110 -109.0444 -93.1718 30784.6498 -62.4818 -5.9230
ENERGY: 900000 5.1051 6.1433 12.0504 0.0000 -10693.8028 1420.4828 0.0000 0.0000 1721.9838 -7528.0375 291.1277 -9250.0213 -7494.7489 296.7831 -276.2228 -229.0558 30719.9887 -72.2461 -23.0751
ENERGY: 1200000 5.9238 4.0931 14.8710 0.0000 -10856.2194 1531.5011 0.0000 0.0000 1721.8802 -7577.9502 291.1102 -9299.8304 -7504.9756 296.8361 305.5111 339.2061 30936.3260 -104.9035 -58.8646
ENERGY: 1500000 5.1761 4.8478 13.3597 0.0000 -10878.1663 1544.7655 0.0000 0.0000 1818.1469 -7491.8702 307.3856 -9310.0171 -7502.2336 297.5849 945.9170 1017.4070 30411.6089 1.9374 52.6636
TCL: Running FEP window  14: Lambda1 0.65   Lambda2 0.7000000000000001 [dLambda 0.050000000000000044]
TCL: Setting parameter firsttimestep to 0
TCL: Setting parameter alchLambda to 0.65
Info: NONBONDED TABLE R-SQUARED SPACING: 0.0625
Info: NONBONDED TABLE SIZE: 705 POINTS
TCL: Setting parameter alchLambda2 to 0.7000000000000001
Info: NONBONDED TABLE R-SQUARED SPACING: 0.0625
Info: NONBONDED TABLE SIZE: 705 POINTS
TCL: Running for 1500000 steps
ETITLE: TS BOND ANGLE DIHED IMPRP ELECT VDW BOUNDARY MISC KINETIC TOTAL TEMP POTENTIAL TOTALAVG TEMPAVG PRESSURE GPRESSURE VOLUME PRESSAVG GPRESSAVG
ENERGY: 0 5.1761 4.8478 13.3597 0.0000 -10878.6886 1544.4114 0.0000 0.0000 1817.2963 -7493.5972 307.2418 -9310.8935 -7493.5972 307.2418 933.8257 1022.0817 30411.6089 933.8257 1022.0817
ENERGY: 300000 9.5105 6.1084 9.4334 0.0000 -10688.7830 1411.1497 0.0000 0.0000 1766.8221 -7485.7589 298.7083 -9252.5810 -7470.8103 305.0318 -501.2914 -429.2293 30905.4313 314.3704 362.2251
ENERGY: 600000 8.1060 4.5135 12.1271 0.0000 -10673.5471 1391.5643 0.0000 0.0000 1775.8947 -7481.3416 300.2422 -9257.2363 -7489.6500 303.2446 -77.9400 19.2154 30418.5719 253.2004 319.3465
ENERGY: 900000 6.1763 4.9415 17.0100 0.0000 -10555.2694 1315.8257 0.0000 0.0000 1791.3680 -7419.9479 302.8582 -9211.3159 -7474.0962 303.7075 -654.8743 -595.6121 30634.2864 207.6028 271.0208
ENERGY: 1200000 2.4353 6.4071 16.3158 0.0000 -11048.1116 1692.2041 0.0000 0.0000 1720.9981 -7609.7512 290.9611 -9330.7493 -7483.6663 302.3015 1956.4456 2015.5217 30167.9359 281.6382 353.9654
ENERGY: 1500000 4.7514 5.8837 12.0376 0.0000 -10736.8749 1439.6234 0.0000 0.0000 1746.4063 -7528.1725 295.2567 -9274.5789 -7486.3686 301.8033 -169.4407 -37.2491 30589.6983 191.8200 268.7644
TCL: Running FEP window  15: Lambda1 0.7000000000000001 Lambda2 0.7500000000000001 [dLambda 0.050000000000000044]
TCL: Setting parameter firsttimestep to 0
TCL: Setting parameter alchLambda to 0.7000000000000001
Info: NONBONDED TABLE R-SQUARED SPACING: 0.0625
Info: NONBONDED TABLE SIZE: 705 POINTS
TCL: Setting parameter alchLambda2 to 0.7500000000000001
Info: NONBONDED TABLE R-SQUARED SPACING: 0.0625
Info: NONBONDED TABLE SIZE: 705 POINTS
TCL: Running for 1500000 steps
ETITLE: TS BOND ANGLE DIHED IMPRP ELECT VDW BOUNDARY MISC KINETIC TOTAL TEMP POTENTIAL TOTALAVG TEMPAVG PRESSURE GPRESSURE VOLUME PRESSAVG GPRESSAVG
ENERGY: 0 4.7514 5.8837 12.0376 0.0000 -10737.2464 1439.4796 0.0000 0.0000 1745.5029 -7529.5912 295.1040 -9275.0942 -7529.5912 295.1040 -107.0254 -25.2083 30589.6983 -107.0254 -25.2083
ENERGY: 300000 11.4889 5.1611 13.9395 0.0000 -10615.3662 1397.1254 0.0000 0.0000 1768.0098 -7419.6415 298.9091 -9187.6514 -7482.7704 298.1509 -428.3696 -315.7914 30739.6649 -379.6820 -305.7454
ENERGY: 600000 3.9783 6.8984 11.9515 0.0000 -10711.3235 1385.9646 0.0000 0.0000 1858.8007 -7443.7300 314.2587 -9302.5307 -7492.7189 300.3184 -507.3407 -396.6317 30523.8100 -343.1631 -255.4037
ENERGY: 900000 6.8057 4.6882 9.9420 0.0000 -10574.2434 1371.8535 0.0000 0.0000 1722.8975 -7458.0564 291.2822 -9180.9539 -7492.5404 299.5074 -698.9913 -635.9872 31051.0074 -291.1944 -213.5688
ENERGY: 1200000 4.4610 6.5332 11.8110 0.0000 -10653.1427 1417.4056 0.0000 0.0000 1805.2768 -7407.6552 305.2097 -9212.9319 -7480.6182 300.2260 138.5810 207.1614 30636.8962 -270.7712 -200.3676
ENERGY: 1500000 3.5286 3.5171 16.0147 0.0000 -10745.6756 1471.5541 0.0000 0.0000 1779.9254 -7471.1357 300.9236 -9251.0611 -7484.1851 300.1552 404.6996 459.8655 30391.2255 -213.5784 -139.7948
TCL: Running FEP window  16: Lambda1 0.7500000000000001 Lambda2 0.8000000000000002 [dLambda 0.050000000000000044]
TCL: Setting parameter firsttimestep to 0
TCL: Setting parameter alchLambda to 0.7500000000000001
Info: NONBONDED TABLE R-SQUARED SPACING: 0.0625
Info: NONBONDED TABLE SIZE: 705 POINTS
TCL: Setting parameter alchLambda2 to 0.8000000000000002
Info: NONBONDED TABLE R-SQUARED SPACING: 0.0625
Info: NONBONDED TABLE SIZE: 705 POINTS
TCL: Running for 1500000 steps
ETITLE: TS BOND ANGLE DIHED IMPRP ELECT VDW BOUNDARY MISC KINETIC TOTAL TEMP POTENTIAL TOTALAVG TEMPAVG PRESSURE GPRESSURE VOLUME PRESSAVG GPRESSAVG
ENERGY: 0 3.5286 3.5171 16.0147 0.0000 -10746.3399 1471.2413 0.0000 0.0000 1779.0286 -7473.0095 300.7720 -9252.0381 -7473.0095 300.7720 385.6481 470.5749 30391.2255 385.6481 470.5749
ENERGY: 300000 5.6208 7.5111 14.4701 0.0000 -10748.8000 1474.2772 0.0000 0.0000 1774.7248 -7472.1959 300.0444 -9246.9207 -7500.7203 299.1116 405.2794 428.6511 30473.6237 371.4723 424.4161
ENERGY: 600000 6.5460 8.8268 9.6056 0.0000 -10759.2088 1461.2719 0.0000 0.0000 1729.4616 -7543.4968 292.3920 -9272.9585 -7494.2276 298.6221 597.0945 610.3376 30223.4690 331.5086 385.9801
ENERGY: 900000 9.6468 7.8886 13.3041 0.0000 -10945.4944 1607.5370 0.0000 0.0000 1761.8469 -7545.2710 297.8672 -9307.1179 -7493.2881 298.9851 1384.1282 1491.7636 30359.8607 296.1354 354.7373
ENERGY: 1200000 6.4158 8.2428 15.8002 0.0000 -10640.0094 1414.5923 0.0000 0.0000 1759.3208 -7435.6376 297.4401 -9194.9583 -7488.3774 299.4855 -190.6812 -166.1643 30764.2121 285.0330 341.8712
ENERGY: 1500000 4.6028 5.3769 15.8134 0.0000 -10727.5516 1476.1772 0.0000 0.0000 1754.9460 -7470.6352 296.7005 -9225.5812 -7491.6545 298.9347 174.3316 216.4766 30855.6535 236.2761 291.1766
TCL: Running FEP window  17: Lambda1 0.8000000000000002 Lambda2 0.8500000000000002 [dLambda 0.050000000000000044]
TCL: Setting parameter firsttimestep to 0
TCL: Setting parameter alchLambda to 0.8000000000000002
Info: NONBONDED TABLE R-SQUARED SPACING: 0.0625
Info: NONBONDED TABLE SIZE: 705 POINTS
TCL: Setting parameter alchLambda2 to 0.8500000000000002
Info: NONBONDED TABLE R-SQUARED SPACING: 0.0625
Info: NONBONDED TABLE SIZE: 705 POINTS
TCL: Running for 1500000 steps
ETITLE: TS BOND ANGLE DIHED IMPRP ELECT VDW BOUNDARY MISC KINETIC TOTAL TEMP POTENTIAL TOTALAVG TEMPAVG PRESSURE GPRESSURE VOLUME PRESSAVG GPRESSAVG
ENERGY: 0 4.6029 5.3769 15.8134 0.0000 -10728.0459 1476.0726 0.0000 0.0000 1754.0794 -7472.1008 296.5540 -9226.1802 -7472.1008 296.5540 153.5337 228.5375 30855.6535 153.5337 228.5375
ENERGY: 300000 4.8459 2.7557 12.7662 0.0000 -10750.1333 1529.0466 0.0000 0.0000 1775.4701 -7425.2487 300.1704 -9200.7189 -7477.3397 300.8573 1111.1006 1165.8285 30363.8017 683.0757 729.7869
ENERGY: 600000 8.9372 5.8476 15.3154 0.0000 -10769.7212 1447.5922 0.0000 0.0000 1759.0945 -7532.9343 297.4018 -9292.0288 -7466.3378 300.8306 317.5461 343.1726 30020.2896 389.6064 428.8326
ENERGY: 900000 3.0133 5.2788 10.4049 0.0000 -10678.0277 1406.8141 0.0000 0.0000 1742.6575 -7509.8592 294.6229 -9252.5167 -7467.3759 300.7098 -48.7394 25.2496 30459.9459 360.8456 396.2465
ENERGY: 1200000 6.3442 5.6409 11.8466 0.0000 -10670.5376 1451.4139 0.0000 0.0000 1755.9932 -7439.2987 296.8775 -9195.2920 -7461.2696 301.4922 254.6703 292.8444 31006.0455 365.9363 394.7790
ENERGY: 1500000 8.4906 7.6951 11.3154 0.0000 -10881.7191 1502.1313 0.0000 0.0000 1814.8476 -7537.2391 306.8278 -9352.0867 -7460.9246 301.3005 643.5293 662.7734 30210.8283 342.2712 372.8583
TCL: Running FEP window  18: Lambda1 0.8500000000000002 Lambda2 0.9000000000000002 [dLambda 0.050000000000000044]
TCL: Setting parameter firsttimestep to 0
TCL: Setting parameter alchLambda to 0.8500000000000002
Info: NONBONDED TABLE R-SQUARED SPACING: 0.0625
Info: NONBONDED TABLE SIZE: 705 POINTS
TCL: Setting parameter alchLambda2 to 0.9000000000000002
Info: NONBONDED TABLE R-SQUARED SPACING: 0.0625
Info: NONBONDED TABLE SIZE: 705 POINTS
TCL: Running for 1500000 steps
ETITLE: TS BOND ANGLE DIHED IMPRP ELECT VDW BOUNDARY MISC KINETIC TOTAL TEMP POTENTIAL TOTALAVG TEMPAVG PRESSURE GPRESSURE VOLUME PRESSAVG GPRESSAVG
ENERGY: 0 8.4905 7.6951 11.3154 0.0000 -10881.8636 1501.8233 0.0000 0.0000 1813.9265 -7538.6128 306.6720 -9352.5393 -7538.6128 306.6720 587.7385 672.8146 30210.8283 587.7385 672.8146
ENERGY: 300000 11.2391 3.5192 13.8842 0.0000 -10657.3035 1400.8877 0.0000 0.0000 1786.7807 -7440.9927 302.0826 -9227.7734 -7503.5692 302.2438 -286.1823 -197.3161 30792.9917 64.3092 148.0791
ENERGY: 600000 6.3859 6.8803 13.9024 0.0000 -10690.3638 1354.6471 0.0000 0.0000 1738.4212 -7570.1269 293.9067 -9308.5481 -7517.2569 299.9574 -904.9344 -838.4926 30906.8517 -179.1518 -109.3830
ENERGY: 900000 9.8694 3.9240 14.4499 0.0000 -10724.0200 1440.4073 0.0000 0.0000 1751.5319 -7503.8376 296.1233 -9255.3695 -7503.7552 299.7185 -186.2478 -78.4992 30961.1630 -179.7833 -108.4489
ENERGY: 1200000 3.9537 4.9831 11.9706 0.0000 -10743.6538 1456.4474 0.0000 0.0000 1797.6605 -7468.6384 303.9220 -9266.2989 -7501.1696 299.8573 172.8630 283.7532 30771.0973 -70.7744 -1.4583
ENERGY: 1500000 7.0817 4.5739 11.0475 0.0000 -10751.9707 1448.1142 0.0000 0.0000 1740.7122 -7540.4412 294.2940 -9281.1534 -7502.7711 299.8415 -462.0415 -326.0768 30825.1529 -109.7324 -37.0487
TCL: Running FEP window  19: Lambda1 0.9000000000000002 Lambda2 0.9500000000000003 [dLambda 0.050000000000000044]
TCL: Setting parameter firsttimestep to 0
TCL: Setting parameter alchLambda to 0.9000000000000002
Info: NONBONDED TABLE R-SQUARED SPACING: 0.0625
Info: NONBONDED TABLE SIZE: 705 POINTS
TCL: Setting parameter alchLambda2 to 0.9500000000000003
Info: NONBONDED TABLE R-SQUARED SPACING: 0.0625
Info: NONBONDED TABLE SIZE: 705 POINTS
TCL: Running for 1500000 steps
ETITLE: TS BOND ANGLE DIHED IMPRP ELECT VDW BOUNDARY MISC KINETIC TOTAL TEMP POTENTIAL TOTALAVG TEMPAVG PRESSURE GPRESSURE VOLUME PRESSAVG GPRESSAVG
ENERGY: 0 7.0817 4.5739 11.0475 0.0000 -10752.4261 1448.6195 0.0000 0.0000 1739.8497 -7541.2538 294.1482 -9281.1035 -7541.2538 294.1482 -375.4831 -299.6382 30825.1529 -375.4831 -299.6382
ENERGY: 300000 8.6916 2.2187 11.0879 0.0000 -10749.6360 1442.2553 0.0000 0.0000 1798.1589 -7487.2236 304.0063 -9285.3825 -7503.4299 301.4188 255.4664 322.2138 30526.8873 -47.6246 -0.4046
ENERGY: 600000 6.8311 4.9295 12.4183 0.0000 -10715.4543 1419.6626 0.0000 0.0000 1811.8030 -7459.8098 306.3130 -9271.6128 -7494.4069 301.6362 -280.2742 -171.2498 31202.5519 -48.9569 5.4238
ENERGY: 900000 4.0786 4.6131 11.4411 0.0000 -10627.8073 1406.4208 0.0000 0.0000 1838.4905 -7362.7631 310.8250 -9201.2536 -7486.5501 301.1416 201.1976 226.0627 30789.1204 -97.0599 -44.9595
ENERGY: 1200000 2.9910 5.3860 13.1825 0.0000 -10598.7582 1351.3375 0.0000 0.0000 1762.0460 -7463.8152 297.9008 -9225.8612 -7493.9988 299.7457 -138.6169 -84.6225 30508.4996 -120.3039 -70.3409
ENERGY: 1500000 8.5808 3.1826 11.9951 0.0000 -10721.2298 1441.0905 0.0000 0.0000 1767.6815 -7488.6993 298.8536 -9256.3808 -7488.4526 299.7473 88.6325 187.4175 30680.0673 -157.3247 -104.6205
TCL: Running FEP window  20: Lambda1 0.9500000000000003 Lambda2 1.0    [dLambda 0.04999999999999971]
TCL: Setting parameter firsttimestep to 0
TCL: Setting parameter alchLambda to 0.9500000000000003
Info: NONBONDED TABLE R-SQUARED SPACING: 0.0625
Info: NONBONDED TABLE SIZE: 705 POINTS
TCL: Setting parameter alchLambda2 to 1.0
Info: NONBONDED TABLE R-SQUARED SPACING: 0.0625
Info: NONBONDED TABLE SIZE: 705 POINTS
TCL: Running for 1500000 steps
ETITLE: TS BOND ANGLE DIHED IMPRP ELECT VDW BOUNDARY MISC KINETIC TOTAL TEMP POTENTIAL TOTALAVG TEMPAVG PRESSURE GPRESSURE VOLUME PRESSAVG GPRESSAVG
ENERGY: 0 8.5808 3.1826 11.9951 0.0000 -10721.6415 1440.9771 0.0000 0.0000 1766.7660 -7490.1399 298.6988 -9256.9059 -7490.1399 298.6988 106.0489 202.2932 30680.0673 106.0489 202.2932
ENERGY: 300000 5.4270 8.5914 13.2515 0.0000 -10783.0047 1489.6653 0.0000 0.0000 1808.7048 -7457.3647 305.7892 -9266.0695 -7497.0081 304.5980 598.6673 710.1701 30612.0533 301.6757 380.2868
ENERGY: 600000 6.2224 7.0990 13.6269 0.0000 -10626.3606 1379.4678 0.0000 0.0000 1758.9748 -7460.9697 297.3816 -9219.9444 -7494.6950 302.6140 -730.0198 -688.7836 31622.4643 22.3974 85.4367
ENERGY: 900000 7.2325 5.9989 13.5983 0.0000 -10526.1415 1275.7725 0.0000 0.0000 1762.3504 -7461.1889 297.9523 -9223.5393 -7489.3663 301.5681 -949.2618 -916.0852 30729.0887 -100.0978 -40.1085
ENERGY: 1200000 4.5084 3.1726 12.1937 0.0000 -10699.8654 1392.8708 0.0000 0.0000 1822.1552 -7464.9648 308.0632 -9287.1199 -7496.9681 301.5547 -576.2183 -528.2498 31219.8993 -214.4842 -151.1692
ENERGY: 1500000 3.3113 3.2788 16.3041 0.0000 -10744.0145 1444.6492 0.0000 0.0000 1753.4643 -7523.0067 296.4500 -9276.4710 -7491.6409 300.8804 -152.0601 -59.1962 30864.4107 -259.8348 -196.0106
TCL: Exiting due to exit command.
