Info: SIMULATION PARAMETERS:
Info: TIMESTEP               2
Info: NUMBER OF STEPS        0
Info: STEPS PER CYCLE        10
Info: PERIODIC CELL BASIS 1  34.203 0 0
Info: PERIODIC CELL BASIS 2  0 29.3209 0
Info: PERIODIC CELL BASIS 3  0 0 30.7643
Info: PERIODIC CELL CENTER   0 0 0
Info: WRAPPING WATERS AROUND PERIODIC BOUNDARIES ON OUTPUT.
Info: WRAPPING ALL CLUSTERS AROUND PERIODIC BOUNDARIES ON OUTPUT.
Info: FIRST LDB TIMESTEP     50
Info: LAST LDB TIMESTEP     -1
Info: HOM BACKGROUND SCALING 1
Info: PME BACKGROUND SCALING 1
Info: MIN ATOMS PER PATCH    40
Info: EMPTY PATCH LOAD       40 ATOMS
Info: VELOCITY FILE          mobley_1722522_equil.vel
Info: CENTER OF MASS MOVING INITIALLY? NO
Info: DIELECTRIC             1
Info: EXCLUDE                SCALED ONE-FOUR
Info: 1-4 ELECTROSTATICS SCALED BY 0.833333
Info: MODIFIED 1-4 VDW PARAMETERS WILL BE USED
Info: DCD FILENAME           mobley_1722522_prod.dcd
Info: DCD FREQUENCY          100000
Info: DCD FIRST STEP         100000
Info: DCD FILE WILL CONTAIN UNIT CELL DATA
Info: XST FILENAME           mobley_1722522_prod.xst
Info: XST FREQUENCY          100000
Info: NO VELOCITY DCD OUTPUT
Info: NO FORCE DCD OUTPUT
Info: OUTPUT FILENAME        mobley_1722522_prod
Info: BINARY OUTPUT FILES WILL BE USED
Info: RESTART FILENAME       mobley_1722522_prod.restart
Info: RESTART FREQUENCY      100000
Info: BINARY RESTART FILES WILL BE USED
Info: CUTOFF                 9
Info: PAIRLIST DISTANCE      11
Info: PAIRLIST SHRINK RATE   0.01
Info: PAIRLIST GROW RATE     0.01
Info: PAIRLIST TRIGGER       0.3
Info: PAIRLISTS PER CYCLE    2
Info: PAIRLISTS ENABLED
Info: MARGIN                 2
Info: HYDROGEN GROUP CUTOFF  2.5
Info: PATCH DIMENSION        15.5
Info: ENERGY OUTPUT STEPS    100000
Info: ENERGY EVALUATION STEPS    100000
Info: OUTPUT ENERGY PRECISION 4
Info: CROSSTERM ENERGY INCLUDED IN DIHEDRAL
Info: TIMING OUTPUT STEPS    1000000
Info: PRESSURE OUTPUT STEPS  100000
Info: ALCHEMICAL FEP ON
Info: FEP CURRENT LAMBDA VALUE     0
Info: FEP COMPARISON LAMBDA VALUE  0.05
Info: FEP INTRA-ALCHEMICAL NON-BONDED INTERACTIONS WILL BE RETAINED
Info: FEP INTRA-ALCHEMICAL BONDED INTERACTIONS WILL BE RETAINED
Info: FEP VDW SHIFTING COEFFICIENT 5
Info: FEP ELEC. ACTIVE FOR ANNIHILATED PARTICLES BETWEEN LAMBDA = 0 AND LAMBDA = 0.5
Info: FEP ELEC. ACTIVE FOR EXNIHILATED PARTICLES BETWEEN LAMBDA = 0.5 AND LAMBDA = 1
Info: FEP VDW ACTIVE FOR ANNIHILATED PARTICLES BETWEEN LAMBDA = 0 AND LAMBDA = 1
Info: FEP VDW ACTIVE FOR EXNIHILATED PARTICLES BETWEEN LAMBDA = 0 AND LAMBDA = 1
Info: FEP BOND ACTIVE FOR ANNIHILATED PARTICLES BETWEEN LAMBDA = 1 AND LAMBDA = 1
Info: FEP BOND ACTIVE FOR EXNIHILATED PARTICLES BETWEEN LAMBDA = 0 AND LAMBDA = 0
Info: LANGEVIN DYNAMICS ACTIVE
Info: LANGEVIN TEMPERATURE   300
Info: LANGEVIN USING BBK INTEGRATOR
Info: LANGEVIN DAMPING COEFFICIENT IS 1 INVERSE PS
Info: LANGEVIN DYNAMICS APPLIED TO HYDROGENS
Info: LANGEVIN PISTON PRESSURE CONTROL ACTIVE
Info:        TARGET PRESSURE IS 1.01325 BAR
Info:     OSCILLATION PERIOD IS 50 FS
Info:             DECAY TIME IS 25 FS
Info:     PISTON TEMPERATURE IS 300 K
Info:       PRESSURE CONTROL IS GROUP-BASED
Info:    INITIAL STRAIN RATE IS 0.000130731 0.000130731 0.000130731
Info:       CELL FLUCTUATION IS ISOTROPIC
Info: PARTICLE MESH EWALD (PME) ACTIVE
Info: PME TOLERANCE               1e-06
Info: PME EWALD COEFFICIENT       0.348832
Info: PME INTERPOLATION ORDER     4
Info: PME GRID DIMENSIONS         36 32 32
Info: PME MAXIMUM GRID SPACING    1
Info: PME CALCULATION WILL BE PERFORMED ON GPU
Info: FULL ELECTROSTATIC EVALUATION FREQUENCY      2
Info: USING VERLET I (r-RESPA) MTS SCHEME.
Info: C1 SPLITTING OF LONG RANGE ELECTROSTATICS
Info: PLACING ATOMS IN PATCHES BY HYDROGEN GROUPS
Info: RIGID BONDS TO HYDROGEN : ALL
Info:         ERROR TOLERANCE : 1e-08
Info:          MAX ITERATIONS : 100
Info: RIGID WATER USING SETTLE ALGORITHM
Info: RANDOM NUMBER SEED     1743986157
Info: USE HYDROGEN BONDS?    NO
Info: Using AMBER format force field!
Info: AMBER PARM FILE        mobley_1722522.prmtop
Info: COORDINATE PDB         mobley_1722522.pdb
Info: Exclusions will be read from PARM file!
Info: SCNB (VDW SCALING)     2
Info: USING ARITHMETIC MEAN TO COMBINE L-J SIGMA PARAMETERS
Info: BINARY COORDINATES     mobley_1722522_equil.coor
Info: SUMMARY OF PARAMETERS:
Info: 9 BONDS
Info: 13 ANGLES
Info:   13 HARMONIC
Info:   0 COSINE-BASED
Info: 17 DIHEDRAL
Info: 0 IMPROPER
Info: 0 CROSSTERM
Info: 0 VDW
Info: 36 VDW_PAIRS
Info: 0 NBTHOLE_PAIRS
Info: To read alchdata from file: mobley_1722522.pdb
Info: To read alchflag data from column: 5
Info: STRUCTURE SUMMARY:
Info: 2996 ATOMS
Info: 2995 BONDS
Info: 34 ANGLES
Info: 50 DIHEDRALS
Info: 0 IMPROPERS
Info: 0 CROSSTERMS
Info: 3067 EXCLUSIONS
Info: 2988 RIGID BONDS
Info: ALCH: 0 ATOMS TO DISAPPEAR IN FINAL STATE
Info: ALCH: 20 ATOMS TO APPEAR IN FINAL STATE
Info: 6000 DEGREES OF FREEDOM
Info: 1000 HYDROGEN GROUPS
Info: 4 ATOMS IN LARGEST HYDROGEN GROUP
Info: 1000 MIGRATION GROUPS
Info: 4 ATOMS IN LARGEST MIGRATION GROUP
Info: TOTAL MASS = 17988 amu
Info: TOTAL CHARGE = 9.99756e-05 e
Info: MASS DENSITY = 0.968173 g/cm^3
Info: ATOM DENSITY = 0.0971073 atoms/A^3
Info: ADDED 0 IMPLICIT EXCLUSIONS
Info: NONBONDED TABLE R-SQUARED SPACING: 0.0625
Info: NONBONDED TABLE SIZE: 705 POINTS
Info: REMOVING COM VELOCITY 0.120809 0.120468 -0.0497974
Info: Use 3D box decompostion in PME FFT.
Info: Updated CUDA force table with 4096 elements.
Info: Updated CUDA LJ table with 8 x 8 elements.
Info: Found 23 unique exclusion lists needing 60 bytes
TCL: Running for 1500000 steps
ETITLE: TS BOND ANGLE DIHED IMPRP ELECT VDW BOUNDARY MISC KINETIC TOTAL TEMP POTENTIAL TOTALAVG TEMPAVG PRESSURE GPRESSURE VOLUME PRESSAVG GPRESSAVG
ENERGY: 0 3.3099 5.4438 5.7224 0.0000 -10895.9203 1511.9788 0.0000 0.0000 1777.4838 -7591.9816 298.1568 -9369.4654 -7591.9816 298.1568 234.3666 312.5069 30852.4745 234.3666 312.5069
ENERGY: 300000 1.8714 6.2884 4.5776 0.0000 -10749.3976 1410.3996 0.0000 0.0000 1886.5684 -7439.6922 316.4548 -9326.2606 -7569.9348 304.3585 -396.9909 -285.9795 31014.5263 95.0042 176.0375
ENERGY: 600000 2.9201 7.3100 6.6152 0.0000 -10762.9185 1383.4295 0.0000 0.0000 1760.3355 -7602.3082 295.2804 -9362.6437 -7577.7894 303.8205 -795.8392 -714.9817 30961.7257 -233.0988 -154.3024
ENERGY: 900000 2.8527 10.1786 5.1829 0.0000 -10827.5062 1417.5675 0.0000 0.0000 1769.1085 -7622.6161 296.7520 -9391.7246 -7582.8513 304.1800 -591.2546 -490.1733 30619.4635 -154.8912 -74.8882
ENERGY: 1200000 2.3232 3.3188 5.4723 0.0000 -10898.6720 1464.4704 0.0000 0.0000 1810.7118 -7612.3755 303.7305 -9423.0873 -7586.9109 303.6887 -267.1550 -106.2999 30834.0992 -52.0537 34.8284
ENERGY: 1500000 3.1451 5.6778 8.4500 0.0000 -10841.9006 1433.9754 0.0000 0.0000 1811.0331 -7579.6193 303.7844 -9390.6524 -7577.1511 304.2063 -293.8779 -252.1186 30765.3741 -59.8359 21.2774
TCL: Running FEP window   2: Lambda1 0.05   Lambda2 0.1    [dLambda 0.05  ]
TCL: Setting parameter firsttimestep to 0
TCL: Setting parameter alchLambda to 0.05
Info: NONBONDED TABLE R-SQUARED SPACING: 0.0625
Info: NONBONDED TABLE SIZE: 705 POINTS
TCL: Setting parameter alchLambda2 to 0.1
Info: NONBONDED TABLE R-SQUARED SPACING: 0.0625
Info: NONBONDED TABLE SIZE: 705 POINTS
TCL: Running for 1500000 steps
ETITLE: TS BOND ANGLE DIHED IMPRP ELECT VDW BOUNDARY MISC KINETIC TOTAL TEMP POTENTIAL TOTALAVG TEMPAVG PRESSURE GPRESSURE VOLUME PRESSAVG GPRESSAVG
ENERGY: 0 3.1451 5.6778 8.4500 0.0000 -10841.8997 1436.9265 0.0000 0.0000 1810.1403 -7577.5600 303.6347 -9387.7004 -7577.5600 303.6347 -331.7142 -246.4012 30765.3741 -331.7142 -246.4012
ENERGY: 300000 1.3463 8.9125 6.1384 0.0000 -10955.2270 1499.0907 0.0000 0.0000 1748.5634 -7691.1758 293.3057 -9439.7391 -7579.7167 300.4390 22.2714 77.6379 30773.2478 -193.8415 -141.8535
ENERGY: 600000 0.9242 6.2652 5.9325 0.0000 -10823.4561 1415.6197 0.0000 0.0000 1769.3008 -7625.4137 296.7842 -9394.7145 -7588.9638 298.8120 -423.1382 -376.2049 30384.9404 -135.5353 -82.6137
ENERGY: 900000 4.3979 5.4249 5.4761 0.0000 -10875.8137 1477.5520 0.0000 0.0000 1796.8190 -7586.1438 301.4001 -9382.9628 -7593.1202 298.6687 -9.1534 46.5872 30797.1281 -140.0479 -81.2246
ENERGY: 1200000 0.7576 11.4781 4.0616 0.0000 -10910.3247 1446.7431 0.0000 0.0000 1813.1101 -7634.1740 304.1328 -9447.2842 -7594.5513 298.8170 -327.7918 -283.0417 30610.7512 -91.4329 -42.4203
ENERGY: 1500000 4.9972 9.8274 5.3162 0.0000 -10935.2376 1456.9684 0.0000 0.0000 1760.7294 -7697.3991 295.3465 -9458.1285 -7602.4678 298.6144 -327.7591 -333.6630 30626.1978 -22.2583 18.8775
TCL: Running FEP window   3: Lambda1 0.1    Lambda2 0.15000000000000002 [dLambda 0.05000000000000002]
TCL: Setting parameter firsttimestep to 0
TCL: Setting parameter alchLambda to 0.1
Info: NONBONDED TABLE R-SQUARED SPACING: 0.0625
Info: NONBONDED TABLE SIZE: 705 POINTS
TCL: Setting parameter alchLambda2 to 0.15000000000000002
Info: NONBONDED TABLE R-SQUARED SPACING: 0.0625
Info: NONBONDED TABLE SIZE: 705 POINTS
TCL: Running for 1500000 steps
ETITLE: TS BOND ANGLE DIHED IMPRP ELECT VDW BOUNDARY MISC KINETIC TOTAL TEMP POTENTIAL TOTALAVG TEMPAVG PRESSURE GPRESSURE VOLUME PRESSAVG GPRESSAVG
ENERGY: 0 4.9972 9.8274 5.3162 0.0000 -10935.2372 1458.6008 0.0000 0.0000 1759.8640 -7696.6316 295.2013 -9456.4956 -7696.6316 295.2013 -399.8914 -326.0258 30626.1978 -399.8914 -326.0258
ENERGY: 300000 0.8296 6.1263 6.6332 0.0000 -10900.3947 1496.8303 0.0000 0.0000 1822.1424 -7567.8328 305.6479 -9389.9752 -7600.0565 301.4048 85.3571 205.9165 30786.0235 -308.5626 -215.1398
ENERGY: 600000 0.9836 8.5493 3.8502 0.0000 -10819.7248 1489.3077 0.0000 0.0000 1853.5079 -7463.5261 310.9092 -9317.0340 -7570.1240 304.5248 267.7706 328.9257 31026.6491 -21.0553 51.6438
ENERGY: 900000 1.1549 6.0695 6.8865 0.0000 -10847.4182 1454.6679 0.0000 0.0000 1792.9966 -7585.6429 300.7590 -9378.6395 -7574.5280 302.3699 -132.3889 -71.0979 30812.0505 -46.6651 19.2478
ENERGY: 1200000 0.3013 7.7491 6.1957 0.0000 -11045.5517 1554.6342 0.0000 0.0000 1814.9216 -7661.7499 304.4367 -9476.6714 -7586.3973 301.8306 435.1904 476.3960 30718.0620 -55.9277 8.5241
ENERGY: 1500000 3.9450 7.8658 4.1263 0.0000 -10659.1089 1339.1295 0.0000 0.0000 1803.9076 -7500.1348 302.5892 -9304.0424 -7581.2186 301.5282 -759.0451 -632.2661 30687.3096 -106.4576 -40.7257
TCL: Running FEP window   4: Lambda1 0.15000000000000002 Lambda2 0.2    [dLambda 0.04999999999999999]
TCL: Setting parameter firsttimestep to 0
TCL: Setting parameter alchLambda to 0.15000000000000002
Info: NONBONDED TABLE R-SQUARED SPACING: 0.0625
Info: NONBONDED TABLE SIZE: 705 POINTS
TCL: Setting parameter alchLambda2 to 0.2
Info: NONBONDED TABLE R-SQUARED SPACING: 0.0625
Info: NONBONDED TABLE SIZE: 705 POINTS
TCL: Running for 1500000 steps
ETITLE: TS BOND ANGLE DIHED IMPRP ELECT VDW BOUNDARY MISC KINETIC TOTAL TEMP POTENTIAL TOTALAVG TEMPAVG PRESSURE GPRESSURE VOLUME PRESSAVG GPRESSAVG
ENERGY: 0 3.9450 7.8658 4.1263 0.0000 -10659.1079 1339.0575 0.0000 0.0000 1803.0340 -7501.0793 302.4427 -9304.1134 -7501.0793 302.4427 -724.1910 -628.1840 30687.3096 -724.1910 -628.1840
ENERGY: 300000 3.2338 7.6678 5.3227 0.0000 -11020.6020 1628.5205 0.0000 0.0000 1697.6405 -7678.2167 284.7639 -9375.8572 -7610.1571 299.2276 1465.8291 1459.1045 30214.9853 360.5972 396.8707
ENERGY: 600000 2.2220 6.5886 6.1980 0.0000 -10952.6732 1504.0329 0.0000 0.0000 1786.4778 -7647.1540 299.6655 -9433.6317 -7589.8438 301.0698 300.4341 333.6230 30171.4745 188.9040 232.5587
ENERGY: 900000 0.6732 9.1370 6.7486 0.0000 -10852.1994 1447.5159 0.0000 0.0000 1753.2418 -7634.8830 294.0905 -9388.1248 -7604.8771 300.0918 150.9411 122.3579 30373.0319 142.5205 185.7660
ENERGY: 1200000 3.1332 9.8175 6.7079 0.0000 -10707.2610 1374.6357 0.0000 0.0000 1729.7312 -7583.2353 290.1468 -9312.9666 -7593.5024 300.5239 -580.2037 -555.2175 30949.1147 50.0927 91.9159
ENERGY: 1500000 2.2254 10.3530 3.6919 0.0000 -10778.7004 1399.6045 0.0000 0.0000 1760.4298 -7602.3958 295.2962 -9362.8256 -7591.0062 300.4133 -561.1934 -430.2810 30885.7843 -11.2774 37.5212
TCL: Running FEP window   5: Lambda1 0.2    Lambda2 0.25   [dLambda 0.04999999999999999]
TCL: Setting parameter firsttimestep to 0
TCL: Setting parameter alchLambda to 0.2
Info: NONBONDED TABLE R-SQUARED SPACING: 0.0625
Info: NONBONDED TABLE SIZE: 705 POINTS
TCL: Setting parameter alchLambda2 to 0.25
Info: NONBONDED TABLE R-SQUARED SPACING: 0.0625
Info: NONBONDED TABLE SIZE: 705 POINTS
TCL: Running for 1500000 steps
ETITLE: TS BOND ANGLE DIHED IMPRP ELECT VDW BOUNDARY MISC KINETIC TOTAL TEMP POTENTIAL TOTALAVG TEMPAVG PRESSURE GPRESSURE VOLUME PRESSAVG GPRESSAVG
ENERGY: 0 2.2254 10.3530 3.6919 0.0000 -10778.7005 1399.9244 0.0000 0.0000 1759.5228 -7602.9830 295.1441 -9362.5058 -7602.9830 295.1441 -509.5138 -423.8423 30885.7843 -509.5138 -423.8423
ENERGY: 300000 1.4121 4.9362 3.5721 0.0000 -10949.5077 1514.4284 0.0000 0.0000 1818.3622 -7606.7967 305.0138 -9425.1589 -7593.8276 299.7848 382.0243 446.1545 30167.3783 137.9101 185.4075
ENERGY: 600000 2.9332 7.2998 5.3964 0.0000 -10882.3070 1513.5228 0.0000 0.0000 1754.4923 -7598.6626 294.3002 -9353.1548 -7577.9463 300.0608 342.2319 442.8489 30758.8855 10.3963 59.1696
ENERGY: 900000 0.9580 12.2124 3.6983 0.0000 -10860.4848 1438.6051 0.0000 0.0000 1759.0783 -7645.9327 295.0695 -9405.0110 -7583.6358 299.5429 -165.6390 -52.3697 30430.9391 64.4787 122.9347
ENERGY: 1200000 2.8946 7.7761 4.0660 0.0000 -10832.0622 1466.6621 0.0000 0.0000 1748.7680 -7601.8954 293.3400 -9350.6634 -7576.4433 300.1487 158.9172 251.8220 30494.4080 55.4643 115.9581
ENERGY: 1500000 3.5606 6.2496 4.9147 0.0000 -10857.1199 1426.0698 0.0000 0.0000 1782.8805 -7633.4448 299.0621 -9416.3253 -7586.9044 299.6310 -436.0111 -436.5276 30617.0317 -35.8334 16.3756
TCL: Running FEP window   6: Lambda1 0.25   Lambda2 0.3    [dLambda 0.04999999999999999]
TCL: Setting parameter firsttimestep to 0
TCL: Setting parameter alchLambda to 0.25
Info: NONBONDED TABLE R-SQUARED SPACING: 0.0625
Info: NONBONDED TABLE SIZE: 705 POINTS
TCL: Setting parameter alchLambda2 to 0.3
Info: NONBONDED TABLE R-SQUARED SPACING: 0.0625
Info: NONBONDED TABLE SIZE: 705 POINTS
TCL: Running for 1500000 steps
ETITLE: TS BOND ANGLE DIHED IMPRP ELECT VDW BOUNDARY MISC KINETIC TOTAL TEMP POTENTIAL TOTALAVG TEMPAVG PRESSURE GPRESSURE VOLUME PRESSAVG GPRESSAVG
ENERGY: 0 3.5606 6.2496 4.9147 0.0000 -10857.1212 1426.6395 0.0000 0.0000 1781.9663 -7633.7906 298.9087 -9415.7568 -7633.7906 298.9087 -513.0687 -426.7232 30617.0317 -513.0687 -426.7232
ENERGY: 300000 2.1163 10.2310 4.2156 0.0000 -10900.4588 1505.8178 0.0000 0.0000 1850.2018 -7527.8764 310.3546 -9378.0781 -7560.0207 305.2204 623.3379 677.4514 30436.2885 6.1814 68.6426
ENERGY: 600000 0.9519 10.7514 7.8067 0.0000 -10930.6438 1499.7058 0.0000 0.0000 1764.4521 -7646.9758 295.9709 -9411.4280 -7558.4635 303.7763 341.6789 404.5721 30231.0134 -103.0516 -49.9277
ENERGY: 900000 1.4051 9.6815 5.8686 0.0000 -10926.1218 1506.3948 0.0000 0.0000 1783.4902 -7619.2816 299.1644 -9402.7719 -7571.0592 302.8088 543.5220 600.4714 30339.7876 10.1627 63.1624
ENERGY: 1200000 3.0484 10.7425 4.8811 0.0000 -10781.1937 1377.7068 0.0000 0.0000 1763.6242 -7621.1908 295.8320 -9384.8150 -7586.2441 301.4688 -465.1163 -470.3462 30472.0682 6.6192 55.7793
ENERGY: 1500000 1.5477 4.9294 6.9951 0.0000 -10812.3435 1477.6879 0.0000 0.0000 1853.1269 -7468.0566 310.8453 -9321.1834 -7581.8513 302.3262 177.5703 256.6752 30921.6089 -24.6060 29.8115
TCL: Running FEP window   7: Lambda1 0.3    Lambda2 0.35   [dLambda 0.04999999999999999]
TCL: Setting parameter firsttimestep to 0
TCL: Setting parameter alchLambda to 0.3
Info: NONBONDED TABLE R-SQUARED SPACING: 0.0625
Info: NONBONDED TABLE SIZE: 705 POINTS
TCL: Setting parameter alchLambda2 to 0.35
Info: NONBONDED TABLE R-SQUARED SPACING: 0.0625
Info: NONBONDED TABLE SIZE: 705 POINTS
TCL: Running for 1500000 steps
ETITLE: TS BOND ANGLE DIHED IMPRP ELECT VDW BOUNDARY MISC KINETIC TOTAL TEMP POTENTIAL TOTALAVG TEMPAVG PRESSURE GPRESSURE VOLUME PRESSAVG GPRESSAVG
ENERGY: 0 1.5477 4.9294 6.9951 0.0000 -10812.3432 1478.0402 0.0000 0.0000 1852.2428 -7468.5880 310.6970 -9320.8309 -7468.5880 310.6970 170.2691 265.7762 30921.6089 170.2691 265.7762
ENERGY: 300000 3.2922 9.5482 4.0498 0.0000 -10869.2759 1447.6095 0.0000 0.0000 1737.6500 -7667.1262 291.4751 -9404.7762 -7556.3516 302.4762 -370.3619 -275.1149 31262.7625 -237.8599 -159.8207
ENERGY: 600000 2.7009 8.9890 4.7301 0.0000 -10747.5177 1404.2368 0.0000 0.0000 1784.6296 -7542.2312 299.3555 -9326.8608 -7537.7383 304.3786 -630.4484 -537.2228 31220.2066 -357.3853 -282.9307
ENERGY: 900000 3.0887 12.2277 4.4198 0.0000 -10829.0393 1393.0636 0.0000 0.0000 1730.7795 -7685.4600 290.3226 -9416.2395 -7554.6345 302.2216 -806.1818 -787.4977 31016.4511 -393.7419 -320.8137
ENERGY: 1200000 2.3341 11.5168 6.4236 0.0000 -10879.4843 1450.7827 0.0000 0.0000 1761.1620 -7647.2652 295.4190 -9408.4271 -7571.7861 301.2979 -75.1712 -87.8040 30272.0959 -347.9148 -281.3607
ENERGY: 1500000 2.8452 11.3177 5.5545 0.0000 -10929.9147 1506.7323 0.0000 0.0000 1788.6662 -7614.7989 300.0326 -9403.4650 -7575.0796 301.6440 350.3813 452.5326 30323.7989 -271.5535 -202.4309
TCL: Running FEP window   8: Lambda1 0.35   Lambda2 0.39999999999999997 [dLambda 0.04999999999999999]
TCL: Setting parameter firsttimestep to 0
TCL: Setting parameter alchLambda to 0.35
Info: NONBONDED TABLE R-SQUARED SPACING: 0.0625
Info: NONBONDED TABLE SIZE: 705 POINTS
TCL: Setting parameter alchLambda2 to 0.39999999999999997
Info: NONBONDED TABLE R-SQUARED SPACING: 0.0625
Info: NONBONDED TABLE SIZE: 705 POINTS
TCL: Running for 1500000 steps
ETITLE: TS BOND ANGLE DIHED IMPRP ELECT VDW BOUNDARY MISC KINETIC TOTAL TEMP POTENTIAL TOTALAVG TEMPAVG PRESSURE GPRESSURE VOLUME PRESSAVG GPRESSAVG
ENERGY: 0 2.8452 11.3177 5.5545 0.0000 -10929.9144 1507.0708 0.0000 0.0000 1787.7704 -7615.3559 299.8823 -9403.1263 -7615.3559 299.8823 394.4153 460.1874 30323.7989 394.4153 460.1874
ENERGY: 300000 4.2664 13.0715 4.2903 0.0000 -10794.0856 1378.1898 0.0000 0.0000 1786.3745 -7607.8931 299.6482 -9394.2676 -7626.8461 298.8654 -849.1275 -788.3218 30841.0370 -664.9061 -614.4238
ENERGY: 600000 1.0628 11.6234 5.1720 0.0000 -10721.3029 1313.4497 0.0000 0.0000 1778.5263 -7611.4686 298.3317 -9389.9950 -7626.1519 300.1687 -1112.7266 -1081.6061 30792.6325 -296.9740 -244.6199
ENERGY: 900000 3.0774 10.4121 3.9379 0.0000 -10900.1338 1488.3309 0.0000 0.0000 1775.6899 -7618.6856 297.8559 -9394.3755 -7603.7415 301.5753 106.0217 99.6367 30725.2920 -224.4203 -177.8565
ENERGY: 1200000 6.4180 9.9111 5.4588 0.0000 -10898.0161 1503.9331 0.0000 0.0000 1800.2874 -7572.0076 301.9819 -9372.2950 -7590.6340 302.3974 669.7188 716.6940 30241.3824 -220.6957 -169.5308
ENERGY: 1500000 1.9122 4.0689 5.6814 0.0000 -10997.3808 1515.6577 0.0000 0.0000 1809.8787 -7660.1819 303.5908 -9470.0606 -7588.0409 302.8627 301.2733 328.2603 30715.4254 -185.5324 -135.7098
TCL: Running FEP window   9: Lambda1 0.39999999999999997 Lambda2 0.44999999999999996 [dLambda 0.04999999999999999]
TCL: Setting parameter firsttimestep to 0
TCL: Setting parameter alchLambda to 0.39999999999999997
Info: NONBONDED TABLE R-SQUARED SPACING: 0.0625
Info: NONBONDED TABLE SIZE: 705 POINTS
TCL: Setting parameter alchLambda2 to 0.44999999999999996
Info: NONBONDED TABLE R-SQUARED SPACING: 0.0625
Info: NONBONDED TABLE SIZE: 705 POINTS
TCL: Running for 1500000 steps
ETITLE: TS BOND ANGLE DIHED IMPRP ELECT VDW BOUNDARY MISC KINETIC TOTAL TEMP POTENTIAL TOTALAVG TEMPAVG PRESSURE GPRESSURE VOLUME PRESSAVG GPRESSAVG
ENERGY: 0 1.9122 4.0689 5.6814 0.0000 -10997.3777 1516.6276 0.0000 0.0000 1808.9780 -7660.1098 303.4397 -9469.0877 -7660.1098 303.4397 266.3407 340.8694 30715.4254 266.3407 340.8694
ENERGY: 300000 1.6361 7.6293 5.4035 0.0000 -10739.6524 1479.4599 0.0000 0.0000 1809.9576 -7435.5660 303.6040 -9245.5236 -7587.7623 299.4057 637.1355 721.1537 30434.9823 481.5385 555.6356
ENERGY: 600000 0.9136 8.4509 5.0193 0.0000 -10867.8322 1534.9064 0.0000 0.0000 1836.5780 -7481.9641 308.0694 -9318.5420 -7572.7053 301.7105 868.1840 898.0296 30750.8142 303.3383 377.9802
ENERGY: 900000 2.4268 10.4227 4.9283 0.0000 -10900.5437 1486.3522 0.0000 0.0000 1827.6350 -7568.7787 306.5693 -9396.4137 -7577.4479 300.5104 180.4118 247.9333 30810.2355 287.9048 364.4923
ENERGY: 1200000 1.1486 8.2712 5.7444 0.0000 -10819.0932 1432.9165 0.0000 0.0000 1812.1407 -7558.8718 303.9702 -9371.0125 -7576.0188 300.4304 -309.1734 -195.1262 30943.4635 229.9603 309.8114
ENERGY: 1500000 5.3844 11.2307 5.3615 0.0000 -11011.5759 1539.5912 0.0000 0.0000 1808.2592 -7641.7488 303.3191 -9450.0080 -7579.6678 300.8612 743.4332 805.8387 30101.5917 230.5151 305.4927
TCL: Running FEP window  10: Lambda1 0.44999999999999996 Lambda2 0.49999999999999994 [dLambda 0.04999999999999999]
TCL: Setting parameter firsttimestep to 0
TCL: Setting parameter alchLambda to 0.44999999999999996
Info: NONBONDED TABLE R-SQUARED SPACING: 0.0625
Info: NONBONDED TABLE SIZE: 705 POINTS
TCL: Setting parameter alchLambda2 to 0.49999999999999994
Info: NONBONDED TABLE R-SQUARED SPACING: 0.0625
Info: NONBONDED TABLE SIZE: 705 POINTS
TCL: Running for 1500000 steps
ETITLE: TS BOND ANGLE DIHED IMPRP ELECT VDW BOUNDARY MISC KINETIC TOTAL TEMP POTENTIAL TOTALAVG TEMPAVG PRESSURE GPRESSURE VOLUME PRESSAVG GPRESSAVG
ENERGY: 0 5.3844 11.2307 5.3615 0.0000 -11011.5752 1539.3158 0.0000 0.0000 1807.3409 -7642.9420 303.1651 -9450.2829 -7642.9420 303.1651 704.0516 810.8951 30101.5917 704.0516 810.8951
ENERGY: 300000 1.4280 8.5151 5.8764 0.0000 -10882.2264 1499.2209 0.0000 0.0000 1778.5594 -7588.6265 298.3373 -9367.1860 -7613.3159 298.0243 517.2401 575.4869 30485.4745 178.7703 243.4058
ENERGY: 600000 0.5491 6.2379 6.2822 0.0000 -10842.2071 1475.8030 0.0000 0.0000 1810.5333 -7542.8015 303.7006 -9353.3348 -7610.3386 299.5416 272.1100 378.3059 30533.1604 359.4763 431.2769
ENERGY: 900000 1.7110 9.9855 5.9746 0.0000 -10850.1105 1494.8823 0.0000 0.0000 1774.6864 -7562.8706 297.6876 -9337.5571 -7603.7323 298.9299 253.8806 316.1235 30908.1465 254.0612 332.8064
ENERGY: 1200000 4.8624 11.4986 5.5714 0.0000 -10736.1101 1424.8047 0.0000 0.0000 1755.2038 -7534.1692 294.4196 -9289.3730 -7597.9901 298.9170 -425.6258 -321.1023 31306.6986 173.7203 247.2465
ENERGY: 1500000 1.0742 7.7013 5.5801 0.0000 -10842.0124 1461.6921 0.0000 0.0000 1741.5365 -7624.4283 292.1270 -9365.9648 -7594.4772 298.3854 -259.9470 -193.5796 31432.1860 84.8006 153.1074
TCL: Running FEP window  11: Lambda1 0.49999999999999994 Lambda2 0.5499999999999999 [dLambda 0.04999999999999999]
TCL: Setting parameter firsttimestep to 0
TCL: Setting parameter alchLambda to 0.49999999999999994
Info: NONBONDED TABLE R-SQUARED SPACING: 0.0625
Info: NONBONDED TABLE SIZE: 705 POINTS
TCL: Setting parameter alchLambda2 to 0.5499999999999999
Info: NONBONDED TABLE R-SQUARED SPACING: 0.0625
Info: NONBONDED TABLE SIZE: 705 POINTS
TCL: Running for 1500000 steps
ETITLE: TS BOND ANGLE DIHED IMPRP ELECT VDW BOUNDARY MISC KINETIC TOTAL TEMP POTENTIAL TOTALAVG TEMPAVG PRESSURE GPRESSURE VOLUME PRESSAVG GPRESSAVG
ENERGY: 0 1.0742 7.7013 5.5801 0.0000 -10842.0126 1462.4682 0.0000 0.0000 1740.6526 -7624.5362 291.9788 -9365.1888 -7624.5362 291.9788 -250.6027 -178.6811 31432.1860 -250.6027 -178.6811
ENERGY: 300000 3.9981 4.9766 5.3002 0.0000 -10949.8584 1531.5512 0.0000 0.0000 1846.4045 -7557.6277 309.7177 -9404.0322 -7615.0429 299.7240 684.4653 739.2063 30915.0971 192.7256 255.9044
ENERGY: 600000 4.4104 9.4366 4.9140 0.0000 -10799.1165 1476.0994 0.0000 0.0000 1783.3708 -7520.8854 299.1443 -9304.2561 -7600.7025 299.9439 331.9055 391.5249 30852.7967 58.4951 119.4144
ENERGY: 900000 6.8832 9.0510 4.2027 0.0000 -10966.8470 1514.5125 0.0000 0.0000 1793.9058 -7638.2919 300.9115 -9432.1978 -7610.0280 299.2025 -24.3472 37.5836 30729.3953 -132.8087 -68.3324
ENERGY: 1200000 1.7783 5.2212 4.5325 0.0000 -10652.9166 1252.6645 0.0000 0.0000 1736.9205 -7651.7997 291.3527 -9388.7201 -7605.4675 298.2059 -1670.8093 -1597.5477 30909.1336 -151.8875 -87.4270
ENERGY: 1500000 0.5932 9.8471 5.0865 0.0000 -10691.8299 1351.3936 0.0000 0.0000 1807.7230 -7517.1864 303.2292 -9324.9095 -7599.8034 299.2691 -729.4099 -673.2433 30876.4837 -210.9674 -140.1830
TCL: Running FEP window  12: Lambda1 0.5499999999999999 Lambda2 0.6    [dLambda 0.050000000000000044]
TCL: Setting parameter firsttimestep to 0
TCL: Setting parameter alchLambda to 0.5499999999999999
Info: NONBONDED TABLE R-SQUARED SPACING: 0.0625
Info: NONBONDED TABLE SIZE: 705 POINTS
TCL: Setting parameter alchLambda2 to 0.6
Info: NONBONDED TABLE R-SQUARED SPACING: 0.0625
Info: NONBONDED TABLE SIZE: 705 POINTS
TCL: Running for 1500000 steps
ETITLE: TS BOND ANGLE DIHED IMPRP ELECT VDW BOUNDARY MISC KINETIC TOTAL TEMP POTENTIAL TOTALAVG TEMPAVG PRESSURE GPRESSURE VOLUME PRESSAVG GPRESSAVG
ENERGY: 0 0.5932 9.8471 5.0865 0.0000 -10691.7576 1351.1866 0.0000 0.0000 1806.8455 -7518.1988 303.0820 -9325.0442 -7518.1988 303.0820 -742.5389 -664.3802 30876.4837 -742.5389 -664.3802
ENERGY: 300000 2.5988 8.3378 7.9494 0.0000 -10791.6419 1392.0870 0.0000 0.0000 1795.1014 -7585.5675 301.1120 -9380.6689 -7582.2819 297.8892 -769.4442 -761.9777 31283.9939 -408.2640 -367.9994
ENERGY: 600000 3.6665 10.6749 5.8418 0.0000 -10866.8901 1427.9224 0.0000 0.0000 1791.0904 -7627.6941 300.4392 -9418.7845 -7578.8762 297.7554 -430.5999 -375.7513 30730.3320 -287.9489 -249.9120
ENERGY: 900000 4.0757 9.7519 5.9840 0.0000 -10658.0305 1357.9969 0.0000 0.0000 1781.8095 -7498.4125 298.8824 -9280.2220 -7584.0798 297.8701 -538.4617 -500.6406 30841.0432 -320.7040 -288.8530
ENERGY: 1200000 0.9983 9.7866 4.7207 0.0000 -10825.0555 1448.2481 0.0000 0.0000 1802.5467 -7558.7552 302.3609 -9361.3018 -7590.2920 298.4801 276.1730 263.8200 30274.7599 -220.0702 -184.3453
ENERGY: 1500000 1.9859 7.0755 3.8443 0.0000 -10889.8583 1443.4273 0.0000 0.0000 1819.6295 -7613.8958 305.2264 -9433.5253 -7600.4602 298.7000 -314.9635 -264.1389 30738.1737 -180.8222 -140.7089
TCL: Running FEP window  13: Lambda1 0.6    Lambda2 0.65   [dLambda 0.050000000000000044]
TCL: Setting parameter firsttimestep to 0
TCL: Setting parameter alchLambda to 0.6
Info: NONBONDED TABLE R-SQUARED SPACING: 0.0625
Info: NONBONDED TABLE SIZE: 705 POINTS
TCL: Setting parameter alchLambda2 to 0.65
Info: NONBONDED TABLE R-SQUARED SPACING: 0.0625
Info: NONBONDED TABLE SIZE: 705 POINTS
TCL: Running for 1500000 steps
ETITLE: TS BOND ANGLE DIHED IMPRP ELECT VDW BOUNDARY MISC KINETIC TOTAL TEMP POTENTIAL TOTALAVG TEMPAVG PRESSURE GPRESSURE VOLUME PRESSAVG GPRESSAVG
ENERGY: 0 1.9859 7.0756 3.8443 0.0000 -10889.8540 1443.7294 0.0000 0.0000 1818.7389 -7614.4800 305.0770 -9433.2189 -7614.4800 305.0770 -328.7188 -253.4156 30738.1737 -328.7188 -253.4156
ENERGY: 300000 2.3881 9.6382 4.2470 0.0000 -10879.5518 1458.9550 0.0000 0.0000 1797.9032 -7606.4204 301.5820 -9404.3236 -7568.8674 305.5298 -37.0265 -4.7430 30970.2577 -176.1458 -110.8594
ENERGY: 600000 1.7575 5.8489 5.4834 0.0000 -10866.5130 1483.0951 0.0000 0.0000 1772.0646 -7598.2634 297.2478 -9370.3280 -7586.9698 302.2970 513.1675 547.4631 30612.6866 78.0434 129.6467
ENERGY: 900000 2.8928 7.4060 5.4653 0.0000 -10806.6184 1382.2804 0.0000 0.0000 1807.7580 -7600.8158 303.2351 -9408.5738 -7584.5407 301.6598 -702.2162 -696.1549 30818.7131 -43.7147 7.3577
ENERGY: 1200000 1.7328 8.3743 4.9703 0.0000 -10924.6709 1469.8829 0.0000 0.0000 1720.5440 -7719.1666 288.6057 -9439.7106 -7597.0834 299.9468 -237.6256 -169.6567 30722.2107 -101.3813 -46.9839
ENERGY: 1500000 2.2530 8.1956 4.1632 0.0000 -10736.3875 1387.8545 0.0000 0.0000 1803.7752 -7530.1460 302.5670 -9333.9213 -7585.0132 300.9070 -444.2351 -366.0365 31111.0025 -139.2653 -83.9182
TCL: Running FEP window  14: Lambda1 0.65   Lambda2 0.7000000000000001 [dLambda 0.050000000000000044]
TCL: Setting parameter firsttimestep to 0
TCL: Setting parameter alchLambda to 0.65
Info: NONBONDED TABLE R-SQUARED SPACING: 0.0625
Info: NONBONDED TABLE SIZE: 705 POINTS
TCL: Setting parameter alchLambda2 to 0.7000000000000001
Info: NONBONDED TABLE R-SQUARED SPACING: 0.0625
Info: NONBONDED TABLE SIZE: 705 POINTS
TCL: Running for 1500000 steps
ETITLE: TS BOND ANGLE DIHED IMPRP ELECT VDW BOUNDARY MISC KINETIC TOTAL TEMP POTENTIAL TOTALAVG TEMPAVG PRESSURE GPRESSURE VOLUME PRESSAVG GPRESSAVG
ENERGY: 0 2.2530 8.1956 4.1632 0.0000 -10736.6282 1387.7702 0.0000 0.0000 1802.8645 -7531.3817 302.4142 -9334.2462 -7531.3817 302.4142 -426.9872 -357.8921 31111.0025 -426.9872 -357.8921
ENERGY: 300000 2.7917 13.1818 8.3986 0.0000 -10763.9689 1437.8431 0.0000 0.0000 1779.1104 -7522.6433 298.4297 -9301.7536 -7523.4354 300.3687 23.0146 96.5242 30983.2117 -392.1898 -317.2639
ENERGY: 600000 5.9950 6.2742 6.7665 0.0000 -10833.7694 1485.9501 0.0000 0.0000 1755.8297 -7572.9540 294.5246 -9328.7837 -7552.4676 300.6424 -131.3179 -48.8678 31384.1331 -228.7812 -138.3672
ENERGY: 900000 2.0014 12.4582 4.4192 0.0000 -10917.8977 1515.9340 0.0000 0.0000 1794.6631 -7588.4218 301.0385 -9383.0849 -7573.9382 300.9179 197.9044 194.6047 31081.4074 -92.3272 -21.2662
ENERGY: 1200000 0.8701 9.3387 3.7725 0.0000 -10786.5231 1423.3876 0.0000 0.0000 1804.3721 -7544.7820 302.6671 -9349.1542 -7582.6507 300.7333 -193.2436 -153.1436 31029.5124 -16.5837 53.4862
ENERGY: 1500000 4.1235 6.9727 4.1435 0.0000 -10832.9540 1483.2186 0.0000 0.0000 1799.8100 -7534.6857 301.9019 -9334.4957 -7574.0779 301.0267 118.3218 151.3265 30881.2942 -27.5016 35.5420
TCL: Running FEP window  15: Lambda1 0.7000000000000001 Lambda2 0.7500000000000001 [dLambda 0.050000000000000044]
TCL: Setting parameter firsttimestep to 0
TCL: Setting parameter alchLambda to 0.7000000000000001
Info: NONBONDED TABLE R-SQUARED SPACING: 0.0625
Info: NONBONDED TABLE SIZE: 705 POINTS
TCL: Setting parameter alchLambda2 to 0.7500000000000001
Info: NONBONDED TABLE R-SQUARED SPACING: 0.0625
Info: NONBONDED TABLE SIZE: 705 POINTS
TCL: Running for 1500000 steps
ETITLE: TS BOND ANGLE DIHED IMPRP ELECT VDW BOUNDARY MISC KINETIC TOTAL TEMP POTENTIAL TOTALAVG TEMPAVG PRESSURE GPRESSURE VOLUME PRESSAVG GPRESSAVG
ENERGY: 0 4.1235 6.9727 4.1435 0.0000 -10834.1156 1483.5379 0.0000 0.0000 1798.9319 -7536.4061 301.7546 -9335.3380 -7536.4061 301.7546 74.4952 165.0862 30881.2942 74.4952 165.0862
ENERGY: 300000 1.9017 12.2955 6.1439 0.0000 -10751.2939 1392.6727 0.0000 0.0000 1761.7528 -7576.5273 295.5181 -9338.2801 -7583.6941 298.3221 -707.0477 -611.2957 31075.1512 -121.5765 -40.8991
ENERGY: 600000 2.2720 5.7586 5.1698 0.0000 -10802.0430 1421.7402 0.0000 0.0000 1799.9407 -7567.1617 301.9238 -9367.1023 -7573.4060 299.4902 -164.8615 -110.9442 30492.1126 -116.8254 -49.9021
ENERGY: 900000 1.7744 9.7211 4.3568 0.0000 -10939.8882 1490.5460 0.0000 0.0000 1764.7462 -7668.7437 296.0202 -9433.4899 -7577.5703 300.2550 65.6381 141.6373 30868.6669 39.7870 99.0015
ENERGY: 1200000 3.5344 10.5977 7.2438 0.0000 -10877.3986 1466.0618 0.0000 0.0000 1850.1609 -7539.8000 310.3478 -9389.9609 -7572.5382 301.0297 -84.5348 -109.0856 30925.0209 -0.4959 53.4892
ENERGY: 1500000 0.5730 14.0194 3.4165 0.0000 -10889.4526 1439.6634 0.0000 0.0000 1861.3404 -7570.4398 312.2230 -9431.7802 -7577.1889 301.0264 -290.8263 -215.4415 30866.5393 -7.2236 55.1180
TCL: Running FEP window  16: Lambda1 0.7500000000000001 Lambda2 0.8000000000000002 [dLambda 0.050000000000000044]
TCL: Setting parameter firsttimestep to 0
TCL: Setting parameter alchLambda to 0.7500000000000001
Info: NONBONDED TABLE R-SQUARED SPACING: 0.0625
Info: NONBONDED TABLE SIZE: 705 POINTS
TCL: Setting parameter alchLambda2 to 0.8000000000000002
Info: NONBONDED TABLE R-SQUARED SPACING: 0.0625
Info: NONBONDED TABLE SIZE: 705 POINTS
TCL: Running for 1500000 steps
ETITLE: TS BOND ANGLE DIHED IMPRP ELECT VDW BOUNDARY MISC KINETIC TOTAL TEMP POTENTIAL TOTALAVG TEMPAVG PRESSURE GPRESSURE VOLUME PRESSAVG GPRESSAVG
ENERGY: 0 0.5730 14.0194 3.4165 0.0000 -10890.3950 1439.8553 0.0000 0.0000 1860.4611 -7572.0696 312.0755 -9432.5307 -7572.0696 312.0755 -274.1181 -202.7820 30866.5393 -274.1181 -202.7820
ENERGY: 300000 2.3782 12.4881 5.3292 0.0000 -10999.0478 1529.1648 0.0000 0.0000 1786.1528 -7663.5347 299.6110 -9449.6875 -7605.6081 304.6485 485.1782 581.8476 30641.8913 -24.9857 78.2474
ENERGY: 600000 2.2175 9.8885 4.5292 0.0000 -10865.7581 1426.7528 0.0000 0.0000 1733.7651 -7688.6050 290.8234 -9422.3701 -7625.2525 303.1427 -332.2887 -318.7606 30783.0884 -82.0029 -2.5624
ENERGY: 900000 1.0516 8.9381 4.0894 0.0000 -10979.7824 1567.0392 0.0000 0.0000 1737.8333 -7660.8308 291.5058 -9398.6641 -7643.4244 299.4865 823.4929 920.5318 30752.0290 -124.1230 -43.5380
ENERGY: 1200000 1.6333 9.1952 3.1399 0.0000 -10802.5428 1362.2345 0.0000 0.0000 1800.5355 -7625.8043 302.0236 -9426.3398 -7632.6028 299.5719 -766.8851 -684.6696 30719.6478 -190.8601 -120.4534
ENERGY: 1500000 5.2057 5.6163 5.3250 0.0000 -10880.0869 1406.6862 0.0000 0.0000 1759.9080 -7697.3457 295.2087 -9457.2538 -7633.8147 299.2806 -736.6829 -690.8962 30787.4363 -169.9172 -105.8765
TCL: Running FEP window  17: Lambda1 0.8000000000000002 Lambda2 0.8500000000000002 [dLambda 0.050000000000000044]
TCL: Setting parameter firsttimestep to 0
TCL: Setting parameter alchLambda to 0.8000000000000002
Info: NONBONDED TABLE R-SQUARED SPACING: 0.0625
Info: NONBONDED TABLE SIZE: 705 POINTS
TCL: Setting parameter alchLambda2 to 0.8500000000000002
Info: NONBONDED TABLE R-SQUARED SPACING: 0.0625
Info: NONBONDED TABLE SIZE: 705 POINTS
TCL: Running for 1500000 steps
ETITLE: TS BOND ANGLE DIHED IMPRP ELECT VDW BOUNDARY MISC KINETIC TOTAL TEMP POTENTIAL TOTALAVG TEMPAVG PRESSURE GPRESSURE VOLUME PRESSAVG GPRESSAVG
ENERGY: 0 5.2057 5.6163 5.3250 0.0000 -10881.3371 1406.7683 0.0000 0.0000 1759.0210 -7699.4009 295.0599 -9458.4219 -7699.4009 295.0599 -751.8430 -680.8257 30787.4363 -751.8430 -680.8257
ENERGY: 300000 0.9978 9.8927 4.9159 0.0000 -10738.2209 1401.4097 0.0000 0.0000 1751.4724 -7569.5324 293.7937 -9321.0048 -7625.9134 299.9899 -586.1133 -446.2488 31273.3212 -324.6204 -258.1240
ENERGY: 600000 3.8922 7.7485 3.9238 0.0000 -10835.0905 1438.6037 0.0000 0.0000 1709.4694 -7671.4528 286.7481 -9380.9222 -7633.2795 299.6353 -257.3429 -229.3773 31233.2678 -182.5794 -123.8221
ENERGY: 900000 3.1530 7.2579 5.2834 0.0000 -10843.5669 1476.3557 0.0000 0.0000 1736.1457 -7615.3712 291.2228 -9351.5170 -7625.6106 299.5497 295.2388 418.1009 30605.4171 -207.6262 -136.8408
ENERGY: 1200000 0.6191 8.6004 5.1206 0.0000 -10855.1454 1505.4155 0.0000 0.0000 1775.6672 -7559.7226 297.8521 -9335.3898 -7621.0666 300.1998 358.8324 469.0494 31108.8659 -108.4865 -29.7823
ENERGY: 1500000 2.2216 9.6430 5.9689 0.0000 -10948.8528 1531.9331 0.0000 0.0000 1723.7387 -7675.3475 289.1416 -9399.0862 -7629.5035 298.7285 454.9385 482.9606 30600.0331 -140.0195 -70.1985
TCL: Running FEP window  18: Lambda1 0.8500000000000002 Lambda2 0.9000000000000002 [dLambda 0.050000000000000044]
TCL: Setting parameter firsttimestep to 0
TCL: Setting parameter alchLambda to 0.8500000000000002
Info: NONBONDED TABLE R-SQUARED SPACING: 0.0625
Info: NONBONDED TABLE SIZE: 705 POINTS
TCL: Setting parameter alchLambda2 to 0.9000000000000002
Info: NONBONDED TABLE R-SQUARED SPACING: 0.0625
Info: NONBONDED TABLE SIZE: 705 POINTS
TCL: Running for 1500000 steps
ETITLE: TS BOND ANGLE DIHED IMPRP ELECT VDW BOUNDARY MISC KINETIC TOTAL TEMP POTENTIAL TOTALAVG TEMPAVG PRESSURE GPRESSURE VOLUME PRESSAVG GPRESSAVG
ENERGY: 0 2.2216 9.6430 5.9689 0.0000 -10949.9821 1531.6369 0.0000 0.0000 1722.8223 -7677.6894 288.9879 -9400.5117 -7677.6894 288.9879 400.8242 488.2615 30600.0331 400.8242 488.2615
ENERGY: 300000 2.9537 5.0754 4.5013 0.0000 -10830.9315 1438.4800 0.0000 0.0000 1822.4459 -7557.4752 305.6988 -9379.9211 -7595.4927 298.7790 69.1691 88.6549 30810.6222 215.7326 287.4190
ENERGY: 600000 1.7376 8.7837 4.4402 0.0000 -10997.8049 1550.4312 0.0000 0.0000 1789.4674 -7642.9448 300.1670 -9432.4122 -7621.8469 298.6183 520.3077 574.1922 30837.6313 228.6441 282.6498
ENERGY: 900000 1.9604 6.2867 5.0980 0.0000 -10885.3074 1504.2251 0.0000 0.0000 1866.0528 -7501.6844 313.0135 -9367.7372 -7593.2540 300.6286 412.5436 428.1623 31052.5376 282.7344 336.3644
ENERGY: 1200000 0.9820 10.8858 4.2069 0.0000 -10858.5840 1417.8234 0.0000 0.0000 1775.5598 -7649.1261 297.8341 -9424.6859 -7590.1758 301.0143 -541.6769 -467.1823 31105.6673 237.4158 281.6070
ENERGY: 1500000 1.3115 7.3698 5.0310 0.0000 -10760.8664 1364.9940 0.0000 0.0000 1806.9768 -7575.1833 303.1040 -9382.1602 -7590.6896 301.0969 -671.6788 -598.7136 30730.1719 118.8755 165.5487
TCL: Running FEP window  19: Lambda1 0.9000000000000002 Lambda2 0.9500000000000003 [dLambda 0.050000000000000044]
TCL: Setting parameter firsttimestep to 0
TCL: Setting parameter alchLambda to 0.9000000000000002
Info: NONBONDED TABLE R-SQUARED SPACING: 0.0625
Info: NONBONDED TABLE SIZE: 705 POINTS
TCL: Setting parameter alchLambda2 to 0.9500000000000003
Info: NONBONDED TABLE R-SQUARED SPACING: 0.0625
Info: NONBONDED TABLE SIZE: 705 POINTS
TCL: Running for 1500000 steps
ETITLE: TS BOND ANGLE DIHED IMPRP ELECT VDW BOUNDARY MISC KINETIC TOTAL TEMP POTENTIAL TOTALAVG TEMPAVG PRESSURE GPRESSURE VOLUME PRESSAVG GPRESSAVG
ENERGY: 0 1.3115 7.3698 5.0310 0.0000 -10762.6783 1365.0697 0.0000 0.0000 1806.0538 -7577.8425 302.9492 -9383.8963 -7577.8425 302.9492 -676.0486 -587.2207 30730.1719 -676.0486 -587.2207
ENERGY: 300000 2.5680 7.2894 4.1931 0.0000 -10954.8328 1498.3922 0.0000 0.0000 1804.0855 -7638.3047 302.6190 -9442.3902 -7588.4938 302.7298 258.3358 393.9472 30213.2954 -261.7178 -185.8869
ENERGY: 600000 3.5835 9.0120 4.0267 0.0000 -10969.3404 1564.1668 0.0000 0.0000 1815.9146 -7572.6368 304.6033 -9388.5514 -7596.5177 303.0447 962.1433 995.4059 30744.9240 -141.4356 -69.4492
ENERGY: 900000 1.8481 7.5442 5.4287 0.0000 -10772.4730 1415.6322 0.0000 0.0000 1782.6820 -7559.3378 299.0288 -9342.0198 -7597.6373 301.6807 65.9577 129.9232 30303.8452 -106.9018 -48.1016
ENERGY: 1200000 2.7821 11.0773 6.5559 0.0000 -10956.4645 1516.8897 0.0000 0.0000 1794.6218 -7624.5377 301.0316 -9419.1595 -7607.1292 301.0636 385.9333 398.2340 30930.4943 32.8526 91.8515
ENERGY: 1500000 1.3438 9.9144 5.1545 0.0000 -10955.2282 1477.9995 0.0000 0.0000 1825.4685 -7635.3476 306.2058 -9460.8161 -7608.5645 301.8559 214.9547 214.6044 30401.0988 58.1199 112.8911
TCL: Running FEP window  20: Lambda1 0.9500000000000003 Lambda2 1.0    [dLambda 0.04999999999999971]
TCL: Setting parameter firsttimestep to 0
TCL: Setting parameter alchLambda to 0.9500000000000003
Info: NONBONDED TABLE R-SQUARED SPACING: 0.0625
Info: NONBONDED TABLE SIZE: 705 POINTS
TCL: Setting parameter alchLambda2 to 1.0
Info: NONBONDED TABLE R-SQUARED SPACING: 0.0625
Info: NONBONDED TABLE SIZE: 705 POINTS
TCL: Running for 1500000 steps
ETITLE: TS BOND ANGLE DIHED IMPRP ELECT VDW BOUNDARY MISC KINETIC TOTAL TEMP POTENTIAL TOTALAVG TEMPAVG PRESSURE GPRESSURE VOLUME PRESSAVG GPRESSAVG
ENERGY: 0 1.3438 9.9144 5.1545 0.0000 -10956.7562 1478.2331 0.0000 0.0000 1824.5819 -7637.5285 306.0571 -9462.1105 -7637.5285 306.0571 151.1751 226.8662 30401.0988 151.1751 226.8662
ENERGY: 300000 3.2980 10.9043 4.7428 0.0000 -10959.4345 1515.7751 0.0000 0.0000 1800.7179 -7623.9963 302.0542 -9424.7143 -7593.5998 303.9338 692.0575 779.4663 30307.6694 166.1976 228.7776
ENERGY: 600000 9.0749 9.4670 3.9283 0.0000 -10981.2027 1502.5135 0.0000 0.0000 1756.0168 -7700.2023 294.5559 -9456.2191 -7595.6392 303.0773 96.0367 161.2934 30676.0140 352.4319 416.9684
ENERGY: 900000 2.8691 7.9704 5.0771 0.0000 -10881.8413 1433.7345 0.0000 0.0000 1819.5848 -7612.6054 305.2189 -9432.1902 -7611.8802 302.5832 -302.0749 -220.6469 31097.4182 195.6998 262.9743
ENERGY: 1200000 2.8702 8.6737 4.1331 0.0000 -10819.3021 1417.0634 0.0000 0.0000 1789.7258 -7596.8361 300.2103 -9386.5618 -7589.4383 302.8527 -142.7856 -74.1157 30815.2395 93.8512 157.5645
ENERGY: 1500000 5.1325 9.7479 6.2003 0.0000 -10869.9910 1442.8563 0.0000 0.0000 1789.9928 -7616.0612 300.2551 -9406.0540 -7598.6491 302.5029 -93.0952 -99.2079 30741.8973 31.1048 88.8584
TCL: Exiting due to exit command.
