Info: SIMULATION PARAMETERS:
Info: TIMESTEP               2
Info: NUMBER OF STEPS        0
Info: STEPS PER CYCLE        10
Info: PERIODIC CELL BASIS 1  31.6726 0 0
Info: PERIODIC CELL BASIS 2  0 30.2342 0
Info: PERIODIC CELL BASIS 3  0 0 31.5253
Info: PERIODIC CELL CENTER   0 0 0
Info: WRAPPING WATERS AROUND PERIODIC BOUNDARIES ON OUTPUT.
Info: WRAPPING ALL CLUSTERS AROUND PERIODIC BOUNDARIES ON OUTPUT.
Info: FIRST LDB TIMESTEP     50
Info: LAST LDB TIMESTEP     -1
Info: HOM BACKGROUND SCALING 1
Info: PME BACKGROUND SCALING 1
Info: MIN ATOMS PER PATCH    40
Info: EMPTY PATCH LOAD       40 ATOMS
Info: VELOCITY FILE          mobley_4884177_equil.vel
Info: CENTER OF MASS MOVING INITIALLY? NO
Info: DIELECTRIC             1
Info: EXCLUDE                SCALED ONE-FOUR
Info: 1-4 ELECTROSTATICS SCALED BY 0.833333
Info: MODIFIED 1-4 VDW PARAMETERS WILL BE USED
Info: DCD FILENAME           mobley_4884177_prod.dcd
Info: DCD FREQUENCY          100000
Info: DCD FIRST STEP         100000
Info: DCD FILE WILL CONTAIN UNIT CELL DATA
Info: XST FILENAME           mobley_4884177_prod.xst
Info: XST FREQUENCY          100000
Info: NO VELOCITY DCD OUTPUT
Info: NO FORCE DCD OUTPUT
Info: OUTPUT FILENAME        mobley_4884177_prod
Info: BINARY OUTPUT FILES WILL BE USED
Info: RESTART FILENAME       mobley_4884177_prod.restart
Info: RESTART FREQUENCY      100000
Info: BINARY RESTART FILES WILL BE USED
Info: CUTOFF                 9
Info: PAIRLIST DISTANCE      11
Info: PAIRLIST SHRINK RATE   0.01
Info: PAIRLIST GROW RATE     0.01
Info: PAIRLIST TRIGGER       0.3
Info: PAIRLISTS PER CYCLE    2
Info: PAIRLISTS ENABLED
Info: MARGIN                 2
Info: HYDROGEN GROUP CUTOFF  2.5
Info: PATCH DIMENSION        15.5
Info: ENERGY OUTPUT STEPS    100000
Info: ENERGY EVALUATION STEPS    100000
Info: OUTPUT ENERGY PRECISION 4
Info: CROSSTERM ENERGY INCLUDED IN DIHEDRAL
Info: TIMING OUTPUT STEPS    1000000
Info: PRESSURE OUTPUT STEPS  100000
Info: ALCHEMICAL FEP ON
Info: FEP CURRENT LAMBDA VALUE     1
Info: FEP COMPARISON LAMBDA VALUE  0.95
Info: FEP INTRA-ALCHEMICAL NON-BONDED INTERACTIONS WILL BE RETAINED
Info: FEP INTRA-ALCHEMICAL BONDED INTERACTIONS WILL BE RETAINED
Info: FEP VDW SHIFTING COEFFICIENT 5
Info: FEP ELEC. ACTIVE FOR ANNIHILATED PARTICLES BETWEEN LAMBDA = 0 AND LAMBDA = 0.5
Info: FEP ELEC. ACTIVE FOR EXNIHILATED PARTICLES BETWEEN LAMBDA = 0.5 AND LAMBDA = 1
Info: FEP VDW ACTIVE FOR ANNIHILATED PARTICLES BETWEEN LAMBDA = 0 AND LAMBDA = 1
Info: FEP VDW ACTIVE FOR EXNIHILATED PARTICLES BETWEEN LAMBDA = 0 AND LAMBDA = 1
Info: FEP BOND ACTIVE FOR ANNIHILATED PARTICLES BETWEEN LAMBDA = 1 AND LAMBDA = 1
Info: FEP BOND ACTIVE FOR EXNIHILATED PARTICLES BETWEEN LAMBDA = 0 AND LAMBDA = 0
Info: LANGEVIN DYNAMICS ACTIVE
Info: LANGEVIN TEMPERATURE   300
Info: LANGEVIN USING BBK INTEGRATOR
Info: LANGEVIN DAMPING COEFFICIENT IS 1 INVERSE PS
Info: LANGEVIN DYNAMICS APPLIED TO HYDROGENS
Info: LANGEVIN PISTON PRESSURE CONTROL ACTIVE
Info:        TARGET PRESSURE IS 1.01325 BAR
Info:     OSCILLATION PERIOD IS 50 FS
Info:             DECAY TIME IS 25 FS
Info:     PISTON TEMPERATURE IS 300 K
Info:       PRESSURE CONTROL IS GROUP-BASED
Info:    INITIAL STRAIN RATE IS 6.8719e-05 6.8719e-05 6.8719e-05
Info:       CELL FLUCTUATION IS ISOTROPIC
Info: PARTICLE MESH EWALD (PME) ACTIVE
Info: PME TOLERANCE               1e-06
Info: PME EWALD COEFFICIENT       0.348832
Info: PME INTERPOLATION ORDER     4
Info: PME GRID DIMENSIONS         32 32 32
Info: PME MAXIMUM GRID SPACING    1
Info: PME CALCULATION WILL BE PERFORMED ON GPU
Info: FULL ELECTROSTATIC EVALUATION FREQUENCY      2
Info: USING VERLET I (r-RESPA) MTS SCHEME.
Info: C1 SPLITTING OF LONG RANGE ELECTROSTATICS
Info: PLACING ATOMS IN PATCHES BY HYDROGEN GROUPS
Info: RIGID BONDS TO HYDROGEN : ALL
Info:         ERROR TOLERANCE : 1e-08
Info:          MAX ITERATIONS : 100
Info: RIGID WATER USING SETTLE ALGORITHM
Info: RANDOM NUMBER SEED     1743765650
Info: USE HYDROGEN BONDS?    NO
Info: Using AMBER format force field!
Info: AMBER PARM FILE        mobley_4884177.prmtop
Info: COORDINATE PDB         mobley_4884177.pdb
Info: Exclusions will be read from PARM file!
Info: SCNB (VDW SCALING)     2
Info: USING ARITHMETIC MEAN TO COMBINE L-J SIGMA PARAMETERS
Info: BINARY COORDINATES     mobley_4884177_equil.coor
Info: SUMMARY OF PARAMETERS:
Info: 9 BONDS
Info: 11 ANGLES
Info:   11 HARMONIC
Info:   0 COSINE-BASED
Info: 6 DIHEDRAL
Info: 0 IMPROPER
Info: 0 CROSSTERM
Info: 0 VDW
Info: 36 VDW_PAIRS
Info: 0 NBTHOLE_PAIRS
Info: To read alchdata from file: mobley_4884177.pdb
Info: To read alchflag data from column: 5
Info: STRUCTURE SUMMARY:
Info: 2912 ATOMS
Info: 2912 BONDS
Info: 28 ANGLES
Info: 40 DIHEDRALS
Info: 0 IMPROPERS
Info: 0 CROSSTERMS
Info: 2972 EXCLUSIONS
Info: 2904 RIGID BONDS
Info: ALCH: 0 ATOMS TO DISAPPEAR IN FINAL STATE
Info: ALCH: 17 ATOMS TO APPEAR IN FINAL STATE
Info: 5832 DEGREES OF FREEDOM
Info: 973 HYDROGEN GROUPS
Info: 4 ATOMS IN LARGEST HYDROGEN GROUP
Info: 973 MIGRATION GROUPS
Info: 4 ATOMS IN LARGEST MIGRATION GROUP
Info: TOTAL MASS = 17492.6 amu
Info: TOTAL CHARGE = -0.000100033 e
Info: MASS DENSITY = 0.962216 g/cm^3
Info: ATOM DENSITY = 0.0964607 atoms/A^3
Info: ADDED 0 IMPLICIT EXCLUSIONS
Info: NONBONDED TABLE R-SQUARED SPACING: 0.0625
Info: NONBONDED TABLE SIZE: 705 POINTS
Info: REMOVING COM VELOCITY 0.0609172 -0.11059 0.167231
Info: Use 3D box decompostion in PME FFT.
Info: Updated CUDA force table with 4096 elements.
Info: Updated CUDA LJ table with 8 x 8 elements.
Info: Found 18 unique exclusion lists needing 48 bytes
TCL: Running for 1500000 steps
ETITLE: TS BOND ANGLE DIHED IMPRP ELECT VDW BOUNDARY MISC KINETIC TOTAL TEMP POTENTIAL TOTALAVG TEMPAVG PRESSURE GPRESSURE VOLUME PRESSAVG GPRESSAVG
ENERGY: 0 2.2821 4.3332 3.0538 0.0000 -10578.9881 1403.4769 0.0000 0.0000 1787.5382 -7378.3039 308.4809 -9165.8421 -7378.3039 308.4809 -327.6130 -249.2756 30188.4670 -327.6130 -249.2756
ENERGY: 300000 3.9026 7.0351 3.5327 0.0000 -10539.8629 1400.3313 0.0000 0.0000 1733.4353 -7391.6261 299.1441 -9125.0613 -7340.5970 305.2724 -299.6288 -192.0788 30062.4546 -352.2035 -280.0024
ENERGY: 600000 2.4316 9.0711 2.7326 0.0000 -10646.3701 1495.7872 0.0000 0.0000 1703.5580 -7432.7896 293.9881 -9136.3476 -7360.7765 302.4500 565.5500 642.1461 29998.2896 -149.5486 -80.1725
ENERGY: 900000 2.4887 4.0400 2.0455 0.0000 -10503.0808 1336.2100 0.0000 0.0000 1750.6881 -7407.6085 302.1215 -9158.2966 -7379.8106 301.0872 -631.0030 -607.4721 29882.6131 -109.8898 -56.1566
ENERGY: 1200000 0.5056 3.3217 3.0478 0.0000 -10518.0204 1398.6211 0.0000 0.0000 1765.7999 -7346.7243 304.7294 -9112.5242 -7383.6486 301.2684 -296.4631 -153.6910 30290.1161 -175.6919 -121.0796
ENERGY: 1500000 1.5967 5.3261 1.3914 0.0000 -10515.2462 1352.9338 0.0000 0.0000 1727.7906 -7426.2076 298.1700 -9153.9982 -7385.3813 300.8468 -493.6864 -390.5909 29661.9512 -172.4273 -115.1928
TCL: Running FEP window   2: Lambda1 0.95   Lambda2 0.8999999999999999 [dLambda -0.050000000000000044]
TCL: Setting parameter firsttimestep to 0
TCL: Setting parameter alchLambda to 0.95
Info: NONBONDED TABLE R-SQUARED SPACING: 0.0625
Info: NONBONDED TABLE SIZE: 705 POINTS
TCL: Setting parameter alchLambda2 to 0.8999999999999999
Info: NONBONDED TABLE R-SQUARED SPACING: 0.0625
Info: NONBONDED TABLE SIZE: 705 POINTS
TCL: Running for 1500000 steps
ETITLE: TS BOND ANGLE DIHED IMPRP ELECT VDW BOUNDARY MISC KINETIC TOTAL TEMP POTENTIAL TOTALAVG TEMPAVG PRESSURE GPRESSURE VOLUME PRESSAVG GPRESSAVG
ENERGY: 0 1.5967 5.3261 1.3914 0.0000 -10513.7405 1352.3074 0.0000 0.0000 1726.9160 -7426.2029 298.0191 -9153.1189 -7426.2029 298.0191 -504.0036 -410.7574 29661.9512 -504.0036 -410.7574
ENERGY: 300000 2.2128 7.6680 2.6710 0.0000 -10694.0245 1513.0195 0.0000 0.0000 1739.5542 -7428.8990 300.2001 -9168.4532 -7410.1740 298.4500 793.7198 852.6236 29798.9766 109.5812 177.9770
ENERGY: 600000 3.6631 3.9317 3.4775 0.0000 -10627.3938 1461.8292 0.0000 0.0000 1778.4407 -7376.0516 306.9109 -9154.4923 -7404.8833 298.7850 214.2934 246.4306 29976.5762 -72.2390 -10.5216
ENERGY: 900000 3.7979 6.4422 5.3829 0.0000 -10743.7100 1568.7867 0.0000 0.0000 1703.1942 -7456.1062 293.9253 -9159.3004 -7403.3418 298.8698 1050.4013 1089.6338 29819.1624 63.3705 119.2738
ENERGY: 1200000 2.4727 7.1302 3.2670 0.0000 -10417.1781 1292.6265 0.0000 0.0000 1736.0673 -7375.6144 299.5983 -9111.6816 -7387.4071 299.7408 -1036.6350 -944.6649 29989.4421 -12.3732 43.7336
ENERGY: 1500000 5.7437 4.8628 1.9287 0.0000 -10642.6703 1460.3213 0.0000 0.0000 1783.9303 -7385.8835 307.8582 -9169.8138 -7375.0654 301.0172 256.2473 287.0374 29861.3660 2.1109 56.3917
TCL: Running FEP window   3: Lambda1 0.8999999999999999 Lambda2 0.8499999999999999 [dLambda -0.050000000000000044]
TCL: Setting parameter firsttimestep to 0
TCL: Setting parameter alchLambda to 0.8999999999999999
Info: NONBONDED TABLE R-SQUARED SPACING: 0.0625
Info: NONBONDED TABLE SIZE: 705 POINTS
TCL: Setting parameter alchLambda2 to 0.8499999999999999
Info: NONBONDED TABLE R-SQUARED SPACING: 0.0625
Info: NONBONDED TABLE SIZE: 705 POINTS
TCL: Running for 1500000 steps
ETITLE: TS BOND ANGLE DIHED IMPRP ELECT VDW BOUNDARY MISC KINETIC TOTAL TEMP POTENTIAL TOTALAVG TEMPAVG PRESSURE GPRESSURE VOLUME PRESSAVG GPRESSAVG
ENERGY: 0 5.7437 4.8628 1.9287 0.0000 -10640.9261 1459.9612 0.0000 0.0000 1783.1036 -7385.3262 307.7155 -9168.4297 -7385.3262 307.7155 205.8700 273.2921 29861.3660 205.8700 273.2921
ENERGY: 300000 2.2998 5.8584 3.7685 0.0000 -10357.2182 1287.3823 0.0000 0.0000 1734.1714 -7323.7377 299.2712 -9057.9092 -7383.4709 303.1423 -1235.9757 -1208.0757 30615.6247 -420.4940 -339.6242
ENERGY: 600000 1.1401 6.4756 3.1061 0.0000 -10401.7975 1377.7400 0.0000 0.0000 1685.5610 -7327.7747 290.8823 -9013.3357 -7401.6776 297.8140 -173.9736 6.4325 30103.2642 -203.8615 -118.5147
ENERGY: 900000 3.1711 3.2017 2.2421 0.0000 -10533.7951 1414.8528 0.0000 0.0000 1725.3504 -7384.9769 297.7489 -9110.3273 -7407.0910 298.3056 240.5396 245.3829 29727.1827 -217.0838 -141.2681
ENERGY: 1200000 2.2650 7.0278 2.7214 0.0000 -10505.2008 1415.5084 0.0000 0.0000 1687.1906 -7390.4877 291.1636 -9077.6783 -7403.4995 297.6471 81.4494 223.9418 29711.4173 -227.7271 -149.3659
ENERGY: 1500000 5.2958 5.8723 2.1710 0.0000 -10481.6500 1400.1814 0.0000 0.0000 1823.8520 -7244.2776 314.7476 -9068.1296 -7386.0703 299.3926 -56.5498 0.4734 30210.9734 -159.0888 -82.8637
TCL: Running FEP window   4: Lambda1 0.8499999999999999 Lambda2 0.7999999999999998 [dLambda -0.050000000000000044]
TCL: Setting parameter firsttimestep to 0
TCL: Setting parameter alchLambda to 0.8499999999999999
Info: NONBONDED TABLE R-SQUARED SPACING: 0.0625
Info: NONBONDED TABLE SIZE: 705 POINTS
TCL: Setting parameter alchLambda2 to 0.7999999999999998
Info: NONBONDED TABLE R-SQUARED SPACING: 0.0625
Info: NONBONDED TABLE SIZE: 705 POINTS
TCL: Running for 1500000 steps
ETITLE: TS BOND ANGLE DIHED IMPRP ELECT VDW BOUNDARY MISC KINETIC TOTAL TEMP POTENTIAL TOTALAVG TEMPAVG PRESSURE GPRESSURE VOLUME PRESSAVG GPRESSAVG
ENERGY: 0 5.2957 5.8723 2.1710 0.0000 -10480.7346 1399.8839 0.0000 0.0000 1822.9947 -7244.5170 314.5997 -9067.5117 -7244.5170 314.5997 -97.7247 -13.6601 30210.9734 -97.7247 -13.6601
ENERGY: 300000 4.5840 5.7579 5.0301 0.0000 -10515.7668 1338.2927 0.0000 0.0000 1713.5871 -7448.5151 295.7189 -9162.1022 -7357.1772 306.8737 -1047.5881 -908.4990 30198.1772 -25.3405 70.3718
ENERGY: 600000 1.0972 4.5860 3.1175 0.0000 -10574.4296 1431.2734 0.0000 0.0000 1752.0251 -7382.3304 302.3522 -9134.3554 -7374.3168 305.3542 -138.0636 7.1463 30173.4586 -90.6406 -11.7426
ENERGY: 900000 2.2143 5.5284 1.5842 0.0000 -10563.5269 1392.6407 0.0000 0.0000 1699.9923 -7461.5670 293.3728 -9161.5594 -7387.4251 302.7820 -152.3464 -53.9431 29433.0418 -108.4678 -35.1951
ENERGY: 1200000 4.6295 8.1250 4.5003 0.0000 -10555.7106 1390.0895 0.0000 0.0000 1716.9792 -7431.3872 296.3043 -9148.3664 -7382.7092 302.6673 -479.1042 -424.6467 29961.5877 -145.9364 -79.5678
ENERGY: 1500000 5.3144 7.6649 2.5577 0.0000 -10369.0718 1328.7208 0.0000 0.0000 1747.0490 -7277.7649 301.4935 -9024.8139 -7373.7455 302.3849 -730.6414 -650.0728 29899.2425 -113.1819 -46.0004
TCL: Running FEP window   5: Lambda1 0.7999999999999998 Lambda2 0.7499999999999998 [dLambda -0.050000000000000044]
TCL: Setting parameter firsttimestep to 0
TCL: Setting parameter alchLambda to 0.7999999999999998
Info: NONBONDED TABLE R-SQUARED SPACING: 0.0625
Info: NONBONDED TABLE SIZE: 705 POINTS
TCL: Setting parameter alchLambda2 to 0.7499999999999998
Info: NONBONDED TABLE R-SQUARED SPACING: 0.0625
Info: NONBONDED TABLE SIZE: 705 POINTS
TCL: Running for 1500000 steps
ETITLE: TS BOND ANGLE DIHED IMPRP ELECT VDW BOUNDARY MISC KINETIC TOTAL TEMP POTENTIAL TOTALAVG TEMPAVG PRESSURE GPRESSURE VOLUME PRESSAVG GPRESSAVG
ENERGY: 0 5.3144 7.6649 2.5577 0.0000 -10367.7104 1328.7904 0.0000 0.0000 1746.1774 -7277.2057 301.3431 -9023.3830 -7277.2057 301.3431 -750.2944 -657.5931 29899.2425 -750.2944 -657.5931
ENERGY: 300000 1.1906 2.9740 1.2090 0.0000 -10445.0508 1333.3476 0.0000 0.0000 1690.7138 -7415.6158 291.7716 -9106.3295 -7352.2401 297.3133 -722.8412 -650.8271 30098.0415 -313.3819 -230.5569
ENERGY: 600000 3.8778 5.9238 1.3836 0.0000 -10492.7225 1393.5106 0.0000 0.0000 1768.9627 -7319.0641 305.2752 -9088.0268 -7340.9663 300.8208 87.1198 165.3755 29948.2923 -162.1600 -96.8375
ENERGY: 900000 1.4035 5.9224 1.4531 0.0000 -10598.2103 1438.7196 0.0000 0.0000 1719.3684 -7431.3432 296.7166 -9150.7117 -7362.7163 300.6841 286.2779 340.7012 29695.6711 -122.3678 -54.3880
ENERGY: 1200000 2.4399 7.3953 1.5161 0.0000 -10558.1017 1415.0068 0.0000 0.0000 1765.6014 -7366.1423 304.6951 -9131.7437 -7363.6992 300.4350 56.4171 46.3702 29649.0707 9.0443 60.7955
ENERGY: 1500000 3.9543 5.9625 3.0913 0.0000 -10509.2944 1328.8966 0.0000 0.0000 1765.5954 -7401.7943 304.6941 -9167.3897 -7366.5498 300.9968 -876.0007 -853.0859 30164.3789 -95.3689 -46.7153
TCL: Running FEP window   6: Lambda1 0.7499999999999998 Lambda2 0.6999999999999997 [dLambda -0.050000000000000044]
TCL: Setting parameter firsttimestep to 0
TCL: Setting parameter alchLambda to 0.7499999999999998
Info: NONBONDED TABLE R-SQUARED SPACING: 0.0625
Info: NONBONDED TABLE SIZE: 705 POINTS
TCL: Setting parameter alchLambda2 to 0.6999999999999997
Info: NONBONDED TABLE R-SQUARED SPACING: 0.0625
Info: NONBONDED TABLE SIZE: 705 POINTS
TCL: Running for 1500000 steps
ETITLE: TS BOND ANGLE DIHED IMPRP ELECT VDW BOUNDARY MISC KINETIC TOTAL TEMP POTENTIAL TOTALAVG TEMPAVG PRESSURE GPRESSURE VOLUME PRESSAVG GPRESSAVG
ENERGY: 0 3.9543 5.9625 3.0913 0.0000 -10509.0537 1329.5423 0.0000 0.0000 1764.6797 -7401.8236 304.5361 -9166.5033 -7401.8236 304.5361 -939.3330 -853.9323 30164.3789 -939.3330 -853.9323
ENERGY: 300000 1.6675 9.4097 3.1596 0.0000 -10534.9992 1436.0535 0.0000 0.0000 1737.3765 -7347.3324 299.8243 -9084.7089 -7391.8063 301.9025 221.0782 266.9364 29867.9886 -154.6280 -85.7031
ENERGY: 600000 3.5590 5.5427 4.1969 0.0000 -10563.1968 1439.2572 0.0000 0.0000 1741.8792 -7368.7617 300.6013 -9110.6409 -7405.6707 300.7525 410.8578 484.0478 29445.6159 -78.2067 -15.3749
ENERGY: 900000 6.1175 9.0454 2.7427 0.0000 -10617.5319 1481.9323 0.0000 0.0000 1713.4248 -7404.2692 295.6909 -9117.6940 -7398.6117 300.4311 503.1295 528.6003 29913.6631 -108.8731 -44.4268
ENERGY: 1200000 2.1705 4.9809 2.1211 0.0000 -10421.8103 1366.2642 0.0000 0.0000 1724.0641 -7322.2095 297.5269 -9046.2736 -7385.6066 300.6497 -416.9328 -307.0898 30257.5556 -161.3831 -93.9214
ENERGY: 1500000 2.7047 8.4255 5.3637 0.0000 -10663.8328 1494.8848 0.0000 0.0000 1769.8082 -7382.6459 305.4211 -9152.4541 -7385.0992 300.9201 541.2172 574.4137 30162.6602 -162.4776 -99.7202
TCL: Running FEP window   7: Lambda1 0.6999999999999997 Lambda2 0.6499999999999997 [dLambda -0.050000000000000044]
TCL: Setting parameter firsttimestep to 0
TCL: Setting parameter alchLambda to 0.6999999999999997
Info: NONBONDED TABLE R-SQUARED SPACING: 0.0625
Info: NONBONDED TABLE SIZE: 705 POINTS
TCL: Setting parameter alchLambda2 to 0.6499999999999997
Info: NONBONDED TABLE R-SQUARED SPACING: 0.0625
Info: NONBONDED TABLE SIZE: 705 POINTS
TCL: Running for 1500000 steps
ETITLE: TS BOND ANGLE DIHED IMPRP ELECT VDW BOUNDARY MISC KINETIC TOTAL TEMP POTENTIAL TOTALAVG TEMPAVG PRESSURE GPRESSURE VOLUME PRESSAVG GPRESSAVG
ENERGY: 0 2.7047 8.4255 5.3637 0.0000 -10662.9608 1495.0845 0.0000 0.0000 1768.9502 -7382.4322 305.2731 -9151.3824 -7382.4322 305.2731 492.5002 571.3459 30162.6602 492.5002 571.3459
ENERGY: 300000 0.8768 2.9554 3.9159 0.0000 -10445.8255 1387.1315 0.0000 0.0000 1701.9310 -7349.0148 293.7074 -9050.9459 -7360.9238 299.1727 236.9425 297.4857 29610.8777 10.1108 70.7688
ENERGY: 600000 2.7649 5.8633 2.7003 0.0000 -10674.9808 1510.9567 0.0000 0.0000 1759.9441 -7392.7514 303.7188 -9152.6955 -7398.1216 299.3242 914.0272 973.7256 29634.2936 -57.8819 -14.0950
ENERGY: 900000 2.2542 6.3836 2.7152 0.0000 -10602.2686 1419.0570 0.0000 0.0000 1728.9976 -7442.8609 298.3783 -9171.8586 -7398.8139 299.2622 108.4028 115.1778 29943.2283 -12.8810 29.3441
ENERGY: 1200000 2.3816 7.3673 5.4495 0.0000 -10424.1856 1336.8535 0.0000 0.0000 1806.0587 -7266.0750 311.6770 -9072.1337 -7382.7024 299.9877 -645.0090 -572.6946 30075.9463 -48.5706 0.8136
ENERGY: 1500000 1.8204 4.7658 3.2544 0.0000 -10546.7142 1440.1332 0.0000 0.0000 1754.5929 -7342.1475 302.7954 -9096.7405 -7374.9288 301.3192 353.4644 495.0232 29759.2224 9.5569 70.0895
TCL: Running FEP window   8: Lambda1 0.6499999999999997 Lambda2 0.5999999999999996 [dLambda -0.050000000000000044]
TCL: Setting parameter firsttimestep to 0
TCL: Setting parameter alchLambda to 0.6499999999999997
Info: NONBONDED TABLE R-SQUARED SPACING: 0.0625
Info: NONBONDED TABLE SIZE: 705 POINTS
TCL: Setting parameter alchLambda2 to 0.5999999999999996
Info: NONBONDED TABLE R-SQUARED SPACING: 0.0625
Info: NONBONDED TABLE SIZE: 705 POINTS
TCL: Running for 1500000 steps
ETITLE: TS BOND ANGLE DIHED IMPRP ELECT VDW BOUNDARY MISC KINETIC TOTAL TEMP POTENTIAL TOTALAVG TEMPAVG PRESSURE GPRESSURE VOLUME PRESSAVG GPRESSAVG
ENERGY: 0 1.8204 4.7658 3.2544 0.0000 -10546.1833 1439.7106 0.0000 0.0000 1753.7317 -7342.9004 302.6468 -9096.6321 -7342.9004 302.6468 385.1387 481.6795 29759.2224 385.1387 481.6795
ENERGY: 300000 1.6950 10.2648 2.0897 0.0000 -10613.2897 1417.0613 0.0000 0.0000 1774.9481 -7407.2307 306.3081 -9182.1789 -7365.1242 302.4372 -103.8582 -10.9364 29753.8130 -25.0792 46.9254
ENERGY: 600000 2.3395 5.7905 2.4533 0.0000 -10492.8316 1393.4284 0.0000 0.0000 1714.7860 -7374.0340 295.9258 -9088.8200 -7371.2163 299.5908 -317.0797 -262.3787 30210.0628 -17.5981 59.5017
ENERGY: 900000 2.9304 3.8514 4.2867 0.0000 -10708.1913 1490.8876 0.0000 0.0000 1769.0822 -7437.1529 305.2958 -9206.2351 -7388.6314 298.5621 330.9352 504.6139 29650.1487 -132.3314 -49.5420
ENERGY: 1200000 2.0042 4.1324 3.5878 0.0000 -10475.4938 1359.8353 0.0000 0.0000 1680.8691 -7425.0649 290.0726 -9105.9341 -7392.3884 298.3739 -475.9403 -468.3313 30188.5785 -128.3288 -47.3339
ENERGY: 1500000 1.4697 4.2841 1.1702 0.0000 -10462.0936 1399.6620 0.0000 0.0000 1776.3425 -7279.1651 306.5488 -9055.5076 -7381.6736 298.4963 37.4172 145.2364 30172.5790 -134.3910 -54.2577
TCL: Running FEP window   9: Lambda1 0.5999999999999996 Lambda2 0.5499999999999996 [dLambda -0.050000000000000044]
TCL: Setting parameter firsttimestep to 0
TCL: Setting parameter alchLambda to 0.5999999999999996
Info: NONBONDED TABLE R-SQUARED SPACING: 0.0625
Info: NONBONDED TABLE SIZE: 705 POINTS
TCL: Setting parameter alchLambda2 to 0.5499999999999996
Info: NONBONDED TABLE R-SQUARED SPACING: 0.0625
Info: NONBONDED TABLE SIZE: 705 POINTS
TCL: Running for 1500000 steps
ETITLE: TS BOND ANGLE DIHED IMPRP ELECT VDW BOUNDARY MISC KINETIC TOTAL TEMP POTENTIAL TOTALAVG TEMPAVG PRESSURE GPRESSURE VOLUME PRESSAVG GPRESSAVG
ENERGY: 0 1.4697 4.2841 1.1702 0.0000 -10461.7103 1399.8385 0.0000 0.0000 1775.4776 -7279.4702 306.3995 -9054.9478 -7279.4702 306.3995 41.7405 136.8390 30172.5790 41.7405 136.8390
ENERGY: 300000 2.6019 7.4339 1.3947 0.0000 -10592.2354 1414.3230 0.0000 0.0000 1729.9914 -7436.4905 298.5498 -9166.4819 -7343.5017 301.1844 -279.1049 -184.0963 29891.0224 -81.4531 -7.0031
ENERGY: 600000 1.5018 4.1029 1.4312 0.0000 -10463.8440 1373.2977 0.0000 0.0000 1750.3356 -7333.1748 302.0607 -9083.5105 -7363.5579 300.0613 -69.1766 11.5175 29776.3199 32.8951 99.5907
ENERGY: 900000 1.0579 7.1152 3.7336 0.0000 -10599.5059 1395.3193 0.0000 0.0000 1693.8380 -7498.4419 292.3107 -9192.2799 -7367.4619 299.3049 -337.5704 -301.2324 29772.1357 22.9026 84.8477
ENERGY: 1200000 3.2104 4.8470 3.8657 0.0000 -10415.1739 1343.2558 0.0000 0.0000 1739.1244 -7320.8705 300.1259 -9059.9949 -7354.9478 299.9723 -625.0646 -582.1458 30468.0199 43.6847 99.0078
ENERGY: 1500000 4.8953 9.5301 2.5830 0.0000 -10675.7878 1490.6226 0.0000 0.0000 1718.1373 -7450.0194 296.5041 -9168.1568 -7369.5858 299.6233 403.5533 536.1274 29887.7102 -60.2606 -0.1452
TCL: Running FEP window  10: Lambda1 0.5499999999999996 Lambda2 0.4999999999999996 [dLambda -0.04999999999999999]
TCL: Setting parameter firsttimestep to 0
TCL: Setting parameter alchLambda to 0.5499999999999996
Info: NONBONDED TABLE R-SQUARED SPACING: 0.0625
Info: NONBONDED TABLE SIZE: 705 POINTS
TCL: Setting parameter alchLambda2 to 0.4999999999999996
Info: NONBONDED TABLE R-SQUARED SPACING: 0.0625
Info: NONBONDED TABLE SIZE: 705 POINTS
TCL: Running for 1500000 steps
ETITLE: TS BOND ANGLE DIHED IMPRP ELECT VDW BOUNDARY MISC KINETIC TOTAL TEMP POTENTIAL TOTALAVG TEMPAVG PRESSURE GPRESSURE VOLUME PRESSAVG GPRESSAVG
ENERGY: 0 4.8953 9.5301 2.5830 0.0000 -10675.0151 1491.0822 0.0000 0.0000 1717.2830 -7449.6414 296.3567 -9166.9244 -7449.6414 296.3567 438.0113 533.1505 29887.7102 438.0113 533.1505
ENERGY: 300000 2.2235 7.0279 2.8706 0.0000 -10486.6284 1395.3295 0.0000 0.0000 1725.9618 -7353.2150 297.8544 -9079.1768 -7395.6950 300.1758 -137.1102 -62.0306 29717.0271 -234.7563 -178.2892
ENERGY: 600000 0.8366 3.6237 2.8464 0.0000 -10478.3599 1437.9316 0.0000 0.0000 1725.9861 -7307.1354 297.8586 -9033.1215 -7370.1213 299.7117 627.9794 681.9199 29691.3925 -11.8093 39.5727
ENERGY: 900000 2.6262 6.9547 0.3140 0.0000 -10657.2034 1487.1648 0.0000 0.0000 1685.0938 -7475.0499 290.8017 -9160.1437 -7376.0790 299.1136 405.8350 505.9491 29543.9276 -71.4081 -11.1869
ENERGY: 1200000 1.9712 3.6413 3.4311 0.0000 -10478.0272 1416.0580 0.0000 0.0000 1722.3750 -7330.5507 297.2354 -9052.9257 -7372.6992 299.4754 169.0978 202.2406 30103.6364 15.7083 77.0404
ENERGY: 1500000 4.5886 7.6100 1.3591 0.0000 -10604.9886 1480.0452 0.0000 0.0000 1694.3766 -7417.0091 292.4037 -9111.3857 -7376.8305 298.7301 171.7976 234.2204 30066.1046 25.4091 84.1920
TCL: Running FEP window  11: Lambda1 0.4999999999999996 Lambda2 0.4499999999999996 [dLambda -0.04999999999999999]
TCL: Setting parameter firsttimestep to 0
TCL: Setting parameter alchLambda to 0.4999999999999996
Info: NONBONDED TABLE R-SQUARED SPACING: 0.0625
Info: NONBONDED TABLE SIZE: 705 POINTS
TCL: Setting parameter alchLambda2 to 0.4499999999999996
Info: NONBONDED TABLE R-SQUARED SPACING: 0.0625
Info: NONBONDED TABLE SIZE: 705 POINTS
TCL: Running for 1500000 steps
ETITLE: TS BOND ANGLE DIHED IMPRP ELECT VDW BOUNDARY MISC KINETIC TOTAL TEMP POTENTIAL TOTALAVG TEMPAVG PRESSURE GPRESSURE VOLUME PRESSAVG GPRESSAVG
ENERGY: 0 4.5886 7.6100 1.3591 0.0000 -10604.8508 1480.1129 0.0000 0.0000 1693.5251 -7417.6551 292.2567 -9111.1802 -7417.6551 292.2567 151.8586 228.8695 30066.1046 151.8586 228.8695
ENERGY: 300000 3.0917 3.7196 2.7433 0.0000 -10483.1134 1375.8881 0.0000 0.0000 1825.5432 -7272.1275 315.0395 -9097.6707 -7347.2238 306.5734 -255.8159 -174.8144 30158.8914 343.6983 422.7695
ENERGY: 600000 3.2776 5.2228 1.0624 0.0000 -10482.6513 1413.0680 0.0000 0.0000 1715.3461 -7344.6744 296.0224 -9060.0206 -7386.0178 302.1985 -87.8932 -64.9066 30217.8205 239.8424 323.3895
ENERGY: 900000 1.0065 8.5400 2.3566 0.0000 -10645.8683 1428.2812 0.0000 0.0000 1691.7817 -7513.9024 291.9559 -9205.6841 -7374.6864 302.3751 -46.4678 -26.1725 29699.9716 38.7805 115.1504
ENERGY: 1200000 1.1551 6.1262 1.9247 0.0000 -10611.8779 1475.2411 0.0000 0.0000 1744.5227 -7382.9081 301.0575 -9127.4309 -7371.7690 302.4606 463.2181 526.3096 29725.9984 28.3434 108.7024
ENERGY: 1500000 1.7153 4.5905 4.8959 0.0000 -10393.2091 1345.7911 0.0000 0.0000 1735.3009 -7300.9155 299.4661 -9036.2163 -7368.7203 302.1359 -454.3072 -459.1640 30412.4311 26.2297 101.0348
TCL: Running FEP window  12: Lambda1 0.4499999999999996 Lambda2 0.39999999999999963 [dLambda -0.04999999999999999]
TCL: Setting parameter firsttimestep to 0
TCL: Setting parameter alchLambda to 0.4499999999999996
Info: NONBONDED TABLE R-SQUARED SPACING: 0.0625
Info: NONBONDED TABLE SIZE: 705 POINTS
TCL: Setting parameter alchLambda2 to 0.39999999999999963
Info: NONBONDED TABLE R-SQUARED SPACING: 0.0625
Info: NONBONDED TABLE SIZE: 705 POINTS
TCL: Running for 1500000 steps
ETITLE: TS BOND ANGLE DIHED IMPRP ELECT VDW BOUNDARY MISC KINETIC TOTAL TEMP POTENTIAL TOTALAVG TEMPAVG PRESSURE GPRESSURE VOLUME PRESSAVG GPRESSAVG
ENERGY: 0 1.7153 4.5905 4.8959 0.0000 -10393.2086 1344.9285 0.0000 0.0000 1734.4198 -7302.6587 299.3140 -9037.0785 -7302.6587 299.3140 -551.2920 -472.9279 30412.4311 -551.2920 -472.9279
ENERGY: 300000 1.8018 4.8082 3.0928 0.0000 -10566.8270 1452.8495 0.0000 0.0000 1731.3557 -7372.9190 298.7853 -9104.2748 -7319.2335 302.5533 292.7064 365.9768 29933.4463 -252.2133 -183.3653
ENERGY: 600000 1.2293 3.9349 2.8877 0.0000 -10600.4606 1464.3659 0.0000 0.0000 1757.8205 -7370.2223 303.3524 -9128.0428 -7353.7691 300.1398 238.9870 326.1171 30063.2578 -108.7707 -23.1152
ENERGY: 900000 4.2796 4.2764 1.0684 0.0000 -10625.2422 1489.4916 0.0000 0.0000 1807.0404 -7319.0858 311.8464 -9126.1262 -7340.9172 301.6240 609.0206 682.4688 29757.2153 -85.4514 -17.4323
ENERGY: 1200000 4.3769 6.6443 1.5683 0.0000 -10494.5645 1473.2626 0.0000 0.0000 1679.8243 -7328.8881 289.8923 -9008.7124 -7341.8606 300.0728 379.9992 444.6053 30136.2970 34.0316 97.5139
ENERGY: 1500000 2.0858 7.0421 4.8622 0.0000 -10539.1465 1396.3955 0.0000 0.0000 1753.4455 -7375.3153 302.5974 -9128.7608 -7342.4732 300.7820 -386.6913 -318.6688 30440.1838 -74.3712 -10.0717
TCL: Running FEP window  13: Lambda1 0.39999999999999963 Lambda2 0.34999999999999964 [dLambda -0.04999999999999999]
TCL: Setting parameter firsttimestep to 0
TCL: Setting parameter alchLambda to 0.39999999999999963
Info: NONBONDED TABLE R-SQUARED SPACING: 0.0625
Info: NONBONDED TABLE SIZE: 705 POINTS
TCL: Setting parameter alchLambda2 to 0.34999999999999964
Info: NONBONDED TABLE R-SQUARED SPACING: 0.0625
Info: NONBONDED TABLE SIZE: 705 POINTS
TCL: Running for 1500000 steps
ETITLE: TS BOND ANGLE DIHED IMPRP ELECT VDW BOUNDARY MISC KINETIC TOTAL TEMP POTENTIAL TOTALAVG TEMPAVG PRESSURE GPRESSURE VOLUME PRESSAVG GPRESSAVG
ENERGY: 0 2.0858 7.0421 4.8622 0.0000 -10539.1468 1396.2146 0.0000 0.0000 1752.5594 -7376.3826 302.4445 -9128.9421 -7376.3826 302.4445 -413.4616 -325.8432 30440.1838 -413.4616 -325.8432
ENERGY: 300000 0.8855 8.5569 6.4589 0.0000 -10497.0012 1342.6133 0.0000 0.0000 1735.7949 -7402.6918 299.5513 -9138.4866 -7402.8439 299.2170 -621.8666 -559.5609 29842.3826 -455.8848 -374.3047
ENERGY: 600000 3.9311 5.2806 6.0622 0.0000 -10539.7050 1432.3359 0.0000 0.0000 1764.0663 -7328.0289 304.4302 -9092.0953 -7380.4777 301.6233 150.6983 189.2372 29951.0090 -109.2395 -29.3343
ENERGY: 900000 4.6779 6.5116 1.7668 0.0000 -10537.9947 1464.8015 0.0000 0.0000 1736.8225 -7323.4145 299.7287 -9060.2369 -7374.6347 301.0234 175.2809 256.6545 30470.2407 -1.9312 68.3131
ENERGY: 1200000 1.7356 3.5515 2.4085 0.0000 -10611.5916 1445.3601 0.0000 0.0000 1683.8774 -7474.6584 290.5918 -9158.5359 -7380.4561 301.0445 -21.0916 26.6320 29990.9942 21.9611 84.1428
ENERGY: 1500000 3.6094 5.7343 1.6470 0.0000 -10453.8521 1359.5776 0.0000 0.0000 1780.0922 -7303.1915 307.1959 -9083.2837 -7373.2229 301.0756 -537.9293 -483.8386 30472.0484 49.3131 109.8173
TCL: Running FEP window  14: Lambda1 0.34999999999999964 Lambda2 0.29999999999999966 [dLambda -0.04999999999999999]
TCL: Setting parameter firsttimestep to 0
TCL: Setting parameter alchLambda to 0.34999999999999964
Info: NONBONDED TABLE R-SQUARED SPACING: 0.0625
Info: NONBONDED TABLE SIZE: 705 POINTS
TCL: Setting parameter alchLambda2 to 0.29999999999999966
Info: NONBONDED TABLE R-SQUARED SPACING: 0.0625
Info: NONBONDED TABLE SIZE: 705 POINTS
TCL: Running for 1500000 steps
ETITLE: TS BOND ANGLE DIHED IMPRP ELECT VDW BOUNDARY MISC KINETIC TOTAL TEMP POTENTIAL TOTALAVG TEMPAVG PRESSURE GPRESSURE VOLUME PRESSAVG GPRESSAVG
ENERGY: 0 3.6094 5.7343 1.6470 0.0000 -10453.8521 1359.9268 0.0000 0.0000 1779.2480 -7303.6866 307.0502 -9082.9346 -7303.6866 307.0502 -549.5907 -484.8751 30472.0484 -549.5907 -484.8751
ENERGY: 300000 2.1284 4.2609 3.5939 0.0000 -10589.1229 1434.6031 0.0000 0.0000 1688.2429 -7456.2938 291.3452 -9144.5367 -7391.3112 300.8790 109.3865 142.9082 29530.3853 -241.6731 -190.5222
ENERGY: 600000 2.6070 7.3655 2.2189 0.0000 -10493.8615 1425.4550 0.0000 0.0000 1694.1831 -7362.0319 292.3703 -9056.2150 -7378.6253 300.5700 -57.1442 29.4449 30237.0371 -272.5584 -213.3558
ENERGY: 900000 1.8562 5.8036 1.7434 0.0000 -10607.9079 1417.7032 0.0000 0.0000 1731.9196 -7448.8820 298.8826 -9180.8016 -7384.3214 299.9445 -375.2245 -339.8347 30216.2021 -171.6488 -127.5235
ENERGY: 1200000 4.9497 4.6477 1.3744 0.0000 -10378.3972 1323.0507 0.0000 0.0000 1719.8396 -7324.5351 296.7979 -9044.3746 -7377.8574 300.0231 -703.7360 -665.1864 29981.9859 -118.9790 -74.1068
ENERGY: 1500000 3.4513 5.7592 2.3940 0.0000 -10556.8294 1399.2513 0.0000 0.0000 1724.3760 -7421.5976 297.5807 -9145.9736 -7378.4165 299.8932 -347.0049 -296.7179 29725.8975 -165.9917 -117.8763
TCL: Running FEP window  15: Lambda1 0.29999999999999966 Lambda2 0.24999999999999967 [dLambda -0.04999999999999999]
TCL: Setting parameter firsttimestep to 0
TCL: Setting parameter alchLambda to 0.29999999999999966
Info: NONBONDED TABLE R-SQUARED SPACING: 0.0625
Info: NONBONDED TABLE SIZE: 705 POINTS
TCL: Setting parameter alchLambda2 to 0.24999999999999967
Info: NONBONDED TABLE R-SQUARED SPACING: 0.0625
Info: NONBONDED TABLE SIZE: 705 POINTS
TCL: Running for 1500000 steps
ETITLE: TS BOND ANGLE DIHED IMPRP ELECT VDW BOUNDARY MISC KINETIC TOTAL TEMP POTENTIAL TOTALAVG TEMPAVG PRESSURE GPRESSURE VOLUME PRESSAVG GPRESSAVG
ENERGY: 0 3.4513 5.7592 2.3940 0.0000 -10556.8299 1399.3071 0.0000 0.0000 1723.5253 -7422.3930 297.4340 -9145.9183 -7422.3930 297.4340 -392.1415 -301.5452 29725.8975 -392.1415 -301.5452
ENERGY: 300000 5.6582 3.3955 2.6714 0.0000 -10390.5649 1377.0711 0.0000 0.0000 1783.1792 -7218.5895 307.7286 -9001.7687 -7334.5748 300.8652 -358.0436 -336.5448 30281.7615 -445.0806 -398.3269
ENERGY: 600000 3.8693 3.6714 2.3579 0.0000 -10429.3917 1392.7648 0.0000 0.0000 1735.7209 -7291.0072 299.5386 -9026.7281 -7349.9781 299.9803 -116.6966 -14.9249 29873.9392 -402.3100 -346.1188
ENERGY: 900000 3.0534 3.7868 2.1244 0.0000 -10440.8701 1408.9210 0.0000 0.0000 1742.8382 -7280.1463 300.7668 -9022.9845 -7344.2470 300.3462 -169.2278 -66.9050 30298.4033 -316.6982 -250.1436
ENERGY: 1200000 2.9384 6.2484 4.3239 0.0000 -10456.0420 1406.9546 0.0000 0.0000 1702.9941 -7332.5827 293.8908 -9035.5768 -7341.8127 299.5763 -152.9826 -81.2920 30170.3115 -328.9198 -265.3396
ENERGY: 1500000 4.0373 7.5065 2.4016 0.0000 -10506.2792 1425.0484 0.0000 0.0000 1791.4585 -7275.8269 309.1574 -9067.2854 -7341.5128 299.8480 165.5208 157.1804 29841.6596 -323.3088 -264.7718
TCL: Running FEP window  16: Lambda1 0.24999999999999967 Lambda2 0.19999999999999968 [dLambda -0.04999999999999999]
TCL: Setting parameter firsttimestep to 0
TCL: Setting parameter alchLambda to 0.24999999999999967
Info: NONBONDED TABLE R-SQUARED SPACING: 0.0625
Info: NONBONDED TABLE SIZE: 705 POINTS
TCL: Setting parameter alchLambda2 to 0.19999999999999968
Info: NONBONDED TABLE R-SQUARED SPACING: 0.0625
Info: NONBONDED TABLE SIZE: 705 POINTS
TCL: Running for 1500000 steps
ETITLE: TS BOND ANGLE DIHED IMPRP ELECT VDW BOUNDARY MISC KINETIC TOTAL TEMP POTENTIAL TOTALAVG TEMPAVG PRESSURE GPRESSURE VOLUME PRESSAVG GPRESSAVG
ENERGY: 0 4.0374 7.5065 2.4017 0.0000 -10506.2806 1425.4236 0.0000 0.0000 1790.5726 -7276.3389 309.0045 -9066.9115 -7276.3389 309.0045 72.3930 155.9877 29841.6596 72.3930 155.9877
ENERGY: 300000 1.0422 3.7313 2.5618 0.0000 -10745.5813 1607.1012 0.0000 0.0000 1735.6723 -7395.4725 299.5302 -9131.1448 -7349.0623 302.2892 1423.1961 1461.1409 29772.8411 223.8553 273.9753
ENERGY: 600000 2.9451 5.4926 3.4092 0.0000 -10582.7396 1462.9475 0.0000 0.0000 1746.6493 -7361.2960 301.4245 -9107.9452 -7347.3856 301.3782 288.9726 293.5860 29997.0532 162.2820 200.0506
ENERGY: 900000 2.3015 8.0634 3.6859 0.0000 -10555.6828 1402.2102 0.0000 0.0000 1689.8251 -7449.5967 291.6182 -9139.4218 -7384.5647 299.2246 -197.4345 -157.7813 29590.0782 143.3182 189.2824
ENERGY: 1200000 2.4540 3.9328 3.1107 0.0000 -10625.4973 1507.0383 0.0000 0.0000 1741.9058 -7367.0558 300.6059 -9108.9615 -7386.2248 299.4353 794.5267 839.9912 29830.0563 217.4305 266.9080
ENERGY: 1500000 3.1177 4.5054 2.6638 0.0000 -10497.8996 1372.7430 0.0000 0.0000 1707.5767 -7407.2930 294.6816 -9114.8697 -7383.0996 299.4364 -408.9384 -311.0925 29984.3974 153.6346 208.2006
TCL: Running FEP window  17: Lambda1 0.19999999999999968 Lambda2 0.1499999999999997 [dLambda -0.04999999999999999]
TCL: Setting parameter firsttimestep to 0
TCL: Setting parameter alchLambda to 0.19999999999999968
Info: NONBONDED TABLE R-SQUARED SPACING: 0.0625
Info: NONBONDED TABLE SIZE: 705 POINTS
TCL: Setting parameter alchLambda2 to 0.1499999999999997
Info: NONBONDED TABLE R-SQUARED SPACING: 0.0625
Info: NONBONDED TABLE SIZE: 705 POINTS
TCL: Running for 1500000 steps
ETITLE: TS BOND ANGLE DIHED IMPRP ELECT VDW BOUNDARY MISC KINETIC TOTAL TEMP POTENTIAL TOTALAVG TEMPAVG PRESSURE GPRESSURE VOLUME PRESSAVG GPRESSAVG
ENERGY: 0 3.1177 4.5054 2.6638 0.0000 -10497.9002 1373.0708 0.0000 0.0000 1706.7185 -7407.8240 294.5335 -9114.5425 -7407.8240 294.5335 -396.3999 -313.9858 29984.3974 -396.3999 -313.9858
ENERGY: 300000 3.0372 7.2036 3.9658 0.0000 -10468.7282 1364.3383 0.0000 0.0000 1798.0042 -7292.1791 310.2870 -9090.1834 -7368.7352 299.6903 -535.0271 -409.7229 29948.0991 -306.5278 -217.3196
ENERGY: 600000 1.8575 6.0555 2.9855 0.0000 -10505.6459 1460.9054 0.0000 0.0000 1715.3203 -7318.5217 296.0180 -9033.8420 -7372.7293 298.7805 435.4616 535.3320 29614.7756 -136.9495 -57.3365
ENERGY: 900000 1.4574 4.2815 1.1461 0.0000 -10455.2785 1360.6480 0.0000 0.0000 1741.0397 -7346.7059 300.4565 -9087.7456 -7361.2586 300.0094 -308.0139 -389.9450 30374.8257 -93.6623 -37.8173
ENERGY: 1200000 1.3763 3.3893 2.9853 0.0000 -10470.4384 1348.7583 0.0000 0.0000 1720.2474 -7393.6817 296.8683 -9113.9290 -7369.0269 300.1794 -753.7112 -704.4294 30170.3256 -188.4099 -133.4943
ENERGY: 1500000 3.5481 4.5300 2.8510 0.0000 -10556.8025 1421.9979 0.0000 0.0000 1754.6691 -7369.2064 302.8085 -9123.8755 -7372.9029 300.0786 -24.8104 42.9850 29824.7629 -135.7393 -79.3157
TCL: Running FEP window  18: Lambda1 0.1499999999999997 Lambda2 0.09999999999999969 [dLambda -0.05 ]
TCL: Setting parameter firsttimestep to 0
TCL: Setting parameter alchLambda to 0.1499999999999997
Info: NONBONDED TABLE R-SQUARED SPACING: 0.0625
Info: NONBONDED TABLE SIZE: 705 POINTS
TCL: Setting parameter alchLambda2 to 0.09999999999999969
Info: NONBONDED TABLE R-SQUARED SPACING: 0.0625
Info: NONBONDED TABLE SIZE: 705 POINTS
TCL: Running for 1500000 steps
ETITLE: TS BOND ANGLE DIHED IMPRP ELECT VDW BOUNDARY MISC KINETIC TOTAL TEMP POTENTIAL TOTALAVG TEMPAVG PRESSURE GPRESSURE VOLUME PRESSAVG GPRESSAVG
ENERGY: 0 3.5481 4.5300 2.8510 0.0000 -10556.8026 1421.9544 0.0000 0.0000 1753.7839 -7370.1352 302.6558 -9123.9191 -7370.1352 302.6558 -37.5942 40.0704 29824.7629 -37.5942 40.0704
ENERGY: 300000 4.3944 5.7889 2.5466 0.0000 -10665.2360 1548.1485 0.0000 0.0000 1793.5588 -7310.7987 309.5198 -9104.3575 -7365.1626 301.8697 1008.5784 1056.4498 29797.7636 -75.5207 -2.3952
ENERGY: 600000 3.9408 7.0783 3.0830 0.0000 -10482.3993 1387.8450 0.0000 0.0000 1729.9102 -7350.5419 298.5358 -9080.4521 -7375.9289 301.2582 74.0890 122.2665 29351.8267 16.1086 84.0034
ENERGY: 900000 0.7306 4.7596 2.4359 0.0000 -10473.3186 1412.9474 0.0000 0.0000 1644.5498 -7407.8953 283.8049 -9052.4451 -7386.0169 300.2100 72.9779 134.7992 29957.0298 56.1079 119.4205
ENERGY: 1200000 1.8836 3.2145 2.6259 0.0000 -10665.3985 1528.3107 0.0000 0.0000 1824.5557 -7304.8083 314.8691 -9129.3639 -7377.2791 301.1494 341.4832 453.5404 30361.2758 68.4172 138.3946
ENERGY: 1500000 2.2376 4.6652 4.0450 0.0000 -10594.9614 1438.6305 0.0000 0.0000 1713.5880 -7431.7951 295.7190 -9145.3831 -7378.5773 300.1759 -36.5942 -17.9866 29956.0210 39.5510 103.0850
TCL: Running FEP window  19: Lambda1 0.09999999999999969 Lambda2 0.049999999999999684 [dLambda -0.05 ]
TCL: Setting parameter firsttimestep to 0
TCL: Setting parameter alchLambda to 0.09999999999999969
Info: NONBONDED TABLE R-SQUARED SPACING: 0.0625
Info: NONBONDED TABLE SIZE: 705 POINTS
TCL: Setting parameter alchLambda2 to 0.049999999999999684
Info: NONBONDED TABLE R-SQUARED SPACING: 0.0625
Info: NONBONDED TABLE SIZE: 705 POINTS
TCL: Running for 1500000 steps
ETITLE: TS BOND ANGLE DIHED IMPRP ELECT VDW BOUNDARY MISC KINETIC TOTAL TEMP POTENTIAL TOTALAVG TEMPAVG PRESSURE GPRESSURE VOLUME PRESSAVG GPRESSAVG
ENERGY: 0 2.2376 4.6652 4.0450 0.0000 -10594.9626 1438.3793 0.0000 0.0000 1712.7648 -7432.8707 295.5770 -9145.6355 -7432.8707 295.5770 -95.2875 -23.2942 29956.0210 -95.2875 -23.2942
ENERGY: 300000 3.3488 5.2592 1.1829 0.0000 -10447.6102 1349.1424 0.0000 0.0000 1730.4800 -7358.1970 298.6341 -9088.6770 -7408.5118 294.7541 -554.4606 -563.1015 30040.6245 -210.2888 -174.1010
ENERGY: 600000 2.3645 5.6763 5.0673 0.0000 -10432.6001 1334.6143 0.0000 0.0000 1739.9255 -7344.9522 300.2642 -9084.8777 -7394.4243 298.0034 -666.8394 -608.5608 30029.6845 -190.8873 -141.5269
ENERGY: 900000 6.6597 7.3635 3.1876 0.0000 -10684.8699 1522.7719 0.0000 0.0000 1711.2606 -7433.6265 295.3174 -9144.8872 -7390.3043 297.9739 354.3396 473.9673 29778.6727 -72.4354 -12.1550
ENERGY: 1200000 0.6231 4.1995 2.5885 0.0000 -10461.1104 1447.3738 0.0000 0.0000 1795.6684 -7210.6571 309.8839 -9006.3255 -7365.3196 300.0262 267.2358 338.3787 30411.4464 21.1574 83.4721
ENERGY: 1500000 1.8767 5.7515 2.3215 0.0000 -10611.2941 1475.8836 0.0000 0.0000 1735.9641 -7389.4967 299.5805 -9125.4608 -7367.0162 299.9019 474.0150 483.8814 29713.3758 19.8153 79.7795
TCL: Running FEP window  20: Lambda1 0.049999999999999684 Lambda2 0.0    [dLambda -0.049999999999999684]
TCL: Setting parameter firsttimestep to 0
TCL: Setting parameter alchLambda to 0.049999999999999684
Info: NONBONDED TABLE R-SQUARED SPACING: 0.0625
Info: NONBONDED TABLE SIZE: 705 POINTS
TCL: Setting parameter alchLambda2 to 0.0
Info: NONBONDED TABLE R-SQUARED SPACING: 0.0625
Info: NONBONDED TABLE SIZE: 705 POINTS
TCL: Running for 1500000 steps
ETITLE: TS BOND ANGLE DIHED IMPRP ELECT VDW BOUNDARY MISC KINETIC TOTAL TEMP POTENTIAL TOTALAVG TEMPAVG PRESSURE GPRESSURE VOLUME PRESSAVG GPRESSAVG
ENERGY: 0 1.8767 5.7515 2.3215 0.0000 -10611.2937 1474.8935 0.0000 0.0000 1735.0992 -7391.3514 299.4313 -9126.4506 -7391.3514 299.4313 393.5935 481.2164 29713.3758 393.5935 481.2164
ENERGY: 300000 2.2246 5.3684 2.8745 0.0000 -10580.0054 1415.8737 0.0000 0.0000 1736.4309 -7417.2332 299.6611 -9153.6642 -7397.4451 300.2238 -354.8484 -279.9542 30279.6910 164.0999 216.0820
ENERGY: 600000 1.7327 5.1424 4.5662 0.0000 -10535.3545 1390.7720 0.0000 0.0000 1697.2986 -7435.8426 292.9079 -9133.1412 -7408.6419 298.5027 -429.1366 -397.8559 30200.6315 44.7065 90.5834
ENERGY: 900000 1.2758 5.4750 1.9206 0.0000 -10499.6376 1448.7836 0.0000 0.0000 1753.1634 -7289.0192 302.5487 -9042.1826 -7391.9500 300.3291 390.3571 460.8106 29988.6807 121.5721 178.1053
ENERGY: 1200000 3.3179 6.9783 0.8018 0.0000 -10551.7086 1415.8062 0.0000 0.0000 1766.6093 -7358.1950 304.8691 -9124.8043 -7377.3041 300.8269 -203.6698 -118.2267 29909.5709 44.8211 104.4684
ENERGY: 1500000 5.1128 6.3220 1.6569 0.0000 -10433.7242 1318.2626 0.0000 0.0000 1709.5053 -7392.8647 295.0145 -9102.3699 -7370.8875 301.1696 -1009.7653 -909.9845 29886.7228 -81.1061 -21.7656
TCL: Exiting due to exit command.
