Info: SIMULATION PARAMETERS:
Info: TIMESTEP               2
Info: NUMBER OF STEPS        0
Info: STEPS PER CYCLE        10
Info: PERIODIC CELL BASIS 1  30.8459 0 0
Info: PERIODIC CELL BASIS 2  0 31.545 0
Info: PERIODIC CELL BASIS 3  0 0 30.8177
Info: PERIODIC CELL CENTER   0 0 0
Info: WRAPPING WATERS AROUND PERIODIC BOUNDARIES ON OUTPUT.
Info: WRAPPING ALL CLUSTERS AROUND PERIODIC BOUNDARIES ON OUTPUT.
Info: FIRST LDB TIMESTEP     50
Info: LAST LDB TIMESTEP     -1
Info: HOM BACKGROUND SCALING 1
Info: PME BACKGROUND SCALING 1
Info: MIN ATOMS PER PATCH    40
Info: EMPTY PATCH LOAD       40 ATOMS
Info: VELOCITY FILE          mobley_550662_equil.vel
Info: CENTER OF MASS MOVING INITIALLY? NO
Info: DIELECTRIC             1
Info: EXCLUDE                SCALED ONE-FOUR
Info: 1-4 ELECTROSTATICS SCALED BY 0.833333
Info: MODIFIED 1-4 VDW PARAMETERS WILL BE USED
Info: DCD FILENAME           mobley_550662_prod.dcd
Info: DCD FREQUENCY          100000
Info: DCD FIRST STEP         100000
Info: DCD FILE WILL CONTAIN UNIT CELL DATA
Info: XST FILENAME           mobley_550662_prod.xst
Info: XST FREQUENCY          100000
Info: NO VELOCITY DCD OUTPUT
Info: NO FORCE DCD OUTPUT
Info: OUTPUT FILENAME        mobley_550662_prod
Info: BINARY OUTPUT FILES WILL BE USED
Info: RESTART FILENAME       mobley_550662_prod.restart
Info: RESTART FREQUENCY      100000
Info: BINARY RESTART FILES WILL BE USED
Info: CUTOFF                 9
Info: PAIRLIST DISTANCE      11
Info: PAIRLIST SHRINK RATE   0.01
Info: PAIRLIST GROW RATE     0.01
Info: PAIRLIST TRIGGER       0.3
Info: PAIRLISTS PER CYCLE    2
Info: PAIRLISTS ENABLED
Info: MARGIN                 2
Info: HYDROGEN GROUP CUTOFF  2.5
Info: PATCH DIMENSION        15.5
Info: ENERGY OUTPUT STEPS    100000
Info: ENERGY EVALUATION STEPS    100000
Info: OUTPUT ENERGY PRECISION 4
Info: CROSSTERM ENERGY INCLUDED IN DIHEDRAL
Info: TIMING OUTPUT STEPS    1000000
Info: PRESSURE OUTPUT STEPS  100000
Info: ALCHEMICAL FEP ON
Info: FEP CURRENT LAMBDA VALUE     1
Info: FEP COMPARISON LAMBDA VALUE  0.95
Info: FEP INTRA-ALCHEMICAL NON-BONDED INTERACTIONS WILL BE RETAINED
Info: FEP INTRA-ALCHEMICAL BONDED INTERACTIONS WILL BE RETAINED
Info: FEP VDW SHIFTING COEFFICIENT 5
Info: FEP ELEC. ACTIVE FOR ANNIHILATED PARTICLES BETWEEN LAMBDA = 0 AND LAMBDA = 0.5
Info: FEP ELEC. ACTIVE FOR EXNIHILATED PARTICLES BETWEEN LAMBDA = 0.5 AND LAMBDA = 1
Info: FEP VDW ACTIVE FOR ANNIHILATED PARTICLES BETWEEN LAMBDA = 0 AND LAMBDA = 1
Info: FEP VDW ACTIVE FOR EXNIHILATED PARTICLES BETWEEN LAMBDA = 0 AND LAMBDA = 1
Info: FEP BOND ACTIVE FOR ANNIHILATED PARTICLES BETWEEN LAMBDA = 1 AND LAMBDA = 1
Info: FEP BOND ACTIVE FOR EXNIHILATED PARTICLES BETWEEN LAMBDA = 0 AND LAMBDA = 0
Info: LANGEVIN DYNAMICS ACTIVE
Info: LANGEVIN TEMPERATURE   300
Info: LANGEVIN USING BBK INTEGRATOR
Info: LANGEVIN DAMPING COEFFICIENT IS 1 INVERSE PS
Info: LANGEVIN DYNAMICS APPLIED TO HYDROGENS
Info: LANGEVIN PISTON PRESSURE CONTROL ACTIVE
Info:        TARGET PRESSURE IS 1.01325 BAR
Info:     OSCILLATION PERIOD IS 50 FS
Info:             DECAY TIME IS 25 FS
Info:     PISTON TEMPERATURE IS 300 K
Info:       PRESSURE CONTROL IS GROUP-BASED
Info:    INITIAL STRAIN RATE IS 0.00061499 0.00061499 0.00061499
Info:       CELL FLUCTUATION IS ISOTROPIC
Info: PARTICLE MESH EWALD (PME) ACTIVE
Info: PME TOLERANCE               1e-06
Info: PME EWALD COEFFICIENT       0.348832
Info: PME INTERPOLATION ORDER     4
Info: PME GRID DIMENSIONS         32 32 32
Info: PME MAXIMUM GRID SPACING    1
Info: PME CALCULATION WILL BE PERFORMED ON GPU
Info: FULL ELECTROSTATIC EVALUATION FREQUENCY      2
Info: USING VERLET I (r-RESPA) MTS SCHEME.
Info: C1 SPLITTING OF LONG RANGE ELECTROSTATICS
Info: PLACING ATOMS IN PATCHES BY HYDROGEN GROUPS
Info: RIGID BONDS TO HYDROGEN : ALL
Info:         ERROR TOLERANCE : 1e-08
Info:          MAX ITERATIONS : 100
Info: RIGID WATER USING SETTLE ALGORITHM
Info: RANDOM NUMBER SEED     1743928028
Info: USE HYDROGEN BONDS?    NO
Info: Using AMBER format force field!
Info: AMBER PARM FILE        mobley_550662.prmtop
Info: COORDINATE PDB         mobley_550662.pdb
Info: Exclusions will be read from PARM file!
Info: SCNB (VDW SCALING)     2
Info: USING ARITHMETIC MEAN TO COMBINE L-J SIGMA PARAMETERS
Info: BINARY COORDINATES     mobley_550662_equil.coor
Info: SUMMARY OF PARAMETERS:
Info: 6 BONDS
Info: 7 ANGLES
Info:   7 HARMONIC
Info:   0 COSINE-BASED
Info: 8 DIHEDRAL
Info: 0 IMPROPER
Info: 0 CROSSTERM
Info: 0 VDW
Info: 21 VDW_PAIRS
Info: 0 NBTHOLE_PAIRS
Info: To read alchdata from file: mobley_550662.pdb
Info: To read alchflag data from column: 5
Info: STRUCTURE SUMMARY:
Info: 2915 ATOMS
Info: 2914 BONDS
Info: 33 ANGLES
Info: 51 DIHEDRALS
Info: 0 IMPROPERS
Info: 0 CROSSTERMS
Info: 2974 EXCLUSIONS
Info: 2907 RIGID BONDS
Info: ALCH: 0 ATOMS TO DISAPPEAR IN FINAL STATE
Info: ALCH: 20 ATOMS TO APPEAR IN FINAL STATE
Info: 5838 DEGREES OF FREEDOM
Info: 973 HYDROGEN GROUPS
Info: 4 ATOMS IN LARGEST HYDROGEN GROUP
Info: 973 MIGRATION GROUPS
Info: 4 ATOMS IN LARGEST MIGRATION GROUP
Info: TOTAL MASS = 17505.6 amu
Info: TOTAL CHARGE = 0.000500083 e
Info: MASS DENSITY = 0.969411 g/cm^3
Info: ATOM DENSITY = 0.0972099 atoms/A^3
Info: ADDED 0 IMPLICIT EXCLUSIONS
Info: NONBONDED TABLE R-SQUARED SPACING: 0.0625
Info: NONBONDED TABLE SIZE: 705 POINTS
Info: REMOVING COM VELOCITY -0.148039 -0.121384 0.0469422
Info: Use 3D box decompostion in PME FFT.
Info: Updated CUDA force table with 4096 elements.
Info: Updated CUDA LJ table with 6 x 6 elements.
Info: Found 23 unique exclusion lists needing 60 bytes
TCL: Running for 1500000 steps
ETITLE: TS BOND ANGLE DIHED IMPRP ELECT VDW BOUNDARY MISC KINETIC TOTAL TEMP POTENTIAL TOTALAVG TEMPAVG PRESSURE GPRESSURE VOLUME PRESSAVG GPRESSAVG
ENERGY: 0 4.6721 8.0124 16.0563 0.0000 -10518.0636 1299.3792 0.0000 0.0000 1749.9640 -7439.9796 301.6862 -9189.9436 -7439.9796 301.6862 -1049.2468 -961.8285 29986.6603 -1049.2468 -961.8285
ENERGY: 300000 3.7379 6.1301 17.2464 0.0000 -10510.7746 1399.1180 0.0000 0.0000 1750.2026 -7334.3396 301.7273 -9084.5422 -7415.4926 302.7459 -67.0705 -7.9876 30256.7089 -439.4893 -383.6973
ENERGY: 600000 2.4960 12.1328 17.3273 0.0000 -10670.7950 1443.8729 0.0000 0.0000 1723.9237 -7471.0423 297.1969 -9194.9660 -7421.0702 300.0718 267.7948 325.4831 29663.8915 -121.3268 -76.8472
ENERGY: 900000 3.7100 9.5065 16.6148 0.0000 -10627.8128 1475.9828 0.0000 0.0000 1772.0851 -7349.9136 305.4998 -9121.9987 -7406.3726 300.9119 781.7867 831.9752 29726.2739 -70.2176 -22.4748
ENERGY: 1200000 2.7139 10.2156 16.6385 0.0000 -10632.3928 1417.0243 0.0000 0.0000 1710.9314 -7474.8692 294.9571 -9185.8006 -7415.5493 300.5559 -146.9848 -137.7986 29827.6663 -226.6448 -178.7738
ENERGY: 1500000 0.9288 10.4503 17.5443 0.0000 -10569.7051 1395.3256 0.0000 0.0000 1726.4408 -7419.0153 297.6309 -9145.4561 -7427.1037 299.3040 -212.2291 -82.2336 29904.0219 -204.0709 -146.4327
TCL: Running FEP window   2: Lambda1 0.95   Lambda2 0.8999999999999999 [dLambda -0.050000000000000044]
TCL: Setting parameter firsttimestep to 0
TCL: Setting parameter alchLambda to 0.95
Info: NONBONDED TABLE R-SQUARED SPACING: 0.0625
Info: NONBONDED TABLE SIZE: 705 POINTS
TCL: Setting parameter alchLambda2 to 0.8999999999999999
Info: NONBONDED TABLE R-SQUARED SPACING: 0.0625
Info: NONBONDED TABLE SIZE: 705 POINTS
TCL: Running for 1500000 steps
ETITLE: TS BOND ANGLE DIHED IMPRP ELECT VDW BOUNDARY MISC KINETIC TOTAL TEMP POTENTIAL TOTALAVG TEMPAVG PRESSURE GPRESSURE VOLUME PRESSAVG GPRESSAVG
ENERGY: 0 0.9288 10.4503 17.5443 0.0000 -10568.0433 1393.7446 0.0000 0.0000 1725.6269 -7419.7483 297.4906 -9145.3752 -7419.7483 297.4906 -200.3443 -117.1229 29904.0219 -200.3443 -117.1229
ENERGY: 300000 1.6983 6.6644 15.3602 0.0000 -10484.4057 1340.2608 0.0000 0.0000 1782.6513 -7337.7708 307.3213 -9120.4221 -7391.6817 300.0735 -462.0969 -363.3458 29795.8092 -276.0680 -220.2810
ENERGY: 600000 3.4577 12.9271 16.1791 0.0000 -10620.1616 1437.3864 0.0000 0.0000 1749.2990 -7400.9123 301.5715 -9150.2112 -7393.4762 300.5075 363.4720 420.6172 29762.1619 -258.7739 -212.9773
ENERGY: 900000 4.3584 11.9292 16.5004 0.0000 -10631.3483 1413.3427 0.0000 0.0000 1773.2740 -7411.9437 305.7047 -9185.2177 -7397.5784 301.4629 -150.6695 -122.6751 30116.4853 -83.0235 -35.1781
ENERGY: 1200000 1.1021 7.4847 16.6246 0.0000 -10595.1505 1434.9009 0.0000 0.0000 1755.8737 -7379.1645 302.7050 -9135.0382 -7401.2664 301.4262 82.9771 141.5681 30198.9886 -105.8120 -55.2604
ENERGY: 1500000 1.6919 9.1761 16.7548 0.0000 -10678.1207 1470.0061 0.0000 0.0000 1730.0258 -7450.4660 298.2489 -9180.4918 -7400.2046 301.2928 580.0719 620.9830 29538.0931 1.6628 55.3368
TCL: Running FEP window   3: Lambda1 0.8999999999999999 Lambda2 0.8499999999999999 [dLambda -0.050000000000000044]
TCL: Setting parameter firsttimestep to 0
TCL: Setting parameter alchLambda to 0.8999999999999999
Info: NONBONDED TABLE R-SQUARED SPACING: 0.0625
Info: NONBONDED TABLE SIZE: 705 POINTS
TCL: Setting parameter alchLambda2 to 0.8499999999999999
Info: NONBONDED TABLE R-SQUARED SPACING: 0.0625
Info: NONBONDED TABLE SIZE: 705 POINTS
TCL: Running for 1500000 steps
ETITLE: TS BOND ANGLE DIHED IMPRP ELECT VDW BOUNDARY MISC KINETIC TOTAL TEMP POTENTIAL TOTALAVG TEMPAVG PRESSURE GPRESSURE VOLUME PRESSAVG GPRESSAVG
ENERGY: 0 1.6919 9.1761 16.7548 0.0000 -10676.1707 1469.1384 0.0000 0.0000 1729.1470 -7450.2626 298.0974 -9179.4096 -7450.2626 298.0974 515.4353 599.4444 29538.0931 515.4353 599.4444
ENERGY: 300000 1.1881 13.6720 15.4029 0.0000 -10590.5678 1431.0460 0.0000 0.0000 1737.4729 -7391.7858 299.5328 -9129.2587 -7462.1954 296.2138 217.5944 247.4816 30238.2263 537.2799 620.6897
ENERGY: 600000 3.1209 10.3900 16.2152 0.0000 -10567.9307 1305.1381 0.0000 0.0000 1717.4398 -7515.6267 296.0791 -9233.0666 -7462.7634 297.2010 -1227.6784 -1130.4301 29885.4543 177.4782 257.1595
ENERGY: 900000 2.7004 13.9268 19.0999 0.0000 -10654.2326 1414.3725 0.0000 0.0000 1758.8705 -7445.2624 303.2216 -9204.1330 -7452.2966 297.8360 -198.2813 -115.2668 29895.4248 126.8198 199.9406
ENERGY: 1200000 1.2053 7.7409 16.0987 0.0000 -10562.8844 1425.4141 0.0000 0.0000 1727.8398 -7384.5857 297.8721 -9112.4254 -7438.6448 298.8432 98.2738 135.1431 30194.1283 120.3308 185.7096
ENERGY: 1500000 1.1470 10.8654 15.1796 0.0000 -10537.9324 1408.3283 0.0000 0.0000 1817.8698 -7284.5423 313.3928 -9102.4121 -7433.4545 299.1567 2.0296 -15.3298 30411.9647 117.6520 179.1578
TCL: Running FEP window   4: Lambda1 0.8499999999999999 Lambda2 0.7999999999999998 [dLambda -0.050000000000000044]
TCL: Setting parameter firsttimestep to 0
TCL: Setting parameter alchLambda to 0.8499999999999999
Info: NONBONDED TABLE R-SQUARED SPACING: 0.0625
Info: NONBONDED TABLE SIZE: 705 POINTS
TCL: Setting parameter alchLambda2 to 0.7999999999999998
Info: NONBONDED TABLE R-SQUARED SPACING: 0.0625
Info: NONBONDED TABLE SIZE: 705 POINTS
TCL: Running for 1500000 steps
ETITLE: TS BOND ANGLE DIHED IMPRP ELECT VDW BOUNDARY MISC KINETIC TOTAL TEMP POTENTIAL TOTALAVG TEMPAVG PRESSURE GPRESSURE VOLUME PRESSAVG GPRESSAVG
ENERGY: 0 1.1470 10.8654 15.1796 0.0000 -10536.8010 1408.1138 0.0000 0.0000 1816.9530 -7284.5423 313.2348 -9101.4953 -7284.5423 313.2348 -110.2483 -28.2607 30411.9647 -110.2483 -28.2607
ENERGY: 300000 1.9343 9.0157 16.2873 0.0000 -10616.3385 1392.4925 0.0000 0.0000 1717.4641 -7479.1445 296.0833 -9196.6087 -7404.4021 302.4876 -420.6348 -342.7090 30239.7006 -273.8984 -190.8316
ENERGY: 600000 1.8288 14.4838 16.2319 0.0000 -10707.6010 1489.1792 0.0000 0.0000 1810.4469 -7375.4304 312.1132 -9185.8773 -7389.4400 302.9623 367.4806 316.9578 30230.6304 -75.2148 -12.8927
ENERGY: 900000 2.1318 10.2734 16.2585 0.0000 -10675.8381 1503.4434 0.0000 0.0000 1736.6548 -7407.0762 299.3917 -9143.7310 -7393.0927 302.0609 632.1528 704.9801 30013.6758 -126.3215 -60.3652
ENERGY: 1200000 4.1169 7.7843 16.6343 0.0000 -10546.2614 1393.6642 0.0000 0.0000 1700.0596 -7424.0022 293.0829 -9124.0618 -7399.0990 301.2836 -69.4095 22.7115 29650.2074 -78.5568 -6.4321
ENERGY: 1500000 1.0385 7.5748 16.0545 0.0000 -10430.6573 1385.0632 0.0000 0.0000 1749.5410 -7271.3854 301.6132 -9020.9263 -7391.6183 300.8935 -184.6803 -20.5050 30272.3060 -61.0264 12.4369
TCL: Running FEP window   5: Lambda1 0.7999999999999998 Lambda2 0.7499999999999998 [dLambda -0.050000000000000044]
TCL: Setting parameter firsttimestep to 0
TCL: Setting parameter alchLambda to 0.7999999999999998
Info: NONBONDED TABLE R-SQUARED SPACING: 0.0625
Info: NONBONDED TABLE SIZE: 705 POINTS
TCL: Setting parameter alchLambda2 to 0.7499999999999998
Info: NONBONDED TABLE R-SQUARED SPACING: 0.0625
Info: NONBONDED TABLE SIZE: 705 POINTS
TCL: Running for 1500000 steps
ETITLE: TS BOND ANGLE DIHED IMPRP ELECT VDW BOUNDARY MISC KINETIC TOTAL TEMP POTENTIAL TOTALAVG TEMPAVG PRESSURE GPRESSURE VOLUME PRESSAVG GPRESSAVG
ENERGY: 0 1.0385 7.5748 16.0545 0.0000 -10429.0328 1385.1351 0.0000 0.0000 1748.6378 -7270.5921 301.4575 -9019.2299 -7270.5921 301.4575 -112.5928 -28.3849 30272.3060 -112.5928 -28.3849
ENERGY: 300000 3.5570 13.6123 16.1724 0.0000 -10537.3892 1365.0236 0.0000 0.0000 1751.2593 -7387.7645 301.9095 -9139.0238 -7361.0400 300.1818 -381.2459 -348.6502 29916.0516 72.1414 133.9132
ENERGY: 600000 2.3000 12.3419 17.3745 0.0000 -10656.9966 1423.6225 0.0000 0.0000 1747.1425 -7454.2152 301.1998 -9201.3576 -7381.3451 298.9043 91.4008 116.1695 29513.6268 -28.7029 27.6838
ENERGY: 900000 2.7809 9.2898 16.1280 0.0000 -10773.1286 1530.9855 0.0000 0.0000 1756.5627 -7457.3817 302.8238 -9213.9444 -7381.6737 300.5483 616.3007 672.9608 30172.8272 31.3650 87.1979
ENERGY: 1200000 3.1343 15.8297 16.0721 0.0000 -10596.5848 1419.5671 0.0000 0.0000 1800.9679 -7341.0137 310.4790 -9141.9816 -7382.4160 302.0179 -79.6226 2.7438 30059.3473 8.1403 60.3436
ENERGY: 1500000 2.3783 9.0911 15.9733 0.0000 -10578.2704 1463.2977 0.0000 0.0000 1772.8788 -7314.6511 305.6366 -9087.5299 -7370.1705 302.6082 546.4822 626.6365 29923.1173 16.7218 68.0373
TCL: Running FEP window   6: Lambda1 0.7499999999999998 Lambda2 0.6999999999999997 [dLambda -0.050000000000000044]
TCL: Setting parameter firsttimestep to 0
TCL: Setting parameter alchLambda to 0.7499999999999998
Info: NONBONDED TABLE R-SQUARED SPACING: 0.0625
Info: NONBONDED TABLE SIZE: 705 POINTS
TCL: Setting parameter alchLambda2 to 0.6999999999999997
Info: NONBONDED TABLE R-SQUARED SPACING: 0.0625
Info: NONBONDED TABLE SIZE: 705 POINTS
TCL: Running for 1500000 steps
ETITLE: TS BOND ANGLE DIHED IMPRP ELECT VDW BOUNDARY MISC KINETIC TOTAL TEMP POTENTIAL TOTALAVG TEMPAVG PRESSURE GPRESSURE VOLUME PRESSAVG GPRESSAVG
ENERGY: 0 2.3783 9.0911 15.9733 0.0000 -10577.5349 1463.6741 0.0000 0.0000 1772.0173 -7314.4007 305.4881 -9086.4180 -7314.4007 305.4881 544.2518 620.9403 29923.1173 544.2518 620.9403
ENERGY: 300000 2.9193 14.2910 16.3749 0.0000 -10672.7851 1509.3677 0.0000 0.0000 1736.6441 -7393.1881 299.3899 -9129.8322 -7364.6942 299.8426 769.5217 851.4348 29790.8923 249.3328 295.6357
ENERGY: 600000 3.1369 11.3236 16.4961 0.0000 -10576.1019 1399.5861 0.0000 0.0000 1791.8775 -7353.6816 308.9119 -9145.5592 -7376.8299 301.6034 -204.4886 -81.2659 29925.5211 6.1961 60.5945
ENERGY: 900000 3.2663 11.3690 16.4840 0.0000 -10654.7104 1468.2956 0.0000 0.0000 1717.6425 -7437.6529 296.1141 -9155.2954 -7389.0626 300.8905 299.9941 362.9139 29833.7778 109.0813 164.4986
ENERGY: 1200000 0.6893 6.2506 15.9005 0.0000 -10654.0158 1471.4405 0.0000 0.0000 1818.0714 -7341.6636 313.4276 -9159.7350 -7398.6245 300.5671 355.4483 480.1008 30127.4903 84.3370 139.4693
ENERGY: 1500000 1.0487 15.0413 15.5663 0.0000 -10471.9327 1333.1413 0.0000 0.0000 1745.5947 -7361.5405 300.9329 -9107.1351 -7398.2259 300.5275 -667.6358 -630.2473 30455.2857 -76.2736 -20.5064
TCL: Running FEP window   7: Lambda1 0.6999999999999997 Lambda2 0.6499999999999997 [dLambda -0.050000000000000044]
TCL: Setting parameter firsttimestep to 0
TCL: Setting parameter alchLambda to 0.6999999999999997
Info: NONBONDED TABLE R-SQUARED SPACING: 0.0625
Info: NONBONDED TABLE SIZE: 705 POINTS
TCL: Setting parameter alchLambda2 to 0.6499999999999997
Info: NONBONDED TABLE R-SQUARED SPACING: 0.0625
Info: NONBONDED TABLE SIZE: 705 POINTS
TCL: Running for 1500000 steps
ETITLE: TS BOND ANGLE DIHED IMPRP ELECT VDW BOUNDARY MISC KINETIC TOTAL TEMP POTENTIAL TOTALAVG TEMPAVG PRESSURE GPRESSURE VOLUME PRESSAVG GPRESSAVG
ENERGY: 0 1.0487 15.0413 15.5663 0.0000 -10469.8870 1332.7286 0.0000 0.0000 1744.7523 -7360.7498 300.7877 -9105.5021 -7360.7498 300.7877 -715.4462 -638.8114 30455.2857 -715.4462 -638.8114
ENERGY: 300000 3.5241 10.8353 16.6589 0.0000 -10639.8812 1444.8081 0.0000 0.0000 1764.0640 -7399.9907 304.1170 -9164.0547 -7378.5021 297.8096 23.1823 135.2076 30034.7538 102.6709 182.8268
ENERGY: 600000 0.3269 13.6541 15.7687 0.0000 -10557.8625 1392.5885 0.0000 0.0000 1758.4372 -7377.0870 303.1469 -9135.5242 -7372.5304 300.7458 -261.1478 -206.6853 30266.7101 -152.8911 -82.2777
ENERGY: 900000 0.5618 10.1498 16.2722 0.0000 -10587.4395 1404.0615 0.0000 0.0000 1727.3255 -7429.0687 297.7834 -9156.3942 -7382.8472 300.5046 -58.6776 -1.3247 29685.5046 -152.1689 -79.5220
ENERGY: 1200000 3.3058 9.8629 18.3465 0.0000 -10421.1814 1339.5549 0.0000 0.0000 1728.8795 -7321.2318 298.0513 -9050.1113 -7377.4857 301.3667 -382.2406 -326.1204 30051.6681 -160.0367 -94.7337
ENERGY: 1500000 4.4812 5.0214 15.1232 0.0000 -10446.7919 1346.8375 0.0000 0.0000 1702.8650 -7372.4637 293.5665 -9075.3286 -7384.6899 300.9061 -346.9506 -269.5005 29899.1531 -289.0325 -216.1880
TCL: Running FEP window   8: Lambda1 0.6499999999999997 Lambda2 0.5999999999999996 [dLambda -0.050000000000000044]
TCL: Setting parameter firsttimestep to 0
TCL: Setting parameter alchLambda to 0.6499999999999997
Info: NONBONDED TABLE R-SQUARED SPACING: 0.0625
Info: NONBONDED TABLE SIZE: 705 POINTS
TCL: Setting parameter alchLambda2 to 0.5999999999999996
Info: NONBONDED TABLE R-SQUARED SPACING: 0.0625
Info: NONBONDED TABLE SIZE: 705 POINTS
TCL: Running for 1500000 steps
ETITLE: TS BOND ANGLE DIHED IMPRP ELECT VDW BOUNDARY MISC KINETIC TOTAL TEMP POTENTIAL TOTALAVG TEMPAVG PRESSURE GPRESSURE VOLUME PRESSAVG GPRESSAVG
ENERGY: 0 4.4812 5.0214 15.1232 0.0000 -10445.7785 1346.9283 0.0000 0.0000 1701.9854 -7372.2390 293.4149 -9074.2244 -7372.2390 293.4149 -355.1287 -275.6726 29899.1531 -355.1287 -275.6726
ENERGY: 300000 1.5612 8.4128 16.7469 0.0000 -10564.1367 1377.7701 0.0000 0.0000 1789.4041 -7370.2416 308.4855 -9159.6457 -7395.8093 299.1270 -316.5854 -269.7539 29944.1348 -169.1004 -109.0772
ENERGY: 600000 0.7306 9.0907 17.3390 0.0000 -10618.3518 1480.0131 0.0000 0.0000 1706.0230 -7405.1555 294.1109 -9111.1785 -7404.3894 296.5209 723.0170 758.1520 29626.2802 -8.7502 56.6149
ENERGY: 900000 1.2432 8.7290 16.5236 0.0000 -10489.5416 1386.3223 0.0000 0.0000 1751.6981 -7325.0254 301.9851 -9076.7235 -7393.0746 296.8746 86.5331 197.4784 29689.5404 22.2684 82.5393
ENERGY: 1200000 2.0745 8.2485 16.7246 0.0000 -10599.2758 1422.6461 0.0000 0.0000 1763.3418 -7386.2404 303.9924 -9149.5821 -7404.8479 297.8386 9.8396 79.8186 29682.5719 47.9903 106.2404
ENERGY: 1500000 4.9900 11.2905 16.5956 0.0000 -10599.1971 1448.8667 0.0000 0.0000 1782.6815 -7334.7727 307.3265 -9117.4542 -7401.9814 299.1594 512.1075 525.9345 29603.4293 67.6995 119.2107
TCL: Running FEP window   9: Lambda1 0.5999999999999996 Lambda2 0.5499999999999996 [dLambda -0.050000000000000044]
TCL: Setting parameter firsttimestep to 0
TCL: Setting parameter alchLambda to 0.5999999999999996
Info: NONBONDED TABLE R-SQUARED SPACING: 0.0625
Info: NONBONDED TABLE SIZE: 705 POINTS
TCL: Setting parameter alchLambda2 to 0.5499999999999996
Info: NONBONDED TABLE R-SQUARED SPACING: 0.0625
Info: NONBONDED TABLE SIZE: 705 POINTS
TCL: Running for 1500000 steps
ETITLE: TS BOND ANGLE DIHED IMPRP ELECT VDW BOUNDARY MISC KINETIC TOTAL TEMP POTENTIAL TOTALAVG TEMPAVG PRESSURE GPRESSURE VOLUME PRESSAVG GPRESSAVG
ENERGY: 0 4.9900 11.2905 16.5956 0.0000 -10598.7211 1449.2673 0.0000 0.0000 1781.8319 -7334.7458 307.1801 -9116.5776 -7334.7458 307.1801 446.9529 524.8988 29603.4293 446.9529 524.8988
ENERGY: 300000 1.7196 7.5520 15.9903 0.0000 -10602.3196 1392.7807 0.0000 0.0000 1699.9171 -7484.3599 293.0583 -9184.2769 -7421.3817 297.3427 -343.8586 -213.6870 29672.3224 -57.5028 34.0642
ENERGY: 600000 3.0920 12.4457 15.6077 0.0000 -10690.9800 1509.9507 0.0000 0.0000 1748.0476 -7401.8364 301.3558 -9149.8840 -7402.9005 300.6846 817.6553 849.7697 29592.6171 266.0162 338.1235
ENERGY: 900000 2.3482 8.4748 15.5044 0.0000 -10603.1404 1418.1177 0.0000 0.0000 1700.3055 -7458.3898 293.1253 -9158.6953 -7416.7789 299.6219 -15.7965 75.3188 29888.5688 202.0711 261.4667
ENERGY: 1200000 3.3433 9.0877 15.5589 0.0000 -10575.4866 1422.2543 0.0000 0.0000 1768.2201 -7357.0223 304.8334 -9125.2424 -7411.6624 299.7878 242.2456 354.4235 29520.9302 157.6409 217.8390
ENERGY: 1500000 4.1820 8.1810 17.8191 0.0000 -10522.3360 1362.7709 0.0000 0.0000 1718.0980 -7411.2851 296.1926 -9129.3831 -7410.2916 300.1504 -479.7070 -456.1490 30224.5595 145.2883 204.3305
TCL: Running FEP window  10: Lambda1 0.5499999999999996 Lambda2 0.4999999999999996 [dLambda -0.04999999999999999]
TCL: Setting parameter firsttimestep to 0
TCL: Setting parameter alchLambda to 0.5499999999999996
Info: NONBONDED TABLE R-SQUARED SPACING: 0.0625
Info: NONBONDED TABLE SIZE: 705 POINTS
TCL: Setting parameter alchLambda2 to 0.4999999999999996
Info: NONBONDED TABLE R-SQUARED SPACING: 0.0625
Info: NONBONDED TABLE SIZE: 705 POINTS
TCL: Running for 1500000 steps
ETITLE: TS BOND ANGLE DIHED IMPRP ELECT VDW BOUNDARY MISC KINETIC TOTAL TEMP POTENTIAL TOTALAVG TEMPAVG PRESSURE GPRESSURE VOLUME PRESSAVG GPRESSAVG
ENERGY: 0 4.1820 8.1810 17.8191 0.0000 -10521.3275 1362.7116 0.0000 0.0000 1717.2507 -7411.1831 296.0466 -9128.4338 -7411.1831 296.0466 -532.6829 -460.3920 30224.5595 -532.6829 -460.3920
ENERGY: 300000 3.0337 7.2922 16.2495 0.0000 -10564.5778 1370.6095 0.0000 0.0000 1727.6412 -7439.7516 297.8378 -9167.3928 -7432.4071 299.9573 -489.4977 -365.2922 29796.9123 -196.7705 -114.8206
ENERGY: 600000 1.5346 6.0073 15.5513 0.0000 -10570.7230 1393.5159 0.0000 0.0000 1792.0805 -7362.0334 308.9469 -9154.1139 -7433.6134 300.3595 -262.3322 -233.8244 30078.3758 -135.2748 -60.2451
ENERGY: 900000 0.4581 6.7434 17.1402 0.0000 -10628.4590 1431.0982 0.0000 0.0000 1732.7120 -7440.3070 298.7120 -9173.0190 -7436.2517 299.4962 46.0877 102.4828 29960.0094 -9.8256 59.6578
ENERGY: 1200000 3.6656 9.3814 15.4532 0.0000 -10603.5751 1430.3487 0.0000 0.0000 1705.0741 -7439.6521 293.9473 -9144.7262 -7429.4564 298.9373 -114.3834 -100.9157 30081.8725 4.7950 63.4862
ENERGY: 1500000 2.4224 9.4813 16.5866 0.0000 -10611.1436 1410.1752 0.0000 0.0000 1795.9264 -7376.5517 309.6099 -9172.4781 -7427.4593 299.3776 -283.0299 -198.2917 30087.0320 -40.5025 22.3312
TCL: Running FEP window  11: Lambda1 0.4999999999999996 Lambda2 0.4499999999999996 [dLambda -0.04999999999999999]
TCL: Setting parameter firsttimestep to 0
TCL: Setting parameter alchLambda to 0.4999999999999996
Info: NONBONDED TABLE R-SQUARED SPACING: 0.0625
Info: NONBONDED TABLE SIZE: 705 POINTS
TCL: Setting parameter alchLambda2 to 0.4499999999999996
Info: NONBONDED TABLE R-SQUARED SPACING: 0.0625
Info: NONBONDED TABLE SIZE: 705 POINTS
TCL: Running for 1500000 steps
ETITLE: TS BOND ANGLE DIHED IMPRP ELECT VDW BOUNDARY MISC KINETIC TOTAL TEMP POTENTIAL TOTALAVG TEMPAVG PRESSURE GPRESSURE VOLUME PRESSAVG GPRESSAVG
ENERGY: 0 2.4224 9.4813 16.5866 0.0000 -10611.1330 1410.7348 0.0000 0.0000 1795.0779 -7376.8301 309.4636 -9171.9080 -7376.8301 309.4636 -285.0343 -200.0088 30087.0320 -285.0343 -200.0088
ENERGY: 300000 2.8435 10.3107 16.6701 0.0000 -10525.4781 1348.0757 0.0000 0.0000 1745.3523 -7402.2258 300.8911 -9147.5781 -7384.3790 303.2361 -591.1488 -495.5543 29862.0943 -21.0831 52.6671
ENERGY: 600000 3.8800 10.4309 17.5945 0.0000 -10590.9694 1426.7405 0.0000 0.0000 1739.8590 -7392.4644 299.9441 -9132.3235 -7389.6832 303.3165 -165.2900 -95.6702 30061.0659 -130.4202 -52.0643
ENERGY: 900000 2.8311 7.4599 16.7156 0.0000 -10410.3869 1315.1493 0.0000 0.0000 1748.9398 -7319.2911 301.5096 -9068.2309 -7383.1159 302.0500 -868.2660 -814.7695 30505.1903 -85.6671 -21.0948
ENERGY: 1200000 0.6955 10.3336 16.0753 0.0000 -10587.3033 1425.9646 0.0000 0.0000 1703.2724 -7430.9620 293.6367 -9134.2343 -7393.5318 301.9574 -229.4564 -225.4880 30282.0060 -26.2879 36.2362
ENERGY: 1500000 2.2766 9.7258 18.8678 0.0000 -10529.5964 1406.8629 0.0000 0.0000 1680.2667 -7411.5966 289.6707 -9091.8633 -7384.2363 301.8820 -259.5660 -199.8267 30310.9962 -106.7882 -48.3944
TCL: Running FEP window  12: Lambda1 0.4499999999999996 Lambda2 0.39999999999999963 [dLambda -0.04999999999999999]
TCL: Setting parameter firsttimestep to 0
TCL: Setting parameter alchLambda to 0.4499999999999996
Info: NONBONDED TABLE R-SQUARED SPACING: 0.0625
Info: NONBONDED TABLE SIZE: 705 POINTS
TCL: Setting parameter alchLambda2 to 0.39999999999999963
Info: NONBONDED TABLE R-SQUARED SPACING: 0.0625
Info: NONBONDED TABLE SIZE: 705 POINTS
TCL: Running for 1500000 steps
ETITLE: TS BOND ANGLE DIHED IMPRP ELECT VDW BOUNDARY MISC KINETIC TOTAL TEMP POTENTIAL TOTALAVG TEMPAVG PRESSURE GPRESSURE VOLUME PRESSAVG GPRESSAVG
ENERGY: 0 2.2766 9.7258 18.8678 0.0000 -10529.5964 1407.1543 0.0000 0.0000 1679.4067 -7412.1652 289.5224 -9091.5719 -7412.1652 289.5224 -289.4033 -202.5134 30310.9962 -289.4033 -202.5134
ENERGY: 300000 3.8979 6.8987 17.0237 0.0000 -10605.1149 1451.0066 0.0000 0.0000 1737.9785 -7388.3095 299.6199 -9126.2879 -7399.8294 298.0485 -289.5844 -191.7802 30582.6999 -45.9411 26.6366
ENERGY: 600000 3.9030 13.5754 17.9298 0.0000 -10542.4798 1309.4158 0.0000 0.0000 1687.5046 -7510.1512 290.9184 -9197.6558 -7414.9961 296.4464 -1298.1240 -1234.6321 30174.4443 -175.0009 -112.9148
ENERGY: 900000 2.6384 17.8196 15.8973 0.0000 -10650.0760 1487.0088 0.0000 0.0000 1841.8499 -7284.8619 317.5269 -9126.7118 -7385.3869 300.5003 695.4990 717.1092 29902.5730 -55.2527 8.1637
ENERGY: 1200000 2.7239 13.1733 15.7950 0.0000 -10654.4345 1476.4638 0.0000 0.0000 1743.8574 -7402.4212 300.6334 -9146.2785 -7383.1154 300.3795 448.3848 510.3348 29697.4876 -19.5081 37.1380
ENERGY: 1500000 1.2938 12.5626 15.3215 0.0000 -10519.0165 1412.7227 0.0000 0.0000 1735.2774 -7341.8386 299.1543 -9077.1160 -7382.5872 300.6173 86.5522 55.2391 30145.3595 0.9052 57.9277
TCL: Running FEP window  13: Lambda1 0.39999999999999963 Lambda2 0.34999999999999964 [dLambda -0.04999999999999999]
TCL: Setting parameter firsttimestep to 0
TCL: Setting parameter alchLambda to 0.39999999999999963
Info: NONBONDED TABLE R-SQUARED SPACING: 0.0625
Info: NONBONDED TABLE SIZE: 705 POINTS
TCL: Setting parameter alchLambda2 to 0.34999999999999964
Info: NONBONDED TABLE R-SQUARED SPACING: 0.0625
Info: NONBONDED TABLE SIZE: 705 POINTS
TCL: Running for 1500000 steps
ETITLE: TS BOND ANGLE DIHED IMPRP ELECT VDW BOUNDARY MISC KINETIC TOTAL TEMP POTENTIAL TOTALAVG TEMPAVG PRESSURE GPRESSURE VOLUME PRESSAVG GPRESSAVG
ENERGY: 0 1.2938 12.5626 15.3215 0.0000 -10519.0153 1412.7141 0.0000 0.0000 1734.4395 -7342.6838 299.0098 -9077.1233 -7342.6838 299.0098 -22.3173 49.3500 30145.3595 -22.3173 49.3500
ENERGY: 300000 3.6686 8.0658 15.5515 0.0000 -10657.0231 1513.1796 0.0000 0.0000 1658.5221 -7458.0356 285.9220 -9116.5577 -7398.7922 294.6950 626.9028 687.4859 29811.7016 242.3454 297.7997
ENERGY: 600000 2.5593 10.1517 14.9990 0.0000 -10592.7068 1394.8561 0.0000 0.0000 1725.7443 -7444.3964 297.5108 -9170.1407 -7391.2402 296.9587 -195.1596 -101.3916 29596.7850 76.2664 130.8744
ENERGY: 900000 0.8891 9.6678 15.4997 0.0000 -10554.3662 1447.8082 0.0000 0.0000 1751.4138 -7329.0876 301.9361 -9080.5015 -7390.3101 297.6438 171.7102 246.7798 30203.3877 -23.4615 31.9086
ENERGY: 1200000 2.3529 9.0302 15.6254 0.0000 -10535.6281 1380.1646 0.0000 0.0000 1695.1898 -7433.2653 292.2433 -9128.4551 -7386.0961 297.6470 -573.8774 -532.3106 30266.9062 -112.0674 -60.1754
ENERGY: 1500000 1.6965 11.3977 15.3680 0.0000 -10464.6030 1338.3908 0.0000 0.0000 1733.3317 -7364.4183 298.8188 -9097.7500 -7388.0430 298.4294 -916.8224 -829.9637 30464.5256 -149.9582 -94.0774
TCL: Running FEP window  14: Lambda1 0.34999999999999964 Lambda2 0.29999999999999966 [dLambda -0.04999999999999999]
TCL: Setting parameter firsttimestep to 0
TCL: Setting parameter alchLambda to 0.34999999999999964
Info: NONBONDED TABLE R-SQUARED SPACING: 0.0625
Info: NONBONDED TABLE SIZE: 705 POINTS
TCL: Setting parameter alchLambda2 to 0.29999999999999966
Info: NONBONDED TABLE R-SQUARED SPACING: 0.0625
Info: NONBONDED TABLE SIZE: 705 POINTS
TCL: Running for 1500000 steps
ETITLE: TS BOND ANGLE DIHED IMPRP ELECT VDW BOUNDARY MISC KINETIC TOTAL TEMP POTENTIAL TOTALAVG TEMPAVG PRESSURE GPRESSURE VOLUME PRESSAVG GPRESSAVG
ENERGY: 0 1.6965 11.3977 15.3680 0.0000 -10464.6022 1338.7087 0.0000 0.0000 1732.4790 -7364.9522 298.6718 -9097.4312 -7364.9522 298.6718 -910.9053 -832.6352 30464.5256 -910.9053 -832.6352
ENERGY: 300000 1.0408 13.6924 16.2631 0.0000 -10602.7765 1415.3595 0.0000 0.0000 1736.2826 -7420.1382 299.3276 -9156.4208 -7379.3545 300.6521 -225.6923 -131.6858 29835.5130 -458.4143 -383.2984
ENERGY: 600000 2.9670 13.0132 16.2953 0.0000 -10458.8075 1371.2676 0.0000 0.0000 1788.1148 -7267.1495 308.2632 -9055.2644 -7370.4918 301.1213 -152.5557 -96.6029 29647.1450 -299.0212 -229.7360
ENERGY: 900000 1.0430 9.5903 16.2599 0.0000 -10515.6507 1393.7516 0.0000 0.0000 1778.9131 -7316.0927 306.6769 -9095.0058 -7375.5513 301.6727 -460.2694 -376.4455 30491.6239 -285.7491 -215.7900
ENERGY: 1200000 0.6992 15.9114 16.1466 0.0000 -10571.5401 1326.7821 0.0000 0.0000 1696.7594 -7515.2414 292.5139 -9212.0008 -7388.2618 300.4278 -911.3434 -803.6883 29745.8297 -288.0455 -215.5855
ENERGY: 1500000 3.3666 11.3634 17.2409 0.0000 -10488.0024 1364.4827 0.0000 0.0000 1780.0576 -7311.4911 306.8742 -9091.5488 -7388.7919 300.6912 -431.6909 -318.5320 30352.9948 -218.1146 -145.9549
TCL: Running FEP window  15: Lambda1 0.29999999999999966 Lambda2 0.24999999999999967 [dLambda -0.04999999999999999]
TCL: Setting parameter firsttimestep to 0
TCL: Setting parameter alchLambda to 0.29999999999999966
Info: NONBONDED TABLE R-SQUARED SPACING: 0.0625
Info: NONBONDED TABLE SIZE: 705 POINTS
TCL: Setting parameter alchLambda2 to 0.24999999999999967
Info: NONBONDED TABLE R-SQUARED SPACING: 0.0625
Info: NONBONDED TABLE SIZE: 705 POINTS
TCL: Running for 1500000 steps
ETITLE: TS BOND ANGLE DIHED IMPRP ELECT VDW BOUNDARY MISC KINETIC TOTAL TEMP POTENTIAL TOTALAVG TEMPAVG PRESSURE GPRESSURE VOLUME PRESSAVG GPRESSAVG
ENERGY: 0 3.3666 11.3634 17.2409 0.0000 -10488.0023 1365.0746 0.0000 0.0000 1779.2012 -7311.7557 306.7265 -9090.9569 -7311.7557 306.7265 -400.7276 -320.9531 30352.9948 -400.7276 -320.9531
ENERGY: 300000 1.1769 12.0910 15.9485 0.0000 -10713.3692 1449.5739 0.0000 0.0000 1764.4894 -7470.0896 304.1903 -9234.5790 -7373.6636 300.8501 -314.5083 -255.9782 30398.0997 -98.6621 -38.9456
ENERGY: 600000 4.0487 9.4780 15.5383 0.0000 -10740.3026 1559.6106 0.0000 0.0000 1739.6858 -7411.9411 299.9143 -9151.6269 -7408.7422 300.7200 1395.9356 1441.5327 29462.9679 203.0989 274.8013
ENERGY: 900000 1.0797 10.2334 15.6710 0.0000 -10586.9313 1435.4889 0.0000 0.0000 1744.0278 -7380.4304 300.6628 -9124.4582 -7403.3227 300.8079 200.0165 215.2618 29879.5167 185.0245 251.0893
ENERGY: 1200000 2.7720 9.8550 15.8544 0.0000 -10759.0035 1515.1378 0.0000 0.0000 1695.1890 -7520.1953 292.2432 -9215.3843 -7406.1055 300.7606 353.3475 429.7592 29614.0786 271.8317 342.0596
ENERGY: 1500000 0.9088 12.7916 15.4658 0.0000 -10533.0466 1371.0300 0.0000 0.0000 1733.6008 -7399.2496 298.8652 -9132.8504 -7409.0242 301.2487 -639.5114 -639.5436 30468.5392 213.5042 273.9230
TCL: Running FEP window  16: Lambda1 0.24999999999999967 Lambda2 0.19999999999999968 [dLambda -0.04999999999999999]
TCL: Setting parameter firsttimestep to 0
TCL: Setting parameter alchLambda to 0.24999999999999967
Info: NONBONDED TABLE R-SQUARED SPACING: 0.0625
Info: NONBONDED TABLE SIZE: 705 POINTS
TCL: Setting parameter alchLambda2 to 0.19999999999999968
Info: NONBONDED TABLE R-SQUARED SPACING: 0.0625
Info: NONBONDED TABLE SIZE: 705 POINTS
TCL: Running for 1500000 steps
ETITLE: TS BOND ANGLE DIHED IMPRP ELECT VDW BOUNDARY MISC KINETIC TOTAL TEMP POTENTIAL TOTALAVG TEMPAVG PRESSURE GPRESSURE VOLUME PRESSAVG GPRESSAVG
ENERGY: 0 0.9088 12.7916 15.4658 0.0000 -10533.0473 1371.0684 0.0000 0.0000 1732.7687 -7400.0439 298.7218 -9132.8126 -7400.0439 298.7218 -734.1013 -642.0767 30468.5392 -734.1013 -642.0767
ENERGY: 300000 1.6999 9.3049 16.7680 0.0000 -10563.1312 1379.3348 0.0000 0.0000 1765.6979 -7390.3257 304.3986 -9156.0236 -7369.9208 307.0677 -136.1379 -70.4717 29432.6238 -455.8611 -381.0293
ENERGY: 600000 3.4702 9.0673 19.2062 0.0000 -10657.4136 1464.9472 0.0000 0.0000 1743.1923 -7417.5304 300.5188 -9160.7227 -7379.0454 304.3199 146.9197 224.2512 29872.9735 -424.3438 -358.0346
ENERGY: 900000 2.3569 11.9005 15.8757 0.0000 -10638.0481 1417.7487 0.0000 0.0000 1741.8461 -7448.3201 300.2867 -9190.1663 -7386.2343 303.5060 33.0795 90.2953 29224.0412 -238.9394 -174.7094
ENERGY: 1200000 4.7146 9.0277 16.0347 0.0000 -10426.6406 1328.9186 0.0000 0.0000 1794.4348 -7273.5102 309.3528 -9067.9451 -7387.1007 303.0149 -708.1001 -646.9816 30124.0482 -291.0535 -221.5483
ENERGY: 1500000 2.2702 14.0145 18.3966 0.0000 -10560.7431 1369.9264 0.0000 0.0000 1774.6844 -7381.4509 305.9479 -9156.1353 -7386.9505 302.9442 -670.5376 -670.4137 30218.2704 -278.4911 -218.4402
TCL: Running FEP window  17: Lambda1 0.19999999999999968 Lambda2 0.1499999999999997 [dLambda -0.04999999999999999]
TCL: Setting parameter firsttimestep to 0
TCL: Setting parameter alchLambda to 0.19999999999999968
Info: NONBONDED TABLE R-SQUARED SPACING: 0.0625
Info: NONBONDED TABLE SIZE: 705 POINTS
TCL: Setting parameter alchLambda2 to 0.1499999999999997
Info: NONBONDED TABLE R-SQUARED SPACING: 0.0625
Info: NONBONDED TABLE SIZE: 705 POINTS
TCL: Running for 1500000 steps
ETITLE: TS BOND ANGLE DIHED IMPRP ELECT VDW BOUNDARY MISC KINETIC TOTAL TEMP POTENTIAL TOTALAVG TEMPAVG PRESSURE GPRESSURE VOLUME PRESSAVG GPRESSAVG
ENERGY: 0 2.2702 14.0145 18.3966 0.0000 -10560.7434 1370.1064 0.0000 0.0000 1773.8244 -7382.1314 305.7996 -9155.9557 -7382.1314 305.7996 -757.9277 -675.1744 30218.2704 -757.9277 -675.1744
ENERGY: 300000 2.4970 13.6975 16.0313 0.0000 -10595.3699 1411.6021 0.0000 0.0000 1682.2950 -7469.2471 290.0203 -9151.5421 -7399.3097 301.2809 -174.2506 -118.3367 30020.3745 73.0265 139.7695
ENERGY: 600000 1.9162 7.5155 16.0429 0.0000 -10506.6062 1354.8432 0.0000 0.0000 1737.6618 -7388.6267 299.5653 -9126.2885 -7397.3521 299.7971 -392.5056 -361.6774 29794.0339 -85.7880 -36.4901
ENERGY: 900000 3.2208 9.6055 15.9229 0.0000 -10452.6577 1381.3513 0.0000 0.0000 1703.9358 -7338.6214 293.7511 -9042.5572 -7397.6492 299.4631 -103.1208 -0.7515 29885.6372 -141.7496 -85.2250
ENERGY: 1200000 2.2178 10.8927 15.9413 0.0000 -10612.5532 1422.2612 0.0000 0.0000 1834.7111 -7326.5291 316.2962 -9161.2402 -7389.7266 300.9695 -135.9831 32.3000 29879.4343 -179.8902 -114.6483
ENERGY: 1500000 3.0286 13.5742 16.3150 0.0000 -10539.9109 1377.9338 0.0000 0.0000 1742.6425 -7386.4167 300.4240 -9129.0592 -7382.7064 301.7269 -496.1614 -400.5328 30025.1706 -138.3714 -69.2993
TCL: Running FEP window  18: Lambda1 0.1499999999999997 Lambda2 0.09999999999999969 [dLambda -0.05 ]
TCL: Setting parameter firsttimestep to 0
TCL: Setting parameter alchLambda to 0.1499999999999997
Info: NONBONDED TABLE R-SQUARED SPACING: 0.0625
Info: NONBONDED TABLE SIZE: 705 POINTS
TCL: Setting parameter alchLambda2 to 0.09999999999999969
Info: NONBONDED TABLE R-SQUARED SPACING: 0.0625
Info: NONBONDED TABLE SIZE: 705 POINTS
TCL: Running for 1500000 steps
ETITLE: TS BOND ANGLE DIHED IMPRP ELECT VDW BOUNDARY MISC KINETIC TOTAL TEMP POTENTIAL TOTALAVG TEMPAVG PRESSURE GPRESSURE VOLUME PRESSAVG GPRESSAVG
ENERGY: 0 3.0286 13.5742 16.3150 0.0000 -10539.9105 1378.1079 0.0000 0.0000 1741.7740 -7387.1108 300.2742 -9128.8847 -7387.1108 300.2742 -474.2353 -400.7226 30025.1706 -474.2353 -400.7226
ENERGY: 300000 2.4440 9.4856 17.2484 0.0000 -10510.1466 1371.6359 0.0000 0.0000 1735.9462 -7373.3865 299.2696 -9109.3327 -7383.6999 302.4096 -368.6222 -289.8935 29700.8439 -86.8159 -26.4570
ENERGY: 600000 1.0964 12.2308 15.4263 0.0000 -10555.9993 1441.9050 0.0000 0.0000 1703.2434 -7382.0975 293.6317 -9085.3408 -7392.5046 299.5259 404.6697 469.5245 29746.1401 41.1296 104.8102
ENERGY: 900000 5.1373 8.5352 16.4801 0.0000 -10480.7835 1367.9263 0.0000 0.0000 1678.1231 -7404.5815 289.3011 -9082.7046 -7396.9414 297.6676 -87.1022 -3.2373 29227.8639 65.1183 123.6831
ENERGY: 1200000 2.8397 8.8277 16.3589 0.0000 -10715.3349 1516.5884 0.0000 0.0000 1740.6885 -7430.0317 300.0871 -9170.7202 -7403.5590 298.5538 464.6791 540.9365 30025.3874 59.6231 118.1848
ENERGY: 1500000 1.9522 11.5192 16.1519 0.0000 -10677.0359 1484.1925 0.0000 0.0000 1695.6326 -7467.5875 292.3197 -9163.2201 -7402.2502 299.1206 483.9929 569.5998 29653.5543 36.8324 100.0760
TCL: Running FEP window  19: Lambda1 0.09999999999999969 Lambda2 0.049999999999999684 [dLambda -0.05 ]
TCL: Setting parameter firsttimestep to 0
TCL: Setting parameter alchLambda to 0.09999999999999969
Info: NONBONDED TABLE R-SQUARED SPACING: 0.0625
Info: NONBONDED TABLE SIZE: 705 POINTS
TCL: Setting parameter alchLambda2 to 0.049999999999999684
Info: NONBONDED TABLE R-SQUARED SPACING: 0.0625
Info: NONBONDED TABLE SIZE: 705 POINTS
TCL: Running for 1500000 steps
ETITLE: TS BOND ANGLE DIHED IMPRP ELECT VDW BOUNDARY MISC KINETIC TOTAL TEMP POTENTIAL TOTALAVG TEMPAVG PRESSURE GPRESSURE VOLUME PRESSAVG GPRESSAVG
ENERGY: 0 1.9522 11.5192 16.1519 0.0000 -10677.0363 1484.5738 0.0000 0.0000 1694.7982 -7468.0410 292.1758 -9162.8392 -7468.0410 292.1758 481.7504 570.7864 29653.5543 481.7504 570.7864
ENERGY: 300000 0.6617 11.5652 16.7429 0.0000 -10551.0585 1409.8074 0.0000 0.0000 1750.3710 -7361.9103 301.7563 -9112.2813 -7384.0734 300.2518 -222.6992 -122.2605 30019.7376 163.5720 222.9407
ENERGY: 600000 1.3918 13.0697 15.3512 0.0000 -10570.1921 1376.3415 0.0000 0.0000 1723.1734 -7440.8646 297.0676 -9164.0380 -7381.3994 301.2004 -447.2958 -447.4371 30204.2112 -10.9608 37.1281
ENERGY: 900000 0.9680 11.9868 16.3238 0.0000 -10685.5716 1480.9817 0.0000 0.0000 1728.2639 -7447.0473 297.9452 -9175.3113 -7387.9899 300.9458 256.0381 331.4327 29819.5250 68.3376 116.8389
ENERGY: 1200000 2.1506 8.2979 16.6813 0.0000 -10541.8594 1387.5888 0.0000 0.0000 1745.7591 -7381.3817 300.9613 -9127.1408 -7392.9869 300.6359 -248.5008 -223.8368 29676.8075 54.6190 106.2629
ENERGY: 1500000 1.6208 13.1042 15.4647 0.0000 -10680.9850 1489.9467 0.0000 0.0000 1700.2911 -7460.5575 293.1228 -9160.8487 -7402.2553 299.7802 565.2666 631.4929 29626.3746 106.9721 154.8092
TCL: Running FEP window  20: Lambda1 0.049999999999999684 Lambda2 0.0    [dLambda -0.049999999999999684]
TCL: Setting parameter firsttimestep to 0
TCL: Setting parameter alchLambda to 0.049999999999999684
Info: NONBONDED TABLE R-SQUARED SPACING: 0.0625
Info: NONBONDED TABLE SIZE: 705 POINTS
TCL: Setting parameter alchLambda2 to 0.0
Info: NONBONDED TABLE R-SQUARED SPACING: 0.0625
Info: NONBONDED TABLE SIZE: 705 POINTS
TCL: Running for 1500000 steps
ETITLE: TS BOND ANGLE DIHED IMPRP ELECT VDW BOUNDARY MISC KINETIC TOTAL TEMP POTENTIAL TOTALAVG TEMPAVG PRESSURE GPRESSURE VOLUME PRESSAVG GPRESSAVG
ENERGY: 0 1.6208 13.1042 15.4647 0.0000 -10680.9844 1489.3517 0.0000 0.0000 1699.4413 -7462.0017 292.9763 -9161.4430 -7462.0017 292.9763 531.1345 625.1950 29626.3746 531.1345 625.1950
ENERGY: 300000 2.8412 11.4174 15.0717 0.0000 -10509.4165 1393.7657 0.0000 0.0000 1758.2901 -7328.0304 303.1216 -9086.3206 -7371.0529 299.1745 9.0437 59.5557 29569.6608 -39.6186 44.5157
ENERGY: 600000 4.3884 6.4057 15.3247 0.0000 -10629.8206 1415.3725 0.0000 0.0000 1726.0677 -7462.2616 297.5666 -9188.3292 -7390.7312 297.8240 -552.9260 -481.0377 29937.8046 -65.5479 0.9193
ENERGY: 900000 1.6870 7.8533 15.8782 0.0000 -10659.1680 1442.1368 0.0000 0.0000 1723.4116 -7468.2011 297.1087 -9191.6126 -7398.6216 298.0361 -154.0959 -95.4491 29887.1156 -86.8826 -30.7627
ENERGY: 1200000 0.3520 10.8502 15.5956 0.0000 -10524.9120 1401.0045 0.0000 0.0000 1695.1653 -7401.9445 292.2391 -9097.1098 -7395.0441 298.1334 -175.4246 -111.5991 30178.2137 -118.8099 -61.2345
ENERGY: 1500000 1.1486 7.1474 15.5836 0.0000 -10762.1691 1541.8245 0.0000 0.0000 1696.8271 -7499.6380 292.5256 -9196.4651 -7407.3548 298.1799 836.4414 926.1618 29469.4769 -57.1220 9.7414
TCL: Exiting due to exit command.
