Info: SIMULATION PARAMETERS:
Info: TIMESTEP               2
Info: NUMBER OF STEPS        0
Info: STEPS PER CYCLE        10
Info: PERIODIC CELL BASIS 1  30.6776 0 0
Info: PERIODIC CELL BASIS 2  0 31.9622 0
Info: PERIODIC CELL BASIS 3  0 0 30.6495
Info: PERIODIC CELL CENTER   0 0 0
Info: WRAPPING WATERS AROUND PERIODIC BOUNDARIES ON OUTPUT.
Info: WRAPPING ALL CLUSTERS AROUND PERIODIC BOUNDARIES ON OUTPUT.
Info: FIRST LDB TIMESTEP     50
Info: LAST LDB TIMESTEP     -1
Info: HOM BACKGROUND SCALING 1
Info: PME BACKGROUND SCALING 1
Info: MIN ATOMS PER PATCH    40
Info: EMPTY PATCH LOAD       40 ATOMS
Info: VELOCITY FILE          mobley_9624458_equil.vel
Info: CENTER OF MASS MOVING INITIALLY? NO
Info: DIELECTRIC             1
Info: EXCLUDE                SCALED ONE-FOUR
Info: 1-4 ELECTROSTATICS SCALED BY 0.833333
Info: MODIFIED 1-4 VDW PARAMETERS WILL BE USED
Info: DCD FILENAME           mobley_9624458_prod.dcd
Info: DCD FREQUENCY          100000
Info: DCD FIRST STEP         100000
Info: DCD FILE WILL CONTAIN UNIT CELL DATA
Info: XST FILENAME           mobley_9624458_prod.xst
Info: XST FREQUENCY          100000
Info: NO VELOCITY DCD OUTPUT
Info: NO FORCE DCD OUTPUT
Info: OUTPUT FILENAME        mobley_9624458_prod
Info: BINARY OUTPUT FILES WILL BE USED
Info: RESTART FILENAME       mobley_9624458_prod.restart
Info: RESTART FREQUENCY      100000
Info: BINARY RESTART FILES WILL BE USED
Info: CUTOFF                 9
Info: PAIRLIST DISTANCE      11
Info: PAIRLIST SHRINK RATE   0.01
Info: PAIRLIST GROW RATE     0.01
Info: PAIRLIST TRIGGER       0.3
Info: PAIRLISTS PER CYCLE    2
Info: PAIRLISTS ENABLED
Info: MARGIN                 2
Info: HYDROGEN GROUP CUTOFF  2.5
Info: PATCH DIMENSION        15.5
Info: ENERGY OUTPUT STEPS    100000
Info: ENERGY EVALUATION STEPS    100000
Info: OUTPUT ENERGY PRECISION 4
Info: CROSSTERM ENERGY INCLUDED IN DIHEDRAL
Info: TIMING OUTPUT STEPS    1000000
Info: PRESSURE OUTPUT STEPS  100000
Info: ALCHEMICAL FEP ON
Info: FEP CURRENT LAMBDA VALUE     0
Info: FEP COMPARISON LAMBDA VALUE  0.05
Info: FEP INTRA-ALCHEMICAL NON-BONDED INTERACTIONS WILL BE RETAINED
Info: FEP INTRA-ALCHEMICAL BONDED INTERACTIONS WILL BE RETAINED
Info: FEP VDW SHIFTING COEFFICIENT 5
Info: FEP ELEC. ACTIVE FOR ANNIHILATED PARTICLES BETWEEN LAMBDA = 0 AND LAMBDA = 0.5
Info: FEP ELEC. ACTIVE FOR EXNIHILATED PARTICLES BETWEEN LAMBDA = 0.5 AND LAMBDA = 1
Info: FEP VDW ACTIVE FOR ANNIHILATED PARTICLES BETWEEN LAMBDA = 0 AND LAMBDA = 1
Info: FEP VDW ACTIVE FOR EXNIHILATED PARTICLES BETWEEN LAMBDA = 0 AND LAMBDA = 1
Info: FEP BOND ACTIVE FOR ANNIHILATED PARTICLES BETWEEN LAMBDA = 1 AND LAMBDA = 1
Info: FEP BOND ACTIVE FOR EXNIHILATED PARTICLES BETWEEN LAMBDA = 0 AND LAMBDA = 0
Info: LANGEVIN DYNAMICS ACTIVE
Info: LANGEVIN TEMPERATURE   300
Info: LANGEVIN USING BBK INTEGRATOR
Info: LANGEVIN DAMPING COEFFICIENT IS 1 INVERSE PS
Info: LANGEVIN DYNAMICS APPLIED TO HYDROGENS
Info: LANGEVIN PISTON PRESSURE CONTROL ACTIVE
Info:        TARGET PRESSURE IS 1.01325 BAR
Info:     OSCILLATION PERIOD IS 50 FS
Info:             DECAY TIME IS 25 FS
Info:     PISTON TEMPERATURE IS 300 K
Info:       PRESSURE CONTROL IS GROUP-BASED
Info:    INITIAL STRAIN RATE IS 0.000620429 0.000620429 0.000620429
Info:       CELL FLUCTUATION IS ISOTROPIC
Info: PARTICLE MESH EWALD (PME) ACTIVE
Info: PME TOLERANCE               1e-06
Info: PME EWALD COEFFICIENT       0.348832
Info: PME INTERPOLATION ORDER     4
Info: PME GRID DIMENSIONS         32 32 32
Info: PME MAXIMUM GRID SPACING    1
Info: PME CALCULATION WILL BE PERFORMED ON GPU
Info: FULL ELECTROSTATIC EVALUATION FREQUENCY      2
Info: USING VERLET I (r-RESPA) MTS SCHEME.
Info: C1 SPLITTING OF LONG RANGE ELECTROSTATICS
Info: PLACING ATOMS IN PATCHES BY HYDROGEN GROUPS
Info: RIGID BONDS TO HYDROGEN : ALL
Info:         ERROR TOLERANCE : 1e-08
Info:          MAX ITERATIONS : 100
Info: RIGID WATER USING SETTLE ALGORITHM
Info: RANDOM NUMBER SEED     1743821605
Info: USE HYDROGEN BONDS?    NO
Info: Using AMBER format force field!
Info: AMBER PARM FILE        mobley_9624458.prmtop
Info: COORDINATE PDB         mobley_9624458.pdb
Info: Exclusions will be read from PARM file!
Info: SCNB (VDW SCALING)     2
Info: USING ARITHMETIC MEAN TO COMBINE L-J SIGMA PARAMETERS
Info: BINARY COORDINATES     mobley_9624458_equil.coor
Info: SUMMARY OF PARAMETERS:
Info: 6 BONDS
Info: 7 ANGLES
Info:   7 HARMONIC
Info:   0 COSINE-BASED
Info: 3 DIHEDRAL
Info: 0 IMPROPER
Info: 0 CROSSTERM
Info: 0 VDW
Info: 21 VDW_PAIRS
Info: 0 NBTHOLE_PAIRS
Info: To read alchdata from file: mobley_9624458.pdb
Info: To read alchflag data from column: 5
Info: STRUCTURE SUMMARY:
Info: 2909 ATOMS
Info: 2908 BONDS
Info: 18 ANGLES
Info: 22 DIHEDRALS
Info: 0 IMPROPERS
Info: 0 CROSSTERMS
Info: 2944 EXCLUSIONS
Info: 2904 RIGID BONDS
Info: ALCH: 0 ATOMS TO DISAPPEAR IN FINAL STATE
Info: ALCH: 11 ATOMS TO APPEAR IN FINAL STATE
Info: 5823 DEGREES OF FREEDOM
Info: 971 HYDROGEN GROUPS
Info: 3 ATOMS IN LARGEST HYDROGEN GROUP
Info: 971 MIGRATION GROUPS
Info: 3 ATOMS IN LARGEST MIGRATION GROUP
Info: TOTAL MASS = 17516.4 amu
Info: TOTAL CHARGE = 0 e
Info: MASS DENSITY = 0.967885 g/cm^3
Info: ATOM DENSITY = 0.0967971 atoms/A^3
Info: ADDED 0 IMPLICIT EXCLUSIONS
Info: NONBONDED TABLE R-SQUARED SPACING: 0.0625
Info: NONBONDED TABLE SIZE: 705 POINTS
Info: REMOVING COM VELOCITY 0.0446591 0.104155 0.150541
Info: Use 3D box decompostion in PME FFT.
Info: Updated CUDA force table with 4096 elements.
Info: Updated CUDA LJ table with 6 x 6 elements.
Info: Found 14 unique exclusion lists needing 24 bytes
TCL: Running for 1500000 steps
ETITLE: TS BOND ANGLE DIHED IMPRP ELECT VDW BOUNDARY MISC KINETIC TOTAL TEMP POTENTIAL TOTALAVG TEMPAVG PRESSURE GPRESSURE VOLUME PRESSAVG GPRESSAVG
ENERGY: 0 1.8379 3.9227 1.2963 0.0000 -10569.2121 1397.0867 0.0000 0.0000 1732.2032 -7432.8653 299.3935 -9165.0685 -7432.8653 299.3935 -340.5706 -264.7244 30052.5451 -340.5706 -264.7244
ENERGY: 300000 1.0727 4.7096 2.1644 0.0000 -10522.1374 1358.5293 0.0000 0.0000 1732.4327 -7423.2287 299.4332 -9155.6615 -7414.4000 300.7018 -886.6265 -860.5704 30398.7053 -271.8844 -221.8439
ENERGY: 600000 1.8726 7.2559 1.5171 0.0000 -10475.5922 1397.1577 0.0000 0.0000 1789.4274 -7278.3614 309.2842 -9067.7888 -7375.4769 301.7222 -163.0055 -145.3586 29966.8476 -108.1342 -39.2178
ENERGY: 900000 0.3527 5.9637 2.8358 0.0000 -10634.0146 1469.1477 0.0000 0.0000 1773.5982 -7382.1165 306.5482 -9155.7147 -7379.4681 302.7966 580.5478 546.2095 29393.3408 -82.3498 -20.2046
ENERGY: 1200000 0.8035 6.4028 1.2566 0.0000 -10594.4457 1420.7255 0.0000 0.0000 1701.9593 -7463.2979 294.1662 -9165.2573 -7384.0788 301.5423 -34.4803 34.6816 29751.7249 -157.8163 -90.0403
ENERGY: 1500000 1.0094 5.5757 1.7775 0.0000 -10347.4230 1301.1989 0.0000 0.0000 1794.0178 -7243.8437 310.0776 -9037.8615 -7376.5561 302.1728 -808.2026 -731.2462 30138.6810 -216.3953 -148.1372
TCL: Running FEP window   2: Lambda1 0.05   Lambda2 0.1    [dLambda 0.05  ]
TCL: Setting parameter firsttimestep to 0
TCL: Setting parameter alchLambda to 0.05
Info: NONBONDED TABLE R-SQUARED SPACING: 0.0625
Info: NONBONDED TABLE SIZE: 705 POINTS
TCL: Setting parameter alchLambda2 to 0.1
Info: NONBONDED TABLE R-SQUARED SPACING: 0.0625
Info: NONBONDED TABLE SIZE: 705 POINTS
TCL: Running for 1500000 steps
ETITLE: TS BOND ANGLE DIHED IMPRP ELECT VDW BOUNDARY MISC KINETIC TOTAL TEMP POTENTIAL TOTALAVG TEMPAVG PRESSURE GPRESSURE VOLUME PRESSAVG GPRESSAVG
ENERGY: 0 1.0094 5.5757 1.7775 0.0000 -10347.4233 1301.8682 0.0000 0.0000 1793.1557 -7244.0368 309.9286 -9037.1925 -7244.0368 309.9286 -819.0233 -725.5127 30138.6810 -819.0233 -725.5127
ENERGY: 300000 0.4728 4.1730 1.0073 0.0000 -10600.4473 1483.1446 0.0000 0.0000 1712.7415 -7398.9080 296.0298 -9111.6495 -7356.1585 300.7612 513.4462 586.1731 29573.8675 -32.7755 37.9945
ENERGY: 600000 0.8705 5.6131 1.7114 0.0000 -10658.6689 1507.0171 0.0000 0.0000 1750.9277 -7392.5291 302.6299 -9143.4569 -7362.5544 300.2220 225.8855 348.3689 30437.6586 -26.0122 42.6151
ENERGY: 900000 1.6438 2.6949 2.0089 0.0000 -10688.4351 1490.3983 0.0000 0.0000 1730.5999 -7461.0893 299.1164 -9191.6892 -7377.2457 300.5983 760.9954 789.4411 29159.2654 -92.6800 -37.5877
ENERGY: 1200000 1.3148 7.8139 1.1893 0.0000 -10471.2659 1333.7449 0.0000 0.0000 1711.7915 -7415.4115 295.8656 -9127.2030 -7386.0467 300.1227 -789.7263 -726.3068 29740.1275 -160.1632 -102.0672
ENERGY: 1500000 1.1866 2.1656 1.9095 0.0000 -10646.8362 1498.7724 0.0000 0.0000 1727.6640 -7415.1381 298.6090 -9142.8020 -7388.1999 300.5131 506.0812 616.7114 29777.3152 -120.0254 -56.2033
TCL: Running FEP window   3: Lambda1 0.1    Lambda2 0.15000000000000002 [dLambda 0.05000000000000002]
TCL: Setting parameter firsttimestep to 0
TCL: Setting parameter alchLambda to 0.1
Info: NONBONDED TABLE R-SQUARED SPACING: 0.0625
Info: NONBONDED TABLE SIZE: 705 POINTS
TCL: Setting parameter alchLambda2 to 0.15000000000000002
Info: NONBONDED TABLE R-SQUARED SPACING: 0.0625
Info: NONBONDED TABLE SIZE: 705 POINTS
TCL: Running for 1500000 steps
ETITLE: TS BOND ANGLE DIHED IMPRP ELECT VDW BOUNDARY MISC KINETIC TOTAL TEMP POTENTIAL TOTALAVG TEMPAVG PRESSURE GPRESSURE VOLUME PRESSAVG GPRESSAVG
ENERGY: 0 1.1866 2.1656 1.9095 0.0000 -10646.8372 1500.5548 0.0000 0.0000 1726.7889 -7414.2317 298.4577 -9141.0207 -7414.2317 298.4577 526.9408 625.0668 29777.3152 526.9408 625.0668
ENERGY: 300000 3.7297 2.6399 0.8969 0.0000 -10548.2131 1440.9151 0.0000 0.0000 1665.9397 -7434.0919 287.9406 -9100.0316 -7424.0515 294.9134 -302.4612 -192.3631 30502.6031 246.4299 319.7944
ENERGY: 600000 1.6801 4.4887 1.2466 0.0000 -10515.3036 1313.7919 0.0000 0.0000 1759.7357 -7434.3607 304.1523 -9194.0964 -7419.9315 297.2775 -1005.2087 -999.8781 29677.4404 112.2058 164.8210
ENERGY: 900000 1.0357 8.1244 2.0017 0.0000 -10595.9741 1497.7463 0.0000 0.0000 1793.4610 -7293.6050 309.9813 -9087.0660 -7398.5430 298.5799 1031.0053 1077.4682 29232.1298 208.9669 266.8175
ENERGY: 1200000 0.8067 1.9070 0.9391 0.0000 -10578.7020 1459.7397 0.0000 0.0000 1743.3147 -7371.9947 301.3141 -9115.3094 -7392.4212 299.0721 455.9034 521.1788 29655.6093 207.1882 264.3587
ENERGY: 1500000 1.6141 2.2979 1.3231 0.0000 -10724.3594 1515.5834 0.0000 0.0000 1691.2961 -7512.2448 292.3232 -9203.5409 -7389.1286 299.6658 638.5110 711.1860 29523.0240 239.3538 298.7316
TCL: Running FEP window   4: Lambda1 0.15000000000000002 Lambda2 0.2    [dLambda 0.04999999999999999]
TCL: Setting parameter firsttimestep to 0
TCL: Setting parameter alchLambda to 0.15000000000000002
Info: NONBONDED TABLE R-SQUARED SPACING: 0.0625
Info: NONBONDED TABLE SIZE: 705 POINTS
TCL: Setting parameter alchLambda2 to 0.2
Info: NONBONDED TABLE R-SQUARED SPACING: 0.0625
Info: NONBONDED TABLE SIZE: 705 POINTS
TCL: Running for 1500000 steps
ETITLE: TS BOND ANGLE DIHED IMPRP ELECT VDW BOUNDARY MISC KINETIC TOTAL TEMP POTENTIAL TOTALAVG TEMPAVG PRESSURE GPRESSURE VOLUME PRESSAVG GPRESSAVG
ENERGY: 0 1.6141 2.2979 1.3231 0.0000 -10724.3601 1517.7783 0.0000 0.0000 1690.4526 -7510.8941 292.1774 -9201.3468 -7510.8941 292.1774 636.0064 719.7170 29523.0240 636.0064 719.7170
ENERGY: 300000 1.3290 4.2618 1.3644 0.0000 -10656.1754 1417.1646 0.0000 0.0000 1767.5426 -7464.5131 305.5016 -9232.0557 -7427.3732 299.6011 -254.1490 -220.9296 29708.9824 -71.5687 -5.2101
ENERGY: 600000 1.3214 5.5316 1.9918 0.0000 -10600.1899 1435.7241 0.0000 0.0000 1806.1875 -7349.4334 312.1810 -9155.6209 -7399.2496 302.8867 -73.9198 11.3239 29930.0890 -165.7189 -91.3886
ENERGY: 900000 1.4809 5.9378 1.1855 0.0000 -10447.8039 1411.6809 0.0000 0.0000 1696.6775 -7330.8413 293.2533 -9027.5188 -7382.2816 301.1099 264.9800 274.5415 29694.3174 -164.1225 -106.3815
ENERGY: 1200000 1.0949 5.7320 2.3629 0.0000 -10517.4847 1390.3528 0.0000 0.0000 1722.8386 -7395.1035 297.7750 -9117.9421 -7379.4929 300.9808 -238.4105 -120.8026 29954.9679 -245.2159 -189.3167
ENERGY: 1500000 0.3424 4.7131 2.5142 0.0000 -10749.0178 1531.8961 0.0000 0.0000 1751.0671 -7458.4849 302.6540 -9209.5520 -7387.4692 301.4066 772.7056 798.8847 29625.9368 -155.6260 -103.1601
TCL: Running FEP window   5: Lambda1 0.2    Lambda2 0.25   [dLambda 0.04999999999999999]
TCL: Setting parameter firsttimestep to 0
TCL: Setting parameter alchLambda to 0.2
Info: NONBONDED TABLE R-SQUARED SPACING: 0.0625
Info: NONBONDED TABLE SIZE: 705 POINTS
TCL: Setting parameter alchLambda2 to 0.25
Info: NONBONDED TABLE R-SQUARED SPACING: 0.0625
Info: NONBONDED TABLE SIZE: 705 POINTS
TCL: Running for 1500000 steps
ETITLE: TS BOND ANGLE DIHED IMPRP ELECT VDW BOUNDARY MISC KINETIC TOTAL TEMP POTENTIAL TOTALAVG TEMPAVG PRESSURE GPRESSURE VOLUME PRESSAVG GPRESSAVG
ENERGY: 0 0.3424 4.7131 2.5142 0.0000 -10749.0181 1532.0123 0.0000 0.0000 1750.2374 -7459.1987 302.5106 -9209.4361 -7459.1987 302.5106 719.4455 802.0062 29625.9368 719.4455 802.0062
ENERGY: 300000 0.4819 3.9440 1.6847 0.0000 -10580.7549 1467.4899 0.0000 0.0000 1719.2392 -7387.9153 297.1529 -9107.1546 -7385.5639 301.1881 215.1598 256.2520 30210.2845 -170.3549 -84.7787
ENERGY: 600000 0.7770 5.3300 2.1974 0.0000 -10429.1285 1308.0747 0.0000 0.0000 1757.0576 -7355.6918 303.6894 -9112.7493 -7384.4143 302.0126 -930.4523 -881.8900 29982.2201 -13.5359 58.0670
ENERGY: 900000 1.3619 3.2097 0.8810 0.0000 -10388.4413 1323.5847 0.0000 0.0000 1757.5092 -7301.8948 303.7674 -9059.4040 -7379.9400 303.3855 -860.7129 -732.1381 30311.1036 -54.5209 22.2188
ENERGY: 1200000 1.7765 4.3161 1.0296 0.0000 -10675.8805 1518.9523 0.0000 0.0000 1766.5248 -7383.2813 305.3257 -9149.8061 -7380.2190 302.1440 526.9783 627.4312 29927.8944 55.1452 130.1416
ENERGY: 1500000 0.3865 6.0361 2.1530 0.0000 -10556.6235 1477.9037 0.0000 0.0000 1756.8448 -7313.2993 303.6526 -9070.1441 -7380.5630 302.3864 570.4213 578.5712 29984.3658 22.9673 94.1255
TCL: Running FEP window   6: Lambda1 0.25   Lambda2 0.3    [dLambda 0.04999999999999999]
TCL: Setting parameter firsttimestep to 0
TCL: Setting parameter alchLambda to 0.25
Info: NONBONDED TABLE R-SQUARED SPACING: 0.0625
Info: NONBONDED TABLE SIZE: 705 POINTS
TCL: Setting parameter alchLambda2 to 0.3
Info: NONBONDED TABLE R-SQUARED SPACING: 0.0625
Info: NONBONDED TABLE SIZE: 705 POINTS
TCL: Running for 1500000 steps
ETITLE: TS BOND ANGLE DIHED IMPRP ELECT VDW BOUNDARY MISC KINETIC TOTAL TEMP POTENTIAL TOTALAVG TEMPAVG PRESSURE GPRESSURE VOLUME PRESSAVG GPRESSAVG
ENERGY: 0 0.3865 6.0361 2.1530 0.0000 -10556.6248 1477.7203 0.0000 0.0000 1755.9635 -7314.3654 303.5003 -9070.3289 -7314.3654 303.5003 493.9169 577.6309 29984.3658 493.9169 577.6309
ENERGY: 300000 1.0805 3.4094 1.5995 0.0000 -10641.9817 1491.1481 0.0000 0.0000 1721.2457 -7423.4985 297.4996 -9144.7441 -7363.8399 301.3378 600.7238 628.7415 29585.1638 -74.1604 -16.7614
ENERGY: 600000 1.5961 2.7895 1.6516 0.0000 -10577.1073 1400.8445 0.0000 0.0000 1690.2256 -7480.0001 292.1382 -9170.2257 -7376.3036 300.3202 -503.8486 -507.2730 29987.7121 -98.9486 -52.5328
ENERGY: 900000 0.3630 6.3745 1.5045 0.0000 -10439.3393 1328.0813 0.0000 0.0000 1736.1427 -7366.8733 300.0744 -9103.0160 -7376.6435 299.7254 -623.5931 -602.0053 29981.7665 -67.5995 -14.6745
ENERGY: 1200000 0.7826 5.4679 0.8181 0.0000 -10646.9720 1514.0107 0.0000 0.0000 1773.5226 -7352.3701 306.5352 -9125.8927 -7381.5197 299.9957 588.3554 665.2363 30139.7056 -15.6245 40.0968
ENERGY: 1500000 1.2374 6.8312 1.4427 0.0000 -10420.5713 1312.0364 0.0000 0.0000 1722.8827 -7376.1409 297.7826 -9099.0235 -7376.6450 299.9274 -817.8170 -870.9482 30192.8904 -93.7113 -44.5649
TCL: Running FEP window   7: Lambda1 0.3    Lambda2 0.35   [dLambda 0.04999999999999999]
TCL: Setting parameter firsttimestep to 0
TCL: Setting parameter alchLambda to 0.3
Info: NONBONDED TABLE R-SQUARED SPACING: 0.0625
Info: NONBONDED TABLE SIZE: 705 POINTS
TCL: Setting parameter alchLambda2 to 0.35
Info: NONBONDED TABLE R-SQUARED SPACING: 0.0625
Info: NONBONDED TABLE SIZE: 705 POINTS
TCL: Running for 1500000 steps
ETITLE: TS BOND ANGLE DIHED IMPRP ELECT VDW BOUNDARY MISC KINETIC TOTAL TEMP POTENTIAL TOTALAVG TEMPAVG PRESSURE GPRESSURE VOLUME PRESSAVG GPRESSAVG
ENERGY: 0 1.2374 6.8312 1.4427 0.0000 -10420.5719 1311.7913 0.0000 0.0000 1721.9904 -7377.2788 297.6284 -9099.2692 -7377.2788 297.6284 -940.0344 -868.8284 30192.8904 -940.0344 -868.8284
ENERGY: 300000 0.7956 3.2648 1.8453 0.0000 -10529.1857 1401.9600 0.0000 0.0000 1749.3536 -7371.9664 302.3578 -9121.3200 -7337.2546 302.2860 -271.8330 -289.2142 30540.5985 -191.9951 -146.6028
ENERGY: 600000 3.0637 3.1570 1.4695 0.0000 -10544.5155 1365.9194 0.0000 0.0000 1765.1586 -7405.7473 305.0895 -9170.9058 -7347.9487 302.0145 -469.7379 -413.6352 29853.4865 -53.2304 -7.1458
ENERGY: 900000 1.3395 4.9566 1.3772 0.0000 -10336.2645 1345.0981 0.0000 0.0000 1765.7691 -7217.7240 305.1951 -8983.4931 -7343.5088 301.6590 -45.8040 25.1909 30150.4006 -72.9482 -21.9334
ENERGY: 1200000 1.5670 3.2047 2.7271 0.0000 -10473.7644 1390.9261 0.0000 0.0000 1790.2817 -7285.0578 309.4318 -9075.3395 -7337.2852 301.8961 99.3241 190.3685 29592.6711 -97.0034 -40.9497
ENERGY: 1500000 1.1769 4.0319 1.0807 0.0000 -10526.1806 1438.2979 0.0000 0.0000 1745.2699 -7336.3233 301.6520 -9081.5932 -7340.1712 301.6768 207.2288 295.1759 30092.6673 -123.3399 -65.9025
TCL: Running FEP window   8: Lambda1 0.35   Lambda2 0.39999999999999997 [dLambda 0.04999999999999999]
TCL: Setting parameter firsttimestep to 0
TCL: Setting parameter alchLambda to 0.35
Info: NONBONDED TABLE R-SQUARED SPACING: 0.0625
Info: NONBONDED TABLE SIZE: 705 POINTS
TCL: Setting parameter alchLambda2 to 0.39999999999999997
Info: NONBONDED TABLE R-SQUARED SPACING: 0.0625
Info: NONBONDED TABLE SIZE: 705 POINTS
TCL: Running for 1500000 steps
ETITLE: TS BOND ANGLE DIHED IMPRP ELECT VDW BOUNDARY MISC KINETIC TOTAL TEMP POTENTIAL TOTALAVG TEMPAVG PRESSURE GPRESSURE VOLUME PRESSAVG GPRESSAVG
ENERGY: 0 1.1769 4.0319 1.0807 0.0000 -10526.1813 1437.8975 0.0000 0.0000 1744.3618 -7337.6325 301.4950 -9081.9944 -7337.6325 301.4950 224.0075 297.6718 30092.6673 224.0075 297.6718
ENERGY: 300000 1.4345 3.2790 1.7337 0.0000 -10452.2374 1336.7534 0.0000 0.0000 1721.8964 -7387.1403 297.6121 -9109.0367 -7375.7638 300.9986 -772.7977 -759.4388 30354.1153 -368.9844 -292.1817
ENERGY: 600000 1.8416 7.1636 1.5301 0.0000 -10602.8913 1444.7188 0.0000 0.0000 1777.0764 -7370.5607 307.1494 -9147.6372 -7373.2787 301.2657 -43.9152 2.9543 29990.5715 -221.3429 -154.6064
ENERGY: 900000 1.3267 4.5087 1.3850 0.0000 -10458.6188 1388.7381 0.0000 0.0000 1646.9703 -7415.6901 284.6619 -9062.6603 -7381.2082 299.6743 -154.9377 -112.7628 29759.7249 -159.6615 -90.7564
ENERGY: 1200000 2.7809 2.9416 3.1713 0.0000 -10523.4015 1377.3927 0.0000 0.0000 1743.1642 -7393.9508 301.2880 -9137.1150 -7392.0804 298.8046 -473.1999 -489.3380 30065.5314 -153.0400 -85.0050
ENERGY: 1500000 0.5100 1.9946 2.5319 0.0000 -10419.3715 1336.4070 0.0000 0.0000 1679.5029 -7398.4252 290.2848 -9077.9281 -7388.0340 298.9778 -633.8696 -566.0501 29819.3921 -175.7629 -103.3670
TCL: Running FEP window   9: Lambda1 0.39999999999999997 Lambda2 0.44999999999999996 [dLambda 0.04999999999999999]
TCL: Setting parameter firsttimestep to 0
TCL: Setting parameter alchLambda to 0.39999999999999997
Info: NONBONDED TABLE R-SQUARED SPACING: 0.0625
Info: NONBONDED TABLE SIZE: 705 POINTS
TCL: Setting parameter alchLambda2 to 0.44999999999999996
Info: NONBONDED TABLE R-SQUARED SPACING: 0.0625
Info: NONBONDED TABLE SIZE: 705 POINTS
TCL: Running for 1500000 steps
ETITLE: TS BOND ANGLE DIHED IMPRP ELECT VDW BOUNDARY MISC KINETIC TOTAL TEMP POTENTIAL TOTALAVG TEMPAVG PRESSURE GPRESSURE VOLUME PRESSAVG GPRESSAVG
ENERGY: 0 0.5100 1.9946 2.5319 0.0000 -10419.3737 1336.2509 0.0000 0.0000 1678.6262 -7399.4601 290.1333 -9078.0863 -7399.4601 290.1333 -645.6262 -563.9386 29819.3921 -645.6262 -563.9386
ENERGY: 300000 3.6938 7.2402 1.8574 0.0000 -10621.7138 1490.4008 0.0000 0.0000 1832.3880 -7286.1336 316.7095 -9118.5217 -7396.6470 301.7151 466.5816 571.4616 29759.4674 126.5583 180.9928
ENERGY: 600000 1.0764 3.9604 2.4608 0.0000 -10712.3184 1479.6383 0.0000 0.0000 1774.6487 -7450.5338 306.7298 -9225.1825 -7384.2305 302.0697 356.3484 442.3629 29493.9133 108.8990 163.6820
ENERGY: 900000 1.1829 6.3759 1.6882 0.0000 -10549.0802 1439.9899 0.0000 0.0000 1737.6654 -7362.1780 300.3376 -9099.8433 -7378.8589 302.8522 74.3158 183.4971 30062.7948 97.6905 154.5434
ENERGY: 1200000 1.7855 6.3332 0.9466 0.0000 -10564.6763 1391.2612 0.0000 0.0000 1751.1351 -7413.2147 302.6657 -9164.3498 -7382.9061 302.3677 -244.0623 -221.0616 29716.7519 78.7205 136.5969
ENERGY: 1500000 0.7533 2.6347 2.1512 0.0000 -10594.4649 1367.9087 0.0000 0.0000 1731.5691 -7489.4479 299.2839 -9221.0170 -7393.1656 302.1441 -397.7130 -329.0346 29762.2875 60.8715 114.5422
TCL: Running FEP window  10: Lambda1 0.44999999999999996 Lambda2 0.49999999999999994 [dLambda 0.04999999999999999]
TCL: Setting parameter firsttimestep to 0
TCL: Setting parameter alchLambda to 0.44999999999999996
Info: NONBONDED TABLE R-SQUARED SPACING: 0.0625
Info: NONBONDED TABLE SIZE: 705 POINTS
TCL: Setting parameter alchLambda2 to 0.49999999999999994
Info: NONBONDED TABLE R-SQUARED SPACING: 0.0625
Info: NONBONDED TABLE SIZE: 705 POINTS
TCL: Running for 1500000 steps
ETITLE: TS BOND ANGLE DIHED IMPRP ELECT VDW BOUNDARY MISC KINETIC TOTAL TEMP POTENTIAL TOTALAVG TEMPAVG PRESSURE GPRESSURE VOLUME PRESSAVG GPRESSAVG
ENERGY: 0 0.7533 2.6347 2.1512 0.0000 -10594.4657 1367.6564 0.0000 0.0000 1730.7086 -7490.5614 299.1352 -9221.2700 -7490.5614 299.1352 -401.8251 -327.7410 29762.2875 -401.8251 -327.7410
ENERGY: 300000 1.3861 3.6751 1.5765 0.0000 -10468.5048 1403.6172 0.0000 0.0000 1729.6160 -7328.6339 298.9464 -9058.2499 -7383.5497 299.3692 126.0644 179.9001 29820.6812 -242.5093 -174.7984
ENERGY: 600000 0.8500 7.0235 1.7774 0.0000 -10582.5457 1401.9905 0.0000 0.0000 1727.6727 -7443.2316 298.6105 -9170.9044 -7388.6703 299.4853 -90.2654 -10.9982 29496.3075 -235.2775 -161.1471
ENERGY: 900000 1.1123 3.4951 1.7519 0.0000 -10569.1839 1389.7993 0.0000 0.0000 1775.6996 -7397.3257 306.9115 -9173.0253 -7377.2291 301.5896 -196.9655 -83.5714 29820.3030 -149.7549 -70.1212
ENERGY: 1200000 1.2990 4.8538 0.9220 0.0000 -10480.8007 1386.2980 0.0000 0.0000 1757.5515 -7329.8764 303.7747 -9087.4279 -7370.9758 302.2858 -314.1857 -254.4271 30265.1727 -62.2116 8.2917
ENERGY: 1500000 1.0350 4.9640 3.4224 0.0000 -10585.1355 1456.5451 0.0000 0.0000 1723.2049 -7395.9642 297.8383 -9119.1690 -7379.2524 301.6780 170.4550 200.9238 29941.8900 43.3755 105.2109
TCL: Running FEP window  11: Lambda1 0.49999999999999994 Lambda2 0.5499999999999999 [dLambda 0.04999999999999999]
TCL: Setting parameter firsttimestep to 0
TCL: Setting parameter alchLambda to 0.49999999999999994
Info: NONBONDED TABLE R-SQUARED SPACING: 0.0625
Info: NONBONDED TABLE SIZE: 705 POINTS
TCL: Setting parameter alchLambda2 to 0.5499999999999999
Info: NONBONDED TABLE R-SQUARED SPACING: 0.0625
Info: NONBONDED TABLE SIZE: 705 POINTS
TCL: Running for 1500000 steps
ETITLE: TS BOND ANGLE DIHED IMPRP ELECT VDW BOUNDARY MISC KINETIC TOTAL TEMP POTENTIAL TOTALAVG TEMPAVG PRESSURE GPRESSURE VOLUME PRESSAVG GPRESSAVG
ENERGY: 0 1.0350 4.9640 3.4224 0.0000 -10585.1347 1456.6294 0.0000 0.0000 1722.3209 -7396.7630 297.6855 -9119.0839 -7396.7630 297.6855 120.7882 208.2248 29941.8900 120.7882 208.2248
ENERGY: 300000 0.3967 3.4658 1.0630 0.0000 -10553.4419 1384.0687 0.0000 0.0000 1778.4118 -7386.0360 307.3802 -9164.4477 -7394.9780 302.1737 -340.6631 -281.1906 29721.1645 2.8975 75.7538
ENERGY: 600000 1.3823 4.3064 1.4301 0.0000 -10530.8069 1386.1635 0.0000 0.0000 1726.0242 -7411.5004 298.3256 -9137.5246 -7418.3667 299.4683 -502.0621 -427.4293 30118.5035 -137.8172 -61.2702
ENERGY: 900000 4.4918 6.7267 1.0020 0.0000 -10404.3600 1364.0269 0.0000 0.0000 1736.8673 -7291.2453 300.1997 -9028.1126 -7397.0514 299.9825 -74.8773 2.4305 30052.1609 -46.9388 21.6137
ENERGY: 1200000 0.3764 4.3709 1.7082 0.0000 -10580.9529 1379.8623 0.0000 0.0000 1736.5530 -7458.0822 300.1454 -9194.6352 -7408.3119 299.3610 -462.2822 -410.2599 29815.7369 -62.4496 -2.0936
ENERGY: 1500000 1.9963 3.2097 1.0258 0.0000 -10581.9472 1367.8240 0.0000 0.0000 1721.6975 -7486.1939 297.5777 -9207.8914 -7406.6877 299.5173 -847.6784 -728.3579 29988.9874 -65.0739 3.7026
TCL: Running FEP window  12: Lambda1 0.5499999999999999 Lambda2 0.6    [dLambda 0.050000000000000044]
TCL: Setting parameter firsttimestep to 0
TCL: Setting parameter alchLambda to 0.5499999999999999
Info: NONBONDED TABLE R-SQUARED SPACING: 0.0625
Info: NONBONDED TABLE SIZE: 705 POINTS
TCL: Setting parameter alchLambda2 to 0.6
Info: NONBONDED TABLE R-SQUARED SPACING: 0.0625
Info: NONBONDED TABLE SIZE: 705 POINTS
TCL: Running for 1500000 steps
ETITLE: TS BOND ANGLE DIHED IMPRP ELECT VDW BOUNDARY MISC KINETIC TOTAL TEMP POTENTIAL TOTALAVG TEMPAVG PRESSURE GPRESSURE VOLUME PRESSAVG GPRESSAVG
ENERGY: 0 1.9963 3.2097 1.0258 0.0000 -10581.7337 1367.6308 0.0000 0.0000 1720.8035 -7487.0676 297.4232 -9207.8712 -7487.0676 297.4232 -817.3915 -723.3510 29988.9874 -817.3915 -723.3510
ENERGY: 300000 0.9450 5.3665 2.1154 0.0000 -10639.2868 1478.5870 0.0000 0.0000 1819.2537 -7333.0192 314.4393 -9152.2729 -7387.8568 302.8767 418.9236 512.8656 29922.0822 -16.5472 60.1304
ENERGY: 600000 1.8126 4.3355 1.4797 0.0000 -10532.9626 1436.5493 0.0000 0.0000 1800.7647 -7288.0209 311.2437 -9088.7856 -7370.8836 303.5226 343.9957 411.0638 29842.7493 -12.2027 58.0806
ENERGY: 900000 1.9624 2.7489 0.8760 0.0000 -10462.1703 1352.9302 0.0000 0.0000 1695.5993 -7408.0535 293.0669 -9103.6528 -7383.8049 300.0854 -658.1716 -585.5775 30113.3245 -228.1908 -151.3629
ENERGY: 1200000 1.0069 3.4503 2.2532 0.0000 -10497.8751 1398.3995 0.0000 0.0000 1699.4050 -7393.3602 293.7247 -9092.7652 -7386.1028 298.9807 15.3834 48.4367 30066.5851 -198.0603 -118.9413
ENERGY: 1500000 0.4606 3.3046 1.3046 0.0000 -10502.4053 1397.5918 0.0000 0.0000 1689.4505 -7410.2933 292.0042 -9099.7438 -7387.1030 299.2620 -307.6428 -306.9742 30362.5791 -209.7051 -130.8072
TCL: Running FEP window  13: Lambda1 0.6    Lambda2 0.65   [dLambda 0.050000000000000044]
TCL: Setting parameter firsttimestep to 0
TCL: Setting parameter alchLambda to 0.6
Info: NONBONDED TABLE R-SQUARED SPACING: 0.0625
Info: NONBONDED TABLE SIZE: 705 POINTS
TCL: Setting parameter alchLambda2 to 0.65
Info: NONBONDED TABLE R-SQUARED SPACING: 0.0625
Info: NONBONDED TABLE SIZE: 705 POINTS
TCL: Running for 1500000 steps
ETITLE: TS BOND ANGLE DIHED IMPRP ELECT VDW BOUNDARY MISC KINETIC TOTAL TEMP POTENTIAL TOTALAVG TEMPAVG PRESSURE GPRESSURE VOLUME PRESSAVG GPRESSAVG
ENERGY: 0 0.4606 3.3046 1.3046 0.0000 -10502.4188 1397.5240 0.0000 0.0000 1688.5916 -7411.2334 291.8557 -9099.8251 -7411.2334 291.8557 -384.2511 -301.6628 30362.5791 -384.2511 -301.6628
ENERGY: 300000 0.4301 1.7949 0.9800 0.0000 -10552.5555 1368.9665 0.0000 0.0000 1756.6949 -7423.6892 303.6267 -9180.3840 -7392.4030 300.4802 -497.3446 -475.6309 30020.0889 -271.9305 -225.4489
ENERGY: 600000 0.9366 3.9386 1.3850 0.0000 -10631.6239 1469.2850 0.0000 0.0000 1731.7271 -7424.3515 299.3113 -9156.0786 -7407.7501 301.1125 289.4376 387.1356 29825.1992 -14.1255 35.2454
ENERGY: 900000 1.0538 5.4739 1.2548 0.0000 -10463.1532 1347.0819 0.0000 0.0000 1718.0023 -7390.2866 296.9391 -9108.2889 -7390.5735 301.0681 -575.7401 -499.2351 30061.0245 -210.3849 -149.2710
ENERGY: 1200000 0.2454 3.3754 1.2069 0.0000 -10388.0141 1375.1663 0.0000 0.0000 1741.0364 -7266.9837 300.9203 -9008.0201 -7373.7730 300.9969 -284.5362 -259.8171 30623.3875 -152.4912 -97.9491
ENERGY: 1500000 0.4063 2.3203 1.5946 0.0000 -10553.0209 1470.9885 0.0000 0.0000 1756.3644 -7321.3469 303.5696 -9077.7113 -7372.0511 300.6543 553.3181 571.6348 29951.6909 -75.5145 -22.3321
TCL: Running FEP window  14: Lambda1 0.65   Lambda2 0.7000000000000001 [dLambda 0.050000000000000044]
TCL: Setting parameter firsttimestep to 0
TCL: Setting parameter alchLambda to 0.65
Info: NONBONDED TABLE R-SQUARED SPACING: 0.0625
Info: NONBONDED TABLE SIZE: 705 POINTS
TCL: Setting parameter alchLambda2 to 0.7000000000000001
Info: NONBONDED TABLE R-SQUARED SPACING: 0.0625
Info: NONBONDED TABLE SIZE: 705 POINTS
TCL: Running for 1500000 steps
ETITLE: TS BOND ANGLE DIHED IMPRP ELECT VDW BOUNDARY MISC KINETIC TOTAL TEMP POTENTIAL TOTALAVG TEMPAVG PRESSURE GPRESSURE VOLUME PRESSAVG GPRESSAVG
ENERGY: 0 0.4063 2.3203 1.5946 0.0000 -10553.2775 1470.6300 0.0000 0.0000 1755.4821 -7322.8442 303.4171 -9078.3263 -7322.8442 303.4171 487.2050 575.3664 29951.6909 487.2050 575.3664
ENERGY: 300000 1.2263 6.4777 2.9332 0.0000 -10581.9305 1492.4706 0.0000 0.0000 1721.8051 -7357.0176 297.5963 -9078.8227 -7365.6598 299.8267 444.3095 564.3878 30185.5932 216.0977 293.3799
ENERGY: 600000 2.1747 7.5758 0.8633 0.0000 -10547.7129 1387.9407 0.0000 0.0000 1739.3926 -7409.7658 300.6362 -9149.1584 -7391.2506 299.8280 -267.0146 -174.9094 29957.8778 88.7937 168.2348
ENERGY: 900000 0.5762 4.2118 1.0018 0.0000 -10630.4794 1451.9510 0.0000 0.0000 1701.1073 -7471.6314 294.0189 -9172.7387 -7402.1906 299.3417 38.8024 85.3138 30146.1415 95.5726 172.5799
ENERGY: 1200000 1.4183 3.4140 3.4176 0.0000 -10569.2566 1402.1365 0.0000 0.0000 1718.7372 -7440.1331 297.0661 -9158.8702 -7406.0161 299.0727 -135.0109 -92.0047 30186.7554 58.9850 131.4684
ENERGY: 1500000 0.3871 2.3908 1.9744 0.0000 -10471.9584 1352.6460 0.0000 0.0000 1782.2180 -7332.3422 308.0381 -9114.5601 -7397.6169 300.1494 -561.4024 -443.9376 30222.0052 -2.2459 69.6956
TCL: Running FEP window  15: Lambda1 0.7000000000000001 Lambda2 0.7500000000000001 [dLambda 0.050000000000000044]
TCL: Setting parameter firsttimestep to 0
TCL: Setting parameter alchLambda to 0.7000000000000001
Info: NONBONDED TABLE R-SQUARED SPACING: 0.0625
Info: NONBONDED TABLE SIZE: 705 POINTS
TCL: Setting parameter alchLambda2 to 0.7500000000000001
Info: NONBONDED TABLE R-SQUARED SPACING: 0.0625
Info: NONBONDED TABLE SIZE: 705 POINTS
TCL: Running for 1500000 steps
ETITLE: TS BOND ANGLE DIHED IMPRP ELECT VDW BOUNDARY MISC KINETIC TOTAL TEMP POTENTIAL TOTALAVG TEMPAVG PRESSURE GPRESSURE VOLUME PRESSAVG GPRESSAVG
ENERGY: 0 0.3871 2.3908 1.9744 0.0000 -10472.2055 1352.4590 0.0000 0.0000 1781.3357 -7333.6585 307.8856 -9114.9943 -7333.6585 307.8856 -524.3794 -442.1011 30222.0052 -524.3794 -442.1011
ENERGY: 300000 1.6425 6.9584 1.1417 0.0000 -10609.4943 1451.3159 0.0000 0.0000 1793.1090 -7355.3267 309.9205 -9148.4358 -7333.9123 304.9104 162.7336 236.1439 29868.1918 -96.1746 -23.4351
ENERGY: 600000 1.4649 5.1680 1.3870 0.0000 -10555.6634 1365.9316 0.0000 0.0000 1716.1278 -7465.5841 296.6151 -9181.7119 -7337.7139 304.8577 -813.5509 -747.3176 30548.6814 -360.6844 -289.2660
ENERGY: 900000 2.5517 5.3276 1.7383 0.0000 -10484.2230 1376.2368 0.0000 0.0000 1697.5375 -7400.8312 293.4019 -9098.3687 -7348.6135 303.3230 -438.2854 -364.7948 30275.2623 -277.5941 -208.0926
ENERGY: 1200000 0.5095 5.9715 2.3361 0.0000 -10472.2889 1358.8796 0.0000 0.0000 1729.2310 -7375.3612 298.8798 -9104.5921 -7359.7542 301.5069 -171.0370 -50.4237 29728.6791 -262.1385 -184.2160
ENERGY: 1500000 3.8497 7.1044 1.5405 0.0000 -10394.7889 1299.4129 0.0000 0.0000 1739.6391 -7343.2422 300.6788 -9082.8814 -7357.3474 300.9559 -1047.9077 -943.8355 30168.9328 -256.1587 -180.0968
TCL: Running FEP window  16: Lambda1 0.7500000000000001 Lambda2 0.8000000000000002 [dLambda 0.050000000000000044]
TCL: Setting parameter firsttimestep to 0
TCL: Setting parameter alchLambda to 0.7500000000000001
Info: NONBONDED TABLE R-SQUARED SPACING: 0.0625
Info: NONBONDED TABLE SIZE: 705 POINTS
TCL: Setting parameter alchLambda2 to 0.8000000000000002
Info: NONBONDED TABLE R-SQUARED SPACING: 0.0625
Info: NONBONDED TABLE SIZE: 705 POINTS
TCL: Running for 1500000 steps
ETITLE: TS BOND ANGLE DIHED IMPRP ELECT VDW BOUNDARY MISC KINETIC TOTAL TEMP POTENTIAL TOTALAVG TEMPAVG PRESSURE GPRESSURE VOLUME PRESSAVG GPRESSAVG
ENERGY: 0 3.8497 7.1044 1.5405 0.0000 -10395.3162 1300.5722 0.0000 0.0000 1738.7756 -7343.4738 300.5295 -9082.2493 -7343.4738 300.5295 -1013.4330 -921.8567 30168.9328 -1013.4330 -921.8567
ENERGY: 300000 0.5466 7.2475 1.5427 0.0000 -10463.8733 1437.5187 0.0000 0.0000 1735.8034 -7281.2145 300.0158 -9017.0179 -7347.7064 299.8807 440.6302 483.5391 29962.9687 -193.4452 -105.8058
ENERGY: 600000 1.6206 3.8804 1.2702 0.0000 -10661.3543 1480.8841 0.0000 0.0000 1708.0058 -7465.6931 295.2113 -9173.6990 -7375.3610 299.9794 577.3716 634.2457 29701.6993 -16.3685 59.9849
ENERGY: 900000 0.1035 4.4001 1.2618 0.0000 -10566.5065 1383.0569 0.0000 0.0000 1720.6850 -7456.9993 297.4027 -9177.6843 -7400.6793 297.8931 -349.6751 -254.1415 29795.4684 -22.2562 53.7966
ENERGY: 1200000 0.4969 9.9668 1.9502 0.0000 -10398.9168 1342.9413 0.0000 0.0000 1722.4916 -7321.0701 297.7150 -9043.5617 -7392.4384 297.9547 -542.0102 -469.9286 30091.5614 -141.6854 -77.2725
ENERGY: 1500000 2.6912 3.6024 1.0964 0.0000 -10499.2182 1392.5459 0.0000 0.0000 1770.2100 -7329.0724 305.9626 -9099.2824 -7392.9928 298.3315 -46.9445 28.6280 29894.5356 -88.5358 -24.4090
TCL: Running FEP window  17: Lambda1 0.8000000000000002 Lambda2 0.8500000000000002 [dLambda 0.050000000000000044]
TCL: Setting parameter firsttimestep to 0
TCL: Setting parameter alchLambda to 0.8000000000000002
Info: NONBONDED TABLE R-SQUARED SPACING: 0.0625
Info: NONBONDED TABLE SIZE: 705 POINTS
TCL: Setting parameter alchLambda2 to 0.8500000000000002
Info: NONBONDED TABLE R-SQUARED SPACING: 0.0625
Info: NONBONDED TABLE SIZE: 705 POINTS
TCL: Running for 1500000 steps
ETITLE: TS BOND ANGLE DIHED IMPRP ELECT VDW BOUNDARY MISC KINETIC TOTAL TEMP POTENTIAL TOTALAVG TEMPAVG PRESSURE GPRESSURE VOLUME PRESSAVG GPRESSAVG
ENERGY: 0 2.6912 3.6024 1.0964 0.0000 -10499.1403 1393.3177 0.0000 0.0000 1769.3597 -7329.0728 305.8157 -9098.4326 -7329.0728 305.8157 -22.0818 47.9551 29894.5356 -22.0818 47.9551
ENERGY: 300000 0.3450 1.9749 0.8023 0.0000 -10695.9068 1496.8188 0.0000 0.0000 1744.6370 -7451.3288 301.5426 -9195.9658 -7346.4749 304.3508 501.1149 561.9895 29705.4568 -122.6974 -49.1652
ENERGY: 600000 1.0699 4.2615 1.1437 0.0000 -10453.1147 1284.4127 0.0000 0.0000 1741.6165 -7420.6104 301.0205 -9162.2269 -7368.4631 302.6704 -1404.8049 -1322.6523 30654.8388 -242.9976 -175.2696
ENERGY: 900000 0.8168 6.5444 1.0854 0.0000 -10526.9390 1373.4701 0.0000 0.0000 1727.2760 -7417.7464 298.5419 -9145.0224 -7383.0841 302.4222 -529.7943 -442.1418 30336.9461 -167.4579 -94.0598
ENERGY: 1200000 2.8375 4.9989 1.7487 0.0000 -10428.0682 1383.5694 0.0000 0.0000 1768.0426 -7266.8712 305.5880 -9034.9138 -7371.4255 302.0525 -177.3206 -103.9108 30024.4254 -180.3692 -110.2221
ENERGY: 1500000 2.0104 3.8176 2.4058 0.0000 -10671.3403 1502.4629 0.0000 0.0000 1764.1086 -7396.5351 304.9081 -9160.6437 -7364.7744 302.7488 715.4690 749.5114 29740.0339 -94.9325 -22.5373
TCL: Running FEP window  18: Lambda1 0.8500000000000002 Lambda2 0.9000000000000002 [dLambda 0.050000000000000044]
TCL: Setting parameter firsttimestep to 0
TCL: Setting parameter alchLambda to 0.8500000000000002
Info: NONBONDED TABLE R-SQUARED SPACING: 0.0625
Info: NONBONDED TABLE SIZE: 705 POINTS
TCL: Setting parameter alchLambda2 to 0.9000000000000002
Info: NONBONDED TABLE R-SQUARED SPACING: 0.0625
Info: NONBONDED TABLE SIZE: 705 POINTS
TCL: Running for 1500000 steps
ETITLE: TS BOND ANGLE DIHED IMPRP ELECT VDW BOUNDARY MISC KINETIC TOTAL TEMP POTENTIAL TOTALAVG TEMPAVG PRESSURE GPRESSURE VOLUME PRESSAVG GPRESSAVG
ENERGY: 0 2.0104 3.8176 2.4058 0.0000 -10671.8929 1502.4073 0.0000 0.0000 1763.2070 -7398.0449 304.7522 -9161.2518 -7398.0449 304.7522 666.7143 757.9396 29740.0339 666.7143 757.9396
ENERGY: 300000 0.7545 4.0166 2.2171 0.0000 -10586.8822 1440.2934 0.0000 0.0000 1687.4421 -7452.1585 291.6571 -9139.6006 -7414.5381 295.8542 360.2969 464.5306 29428.7759 375.6255 431.2523
ENERGY: 600000 0.6244 6.4719 1.9010 0.0000 -10548.8474 1436.9656 0.0000 0.0000 1696.9067 -7405.9778 293.2929 -9102.8845 -7422.3068 295.2194 257.6403 312.2805 29901.7061 305.8171 362.6592
ENERGY: 900000 1.8013 4.4842 0.7792 0.0000 -10652.1848 1460.5219 0.0000 0.0000 1702.0217 -7482.5765 294.1770 -9184.5983 -7407.3241 296.8601 252.1774 279.8790 29791.2336 212.5674 265.0973
ENERGY: 1200000 3.7498 4.4100 1.4993 0.0000 -10528.7649 1469.6687 0.0000 0.0000 1761.9880 -7287.4491 304.5415 -9049.4371 -7402.5572 297.8073 663.2372 720.0457 29940.5442 161.3984 209.7109
ENERGY: 1500000 1.3426 4.6049 0.9098 0.0000 -10622.0014 1451.8156 0.0000 0.0000 1699.7759 -7463.5525 293.7888 -9163.3284 -7401.7476 298.2725 302.1016 397.5170 29605.5613 162.8910 221.5753
TCL: Running FEP window  19: Lambda1 0.9000000000000002 Lambda2 0.9500000000000003 [dLambda 0.050000000000000044]
TCL: Setting parameter firsttimestep to 0
TCL: Setting parameter alchLambda to 0.9000000000000002
Info: NONBONDED TABLE R-SQUARED SPACING: 0.0625
Info: NONBONDED TABLE SIZE: 705 POINTS
TCL: Setting parameter alchLambda2 to 0.9500000000000003
Info: NONBONDED TABLE R-SQUARED SPACING: 0.0625
Info: NONBONDED TABLE SIZE: 705 POINTS
TCL: Running for 1500000 steps
ETITLE: TS BOND ANGLE DIHED IMPRP ELECT VDW BOUNDARY MISC KINETIC TOTAL TEMP POTENTIAL TOTALAVG TEMPAVG PRESSURE GPRESSURE VOLUME PRESSAVG GPRESSAVG
ENERGY: 0 1.3426 4.6049 0.9098 0.0000 -10622.5971 1452.2777 0.0000 0.0000 1698.9151 -7464.5471 293.6400 -9163.4621 -7464.5471 293.6400 320.9547 413.1803 29605.5613 320.9547 413.1803
ENERGY: 300000 2.0568 7.4913 1.3436 0.0000 -10624.2830 1468.7843 0.0000 0.0000 1699.3967 -7445.2103 293.7233 -9144.6070 -7387.4065 300.4699 449.8356 519.5169 29511.8384 130.1975 229.1818
ENERGY: 600000 0.7227 2.9065 1.8693 0.0000 -10606.5582 1495.1460 0.0000 0.0000 1668.0856 -7437.8282 288.3115 -9105.9138 -7391.7067 300.0213 545.8872 595.2846 30128.0482 330.3576 408.7358
ENERGY: 900000 1.2581 3.4301 1.7625 0.0000 -10619.5230 1434.9458 0.0000 0.0000 1729.8490 -7448.2776 298.9866 -9178.1265 -7395.8930 299.8739 176.2545 261.4742 29701.0704 238.1128 310.2389
ENERGY: 1200000 2.2859 2.9853 1.4552 0.0000 -10597.9555 1414.3970 0.0000 0.0000 1729.2061 -7447.6262 298.8755 -9176.8322 -7399.6034 298.3654 31.9995 70.1997 29780.4661 150.1050 215.5677
ENERGY: 1500000 0.6058 5.6249 1.3737 0.0000 -10611.8287 1412.7015 0.0000 0.0000 1698.0506 -7493.4722 293.4906 -9191.5228 -7403.2922 299.3312 -107.4113 -90.7873 29840.9365 118.8020 179.2152
TCL: Running FEP window  20: Lambda1 0.9500000000000003 Lambda2 1.0    [dLambda 0.04999999999999971]
TCL: Setting parameter firsttimestep to 0
TCL: Setting parameter alchLambda to 0.9500000000000003
Info: NONBONDED TABLE R-SQUARED SPACING: 0.0625
Info: NONBONDED TABLE SIZE: 705 POINTS
TCL: Setting parameter alchLambda2 to 1.0
Info: NONBONDED TABLE R-SQUARED SPACING: 0.0625
Info: NONBONDED TABLE SIZE: 705 POINTS
TCL: Running for 1500000 steps
ETITLE: TS BOND ANGLE DIHED IMPRP ELECT VDW BOUNDARY MISC KINETIC TOTAL TEMP POTENTIAL TOTALAVG TEMPAVG PRESSURE GPRESSURE VOLUME PRESSAVG GPRESSAVG
ENERGY: 0 0.6058 5.6249 1.3737 0.0000 -10612.3219 1412.2044 0.0000 0.0000 1697.2050 -7495.3082 293.3445 -9192.5131 -7495.3082 293.3445 -161.2808 -89.1525 29840.9365 -161.2808 -89.1525
ENERGY: 300000 0.9618 4.8106 0.9136 0.0000 -10486.4903 1405.6644 0.0000 0.0000 1768.3315 -7305.8084 305.6379 -9074.1398 -7421.1703 296.7633 174.7874 248.5042 30030.2783 -10.6719 50.1418
ENERGY: 600000 0.4293 3.2967 1.0499 0.0000 -10574.4893 1455.8606 0.0000 0.0000 1674.7967 -7439.0561 289.4714 -9113.8529 -7451.6543 295.0340 275.7717 319.3199 29895.2717 60.1116 116.4089
ENERGY: 900000 2.8060 1.8321 1.6630 0.0000 -10493.5060 1335.4892 0.0000 0.0000 1678.5470 -7473.1687 290.1196 -9151.7157 -7444.7064 296.2574 -710.4898 -692.3638 29904.8735 43.7750 106.0115
ENERGY: 1200000 0.4485 3.4216 1.3301 0.0000 -10487.5188 1362.6687 0.0000 0.0000 1732.7712 -7386.8786 299.4917 -9119.6498 -7424.6521 296.9845 -415.3508 -338.7661 30196.8709 -29.3360 29.9855
ENERGY: 1500000 0.6956 5.8750 2.0231 0.0000 -10619.9326 1476.5024 0.0000 0.0000 1729.0476 -7405.7890 298.8481 -9134.8366 -7426.2869 297.3962 372.6605 477.3656 30045.1916 20.1756 78.1048
TCL: Exiting due to exit command.
