Info: SIMULATION PARAMETERS:
Info: TIMESTEP               2
Info: NUMBER OF STEPS        0
Info: STEPS PER CYCLE        10
Info: PERIODIC CELL BASIS 1  31.6871 0 0
Info: PERIODIC CELL BASIS 2  0 30.1514 0
Info: PERIODIC CELL BASIS 3  0 0 31.8579
Info: PERIODIC CELL CENTER   0 0 0
Info: WRAPPING WATERS AROUND PERIODIC BOUNDARIES ON OUTPUT.
Info: WRAPPING ALL CLUSTERS AROUND PERIODIC BOUNDARIES ON OUTPUT.
Info: FIRST LDB TIMESTEP     50
Info: LAST LDB TIMESTEP     -1
Info: HOM BACKGROUND SCALING 1
Info: PME BACKGROUND SCALING 1
Info: MIN ATOMS PER PATCH    40
Info: EMPTY PATCH LOAD       40 ATOMS
Info: VELOCITY FILE          mobley_7708038_equil.vel
Info: CENTER OF MASS MOVING INITIALLY? NO
Info: DIELECTRIC             1
Info: EXCLUDE                SCALED ONE-FOUR
Info: 1-4 ELECTROSTATICS SCALED BY 0.833333
Info: MODIFIED 1-4 VDW PARAMETERS WILL BE USED
Info: DCD FILENAME           mobley_7708038_prod.dcd
Info: DCD FREQUENCY          100000
Info: DCD FIRST STEP         100000
Info: DCD FILE WILL CONTAIN UNIT CELL DATA
Info: XST FILENAME           mobley_7708038_prod.xst
Info: XST FREQUENCY          100000
Info: NO VELOCITY DCD OUTPUT
Info: NO FORCE DCD OUTPUT
Info: OUTPUT FILENAME        mobley_7708038_prod
Info: BINARY OUTPUT FILES WILL BE USED
Info: RESTART FILENAME       mobley_7708038_prod.restart
Info: RESTART FREQUENCY      100000
Info: BINARY RESTART FILES WILL BE USED
Info: CUTOFF                 9
Info: PAIRLIST DISTANCE      11
Info: PAIRLIST SHRINK RATE   0.01
Info: PAIRLIST GROW RATE     0.01
Info: PAIRLIST TRIGGER       0.3
Info: PAIRLISTS PER CYCLE    2
Info: PAIRLISTS ENABLED
Info: MARGIN                 2
Info: HYDROGEN GROUP CUTOFF  2.5
Info: PATCH DIMENSION        15.5
Info: ENERGY OUTPUT STEPS    100000
Info: ENERGY EVALUATION STEPS    100000
Info: OUTPUT ENERGY PRECISION 4
Info: CROSSTERM ENERGY INCLUDED IN DIHEDRAL
Info: TIMING OUTPUT STEPS    1000000
Info: PRESSURE OUTPUT STEPS  100000
Info: ALCHEMICAL FEP ON
Info: FEP CURRENT LAMBDA VALUE     0
Info: FEP COMPARISON LAMBDA VALUE  0.05
Info: FEP INTRA-ALCHEMICAL NON-BONDED INTERACTIONS WILL BE RETAINED
Info: FEP INTRA-ALCHEMICAL BONDED INTERACTIONS WILL BE RETAINED
Info: FEP VDW SHIFTING COEFFICIENT 5
Info: FEP ELEC. ACTIVE FOR ANNIHILATED PARTICLES BETWEEN LAMBDA = 0 AND LAMBDA = 0.5
Info: FEP ELEC. ACTIVE FOR EXNIHILATED PARTICLES BETWEEN LAMBDA = 0.5 AND LAMBDA = 1
Info: FEP VDW ACTIVE FOR ANNIHILATED PARTICLES BETWEEN LAMBDA = 0 AND LAMBDA = 1
Info: FEP VDW ACTIVE FOR EXNIHILATED PARTICLES BETWEEN LAMBDA = 0 AND LAMBDA = 1
Info: FEP BOND ACTIVE FOR ANNIHILATED PARTICLES BETWEEN LAMBDA = 1 AND LAMBDA = 1
Info: FEP BOND ACTIVE FOR EXNIHILATED PARTICLES BETWEEN LAMBDA = 0 AND LAMBDA = 0
Info: LANGEVIN DYNAMICS ACTIVE
Info: LANGEVIN TEMPERATURE   300
Info: LANGEVIN USING BBK INTEGRATOR
Info: LANGEVIN DAMPING COEFFICIENT IS 1 INVERSE PS
Info: LANGEVIN DYNAMICS APPLIED TO HYDROGENS
Info: LANGEVIN PISTON PRESSURE CONTROL ACTIVE
Info:        TARGET PRESSURE IS 1.01325 BAR
Info:     OSCILLATION PERIOD IS 50 FS
Info:             DECAY TIME IS 25 FS
Info:     PISTON TEMPERATURE IS 300 K
Info:       PRESSURE CONTROL IS GROUP-BASED
Info:    INITIAL STRAIN RATE IS -8.47495e-05 -8.47495e-05 -8.47495e-05
Info:       CELL FLUCTUATION IS ISOTROPIC
Info: PARTICLE MESH EWALD (PME) ACTIVE
Info: PME TOLERANCE               1e-06
Info: PME EWALD COEFFICIENT       0.348832
Info: PME INTERPOLATION ORDER     4
Info: PME GRID DIMENSIONS         32 32 32
Info: PME MAXIMUM GRID SPACING    1
Info: PME CALCULATION WILL BE PERFORMED ON GPU
Info: FULL ELECTROSTATIC EVALUATION FREQUENCY      2
Info: USING VERLET I (r-RESPA) MTS SCHEME.
Info: C1 SPLITTING OF LONG RANGE ELECTROSTATICS
Info: PLACING ATOMS IN PATCHES BY HYDROGEN GROUPS
Info: RIGID BONDS TO HYDROGEN : ALL
Info:         ERROR TOLERANCE : 1e-08
Info:          MAX ITERATIONS : 100
Info: RIGID WATER USING SETTLE ALGORITHM
Info: RANDOM NUMBER SEED     1743683171
Info: USE HYDROGEN BONDS?    NO
Info: Using AMBER format force field!
Info: AMBER PARM FILE        mobley_7708038.prmtop
Info: COORDINATE PDB         mobley_7708038.pdb
Info: Exclusions will be read from PARM file!
Info: SCNB (VDW SCALING)     2
Info: USING ARITHMETIC MEAN TO COMBINE L-J SIGMA PARAMETERS
Info: BINARY COORDINATES     mobley_7708038_equil.coor
Info: SUMMARY OF PARAMETERS:
Info: 6 BONDS
Info: 7 ANGLES
Info:   7 HARMONIC
Info:   0 COSINE-BASED
Info: 5 DIHEDRAL
Info: 0 IMPROPER
Info: 0 CROSSTERM
Info: 0 VDW
Info: 21 VDW_PAIRS
Info: 0 NBTHOLE_PAIRS
Info: To read alchdata from file: mobley_7708038.pdb
Info: To read alchflag data from column: 5
Info: STRUCTURE SUMMARY:
Info: 2951 ATOMS
Info: 2950 BONDS
Info: 18 ANGLES
Info: 20 DIHEDRALS
Info: 0 IMPROPERS
Info: 0 CROSSTERMS
Info: 2986 EXCLUSIONS
Info: 2947 RIGID BONDS
Info: ALCH: 0 ATOMS TO DISAPPEAR IN FINAL STATE
Info: ALCH: 11 ATOMS TO APPEAR IN FINAL STATE
Info: 5906 DEGREES OF FREEDOM
Info: 984 HYDROGEN GROUPS
Info: 4 ATOMS IN LARGEST HYDROGEN GROUP
Info: 984 MIGRATION GROUPS
Info: 4 ATOMS IN LARGEST MIGRATION GROUP
Info: TOTAL MASS = 17778.7 amu
Info: TOTAL CHARGE = 0.000100004 e
Info: MASS DENSITY = 0.969955 g/cm^3
Info: ATOM DENSITY = 0.0969533 atoms/A^3
Info: ADDED 0 IMPLICIT EXCLUSIONS
Info: NONBONDED TABLE R-SQUARED SPACING: 0.0625
Info: NONBONDED TABLE SIZE: 705 POINTS
Info: REMOVING COM VELOCITY -0.141567 0.0969369 0.0341575
Info: Use 3D box decompostion in PME FFT.
Info: Updated CUDA force table with 4096 elements.
Info: Updated CUDA LJ table with 6 x 6 elements.
Info: Found 14 unique exclusion lists needing 24 bytes
TCL: Running for 1500000 steps
ETITLE: TS BOND ANGLE DIHED IMPRP ELECT VDW BOUNDARY MISC KINETIC TOTAL TEMP POTENTIAL TOTALAVG TEMPAVG PRESSURE GPRESSURE VOLUME PRESSAVG GPRESSAVG
ENERGY: 0 2.1412 5.8927 2.8494 0.0000 -10763.8552 1491.6876 0.0000 0.0000 1805.9487 -7455.3355 307.7530 -9261.2843 -7455.3355 307.7530 300.2905 373.0185 30437.3497 300.2905 373.0185
ENERGY: 300000 0.5845 3.6792 3.4327 0.0000 -10553.6084 1342.6222 0.0000 0.0000 1816.5628 -7386.7269 309.5618 -9203.2898 -7428.4606 303.1277 -795.9107 -733.1172 30715.7374 -199.2966 -133.5308
ENERGY: 600000 0.5813 3.7029 1.3809 0.0000 -10792.8390 1523.4313 0.0000 0.0000 1811.4946 -7452.2480 308.6981 -9263.7426 -7451.3943 301.0128 882.2060 958.8621 29760.2567 -291.8361 -225.2541
ENERGY: 900000 0.2592 3.6617 1.0736 0.0000 -10785.6443 1540.4121 0.0000 0.0000 1708.2119 -7532.0259 291.0976 -9240.2378 -7465.2279 299.6718 852.7130 908.8148 29911.4337 -132.1084 -77.4662
ENERGY: 1200000 0.5238 5.0183 0.8514 0.0000 -10702.7885 1440.3711 0.0000 0.0000 1763.8688 -7492.1551 300.5822 -9256.0239 -7470.5310 299.1164 -39.8457 20.0447 30571.2464 -118.9175 -70.2771
ENERGY: 1500000 0.1295 2.3441 1.7467 0.0000 -10829.3899 1499.2821 0.0000 0.0000 1775.9255 -7549.9620 302.6368 -9325.8875 -7483.1720 299.0421 468.3370 536.8187 29715.5148 -138.1615 -82.5785
TCL: Running FEP window   2: Lambda1 0.05   Lambda2 0.1    [dLambda 0.05  ]
TCL: Setting parameter firsttimestep to 0
TCL: Setting parameter alchLambda to 0.05
Info: NONBONDED TABLE R-SQUARED SPACING: 0.0625
Info: NONBONDED TABLE SIZE: 705 POINTS
TCL: Setting parameter alchLambda2 to 0.1
Info: NONBONDED TABLE R-SQUARED SPACING: 0.0625
Info: NONBONDED TABLE SIZE: 705 POINTS
TCL: Running for 1500000 steps
ETITLE: TS BOND ANGLE DIHED IMPRP ELECT VDW BOUNDARY MISC KINETIC TOTAL TEMP POTENTIAL TOTALAVG TEMPAVG PRESSURE GPRESSURE VOLUME PRESSAVG GPRESSAVG
ENERGY: 0 0.1295 2.3441 1.7467 0.0000 -10829.3889 1502.8657 0.0000 0.0000 1775.0352 -7547.2678 302.4851 -9322.3030 -7547.2678 302.4851 460.3377 541.1768 29715.5148 460.3377 541.1768
ENERGY: 300000 0.4290 3.9682 1.7124 0.0000 -10733.1938 1452.7343 0.0000 0.0000 1780.7377 -7493.6123 303.4568 -9274.3499 -7479.8144 303.5318 375.9705 381.1257 29926.9781 249.4908 297.7794
ENERGY: 600000 0.7503 7.1005 1.2266 0.0000 -10714.0920 1470.1217 0.0000 0.0000 1780.0509 -7454.8419 303.3398 -9234.8928 -7492.8089 301.9833 276.9978 338.8635 30117.8474 195.8029 259.0978
ENERGY: 900000 0.6010 3.2651 1.4139 0.0000 -10856.7300 1521.0315 0.0000 0.0000 1733.1393 -7597.2791 295.3455 -9330.4184 -7494.5504 300.7321 117.0174 280.0226 30466.1397 123.2994 192.8890
ENERGY: 1200000 0.5555 3.7020 2.5904 0.0000 -10552.7781 1336.4683 0.0000 0.0000 1747.8643 -7461.5975 297.8548 -9209.4618 -7495.6281 300.4571 -819.8654 -767.5404 30527.9254 102.0813 163.9356
ENERGY: 1500000 1.3207 7.9768 1.5136 0.0000 -10785.6142 1509.1346 0.0000 0.0000 1778.7522 -7486.9162 303.1185 -9265.6684 -7494.7835 300.4477 305.7205 339.0829 30523.3377 107.9733 170.3866
TCL: Running FEP window   3: Lambda1 0.1    Lambda2 0.15000000000000002 [dLambda 0.05000000000000002]
TCL: Setting parameter firsttimestep to 0
TCL: Setting parameter alchLambda to 0.1
Info: NONBONDED TABLE R-SQUARED SPACING: 0.0625
Info: NONBONDED TABLE SIZE: 705 POINTS
TCL: Setting parameter alchLambda2 to 0.15000000000000002
Info: NONBONDED TABLE R-SQUARED SPACING: 0.0625
Info: NONBONDED TABLE SIZE: 705 POINTS
TCL: Running for 1500000 steps
ETITLE: TS BOND ANGLE DIHED IMPRP ELECT VDW BOUNDARY MISC KINETIC TOTAL TEMP POTENTIAL TOTALAVG TEMPAVG PRESSURE GPRESSURE VOLUME PRESSAVG GPRESSAVG
ENERGY: 0 1.3207 7.9768 1.5136 0.0000 -10785.6142 1509.5131 0.0000 0.0000 1777.8568 -7487.4331 302.9659 -9265.2899 -7487.4331 302.9659 258.6380 341.5900 30523.3377 258.6380 341.5900
ENERGY: 300000 0.1117 8.0005 1.8183 0.0000 -10819.0727 1476.4616 0.0000 0.0000 1755.4273 -7577.2533 299.1437 -9332.6806 -7521.4088 301.0405 57.1588 120.2999 30184.8017 324.5502 396.3464
ENERGY: 600000 1.1852 3.8807 2.0868 0.0000 -10781.6860 1445.6689 0.0000 0.0000 1752.2812 -7576.5833 298.6075 -9328.8645 -7501.5303 300.5857 -325.3010 -211.3801 30694.2920 157.9447 232.9207
ENERGY: 900000 2.5643 4.7123 1.4039 0.0000 -10800.9214 1528.7996 0.0000 0.0000 1812.1216 -7451.3197 308.8050 -9263.4413 -7503.6768 300.1149 493.0106 536.1332 30537.9436 41.2108 97.9410
ENERGY: 1200000 0.3195 6.1040 2.1800 0.0000 -10698.9746 1428.1659 0.0000 0.0000 1810.5363 -7451.6689 308.5348 -9262.2052 -7494.2285 299.9976 -275.4582 -172.1383 30581.2501 -60.8370 0.0635
ENERGY: 1500000 4.7362 3.2189 0.9022 0.0000 -10720.7772 1450.8266 0.0000 0.0000 1790.7970 -7470.2963 305.1710 -9261.0933 -7495.2416 300.2373 -171.9461 -70.5353 30261.6474 -40.5986 23.1204
TCL: Running FEP window   4: Lambda1 0.15000000000000002 Lambda2 0.2    [dLambda 0.04999999999999999]
TCL: Setting parameter firsttimestep to 0
TCL: Setting parameter alchLambda to 0.15000000000000002
Info: NONBONDED TABLE R-SQUARED SPACING: 0.0625
Info: NONBONDED TABLE SIZE: 705 POINTS
TCL: Setting parameter alchLambda2 to 0.2
Info: NONBONDED TABLE R-SQUARED SPACING: 0.0625
Info: NONBONDED TABLE SIZE: 705 POINTS
TCL: Running for 1500000 steps
ETITLE: TS BOND ANGLE DIHED IMPRP ELECT VDW BOUNDARY MISC KINETIC TOTAL TEMP POTENTIAL TOTALAVG TEMPAVG PRESSURE GPRESSURE VOLUME PRESSAVG GPRESSAVG
ENERGY: 0 4.7362 3.2189 0.9022 0.0000 -10720.7773 1451.0622 0.0000 0.0000 1789.9147 -7470.9432 305.0207 -9260.8579 -7470.9432 305.0207 -152.4996 -71.5475 30261.6474 -152.4996 -71.5475
ENERGY: 300000 0.2267 6.4949 2.1044 0.0000 -10729.7654 1420.5677 0.0000 0.0000 1784.3906 -7515.9811 304.0793 -9300.3717 -7460.7376 305.5773 -444.6098 -331.1496 30444.3860 -215.0307 -132.4905
ENERGY: 600000 0.7615 8.5567 1.1298 0.0000 -10748.4159 1470.4247 0.0000 0.0000 1804.3914 -7463.1517 307.4877 -9267.5431 -7484.4413 302.1771 346.3732 361.0442 29955.9060 29.7338 74.6102
ENERGY: 900000 0.3597 6.4674 1.9466 0.0000 -10719.5048 1467.0924 0.0000 0.0000 1755.2398 -7488.3988 299.1117 -9243.6386 -7504.6569 300.5670 260.4469 245.6418 30380.0950 75.2120 117.4785
ENERGY: 1200000 2.2828 2.9985 1.9656 0.0000 -10679.0003 1464.4912 0.0000 0.0000 1721.9217 -7485.3405 293.4339 -9207.2622 -7508.6868 299.6358 425.1145 494.5162 30079.3636 80.9679 122.4959
ENERGY: 1500000 0.4353 5.7872 1.3161 0.0000 -10670.1132 1413.6459 0.0000 0.0000 1721.3070 -7527.6217 293.3292 -9248.9287 -7508.2751 299.3484 -452.0054 -317.6037 30630.2823 53.9914 107.8471
TCL: Running FEP window   5: Lambda1 0.2    Lambda2 0.25   [dLambda 0.04999999999999999]
TCL: Setting parameter firsttimestep to 0
TCL: Setting parameter alchLambda to 0.2
Info: NONBONDED TABLE R-SQUARED SPACING: 0.0625
Info: NONBONDED TABLE SIZE: 705 POINTS
TCL: Setting parameter alchLambda2 to 0.25
Info: NONBONDED TABLE R-SQUARED SPACING: 0.0625
Info: NONBONDED TABLE SIZE: 705 POINTS
TCL: Running for 1500000 steps
ETITLE: TS BOND ANGLE DIHED IMPRP ELECT VDW BOUNDARY MISC KINETIC TOTAL TEMP POTENTIAL TOTALAVG TEMPAVG PRESSURE GPRESSURE VOLUME PRESSAVG GPRESSAVG
ENERGY: 0 0.4353 5.7872 1.3161 0.0000 -10670.1127 1413.9725 0.0000 0.0000 1720.4209 -7528.1807 293.1782 -9248.6016 -7528.1807 293.1782 -406.7751 -313.9024 30630.2823 -406.7751 -313.9024
ENERGY: 300000 1.6769 6.2515 1.4515 0.0000 -10650.3861 1430.1739 0.0000 0.0000 1763.9201 -7446.9122 300.5909 -9210.8323 -7486.0221 298.8873 123.2732 187.3643 30239.9788 28.4537 104.1314
ENERGY: 600000 0.5506 4.6103 1.1916 0.0000 -10631.6160 1378.5196 0.0000 0.0000 1747.7376 -7499.0062 297.8332 -9246.7438 -7470.2113 299.8869 -402.6560 -370.8196 30436.8970 1.1187 55.6730
ENERGY: 900000 0.1021 4.2535 3.6184 0.0000 -10822.1412 1500.5811 0.0000 0.0000 1676.3614 -7637.2246 285.6700 -9313.5860 -7484.1359 297.7855 63.1768 162.1644 30372.9963 113.2918 176.7584
ENERGY: 1200000 0.3505 3.6503 1.2632 0.0000 -10460.6320 1301.8538 0.0000 0.0000 1780.3747 -7373.1395 303.3949 -9153.5141 -7481.9858 298.2543 -1148.4469 -1039.5726 31006.9676 -13.4271 47.0778
ENERGY: 1500000 2.0995 5.9313 1.8153 0.0000 -10653.1196 1383.2187 0.0000 0.0000 1803.2018 -7456.8530 307.2849 -9260.0548 -7479.0192 298.6116 -567.2274 -476.2868 30216.5999 -25.6959 41.2387
TCL: Running FEP window   6: Lambda1 0.25   Lambda2 0.3    [dLambda 0.04999999999999999]
TCL: Setting parameter firsttimestep to 0
TCL: Setting parameter alchLambda to 0.25
Info: NONBONDED TABLE R-SQUARED SPACING: 0.0625
Info: NONBONDED TABLE SIZE: 705 POINTS
TCL: Setting parameter alchLambda2 to 0.3
Info: NONBONDED TABLE R-SQUARED SPACING: 0.0625
Info: NONBONDED TABLE SIZE: 705 POINTS
TCL: Running for 1500000 steps
ETITLE: TS BOND ANGLE DIHED IMPRP ELECT VDW BOUNDARY MISC KINETIC TOTAL TEMP POTENTIAL TOTALAVG TEMPAVG PRESSURE GPRESSURE VOLUME PRESSAVG GPRESSAVG
ENERGY: 0 2.0995 5.9313 1.8153 0.0000 -10653.1197 1383.5134 0.0000 0.0000 1802.3189 -7457.4414 307.1345 -9259.7603 -7457.4414 307.1345 -565.9767 -470.3906 30216.5999 -565.9767 -470.3906
ENERGY: 300000 2.0544 4.3873 1.2526 0.0000 -10742.7582 1422.7199 0.0000 0.0000 1773.2283 -7539.1156 302.1771 -9312.3440 -7500.4200 303.4346 -172.4073 -123.2257 30052.6492 76.2973 143.9100
ENERGY: 600000 0.2939 2.9036 2.0580 0.0000 -10831.3872 1520.4367 0.0000 0.0000 1811.2503 -7494.4446 308.6565 -9305.6949 -7512.7789 302.4632 526.9429 576.3701 30251.8085 -6.9378 53.2439
ENERGY: 900000 1.3691 5.8093 0.9775 0.0000 -10513.0224 1356.1137 0.0000 0.0000 1709.9463 -7438.8065 291.3932 -9148.7528 -7497.5707 301.6666 -681.4689 -574.9090 30772.9379 -32.3097 28.0503
ENERGY: 1200000 1.4040 6.1438 1.8946 0.0000 -10722.8896 1478.5988 0.0000 0.0000 1751.2984 -7483.5500 298.4400 -9234.8484 -7483.3669 301.8612 534.2382 612.0631 30005.7867 -41.2826 17.3434
ENERGY: 1500000 1.2981 3.6354 0.9865 0.0000 -10590.3112 1346.1355 0.0000 0.0000 1803.8592 -7434.3965 307.3970 -9238.2557 -7477.5022 302.3152 -538.5723 -433.3346 30101.6432 -76.4022 -17.8546
TCL: Running FEP window   7: Lambda1 0.3    Lambda2 0.35   [dLambda 0.04999999999999999]
TCL: Setting parameter firsttimestep to 0
TCL: Setting parameter alchLambda to 0.3
Info: NONBONDED TABLE R-SQUARED SPACING: 0.0625
Info: NONBONDED TABLE SIZE: 705 POINTS
TCL: Setting parameter alchLambda2 to 0.35
Info: NONBONDED TABLE R-SQUARED SPACING: 0.0625
Info: NONBONDED TABLE SIZE: 705 POINTS
TCL: Running for 1500000 steps
ETITLE: TS BOND ANGLE DIHED IMPRP ELECT VDW BOUNDARY MISC KINETIC TOTAL TEMP POTENTIAL TOTALAVG TEMPAVG PRESSURE GPRESSURE VOLUME PRESSAVG GPRESSAVG
ENERGY: 0 1.2981 3.6354 0.9865 0.0000 -10590.3117 1345.7474 0.0000 0.0000 1802.9456 -7435.6988 307.2413 -9238.6443 -7435.6988 307.2413 -518.9831 -429.0886 30101.6432 -518.9831 -429.0886
ENERGY: 300000 1.7528 5.0561 1.6469 0.0000 -10764.8812 1447.7792 0.0000 0.0000 1787.1058 -7521.5403 304.5420 -9308.6461 -7460.4618 305.0481 13.3452 27.3956 29953.2981 -346.2888 -299.9434
ENERGY: 600000 0.3798 4.2188 2.0230 0.0000 -10622.5649 1380.4245 0.0000 0.0000 1735.5312 -7499.9876 295.7531 -9235.5187 -7477.1526 300.9640 -185.6857 -126.9948 30058.0529 -291.4332 -236.3545
ENERGY: 900000 1.4285 5.7651 2.5327 0.0000 -10650.9183 1376.2702 0.0000 0.0000 1785.5909 -7479.3308 304.2838 -9264.9217 -7474.0430 302.1490 -554.8524 -538.2058 30379.4184 -251.1409 -206.5098
ENERGY: 1200000 0.9216 6.9832 2.2391 0.0000 -10704.3232 1393.5083 0.0000 0.0000 1768.8956 -7531.7754 301.4388 -9300.6711 -7475.4372 302.9273 -478.2174 -440.0266 30365.1428 -290.7409 -238.1534
ENERGY: 1500000 0.1473 4.0868 3.7489 0.0000 -10734.3171 1395.2957 0.0000 0.0000 1785.5410 -7545.4975 304.2753 -9331.0385 -7484.8360 302.3429 -679.1626 -593.1382 30336.8181 -326.8627 -269.1876
TCL: Running FEP window   8: Lambda1 0.35   Lambda2 0.39999999999999997 [dLambda 0.04999999999999999]
TCL: Setting parameter firsttimestep to 0
TCL: Setting parameter alchLambda to 0.35
Info: NONBONDED TABLE R-SQUARED SPACING: 0.0625
Info: NONBONDED TABLE SIZE: 705 POINTS
TCL: Setting parameter alchLambda2 to 0.39999999999999997
Info: NONBONDED TABLE R-SQUARED SPACING: 0.0625
Info: NONBONDED TABLE SIZE: 705 POINTS
TCL: Running for 1500000 steps
ETITLE: TS BOND ANGLE DIHED IMPRP ELECT VDW BOUNDARY MISC KINETIC TOTAL TEMP POTENTIAL TOTALAVG TEMPAVG PRESSURE GPRESSURE VOLUME PRESSAVG GPRESSAVG
ENERGY: 0 0.1473 4.0868 3.7489 0.0000 -10734.3177 1395.5689 0.0000 0.0000 1784.6532 -7546.1126 304.1241 -9330.7659 -7546.1126 304.1241 -672.8899 -590.0890 30336.8181 -672.8899 -590.0890
ENERGY: 300000 1.1723 3.9639 0.8609 0.0000 -10699.1540 1406.1902 0.0000 0.0000 1756.1102 -7530.8564 299.2600 -9286.9666 -7496.9522 302.1610 -278.1636 -142.7460 29850.9662 -10.9439 76.0759
ENERGY: 600000 0.5314 6.0746 1.8710 0.0000 -10840.0900 1535.7480 0.0000 0.0000 1786.0879 -7509.7772 304.3685 -9295.8651 -7510.2863 300.8820 814.1689 911.1324 29840.7503 150.7484 229.4956
ENERGY: 900000 1.3762 5.2295 0.9899 0.0000 -10710.7387 1493.8263 0.0000 0.0000 1783.8115 -7425.5052 303.9806 -9209.3168 -7490.5980 301.2261 432.0250 513.9004 30651.4566 232.0435 301.9811
ENERGY: 1200000 0.6043 5.5737 1.7937 0.0000 -10828.4874 1522.6757 0.0000 0.0000 1685.0602 -7612.7798 287.1523 -9297.8401 -7497.0284 300.8186 799.8298 806.0935 29740.8350 244.5294 309.5544
ENERGY: 1500000 1.3713 1.7501 1.8956 0.0000 -10740.6758 1483.9647 0.0000 0.0000 1797.7057 -7453.9885 306.3483 -9251.6942 -7497.9844 301.0024 382.4675 397.8159 30416.3921 247.0815 306.4831
TCL: Running FEP window   9: Lambda1 0.39999999999999997 Lambda2 0.44999999999999996 [dLambda 0.04999999999999999]
TCL: Setting parameter firsttimestep to 0
TCL: Setting parameter alchLambda to 0.39999999999999997
Info: NONBONDED TABLE R-SQUARED SPACING: 0.0625
Info: NONBONDED TABLE SIZE: 705 POINTS
TCL: Setting parameter alchLambda2 to 0.44999999999999996
Info: NONBONDED TABLE R-SQUARED SPACING: 0.0625
Info: NONBONDED TABLE SIZE: 705 POINTS
TCL: Running for 1500000 steps
ETITLE: TS BOND ANGLE DIHED IMPRP ELECT VDW BOUNDARY MISC KINETIC TOTAL TEMP POTENTIAL TOTALAVG TEMPAVG PRESSURE GPRESSURE VOLUME PRESSAVG GPRESSAVG
ENERGY: 0 1.3713 1.7501 1.8956 0.0000 -10740.6738 1483.6193 0.0000 0.0000 1796.8317 -7455.2059 306.1994 -9252.0375 -7455.2059 306.1994 321.2888 399.8768 30416.3921 321.2888 399.8768
ENERGY: 300000 0.1151 10.6095 2.1282 0.0000 -10723.1819 1483.4221 0.0000 0.0000 1746.3726 -7480.5344 297.6006 -9226.9070 -7488.4388 300.6541 110.1952 178.8162 30840.5919 52.5333 136.8783
ENERGY: 600000 0.4526 6.6799 1.2511 0.0000 -10743.1262 1437.3884 0.0000 0.0000 1811.1131 -7486.2412 308.6331 -9297.3543 -7491.2630 302.8902 -157.1883 -102.4311 30285.0462 -29.0488 31.1710
ENERGY: 900000 0.7504 7.1563 1.3119 0.0000 -10598.3210 1346.4324 0.0000 0.0000 1754.2662 -7488.4038 298.9458 -9242.6700 -7484.3257 301.5696 -763.1806 -708.1828 30330.6794 -143.0292 -70.0286
ENERGY: 1200000 0.7737 6.0807 1.4129 0.0000 -10828.3691 1520.7674 0.0000 0.0000 1718.5854 -7580.7491 292.8654 -9299.3345 -7488.9532 301.2388 549.1014 615.1791 30255.5059 -131.5331 -59.6886
ENERGY: 1500000 0.4456 7.5777 1.2153 0.0000 -10784.3573 1449.3649 0.0000 0.0000 1741.3188 -7584.4351 296.7394 -9325.7539 -7496.6470 300.5924 -43.9553 -15.0782 30211.4905 -79.3654 -9.0495
TCL: Running FEP window  10: Lambda1 0.44999999999999996 Lambda2 0.49999999999999994 [dLambda 0.04999999999999999]
TCL: Setting parameter firsttimestep to 0
TCL: Setting parameter alchLambda to 0.44999999999999996
Info: NONBONDED TABLE R-SQUARED SPACING: 0.0625
Info: NONBONDED TABLE SIZE: 705 POINTS
TCL: Setting parameter alchLambda2 to 0.49999999999999994
Info: NONBONDED TABLE R-SQUARED SPACING: 0.0625
Info: NONBONDED TABLE SIZE: 705 POINTS
TCL: Running for 1500000 steps
ETITLE: TS BOND ANGLE DIHED IMPRP ELECT VDW BOUNDARY MISC KINETIC TOTAL TEMP POTENTIAL TOTALAVG TEMPAVG PRESSURE GPRESSURE VOLUME PRESSAVG GPRESSAVG
ENERGY: 0 0.4456 7.5777 1.2153 0.0000 -10784.3559 1448.9980 0.0000 0.0000 1740.4478 -7585.6716 296.5910 -9326.1194 -7585.6716 296.5910 -88.2745 -13.6640 30211.4905 -88.2745 -13.6640
ENERGY: 300000 0.4936 7.3008 1.8825 0.0000 -10559.4502 1345.9392 0.0000 0.0000 1829.5639 -7374.2702 311.7773 -9203.8341 -7443.6059 306.1384 -628.6992 -574.9862 30790.1232 -211.8191 -156.6216
ENERGY: 600000 0.6987 3.1160 3.5497 0.0000 -10577.7400 1337.2054 0.0000 0.0000 1745.2965 -7487.8737 297.4173 -9233.1702 -7468.5843 301.7676 -1027.6656 -958.3723 30814.0856 -372.9157 -309.4863
ENERGY: 900000 1.0206 3.6816 0.9736 0.0000 -10561.2269 1380.8495 0.0000 0.0000 1750.4549 -7424.2466 298.2963 -9174.7015 -7471.7328 300.4360 -68.1039 -53.6802 30121.0059 -218.1516 -159.6760
ENERGY: 1200000 2.1584 3.5995 2.0069 0.0000 -10714.5530 1438.6432 0.0000 0.0000 1736.7737 -7531.3713 295.9649 -9268.1450 -7480.8430 300.9829 -197.4595 -142.6350 30382.6691 -294.6655 -237.0504
ENERGY: 1500000 0.4087 4.2901 1.1248 0.0000 -10753.2876 1404.7884 0.0000 0.0000 1755.6196 -7587.0560 299.1764 -9342.6756 -7483.6343 301.9287 -419.4283 -418.8074 30087.9044 -255.5453 -206.6180
TCL: Running FEP window  11: Lambda1 0.49999999999999994 Lambda2 0.5499999999999999 [dLambda 0.04999999999999999]
TCL: Setting parameter firsttimestep to 0
TCL: Setting parameter alchLambda to 0.49999999999999994
Info: NONBONDED TABLE R-SQUARED SPACING: 0.0625
Info: NONBONDED TABLE SIZE: 705 POINTS
TCL: Setting parameter alchLambda2 to 0.5499999999999999
Info: NONBONDED TABLE R-SQUARED SPACING: 0.0625
Info: NONBONDED TABLE SIZE: 705 POINTS
TCL: Running for 1500000 steps
ETITLE: TS BOND ANGLE DIHED IMPRP ELECT VDW BOUNDARY MISC KINETIC TOTAL TEMP POTENTIAL TOTALAVG TEMPAVG PRESSURE GPRESSURE VOLUME PRESSAVG GPRESSAVG
ENERGY: 0 0.4087 4.2901 1.1248 0.0000 -10753.2861 1404.8030 0.0000 0.0000 1754.7243 -7587.9352 299.0239 -9342.6596 -7587.9352 299.0239 -483.7496 -411.3403 30087.9044 -483.7496 -411.3403
ENERGY: 300000 1.3645 4.8624 1.2416 0.0000 -10727.9179 1460.6335 0.0000 0.0000 1786.1995 -7473.6163 304.3876 -9259.8158 -7525.1234 301.2543 230.6537 265.0928 30253.5190 216.8768 265.2191
ENERGY: 600000 0.1431 5.8417 2.2899 0.0000 -10773.5908 1482.2839 0.0000 0.0000 1802.8938 -7480.1383 307.2325 -9283.0321 -7506.6828 302.0776 332.4502 386.6988 30144.9510 261.9811 306.8617
ENERGY: 900000 1.0996 2.5935 1.2190 0.0000 -10802.3122 1555.4706 0.0000 0.0000 1748.7709 -7493.1587 298.0093 -9241.9295 -7499.6744 301.0928 838.7446 946.8558 30468.0593 356.2718 406.9094
ENERGY: 1200000 1.2371 3.5407 1.3025 0.0000 -10685.0141 1451.5723 0.0000 0.0000 1692.1147 -7535.2468 288.3545 -9227.3615 -7496.9330 301.2783 -256.5187 -172.8912 30756.6285 240.6042 295.2697
ENERGY: 1500000 0.0225 5.0234 1.5853 0.0000 -10567.3567 1411.6648 0.0000 0.0000 1723.7438 -7425.3170 293.7444 -9149.0607 -7484.5595 300.3599 -151.9848 -80.4083 30807.9178 162.2948 224.2969
TCL: Running FEP window  12: Lambda1 0.5499999999999999 Lambda2 0.6    [dLambda 0.050000000000000044]
TCL: Setting parameter firsttimestep to 0
TCL: Setting parameter alchLambda to 0.5499999999999999
Info: NONBONDED TABLE R-SQUARED SPACING: 0.0625
Info: NONBONDED TABLE SIZE: 705 POINTS
TCL: Setting parameter alchLambda2 to 0.6
Info: NONBONDED TABLE R-SQUARED SPACING: 0.0625
Info: NONBONDED TABLE SIZE: 705 POINTS
TCL: Running for 1500000 steps
ETITLE: TS BOND ANGLE DIHED IMPRP ELECT VDW BOUNDARY MISC KINETIC TOTAL TEMP POTENTIAL TOTALAVG TEMPAVG PRESSURE GPRESSURE VOLUME PRESSAVG GPRESSAVG
ENERGY: 0 0.0225 5.0234 1.5853 0.0000 -10567.6263 1411.4368 0.0000 0.0000 1722.8803 -7426.6781 293.5973 -9149.5583 -7426.6781 293.5973 -157.9041 -76.8822 30807.9178 -157.9041 -76.8822
ENERGY: 300000 0.9818 9.6693 3.8227 0.0000 -10694.5600 1380.1595 0.0000 0.0000 1735.7703 -7564.1565 295.7939 -9299.9268 -7475.7597 296.7982 -727.5672 -654.6589 30460.8273 -240.5706 -154.0766
ENERGY: 600000 0.0820 4.8349 1.1316 0.0000 -10742.9098 1475.9824 0.0000 0.0000 1757.7770 -7503.1019 299.5441 -9260.8789 -7470.5284 299.4424 415.9405 430.5393 30234.0887 -175.5310 -96.4919
ENERGY: 900000 0.2844 4.2877 1.4648 0.0000 -10576.3608 1363.3014 0.0000 0.0000 1802.0946 -7404.9280 307.0963 -9207.0226 -7476.0266 300.2806 -749.8974 -645.4336 30913.2114 -213.6580 -132.9062
ENERGY: 1200000 1.3567 3.0599 1.7667 0.0000 -10566.0155 1390.1750 0.0000 0.0000 1780.6024 -7389.0549 303.4338 -9169.6573 -7462.4356 301.1833 -524.4509 -437.5241 31229.6627 -147.6785 -73.8287
ENERGY: 1500000 0.4940 6.3636 0.9621 0.0000 -10666.9138 1399.5278 0.0000 0.0000 1809.8550 -7449.7113 308.4187 -9259.5663 -7466.8560 301.6553 -165.7905 -179.8198 30418.2600 -152.1372 -87.4828
TCL: Running FEP window  13: Lambda1 0.6    Lambda2 0.65   [dLambda 0.050000000000000044]
TCL: Setting parameter firsttimestep to 0
TCL: Setting parameter alchLambda to 0.6
Info: NONBONDED TABLE R-SQUARED SPACING: 0.0625
Info: NONBONDED TABLE SIZE: 705 POINTS
TCL: Setting parameter alchLambda2 to 0.65
Info: NONBONDED TABLE R-SQUARED SPACING: 0.0625
Info: NONBONDED TABLE SIZE: 705 POINTS
TCL: Running for 1500000 steps
ETITLE: TS BOND ANGLE DIHED IMPRP ELECT VDW BOUNDARY MISC KINETIC TOTAL TEMP POTENTIAL TOTALAVG TEMPAVG PRESSURE GPRESSURE VOLUME PRESSAVG GPRESSAVG
ENERGY: 0 0.4940 6.3637 0.9621 0.0000 -10667.0422 1399.4974 0.0000 0.0000 1808.9766 -7450.7485 308.2690 -9259.7251 -7450.7485 308.2690 -246.0077 -175.1894 30418.2600 -246.0077 -175.1894
ENERGY: 300000 1.1393 3.5305 2.2430 0.0000 -10571.8251 1400.7203 0.0000 0.0000 1764.4811 -7399.7110 300.6865 -9164.1920 -7472.0066 303.6833 -15.9423 -12.1592 30270.6333 115.8443 163.5234
ENERGY: 600000 0.9022 3.4798 1.2975 0.0000 -10846.3548 1518.9418 0.0000 0.0000 1816.1133 -7505.6201 309.4852 -9321.7334 -7476.2928 301.4466 514.9394 571.6624 30232.7861 -0.2158 44.9757
ENERGY: 900000 0.9315 7.6159 1.9806 0.0000 -10625.4393 1374.4294 0.0000 0.0000 1759.3463 -7481.1356 299.8115 -9240.4819 -7485.3668 300.2389 -321.4458 -289.7061 30268.5500 -17.3379 28.6780
ENERGY: 1200000 1.8106 3.4969 0.8834 0.0000 -10527.3018 1322.9000 0.0000 0.0000 1783.4881 -7414.7228 303.9255 -9198.2108 -7486.3577 300.4114 -609.5648 -525.3367 30159.8198 -72.8138 -20.7941
ENERGY: 1500000 0.7133 6.1425 2.3793 0.0000 -10650.1759 1390.6108 0.0000 0.0000 1799.5269 -7450.8031 306.6587 -9250.3300 -7486.0564 301.0678 -267.8881 -253.5985 30459.4222 -53.5003 -5.6230
TCL: Running FEP window  14: Lambda1 0.65   Lambda2 0.7000000000000001 [dLambda 0.050000000000000044]
TCL: Setting parameter firsttimestep to 0
TCL: Setting parameter alchLambda to 0.65
Info: NONBONDED TABLE R-SQUARED SPACING: 0.0625
Info: NONBONDED TABLE SIZE: 705 POINTS
TCL: Setting parameter alchLambda2 to 0.7000000000000001
Info: NONBONDED TABLE R-SQUARED SPACING: 0.0625
Info: NONBONDED TABLE SIZE: 705 POINTS
TCL: Running for 1500000 steps
ETITLE: TS BOND ANGLE DIHED IMPRP ELECT VDW BOUNDARY MISC KINETIC TOTAL TEMP POTENTIAL TOTALAVG TEMPAVG PRESSURE GPRESSURE VOLUME PRESSAVG GPRESSAVG
ENERGY: 0 0.7133 6.1425 2.3793 0.0000 -10650.3902 1391.0378 0.0000 0.0000 1798.6456 -7451.4716 306.5085 -9250.1172 -7451.4716 306.5085 -304.7016 -241.9526 30459.4222 -304.7016 -241.9526
ENERGY: 300000 0.8047 5.4240 1.0634 0.0000 -10677.9968 1466.7192 0.0000 0.0000 1797.4270 -7406.5584 306.3009 -9203.9854 -7467.7936 302.6189 112.7702 206.8559 30671.5293 46.1132 113.0060
ENERGY: 600000 1.1572 7.0224 2.4802 0.0000 -10725.0272 1421.3549 0.0000 0.0000 1755.8425 -7537.1700 299.2144 -9293.0125 -7479.4609 300.3380 14.0765 88.4837 29831.7176 -53.0000 14.4046
ENERGY: 900000 0.2564 5.2532 3.5295 0.0000 -10661.1609 1402.9572 0.0000 0.0000 1824.0213 -7425.1432 310.8328 -9249.1645 -7474.0039 302.3639 68.0004 167.2394 30003.3243 -71.4739 -9.5639
ENERGY: 1200000 0.1025 7.6261 1.1782 0.0000 -10667.7476 1435.7951 0.0000 0.0000 1750.5965 -7472.4492 298.3204 -9223.0457 -7478.5567 300.7199 116.3329 136.7389 30515.5926 -110.4470 -54.7719
ENERGY: 1500000 0.0594 4.9345 1.9507 0.0000 -10638.8791 1392.6806 0.0000 0.0000 1718.1249 -7521.1290 292.7869 -9239.2539 -7480.8876 299.8829 -155.2740 -112.9578 29985.4079 -109.0039 -55.3395
TCL: Running FEP window  15: Lambda1 0.7000000000000001 Lambda2 0.7500000000000001 [dLambda 0.050000000000000044]
TCL: Setting parameter firsttimestep to 0
TCL: Setting parameter alchLambda to 0.7000000000000001
Info: NONBONDED TABLE R-SQUARED SPACING: 0.0625
Info: NONBONDED TABLE SIZE: 705 POINTS
TCL: Setting parameter alchLambda2 to 0.7500000000000001
Info: NONBONDED TABLE R-SQUARED SPACING: 0.0625
Info: NONBONDED TABLE SIZE: 705 POINTS
TCL: Running for 1500000 steps
ETITLE: TS BOND ANGLE DIHED IMPRP ELECT VDW BOUNDARY MISC KINETIC TOTAL TEMP POTENTIAL TOTALAVG TEMPAVG PRESSURE GPRESSURE VOLUME PRESSAVG GPRESSAVG
ENERGY: 0 0.0594 4.9345 1.9507 0.0000 -10638.8909 1392.7289 0.0000 0.0000 1717.2099 -7522.0075 292.6310 -9239.2174 -7522.0075 292.6310 -190.4099 -106.0173 29985.4079 -190.4099 -106.0173
ENERGY: 300000 0.0915 5.0184 2.3289 0.0000 -10733.7317 1429.2796 0.0000 0.0000 1810.6691 -7486.3443 308.5574 -9297.0135 -7526.8514 300.6346 -61.9429 -36.1607 30253.8036 -287.0535 -233.5543
ENERGY: 600000 0.2167 4.4209 2.5234 0.0000 -10661.0599 1469.2647 0.0000 0.0000 1803.0497 -7381.5845 307.2590 -9184.6342 -7499.3341 302.0368 309.6249 325.5516 30828.0667 -227.4605 -184.0770
ENERGY: 900000 1.9795 4.6772 1.9486 0.0000 -10769.8458 1485.0539 0.0000 0.0000 1741.2234 -7534.9632 296.7232 -9276.1866 -7491.1328 302.5175 785.0003 819.6474 29606.0956 -119.9801 -68.2073
ENERGY: 1200000 0.6840 4.1856 2.0045 0.0000 -10732.2844 1465.9691 0.0000 0.0000 1803.5973 -7455.8438 307.3523 -9259.4411 -7494.1696 302.0987 359.1782 426.9472 30091.0505 -78.9836 -22.5383
ENERGY: 1500000 1.7530 4.6616 0.9563 0.0000 -10748.3285 1440.1593 0.0000 0.0000 1741.9666 -7558.8316 296.8498 -9300.7982 -7498.8450 301.5314 47.3254 84.3923 30139.1304 -45.8693 8.9472
TCL: Running FEP window  16: Lambda1 0.7500000000000001 Lambda2 0.8000000000000002 [dLambda 0.050000000000000044]
TCL: Setting parameter firsttimestep to 0
TCL: Setting parameter alchLambda to 0.7500000000000001
Info: NONBONDED TABLE R-SQUARED SPACING: 0.0625
Info: NONBONDED TABLE SIZE: 705 POINTS
TCL: Setting parameter alchLambda2 to 0.8000000000000002
Info: NONBONDED TABLE R-SQUARED SPACING: 0.0625
Info: NONBONDED TABLE SIZE: 705 POINTS
TCL: Running for 1500000 steps
ETITLE: TS BOND ANGLE DIHED IMPRP ELECT VDW BOUNDARY MISC KINETIC TOTAL TEMP POTENTIAL TOTALAVG TEMPAVG PRESSURE GPRESSURE VOLUME PRESSAVG GPRESSAVG
ENERGY: 0 1.7530 4.6616 0.9563 0.0000 -10748.5691 1439.9703 0.0000 0.0000 1741.0587 -7560.1692 296.6951 -9301.2279 -7560.1692 296.6951 1.3291 89.2065 30139.1304 1.3291 89.2065
ENERGY: 300000 0.5116 2.1005 0.9885 0.0000 -10634.1954 1405.1485 0.0000 0.0000 1714.7933 -7510.6530 292.2192 -9225.4463 -7562.4831 292.6675 -459.9747 -444.3261 31206.3329 -76.7053 -3.7587
ENERGY: 600000 1.0640 4.0581 0.9900 0.0000 -10818.5548 1501.2034 0.0000 0.0000 1756.7602 -7554.4790 299.3708 -9311.2392 -7571.9078 294.0572 576.4908 624.4802 29818.3305 -40.2564 26.8684
ENERGY: 900000 0.1018 4.7322 2.2801 0.0000 -10719.9863 1493.0419 0.0000 0.0000 1812.3996 -7407.4307 308.8523 -9219.8303 -7547.2563 295.1468 418.9109 531.4760 30558.5625 11.8324 82.3214
ENERGY: 1200000 0.1990 4.0927 1.1264 0.0000 -10720.6893 1425.1800 0.0000 0.0000 1758.0104 -7532.0808 299.5838 -9290.0911 -7533.9428 295.3730 -282.5970 -267.7374 30699.9232 26.5061 95.3229
ENERGY: 1500000 0.5688 5.5954 1.5353 0.0000 -10766.3790 1490.7231 0.0000 0.0000 1735.2980 -7532.6585 295.7134 -9267.9565 -7534.3278 295.2330 529.1149 603.4123 29949.7853 54.3680 126.7157
TCL: Running FEP window  17: Lambda1 0.8000000000000002 Lambda2 0.8500000000000002 [dLambda 0.050000000000000044]
TCL: Setting parameter firsttimestep to 0
TCL: Setting parameter alchLambda to 0.8000000000000002
Info: NONBONDED TABLE R-SQUARED SPACING: 0.0625
Info: NONBONDED TABLE SIZE: 705 POINTS
TCL: Setting parameter alchLambda2 to 0.8500000000000002
Info: NONBONDED TABLE R-SQUARED SPACING: 0.0625
Info: NONBONDED TABLE SIZE: 705 POINTS
TCL: Running for 1500000 steps
ETITLE: TS BOND ANGLE DIHED IMPRP ELECT VDW BOUNDARY MISC KINETIC TOTAL TEMP POTENTIAL TOTALAVG TEMPAVG PRESSURE GPRESSURE VOLUME PRESSAVG GPRESSAVG
ENERGY: 0 0.5688 5.5954 1.5353 0.0000 -10766.4417 1490.5029 0.0000 0.0000 1734.4221 -7533.8172 295.5641 -9268.2393 -7533.8172 295.5641 516.2764 607.2230 29949.7853 516.2764 607.2230
ENERGY: 300000 0.2829 4.2390 1.0799 0.0000 -10661.6853 1403.9636 0.0000 0.0000 1721.9730 -7530.1468 293.4427 -9252.1198 -7494.2687 297.9892 -274.5037 -257.5205 30507.3009 -15.2117 47.5901
ENERGY: 600000 0.7219 5.2286 2.3529 0.0000 -10609.2278 1357.6707 0.0000 0.0000 1753.4747 -7489.7789 298.8109 -9243.2537 -7487.4821 297.9950 -570.6788 -513.0290 30291.1509 -124.0682 -63.1386
ENERGY: 900000 0.9252 2.7938 1.4196 0.0000 -10783.6226 1450.1027 0.0000 0.0000 1727.6531 -7600.7281 294.4106 -9328.3812 -7501.8947 298.3811 51.9009 83.2779 30043.4911 21.8021 71.9029
ENERGY: 1200000 2.3129 3.7478 2.1370 0.0000 -10582.1736 1330.1714 0.0000 0.0000 1806.0032 -7437.8012 307.7623 -9243.8044 -7486.7891 300.5494 -960.8244 -880.8681 30744.5457 -58.1160 3.0918
ENERGY: 1500000 3.5663 5.4165 2.6249 0.0000 -10663.3891 1367.5024 0.0000 0.0000 1759.4359 -7524.8432 299.8268 -9284.2790 -7479.8378 300.6605 -700.4469 -710.6448 30750.2099 -120.6944 -62.3589
TCL: Running FEP window  18: Lambda1 0.8500000000000002 Lambda2 0.9000000000000002 [dLambda 0.050000000000000044]
TCL: Setting parameter firsttimestep to 0
TCL: Setting parameter alchLambda to 0.8500000000000002
Info: NONBONDED TABLE R-SQUARED SPACING: 0.0625
Info: NONBONDED TABLE SIZE: 705 POINTS
TCL: Setting parameter alchLambda2 to 0.9000000000000002
Info: NONBONDED TABLE R-SQUARED SPACING: 0.0625
Info: NONBONDED TABLE SIZE: 705 POINTS
TCL: Running for 1500000 steps
ETITLE: TS BOND ANGLE DIHED IMPRP ELECT VDW BOUNDARY MISC KINETIC TOTAL TEMP POTENTIAL TOTALAVG TEMPAVG PRESSURE GPRESSURE VOLUME PRESSAVG GPRESSAVG
ENERGY: 0 3.5663 5.4165 2.6249 0.0000 -10663.5563 1368.2245 0.0000 0.0000 1758.5560 -7525.1680 299.6768 -9283.7241 -7525.1680 299.6768 -775.6594 -693.2939 30750.2099 -775.6594 -693.2939
ENERGY: 300000 1.0013 8.3297 1.0820 0.0000 -10679.1729 1443.5565 0.0000 0.0000 1724.1876 -7501.0157 293.8201 -9225.2034 -7510.2470 295.0191 -151.0876 -135.8997 30749.9736 -263.6985 -199.0497
ENERGY: 600000 0.3601 4.2371 1.0133 0.0000 -10709.7375 1435.9390 0.0000 0.0000 1810.2293 -7457.9586 308.4825 -9268.1879 -7490.9312 299.8840 70.6834 110.5834 30314.9479 -156.4635 -95.8423
ENERGY: 900000 0.2488 5.2410 2.2204 0.0000 -10763.2167 1445.8873 0.0000 0.0000 1748.8322 -7560.7870 298.0198 -9309.6191 -7497.5601 299.1136 288.4679 386.5883 29746.8987 -256.2792 -186.6590
ENERGY: 1200000 1.0079 4.4878 0.9939 0.0000 -10631.2636 1404.3768 0.0000 0.0000 1725.0933 -7495.3038 293.9744 -9220.3971 -7499.5119 298.1341 -205.6110 -228.1290 30591.3920 -226.4092 -171.1038
ENERGY: 1500000 2.6980 5.2151 1.0218 0.0000 -10648.0436 1387.0459 0.0000 0.0000 1751.2639 -7500.7989 298.4342 -9252.0628 -7496.0424 298.7658 -404.6676 -288.1026 30218.7372 -213.1545 -153.8273
TCL: Running FEP window  19: Lambda1 0.9000000000000002 Lambda2 0.9500000000000003 [dLambda 0.050000000000000044]
TCL: Setting parameter firsttimestep to 0
TCL: Setting parameter alchLambda to 0.9000000000000002
Info: NONBONDED TABLE R-SQUARED SPACING: 0.0625
Info: NONBONDED TABLE SIZE: 705 POINTS
TCL: Setting parameter alchLambda2 to 0.9500000000000003
Info: NONBONDED TABLE R-SQUARED SPACING: 0.0625
Info: NONBONDED TABLE SIZE: 705 POINTS
TCL: Running for 1500000 steps
ETITLE: TS BOND ANGLE DIHED IMPRP ELECT VDW BOUNDARY MISC KINETIC TOTAL TEMP POTENTIAL TOTALAVG TEMPAVG PRESSURE GPRESSURE VOLUME PRESSAVG GPRESSAVG
ENERGY: 0 2.6980 5.2151 1.0218 0.0000 -10648.1851 1387.3386 0.0000 0.0000 1750.3651 -7501.5465 298.2810 -9251.9116 -7501.5465 298.2810 -368.0087 -274.5346 30218.7372 -368.0087 -274.5346
ENERGY: 300000 1.9840 4.1770 2.2425 0.0000 -10795.9388 1465.9549 0.0000 0.0000 1713.2466 -7608.3338 291.9556 -9321.5805 -7503.9139 301.6647 -102.1978 -53.3987 30333.6663 -85.0839 -22.6289
ENERGY: 600000 0.2650 3.5829 2.4762 0.0000 -10802.1196 1482.3276 0.0000 0.0000 1730.0012 -7583.4667 294.8108 -9313.4679 -7503.8134 300.7354 271.1514 336.9138 30400.6464 -100.9463 -36.9265
ENERGY: 900000 0.9180 2.4977 1.6310 0.0000 -10717.4512 1442.3396 0.0000 0.0000 1766.0859 -7503.9789 300.9600 -9270.0648 -7502.8893 300.8543 -109.7727 -73.7251 30726.2088 -163.3540 -99.0096
ENERGY: 1200000 0.9945 4.9278 2.3623 0.0000 -10641.2435 1382.4838 0.0000 0.0000 1782.6964 -7467.7787 303.7906 -9250.4751 -7501.0421 300.5146 -366.2089 -300.0830 30452.9097 -185.5863 -127.3571
ENERGY: 1500000 0.5620 2.3212 3.5575 0.0000 -10571.9578 1339.2995 0.0000 0.0000 1747.9576 -7478.2600 297.8707 -9226.2176 -7505.5076 299.4231 -768.5948 -721.0833 30468.3203 -248.3024 -190.3071
TCL: Running FEP window  20: Lambda1 0.9500000000000003 Lambda2 1.0    [dLambda 0.04999999999999971]
TCL: Setting parameter firsttimestep to 0
TCL: Setting parameter alchLambda to 0.9500000000000003
Info: NONBONDED TABLE R-SQUARED SPACING: 0.0625
Info: NONBONDED TABLE SIZE: 705 POINTS
TCL: Setting parameter alchLambda2 to 1.0
Info: NONBONDED TABLE R-SQUARED SPACING: 0.0625
Info: NONBONDED TABLE SIZE: 705 POINTS
TCL: Running for 1500000 steps
ETITLE: TS BOND ANGLE DIHED IMPRP ELECT VDW BOUNDARY MISC KINETIC TOTAL TEMP POTENTIAL TOTALAVG TEMPAVG PRESSURE GPRESSURE VOLUME PRESSAVG GPRESSAVG
ENERGY: 0 0.5620 2.3212 3.5575 0.0000 -10572.0538 1339.5295 0.0000 0.0000 1747.0576 -7479.0259 297.7174 -9226.0835 -7479.0259 297.7174 -803.1867 -707.9239 30468.3203 -803.1867 -707.9239
ENERGY: 300000 0.1262 3.2255 1.4847 0.0000 -10644.2294 1426.7989 0.0000 0.0000 1740.3355 -7472.2585 296.5719 -9212.5941 -7491.7150 299.6128 -263.6819 -237.3246 31077.1887 -257.3574 -197.1048
ENERGY: 600000 0.6607 5.4752 2.6970 0.0000 -10851.0067 1502.8584 0.0000 0.0000 1804.5215 -7534.7938 307.5098 -9339.3153 -7501.8522 301.5885 289.9589 335.6215 30657.2660 -209.6278 -169.3314
ENERGY: 900000 0.3368 3.3956 4.1028 0.0000 -10843.2677 1465.4081 0.0000 0.0000 1721.0689 -7648.9556 293.2886 -9370.0244 -7502.4024 300.6172 -118.9883 -38.7201 30100.0951 -145.1128 -88.9996
ENERGY: 1200000 0.9992 7.8008 1.9696 0.0000 -10569.0623 1332.5083 0.0000 0.0000 1732.7529 -7493.0316 295.2797 -9225.7845 -7490.5604 300.9220 -745.2593 -684.1421 30292.1783 -122.8800 -62.6192
ENERGY: 1500000 0.6601 3.0395 1.6662 0.0000 -10564.9638 1352.7215 0.0000 0.0000 1747.7913 -7459.0852 297.8424 -9206.8764 -7484.1173 301.2983 -755.5509 -645.1140 30939.4543 -189.1128 -129.6134
TCL: Exiting due to exit command.
