Info: SIMULATION PARAMETERS:
Info: TIMESTEP               2
Info: NUMBER OF STEPS        0
Info: STEPS PER CYCLE        10
Info: PERIODIC CELL BASIS 1  31.5761 0 0
Info: PERIODIC CELL BASIS 2  0 31.1547 0
Info: PERIODIC CELL BASIS 3  0 0 31.247
Info: PERIODIC CELL CENTER   0 0 0
Info: WRAPPING WATERS AROUND PERIODIC BOUNDARIES ON OUTPUT.
Info: WRAPPING ALL CLUSTERS AROUND PERIODIC BOUNDARIES ON OUTPUT.
Info: FIRST LDB TIMESTEP     50
Info: LAST LDB TIMESTEP     -1
Info: HOM BACKGROUND SCALING 1
Info: PME BACKGROUND SCALING 1
Info: MIN ATOMS PER PATCH    40
Info: EMPTY PATCH LOAD       40 ATOMS
Info: VELOCITY FILE          mobley_4630641_equil.vel
Info: CENTER OF MASS MOVING INITIALLY? NO
Info: DIELECTRIC             1
Info: EXCLUDE                SCALED ONE-FOUR
Info: 1-4 ELECTROSTATICS SCALED BY 0.833333
Info: MODIFIED 1-4 VDW PARAMETERS WILL BE USED
Info: DCD FILENAME           mobley_4630641_prod.dcd
Info: DCD FREQUENCY          100000
Info: DCD FIRST STEP         100000
Info: DCD FILE WILL CONTAIN UNIT CELL DATA
Info: XST FILENAME           mobley_4630641_prod.xst
Info: XST FREQUENCY          100000
Info: NO VELOCITY DCD OUTPUT
Info: NO FORCE DCD OUTPUT
Info: OUTPUT FILENAME        mobley_4630641_prod
Info: BINARY OUTPUT FILES WILL BE USED
Info: RESTART FILENAME       mobley_4630641_prod.restart
Info: RESTART FREQUENCY      100000
Info: BINARY RESTART FILES WILL BE USED
Info: CUTOFF                 9
Info: PAIRLIST DISTANCE      11
Info: PAIRLIST SHRINK RATE   0.01
Info: PAIRLIST GROW RATE     0.01
Info: PAIRLIST TRIGGER       0.3
Info: PAIRLISTS PER CYCLE    2
Info: PAIRLISTS ENABLED
Info: MARGIN                 2
Info: HYDROGEN GROUP CUTOFF  2.5
Info: PATCH DIMENSION        15.5
Info: ENERGY OUTPUT STEPS    100000
Info: ENERGY EVALUATION STEPS    100000
Info: OUTPUT ENERGY PRECISION 4
Info: CROSSTERM ENERGY INCLUDED IN DIHEDRAL
Info: TIMING OUTPUT STEPS    1000000
Info: PRESSURE OUTPUT STEPS  100000
Info: ALCHEMICAL FEP ON
Info: FEP CURRENT LAMBDA VALUE     1
Info: FEP COMPARISON LAMBDA VALUE  0.95
Info: FEP INTRA-ALCHEMICAL NON-BONDED INTERACTIONS WILL BE RETAINED
Info: FEP INTRA-ALCHEMICAL BONDED INTERACTIONS WILL BE RETAINED
Info: FEP VDW SHIFTING COEFFICIENT 5
Info: FEP ELEC. ACTIVE FOR ANNIHILATED PARTICLES BETWEEN LAMBDA = 0 AND LAMBDA = 0.5
Info: FEP ELEC. ACTIVE FOR EXNIHILATED PARTICLES BETWEEN LAMBDA = 0.5 AND LAMBDA = 1
Info: FEP VDW ACTIVE FOR ANNIHILATED PARTICLES BETWEEN LAMBDA = 0 AND LAMBDA = 1
Info: FEP VDW ACTIVE FOR EXNIHILATED PARTICLES BETWEEN LAMBDA = 0 AND LAMBDA = 1
Info: FEP BOND ACTIVE FOR ANNIHILATED PARTICLES BETWEEN LAMBDA = 1 AND LAMBDA = 1
Info: FEP BOND ACTIVE FOR EXNIHILATED PARTICLES BETWEEN LAMBDA = 0 AND LAMBDA = 0
Info: LANGEVIN DYNAMICS ACTIVE
Info: LANGEVIN TEMPERATURE   300
Info: LANGEVIN USING BBK INTEGRATOR
Info: LANGEVIN DAMPING COEFFICIENT IS 1 INVERSE PS
Info: LANGEVIN DYNAMICS APPLIED TO HYDROGENS
Info: LANGEVIN PISTON PRESSURE CONTROL ACTIVE
Info:        TARGET PRESSURE IS 1.01325 BAR
Info:     OSCILLATION PERIOD IS 50 FS
Info:             DECAY TIME IS 25 FS
Info:     PISTON TEMPERATURE IS 300 K
Info:       PRESSURE CONTROL IS GROUP-BASED
Info:    INITIAL STRAIN RATE IS 2.18248e-06 2.18248e-06 2.18248e-06
Info:       CELL FLUCTUATION IS ISOTROPIC
Info: PARTICLE MESH EWALD (PME) ACTIVE
Info: PME TOLERANCE               1e-06
Info: PME EWALD COEFFICIENT       0.348832
Info: PME INTERPOLATION ORDER     4
Info: PME GRID DIMENSIONS         32 32 32
Info: PME MAXIMUM GRID SPACING    1
Info: PME CALCULATION WILL BE PERFORMED ON GPU
Info: FULL ELECTROSTATIC EVALUATION FREQUENCY      2
Info: USING VERLET I (r-RESPA) MTS SCHEME.
Info: C1 SPLITTING OF LONG RANGE ELECTROSTATICS
Info: PLACING ATOMS IN PATCHES BY HYDROGEN GROUPS
Info: RIGID BONDS TO HYDROGEN : ALL
Info:         ERROR TOLERANCE : 1e-08
Info:          MAX ITERATIONS : 100
Info: RIGID WATER USING SETTLE ALGORITHM
Info: RANDOM NUMBER SEED     1743903333
Info: USE HYDROGEN BONDS?    NO
Info: Using AMBER format force field!
Info: AMBER PARM FILE        mobley_4630641.prmtop
Info: COORDINATE PDB         mobley_4630641.pdb
Info: Exclusions will be read from PARM file!
Info: SCNB (VDW SCALING)     2
Info: USING ARITHMETIC MEAN TO COMBINE L-J SIGMA PARAMETERS
Info: BINARY COORDINATES     mobley_4630641_equil.coor
Info: SUMMARY OF PARAMETERS:
Info: 5 BONDS
Info: 5 ANGLES
Info:   5 HARMONIC
Info:   0 COSINE-BASED
Info: 8 DIHEDRAL
Info: 0 IMPROPER
Info: 0 CROSSTERM
Info: 0 VDW
Info: 15 VDW_PAIRS
Info: 0 NBTHOLE_PAIRS
Info: To read alchdata from file: mobley_4630641.pdb
Info: To read alchflag data from column: 5
Info: STRUCTURE SUMMARY:
Info: 2956 ATOMS
Info: 2955 BONDS
Info: 26 ANGLES
Info: 28 DIHEDRALS
Info: 0 IMPROPERS
Info: 0 CROSSTERMS
Info: 3002 EXCLUSIONS
Info: 2950 RIGID BONDS
Info: ALCH: 0 ATOMS TO DISAPPEAR IN FINAL STATE
Info: ALCH: 16 ATOMS TO APPEAR IN FINAL STATE
Info: 5918 DEGREES OF FREEDOM
Info: 986 HYDROGEN GROUPS
Info: 4 ATOMS IN LARGEST HYDROGEN GROUP
Info: 986 MIGRATION GROUPS
Info: 4 ATOMS IN LARGEST MIGRATION GROUP
Info: TOTAL MASS = 17745.8 amu
Info: TOTAL CHARGE = -0.000399992 e
Info: MASS DENSITY = 0.958659 g/cm^3
Info: ATOM DENSITY = 0.0961643 atoms/A^3
Info: ADDED 0 IMPLICIT EXCLUSIONS
Info: NONBONDED TABLE R-SQUARED SPACING: 0.0625
Info: NONBONDED TABLE SIZE: 705 POINTS
Info: REDUCING NUMBER OF PATCHES TO IMPROVE LOAD BALANCE
Info: REMOVING COM VELOCITY 0.140573 -0.0385813 0.183212
Info: Use 3D box decompostion in PME FFT.
Info: Updated CUDA force table with 4096 elements.
Info: Updated CUDA LJ table with 5 x 5 elements.
Info: Found 19 unique exclusion lists needing 40 bytes
TCL: Running for 1500000 steps
ETITLE: TS BOND ANGLE DIHED IMPRP ELECT VDW BOUNDARY MISC KINETIC TOTAL TEMP POTENTIAL TOTALAVG TEMPAVG PRESSURE GPRESSURE VOLUME PRESSAVG GPRESSAVG
ENERGY: 0 1.3841 5.0124 6.1292 0.0000 -10629.7968 1397.7347 0.0000 0.0000 1768.0265 -7451.5099 300.6798 -9219.5364 -7451.5099 300.6798 -445.0423 -360.1982 30739.0612 -445.0423 -360.1982
ENERGY: 300000 0.7544 6.1072 1.9554 0.0000 -10706.5728 1418.8761 0.0000 0.0000 1794.6968 -7484.1828 305.2154 -9278.8796 -7451.9675 301.7036 -197.0764 -149.6900 30443.1482 -274.5048 -205.5626
ENERGY: 600000 1.1248 4.4279 2.6796 0.0000 -10714.7675 1456.4655 0.0000 0.0000 1813.1556 -7436.9141 308.3546 -9250.0697 -7452.0038 304.0005 402.6775 476.2886 30025.4586 -140.4299 -77.5755
ENERGY: 900000 0.2653 5.0876 2.0385 0.0000 -10693.4995 1401.6567 0.0000 0.0000 1748.5221 -7535.9293 297.3627 -9284.4514 -7465.9426 302.6353 -452.2128 -414.6038 30782.5146 -161.3771 -94.5401
ENERGY: 1200000 1.7025 5.0812 4.7597 0.0000 -10828.2268 1545.2145 0.0000 0.0000 1707.6604 -7563.8085 290.4136 -9271.4689 -7461.8879 301.9568 980.4031 1078.1569 29672.8549 -36.8989 29.5087
ENERGY: 1500000 3.1269 7.1331 5.5492 0.0000 -10683.6748 1450.5566 0.0000 0.0000 1745.6511 -7471.6579 296.8745 -9217.3089 -7463.0922 301.2783 214.5578 230.7169 30186.7750 -20.0872 43.2687
TCL: Running FEP window   2: Lambda1 0.95   Lambda2 0.8999999999999999 [dLambda -0.050000000000000044]
TCL: Setting parameter firsttimestep to 0
TCL: Setting parameter alchLambda to 0.95
Info: NONBONDED TABLE R-SQUARED SPACING: 0.0625
Info: NONBONDED TABLE SIZE: 705 POINTS
TCL: Setting parameter alchLambda2 to 0.8999999999999999
Info: NONBONDED TABLE R-SQUARED SPACING: 0.0625
Info: NONBONDED TABLE SIZE: 705 POINTS
TCL: Running for 1500000 steps
ETITLE: TS BOND ANGLE DIHED IMPRP ELECT VDW BOUNDARY MISC KINETIC TOTAL TEMP POTENTIAL TOTALAVG TEMPAVG PRESSURE GPRESSURE VOLUME PRESSAVG GPRESSAVG
ENERGY: 0 3.1269 7.1331 5.5492 0.0000 -10682.4957 1450.7330 0.0000 0.0000 1744.7457 -7471.2079 296.7205 -9215.9536 -7471.2079 296.7205 139.8278 227.0130 30186.7750 139.8278 227.0130
ENERGY: 300000 0.8069 7.7742 1.8150 0.0000 -10750.5165 1502.8575 0.0000 0.0000 1811.3167 -7425.9462 308.0419 -9237.2629 -7450.4262 301.8051 835.7307 870.3563 30129.5706 160.5509 224.8970
ENERGY: 600000 0.9314 8.4449 5.0630 0.0000 -10511.3285 1327.7178 0.0000 0.0000 1757.3346 -7411.8367 298.8614 -9169.1714 -7453.6652 302.5253 -805.4785 -745.2820 30906.3862 87.3004 155.8841
ENERGY: 900000 1.6713 4.3715 4.0544 0.0000 -10687.5997 1418.0795 0.0000 0.0000 1752.9116 -7506.5112 298.1092 -9259.4229 -7458.6967 302.1474 17.1431 77.5720 29922.1865 20.4827 98.2622
ENERGY: 1200000 1.8438 8.1705 2.1055 0.0000 -10846.3391 1460.2950 0.0000 0.0000 1736.6710 -7637.2533 295.3473 -9373.9243 -7483.4028 301.0535 23.6017 100.5567 30237.8559 78.8744 149.6074
ENERGY: 1500000 1.3541 6.4564 4.6031 0.0000 -10629.3414 1406.9671 0.0000 0.0000 1752.5302 -7457.4304 298.0444 -9209.9607 -7492.7696 300.0704 -426.0485 -384.0190 30851.8337 -62.6154 5.5034
TCL: Running FEP window   3: Lambda1 0.8999999999999999 Lambda2 0.8499999999999999 [dLambda -0.050000000000000044]
TCL: Setting parameter firsttimestep to 0
TCL: Setting parameter alchLambda to 0.8999999999999999
Info: NONBONDED TABLE R-SQUARED SPACING: 0.0625
Info: NONBONDED TABLE SIZE: 705 POINTS
TCL: Setting parameter alchLambda2 to 0.8499999999999999
Info: NONBONDED TABLE R-SQUARED SPACING: 0.0625
Info: NONBONDED TABLE SIZE: 705 POINTS
TCL: Running for 1500000 steps
ETITLE: TS BOND ANGLE DIHED IMPRP ELECT VDW BOUNDARY MISC KINETIC TOTAL TEMP POTENTIAL TOTALAVG TEMPAVG PRESSURE GPRESSURE VOLUME PRESSAVG GPRESSAVG
ENERGY: 0 1.3541 6.4564 4.6031 0.0000 -10628.1215 1406.5780 0.0000 0.0000 1751.6509 -7457.4789 297.8948 -9209.1298 -7457.4789 297.8948 -479.4976 -401.9196 30851.8337 -479.4976 -401.9196
ENERGY: 300000 0.6392 8.2427 3.2806 0.0000 -10788.7511 1484.6064 0.0000 0.0000 1768.7362 -7523.2460 300.8004 -9291.9822 -7497.0756 298.9825 358.6716 405.8997 30202.3430 -93.8454 -49.5595
ENERGY: 600000 2.6811 7.6653 2.5466 0.0000 -10680.7670 1428.7524 0.0000 0.0000 1791.8422 -7447.2794 304.7300 -9239.1216 -7512.0568 297.1240 -216.4067 -200.9612 31112.8831 98.9608 120.0286
ENERGY: 900000 1.9651 10.5166 3.0733 0.0000 -10736.7704 1423.1525 0.0000 0.0000 1756.7214 -7541.3415 298.7572 -9298.0629 -7522.3174 296.5117 -438.5548 -330.8652 30691.3367 -59.9212 -22.9930
ENERGY: 1200000 1.9312 8.3481 1.7726 0.0000 -10637.1212 1395.6655 0.0000 0.0000 1704.2456 -7525.1582 289.8329 -9229.4038 -7514.5392 296.2831 -474.3213 -424.9719 30863.0835 -87.1108 -41.7946
ENERGY: 1500000 3.3948 3.8278 3.9166 0.0000 -10602.3523 1373.5668 0.0000 0.0000 1722.1394 -7495.5070 292.8760 -9217.6463 -7508.4500 296.6088 -401.3545 -303.8858 30343.9887 -147.0452 -97.8959
TCL: Running FEP window   4: Lambda1 0.8499999999999999 Lambda2 0.7999999999999998 [dLambda -0.050000000000000044]
TCL: Setting parameter firsttimestep to 0
TCL: Setting parameter alchLambda to 0.8499999999999999
Info: NONBONDED TABLE R-SQUARED SPACING: 0.0625
Info: NONBONDED TABLE SIZE: 705 POINTS
TCL: Setting parameter alchLambda2 to 0.7999999999999998
Info: NONBONDED TABLE R-SQUARED SPACING: 0.0625
Info: NONBONDED TABLE SIZE: 705 POINTS
TCL: Running for 1500000 steps
ETITLE: TS BOND ANGLE DIHED IMPRP ELECT VDW BOUNDARY MISC KINETIC TOTAL TEMP POTENTIAL TOTALAVG TEMPAVG PRESSURE GPRESSURE VOLUME PRESSAVG GPRESSAVG
ENERGY: 0 3.3948 3.8278 3.9166 0.0000 -10600.5158 1372.0382 0.0000 0.0000 1721.2590 -7496.0793 292.7262 -9217.3383 -7496.0793 292.7262 -412.5401 -329.9351 30343.9887 -412.5401 -329.9351
ENERGY: 300000 1.5567 8.5068 3.4871 0.0000 -10531.4548 1353.4969 0.0000 0.0000 1740.0159 -7424.3912 295.9161 -9164.4072 -7465.5421 295.4346 -561.2804 -546.4642 30496.5302 -141.8284 -84.9224
ENERGY: 600000 1.0041 7.3615 1.4234 0.0000 -10630.1017 1467.0549 0.0000 0.0000 1733.6520 -7419.6058 294.8339 -9153.2579 -7481.5967 296.5993 497.4344 613.0919 30285.3367 -21.0215 34.1044
ENERGY: 900000 1.7429 6.4601 1.8663 0.0000 -10701.2889 1383.8230 0.0000 0.0000 1745.8550 -7561.5416 296.9092 -9307.3966 -7483.9530 297.9024 -576.7408 -527.4339 30332.7523 -30.9119 17.0218
ENERGY: 1200000 1.1418 8.1222 3.1718 0.0000 -10553.7265 1354.9768 0.0000 0.0000 1801.5990 -7384.7150 306.3893 -9186.3139 -7471.2879 298.6073 -422.6931 -390.2217 30705.4533 -114.0331 -73.2184
ENERGY: 1500000 0.6816 6.6105 2.7481 0.0000 -10779.5989 1495.4214 0.0000 0.0000 1796.0172 -7478.1201 305.4400 -9274.1373 -7471.7859 299.0536 324.3920 372.4720 30527.1420 -101.2297 -59.7817
TCL: Running FEP window   5: Lambda1 0.7999999999999998 Lambda2 0.7499999999999998 [dLambda -0.050000000000000044]
TCL: Setting parameter firsttimestep to 0
TCL: Setting parameter alchLambda to 0.7999999999999998
Info: NONBONDED TABLE R-SQUARED SPACING: 0.0625
Info: NONBONDED TABLE SIZE: 705 POINTS
TCL: Setting parameter alchLambda2 to 0.7499999999999998
Info: NONBONDED TABLE R-SQUARED SPACING: 0.0625
Info: NONBONDED TABLE SIZE: 705 POINTS
TCL: Running for 1500000 steps
ETITLE: TS BOND ANGLE DIHED IMPRP ELECT VDW BOUNDARY MISC KINETIC TOTAL TEMP POTENTIAL TOTALAVG TEMPAVG PRESSURE GPRESSURE VOLUME PRESSAVG GPRESSAVG
ENERGY: 0 0.6816 6.6105 2.7481 0.0000 -10778.8862 1495.6321 0.0000 0.0000 1795.1060 -7478.1080 305.2850 -9273.2140 -7478.1080 305.2850 285.8008 364.4192 30527.1420 285.8008 364.4192
ENERGY: 300000 0.7702 4.7996 4.2914 0.0000 -10653.8616 1386.6259 0.0000 0.0000 1779.4250 -7477.9494 302.6182 -9257.3744 -7528.6346 296.2155 -485.7416 -467.1406 30595.4602 -9.9725 32.2659
ENERGY: 600000 0.7819 8.5395 3.8557 0.0000 -10715.3740 1388.0189 0.0000 0.0000 1791.8325 -7522.3456 304.7283 -9314.1781 -7515.8058 299.0887 -543.9295 -419.2390 30148.8779 -119.1876 -56.8730
ENERGY: 900000 0.2623 11.5103 5.5762 0.0000 -10619.3725 1336.4468 0.0000 0.0000 1799.5856 -7465.9915 306.0469 -9265.5770 -7520.7765 298.9792 -885.2763 -818.4279 30472.1178 -254.0106 -187.2779
ENERGY: 1200000 2.0886 8.0486 1.9739 0.0000 -10724.1005 1502.6436 0.0000 0.0000 1751.1260 -7458.2197 297.8056 -9209.3457 -7506.7229 299.1922 501.1059 600.6932 30486.5973 -199.0184 -128.6586
ENERGY: 1500000 0.4909 4.8049 2.5578 0.0000 -10709.7279 1476.1676 0.0000 0.0000 1821.1021 -7404.6047 309.7061 -9225.7068 -7493.0065 300.0272 566.5760 637.9297 30228.7225 -201.3770 -138.1370
TCL: Running FEP window   6: Lambda1 0.7499999999999998 Lambda2 0.6999999999999997 [dLambda -0.050000000000000044]
TCL: Setting parameter firsttimestep to 0
TCL: Setting parameter alchLambda to 0.7499999999999998
Info: NONBONDED TABLE R-SQUARED SPACING: 0.0625
Info: NONBONDED TABLE SIZE: 705 POINTS
TCL: Setting parameter alchLambda2 to 0.6999999999999997
Info: NONBONDED TABLE R-SQUARED SPACING: 0.0625
Info: NONBONDED TABLE SIZE: 705 POINTS
TCL: Running for 1500000 steps
ETITLE: TS BOND ANGLE DIHED IMPRP ELECT VDW BOUNDARY MISC KINETIC TOTAL TEMP POTENTIAL TOTALAVG TEMPAVG PRESSURE GPRESSURE VOLUME PRESSAVG GPRESSAVG
ENERGY: 0 0.4909 4.8049 2.5578 0.0000 -10708.5335 1475.6850 0.0000 0.0000 1820.2132 -7404.7818 309.5549 -9224.9950 -7404.7818 309.5549 528.9756 625.0973 30228.7225 528.9756 625.0973
ENERGY: 300000 1.3038 9.2785 2.7088 0.0000 -10668.1147 1397.2627 0.0000 0.0000 1724.2627 -7533.2983 293.2371 -9257.5610 -7460.4611 300.6541 -691.3276 -578.6274 30747.4669 -290.5883 -214.9251
ENERGY: 600000 2.1706 4.5901 1.9521 0.0000 -10633.9585 1425.0967 0.0000 0.0000 1753.8530 -7446.2961 298.2693 -9200.1490 -7458.8000 300.2354 92.9569 115.8259 30183.1805 -270.2552 -219.2943
ENERGY: 900000 2.8149 4.9004 5.6110 0.0000 -10606.8188 1385.9529 0.0000 0.0000 1817.1004 -7390.4391 309.0255 -9207.5396 -7447.6848 302.5216 -328.1379 -310.4185 30498.9268 -387.6793 -339.0453
ENERGY: 1200000 1.5754 6.4371 2.6012 0.0000 -10854.2167 1584.4296 0.0000 0.0000 1764.6755 -7494.4980 300.1099 -9259.1735 -7449.5807 302.2752 1325.1208 1402.5084 30006.6603 -304.0980 -248.7332
ENERGY: 1500000 1.0201 4.0305 2.5655 0.0000 -10733.7510 1457.6218 0.0000 0.0000 1764.6720 -7503.8410 300.1093 -9268.5130 -7458.1390 301.9351 -170.9085 -54.5145 30794.6893 -147.3516 -85.0905
TCL: Running FEP window   7: Lambda1 0.6999999999999997 Lambda2 0.6499999999999997 [dLambda -0.050000000000000044]
TCL: Setting parameter firsttimestep to 0
TCL: Setting parameter alchLambda to 0.6999999999999997
Info: NONBONDED TABLE R-SQUARED SPACING: 0.0625
Info: NONBONDED TABLE SIZE: 705 POINTS
TCL: Setting parameter alchLambda2 to 0.6499999999999997
Info: NONBONDED TABLE R-SQUARED SPACING: 0.0625
Info: NONBONDED TABLE SIZE: 705 POINTS
TCL: Running for 1500000 steps
ETITLE: TS BOND ANGLE DIHED IMPRP ELECT VDW BOUNDARY MISC KINETIC TOTAL TEMP POTENTIAL TOTALAVG TEMPAVG PRESSURE GPRESSURE VOLUME PRESSAVG GPRESSAVG
ENERGY: 0 1.0201 4.0305 2.5655 0.0000 -10731.9193 1457.1233 0.0000 0.0000 1763.7987 -7503.3811 299.9608 -9267.1798 -7503.3811 299.9608 -136.9709 -62.6675 30794.6893 -136.9709 -62.6675
ENERGY: 300000 1.9211 4.9170 3.5961 0.0000 -10685.1335 1475.4308 0.0000 0.0000 1771.7484 -7427.5201 301.3127 -9199.2685 -7459.0220 301.6152 414.0756 501.4598 30488.2297 142.4094 211.2191
ENERGY: 600000 2.3030 8.3948 2.9858 0.0000 -10829.8865 1531.0707 0.0000 0.0000 1800.5216 -7484.6105 306.2060 -9285.1321 -7458.2682 301.1137 505.0219 657.6412 30486.0884 133.4835 216.4701
ENERGY: 900000 0.8559 10.7580 4.7341 0.0000 -10648.8180 1421.6914 0.0000 0.0000 1725.5717 -7485.2069 293.4597 -9210.7787 -7467.9534 301.1260 -104.5902 -118.4740 30590.2736 77.8138 144.2530
ENERGY: 1200000 2.1346 5.3971 4.5007 0.0000 -10762.9722 1455.2135 0.0000 0.0000 1743.7220 -7552.0043 296.5464 -9295.7263 -7486.8484 300.4076 139.1032 241.0747 30193.6743 38.2317 108.1054
ENERGY: 1500000 0.3927 7.3352 1.7955 0.0000 -10706.0007 1486.5542 0.0000 0.0000 1759.3972 -7450.5258 299.2122 -9209.9230 -7485.4965 300.3201 532.9877 579.4067 30389.7614 24.5805 100.5665
TCL: Running FEP window   8: Lambda1 0.6499999999999997 Lambda2 0.5999999999999996 [dLambda -0.050000000000000044]
TCL: Setting parameter firsttimestep to 0
TCL: Setting parameter alchLambda to 0.6499999999999997
Info: NONBONDED TABLE R-SQUARED SPACING: 0.0625
Info: NONBONDED TABLE SIZE: 705 POINTS
TCL: Setting parameter alchLambda2 to 0.5999999999999996
Info: NONBONDED TABLE R-SQUARED SPACING: 0.0625
Info: NONBONDED TABLE SIZE: 705 POINTS
TCL: Running for 1500000 steps
ETITLE: TS BOND ANGLE DIHED IMPRP ELECT VDW BOUNDARY MISC KINETIC TOTAL TEMP POTENTIAL TOTALAVG TEMPAVG PRESSURE GPRESSURE VOLUME PRESSAVG GPRESSAVG
ENERGY: 0 0.3927 7.3352 1.7955 0.0000 -10705.5582 1486.1767 0.0000 0.0000 1758.5834 -7451.2746 299.0738 -9209.8580 -7451.2746 299.0738 475.5209 563.1852 30389.7614 475.5209 563.1852
ENERGY: 300000 1.0597 7.0879 2.5179 0.0000 -10800.0410 1531.1095 0.0000 0.0000 1711.9233 -7546.3427 291.1385 -9258.2659 -7481.3153 297.3347 737.2164 738.6827 30256.0978 184.1835 241.4068
ENERGY: 600000 1.1994 8.0875 3.8509 0.0000 -10611.1527 1374.1985 0.0000 0.0000 1756.7018 -7467.1148 298.7538 -9223.8165 -7498.2728 296.7495 -737.7052 -650.4071 30813.3393 -61.2732 3.7866
ENERGY: 900000 0.5694 7.4577 5.9811 0.0000 -10538.2792 1388.1256 0.0000 0.0000 1760.1089 -7376.0365 299.3333 -9136.1454 -7486.9673 298.9658 -269.0886 -210.6586 30775.6686 -100.5010 -34.4028
ENERGY: 1200000 0.1412 6.9585 3.4372 0.0000 -10774.6189 1437.5670 0.0000 0.0000 1796.9556 -7529.5593 305.5996 -9326.5150 -7489.0461 299.9544 -41.7395 18.5400 29996.7714 -26.2882 39.6857
ENERGY: 1500000 3.4820 5.0850 4.8993 0.0000 -10434.1192 1249.2255 0.0000 0.0000 1775.4853 -7395.9422 301.9482 -9171.4274 -7485.5587 299.9670 -1437.8295 -1325.7067 30593.3818 -180.2632 -111.0997
TCL: Running FEP window   9: Lambda1 0.5999999999999996 Lambda2 0.5499999999999996 [dLambda -0.050000000000000044]
TCL: Setting parameter firsttimestep to 0
TCL: Setting parameter alchLambda to 0.5999999999999996
Info: NONBONDED TABLE R-SQUARED SPACING: 0.0625
Info: NONBONDED TABLE SIZE: 705 POINTS
TCL: Setting parameter alchLambda2 to 0.5499999999999996
Info: NONBONDED TABLE R-SQUARED SPACING: 0.0625
Info: NONBONDED TABLE SIZE: 705 POINTS
TCL: Running for 1500000 steps
ETITLE: TS BOND ANGLE DIHED IMPRP ELECT VDW BOUNDARY MISC KINETIC TOTAL TEMP POTENTIAL TOTALAVG TEMPAVG PRESSURE GPRESSURE VOLUME PRESSAVG GPRESSAVG
ENERGY: 0 3.4820 5.0850 4.8993 0.0000 -10434.0047 1249.5736 0.0000 0.0000 1774.6290 -7396.3358 301.8026 -9170.9648 -7396.3358 301.8026 -1402.9388 -1328.6191 30593.3818 -1402.9388 -1328.6191
ENERGY: 300000 1.4972 10.5162 4.7909 0.0000 -10674.1125 1403.8056 0.0000 0.0000 1742.4146 -7511.0879 296.3241 -9253.5025 -7479.7471 295.1350 -118.0655 -91.2437 30133.0404 -253.6632 -200.2068
ENERGY: 600000 0.7605 9.4750 1.8096 0.0000 -10538.7387 1348.7426 0.0000 0.0000 1724.4087 -7453.5423 293.2619 -9177.9509 -7484.2918 294.9101 -624.4889 -624.5323 30478.0245 -164.9017 -103.4376
ENERGY: 900000 1.6549 7.8898 6.6371 0.0000 -10667.7852 1406.9881 0.0000 0.0000 1737.0801 -7507.5352 295.4169 -9244.6153 -7490.5141 295.6393 -302.3585 -253.9678 30356.9906 -218.7502 -164.7421
ENERGY: 1200000 1.6533 14.2118 2.0481 0.0000 -10517.8849 1338.0495 0.0000 0.0000 1749.9764 -7411.9458 297.6101 -9161.9222 -7478.3506 296.3964 -679.2533 -620.6041 30735.2402 -153.2879 -103.4106
ENERGY: 1500000 0.9704 9.4021 2.4426 0.0000 -10683.0187 1444.5111 0.0000 0.0000 1790.6919 -7435.0006 304.5344 -9225.6925 -7475.2922 296.9983 53.9144 188.7932 30391.7043 -144.1760 -83.8947
TCL: Running FEP window  10: Lambda1 0.5499999999999996 Lambda2 0.4999999999999996 [dLambda -0.04999999999999999]
TCL: Setting parameter firsttimestep to 0
TCL: Setting parameter alchLambda to 0.5499999999999996
Info: NONBONDED TABLE R-SQUARED SPACING: 0.0625
Info: NONBONDED TABLE SIZE: 705 POINTS
TCL: Setting parameter alchLambda2 to 0.4999999999999996
Info: NONBONDED TABLE R-SQUARED SPACING: 0.0625
Info: NONBONDED TABLE SIZE: 705 POINTS
TCL: Running for 1500000 steps
ETITLE: TS BOND ANGLE DIHED IMPRP ELECT VDW BOUNDARY MISC KINETIC TOTAL TEMP POTENTIAL TOTALAVG TEMPAVG PRESSURE GPRESSURE VOLUME PRESSAVG GPRESSAVG
ENERGY: 0 0.9704 9.4021 2.4426 0.0000 -10682.7822 1445.0431 0.0000 0.0000 1789.7429 -7435.1811 304.3730 -9224.9240 -7435.1811 304.3730 105.1880 188.5383 30391.7043 105.1880 188.5383
ENERGY: 300000 0.5445 12.1789 4.6955 0.0000 -10754.3410 1493.5707 0.0000 0.0000 1801.8899 -7441.4614 306.4388 -9243.3513 -7421.7775 304.6930 665.4449 821.7097 30029.9898 -20.7338 75.5652
ENERGY: 600000 1.8265 4.7142 2.3459 0.0000 -10674.0176 1411.1795 0.0000 0.0000 1702.1860 -7551.7656 289.4826 -9253.9516 -7433.6016 302.9756 -186.2941 -117.9971 29948.6552 23.1157 103.6168
ENERGY: 900000 0.8955 9.8897 4.2995 0.0000 -10827.5607 1496.5057 0.0000 0.0000 1726.1115 -7589.8587 293.5515 -9315.9703 -7448.2074 301.8370 397.1612 530.7922 30017.5723 99.3642 179.0036
ENERGY: 1200000 0.2401 9.9965 6.1471 0.0000 -10633.7278 1410.5546 0.0000 0.0000 1736.8274 -7469.9622 295.3739 -9206.7896 -7452.2969 300.5442 -227.3215 -233.7198 30624.4390 43.7938 114.4705
ENERGY: 1500000 2.5340 5.8008 2.2544 0.0000 -10614.9910 1440.1640 0.0000 0.0000 1740.5631 -7423.6747 296.0092 -9164.2378 -7454.0344 301.0657 -119.6025 -105.0954 31203.0014 69.1196 134.2084
TCL: Running FEP window  11: Lambda1 0.4999999999999996 Lambda2 0.4499999999999996 [dLambda -0.04999999999999999]
TCL: Setting parameter firsttimestep to 0
TCL: Setting parameter alchLambda to 0.4999999999999996
Info: NONBONDED TABLE R-SQUARED SPACING: 0.0625
Info: NONBONDED TABLE SIZE: 705 POINTS
TCL: Setting parameter alchLambda2 to 0.4499999999999996
Info: NONBONDED TABLE R-SQUARED SPACING: 0.0625
Info: NONBONDED TABLE SIZE: 705 POINTS
TCL: Running for 1500000 steps
ETITLE: TS BOND ANGLE DIHED IMPRP ELECT VDW BOUNDARY MISC KINETIC TOTAL TEMP POTENTIAL TOTALAVG TEMPAVG PRESSURE GPRESSURE VOLUME PRESSAVG GPRESSAVG
ENERGY: 0 2.5340 5.8008 2.2544 0.0000 -10614.8562 1440.3185 0.0000 0.0000 1739.7278 -7424.2208 295.8671 -9163.9486 -7424.2208 295.8671 -175.2804 -109.2710 31203.0014 -175.2804 -109.2710
ENERGY: 300000 1.1254 11.2912 4.7913 0.0000 -10828.8012 1474.0087 0.0000 0.0000 1773.3597 -7564.2248 301.5867 -9337.5845 -7500.6273 298.9363 -0.0945 17.9310 30273.9824 -65.4795 -6.9599
ENERGY: 600000 3.3915 9.0530 4.3069 0.0000 -10885.3671 1579.5698 0.0000 0.0000 1743.4775 -7545.5683 296.5048 -9289.0459 -7513.6386 299.7173 847.6423 925.0093 30059.4902 -25.4350 55.6109
ENERGY: 900000 2.1113 10.2875 4.4811 0.0000 -10581.6389 1408.1026 0.0000 0.0000 1787.2503 -7369.4061 303.9491 -9156.6564 -7494.0053 299.8631 46.0935 110.9250 30333.2540 -177.6440 -101.8138
ENERGY: 1200000 2.1478 3.1843 1.9578 0.0000 -10756.5456 1482.5853 0.0000 0.0000 1750.3590 -7516.3113 297.6751 -9266.6704 -7505.3129 299.5518 600.0334 604.8565 29715.3507 -56.0533 18.2714
ENERGY: 1500000 0.8850 6.1549 3.0477 0.0000 -10683.0775 1404.7653 0.0000 0.0000 1839.1980 -7429.0265 312.7836 -9268.2245 -7498.7580 300.6288 -317.2117 -247.5224 30410.4306 -116.3690 -42.3003
TCL: Running FEP window  12: Lambda1 0.4499999999999996 Lambda2 0.39999999999999963 [dLambda -0.04999999999999999]
TCL: Setting parameter firsttimestep to 0
TCL: Setting parameter alchLambda to 0.4499999999999996
Info: NONBONDED TABLE R-SQUARED SPACING: 0.0625
Info: NONBONDED TABLE SIZE: 705 POINTS
TCL: Setting parameter alchLambda2 to 0.39999999999999963
Info: NONBONDED TABLE R-SQUARED SPACING: 0.0625
Info: NONBONDED TABLE SIZE: 705 POINTS
TCL: Running for 1500000 steps
ETITLE: TS BOND ANGLE DIHED IMPRP ELECT VDW BOUNDARY MISC KINETIC TOTAL TEMP POTENTIAL TOTALAVG TEMPAVG PRESSURE GPRESSURE VOLUME PRESSAVG GPRESSAVG
ENERGY: 0 0.8850 6.1549 3.0477 0.0000 -10683.0769 1404.6610 0.0000 0.0000 1838.3253 -7430.0030 312.6351 -9268.3283 -7430.0030 312.6351 -342.4830 -255.0078 30410.4306 -342.4830 -255.0078
ENERGY: 300000 1.8998 3.6755 6.5664 0.0000 -10729.6653 1487.6071 0.0000 0.0000 1730.0191 -7499.8974 294.2160 -9229.9165 -7484.7086 299.6279 463.8313 472.6289 30129.0419 -232.0176 -161.4115
ENERGY: 600000 0.5264 6.3144 2.0621 0.0000 -10686.6319 1394.9807 0.0000 0.0000 1758.8247 -7523.9236 299.1149 -9282.7484 -7481.2830 300.4632 -539.3858 -502.4895 30580.8429 -270.6799 -213.1833
ENERGY: 900000 1.4948 5.9167 3.4356 0.0000 -10656.4639 1374.0762 0.0000 0.0000 1759.0074 -7512.5331 299.1459 -9271.5406 -7491.8424 299.6223 -680.7181 -680.3883 30686.5365 -355.5377 -309.5052
ENERGY: 1200000 3.0748 6.6863 1.9290 0.0000 -10652.9774 1345.0624 0.0000 0.0000 1756.6664 -7539.5587 298.7478 -9296.2250 -7500.1249 299.7954 -954.1082 -873.9846 30284.8246 -240.9287 -188.6087
ENERGY: 1500000 1.8874 5.7126 3.1382 0.0000 -10799.0800 1529.8452 0.0000 0.0000 1761.9541 -7496.5425 299.6471 -9258.4966 -7496.6043 300.0559 567.0791 678.2779 30235.1433 -208.3637 -144.3138
TCL: Running FEP window  13: Lambda1 0.39999999999999963 Lambda2 0.34999999999999964 [dLambda -0.04999999999999999]
TCL: Setting parameter firsttimestep to 0
TCL: Setting parameter alchLambda to 0.39999999999999963
Info: NONBONDED TABLE R-SQUARED SPACING: 0.0625
Info: NONBONDED TABLE SIZE: 705 POINTS
TCL: Setting parameter alchLambda2 to 0.34999999999999964
Info: NONBONDED TABLE R-SQUARED SPACING: 0.0625
Info: NONBONDED TABLE SIZE: 705 POINTS
TCL: Running for 1500000 steps
ETITLE: TS BOND ANGLE DIHED IMPRP ELECT VDW BOUNDARY MISC KINETIC TOTAL TEMP POTENTIAL TOTALAVG TEMPAVG PRESSURE GPRESSURE VOLUME PRESSAVG GPRESSAVG
ENERGY: 0 1.8874 5.7126 3.1382 0.0000 -10799.0813 1530.0414 0.0000 0.0000 1761.1179 -7497.1837 299.5049 -9258.3017 -7497.1837 299.5049 595.5349 676.0274 30235.1433 595.5349 676.0274
ENERGY: 300000 1.5368 8.7036 1.9193 0.0000 -10726.6651 1464.3721 0.0000 0.0000 1747.5910 -7502.5423 297.2044 -9250.1333 -7458.2242 302.9554 242.5298 295.0351 29955.3496 177.8277 254.8800
ENERGY: 600000 1.1269 4.5472 2.6358 0.0000 -10626.3326 1419.6679 0.0000 0.0000 1728.4960 -7469.8587 293.9570 -9198.3547 -7438.4533 302.1441 -183.7882 -104.1615 30613.4635 76.7446 136.5757
ENERGY: 900000 2.5156 5.0181 3.2953 0.0000 -10687.2354 1418.2947 0.0000 0.0000 1804.1751 -7453.9366 306.8274 -9258.1117 -7432.8386 303.6232 -128.7324 -53.1749 30291.9979 -62.5305 5.5167
ENERGY: 1200000 1.0049 7.4329 3.4415 0.0000 -10671.3423 1433.7745 0.0000 0.0000 1751.5696 -7474.1188 297.8810 -9225.6884 -7441.3664 303.3741 42.0686 34.3446 30231.9379 -60.7313 -8.5244
ENERGY: 1500000 1.4323 7.2319 3.5875 0.0000 -10774.7091 1479.2183 0.0000 0.0000 1716.6544 -7566.5848 291.9431 -9283.2392 -7446.0235 301.8718 -28.0856 53.4305 30538.9748 -102.5641 -50.8864
TCL: Running FEP window  14: Lambda1 0.34999999999999964 Lambda2 0.29999999999999966 [dLambda -0.04999999999999999]
TCL: Setting parameter firsttimestep to 0
TCL: Setting parameter alchLambda to 0.34999999999999964
Info: NONBONDED TABLE R-SQUARED SPACING: 0.0625
Info: NONBONDED TABLE SIZE: 705 POINTS
TCL: Setting parameter alchLambda2 to 0.29999999999999966
Info: NONBONDED TABLE R-SQUARED SPACING: 0.0625
Info: NONBONDED TABLE SIZE: 705 POINTS
TCL: Running for 1500000 steps
ETITLE: TS BOND ANGLE DIHED IMPRP ELECT VDW BOUNDARY MISC KINETIC TOTAL TEMP POTENTIAL TOTALAVG TEMPAVG PRESSURE GPRESSURE VOLUME PRESSAVG GPRESSAVG
ENERGY: 0 1.4323 7.2319 3.5875 0.0000 -10774.7090 1479.1688 0.0000 0.0000 1715.7326 -7567.5560 291.7864 -9283.2886 -7567.5560 291.7864 -34.2837 46.5349 30538.9748 -34.2837 46.5349
ENERGY: 300000 3.4025 8.0517 4.4917 0.0000 -10753.0737 1449.1511 0.0000 0.0000 1749.2402 -7538.7365 297.4849 -9287.9767 -7507.4715 297.5951 -281.1627 -201.7812 30467.6357 -464.6280 -390.3755
ENERGY: 600000 1.0584 7.9985 4.0236 0.0000 -10584.2654 1438.3740 0.0000 0.0000 1789.5010 -7343.3099 304.3318 -9132.8110 -7474.9495 299.3754 193.5580 273.8891 30493.0266 -282.8093 -208.7155
ENERGY: 900000 0.3398 9.2123 3.2522 0.0000 -10644.0488 1376.6887 0.0000 0.0000 1786.7932 -7467.7625 303.8713 -9254.5557 -7482.2409 298.9586 -608.0095 -572.3805 30560.0532 -300.7288 -237.9049
ENERGY: 1200000 1.2758 5.8463 4.9888 0.0000 -10598.5647 1374.2150 0.0000 0.0000 1802.7031 -7409.5357 306.5770 -9212.2388 -7478.6509 300.1141 -452.7787 -427.8583 30607.4216 -289.6613 -230.5213
ENERGY: 1500000 1.6573 6.8386 4.2083 0.0000 -10706.7733 1476.9566 0.0000 0.0000 1767.5415 -7449.5711 300.5973 -9217.1126 -7466.9831 299.7493 410.7305 421.8425 30243.4223 -200.8859 -143.9588
TCL: Running FEP window  15: Lambda1 0.29999999999999966 Lambda2 0.24999999999999967 [dLambda -0.04999999999999999]
TCL: Setting parameter firsttimestep to 0
TCL: Setting parameter alchLambda to 0.29999999999999966
Info: NONBONDED TABLE R-SQUARED SPACING: 0.0625
Info: NONBONDED TABLE SIZE: 705 POINTS
TCL: Setting parameter alchLambda2 to 0.24999999999999967
Info: NONBONDED TABLE R-SQUARED SPACING: 0.0625
Info: NONBONDED TABLE SIZE: 705 POINTS
TCL: Running for 1500000 steps
ETITLE: TS BOND ANGLE DIHED IMPRP ELECT VDW BOUNDARY MISC KINETIC TOTAL TEMP POTENTIAL TOTALAVG TEMPAVG PRESSURE GPRESSURE VOLUME PRESSAVG GPRESSAVG
ENERGY: 0 1.6573 6.8386 4.2083 0.0000 -10706.7774 1476.1619 0.0000 0.0000 1766.6174 -7451.2940 300.4401 -9217.9113 -7451.2940 300.4401 321.4966 411.7609 30243.4223 321.4966 411.7609
ENERGY: 300000 2.9933 10.8409 3.7684 0.0000 -10792.2031 1461.9912 0.0000 0.0000 1749.5029 -7563.1063 297.5295 -9312.6092 -7502.5463 298.1202 -160.2543 -88.3833 30627.2066 -129.5980 -51.8366
ENERGY: 600000 1.9371 8.2188 2.6294 0.0000 -10702.8372 1442.3804 0.0000 0.0000 1752.1857 -7495.4858 297.9858 -9247.6715 -7485.2289 297.1922 -135.1518 -98.5994 30484.2787 -23.5975 36.9907
ENERGY: 900000 2.6175 4.1090 2.5978 0.0000 -10700.5727 1414.8936 0.0000 0.0000 1792.1971 -7484.1577 304.7903 -9276.3549 -7480.9515 298.2700 -43.2235 -8.0894 29849.6351 -78.9682 -15.2220
ENERGY: 1200000 1.0224 6.4008 5.6450 0.0000 -10686.2637 1461.1578 0.0000 0.0000 1738.0335 -7474.0042 295.5790 -9212.0377 -7477.7812 297.3543 171.6785 263.6755 30414.2177 -48.4200 16.0657
ENERGY: 1500000 1.7185 7.4515 3.9028 0.0000 -10609.7891 1393.7900 0.0000 0.0000 1761.4628 -7441.4634 299.5635 -9202.9263 -7478.8920 297.8447 -366.7422 -341.9416 30668.6504 -93.7720 -36.6534
TCL: Running FEP window  16: Lambda1 0.24999999999999967 Lambda2 0.19999999999999968 [dLambda -0.04999999999999999]
TCL: Setting parameter firsttimestep to 0
TCL: Setting parameter alchLambda to 0.24999999999999967
Info: NONBONDED TABLE R-SQUARED SPACING: 0.0625
Info: NONBONDED TABLE SIZE: 705 POINTS
TCL: Setting parameter alchLambda2 to 0.19999999999999968
Info: NONBONDED TABLE R-SQUARED SPACING: 0.0625
Info: NONBONDED TABLE SIZE: 705 POINTS
TCL: Running for 1500000 steps
ETITLE: TS BOND ANGLE DIHED IMPRP ELECT VDW BOUNDARY MISC KINETIC TOTAL TEMP POTENTIAL TOTALAVG TEMPAVG PRESSURE GPRESSURE VOLUME PRESSAVG GPRESSAVG
ENERGY: 0 1.7185 7.4515 3.9028 0.0000 -10609.7893 1394.0917 0.0000 0.0000 1760.5687 -7442.0562 299.4114 -9202.6248 -7442.0562 299.4114 -436.4511 -341.8890 30668.6504 -436.4511 -341.8890
ENERGY: 300000 3.7933 7.2469 2.8397 0.0000 -10794.1053 1505.5763 0.0000 0.0000 1787.4383 -7487.2109 303.9810 -9274.6492 -7422.9321 301.4534 203.7712 313.6267 30743.4822 -58.1963 3.3519
ENERGY: 600000 2.6473 6.0320 2.5538 0.0000 -10656.4420 1438.8275 0.0000 0.0000 1745.1762 -7461.2053 296.7937 -9206.3815 -7447.9727 301.0856 74.7095 142.8054 30188.7556 -35.4936 24.8853
ENERGY: 900000 2.8679 9.1606 2.6351 0.0000 -10813.8929 1556.5844 0.0000 0.0000 1762.7425 -7479.9024 299.7811 -9242.6449 -7453.1377 300.2889 957.7241 1074.7323 29981.7065 180.3302 240.6497
ENERGY: 1200000 0.5066 4.1352 2.8853 0.0000 -10653.1614 1459.8140 0.0000 0.0000 1781.9418 -7403.8784 303.0463 -9185.8203 -7457.9426 299.6544 -102.7279 -24.3505 31073.2002 199.0948 261.4622
ENERGY: 1500000 1.3574 5.6445 2.7741 0.0000 -10639.2859 1408.5919 0.0000 0.0000 1786.8765 -7434.0416 303.8855 -9220.9182 -7449.5159 300.4779 -275.7541 -261.9078 30730.4597 72.4380 128.7722
TCL: Running FEP window  17: Lambda1 0.19999999999999968 Lambda2 0.1499999999999997 [dLambda -0.04999999999999999]
TCL: Setting parameter firsttimestep to 0
TCL: Setting parameter alchLambda to 0.19999999999999968
Info: NONBONDED TABLE R-SQUARED SPACING: 0.0625
Info: NONBONDED TABLE SIZE: 705 POINTS
TCL: Setting parameter alchLambda2 to 0.1499999999999997
Info: NONBONDED TABLE R-SQUARED SPACING: 0.0625
Info: NONBONDED TABLE SIZE: 705 POINTS
TCL: Running for 1500000 steps
ETITLE: TS BOND ANGLE DIHED IMPRP ELECT VDW BOUNDARY MISC KINETIC TOTAL TEMP POTENTIAL TOTALAVG TEMPAVG PRESSURE GPRESSURE VOLUME PRESSAVG GPRESSAVG
ENERGY: 0 1.3574 5.6445 2.7741 0.0000 -10639.2844 1409.0456 0.0000 0.0000 1785.9954 -7434.4675 303.7356 -9220.4629 -7434.4675 303.7356 -339.9770 -262.8154 30730.4597 -339.9770 -262.8154
ENERGY: 300000 2.8986 3.4602 3.0261 0.0000 -10756.8488 1488.8730 0.0000 0.0000 1807.7343 -7450.8567 307.4327 -9258.5910 -7422.2454 305.4083 189.0808 283.4458 30137.3635 178.2918 267.9520
ENERGY: 600000 0.2402 7.9727 3.9875 0.0000 -10650.0693 1391.5761 0.0000 0.0000 1742.5790 -7503.7139 296.3520 -9246.2929 -7438.8952 303.2339 -442.9874 -379.5209 30342.5696 -63.1886 21.1688
ENERGY: 900000 1.4410 2.9810 2.8903 0.0000 -10732.8295 1445.5757 0.0000 0.0000 1729.4405 -7550.5011 294.1176 -9279.9415 -7451.4064 302.3916 69.2460 107.6287 30086.7176 -39.2170 33.0442
ENERGY: 1200000 1.3328 6.9008 2.2259 0.0000 -10550.8100 1398.7428 0.0000 0.0000 1786.4404 -7355.1673 303.8113 -9141.6078 -7452.1447 302.7140 -249.1392 -196.8109 30496.9177 -29.2695 32.5568
ENERGY: 1500000 1.9416 9.5824 3.2007 0.0000 -10822.3129 1511.7280 0.0000 0.0000 1709.2819 -7586.5782 290.6894 -9295.8601 -7471.6501 301.6937 521.9529 550.3336 29714.3563 17.0575 81.2519
TCL: Running FEP window  18: Lambda1 0.1499999999999997 Lambda2 0.09999999999999969 [dLambda -0.05 ]
TCL: Setting parameter firsttimestep to 0
TCL: Setting parameter alchLambda to 0.1499999999999997
Info: NONBONDED TABLE R-SQUARED SPACING: 0.0625
Info: NONBONDED TABLE SIZE: 705 POINTS
TCL: Setting parameter alchLambda2 to 0.09999999999999969
Info: NONBONDED TABLE R-SQUARED SPACING: 0.0625
Info: NONBONDED TABLE SIZE: 705 POINTS
TCL: Running for 1500000 steps
ETITLE: TS BOND ANGLE DIHED IMPRP ELECT VDW BOUNDARY MISC KINETIC TOTAL TEMP POTENTIAL TOTALAVG TEMPAVG PRESSURE GPRESSURE VOLUME PRESSAVG GPRESSAVG
ENERGY: 0 1.9416 9.5824 3.2007 0.0000 -10822.3137 1512.0786 0.0000 0.0000 1708.4421 -7587.0682 290.5465 -9295.5103 -7587.0682 290.5465 465.7612 549.5421 29714.3563 465.7612 549.5421
ENERGY: 300000 1.6770 6.2344 3.9498 0.0000 -10609.9087 1387.2056 0.0000 0.0000 1753.6222 -7457.2197 298.2301 -9210.8419 -7496.8646 297.7434 -405.3553 -373.1135 30426.7035 16.1802 73.4209
ENERGY: 600000 1.4722 5.8684 1.8508 0.0000 -10734.6800 1426.1843 0.0000 0.0000 1785.4112 -7513.8930 303.6363 -9299.3042 -7493.7736 298.8969 -34.6219 65.4600 29835.6286 -41.4437 45.9427
ENERGY: 900000 0.8797 8.1228 3.3585 0.0000 -10669.1300 1421.0542 0.0000 0.0000 1775.1430 -7460.5717 301.8900 -9235.7147 -7483.1068 300.0258 -167.2295 -136.3477 30524.6450 -33.4531 56.3822
ENERGY: 1200000 0.5963 9.1914 1.7377 0.0000 -10710.9188 1404.4658 0.0000 0.0000 1766.1452 -7528.7824 300.3598 -9294.9276 -7478.1476 299.7337 -618.2276 -582.6353 30670.0476 -113.7908 -32.3706
ENERGY: 1500000 1.1969 7.5415 3.9177 0.0000 -10639.5889 1420.9296 0.0000 0.0000 1755.5559 -7450.4473 298.5589 -9206.0032 -7478.3093 299.6159 -477.5748 -408.7397 31007.8163 -84.9514 -6.2703
TCL: Running FEP window  19: Lambda1 0.09999999999999969 Lambda2 0.049999999999999684 [dLambda -0.05 ]
TCL: Setting parameter firsttimestep to 0
TCL: Setting parameter alchLambda to 0.09999999999999969
Info: NONBONDED TABLE R-SQUARED SPACING: 0.0625
Info: NONBONDED TABLE SIZE: 705 POINTS
TCL: Setting parameter alchLambda2 to 0.049999999999999684
Info: NONBONDED TABLE R-SQUARED SPACING: 0.0625
Info: NONBONDED TABLE SIZE: 705 POINTS
TCL: Running for 1500000 steps
ETITLE: TS BOND ANGLE DIHED IMPRP ELECT VDW BOUNDARY MISC KINETIC TOTAL TEMP POTENTIAL TOTALAVG TEMPAVG PRESSURE GPRESSURE VOLUME PRESSAVG GPRESSAVG
ENERGY: 0 1.1969 7.5415 3.9177 0.0000 -10639.5893 1421.2132 0.0000 0.0000 1754.6846 -7451.0355 298.4108 -9205.7200 -7451.0355 298.4108 -484.4820 -410.9841 31007.8163 -484.4820 -410.9841
ENERGY: 300000 1.8281 7.6543 4.3074 0.0000 -10753.4752 1428.1043 0.0000 0.0000 1742.7841 -7568.7970 296.3869 -9311.5811 -7519.7320 299.8293 -282.0167 -166.1962 30000.9199 -114.0133 -50.1721
ENERGY: 600000 3.1928 5.0703 3.8548 0.0000 -10695.2878 1459.7542 0.0000 0.0000 1772.1706 -7451.2452 301.3845 -9223.4158 -7494.1249 299.2898 175.2921 204.7988 30182.2962 -88.7528 -35.1111
ENERGY: 900000 0.6412 10.3101 4.1861 0.0000 -10812.8533 1506.0859 0.0000 0.0000 1734.8368 -7556.7932 295.0353 -9291.6300 -7504.9998 298.4130 689.7707 729.1317 29636.9704 11.8379 68.0193
ENERGY: 1200000 2.2514 7.5117 1.8508 0.0000 -10562.7247 1366.7871 0.0000 0.0000 1760.5385 -7423.7850 299.4063 -9184.3235 -7492.6081 297.5893 -580.8034 -532.4854 30608.9094 17.5336 77.1406
ENERGY: 1500000 1.9083 7.9480 2.8234 0.0000 -10760.2861 1437.4860 0.0000 0.0000 1706.2807 -7603.8396 290.1789 -9310.1203 -7495.9980 297.9727 -566.0614 -403.2003 30484.8749 -46.6406 17.2637
TCL: Running FEP window  20: Lambda1 0.049999999999999684 Lambda2 0.0    [dLambda -0.049999999999999684]
TCL: Setting parameter firsttimestep to 0
TCL: Setting parameter alchLambda to 0.049999999999999684
Info: NONBONDED TABLE R-SQUARED SPACING: 0.0625
Info: NONBONDED TABLE SIZE: 705 POINTS
TCL: Setting parameter alchLambda2 to 0.0
Info: NONBONDED TABLE R-SQUARED SPACING: 0.0625
Info: NONBONDED TABLE SIZE: 705 POINTS
TCL: Running for 1500000 steps
ETITLE: TS BOND ANGLE DIHED IMPRP ELECT VDW BOUNDARY MISC KINETIC TOTAL TEMP POTENTIAL TOTALAVG TEMPAVG PRESSURE GPRESSURE VOLUME PRESSAVG GPRESSAVG
ENERGY: 0 1.9083 7.9480 2.8234 0.0000 -10760.2868 1437.3170 0.0000 0.0000 1705.4280 -7604.8622 290.0339 -9310.2902 -7604.8622 290.0339 -490.2945 -405.9813 30484.8749 -490.2945 -405.9813
ENERGY: 300000 0.7224 6.7535 2.5725 0.0000 -10541.8851 1404.2185 0.0000 0.0000 1793.4848 -7334.1333 305.0093 -9127.6181 -7459.1142 298.3803 -90.7446 2.7304 30487.8748 -220.7457 -158.8515
ENERGY: 600000 1.8284 11.5365 3.6990 0.0000 -10719.8557 1481.7260 0.0000 0.0000 1773.3048 -7447.7610 301.5774 -9221.0658 -7458.4704 299.2789 252.0364 276.5134 30522.0297 -273.7620 -209.4704
ENERGY: 900000 2.0392 5.8029 2.4414 0.0000 -10820.0274 1500.1993 0.0000 0.0000 1783.6563 -7525.8883 303.3378 -9309.5446 -7474.8568 299.5792 595.2570 680.7568 29581.8966 -175.9849 -111.9168
ENERGY: 1200000 1.5771 8.3809 2.1914 0.0000 -10731.3958 1510.7655 0.0000 0.0000 1794.3039 -7414.1769 305.1486 -9208.4809 -7455.8396 300.0796 863.0007 978.3642 30017.2698 -123.4134 -55.3017
ENERGY: 1500000 0.4153 3.8801 2.8653 0.0000 -10684.5510 1470.0460 0.0000 0.0000 1774.9715 -7432.3729 301.8609 -9207.3444 -7460.7528 299.8391 234.3381 280.2789 30550.6155 -147.9902 -84.4295
TCL: Exiting due to exit command.
