Info: SIMULATION PARAMETERS:
Info: TIMESTEP               2
Info: NUMBER OF STEPS        0
Info: STEPS PER CYCLE        10
Info: PERIODIC CELL BASIS 1  30.2673 0 0
Info: PERIODIC CELL BASIS 2  0 30.3142 0
Info: PERIODIC CELL BASIS 3  0 0 32.9111
Info: PERIODIC CELL CENTER   0 0 0
Info: WRAPPING WATERS AROUND PERIODIC BOUNDARIES ON OUTPUT.
Info: WRAPPING ALL CLUSTERS AROUND PERIODIC BOUNDARIES ON OUTPUT.
Info: FIRST LDB TIMESTEP     50
Info: LAST LDB TIMESTEP     -1
Info: HOM BACKGROUND SCALING 1
Info: PME BACKGROUND SCALING 1
Info: MIN ATOMS PER PATCH    40
Info: EMPTY PATCH LOAD       40 ATOMS
Info: VELOCITY FILE          mobley_3259411_equil.vel
Info: CENTER OF MASS MOVING INITIALLY? NO
Info: DIELECTRIC             1
Info: EXCLUDE                SCALED ONE-FOUR
Info: 1-4 ELECTROSTATICS SCALED BY 0.833333
Info: MODIFIED 1-4 VDW PARAMETERS WILL BE USED
Info: DCD FILENAME           mobley_3259411_prod.dcd
Info: DCD FREQUENCY          100000
Info: DCD FIRST STEP         100000
Info: DCD FILE WILL CONTAIN UNIT CELL DATA
Info: XST FILENAME           mobley_3259411_prod.xst
Info: XST FREQUENCY          100000
Info: NO VELOCITY DCD OUTPUT
Info: NO FORCE DCD OUTPUT
Info: OUTPUT FILENAME        mobley_3259411_prod
Info: BINARY OUTPUT FILES WILL BE USED
Info: RESTART FILENAME       mobley_3259411_prod.restart
Info: RESTART FREQUENCY      100000
Info: BINARY RESTART FILES WILL BE USED
Info: CUTOFF                 9
Info: PAIRLIST DISTANCE      11
Info: PAIRLIST SHRINK RATE   0.01
Info: PAIRLIST GROW RATE     0.01
Info: PAIRLIST TRIGGER       0.3
Info: PAIRLISTS PER CYCLE    2
Info: PAIRLISTS ENABLED
Info: MARGIN                 2
Info: HYDROGEN GROUP CUTOFF  2.5
Info: PATCH DIMENSION        15.5
Info: ENERGY OUTPUT STEPS    100000
Info: ENERGY EVALUATION STEPS    100000
Info: OUTPUT ENERGY PRECISION 4
Info: CROSSTERM ENERGY INCLUDED IN DIHEDRAL
Info: TIMING OUTPUT STEPS    1000000
Info: PRESSURE OUTPUT STEPS  100000
Info: ALCHEMICAL FEP ON
Info: FEP CURRENT LAMBDA VALUE     1
Info: FEP COMPARISON LAMBDA VALUE  0.95
Info: FEP INTRA-ALCHEMICAL NON-BONDED INTERACTIONS WILL BE RETAINED
Info: FEP INTRA-ALCHEMICAL BONDED INTERACTIONS WILL BE RETAINED
Info: FEP VDW SHIFTING COEFFICIENT 5
Info: FEP ELEC. ACTIVE FOR ANNIHILATED PARTICLES BETWEEN LAMBDA = 0 AND LAMBDA = 0.5
Info: FEP ELEC. ACTIVE FOR EXNIHILATED PARTICLES BETWEEN LAMBDA = 0.5 AND LAMBDA = 1
Info: FEP VDW ACTIVE FOR ANNIHILATED PARTICLES BETWEEN LAMBDA = 0 AND LAMBDA = 1
Info: FEP VDW ACTIVE FOR EXNIHILATED PARTICLES BETWEEN LAMBDA = 0 AND LAMBDA = 1
Info: FEP BOND ACTIVE FOR ANNIHILATED PARTICLES BETWEEN LAMBDA = 1 AND LAMBDA = 1
Info: FEP BOND ACTIVE FOR EXNIHILATED PARTICLES BETWEEN LAMBDA = 0 AND LAMBDA = 0
Info: LANGEVIN DYNAMICS ACTIVE
Info: LANGEVIN TEMPERATURE   300
Info: LANGEVIN USING BBK INTEGRATOR
Info: LANGEVIN DAMPING COEFFICIENT IS 1 INVERSE PS
Info: LANGEVIN DYNAMICS APPLIED TO HYDROGENS
Info: LANGEVIN PISTON PRESSURE CONTROL ACTIVE
Info:        TARGET PRESSURE IS 1.01325 BAR
Info:     OSCILLATION PERIOD IS 50 FS
Info:             DECAY TIME IS 25 FS
Info:     PISTON TEMPERATURE IS 300 K
Info:       PRESSURE CONTROL IS GROUP-BASED
Info:    INITIAL STRAIN RATE IS 0.000198573 0.000198573 0.000198573
Info:       CELL FLUCTUATION IS ISOTROPIC
Info: PARTICLE MESH EWALD (PME) ACTIVE
Info: PME TOLERANCE               1e-06
Info: PME EWALD COEFFICIENT       0.348832
Info: PME INTERPOLATION ORDER     4
Info: PME GRID DIMENSIONS         32 32 36
Info: PME MAXIMUM GRID SPACING    1
Info: PME CALCULATION WILL BE PERFORMED ON GPU
Info: FULL ELECTROSTATIC EVALUATION FREQUENCY      2
Info: USING VERLET I (r-RESPA) MTS SCHEME.
Info: C1 SPLITTING OF LONG RANGE ELECTROSTATICS
Info: PLACING ATOMS IN PATCHES BY HYDROGEN GROUPS
Info: RIGID BONDS TO HYDROGEN : ALL
Info:         ERROR TOLERANCE : 1e-08
Info:          MAX ITERATIONS : 100
Info: RIGID WATER USING SETTLE ALGORITHM
Info: RANDOM NUMBER SEED     1743829825
Info: USE HYDROGEN BONDS?    NO
Info: Using AMBER format force field!
Info: AMBER PARM FILE        mobley_3259411.prmtop
Info: COORDINATE PDB         mobley_3259411.pdb
Info: Exclusions will be read from PARM file!
Info: SCNB (VDW SCALING)     2
Info: USING ARITHMETIC MEAN TO COMBINE L-J SIGMA PARAMETERS
Info: BINARY COORDINATES     mobley_3259411_equil.coor
Info: SUMMARY OF PARAMETERS:
Info: 6 BONDS
Info: 6 ANGLES
Info:   6 HARMONIC
Info:   0 COSINE-BASED
Info: 7 DIHEDRAL
Info: 0 IMPROPER
Info: 0 CROSSTERM
Info: 0 VDW
Info: 15 VDW_PAIRS
Info: 0 NBTHOLE_PAIRS
Info: To read alchdata from file: mobley_3259411.pdb
Info: To read alchflag data from column: 5
Info: STRUCTURE SUMMARY:
Info: 2945 ATOMS
Info: 2944 BONDS
Info: 21 ANGLES
Info: 39 DIHEDRALS
Info: 0 IMPROPERS
Info: 0 CROSSTERMS
Info: 2992 EXCLUSIONS
Info: 2939 RIGID BONDS
Info: ALCH: 0 ATOMS TO DISAPPEAR IN FINAL STATE
Info: ALCH: 14 ATOMS TO APPEAR IN FINAL STATE
Info: 5896 DEGREES OF FREEDOM
Info: 983 HYDROGEN GROUPS
Info: 3 ATOMS IN LARGEST HYDROGEN GROUP
Info: 983 MIGRATION GROUPS
Info: 3 ATOMS IN LARGEST MIGRATION GROUP
Info: TOTAL MASS = 17693.7 amu
Info: TOTAL CHARGE = 9.99272e-05 e
Info: MASS DENSITY = 0.973009 g/cm^3
Info: ATOM DENSITY = 0.0975267 atoms/A^3
Info: ADDED 0 IMPLICIT EXCLUSIONS
Info: NONBONDED TABLE R-SQUARED SPACING: 0.0625
Info: NONBONDED TABLE SIZE: 705 POINTS
Info: REMOVING COM VELOCITY 0.0472159 0.181515 -0.0914752
Info: Use 3D box decompostion in PME FFT.
Info: Updated CUDA force table with 4096 elements.
Info: Updated CUDA LJ table with 5 x 5 elements.
Info: Found 17 unique exclusion lists needing 36 bytes
TCL: Running for 1500000 steps
ETITLE: TS BOND ANGLE DIHED IMPRP ELECT VDW BOUNDARY MISC KINETIC TOTAL TEMP POTENTIAL TOTALAVG TEMPAVG PRESSURE GPRESSURE VOLUME PRESSAVG GPRESSAVG
ENERGY: 0 0.6722 11.6993 3.2929 0.0000 -10681.1585 1437.2030 0.0000 0.0000 1758.9478 -7469.3433 300.2520 -9228.2911 -7469.3433 300.2520 0.2558 83.3438 30196.8473 0.2558 83.3438
ENERGY: 300000 1.6284 5.0257 4.1499 0.0000 -10579.0241 1358.8346 0.0000 0.0000 1832.4984 -7376.8871 312.8070 -9209.3855 -7411.0468 303.9677 -455.4916 -428.8187 30276.6116 58.3929 107.0289
ENERGY: 600000 1.2262 8.0056 3.6265 0.0000 -10474.9602 1321.4939 0.0000 0.0000 1747.9592 -7392.6488 298.3762 -9140.6080 -7431.1423 299.4561 -995.4940 -963.3601 30886.6185 -270.5808 -211.6201
ENERGY: 900000 3.3049 4.7935 4.7885 0.0000 -10609.8260 1360.3356 0.0000 0.0000 1784.9781 -7451.6254 304.6953 -9236.6035 -7430.0952 301.1176 -545.3066 -500.1718 30363.7600 -180.4344 -128.6928
ENERGY: 1200000 1.4724 6.8424 5.0619 0.0000 -10588.6211 1419.7751 0.0000 0.0000 1770.8878 -7384.5815 302.2901 -9155.4693 -7417.0476 302.4752 173.1830 171.9124 30257.5907 -48.7058 6.0244
ENERGY: 1500000 0.6432 5.1173 3.7777 0.0000 -10660.0725 1436.1614 0.0000 0.0000 1790.7586 -7423.6143 305.6821 -9214.3729 -7428.5423 302.1620 -17.6441 74.4323 30544.5674 -20.9514 34.6871
TCL: Running FEP window   2: Lambda1 0.95   Lambda2 0.8999999999999999 [dLambda -0.050000000000000044]
TCL: Setting parameter firsttimestep to 0
TCL: Setting parameter alchLambda to 0.95
Info: NONBONDED TABLE R-SQUARED SPACING: 0.0625
Info: NONBONDED TABLE SIZE: 705 POINTS
TCL: Setting parameter alchLambda2 to 0.8999999999999999
Info: NONBONDED TABLE R-SQUARED SPACING: 0.0625
Info: NONBONDED TABLE SIZE: 705 POINTS
TCL: Running for 1500000 steps
ETITLE: TS BOND ANGLE DIHED IMPRP ELECT VDW BOUNDARY MISC KINETIC TOTAL TEMP POTENTIAL TOTALAVG TEMPAVG PRESSURE GPRESSURE VOLUME PRESSAVG GPRESSAVG
ENERGY: 0 0.6432 5.1173 3.7777 0.0000 -10656.4618 1433.3254 0.0000 0.0000 1789.8657 -7423.7325 305.5297 -9213.5982 -7423.7325 305.5297 -48.4115 38.8116 30544.5674 -48.4115 38.8116
ENERGY: 300000 1.2259 2.3562 3.5973 0.0000 -10647.8420 1407.0601 0.0000 0.0000 1811.2374 -7422.3652 309.1778 -9233.6025 -7430.4348 306.7049 -174.3481 -116.2399 30407.5026 -305.2045 -244.2752
ENERGY: 600000 0.7583 4.7004 4.8325 0.0000 -10553.4764 1367.9506 0.0000 0.0000 1746.0251 -7429.2095 298.0461 -9175.2346 -7433.1209 303.8464 -377.8719 -325.4660 30448.9350 -169.3297 -116.0878
ENERGY: 900000 3.2632 4.0353 3.3662 0.0000 -10578.9273 1395.1927 0.0000 0.0000 1783.3282 -7389.7418 304.4137 -9173.0700 -7447.0800 301.2131 -68.5373 55.9722 30113.5904 -134.3577 -75.9753
ENERGY: 1200000 0.4982 4.5771 3.6858 0.0000 -10634.7750 1406.8421 0.0000 0.0000 1755.2697 -7463.9021 299.6241 -9219.1718 -7439.5562 302.2804 -452.4781 -378.1996 30623.9885 -167.4125 -111.3249
ENERGY: 1500000 1.2707 5.3316 3.9584 0.0000 -10719.4299 1448.1905 0.0000 0.0000 1738.3520 -7522.3268 296.7363 -9260.6788 -7440.2784 302.1380 -92.0524 -21.8728 30400.5946 -128.9003 -75.8946
TCL: Running FEP window   3: Lambda1 0.8999999999999999 Lambda2 0.8499999999999999 [dLambda -0.050000000000000044]
TCL: Setting parameter firsttimestep to 0
TCL: Setting parameter alchLambda to 0.8999999999999999
Info: NONBONDED TABLE R-SQUARED SPACING: 0.0625
Info: NONBONDED TABLE SIZE: 705 POINTS
TCL: Setting parameter alchLambda2 to 0.8499999999999999
Info: NONBONDED TABLE R-SQUARED SPACING: 0.0625
Info: NONBONDED TABLE SIZE: 705 POINTS
TCL: Running for 1500000 steps
ETITLE: TS BOND ANGLE DIHED IMPRP ELECT VDW BOUNDARY MISC KINETIC TOTAL TEMP POTENTIAL TOTALAVG TEMPAVG PRESSURE GPRESSURE VOLUME PRESSAVG GPRESSAVG
ENERGY: 0 1.2707 5.3316 3.9584 0.0000 -10716.5945 1446.4840 0.0000 0.0000 1737.4472 -7522.1027 296.5818 -9259.5499 -7522.1027 296.5818 -140.9990 -49.2464 30400.5946 -140.9990 -49.2464
ENERGY: 300000 1.7912 5.2429 5.6668 0.0000 -10502.5482 1319.4206 0.0000 0.0000 1719.0715 -7451.3553 293.4451 -9170.4268 -7503.4278 295.7312 -779.5560 -742.4329 30426.5790 -224.1004 -156.5172
ENERGY: 600000 3.0095 5.7482 4.4264 0.0000 -10704.8793 1456.9157 0.0000 0.0000 1809.2492 -7425.5303 308.8384 -9234.7795 -7467.8328 299.5659 300.1105 323.3585 30202.3735 -19.6867 35.4885
ENERGY: 900000 1.0864 4.0145 4.2757 0.0000 -10688.0695 1455.7783 0.0000 0.0000 1781.9013 -7441.0135 304.1701 -9222.9147 -7471.7286 300.0606 -74.2321 -51.0286 30899.1083 -120.4865 -68.8467
ENERGY: 1200000 2.5588 3.8657 4.0275 0.0000 -10648.0812 1431.7254 0.0000 0.0000 1777.2011 -7428.7027 303.3678 -9205.9038 -7462.7682 300.4475 -21.6455 19.2959 30210.9794 -124.9396 -73.1261
ENERGY: 1500000 0.9155 2.2274 4.3869 0.0000 -10727.6377 1517.5261 0.0000 0.0000 1788.3039 -7414.2778 305.2631 -9202.5817 -7453.9783 300.3993 856.6049 903.9777 30085.6118 -65.2016 -20.1321
TCL: Running FEP window   4: Lambda1 0.8499999999999999 Lambda2 0.7999999999999998 [dLambda -0.050000000000000044]
TCL: Setting parameter firsttimestep to 0
TCL: Setting parameter alchLambda to 0.8499999999999999
Info: NONBONDED TABLE R-SQUARED SPACING: 0.0625
Info: NONBONDED TABLE SIZE: 705 POINTS
TCL: Setting parameter alchLambda2 to 0.7999999999999998
Info: NONBONDED TABLE R-SQUARED SPACING: 0.0625
Info: NONBONDED TABLE SIZE: 705 POINTS
TCL: Running for 1500000 steps
ETITLE: TS BOND ANGLE DIHED IMPRP ELECT VDW BOUNDARY MISC KINETIC TOTAL TEMP POTENTIAL TOTALAVG TEMPAVG PRESSURE GPRESSURE VOLUME PRESSAVG GPRESSAVG
ENERGY: 0 0.9155 2.2274 4.3869 0.0000 -10725.1139 1516.4275 0.0000 0.0000 1787.4150 -7413.7415 305.1113 -9201.1565 -7413.7415 305.1113 816.4336 890.3426 30085.6118 816.4336 890.3426
ENERGY: 300000 1.5116 4.6048 3.4586 0.0000 -10626.7770 1464.6242 0.0000 0.0000 1783.7006 -7368.8773 304.4773 -9152.5778 -7470.7521 299.2937 625.9497 622.5879 30326.9326 777.7012 811.9716
ENERGY: 600000 2.0314 4.5421 3.4560 0.0000 -10594.5024 1354.1659 0.0000 0.0000 1762.4609 -7467.8461 300.8517 -9230.3070 -7461.3818 300.0394 -640.0562 -634.1364 30220.4398 197.7295 235.5326
ENERGY: 900000 5.5742 5.9694 4.8063 0.0000 -10461.2983 1281.7204 0.0000 0.0000 1785.1260 -7378.1019 304.7206 -9163.2279 -7451.5536 300.1955 -988.5330 -926.6516 30143.7248 68.0111 103.2462
ENERGY: 1200000 0.8035 4.2338 4.6731 0.0000 -10715.0791 1475.7752 0.0000 0.0000 1685.8808 -7543.7127 287.7794 -9229.5935 -7461.3494 299.1079 115.8480 197.8333 30489.3727 61.7806 104.4295
ENERGY: 1500000 1.4500 7.8502 4.8137 0.0000 -10556.6677 1367.5243 0.0000 0.0000 1673.4149 -7501.6146 285.6515 -9175.0295 -7463.2546 298.7819 -742.8833 -659.9063 30600.3417 36.8751 85.4482
TCL: Running FEP window   5: Lambda1 0.7999999999999998 Lambda2 0.7499999999999998 [dLambda -0.050000000000000044]
TCL: Setting parameter firsttimestep to 0
TCL: Setting parameter alchLambda to 0.7999999999999998
Info: NONBONDED TABLE R-SQUARED SPACING: 0.0625
Info: NONBONDED TABLE SIZE: 705 POINTS
TCL: Setting parameter alchLambda2 to 0.7499999999999998
Info: NONBONDED TABLE R-SQUARED SPACING: 0.0625
Info: NONBONDED TABLE SIZE: 705 POINTS
TCL: Running for 1500000 steps
ETITLE: TS BOND ANGLE DIHED IMPRP ELECT VDW BOUNDARY MISC KINETIC TOTAL TEMP POTENTIAL TOTALAVG TEMPAVG PRESSURE GPRESSURE VOLUME PRESSAVG GPRESSAVG
ENERGY: 0 1.4499 7.8502 4.8137 0.0000 -10553.1482 1366.4360 0.0000 0.0000 1672.5654 -7500.0329 285.5065 -9172.5984 -7500.0329 285.5065 -754.8403 -668.9548 30600.3417 -754.8403 -668.9548
ENERGY: 300000 1.8280 6.8132 3.8511 0.0000 -10663.9038 1444.0471 0.0000 0.0000 1712.1041 -7495.2603 292.2558 -9207.3644 -7472.6905 292.6114 -172.8396 -107.8398 30546.4482 -329.9863 -256.6224
ENERGY: 600000 3.1386 7.0093 3.7837 0.0000 -10616.7050 1361.7970 0.0000 0.0000 1724.6040 -7516.3723 294.3895 -9240.9763 -7466.4019 294.1657 -544.0084 -470.6209 30079.0751 -270.6180 -197.4949
ENERGY: 900000 0.4548 3.0885 5.6049 0.0000 -10617.5889 1434.0093 0.0000 0.0000 1770.8699 -7403.5616 302.2871 -9174.4315 -7442.4478 297.4738 284.0890 314.6890 30257.2965 -48.7901 15.6008
ENERGY: 1200000 2.0044 6.2375 4.9108 0.0000 -10530.2757 1387.3800 0.0000 0.0000 1780.3089 -7349.4341 303.8983 -9129.7431 -7438.9346 298.1207 58.7527 153.8467 30149.1129 47.0284 109.0616
ENERGY: 1500000 1.4027 6.3579 4.9229 0.0000 -10569.5862 1432.1877 0.0000 0.0000 1766.9253 -7357.7898 301.6137 -9124.7151 -7432.8483 298.7742 328.6385 342.9955 30233.0951 30.9470 92.6079
TCL: Running FEP window   6: Lambda1 0.7499999999999998 Lambda2 0.6999999999999997 [dLambda -0.050000000000000044]
TCL: Setting parameter firsttimestep to 0
TCL: Setting parameter alchLambda to 0.7499999999999998
Info: NONBONDED TABLE R-SQUARED SPACING: 0.0625
Info: NONBONDED TABLE SIZE: 705 POINTS
TCL: Setting parameter alchLambda2 to 0.6999999999999997
Info: NONBONDED TABLE R-SQUARED SPACING: 0.0625
Info: NONBONDED TABLE SIZE: 705 POINTS
TCL: Running for 1500000 steps
ETITLE: TS BOND ANGLE DIHED IMPRP ELECT VDW BOUNDARY MISC KINETIC TOTAL TEMP POTENTIAL TOTALAVG TEMPAVG PRESSURE GPRESSURE VOLUME PRESSAVG GPRESSAVG
ENERGY: 0 1.4027 6.3579 4.9229 0.0000 -10567.2794 1431.5367 0.0000 0.0000 1766.0437 -7357.0156 301.4632 -9123.0592 -7357.0156 301.4632 249.8666 331.5882 30233.0951 249.8666 331.5882
ENERGY: 300000 0.7473 7.2537 4.3774 0.0000 -10766.2724 1434.4685 0.0000 0.0000 1711.4606 -7607.9650 292.1459 -9319.4256 -7530.5000 295.6977 -86.7820 23.3610 29564.3495 -25.8629 32.9393
ENERGY: 600000 1.5538 8.0496 3.8462 0.0000 -10675.1451 1410.4711 0.0000 0.0000 1721.5583 -7529.6661 293.8696 -9251.2245 -7506.3857 298.8425 -225.9186 -133.5425 30092.0369 15.3261 78.5445
ENERGY: 900000 2.8248 5.3652 4.6011 0.0000 -10722.1452 1465.7912 0.0000 0.0000 1747.1873 -7496.3755 298.2445 -9243.5628 -7513.4402 298.4528 -61.9774 22.1035 30585.5704 -37.3221 28.3270
ENERGY: 1200000 1.9470 4.9619 4.0373 0.0000 -10570.9861 1365.5066 0.0000 0.0000 1746.0879 -7448.4454 298.0568 -9194.5333 -7500.0985 298.7456 -615.4436 -586.5799 30712.9268 -91.6484 -22.7987
ENERGY: 1500000 1.9146 7.1615 4.3521 0.0000 -10472.4216 1352.4446 0.0000 0.0000 1722.1920 -7384.3569 293.9778 -9106.5489 -7494.3660 297.8895 -491.9695 -433.2273 30596.7223 -173.1168 -108.8732
TCL: Running FEP window   7: Lambda1 0.6999999999999997 Lambda2 0.6499999999999997 [dLambda -0.050000000000000044]
TCL: Setting parameter firsttimestep to 0
TCL: Setting parameter alchLambda to 0.6999999999999997
Info: NONBONDED TABLE R-SQUARED SPACING: 0.0625
Info: NONBONDED TABLE SIZE: 705 POINTS
TCL: Setting parameter alchLambda2 to 0.6499999999999997
Info: NONBONDED TABLE R-SQUARED SPACING: 0.0625
Info: NONBONDED TABLE SIZE: 705 POINTS
TCL: Running for 1500000 steps
ETITLE: TS BOND ANGLE DIHED IMPRP ELECT VDW BOUNDARY MISC KINETIC TOTAL TEMP POTENTIAL TOTALAVG TEMPAVG PRESSURE GPRESSURE VOLUME PRESSAVG GPRESSAVG
ENERGY: 0 1.9146 7.1615 4.3521 0.0000 -10469.9528 1351.3650 0.0000 0.0000 1721.3000 -7383.8596 293.8255 -9105.1597 -7383.8596 293.8255 -514.7693 -441.6894 30596.7223 -514.7693 -441.6894
ENERGY: 300000 0.4030 7.7356 3.9758 0.0000 -10734.5451 1489.5706 0.0000 0.0000 1761.8711 -7470.9891 300.7510 -9232.8602 -7431.2998 297.6714 502.3561 531.5888 29900.5117 54.2227 112.2614
ENERGY: 600000 2.3290 6.5666 4.7636 0.0000 -10593.3484 1372.7914 0.0000 0.0000 1677.5193 -7529.3785 286.3521 -9206.8978 -7434.5248 299.1941 -575.4478 -486.1083 30248.8639 43.3075 98.8815
ENERGY: 900000 0.9690 2.9720 3.5388 0.0000 -10548.9704 1357.5187 0.0000 0.0000 1739.2634 -7444.7085 296.8918 -9183.9720 -7440.0577 299.2699 -635.8852 -568.3176 30401.4858 -6.6316 58.7068
ENERGY: 1200000 1.5832 3.8598 5.1640 0.0000 -10558.8646 1389.9177 0.0000 0.0000 1737.8043 -7420.5355 296.6428 -9158.3398 -7437.4858 299.3969 -337.8129 -291.9642 30525.6144 -80.8146 -16.8366
ENERGY: 1500000 1.7724 4.3620 4.6135 0.0000 -10642.2964 1368.4501 0.0000 0.0000 1758.4720 -7504.6263 300.1708 -9263.0984 -7443.5781 299.5277 -645.4049 -592.5835 30306.4232 -146.7625 -86.1331
TCL: Running FEP window   8: Lambda1 0.6499999999999997 Lambda2 0.5999999999999996 [dLambda -0.050000000000000044]
TCL: Setting parameter firsttimestep to 0
TCL: Setting parameter alchLambda to 0.6499999999999997
Info: NONBONDED TABLE R-SQUARED SPACING: 0.0625
Info: NONBONDED TABLE SIZE: 705 POINTS
TCL: Setting parameter alchLambda2 to 0.5999999999999996
Info: NONBONDED TABLE R-SQUARED SPACING: 0.0625
Info: NONBONDED TABLE SIZE: 705 POINTS
TCL: Running for 1500000 steps
ETITLE: TS BOND ANGLE DIHED IMPRP ELECT VDW BOUNDARY MISC KINETIC TOTAL TEMP POTENTIAL TOTALAVG TEMPAVG PRESSURE GPRESSURE VOLUME PRESSAVG GPRESSAVG
ENERGY: 0 1.7724 4.3620 4.6135 0.0000 -10641.2940 1368.5063 0.0000 0.0000 1757.5936 -7504.4463 300.0208 -9262.0399 -7504.4463 300.0208 -680.4479 -598.8042 30306.4232 -680.4479 -598.8042
ENERGY: 300000 2.8678 8.5966 5.2620 0.0000 -10505.8133 1326.0967 0.0000 0.0000 1811.2927 -7351.6976 309.1872 -9162.9902 -7417.1803 301.2039 -726.5156 -589.7580 30290.7657 -202.9146 -133.3114
ENERGY: 600000 1.7743 4.5322 3.5128 0.0000 -10604.5754 1397.3169 0.0000 0.0000 1815.2094 -7382.2299 309.8558 -9197.4392 -7418.8589 302.5138 -293.0439 -227.6976 30525.5880 -129.6622 -65.9856
ENERGY: 900000 2.1814 7.1806 5.2763 0.0000 -10753.1589 1483.6797 0.0000 0.0000 1750.1741 -7504.6668 298.7543 -9254.8409 -7430.3260 302.1641 227.5020 243.1491 30157.9192 25.6557 81.5283
ENERGY: 1200000 2.0300 4.3209 3.8521 0.0000 -10707.7205 1514.5975 0.0000 0.0000 1730.6055 -7452.3145 295.4139 -9182.9200 -7428.1342 300.9981 918.0821 1004.3836 29598.3994 63.6592 117.8845
ENERGY: 1500000 1.5066 5.4269 5.2872 0.0000 -10610.8660 1421.4688 0.0000 0.0000 1681.8422 -7495.3342 287.0901 -9177.1764 -7438.7757 299.5313 -292.6399 -287.9230 30752.7458 -20.0360 34.9120
TCL: Running FEP window   9: Lambda1 0.5999999999999996 Lambda2 0.5499999999999996 [dLambda -0.050000000000000044]
TCL: Setting parameter firsttimestep to 0
TCL: Setting parameter alchLambda to 0.5999999999999996
Info: NONBONDED TABLE R-SQUARED SPACING: 0.0625
Info: NONBONDED TABLE SIZE: 705 POINTS
TCL: Setting parameter alchLambda2 to 0.5499999999999996
Info: NONBONDED TABLE R-SQUARED SPACING: 0.0625
Info: NONBONDED TABLE SIZE: 705 POINTS
TCL: Running for 1500000 steps
ETITLE: TS BOND ANGLE DIHED IMPRP ELECT VDW BOUNDARY MISC KINETIC TOTAL TEMP POTENTIAL TOTALAVG TEMPAVG PRESSURE GPRESSURE VOLUME PRESSAVG GPRESSAVG
ENERGY: 0 1.5066 5.4269 5.2872 0.0000 -10609.4176 1421.3845 0.0000 0.0000 1680.9459 -7494.8664 286.9371 -9175.8123 -7494.8664 286.9371 -379.5002 -291.6916 30752.7458 -379.5002 -291.6916
ENERGY: 300000 1.0613 2.9993 3.4526 0.0000 -10786.0846 1504.0962 0.0000 0.0000 1823.0402 -7451.4349 311.1925 -9274.4751 -7468.6727 299.1559 414.5598 493.0387 30241.5124 -127.2830 -50.4307
ENERGY: 600000 0.7851 3.2668 3.9165 0.0000 -10714.5296 1491.5014 0.0000 0.0000 1748.3602 -7466.6997 298.4447 -9215.0599 -7460.2568 299.3345 165.3368 193.4042 30627.4923 -119.9608 -68.2748
ENERGY: 900000 2.0628 4.5086 5.7367 0.0000 -10755.5325 1516.1681 0.0000 0.0000 1757.2921 -7469.7643 299.9693 -9227.0564 -7449.0591 299.7591 76.1776 149.6553 31040.7195 29.8618 77.4652
ENERGY: 1200000 0.9047 7.0672 3.7810 0.0000 -10471.3865 1291.6031 0.0000 0.0000 1765.9936 -7402.0369 301.4547 -9168.0305 -7436.7071 300.7393 -1146.7134 -1049.4719 30874.8022 35.7880 85.8152
ENERGY: 1500000 1.7881 7.1308 4.6426 0.0000 -10481.3582 1379.0577 0.0000 0.0000 1737.2838 -7351.4551 296.5539 -9088.7389 -7429.8305 300.4694 -321.0523 -330.0960 30742.0455 -75.0261 -26.8163
TCL: Running FEP window  10: Lambda1 0.5499999999999996 Lambda2 0.4999999999999996 [dLambda -0.04999999999999999]
TCL: Setting parameter firsttimestep to 0
TCL: Setting parameter alchLambda to 0.5499999999999996
Info: NONBONDED TABLE R-SQUARED SPACING: 0.0625
Info: NONBONDED TABLE SIZE: 705 POINTS
TCL: Setting parameter alchLambda2 to 0.4999999999999996
Info: NONBONDED TABLE R-SQUARED SPACING: 0.0625
Info: NONBONDED TABLE SIZE: 705 POINTS
TCL: Running for 1500000 steps
ETITLE: TS BOND ANGLE DIHED IMPRP ELECT VDW BOUNDARY MISC KINETIC TOTAL TEMP POTENTIAL TOTALAVG TEMPAVG PRESSURE GPRESSURE VOLUME PRESSAVG GPRESSAVG
ENERGY: 0 1.7881 7.1308 4.6426 0.0000 -10479.2712 1378.2566 0.0000 0.0000 1736.3735 -7351.0795 296.3985 -9087.4530 -7351.0795 296.3985 -423.1612 -340.3657 30742.0455 -423.1612 -340.3657
ENERGY: 300000 1.5435 4.9421 3.9706 0.0000 -10670.2176 1488.7789 0.0000 0.0000 1735.2607 -7435.7220 296.2086 -9170.9826 -7438.6012 293.5506 451.3758 424.5705 30433.9435 5.9354 45.4672
ENERGY: 600000 1.6293 4.2694 4.2271 0.0000 -10600.4799 1413.6002 0.0000 0.0000 1778.5130 -7398.2410 303.5917 -9176.7540 -7425.2157 299.4261 -72.4070 -79.3308 30306.6332 57.3066 106.1437
ENERGY: 900000 2.5048 6.8855 4.4782 0.0000 -10642.4513 1447.7414 0.0000 0.0000 1739.5501 -7441.2913 296.9408 -9180.8414 -7419.5792 300.1303 207.5456 263.5883 30448.2095 14.8714 73.0757
ENERGY: 1200000 0.4683 5.7878 4.6657 0.0000 -10671.1745 1420.3266 0.0000 0.0000 1759.3208 -7480.6053 300.3156 -9239.9261 -7419.3871 299.9579 -366.5364 -268.2271 30273.6246 31.8931 96.8815
ENERGY: 1500000 2.2616 13.0340 4.0785 0.0000 -10677.4478 1414.3114 0.0000 0.0000 1797.7673 -7445.9951 306.8784 -9243.7624 -7419.9457 300.4333 -307.5278 -216.5463 30255.1990 -14.1108 52.1567
TCL: Running FEP window  11: Lambda1 0.4999999999999996 Lambda2 0.4499999999999996 [dLambda -0.04999999999999999]
TCL: Setting parameter firsttimestep to 0
TCL: Setting parameter alchLambda to 0.4999999999999996
Info: NONBONDED TABLE R-SQUARED SPACING: 0.0625
Info: NONBONDED TABLE SIZE: 705 POINTS
TCL: Setting parameter alchLambda2 to 0.4499999999999996
Info: NONBONDED TABLE R-SQUARED SPACING: 0.0625
Info: NONBONDED TABLE SIZE: 705 POINTS
TCL: Running for 1500000 steps
ETITLE: TS BOND ANGLE DIHED IMPRP ELECT VDW BOUNDARY MISC KINETIC TOTAL TEMP POTENTIAL TOTALAVG TEMPAVG PRESSURE GPRESSURE VOLUME PRESSAVG GPRESSAVG
ENERGY: 0 2.2616 13.0340 4.0785 0.0000 -10676.8345 1414.7541 0.0000 0.0000 1796.8813 -7445.8250 306.7272 -9242.7063 -7445.8250 306.7272 -287.1963 -214.5466 30255.1990 -287.1963 -214.5466
ENERGY: 300000 0.5004 5.4395 6.5719 0.0000 -10589.3572 1421.0454 0.0000 0.0000 1734.3713 -7421.4286 296.0568 -9155.8000 -7450.2616 301.4363 -43.7010 -11.4095 30569.1755 134.6867 200.5112
ENERGY: 600000 1.0188 5.2942 4.4048 0.0000 -10679.5687 1448.8385 0.0000 0.0000 1750.8424 -7469.1700 298.8684 -9220.0124 -7457.6434 299.9957 13.8942 52.3867 30170.2755 65.1111 134.2603
ENERGY: 900000 0.6185 5.8966 3.9931 0.0000 -10480.0927 1345.9642 0.0000 0.0000 1799.4685 -7324.1519 307.1688 -9123.6204 -7435.1500 301.2902 -485.7918 -425.8514 30608.7134 -37.3065 27.1682
ENERGY: 1200000 2.0082 7.4989 4.3081 0.0000 -10643.4963 1427.2134 0.0000 0.0000 1771.8208 -7430.6469 302.4494 -9202.4677 -7436.1277 300.7116 -45.0492 -31.8252 30318.2352 -82.5817 -19.6259
ENERGY: 1500000 1.2638 2.0667 5.7281 0.0000 -10669.3268 1464.3784 0.0000 0.0000 1726.3645 -7469.5254 294.6900 -9195.8898 -7437.9339 301.2352 396.1217 432.2847 30057.9115 38.2134 91.6748
TCL: Running FEP window  12: Lambda1 0.4499999999999996 Lambda2 0.39999999999999963 [dLambda -0.04999999999999999]
TCL: Setting parameter firsttimestep to 0
TCL: Setting parameter alchLambda to 0.4499999999999996
Info: NONBONDED TABLE R-SQUARED SPACING: 0.0625
Info: NONBONDED TABLE SIZE: 705 POINTS
TCL: Setting parameter alchLambda2 to 0.39999999999999963
Info: NONBONDED TABLE R-SQUARED SPACING: 0.0625
Info: NONBONDED TABLE SIZE: 705 POINTS
TCL: Running for 1500000 steps
ETITLE: TS BOND ANGLE DIHED IMPRP ELECT VDW BOUNDARY MISC KINETIC TOTAL TEMP POTENTIAL TOTALAVG TEMPAVG PRESSURE GPRESSURE VOLUME PRESSAVG GPRESSAVG
ENERGY: 0 1.2637 2.0667 5.7281 0.0000 -10669.3254 1464.8140 0.0000 0.0000 1725.4924 -7469.9605 294.5411 -9195.4528 -7469.9605 294.5411 353.7461 436.5764 30057.9115 353.7461 436.5764
ENERGY: 300000 2.1791 4.1072 3.6461 0.0000 -10570.8609 1369.6157 0.0000 0.0000 1756.2806 -7435.0321 299.7967 -9191.3127 -7475.3731 297.1989 -526.7965 -466.7170 30205.0907 -317.4747 -268.8856
ENERGY: 600000 1.7041 3.6585 4.4379 0.0000 -10665.3736 1421.5091 0.0000 0.0000 1778.3049 -7455.7590 303.5562 -9234.0640 -7446.6035 300.1524 -355.2126 -243.7068 30309.4933 -522.2642 -457.5955
ENERGY: 900000 2.9432 3.8896 6.0553 0.0000 -10777.2219 1515.0909 0.0000 0.0000 1752.1263 -7497.1165 299.0875 -9249.2428 -7450.6277 300.6000 575.7216 575.0816 29919.4112 -248.3824 -182.2971
ENERGY: 1200000 1.8984 4.4260 4.3529 0.0000 -10514.7592 1336.2803 0.0000 0.0000 1787.4555 -7380.3462 305.1182 -9167.8017 -7442.2597 301.2265 -629.1445 -554.3797 30133.5643 -314.9125 -246.6456
ENERGY: 1500000 0.7870 3.7850 5.4527 0.0000 -10693.7676 1421.0286 0.0000 0.0000 1747.0241 -7515.6901 298.2166 -9262.7143 -7441.0139 301.6506 -358.7973 -272.3469 30282.5081 -355.3794 -290.2663
TCL: Running FEP window  13: Lambda1 0.39999999999999963 Lambda2 0.34999999999999964 [dLambda -0.04999999999999999]
TCL: Setting parameter firsttimestep to 0
TCL: Setting parameter alchLambda to 0.39999999999999963
Info: NONBONDED TABLE R-SQUARED SPACING: 0.0625
Info: NONBONDED TABLE SIZE: 705 POINTS
TCL: Setting parameter alchLambda2 to 0.34999999999999964
Info: NONBONDED TABLE R-SQUARED SPACING: 0.0625
Info: NONBONDED TABLE SIZE: 705 POINTS
TCL: Running for 1500000 steps
ETITLE: TS BOND ANGLE DIHED IMPRP ELECT VDW BOUNDARY MISC KINETIC TOTAL TEMP POTENTIAL TOTALAVG TEMPAVG PRESSURE GPRESSURE VOLUME PRESSAVG GPRESSAVG
ENERGY: 0 0.7870 3.7850 5.4527 0.0000 -10693.7662 1421.3747 0.0000 0.0000 1746.1589 -7516.2079 298.0689 -9262.3668 -7516.2079 298.0689 -367.6614 -272.9012 30282.5081 -367.6614 -272.9012
ENERGY: 300000 1.4887 8.8677 6.8949 0.0000 -10618.9956 1482.8317 0.0000 0.0000 1816.2209 -7302.6917 310.0285 -9118.9126 -7420.5235 302.8681 267.7296 341.8037 31036.6706 153.9842 224.2436
ENERGY: 600000 2.0735 2.5164 3.7915 0.0000 -10677.5358 1489.3210 0.0000 0.0000 1780.1493 -7399.6842 303.8711 -9179.8335 -7420.6642 299.4615 228.2463 296.0765 30474.8014 193.8713 255.7928
ENERGY: 900000 5.0038 7.9705 3.3781 0.0000 -10554.1736 1341.1367 0.0000 0.0000 1741.6492 -7455.0353 297.2991 -9196.6844 -7422.5865 299.3154 -1098.0155 -1046.3596 30604.4137 24.2379 88.5692
ENERGY: 1200000 0.8938 6.8391 6.9941 0.0000 -10834.4914 1510.6322 0.0000 0.0000 1747.5308 -7561.6014 298.3031 -9309.1323 -7439.7942 299.4652 364.0642 347.4703 30067.5263 95.0884 151.2900
ENERGY: 1500000 0.6281 6.5826 4.0681 0.0000 -10723.3470 1431.4935 0.0000 0.0000 1798.7882 -7481.7866 307.0527 -9280.5747 -7439.3409 300.8505 -90.8445 -6.9042 29702.3940 75.0937 136.0064
TCL: Running FEP window  14: Lambda1 0.34999999999999964 Lambda2 0.29999999999999966 [dLambda -0.04999999999999999]
TCL: Setting parameter firsttimestep to 0
TCL: Setting parameter alchLambda to 0.34999999999999964
Info: NONBONDED TABLE R-SQUARED SPACING: 0.0625
Info: NONBONDED TABLE SIZE: 705 POINTS
TCL: Setting parameter alchLambda2 to 0.29999999999999966
Info: NONBONDED TABLE R-SQUARED SPACING: 0.0625
Info: NONBONDED TABLE SIZE: 705 POINTS
TCL: Running for 1500000 steps
ETITLE: TS BOND ANGLE DIHED IMPRP ELECT VDW BOUNDARY MISC KINETIC TOTAL TEMP POTENTIAL TOTALAVG TEMPAVG PRESSURE GPRESSURE VOLUME PRESSAVG GPRESSAVG
ENERGY: 0 0.6281 6.5826 4.0681 0.0000 -10723.3481 1431.6158 0.0000 0.0000 1797.8785 -7482.5751 306.8974 -9280.4536 -7482.5751 306.8974 -104.8258 -11.1501 29702.3940 -104.8258 -11.1501
ENERGY: 300000 1.2450 3.3735 6.9883 0.0000 -10560.3087 1413.0203 0.0000 0.0000 1774.7128 -7360.9687 302.9431 -9135.6815 -7420.6636 299.9718 -160.3528 -40.7294 30374.8712 194.8313 291.1502
ENERGY: 600000 0.6107 3.6960 4.6647 0.0000 -10534.8025 1377.7904 0.0000 0.0000 1773.4042 -7374.6364 302.7197 -9148.0406 -7414.5744 302.3017 -219.6300 -78.5895 29991.7512 -46.1820 42.6677
ENERGY: 900000 2.6473 6.9052 4.9001 0.0000 -10437.1627 1285.9622 0.0000 0.0000 1746.1097 -7390.6384 298.0605 -9136.7480 -7413.3004 302.2874 -1308.3819 -1277.9053 30932.4442 19.3033 109.0224
ENERGY: 1200000 1.0965 11.0020 4.5863 0.0000 -10386.4452 1297.6017 0.0000 0.0000 1742.1326 -7330.0262 297.3816 -9072.1587 -7401.5172 301.7223 -919.8351 -812.3902 30635.6868 -107.2699 -24.4918
ENERGY: 1500000 1.0294 4.7905 3.7274 0.0000 -10456.9278 1361.8758 0.0000 0.0000 1764.7992 -7320.7053 301.2508 -9085.5045 -7400.3877 301.9266 -224.7306 -208.8647 30239.8779 -110.7151 -35.8095
TCL: Running FEP window  15: Lambda1 0.29999999999999966 Lambda2 0.24999999999999967 [dLambda -0.04999999999999999]
TCL: Setting parameter firsttimestep to 0
TCL: Setting parameter alchLambda to 0.29999999999999966
Info: NONBONDED TABLE R-SQUARED SPACING: 0.0625
Info: NONBONDED TABLE SIZE: 705 POINTS
TCL: Setting parameter alchLambda2 to 0.24999999999999967
Info: NONBONDED TABLE R-SQUARED SPACING: 0.0625
Info: NONBONDED TABLE SIZE: 705 POINTS
TCL: Running for 1500000 steps
ETITLE: TS BOND ANGLE DIHED IMPRP ELECT VDW BOUNDARY MISC KINETIC TOTAL TEMP POTENTIAL TOTALAVG TEMPAVG PRESSURE GPRESSURE VOLUME PRESSAVG GPRESSAVG
ENERGY: 0 1.0294 4.7905 3.7274 0.0000 -10456.9293 1362.1289 0.0000 0.0000 1763.9524 -7321.3005 301.1063 -9085.2530 -7321.3005 301.1063 -282.1193 -211.9223 30239.8779 -282.1193 -211.9223
ENERGY: 300000 3.9072 3.8678 3.1613 0.0000 -10673.8036 1433.1842 0.0000 0.0000 1739.4913 -7490.1917 296.9307 -9229.6830 -7414.2032 297.7839 -227.1979 -208.1706 30059.7090 -272.5081 -217.6499
ENERGY: 600000 1.8471 5.7829 4.7155 0.0000 -10491.8849 1397.5269 0.0000 0.0000 1743.6366 -7338.3758 297.6383 -9082.0124 -7416.4953 296.2848 -259.6953 -178.1993 30914.2124 -257.3374 -188.4416
ENERGY: 900000 2.3490 7.6484 5.1914 0.0000 -10811.5683 1534.8016 0.0000 0.0000 1761.5134 -7500.0644 300.6899 -9261.5778 -7429.1853 297.4282 649.3229 707.4047 30049.1897 -231.3286 -169.4970
ENERGY: 1200000 4.2127 4.9189 5.0689 0.0000 -10720.2813 1461.7138 0.0000 0.0000 1711.7239 -7532.6431 292.1909 -9244.3669 -7435.0946 298.7698 260.3196 270.7085 29799.4878 -119.4320 -58.8032
ENERGY: 1500000 1.1947 7.4786 4.1170 0.0000 -10633.7810 1460.0401 0.0000 0.0000 1754.2044 -7406.7463 299.4423 -9160.9507 -7437.2302 298.9434 355.2190 399.7790 30308.9789 -19.1468 38.2094
TCL: Running FEP window  16: Lambda1 0.24999999999999967 Lambda2 0.19999999999999968 [dLambda -0.04999999999999999]
TCL: Setting parameter firsttimestep to 0
TCL: Setting parameter alchLambda to 0.24999999999999967
Info: NONBONDED TABLE R-SQUARED SPACING: 0.0625
Info: NONBONDED TABLE SIZE: 705 POINTS
TCL: Setting parameter alchLambda2 to 0.19999999999999968
Info: NONBONDED TABLE R-SQUARED SPACING: 0.0625
Info: NONBONDED TABLE SIZE: 705 POINTS
TCL: Running for 1500000 steps
ETITLE: TS BOND ANGLE DIHED IMPRP ELECT VDW BOUNDARY MISC KINETIC TOTAL TEMP POTENTIAL TOTALAVG TEMPAVG PRESSURE GPRESSURE VOLUME PRESSAVG GPRESSAVG
ENERGY: 0 1.1947 7.4786 4.1170 0.0000 -10633.7800 1460.1240 0.0000 0.0000 1753.2950 -7407.5709 299.2870 -9160.8658 -7407.5709 299.2870 314.0247 396.6383 30308.9789 314.0247 396.6383
ENERGY: 300000 0.5833 3.4261 5.4685 0.0000 -10845.0095 1547.9318 0.0000 0.0000 1759.5710 -7528.0287 300.3584 -9287.5998 -7483.5634 298.7848 638.2974 671.7159 30190.0722 -122.2050 -86.1961
ENERGY: 600000 1.7658 4.0287 4.2637 0.0000 -10679.2070 1385.5473 0.0000 0.0000 1752.4688 -7531.1326 299.1460 -9283.6014 -7491.4962 296.6925 -693.7384 -696.8075 30280.5476 -108.3076 -59.4474
ENERGY: 900000 0.9534 5.1997 3.6355 0.0000 -10724.2842 1463.1355 0.0000 0.0000 1759.7642 -7491.5960 300.3913 -9251.3601 -7470.5702 297.4850 -111.1160 4.9159 30364.2264 -140.9187 -84.2058
ENERGY: 1200000 1.5550 6.8156 4.1853 0.0000 -10798.3946 1475.1408 0.0000 0.0000 1742.9257 -7567.7722 297.5170 -9310.6979 -7481.6545 296.3154 263.4425 338.3668 29654.9625 -47.1263 5.8542
ENERGY: 1500000 2.3952 5.2949 3.8353 0.0000 -10715.8031 1476.0375 0.0000 0.0000 1783.7413 -7444.4989 304.4842 -9228.2402 -7473.9571 296.9617 192.3416 241.3499 30323.1746 -72.2254 -18.2421
TCL: Running FEP window  17: Lambda1 0.19999999999999968 Lambda2 0.1499999999999997 [dLambda -0.04999999999999999]
TCL: Setting parameter firsttimestep to 0
TCL: Setting parameter alchLambda to 0.19999999999999968
Info: NONBONDED TABLE R-SQUARED SPACING: 0.0625
Info: NONBONDED TABLE SIZE: 705 POINTS
TCL: Setting parameter alchLambda2 to 0.1499999999999997
Info: NONBONDED TABLE R-SQUARED SPACING: 0.0625
Info: NONBONDED TABLE SIZE: 705 POINTS
TCL: Running for 1500000 steps
ETITLE: TS BOND ANGLE DIHED IMPRP ELECT VDW BOUNDARY MISC KINETIC TOTAL TEMP POTENTIAL TOTALAVG TEMPAVG PRESSURE GPRESSURE VOLUME PRESSAVG GPRESSAVG
ENERGY: 0 2.3952 5.2949 3.8353 0.0000 -10715.8046 1475.3092 0.0000 0.0000 1782.8821 -7446.0879 304.3375 -9228.9700 -7446.0879 304.3375 161.9663 234.4378 30323.1746 161.9663 234.4378
ENERGY: 300000 1.4472 7.5396 3.4499 0.0000 -10601.2794 1446.4757 0.0000 0.0000 1793.5983 -7348.7687 306.1668 -9142.3669 -7409.9909 302.2293 130.5931 176.6090 30292.4246 4.2083 44.5185
ENERGY: 600000 1.4439 8.0244 3.5243 0.0000 -10529.5902 1395.1489 0.0000 0.0000 1724.4594 -7396.9893 294.3648 -9121.4487 -7423.1708 299.7528 -117.1436 -70.8777 30061.6432 -35.9290 13.5899
ENERGY: 900000 0.0627 5.6948 4.4617 0.0000 -10582.2356 1369.9488 0.0000 0.0000 1767.6463 -7434.4212 301.7368 -9202.0675 -7438.4025 299.6306 -480.2651 -432.9729 30249.0456 -97.2433 -47.3727
ENERGY: 1200000 1.7330 6.8200 4.9717 0.0000 -10643.2604 1436.1345 0.0000 0.0000 1707.1599 -7486.4413 291.4118 -9193.6012 -7439.7218 300.1108 -98.4805 -85.5458 30456.4034 -84.9944 -27.6720
ENERGY: 1500000 1.2176 4.4635 4.4996 0.0000 -10599.3023 1366.5470 0.0000 0.0000 1752.7425 -7469.8320 299.1927 -9222.5746 -7451.5413 299.4062 -695.3455 -655.1079 30301.9446 -115.4481 -63.9370
TCL: Running FEP window  18: Lambda1 0.1499999999999997 Lambda2 0.09999999999999969 [dLambda -0.05 ]
TCL: Setting parameter firsttimestep to 0
TCL: Setting parameter alchLambda to 0.1499999999999997
Info: NONBONDED TABLE R-SQUARED SPACING: 0.0625
Info: NONBONDED TABLE SIZE: 705 POINTS
TCL: Setting parameter alchLambda2 to 0.09999999999999969
Info: NONBONDED TABLE R-SQUARED SPACING: 0.0625
Info: NONBONDED TABLE SIZE: 705 POINTS
TCL: Running for 1500000 steps
ETITLE: TS BOND ANGLE DIHED IMPRP ELECT VDW BOUNDARY MISC KINETIC TOTAL TEMP POTENTIAL TOTALAVG TEMPAVG PRESSURE GPRESSURE VOLUME PRESSAVG GPRESSAVG
ENERGY: 0 1.2176 4.4635 4.4996 0.0000 -10599.3049 1365.8089 0.0000 0.0000 1751.8748 -7471.4406 299.0446 -9223.3153 -7471.4406 299.0446 -745.4208 -662.5586 30301.9446 -745.4208 -662.5586
ENERGY: 300000 1.4740 3.1272 6.0596 0.0000 -10739.1543 1494.3764 0.0000 0.0000 1805.3655 -7428.7517 308.1755 -9234.1172 -7449.3227 301.0794 153.1310 197.3238 30385.1318 -314.1977 -265.5823
ENERGY: 600000 0.8842 6.7209 4.0870 0.0000 -10675.7109 1479.9191 0.0000 0.0000 1770.1450 -7413.9547 302.1633 -9184.0997 -7463.8305 297.7872 401.9872 449.9744 30036.7823 -260.3348 -200.1061
ENERGY: 900000 2.6250 6.3482 5.3468 0.0000 -10652.6657 1453.6229 0.0000 0.0000 1755.3792 -7429.3437 299.6428 -9184.7229 -7446.0810 298.8776 29.3056 27.1139 30466.4721 -210.6109 -167.5723
ENERGY: 1200000 1.2966 7.6715 4.7078 0.0000 -10494.9138 1334.2795 0.0000 0.0000 1759.5531 -7387.4053 300.3553 -9146.9583 -7440.7747 299.0450 -798.6552 -711.6892 30559.5478 -321.2542 -270.4511
ENERGY: 1500000 1.0913 4.7164 3.8855 0.0000 -10648.2716 1419.3145 0.0000 0.0000 1745.4903 -7473.7736 297.9548 -9219.2639 -7441.1753 298.7928 -224.2555 -115.5893 30205.8518 -353.4014 -297.9347
TCL: Running FEP window  19: Lambda1 0.09999999999999969 Lambda2 0.049999999999999684 [dLambda -0.05 ]
TCL: Setting parameter firsttimestep to 0
TCL: Setting parameter alchLambda to 0.09999999999999969
Info: NONBONDED TABLE R-SQUARED SPACING: 0.0625
Info: NONBONDED TABLE SIZE: 705 POINTS
TCL: Setting parameter alchLambda2 to 0.049999999999999684
Info: NONBONDED TABLE R-SQUARED SPACING: 0.0625
Info: NONBONDED TABLE SIZE: 705 POINTS
TCL: Running for 1500000 steps
ETITLE: TS BOND ANGLE DIHED IMPRP ELECT VDW BOUNDARY MISC KINETIC TOTAL TEMP POTENTIAL TOTALAVG TEMPAVG PRESSURE GPRESSURE VOLUME PRESSAVG GPRESSAVG
ENERGY: 0 1.0913 4.7164 3.8855 0.0000 -10648.2711 1419.5296 0.0000 0.0000 1744.6273 -7474.4210 297.8075 -9219.0483 -7474.4210 297.8075 -210.2535 -118.2140 30205.8518 -210.2535 -118.2140
ENERGY: 300000 0.7902 5.1914 4.7731 0.0000 -10779.0114 1469.1921 0.0000 0.0000 1738.3472 -7560.7174 296.7354 -9299.0645 -7503.6557 296.6483 -28.4504 1.0119 29981.3341 -250.8169 -194.8439
ENERGY: 600000 0.3163 6.7694 3.6543 0.0000 -10618.6464 1452.6039 0.0000 0.0000 1753.5744 -7401.7281 299.3347 -9155.3025 -7487.1121 296.2238 289.0065 381.8421 30123.1658 -120.6079 -60.4013
ENERGY: 900000 0.8004 4.8260 3.8042 0.0000 -10556.7726 1405.7508 0.0000 0.0000 1729.2960 -7412.2952 295.1904 -9141.5911 -7475.6864 297.3109 -288.1601 -235.7852 30568.5041 -95.4046 -20.2434
ENERGY: 1200000 1.6461 6.4960 6.1043 0.0000 -10533.0515 1427.2322 0.0000 0.0000 1740.4420 -7351.1309 297.0930 -9091.5729 -7457.7109 297.1696 106.5990 165.5962 30450.1004 -46.9326 29.2420
ENERGY: 1500000 1.4170 6.5191 4.6151 0.0000 -10660.5713 1532.8800 0.0000 0.0000 1828.0508 -7287.0894 312.0478 -9115.1401 -7457.0044 298.4321 638.5704 694.0091 30764.9284 82.8778 157.7316
TCL: Running FEP window  20: Lambda1 0.049999999999999684 Lambda2 0.0    [dLambda -0.049999999999999684]
TCL: Setting parameter firsttimestep to 0
TCL: Setting parameter alchLambda to 0.049999999999999684
Info: NONBONDED TABLE R-SQUARED SPACING: 0.0625
Info: NONBONDED TABLE SIZE: 705 POINTS
TCL: Setting parameter alchLambda2 to 0.0
Info: NONBONDED TABLE R-SQUARED SPACING: 0.0625
Info: NONBONDED TABLE SIZE: 705 POINTS
TCL: Running for 1500000 steps
ETITLE: TS BOND ANGLE DIHED IMPRP ELECT VDW BOUNDARY MISC KINETIC TOTAL TEMP POTENTIAL TOTALAVG TEMPAVG PRESSURE GPRESSURE VOLUME PRESSAVG GPRESSAVG
ENERGY: 0 1.4170 6.5191 4.6151 0.0000 -10660.5709 1532.3222 0.0000 0.0000 1827.2071 -7288.4904 311.9038 -9115.6975 -7288.4904 311.9038 612.2834 691.5988 30764.9284 612.2834 691.5988
ENERGY: 300000 1.1174 10.0315 3.8188 0.0000 -10643.6059 1456.3120 0.0000 0.0000 1739.6060 -7432.7202 296.9503 -9172.3262 -7382.4138 301.6681 112.2053 263.3368 30274.6375 158.6216 237.4740
ENERGY: 600000 1.3791 11.4420 4.5971 0.0000 -10604.9696 1394.3079 0.0000 0.0000 1811.7866 -7381.4569 309.2715 -9193.2435 -7397.9917 301.9699 -522.1166 -485.0087 30535.1931 312.1169 376.5908
ENERGY: 900000 2.2434 7.5958 3.8183 0.0000 -10769.4031 1494.2664 0.0000 0.0000 1761.9006 -7499.5786 300.7560 -9261.4793 -7421.8338 302.0525 585.4058 627.8056 29729.9637 356.2147 413.2012
ENERGY: 1200000 0.9667 5.0645 4.6934 0.0000 -10849.7438 1602.3070 0.0000 0.0000 1812.3785 -7424.3338 309.3726 -9236.7122 -7428.5182 302.5506 1408.2890 1386.1224 29837.4076 340.2327 398.3119
ENERGY: 1500000 0.8400 5.0600 5.6279 0.0000 -10613.0156 1397.2360 0.0000 0.0000 1802.8560 -7401.3956 307.7471 -9204.2516 -7423.6384 302.5623 -367.9072 -290.2510 30379.1522 194.5653 257.8675
TCL: Exiting due to exit command.
