Info: SIMULATION PARAMETERS:
Info: TIMESTEP               2
Info: NUMBER OF STEPS        0
Info: STEPS PER CYCLE        10
Info: PERIODIC CELL BASIS 1  32.088 0 0
Info: PERIODIC CELL BASIS 2  0 30.0431 0
Info: PERIODIC CELL BASIS 3  0 0 31.2567
Info: PERIODIC CELL CENTER   0 0 0
Info: WRAPPING WATERS AROUND PERIODIC BOUNDARIES ON OUTPUT.
Info: WRAPPING ALL CLUSTERS AROUND PERIODIC BOUNDARIES ON OUTPUT.
Info: FIRST LDB TIMESTEP     50
Info: LAST LDB TIMESTEP     -1
Info: HOM BACKGROUND SCALING 1
Info: PME BACKGROUND SCALING 1
Info: MIN ATOMS PER PATCH    40
Info: EMPTY PATCH LOAD       40 ATOMS
Info: VELOCITY FILE          mobley_1803862_equil.vel
Info: CENTER OF MASS MOVING INITIALLY? NO
Info: DIELECTRIC             1
Info: EXCLUDE                SCALED ONE-FOUR
Info: 1-4 ELECTROSTATICS SCALED BY 0.833333
Info: MODIFIED 1-4 VDW PARAMETERS WILL BE USED
Info: DCD FILENAME           mobley_1803862_prod.dcd
Info: DCD FREQUENCY          100000
Info: DCD FIRST STEP         100000
Info: DCD FILE WILL CONTAIN UNIT CELL DATA
Info: XST FILENAME           mobley_1803862_prod.xst
Info: XST FREQUENCY          100000
Info: NO VELOCITY DCD OUTPUT
Info: NO FORCE DCD OUTPUT
Info: OUTPUT FILENAME        mobley_1803862_prod
Info: BINARY OUTPUT FILES WILL BE USED
Info: RESTART FILENAME       mobley_1803862_prod.restart
Info: RESTART FREQUENCY      100000
Info: BINARY RESTART FILES WILL BE USED
Info: CUTOFF                 9
Info: PAIRLIST DISTANCE      11
Info: PAIRLIST SHRINK RATE   0.01
Info: PAIRLIST GROW RATE     0.01
Info: PAIRLIST TRIGGER       0.3
Info: PAIRLISTS PER CYCLE    2
Info: PAIRLISTS ENABLED
Info: MARGIN                 2
Info: HYDROGEN GROUP CUTOFF  2.5
Info: PATCH DIMENSION        15.5
Info: ENERGY OUTPUT STEPS    100000
Info: ENERGY EVALUATION STEPS    100000
Info: OUTPUT ENERGY PRECISION 4
Info: CROSSTERM ENERGY INCLUDED IN DIHEDRAL
Info: TIMING OUTPUT STEPS    1000000
Info: PRESSURE OUTPUT STEPS  100000
Info: ALCHEMICAL FEP ON
Info: FEP CURRENT LAMBDA VALUE     0
Info: FEP COMPARISON LAMBDA VALUE  0.05
Info: FEP INTRA-ALCHEMICAL NON-BONDED INTERACTIONS WILL BE RETAINED
Info: FEP INTRA-ALCHEMICAL BONDED INTERACTIONS WILL BE RETAINED
Info: FEP VDW SHIFTING COEFFICIENT 5
Info: FEP ELEC. ACTIVE FOR ANNIHILATED PARTICLES BETWEEN LAMBDA = 0 AND LAMBDA = 0.5
Info: FEP ELEC. ACTIVE FOR EXNIHILATED PARTICLES BETWEEN LAMBDA = 0.5 AND LAMBDA = 1
Info: FEP VDW ACTIVE FOR ANNIHILATED PARTICLES BETWEEN LAMBDA = 0 AND LAMBDA = 1
Info: FEP VDW ACTIVE FOR EXNIHILATED PARTICLES BETWEEN LAMBDA = 0 AND LAMBDA = 1
Info: FEP BOND ACTIVE FOR ANNIHILATED PARTICLES BETWEEN LAMBDA = 1 AND LAMBDA = 1
Info: FEP BOND ACTIVE FOR EXNIHILATED PARTICLES BETWEEN LAMBDA = 0 AND LAMBDA = 0
Info: LANGEVIN DYNAMICS ACTIVE
Info: LANGEVIN TEMPERATURE   300
Info: LANGEVIN USING BBK INTEGRATOR
Info: LANGEVIN DAMPING COEFFICIENT IS 1 INVERSE PS
Info: LANGEVIN DYNAMICS APPLIED TO HYDROGENS
Info: LANGEVIN PISTON PRESSURE CONTROL ACTIVE
Info:        TARGET PRESSURE IS 1.01325 BAR
Info:     OSCILLATION PERIOD IS 50 FS
Info:             DECAY TIME IS 25 FS
Info:     PISTON TEMPERATURE IS 300 K
Info:       PRESSURE CONTROL IS GROUP-BASED
Info:    INITIAL STRAIN RATE IS -8.9536e-05 -8.9536e-05 -8.9536e-05
Info:       CELL FLUCTUATION IS ISOTROPIC
Info: PARTICLE MESH EWALD (PME) ACTIVE
Info: PME TOLERANCE               1e-06
Info: PME EWALD COEFFICIENT       0.348832
Info: PME INTERPOLATION ORDER     4
Info: PME GRID DIMENSIONS         36 32 32
Info: PME MAXIMUM GRID SPACING    1
Info: PME CALCULATION WILL BE PERFORMED ON GPU
Info: FULL ELECTROSTATIC EVALUATION FREQUENCY      2
Info: USING VERLET I (r-RESPA) MTS SCHEME.
Info: C1 SPLITTING OF LONG RANGE ELECTROSTATICS
Info: PLACING ATOMS IN PATCHES BY HYDROGEN GROUPS
Info: RIGID BONDS TO HYDROGEN : ALL
Info:         ERROR TOLERANCE : 1e-08
Info:          MAX ITERATIONS : 100
Info: RIGID WATER USING SETTLE ALGORITHM
Info: RANDOM NUMBER SEED     1743764121
Info: USE HYDROGEN BONDS?    NO
Info: Using AMBER format force field!
Info: AMBER PARM FILE        mobley_1803862.prmtop
Info: COORDINATE PDB         mobley_1803862.pdb
Info: Exclusions will be read from PARM file!
Info: SCNB (VDW SCALING)     2
Info: USING ARITHMETIC MEAN TO COMBINE L-J SIGMA PARAMETERS
Info: BINARY COORDINATES     mobley_1803862_equil.coor
Info: SUMMARY OF PARAMETERS:
Info: 4 BONDS
Info: 3 ANGLES
Info:   3 HARMONIC
Info:   0 COSINE-BASED
Info: 5 DIHEDRAL
Info: 0 IMPROPER
Info: 0 CROSSTERM
Info: 0 VDW
Info: 10 VDW_PAIRS
Info: 0 NBTHOLE_PAIRS
Info: To read alchdata from file: mobley_1803862.pdb
Info: To read alchflag data from column: 5
Info: STRUCTURE SUMMARY:
Info: 2948 ATOMS
Info: 2947 BONDS
Info: 30 ANGLES
Info: 40 DIHEDRALS
Info: 0 IMPROPERS
Info: 0 CROSSTERMS
Info: 3013 EXCLUSIONS
Info: 2943 RIGID BONDS
Info: ALCH: 0 ATOMS TO DISAPPEAR IN FINAL STATE
Info: ALCH: 17 ATOMS TO APPEAR IN FINAL STATE
Info: 5901 DEGREES OF FREEDOM
Info: 982 HYDROGEN GROUPS
Info: 4 ATOMS IN LARGEST HYDROGEN GROUP
Info: 982 MIGRATION GROUPS
Info: 4 ATOMS IN LARGEST MIGRATION GROUP
Info: TOTAL MASS = 17673.8 amu
Info: TOTAL CHARGE = -0.000100005 e
Info: MASS DENSITY = 0.973998 g/cm^3
Info: ATOM DENSITY = 0.0978356 atoms/A^3
Info: ADDED 0 IMPLICIT EXCLUSIONS
Info: NONBONDED TABLE R-SQUARED SPACING: 0.0625
Info: NONBONDED TABLE SIZE: 705 POINTS
Info: REMOVING COM VELOCITY 0.0811756 0.0463364 0.0506608
Info: Use 3D box decompostion in PME FFT.
Info: Updated CUDA force table with 4096 elements.
Info: Updated CUDA LJ table with 4 x 4 elements.
Info: Found 20 unique exclusion lists needing 48 bytes
TCL: Running for 1500000 steps
ETITLE: TS BOND ANGLE DIHED IMPRP ELECT VDW BOUNDARY MISC KINETIC TOTAL TEMP POTENTIAL TOTALAVG TEMPAVG PRESSURE GPRESSURE VOLUME PRESSAVG GPRESSAVG
ENERGY: 0 0.8936 9.5527 1.2961 0.0000 -10886.1372 1567.3709 0.0000 0.0000 1775.8838 -7531.1401 302.8861 -9307.0239 -7531.1401 302.8861 780.7841 859.9665 30132.1854 780.7841 859.9665
ENERGY: 300000 1.2350 8.2861 1.5048 0.0000 -10601.3142 1428.7429 0.0000 0.0000 1763.9620 -7397.5834 300.8528 -9161.5454 -7465.4266 299.3034 94.1752 124.7687 30136.2739 288.5962 345.1001
ENERGY: 600000 3.2245 6.5197 1.1045 0.0000 -10637.1172 1403.6497 0.0000 0.0000 1778.1615 -7444.4573 303.2746 -9222.6188 -7465.5856 300.6727 -342.1995 -213.5927 30066.8726 -51.7178 32.9016
ENERGY: 900000 0.8827 8.1590 2.1076 0.0000 -10468.1558 1317.5065 0.0000 0.0000 1729.4475 -7410.0526 294.9661 -9139.5001 -7465.9734 300.4293 -697.7066 -670.8017 30063.3297 -33.6406 45.4413
ENERGY: 1200000 0.7671 9.2678 1.9512 0.0000 -10790.7535 1523.0822 0.0000 0.0000 1679.5186 -7576.1665 286.4505 -9255.6851 -7467.3384 300.2306 375.1937 459.5451 30234.2302 5.1372 83.0585
ENERGY: 1500000 1.4031 7.9710 1.2848 0.0000 -10557.5205 1333.3694 0.0000 0.0000 1755.7335 -7457.7586 299.4494 -9213.4922 -7477.1760 299.4936 -629.1571 -626.4726 30073.7180 -22.9863 46.1187
TCL: Running FEP window   2: Lambda1 0.05   Lambda2 0.1    [dLambda 0.05  ]
TCL: Setting parameter firsttimestep to 0
TCL: Setting parameter alchLambda to 0.05
Info: NONBONDED TABLE R-SQUARED SPACING: 0.0625
Info: NONBONDED TABLE SIZE: 705 POINTS
TCL: Setting parameter alchLambda2 to 0.1
Info: NONBONDED TABLE R-SQUARED SPACING: 0.0625
Info: NONBONDED TABLE SIZE: 705 POINTS
TCL: Running for 1500000 steps
ETITLE: TS BOND ANGLE DIHED IMPRP ELECT VDW BOUNDARY MISC KINETIC TOTAL TEMP POTENTIAL TOTALAVG TEMPAVG PRESSURE GPRESSURE VOLUME PRESSAVG GPRESSAVG
ENERGY: 0 1.4031 7.9710 1.2848 0.0000 -10557.5197 1337.0540 0.0000 0.0000 1754.9042 -7454.9026 299.3079 -9209.8068 -7454.9026 299.3079 -709.4824 -621.9936 30073.7180 -709.4824 -621.9936
ENERGY: 300000 1.4940 4.9371 2.2310 0.0000 -10784.3076 1502.9472 0.0000 0.0000 1764.7782 -7507.9201 300.9920 -9272.6983 -7454.7765 297.8198 374.7597 422.7223 29912.8208 -65.3544 0.5023
ENERGY: 600000 2.0736 10.8284 1.5814 0.0000 -10612.6762 1405.0382 0.0000 0.0000 1777.5501 -7415.6044 303.1703 -9193.1546 -7427.6805 301.8847 -259.0162 -177.7023 30183.3806 -198.9292 -135.1032
ENERGY: 900000 0.5407 6.9386 1.8840 0.0000 -10659.9787 1426.3104 0.0000 0.0000 1753.7045 -7470.6005 299.1033 -9224.3050 -7448.2247 300.8890 -323.8611 -207.3839 30725.5253 -43.2094 21.8214
ENERGY: 1200000 0.5441 4.3164 2.6040 0.0000 -10706.1929 1458.5272 0.0000 0.0000 1771.1786 -7469.0226 302.0836 -9240.2012 -7451.1870 300.4615 377.1051 395.8809 29695.5817 -21.3533 37.4199
ENERGY: 1500000 0.0201 8.0588 2.3245 0.0000 -10874.8095 1600.1027 0.0000 0.0000 1791.5628 -7472.7405 305.5602 -9264.3033 -7451.3534 300.5412 1192.6543 1232.3306 29973.7950 5.7632 63.3616
TCL: Running FEP window   3: Lambda1 0.1    Lambda2 0.15000000000000002 [dLambda 0.05000000000000002]
TCL: Setting parameter firsttimestep to 0
TCL: Setting parameter alchLambda to 0.1
Info: NONBONDED TABLE R-SQUARED SPACING: 0.0625
Info: NONBONDED TABLE SIZE: 705 POINTS
TCL: Setting parameter alchLambda2 to 0.15000000000000002
Info: NONBONDED TABLE R-SQUARED SPACING: 0.0625
Info: NONBONDED TABLE SIZE: 705 POINTS
TCL: Running for 1500000 steps
ETITLE: TS BOND ANGLE DIHED IMPRP ELECT VDW BOUNDARY MISC KINETIC TOTAL TEMP POTENTIAL TOTALAVG TEMPAVG PRESSURE GPRESSURE VOLUME PRESSAVG GPRESSAVG
ENERGY: 0 0.0201 8.0588 2.3245 0.0000 -10874.8088 1603.1964 0.0000 0.0000 1790.6847 -7470.5243 305.4104 -9261.2089 -7470.5243 305.4104 1153.8560 1242.3398 29973.7950 1153.8560 1242.3398
ENERGY: 300000 0.3014 10.4781 3.4087 0.0000 -10705.2335 1478.4552 0.0000 0.0000 1812.2438 -7400.3462 309.0875 -9212.5900 -7477.3484 301.5393 503.4204 483.3237 30050.4810 419.5092 476.8508
ENERGY: 600000 2.0274 7.1800 2.1806 0.0000 -10730.2422 1474.6575 0.0000 0.0000 1747.8042 -7496.3925 298.0970 -9244.1967 -7493.5741 298.8206 65.0068 186.4670 30223.3799 136.5465 213.9318
ENERGY: 900000 1.8447 5.8938 1.2739 0.0000 -10604.9073 1402.5377 0.0000 0.0000 1732.8076 -7460.5496 295.5392 -9193.3571 -7478.8435 299.3382 -285.1720 -130.6221 30138.2662 124.1228 207.3329
ENERGY: 1200000 0.1433 7.6024 1.7492 0.0000 -10733.7633 1509.1328 0.0000 0.0000 1753.3508 -7461.7847 299.0430 -9215.1355 -7467.4828 299.9441 584.7728 607.2784 30203.2125 26.6173 101.7895
ENERGY: 1500000 1.5278 4.0105 1.1909 0.0000 -10594.1576 1423.6505 0.0000 0.0000 1724.6024 -7439.1755 294.1398 -9163.7779 -7456.5194 299.5261 124.8677 166.6564 30040.5613 0.6532 68.1484
TCL: Running FEP window   4: Lambda1 0.15000000000000002 Lambda2 0.2    [dLambda 0.04999999999999999]
TCL: Setting parameter firsttimestep to 0
TCL: Setting parameter alchLambda to 0.15000000000000002
Info: NONBONDED TABLE R-SQUARED SPACING: 0.0625
Info: NONBONDED TABLE SIZE: 705 POINTS
TCL: Setting parameter alchLambda2 to 0.2
Info: NONBONDED TABLE R-SQUARED SPACING: 0.0625
Info: NONBONDED TABLE SIZE: 705 POINTS
TCL: Running for 1500000 steps
ETITLE: TS BOND ANGLE DIHED IMPRP ELECT VDW BOUNDARY MISC KINETIC TOTAL TEMP POTENTIAL TOTALAVG TEMPAVG PRESSURE GPRESSURE VOLUME PRESSAVG GPRESSAVG
ENERGY: 0 1.5278 4.0105 1.1909 0.0000 -10594.1587 1423.4051 0.0000 0.0000 1723.7087 -7440.3156 293.9874 -9164.0244 -7440.3156 293.9874 88.3458 167.9008 30040.5613 88.3458 167.9008
ENERGY: 300000 0.5403 7.1453 3.0221 0.0000 -10652.8375 1517.4995 0.0000 0.0000 1707.3816 -7417.2488 291.2027 -9124.6304 -7442.0951 297.8290 576.6156 621.9131 30637.9066 288.9295 324.2964
ENERGY: 600000 1.1604 14.1090 1.3788 0.0000 -10796.0998 1526.9786 0.0000 0.0000 1756.9537 -7495.5194 299.6575 -9252.4731 -7440.4665 300.2637 603.3938 675.7137 29991.7057 160.1562 218.9626
ENERGY: 900000 0.8720 7.6203 2.3373 0.0000 -10674.5369 1344.1393 0.0000 0.0000 1736.8637 -7582.7044 296.2310 -9319.5681 -7464.1360 300.1049 -971.0768 -946.9674 30203.5816 27.8075 79.0490
ENERGY: 1200000 1.8127 5.9895 1.9591 0.0000 -10535.4239 1317.4708 0.0000 0.0000 1713.8664 -7494.3254 292.3087 -9208.1919 -7462.2908 299.1960 -975.6588 -946.8241 30341.3444 -140.9532 -92.2403
ENERGY: 1500000 1.6404 8.6344 1.5965 0.0000 -10647.9523 1397.1547 0.0000 0.0000 1765.9368 -7472.9895 301.1896 -9238.9263 -7459.8364 298.9473 -477.1534 -347.3807 30039.8772 -124.7720 -67.2453
TCL: Running FEP window   5: Lambda1 0.2    Lambda2 0.25   [dLambda 0.04999999999999999]
TCL: Setting parameter firsttimestep to 0
TCL: Setting parameter alchLambda to 0.2
Info: NONBONDED TABLE R-SQUARED SPACING: 0.0625
Info: NONBONDED TABLE SIZE: 705 POINTS
TCL: Setting parameter alchLambda2 to 0.25
Info: NONBONDED TABLE R-SQUARED SPACING: 0.0625
Info: NONBONDED TABLE SIZE: 705 POINTS
TCL: Running for 1500000 steps
ETITLE: TS BOND ANGLE DIHED IMPRP ELECT VDW BOUNDARY MISC KINETIC TOTAL TEMP POTENTIAL TOTALAVG TEMPAVG PRESSURE GPRESSURE VOLUME PRESSAVG GPRESSAVG
ENERGY: 0 1.6404 8.6344 1.5965 0.0000 -10647.9513 1398.4248 0.0000 0.0000 1765.0536 -7472.6016 301.0389 -9237.6552 -7472.6016 301.0389 -424.8510 -335.7131 30039.8772 -424.8510 -335.7131
ENERGY: 300000 1.8220 7.3724 2.1809 0.0000 -10722.5596 1446.4616 0.0000 0.0000 1732.8839 -7531.8389 295.5522 -9264.7228 -7454.8416 300.6575 -16.5881 114.8472 29911.2546 -426.6633 -367.2266
ENERGY: 600000 1.7770 8.7983 3.4929 0.0000 -10616.5094 1378.6870 0.0000 0.0000 1754.0236 -7469.7306 299.1577 -9223.7541 -7454.4973 301.7631 -283.7406 -211.7423 29927.3485 -306.5886 -263.4654
ENERGY: 900000 0.3104 5.0837 1.9361 0.0000 -10803.8378 1553.9623 0.0000 0.0000 1815.3945 -7427.1508 309.6248 -9242.5453 -7451.7118 302.1439 737.0428 791.8189 30580.6871 -192.9971 -142.6624
ENERGY: 1200000 2.2195 12.0373 2.0752 0.0000 -10653.1804 1409.3486 0.0000 0.0000 1734.2464 -7493.2534 295.7846 -9227.4998 -7452.5935 301.3948 -331.7617 -271.9352 30374.5217 -163.1105 -114.1104
ENERGY: 1500000 2.0965 11.2406 1.8731 0.0000 -11025.1629 1668.5459 0.0000 0.0000 1725.5385 -7615.8683 294.2994 -9341.4068 -7467.1647 300.2282 1745.6105 1770.3487 29727.3547 -28.2387 17.9955
TCL: Running FEP window   6: Lambda1 0.25   Lambda2 0.3    [dLambda 0.04999999999999999]
TCL: Setting parameter firsttimestep to 0
TCL: Setting parameter alchLambda to 0.25
Info: NONBONDED TABLE R-SQUARED SPACING: 0.0625
Info: NONBONDED TABLE SIZE: 705 POINTS
TCL: Setting parameter alchLambda2 to 0.3
Info: NONBONDED TABLE R-SQUARED SPACING: 0.0625
Info: NONBONDED TABLE SIZE: 705 POINTS
TCL: Running for 1500000 steps
ETITLE: TS BOND ANGLE DIHED IMPRP ELECT VDW BOUNDARY MISC KINETIC TOTAL TEMP POTENTIAL TOTALAVG TEMPAVG PRESSURE GPRESSURE VOLUME PRESSAVG GPRESSAVG
ENERGY: 0 2.0965 11.2406 1.8731 0.0000 -11025.1624 1668.5429 0.0000 0.0000 1724.6631 -7616.7461 294.1501 -9341.4092 -7616.7461 294.1501 1684.7042 1773.2957 29727.3547 1684.7042 1773.2957
ENERGY: 300000 0.2071 7.6504 2.6679 0.0000 -10685.1777 1431.3092 0.0000 0.0000 1722.2488 -7521.0944 293.7384 -9243.3432 -7514.1533 299.4793 -77.1493 -11.5962 30317.3322 433.8623 514.6387
ENERGY: 600000 1.4399 10.5931 2.8135 0.0000 -10641.2835 1410.7873 0.0000 0.0000 1800.7017 -7414.9479 307.1189 -9215.6497 -7483.9721 299.9617 -159.8290 -87.3789 30163.4702 -4.4663 69.3233
ENERGY: 900000 1.1587 10.7275 1.6292 0.0000 -10660.4112 1447.2490 0.0000 0.0000 1687.7262 -7511.9206 287.8504 -9199.6468 -7477.7775 299.1726 -127.4876 -98.7392 30359.9229 81.8133 146.8247
ENERGY: 1200000 1.6104 7.0627 1.5017 0.0000 -10668.3432 1427.8697 0.0000 0.0000 1745.4551 -7484.8435 297.6963 -9230.2986 -7474.8327 299.9015 -10.1024 34.5963 30098.8745 151.6072 210.2763
ENERGY: 1500000 1.2543 10.0917 1.6916 0.0000 -10823.6827 1524.1072 0.0000 0.0000 1802.4341 -7484.1038 307.4144 -9286.5378 -7467.2222 300.3376 928.5139 966.3779 29824.0003 202.6542 258.2931
TCL: Running FEP window   7: Lambda1 0.3    Lambda2 0.35   [dLambda 0.04999999999999999]
TCL: Setting parameter firsttimestep to 0
TCL: Setting parameter alchLambda to 0.3
Info: NONBONDED TABLE R-SQUARED SPACING: 0.0625
Info: NONBONDED TABLE SIZE: 705 POINTS
TCL: Setting parameter alchLambda2 to 0.35
Info: NONBONDED TABLE R-SQUARED SPACING: 0.0625
Info: NONBONDED TABLE SIZE: 705 POINTS
TCL: Running for 1500000 steps
ETITLE: TS BOND ANGLE DIHED IMPRP ELECT VDW BOUNDARY MISC KINETIC TOTAL TEMP POTENTIAL TOTALAVG TEMPAVG PRESSURE GPRESSURE VOLUME PRESSAVG GPRESSAVG
ENERGY: 0 1.2543 10.0918 1.6916 0.0000 -10823.6825 1524.1786 0.0000 0.0000 1801.5761 -7484.8901 307.2680 -9286.4662 -7484.8901 307.2680 886.6112 966.7281 29824.0003 886.6112 966.7281
ENERGY: 300000 1.5874 11.7053 1.4926 0.0000 -10576.8821 1273.6696 0.0000 0.0000 1706.9680 -7581.4591 291.1321 -9288.4271 -7471.6742 302.2125 -1465.6980 -1390.1278 30102.9063 -19.4313 43.2365
ENERGY: 600000 4.8482 7.0283 2.7304 0.0000 -10716.2503 1498.2271 0.0000 0.0000 1772.5275 -7430.8888 302.3136 -9203.4163 -7446.4080 303.0136 243.8570 318.9472 30232.4536 -5.8222 61.9413
ENERGY: 900000 0.1980 4.5739 2.5687 0.0000 -10664.5218 1406.5792 0.0000 0.0000 1736.8614 -7513.7407 296.2306 -9250.6021 -7453.9138 302.0472 -320.8899 -254.1842 30384.4960 -13.3233 50.2443
ENERGY: 1200000 0.8003 5.7070 2.3017 0.0000 -10777.1335 1485.6988 0.0000 0.0000 1764.9229 -7517.7029 301.0166 -9282.6258 -7442.8036 302.6371 364.7902 419.8517 29873.8791 95.1084 152.5215
ENERGY: 1500000 2.1481 4.7235 1.9822 0.0000 -10746.9720 1439.4739 0.0000 0.0000 1789.2512 -7509.3930 305.1660 -9298.6442 -7449.0697 302.2380 -39.6633 27.7518 29846.1971 -53.2479 7.8116
TCL: Running FEP window   8: Lambda1 0.35   Lambda2 0.39999999999999997 [dLambda 0.04999999999999999]
TCL: Setting parameter firsttimestep to 0
TCL: Setting parameter alchLambda to 0.35
Info: NONBONDED TABLE R-SQUARED SPACING: 0.0625
Info: NONBONDED TABLE SIZE: 705 POINTS
TCL: Setting parameter alchLambda2 to 0.39999999999999997
Info: NONBONDED TABLE R-SQUARED SPACING: 0.0625
Info: NONBONDED TABLE SIZE: 705 POINTS
TCL: Running for 1500000 steps
ETITLE: TS BOND ANGLE DIHED IMPRP ELECT VDW BOUNDARY MISC KINETIC TOTAL TEMP POTENTIAL TOTALAVG TEMPAVG PRESSURE GPRESSURE VOLUME PRESSAVG GPRESSAVG
ENERGY: 0 2.1481 4.7235 1.9822 0.0000 -10746.9706 1439.1184 0.0000 0.0000 1788.3761 -7510.6223 305.0167 -9298.9984 -7510.6223 305.0167 -64.4411 29.1040 29846.1971 -64.4411 29.1040
ENERGY: 300000 1.4239 6.0769 2.0297 0.0000 -10679.2941 1443.9155 0.0000 0.0000 1758.7879 -7467.0603 299.9703 -9225.8481 -7463.7925 302.7827 -84.2923 1.8880 30421.7536 -116.5875 -55.6269
ENERGY: 600000 1.4799 5.9687 1.3166 0.0000 -10650.5424 1434.5712 0.0000 0.0000 1811.5728 -7395.6331 308.9730 -9207.2059 -7446.7996 301.7388 -183.6037 -96.4048 30624.0094 -59.2348 -4.1302
ENERGY: 900000 2.2075 6.7334 2.2780 0.0000 -10723.8897 1439.4443 0.0000 0.0000 1786.4058 -7486.8207 304.6807 -9273.2264 -7441.9160 302.8391 -323.9701 -219.4692 30425.6157 -79.2475 -11.6516
ENERGY: 1200000 1.6239 7.4091 2.5230 0.0000 -10602.1948 1434.6748 0.0000 0.0000 1748.8953 -7407.0689 298.2831 -9155.9642 -7446.5175 302.0307 90.4948 178.0253 30461.1966 -129.8150 -62.9064
ENERGY: 1500000 0.7735 12.8098 2.1705 0.0000 -10702.0181 1448.8823 0.0000 0.0000 1714.8111 -7522.5709 292.4698 -9237.3820 -7452.0545 301.8610 338.3289 325.0661 29818.4662 -188.8970 -123.1378
TCL: Running FEP window   9: Lambda1 0.39999999999999997 Lambda2 0.44999999999999996 [dLambda 0.04999999999999999]
TCL: Setting parameter firsttimestep to 0
TCL: Setting parameter alchLambda to 0.39999999999999997
Info: NONBONDED TABLE R-SQUARED SPACING: 0.0625
Info: NONBONDED TABLE SIZE: 705 POINTS
TCL: Setting parameter alchLambda2 to 0.44999999999999996
Info: NONBONDED TABLE R-SQUARED SPACING: 0.0625
Info: NONBONDED TABLE SIZE: 705 POINTS
TCL: Running for 1500000 steps
ETITLE: TS BOND ANGLE DIHED IMPRP ELECT VDW BOUNDARY MISC KINETIC TOTAL TEMP POTENTIAL TOTALAVG TEMPAVG PRESSURE GPRESSURE VOLUME PRESSAVG GPRESSAVG
ENERGY: 0 0.7735 12.8098 2.1705 0.0000 -10702.0182 1448.8147 0.0000 0.0000 1713.9016 -7523.5480 292.3147 -9237.4496 -7523.5480 292.3147 250.6928 329.5263 29818.4662 250.6928 329.5263
ENERGY: 300000 1.6172 8.7613 1.7138 0.0000 -10607.2579 1426.4942 0.0000 0.0000 1735.4025 -7433.2689 295.9818 -9168.6714 -7477.5019 295.4980 -12.5658 91.1361 29980.4348 108.9411 196.9359
ENERGY: 600000 0.7163 5.6234 2.4524 0.0000 -10654.7533 1442.9827 0.0000 0.0000 1764.6019 -7438.3766 300.9619 -9202.9785 -7473.0598 297.0253 232.9058 287.0762 29997.1240 -5.1135 83.0880
ENERGY: 900000 1.1175 11.6848 1.8648 0.0000 -10777.3273 1540.0739 0.0000 0.0000 1728.3443 -7494.2419 294.7780 -9222.5862 -7465.8750 296.9556 849.6949 922.9662 30007.2764 -11.7798 76.6983
ENERGY: 1200000 2.3517 5.8637 1.7947 0.0000 -10729.6429 1420.5057 0.0000 0.0000 1712.0728 -7587.0543 292.0028 -9299.1271 -7472.8691 296.7544 -76.1363 -15.7297 29568.9223 4.3406 92.2691
ENERGY: 1500000 0.7039 10.9699 1.6614 0.0000 -10573.7850 1407.6647 0.0000 0.0000 1782.9629 -7369.8222 304.0935 -9152.7851 -7458.7087 298.2051 212.6686 317.6408 29822.8208 -19.0853 71.4361
TCL: Running FEP window  10: Lambda1 0.44999999999999996 Lambda2 0.49999999999999994 [dLambda 0.04999999999999999]
TCL: Setting parameter firsttimestep to 0
TCL: Setting parameter alchLambda to 0.44999999999999996
Info: NONBONDED TABLE R-SQUARED SPACING: 0.0625
Info: NONBONDED TABLE SIZE: 705 POINTS
TCL: Setting parameter alchLambda2 to 0.49999999999999994
Info: NONBONDED TABLE R-SQUARED SPACING: 0.0625
Info: NONBONDED TABLE SIZE: 705 POINTS
TCL: Running for 1500000 steps
ETITLE: TS BOND ANGLE DIHED IMPRP ELECT VDW BOUNDARY MISC KINETIC TOTAL TEMP POTENTIAL TOTALAVG TEMPAVG PRESSURE GPRESSURE VOLUME PRESSAVG GPRESSAVG
ENERGY: 0 0.7039 10.9699 1.6614 0.0000 -10573.7848 1407.8177 0.0000 0.0000 1782.0979 -7370.5340 303.9459 -9152.6319 -7370.5340 303.9459 235.8479 323.4215 29822.8208 235.8479 323.4215
ENERGY: 300000 0.5809 3.5094 1.2149 0.0000 -10711.5217 1433.0536 0.0000 0.0000 1724.5956 -7548.5674 294.1386 -9273.1630 -7467.6486 300.7115 -207.2187 -156.6519 30505.6367 230.0767 281.2892
ENERGY: 600000 0.1243 7.4650 2.3561 0.0000 -10519.1409 1396.4149 0.0000 0.0000 1657.0964 -7455.6842 282.6263 -9112.7806 -7458.5202 298.3609 -305.1604 -235.2974 30426.4033 204.7070 256.3009
ENERGY: 900000 0.6568 5.7127 1.9638 0.0000 -10638.9423 1341.4499 0.0000 0.0000 1698.0116 -7591.1475 289.6046 -9289.1591 -7463.8408 298.4653 -922.3826 -906.8252 30459.7403 95.1963 140.3632
ENERGY: 1200000 0.1437 6.4170 1.9547 0.0000 -10544.7045 1315.9002 0.0000 0.0000 1738.8246 -7481.4643 296.5654 -9220.2889 -7466.9743 298.6336 -869.9200 -815.5321 30455.0584 0.2556 47.1202
ENERGY: 1500000 0.5695 4.2125 2.6851 0.0000 -10620.5394 1403.9809 0.0000 0.0000 1731.0117 -7478.0797 295.2329 -9209.0913 -7469.3718 297.9408 -384.1260 -335.4035 30472.1864 -98.5898 -48.7117
TCL: Running FEP window  11: Lambda1 0.49999999999999994 Lambda2 0.5499999999999999 [dLambda 0.04999999999999999]
TCL: Setting parameter firsttimestep to 0
TCL: Setting parameter alchLambda to 0.49999999999999994
Info: NONBONDED TABLE R-SQUARED SPACING: 0.0625
Info: NONBONDED TABLE SIZE: 705 POINTS
TCL: Setting parameter alchLambda2 to 0.5499999999999999
Info: NONBONDED TABLE R-SQUARED SPACING: 0.0625
Info: NONBONDED TABLE SIZE: 705 POINTS
TCL: Running for 1500000 steps
ETITLE: TS BOND ANGLE DIHED IMPRP ELECT VDW BOUNDARY MISC KINETIC TOTAL TEMP POTENTIAL TOTALAVG TEMPAVG PRESSURE GPRESSURE VOLUME PRESSAVG GPRESSAVG
ENERGY: 0 0.5695 4.2125 2.6851 0.0000 -10620.5382 1403.9023 0.0000 0.0000 1730.0972 -7479.0716 295.0769 -9209.1688 -7479.0716 295.0769 -402.0171 -329.9322 30472.1864 -402.0171 -329.9322
ENERGY: 300000 1.6884 8.5328 2.3790 0.0000 -10700.3970 1468.9164 0.0000 0.0000 1755.9065 -7462.9739 299.4788 -9218.8804 -7460.4117 296.7913 149.9519 262.1568 30331.0081 108.4570 185.1964
ENERGY: 600000 0.3247 4.6795 2.3679 0.0000 -10638.3816 1377.7637 0.0000 0.0000 1772.2657 -7480.9801 302.2690 -9253.2457 -7474.0434 297.2495 -447.1202 -399.1624 30281.6736 76.5103 137.5541
ENERGY: 900000 1.1008 5.4622 1.6522 0.0000 -10532.2078 1335.0436 0.0000 0.0000 1737.3943 -7451.5547 296.3215 -9188.9490 -7481.0270 296.9030 -688.3991 -617.8836 30338.0625 -84.7633 -18.5534
ENERGY: 1200000 0.9926 7.5317 3.3634 0.0000 -10799.2279 1515.7119 0.0000 0.0000 1729.6097 -7542.0185 294.9938 -9271.6282 -7489.9878 296.2470 644.4329 644.8786 29837.6592 -57.9503 -6.2320
ENERGY: 1500000 2.5627 9.4381 1.9926 0.0000 -10701.7678 1463.1573 0.0000 0.0000 1756.5204 -7468.0968 299.5836 -9224.6172 -7479.7159 296.8376 333.4913 340.0638 30000.6574 -7.7686 44.5240
TCL: Running FEP window  12: Lambda1 0.5499999999999999 Lambda2 0.6    [dLambda 0.050000000000000044]
TCL: Setting parameter firsttimestep to 0
TCL: Setting parameter alchLambda to 0.5499999999999999
Info: NONBONDED TABLE R-SQUARED SPACING: 0.0625
Info: NONBONDED TABLE SIZE: 705 POINTS
TCL: Setting parameter alchLambda2 to 0.6
Info: NONBONDED TABLE R-SQUARED SPACING: 0.0625
Info: NONBONDED TABLE SIZE: 705 POINTS
TCL: Running for 1500000 steps
ETITLE: TS BOND ANGLE DIHED IMPRP ELECT VDW BOUNDARY MISC KINETIC TOTAL TEMP POTENTIAL TOTALAVG TEMPAVG PRESSURE GPRESSURE VOLUME PRESSAVG GPRESSAVG
ENERGY: 0 2.5627 9.4381 1.9926 0.0000 -10701.7951 1463.0651 0.0000 0.0000 1755.6493 -7469.0873 299.4350 -9224.7367 -7469.0873 299.4350 262.8330 345.9542 30000.6574 262.8330 345.9542
ENERGY: 300000 0.3331 5.3687 1.7877 0.0000 -10519.9710 1356.0143 0.0000 0.0000 1746.7097 -7409.7575 297.9103 -9156.4672 -7410.5674 303.4944 -665.2779 -627.9553 30936.0422 -66.9969 -38.4805
ENERGY: 600000 2.5136 11.1198 1.5995 0.0000 -10612.7821 1421.0275 0.0000 0.0000 1750.8624 -7425.6593 298.6186 -9176.5217 -7438.8852 300.9988 -46.9362 32.0537 30534.3562 -151.9662 -111.3843
ENERGY: 900000 3.7815 12.2084 2.4043 0.0000 -10663.3823 1465.3936 0.0000 0.0000 1778.7812 -7400.8133 303.3802 -9179.5945 -7440.7589 301.1316 481.2467 569.6826 29937.8760 -267.8810 -206.7786
ENERGY: 1200000 1.4959 7.8876 2.0377 0.0000 -10644.7456 1394.3493 0.0000 0.0000 1757.4137 -7481.5613 299.7359 -9238.9751 -7445.8675 300.8736 -503.7594 -516.5328 30490.1861 -232.9718 -175.4280
ENERGY: 1500000 1.3074 10.8166 2.0520 0.0000 -10755.1570 1488.5526 0.0000 0.0000 1758.4848 -7493.9436 299.9186 -9252.4284 -7448.8112 301.3617 462.6468 450.8395 30058.7863 -192.2758 -133.6625
TCL: Running FEP window  13: Lambda1 0.6    Lambda2 0.65   [dLambda 0.050000000000000044]
TCL: Setting parameter firsttimestep to 0
TCL: Setting parameter alchLambda to 0.6
Info: NONBONDED TABLE R-SQUARED SPACING: 0.0625
Info: NONBONDED TABLE SIZE: 705 POINTS
TCL: Setting parameter alchLambda2 to 0.65
Info: NONBONDED TABLE R-SQUARED SPACING: 0.0625
Info: NONBONDED TABLE SIZE: 705 POINTS
TCL: Running for 1500000 steps
ETITLE: TS BOND ANGLE DIHED IMPRP ELECT VDW BOUNDARY MISC KINETIC TOTAL TEMP POTENTIAL TOTALAVG TEMPAVG PRESSURE GPRESSURE VOLUME PRESSAVG GPRESSAVG
ENERGY: 0 1.3074 10.8166 2.0520 0.0000 -10755.1210 1488.2073 0.0000 0.0000 1757.6728 -7495.0649 299.7801 -9252.7377 -7495.0649 299.7801 381.2418 454.9433 30058.7863 381.2418 454.9433
ENERGY: 300000 0.8889 4.0011 1.3032 0.0000 -10422.2357 1306.7831 0.0000 0.0000 1734.5285 -7374.7310 295.8327 -9109.2595 -7431.5622 297.6282 -880.4726 -830.7297 30893.9262 -148.8882 -81.2796
ENERGY: 600000 0.5642 6.4011 1.3043 0.0000 -10611.9617 1385.9245 0.0000 0.0000 1751.9306 -7465.8370 298.8007 -9217.7676 -7463.3626 296.8385 -335.1081 -285.0512 30327.0074 -174.8224 -120.0440
ENERGY: 900000 0.6298 11.4328 1.9076 0.0000 -10590.7351 1374.7504 0.0000 0.0000 1769.0396 -7432.9749 301.7188 -9202.0146 -7454.0736 298.3073 -440.7601 -364.9682 30408.5577 -117.3043 -55.2909
ENERGY: 1200000 1.8848 10.3045 2.0027 0.0000 -10665.6204 1458.4803 0.0000 0.0000 1731.4425 -7461.5056 295.3064 -9192.9481 -7460.7061 298.1373 116.2826 234.8593 30385.3660 -91.4271 -30.3234
ENERGY: 1500000 0.4366 10.5513 1.1437 0.0000 -10582.4841 1391.9544 0.0000 0.0000 1747.4809 -7430.9171 298.0418 -9178.3981 -7464.3294 298.3875 -283.8786 -264.5911 30664.4552 -147.0562 -82.4217
TCL: Running FEP window  14: Lambda1 0.65   Lambda2 0.7000000000000001 [dLambda 0.050000000000000044]
TCL: Setting parameter firsttimestep to 0
TCL: Setting parameter alchLambda to 0.65
Info: NONBONDED TABLE R-SQUARED SPACING: 0.0625
Info: NONBONDED TABLE SIZE: 705 POINTS
TCL: Setting parameter alchLambda2 to 0.7000000000000001
Info: NONBONDED TABLE R-SQUARED SPACING: 0.0625
Info: NONBONDED TABLE SIZE: 705 POINTS
TCL: Running for 1500000 steps
ETITLE: TS BOND ANGLE DIHED IMPRP ELECT VDW BOUNDARY MISC KINETIC TOTAL TEMP POTENTIAL TOTALAVG TEMPAVG PRESSURE GPRESSURE VOLUME PRESSAVG GPRESSAVG
ENERGY: 0 0.4366 10.5513 1.1437 0.0000 -10582.5007 1392.1543 0.0000 0.0000 1746.5939 -7431.6208 297.8905 -9178.2147 -7431.6208 297.8905 -340.0270 -257.7279 30664.4552 -340.0270 -257.7279
ENERGY: 300000 1.4656 12.2820 1.3976 0.0000 -10663.4278 1459.2896 0.0000 0.0000 1817.9718 -7371.0212 310.0644 -9188.9930 -7446.6775 303.0401 479.4057 505.5303 30157.5980 117.6073 155.8031
ENERGY: 600000 1.6360 7.3355 1.4391 0.0000 -10714.4247 1409.3849 0.0000 0.0000 1729.1216 -7565.5075 294.9105 -9294.6292 -7471.5291 301.7099 -344.9166 -360.4457 30378.0439 44.4223 73.6971
ENERGY: 900000 0.7847 4.5979 2.1819 0.0000 -10616.1891 1410.9893 0.0000 0.0000 1724.1140 -7473.5213 294.0565 -9197.6353 -7466.2992 301.2169 -123.6441 -86.6285 30426.0869 91.3729 123.0334
ENERGY: 1200000 1.1015 7.7310 1.5824 0.0000 -10682.9326 1470.7435 0.0000 0.0000 1772.8787 -7428.8955 302.3735 -9201.7742 -7469.1336 300.6520 295.3058 355.4948 30339.0061 113.1985 151.9989
ENERGY: 1500000 0.2141 10.8826 1.4748 0.0000 -10661.0632 1435.1516 0.0000 0.0000 1750.8107 -7462.5294 298.6097 -9213.3401 -7465.1048 300.8957 -56.6563 40.4998 30258.9693 77.2166 126.1214
TCL: Running FEP window  15: Lambda1 0.7000000000000001 Lambda2 0.7500000000000001 [dLambda 0.050000000000000044]
TCL: Setting parameter firsttimestep to 0
TCL: Setting parameter alchLambda to 0.7000000000000001
Info: NONBONDED TABLE R-SQUARED SPACING: 0.0625
Info: NONBONDED TABLE SIZE: 705 POINTS
TCL: Setting parameter alchLambda2 to 0.7500000000000001
Info: NONBONDED TABLE R-SQUARED SPACING: 0.0625
Info: NONBONDED TABLE SIZE: 705 POINTS
TCL: Running for 1500000 steps
ETITLE: TS BOND ANGLE DIHED IMPRP ELECT VDW BOUNDARY MISC KINETIC TOTAL TEMP POTENTIAL TOTALAVG TEMPAVG PRESSURE GPRESSURE VOLUME PRESSAVG GPRESSAVG
ENERGY: 0 0.2141 10.8826 1.4748 0.0000 -10661.1337 1435.6106 0.0000 0.0000 1749.9608 -7462.9909 298.4648 -9212.9517 -7462.9909 298.4648 -26.5949 55.8736 30258.9693 -26.5949 55.8736
ENERGY: 300000 0.4179 8.4745 2.5041 0.0000 -10740.8753 1466.5511 0.0000 0.0000 1778.8607 -7484.0670 303.3938 -9262.9277 -7464.6007 300.2183 207.5078 260.8161 30279.7769 -201.2533 -137.5418
ENERGY: 600000 1.0463 6.6354 4.1068 0.0000 -10550.4591 1376.5469 0.0000 0.0000 1743.0224 -7419.1012 297.2814 -9162.1237 -7450.7509 300.0748 -201.9056 -130.0511 30254.5364 -77.8245 -11.3706
ENERGY: 900000 0.9632 7.5097 2.0655 0.0000 -10682.1330 1438.3313 0.0000 0.0000 1735.4591 -7497.8043 295.9914 -9233.2633 -7452.3892 299.6398 -209.4973 -121.3060 30686.1793 -40.2690 29.1727
ENERGY: 1200000 2.3949 8.3237 2.8955 0.0000 -10505.3217 1258.1433 0.0000 0.0000 1725.6061 -7507.9582 294.3110 -9233.5642 -7451.8990 301.1010 -1751.9546 -1661.4403 30989.6153 -128.2175 -67.6289
ENERGY: 1500000 2.8013 3.9979 1.7078 0.0000 -10693.6104 1419.6552 0.0000 0.0000 1774.0647 -7491.3835 302.5758 -9265.4481 -7445.5225 302.0474 -252.9449 -241.7237 30231.3318 -105.8893 -52.1506
TCL: Running FEP window  16: Lambda1 0.7500000000000001 Lambda2 0.8000000000000002 [dLambda 0.050000000000000044]
TCL: Setting parameter firsttimestep to 0
TCL: Setting parameter alchLambda to 0.7500000000000001
Info: NONBONDED TABLE R-SQUARED SPACING: 0.0625
Info: NONBONDED TABLE SIZE: 705 POINTS
TCL: Setting parameter alchLambda2 to 0.8000000000000002
Info: NONBONDED TABLE R-SQUARED SPACING: 0.0625
Info: NONBONDED TABLE SIZE: 705 POINTS
TCL: Running for 1500000 steps
ETITLE: TS BOND ANGLE DIHED IMPRP ELECT VDW BOUNDARY MISC KINETIC TOTAL TEMP POTENTIAL TOTALAVG TEMPAVG PRESSURE GPRESSURE VOLUME PRESSAVG GPRESSAVG
ENERGY: 0 2.8013 3.9979 1.7078 0.0000 -10693.6117 1420.0440 0.0000 0.0000 1773.1924 -7491.8684 302.4270 -9265.0607 -7491.8684 302.4270 -297.7288 -226.5702 30231.3318 -297.7288 -226.5702
ENERGY: 300000 0.2812 10.5247 2.1174 0.0000 -10575.3874 1377.2682 0.0000 0.0000 1776.9291 -7408.2668 303.0644 -9185.1959 -7480.8110 300.7160 -267.9328 -209.7490 30420.0998 206.7478 267.2755
ENERGY: 600000 0.6346 4.9970 1.4602 0.0000 -10768.8111 1495.1595 0.0000 0.0000 1778.5494 -7488.0104 303.3407 -9266.5598 -7488.7660 301.3329 324.3552 411.1101 30188.4765 288.0955 354.8128
ENERGY: 900000 0.0989 7.4615 1.2518 0.0000 -10551.5768 1343.8025 0.0000 0.0000 1815.5278 -7383.4343 309.6476 -9198.9621 -7464.6058 303.5680 -671.6978 -609.9119 30781.0834 112.3275 172.1237
ENERGY: 1200000 1.2930 7.6881 1.2662 0.0000 -10643.4874 1407.0558 0.0000 0.0000 1798.8461 -7427.3381 306.8024 -9226.1842 -7450.8634 302.4270 -257.5503 -249.3273 30457.4782 139.2106 189.5940
ENERGY: 1500000 3.9060 3.9097 1.5135 0.0000 -10680.3547 1448.3901 0.0000 0.0000 1828.4619 -7394.1735 311.8535 -9222.6355 -7450.2490 302.6570 184.2416 277.7730 29932.9556 3.3844 62.4820
TCL: Running FEP window  17: Lambda1 0.8000000000000002 Lambda2 0.8500000000000002 [dLambda 0.050000000000000044]
TCL: Setting parameter firsttimestep to 0
TCL: Setting parameter alchLambda to 0.8000000000000002
Info: NONBONDED TABLE R-SQUARED SPACING: 0.0625
Info: NONBONDED TABLE SIZE: 705 POINTS
TCL: Setting parameter alchLambda2 to 0.8500000000000002
Info: NONBONDED TABLE R-SQUARED SPACING: 0.0625
Info: NONBONDED TABLE SIZE: 705 POINTS
TCL: Running for 1500000 steps
ETITLE: TS BOND ANGLE DIHED IMPRP ELECT VDW BOUNDARY MISC KINETIC TOTAL TEMP POTENTIAL TOTALAVG TEMPAVG PRESSURE GPRESSURE VOLUME PRESSAVG GPRESSAVG
ENERGY: 0 3.9060 3.9097 1.5135 0.0000 -10680.3181 1448.7860 0.0000 0.0000 1827.5868 -7394.6161 311.7043 -9222.2029 -7394.6161 311.7043 197.0544 296.4770 29932.9556 197.0544 296.4770
ENERGY: 300000 3.4760 8.1467 1.8927 0.0000 -10826.1741 1527.7018 0.0000 0.0000 1763.6906 -7521.2662 300.8065 -9284.9569 -7489.0865 301.4671 610.3378 603.2542 30000.5055 69.7168 140.1280
ENERGY: 600000 0.8604 6.2966 2.0354 0.0000 -10725.3489 1494.1630 0.0000 0.0000 1814.2343 -7407.7593 309.4270 -9221.9935 -7443.1631 303.5206 414.5338 437.5167 30724.5639 3.1387 67.0593
ENERGY: 900000 0.8676 3.2559 1.0088 0.0000 -10612.9366 1409.6378 0.0000 0.0000 1707.7322 -7490.4344 291.2625 -9198.1667 -7452.4654 301.5124 -411.5908 -335.6442 30886.2868 117.0064 179.9531
ENERGY: 1200000 0.8543 13.3742 3.5873 0.0000 -10669.7037 1443.9951 0.0000 0.0000 1735.1873 -7472.7056 295.9451 -9207.8929 -7461.2022 300.8603 -2.9931 7.8520 30512.0018 74.5659 133.5700
ENERGY: 1500000 0.0737 8.7851 1.7034 0.0000 -10554.8960 1329.4777 0.0000 0.0000 1750.1497 -7464.7064 298.4970 -9214.8561 -7459.2124 300.8240 -927.3223 -882.8420 30990.5661 54.4298 113.4997
TCL: Running FEP window  18: Lambda1 0.8500000000000002 Lambda2 0.9000000000000002 [dLambda 0.050000000000000044]
TCL: Setting parameter firsttimestep to 0
TCL: Setting parameter alchLambda to 0.8500000000000002
Info: NONBONDED TABLE R-SQUARED SPACING: 0.0625
Info: NONBONDED TABLE SIZE: 705 POINTS
TCL: Setting parameter alchLambda2 to 0.9000000000000002
Info: NONBONDED TABLE R-SQUARED SPACING: 0.0625
Info: NONBONDED TABLE SIZE: 705 POINTS
TCL: Running for 1500000 steps
ETITLE: TS BOND ANGLE DIHED IMPRP ELECT VDW BOUNDARY MISC KINETIC TOTAL TEMP POTENTIAL TOTALAVG TEMPAVG PRESSURE GPRESSURE VOLUME PRESSAVG GPRESSAVG
ENERGY: 0 0.0737 8.7851 1.7034 0.0000 -10554.8853 1329.0279 0.0000 0.0000 1749.2499 -7466.0453 298.3435 -9215.2952 -7466.0453 298.3435 -966.0355 -884.4056 30990.5661 -966.0355 -884.4056
ENERGY: 300000 0.8735 8.6663 1.5596 0.0000 -10605.9934 1415.3913 0.0000 0.0000 1795.2098 -7384.2929 306.1822 -9179.5027 -7440.3304 301.5428 -26.5570 55.6566 30297.3696 -348.9291 -280.8638
ENERGY: 600000 2.2250 5.3673 1.9132 0.0000 -10600.0768 1391.4603 0.0000 0.0000 1742.4763 -7456.6347 297.1883 -9199.1110 -7449.9912 300.1820 -448.2273 -353.8823 30567.3570 -272.5563 -207.5336
ENERGY: 900000 0.3970 7.4066 3.6185 0.0000 -10702.8407 1402.0520 0.0000 0.0000 1763.8682 -7525.4983 300.8368 -9289.3665 -7444.0947 300.7159 -354.9105 -369.3391 30144.9475 -256.9462 -195.5838
ENERGY: 1200000 1.1951 4.1769 2.1764 0.0000 -10659.3434 1409.9801 0.0000 0.0000 1749.2208 -7492.5941 298.3386 -9241.8149 -7447.3745 300.0959 -182.2915 -155.4838 30590.8637 -205.2673 -150.2617
ENERGY: 1500000 2.9662 6.1972 1.9110 0.0000 -10761.6656 1488.1905 0.0000 0.0000 1731.0684 -7531.3323 295.2426 -9262.4007 -7457.2534 299.6417 247.0248 331.7925 30069.0329 -102.5046 -44.7757
TCL: Running FEP window  19: Lambda1 0.9000000000000002 Lambda2 0.9500000000000003 [dLambda 0.050000000000000044]
TCL: Setting parameter firsttimestep to 0
TCL: Setting parameter alchLambda to 0.9000000000000002
Info: NONBONDED TABLE R-SQUARED SPACING: 0.0625
Info: NONBONDED TABLE SIZE: 705 POINTS
TCL: Setting parameter alchLambda2 to 0.9500000000000003
Info: NONBONDED TABLE R-SQUARED SPACING: 0.0625
Info: NONBONDED TABLE SIZE: 705 POINTS
TCL: Running for 1500000 steps
ETITLE: TS BOND ANGLE DIHED IMPRP ELECT VDW BOUNDARY MISC KINETIC TOTAL TEMP POTENTIAL TOTALAVG TEMPAVG PRESSURE GPRESSURE VOLUME PRESSAVG GPRESSAVG
ENERGY: 0 2.9662 6.1972 1.9110 0.0000 -10761.6899 1487.8839 0.0000 0.0000 1730.1231 -7532.6086 295.0814 -9262.7316 -7532.6086 295.0814 257.8335 336.1514 30069.0329 257.8335 336.1514
ENERGY: 300000 2.5963 9.3431 1.3186 0.0000 -10853.5153 1495.0194 0.0000 0.0000 1789.4290 -7555.8089 305.1963 -9345.2380 -7519.5880 299.0529 201.3877 264.9606 30072.1912 -114.7578 -25.9883
ENERGY: 600000 1.5938 6.8297 1.5085 0.0000 -10807.0221 1520.6574 0.0000 0.0000 1772.0541 -7504.3785 302.2329 -9276.4326 -7489.6765 300.7303 961.9076 959.5865 29871.9545 51.0639 117.7607
ENERGY: 900000 0.3876 5.8185 4.0708 0.0000 -10645.7343 1436.4225 0.0000 0.0000 1717.9646 -7481.0702 293.0077 -9199.0348 -7473.1241 300.2603 90.4499 110.1716 30375.4384 -34.0812 28.4659
ENERGY: 1200000 1.2049 5.7557 2.5174 0.0000 -10577.3885 1378.1561 0.0000 0.0000 1694.1395 -7495.6149 288.9442 -9189.7544 -7483.2814 298.6736 -238.9727 -201.4486 30345.5267 -117.7037 -55.3017
ENERGY: 1500000 1.7916 8.4722 2.2071 0.0000 -10613.6774 1458.7277 0.0000 0.0000 1792.6528 -7349.8260 305.7461 -9142.4788 -7474.2724 298.2202 516.6418 612.9226 30028.5274 -57.3775 9.8028
TCL: Running FEP window  20: Lambda1 0.9500000000000003 Lambda2 1.0    [dLambda 0.04999999999999971]
TCL: Setting parameter firsttimestep to 0
TCL: Setting parameter alchLambda to 0.9500000000000003
Info: NONBONDED TABLE R-SQUARED SPACING: 0.0625
Info: NONBONDED TABLE SIZE: 705 POINTS
TCL: Setting parameter alchLambda2 to 1.0
Info: NONBONDED TABLE R-SQUARED SPACING: 0.0625
Info: NONBONDED TABLE SIZE: 705 POINTS
TCL: Running for 1500000 steps
ETITLE: TS BOND ANGLE DIHED IMPRP ELECT VDW BOUNDARY MISC KINETIC TOTAL TEMP POTENTIAL TOTALAVG TEMPAVG PRESSURE GPRESSURE VOLUME PRESSAVG GPRESSAVG
ENERGY: 0 1.7916 8.4722 2.2071 0.0000 -10613.6865 1458.5013 0.0000 0.0000 1791.7966 -7350.9177 305.6001 -9142.7143 -7350.9177 305.6001 529.7904 617.3293 30028.5274 529.7904 617.3293
ENERGY: 300000 1.1734 4.4384 1.3671 0.0000 -10637.4662 1403.1089 0.0000 0.0000 1711.5010 -7515.8773 291.9053 -9227.3784 -7436.7337 296.9616 -22.2398 33.8219 29904.6685 34.0670 99.8533
ENERGY: 600000 1.3569 10.4713 2.8752 0.0000 -10586.8810 1347.9429 0.0000 0.0000 1777.3363 -7446.8983 303.1338 -9224.2346 -7443.3493 296.7916 -622.2314 -561.9689 30310.6396 -53.8106 7.0662
ENERGY: 900000 1.4886 13.8575 2.5484 0.0000 -10590.5797 1410.5386 0.0000 0.0000 1737.1250 -7425.0216 296.2756 -9162.1466 -7445.5572 297.7658 -99.2479 -62.6214 30656.1971 -43.1623 19.4111
ENERGY: 1200000 0.8567 8.5228 2.2590 0.0000 -10712.4125 1458.0257 0.0000 0.0000 1760.3210 -7482.4274 300.2318 -9242.7483 -7452.0471 298.4634 259.7794 312.9383 30187.6510 -22.2238 41.0458
ENERGY: 1500000 1.3631 4.7286 2.7416 0.0000 -10687.5738 1466.6950 0.0000 0.0000 1708.3761 -7503.6694 291.3723 -9212.0454 -7468.4348 297.4434 245.4621 297.1801 30291.7152 -15.1798 44.7153
TCL: Exiting due to exit command.
