Info: SIMULATION PARAMETERS:
Info: TIMESTEP               2
Info: NUMBER OF STEPS        0
Info: STEPS PER CYCLE        10
Info: PERIODIC CELL BASIS 1  32.4049 0 0
Info: PERIODIC CELL BASIS 2  0 30.5142 0
Info: PERIODIC CELL BASIS 3  0 0 30.9543
Info: PERIODIC CELL CENTER   0 0 0
Info: WRAPPING WATERS AROUND PERIODIC BOUNDARIES ON OUTPUT.
Info: WRAPPING ALL CLUSTERS AROUND PERIODIC BOUNDARIES ON OUTPUT.
Info: FIRST LDB TIMESTEP     50
Info: LAST LDB TIMESTEP     -1
Info: HOM BACKGROUND SCALING 1
Info: PME BACKGROUND SCALING 1
Info: MIN ATOMS PER PATCH    40
Info: EMPTY PATCH LOAD       40 ATOMS
Info: VELOCITY FILE          mobley_6794076_equil.vel
Info: CENTER OF MASS MOVING INITIALLY? NO
Info: DIELECTRIC             1
Info: EXCLUDE                SCALED ONE-FOUR
Info: 1-4 ELECTROSTATICS SCALED BY 0.833333
Info: MODIFIED 1-4 VDW PARAMETERS WILL BE USED
Info: DCD FILENAME           mobley_6794076_prod.dcd
Info: DCD FREQUENCY          100000
Info: DCD FIRST STEP         100000
Info: DCD FILE WILL CONTAIN UNIT CELL DATA
Info: XST FILENAME           mobley_6794076_prod.xst
Info: XST FREQUENCY          100000
Info: NO VELOCITY DCD OUTPUT
Info: NO FORCE DCD OUTPUT
Info: OUTPUT FILENAME        mobley_6794076_prod
Info: BINARY OUTPUT FILES WILL BE USED
Info: RESTART FILENAME       mobley_6794076_prod.restart
Info: RESTART FREQUENCY      100000
Info: BINARY RESTART FILES WILL BE USED
Info: CUTOFF                 9
Info: PAIRLIST DISTANCE      11
Info: PAIRLIST SHRINK RATE   0.01
Info: PAIRLIST GROW RATE     0.01
Info: PAIRLIST TRIGGER       0.3
Info: PAIRLISTS PER CYCLE    2
Info: PAIRLISTS ENABLED
Info: MARGIN                 2
Info: HYDROGEN GROUP CUTOFF  2.5
Info: PATCH DIMENSION        15.5
Info: ENERGY OUTPUT STEPS    100000
Info: ENERGY EVALUATION STEPS    100000
Info: OUTPUT ENERGY PRECISION 4
Info: CROSSTERM ENERGY INCLUDED IN DIHEDRAL
Info: TIMING OUTPUT STEPS    1000000
Info: PRESSURE OUTPUT STEPS  100000
Info: ALCHEMICAL FEP ON
Info: FEP CURRENT LAMBDA VALUE     1
Info: FEP COMPARISON LAMBDA VALUE  0.95
Info: FEP INTRA-ALCHEMICAL NON-BONDED INTERACTIONS WILL BE RETAINED
Info: FEP INTRA-ALCHEMICAL BONDED INTERACTIONS WILL BE RETAINED
Info: FEP VDW SHIFTING COEFFICIENT 5
Info: FEP ELEC. ACTIVE FOR ANNIHILATED PARTICLES BETWEEN LAMBDA = 0 AND LAMBDA = 0.5
Info: FEP ELEC. ACTIVE FOR EXNIHILATED PARTICLES BETWEEN LAMBDA = 0.5 AND LAMBDA = 1
Info: FEP VDW ACTIVE FOR ANNIHILATED PARTICLES BETWEEN LAMBDA = 0 AND LAMBDA = 1
Info: FEP VDW ACTIVE FOR EXNIHILATED PARTICLES BETWEEN LAMBDA = 0 AND LAMBDA = 1
Info: FEP BOND ACTIVE FOR ANNIHILATED PARTICLES BETWEEN LAMBDA = 1 AND LAMBDA = 1
Info: FEP BOND ACTIVE FOR EXNIHILATED PARTICLES BETWEEN LAMBDA = 0 AND LAMBDA = 0
Info: LANGEVIN DYNAMICS ACTIVE
Info: LANGEVIN TEMPERATURE   300
Info: LANGEVIN USING BBK INTEGRATOR
Info: LANGEVIN DAMPING COEFFICIENT IS 1 INVERSE PS
Info: LANGEVIN DYNAMICS APPLIED TO HYDROGENS
Info: LANGEVIN PISTON PRESSURE CONTROL ACTIVE
Info:        TARGET PRESSURE IS 1.01325 BAR
Info:     OSCILLATION PERIOD IS 50 FS
Info:             DECAY TIME IS 25 FS
Info:     PISTON TEMPERATURE IS 300 K
Info:       PRESSURE CONTROL IS GROUP-BASED
Info:    INITIAL STRAIN RATE IS -0.00048783 -0.00048783 -0.00048783
Info:       CELL FLUCTUATION IS ISOTROPIC
Info: PARTICLE MESH EWALD (PME) ACTIVE
Info: PME TOLERANCE               1e-06
Info: PME EWALD COEFFICIENT       0.348832
Info: PME INTERPOLATION ORDER     4
Info: PME GRID DIMENSIONS         36 32 32
Info: PME MAXIMUM GRID SPACING    1
Info: PME CALCULATION WILL BE PERFORMED ON GPU
Info: FULL ELECTROSTATIC EVALUATION FREQUENCY      2
Info: USING VERLET I (r-RESPA) MTS SCHEME.
Info: C1 SPLITTING OF LONG RANGE ELECTROSTATICS
Info: PLACING ATOMS IN PATCHES BY HYDROGEN GROUPS
Info: RIGID BONDS TO HYDROGEN : ALL
Info:         ERROR TOLERANCE : 1e-08
Info:          MAX ITERATIONS : 100
Info: RIGID WATER USING SETTLE ALGORITHM
Info: RANDOM NUMBER SEED     1743790782
Info: USE HYDROGEN BONDS?    NO
Info: Using AMBER format force field!
Info: AMBER PARM FILE        mobley_6794076.prmtop
Info: COORDINATE PDB         mobley_6794076.pdb
Info: Exclusions will be read from PARM file!
Info: SCNB (VDW SCALING)     2
Info: USING ARITHMETIC MEAN TO COMBINE L-J SIGMA PARAMETERS
Info: BINARY COORDINATES     mobley_6794076_equil.coor
Info: SUMMARY OF PARAMETERS:
Info: 10 BONDS
Info: 12 ANGLES
Info:   12 HARMONIC
Info:   0 COSINE-BASED
Info: 9 DIHEDRAL
Info: 0 IMPROPER
Info: 0 CROSSTERM
Info: 0 VDW
Info: 45 VDW_PAIRS
Info: 0 NBTHOLE_PAIRS
Info: To read alchdata from file: mobley_6794076.pdb
Info: To read alchflag data from column: 5
Info: STRUCTURE SUMMARY:
Info: 2956 ATOMS
Info: 2956 BONDS
Info: 25 ANGLES
Info: 42 DIHEDRALS
Info: 0 IMPROPERS
Info: 0 CROSSTERMS
Info: 3008 EXCLUSIONS
Info: 2947 RIGID BONDS
Info: ALCH: 0 ATOMS TO DISAPPEAR IN FINAL STATE
Info: ALCH: 16 ATOMS TO APPEAR IN FINAL STATE
Info: 5921 DEGREES OF FREEDOM
Info: 989 HYDROGEN GROUPS
Info: 4 ATOMS IN LARGEST HYDROGEN GROUP
Info: 989 MIGRATION GROUPS
Info: 4 ATOMS IN LARGEST MIGRATION GROUP
Info: TOTAL MASS = 17776.8 amu
Info: TOTAL CHARGE = 9.9957e-05 e
Info: MASS DENSITY = 0.964447 g/cm^3
Info: ATOM DENSITY = 0.0965761 atoms/A^3
Info: ADDED 0 IMPLICIT EXCLUSIONS
Info: NONBONDED TABLE R-SQUARED SPACING: 0.0625
Info: NONBONDED TABLE SIZE: 705 POINTS
Info: REMOVING COM VELOCITY -0.0664427 0.00418133 -0.0719509
Info: Use 3D box decompostion in PME FFT.
Info: Updated CUDA force table with 4096 elements.
Info: Updated CUDA LJ table with 9 x 9 elements.
Info: Found 17 unique exclusion lists needing 36 bytes
TCL: Running for 1500000 steps
ETITLE: TS BOND ANGLE DIHED IMPRP ELECT VDW BOUNDARY MISC KINETIC TOTAL TEMP POTENTIAL TOTALAVG TEMPAVG PRESSURE GPRESSURE VOLUME PRESSAVG GPRESSAVG
ENERGY: 0 1.3375 6.1998 8.0048 0.0000 -10499.6239 1351.9950 0.0000 0.0000 1787.2418 -7344.8449 303.7936 -9132.0867 -7344.8449 303.7936 -376.2014 -298.3124 30607.9820 -376.2014 -298.3124
ENERGY: 300000 1.0667 3.9137 8.2415 0.0000 -10870.2700 1527.3813 0.0000 0.0000 1735.4564 -7594.2104 294.9912 -9329.6668 -7521.9239 298.6636 667.2445 690.4174 30485.4403 142.5426 192.6030
ENERGY: 600000 1.1855 5.8766 5.7353 0.0000 -10656.9045 1377.0380 0.0000 0.0000 1731.9375 -7535.1316 294.3930 -9267.0691 -7527.3650 296.6271 -705.7551 -591.6244 30723.1843 -91.2217 -19.1401
ENERGY: 900000 0.8899 6.4443 5.1062 0.0000 -10784.8531 1422.6320 0.0000 0.0000 1732.6778 -7617.1029 294.5189 -9349.7807 -7540.7078 296.2310 -349.6949 -249.1199 30366.7720 -73.1929 -6.8904
ENERGY: 1200000 4.2869 2.5730 5.8189 0.0000 -10839.4082 1484.0381 0.0000 0.0000 1773.8993 -7568.7920 301.5257 -9342.6913 -7527.2503 298.2153 56.9558 100.8382 30641.0859 -130.6474 -75.5780
ENERGY: 1500000 1.9173 7.6038 4.3554 0.0000 -10710.8689 1492.2450 0.0000 0.0000 1737.7453 -7467.0020 295.3803 -9204.7473 -7519.3364 297.6931 385.1253 476.0479 30679.9209 -40.7396 21.0540
TCL: Running FEP window   2: Lambda1 0.95   Lambda2 0.8999999999999999 [dLambda -0.050000000000000044]
TCL: Setting parameter firsttimestep to 0
TCL: Setting parameter alchLambda to 0.95
Info: NONBONDED TABLE R-SQUARED SPACING: 0.0625
Info: NONBONDED TABLE SIZE: 705 POINTS
TCL: Setting parameter alchLambda2 to 0.8999999999999999
Info: NONBONDED TABLE R-SQUARED SPACING: 0.0625
Info: NONBONDED TABLE SIZE: 705 POINTS
TCL: Running for 1500000 steps
ETITLE: TS BOND ANGLE DIHED IMPRP ELECT VDW BOUNDARY MISC KINETIC TOTAL TEMP POTENTIAL TOTALAVG TEMPAVG PRESSURE GPRESSURE VOLUME PRESSAVG GPRESSAVG
ENERGY: 0 1.9173 7.6038 4.3554 0.0000 -10709.2550 1492.2060 0.0000 0.0000 1736.8659 -7466.3066 295.2308 -9203.1725 -7466.3066 295.2308 388.0430 466.2541 30679.9209 388.0430 466.2541
ENERGY: 300000 2.9964 9.8505 6.4307 0.0000 -10640.2065 1365.3294 0.0000 0.0000 1728.4775 -7527.1220 293.8049 -9255.5995 -7485.4496 299.2215 -497.5850 -450.9121 30270.9682 -221.6244 -141.7948
ENERGY: 600000 2.3606 10.0891 5.8659 0.0000 -10941.2983 1535.4372 0.0000 0.0000 1772.0000 -7615.5456 301.2028 -9387.5455 -7506.6473 300.6237 461.4364 527.3656 30102.4992 5.9002 72.8793
ENERGY: 900000 3.3692 5.2997 6.1787 0.0000 -10745.9664 1454.7828 0.0000 0.0000 1799.8829 -7476.4530 305.9423 -9276.3360 -7504.2231 300.7203 395.9537 464.4096 30190.7623 17.2191 84.0833
ENERGY: 1200000 3.4532 6.9558 5.2356 0.0000 -10680.6695 1485.0968 0.0000 0.0000 1785.3287 -7394.5994 303.4684 -9179.9281 -7508.6679 300.3164 354.4646 438.0567 30663.6979 79.6253 147.5466
ENERGY: 1500000 1.7495 10.4118 6.9459 0.0000 -10722.9820 1495.7378 0.0000 0.0000 1816.8253 -7391.3117 308.8222 -9208.1370 -7493.6217 301.4686 829.9747 898.7723 30197.0957 77.6076 143.8757
TCL: Running FEP window   3: Lambda1 0.8999999999999999 Lambda2 0.8499999999999999 [dLambda -0.050000000000000044]
TCL: Setting parameter firsttimestep to 0
TCL: Setting parameter alchLambda to 0.8999999999999999
Info: NONBONDED TABLE R-SQUARED SPACING: 0.0625
Info: NONBONDED TABLE SIZE: 705 POINTS
TCL: Setting parameter alchLambda2 to 0.8499999999999999
Info: NONBONDED TABLE R-SQUARED SPACING: 0.0625
Info: NONBONDED TABLE SIZE: 705 POINTS
TCL: Running for 1500000 steps
ETITLE: TS BOND ANGLE DIHED IMPRP ELECT VDW BOUNDARY MISC KINETIC TOTAL TEMP POTENTIAL TOTALAVG TEMPAVG PRESSURE GPRESSURE VOLUME PRESSAVG GPRESSAVG
ENERGY: 0 1.7495 10.4118 6.9459 0.0000 -10720.0513 1494.7244 0.0000 0.0000 1815.9467 -7390.2730 308.6728 -9206.2197 -7390.2730 308.6728 794.4798 879.8411 30197.0957 794.4798 879.8411
ENERGY: 300000 3.5773 8.2467 4.8438 0.0000 -10718.7089 1476.1064 0.0000 0.0000 1757.8313 -7468.1034 298.7945 -9225.9348 -7478.4401 300.8892 30.4189 126.3482 30772.5271 442.2643 512.9266
ENERGY: 600000 3.0012 11.5478 7.9363 0.0000 -10612.3191 1370.6078 0.0000 0.0000 1772.6336 -7446.5924 301.3105 -9219.2260 -7470.1916 299.8087 -528.6212 -477.4491 30662.2715 20.0863 88.1568
ENERGY: 900000 2.2892 4.5371 7.4472 0.0000 -10662.0628 1432.0794 0.0000 0.0000 1784.4820 -7431.2278 303.3245 -9215.7098 -7477.0201 301.1172 191.0192 176.7211 30495.0126 -41.7789 21.0274
ENERGY: 1200000 2.1520 4.4558 5.8425 0.0000 -10701.8609 1428.8473 0.0000 0.0000 1738.5548 -7522.0084 295.5178 -9260.5633 -7487.1981 300.1231 -200.5115 -83.8165 30684.4823 -96.6229 -32.3565
ENERGY: 1500000 1.8537 3.8369 4.8273 0.0000 -10734.6695 1435.4000 0.0000 0.0000 1774.0771 -7514.6746 301.5559 -9288.7516 -7493.2533 299.7626 -198.4102 -191.7822 30743.8658 -131.3388 -71.8656
TCL: Running FEP window   4: Lambda1 0.8499999999999999 Lambda2 0.7999999999999998 [dLambda -0.050000000000000044]
TCL: Setting parameter firsttimestep to 0
TCL: Setting parameter alchLambda to 0.8499999999999999
Info: NONBONDED TABLE R-SQUARED SPACING: 0.0625
Info: NONBONDED TABLE SIZE: 705 POINTS
TCL: Setting parameter alchLambda2 to 0.7999999999999998
Info: NONBONDED TABLE R-SQUARED SPACING: 0.0625
Info: NONBONDED TABLE SIZE: 705 POINTS
TCL: Running for 1500000 steps
ETITLE: TS BOND ANGLE DIHED IMPRP ELECT VDW BOUNDARY MISC KINETIC TOTAL TEMP POTENTIAL TOTALAVG TEMPAVG PRESSURE GPRESSURE VOLUME PRESSAVG GPRESSAVG
ENERGY: 0 1.8537 3.8369 4.8273 0.0000 -10732.6317 1434.6591 0.0000 0.0000 1773.1689 -7514.2858 301.4015 -9287.4547 -7514.2858 301.4015 -281.0652 -205.4913 30743.8658 -281.0652 -205.4913
ENERGY: 300000 1.3000 6.5196 5.5729 0.0000 -10735.1914 1475.3602 0.0000 0.0000 1732.0921 -7514.3467 294.4193 -9246.4388 -7477.5076 301.1144 -144.8590 -114.6568 31003.6804 -232.4344 -171.9523
ENERGY: 600000 2.6554 5.3148 6.1640 0.0000 -10681.1590 1387.8745 0.0000 0.0000 1724.6972 -7554.4532 293.1623 -9279.1504 -7492.1458 299.6602 -595.1150 -580.3575 30751.1032 -306.0187 -249.5861
ENERGY: 900000 4.0376 6.1412 4.4894 0.0000 -10728.3532 1448.8873 0.0000 0.0000 1775.7022 -7489.0954 301.8321 -9264.7976 -7491.5300 299.9198 295.0112 332.4523 29771.6621 -230.7408 -173.0412
ENERGY: 1200000 4.5530 6.2829 5.1701 0.0000 -10685.1784 1399.3747 0.0000 0.0000 1819.8700 -7449.9277 309.3397 -9269.7976 -7484.0375 301.0579 -461.3838 -376.4589 30723.1146 -260.4595 -203.5162
ENERGY: 1500000 3.2063 4.1668 6.3121 0.0000 -10772.3115 1502.1246 0.0000 0.0000 1732.4274 -7524.0742 294.4763 -9256.5016 -7486.5032 301.0460 548.7477 602.3775 30238.9635 -194.0372 -147.1409
TCL: Running FEP window   5: Lambda1 0.7999999999999998 Lambda2 0.7499999999999998 [dLambda -0.050000000000000044]
TCL: Setting parameter firsttimestep to 0
TCL: Setting parameter alchLambda to 0.7999999999999998
Info: NONBONDED TABLE R-SQUARED SPACING: 0.0625
Info: NONBONDED TABLE SIZE: 705 POINTS
TCL: Setting parameter alchLambda2 to 0.7499999999999998
Info: NONBONDED TABLE R-SQUARED SPACING: 0.0625
Info: NONBONDED TABLE SIZE: 705 POINTS
TCL: Running for 1500000 steps
ETITLE: TS BOND ANGLE DIHED IMPRP ELECT VDW BOUNDARY MISC KINETIC TOTAL TEMP POTENTIAL TOTALAVG TEMPAVG PRESSURE GPRESSURE VOLUME PRESSAVG GPRESSAVG
ENERGY: 0 3.2063 4.1668 6.3121 0.0000 -10770.8600 1501.3289 0.0000 0.0000 1731.5700 -7524.2758 294.3306 -9255.8458 -7524.2758 294.3306 498.2074 583.9331 30238.9635 498.2074 583.9331
ENERGY: 300000 2.2165 3.3695 5.8240 0.0000 -10495.0662 1334.6164 0.0000 0.0000 1750.4664 -7398.5734 297.5426 -9149.0398 -7461.1776 300.3781 -689.0113 -651.4547 30781.6795 113.8278 177.4046
ENERGY: 600000 4.1950 7.8607 3.9673 0.0000 -10678.8561 1374.5505 0.0000 0.0000 1736.5177 -7551.7648 295.1716 -9288.2825 -7482.2292 300.2479 -779.1292 -722.7168 30665.1219 -66.6093 4.6096
ENERGY: 900000 3.2383 4.3485 7.5352 0.0000 -10752.8854 1513.5519 0.0000 0.0000 1748.4661 -7475.7454 297.2025 -9224.2115 -7487.3163 300.1039 628.7476 748.9660 30170.1730 -60.3744 13.6445
ENERGY: 1200000 1.6055 2.7175 5.1353 0.0000 -10706.2529 1392.3539 0.0000 0.0000 1748.2920 -7556.1487 297.1730 -9304.4407 -7494.8432 299.7411 -385.3552 -282.8630 29957.6031 19.0841 96.3963
ENERGY: 1500000 3.1131 4.7987 4.8368 0.0000 -10562.2615 1341.7950 0.0000 0.0000 1743.2028 -7464.5152 296.3079 -9207.7180 -7496.1225 299.1816 -549.0995 -545.2972 30540.9532 -28.7722 41.2381
TCL: Running FEP window   6: Lambda1 0.7499999999999998 Lambda2 0.6999999999999997 [dLambda -0.050000000000000044]
TCL: Setting parameter firsttimestep to 0
TCL: Setting parameter alchLambda to 0.7499999999999998
Info: NONBONDED TABLE R-SQUARED SPACING: 0.0625
Info: NONBONDED TABLE SIZE: 705 POINTS
TCL: Setting parameter alchLambda2 to 0.6999999999999997
Info: NONBONDED TABLE R-SQUARED SPACING: 0.0625
Info: NONBONDED TABLE SIZE: 705 POINTS
TCL: Running for 1500000 steps
ETITLE: TS BOND ANGLE DIHED IMPRP ELECT VDW BOUNDARY MISC KINETIC TOTAL TEMP POTENTIAL TOTALAVG TEMPAVG PRESSURE GPRESSURE VOLUME PRESSAVG GPRESSAVG
ENERGY: 0 3.1131 4.7987 4.8368 0.0000 -10560.0841 1341.8859 0.0000 0.0000 1742.3411 -7463.1086 296.1614 -9205.4497 -7463.1086 296.1614 -633.1165 -548.3539 30540.9532 -633.1165 -548.3539
ENERGY: 300000 1.0675 6.6704 4.1338 0.0000 -10746.7634 1444.9121 0.0000 0.0000 1821.6416 -7468.3380 309.6409 -9289.9797 -7462.0871 301.0312 112.4833 72.9285 30336.1944 -217.5481 -182.5055
ENERGY: 600000 2.4054 3.8572 6.9705 0.0000 -10650.9954 1403.1219 0.0000 0.0000 1731.7250 -7502.9154 294.3569 -9234.6404 -7461.8270 300.1956 -83.0239 -17.7128 30131.2115 -9.0368 37.3201
ENERGY: 900000 1.7210 3.2520 4.5792 0.0000 -10623.1918 1391.9282 0.0000 0.0000 1770.8703 -7450.8411 301.0108 -9221.7114 -7464.6738 300.4085 -236.0305 -195.6251 30633.4920 -37.5444 11.2425
ENERGY: 1200000 2.2997 4.5338 3.7445 0.0000 -10878.3207 1519.9366 0.0000 0.0000 1779.9731 -7567.8330 302.5581 -9347.8061 -7468.7168 300.7407 556.1329 583.0049 30094.6232 16.5323 63.3603
ENERGY: 1500000 3.4146 3.8148 4.9831 0.0000 -10814.4540 1511.9065 0.0000 0.0000 1826.5607 -7463.7743 310.4770 -9290.3350 -7468.3726 301.7496 880.9058 960.0232 29980.9922 72.4205 121.4076
TCL: Running FEP window   7: Lambda1 0.6999999999999997 Lambda2 0.6499999999999997 [dLambda -0.050000000000000044]
TCL: Setting parameter firsttimestep to 0
TCL: Setting parameter alchLambda to 0.6999999999999997
Info: NONBONDED TABLE R-SQUARED SPACING: 0.0625
Info: NONBONDED TABLE SIZE: 705 POINTS
TCL: Setting parameter alchLambda2 to 0.6499999999999997
Info: NONBONDED TABLE R-SQUARED SPACING: 0.0625
Info: NONBONDED TABLE SIZE: 705 POINTS
TCL: Running for 1500000 steps
ETITLE: TS BOND ANGLE DIHED IMPRP ELECT VDW BOUNDARY MISC KINETIC TOTAL TEMP POTENTIAL TOTALAVG TEMPAVG PRESSURE GPRESSURE VOLUME PRESSAVG GPRESSAVG
ENERGY: 0 3.4146 3.8148 4.9831 0.0000 -10812.7950 1512.4232 0.0000 0.0000 1825.6629 -7462.4965 310.3244 -9288.1594 -7462.4965 310.3244 878.5878 957.6769 29980.9922 878.5878 957.6769
ENERGY: 300000 4.9972 4.7763 5.2337 0.0000 -10630.1609 1407.7540 0.0000 0.0000 1730.0436 -7477.3561 294.0711 -9207.3998 -7476.3927 300.6006 -178.1403 -106.8686 30479.1824 79.2428 144.9142
ENERGY: 600000 7.2478 3.8567 8.5560 0.0000 -10731.8072 1472.4514 0.0000 0.0000 1763.6733 -7476.0220 299.7875 -9239.6953 -7469.3806 300.8428 170.5328 167.7444 30788.1380 62.3257 107.3807
ENERGY: 900000 5.2172 5.3853 3.6309 0.0000 -10770.6670 1391.6268 0.0000 0.0000 1795.1224 -7569.6844 305.1331 -9364.8068 -7481.1776 301.1201 -599.2857 -551.6233 30207.9458 -113.2717 -65.8874
ENERGY: 1200000 6.8707 4.0488 6.6755 0.0000 -10588.4591 1330.3334 0.0000 0.0000 1737.4129 -7503.1178 295.3237 -9240.5307 -7467.7081 301.1858 -1031.5384 -986.4909 30863.6117 -60.1348 -9.2650
ENERGY: 1500000 2.9546 7.1262 4.0068 0.0000 -10637.0658 1408.5430 0.0000 0.0000 1763.5799 -7450.8554 299.7716 -9214.4353 -7466.0914 301.0172 -473.8409 -383.6831 31234.5244 -120.7263 -71.3374
TCL: Running FEP window   8: Lambda1 0.6499999999999997 Lambda2 0.5999999999999996 [dLambda -0.050000000000000044]
TCL: Setting parameter firsttimestep to 0
TCL: Setting parameter alchLambda to 0.6499999999999997
Info: NONBONDED TABLE R-SQUARED SPACING: 0.0625
Info: NONBONDED TABLE SIZE: 705 POINTS
TCL: Setting parameter alchLambda2 to 0.5999999999999996
Info: NONBONDED TABLE R-SQUARED SPACING: 0.0625
Info: NONBONDED TABLE SIZE: 705 POINTS
TCL: Running for 1500000 steps
ETITLE: TS BOND ANGLE DIHED IMPRP ELECT VDW BOUNDARY MISC KINETIC TOTAL TEMP POTENTIAL TOTALAVG TEMPAVG PRESSURE GPRESSURE VOLUME PRESSAVG GPRESSAVG
ENERGY: 0 2.9546 7.1262 4.0068 0.0000 -10635.6990 1408.4709 0.0000 0.0000 1762.7098 -7450.4307 299.6237 -9213.1406 -7450.4307 299.6237 -475.5056 -393.8831 31234.5244 -475.5056 -393.8831
ENERGY: 300000 1.3347 6.1627 9.7075 0.0000 -10678.6772 1305.6315 0.0000 0.0000 1726.7724 -7629.0684 293.5151 -9355.8408 -7492.9517 298.3504 -1184.2888 -1199.8616 30177.1901 -319.6913 -284.3464
ENERGY: 600000 3.2868 5.5177 6.9541 0.0000 -10484.4652 1316.1246 0.0000 0.0000 1778.3074 -7374.2745 302.2750 -9152.5819 -7473.3483 298.9336 -759.7453 -723.6072 30812.6552 -260.8860 -215.5561
ENERGY: 900000 2.9863 6.3532 5.3795 0.0000 -10767.1419 1467.1184 0.0000 0.0000 1827.8989 -7457.4056 310.7045 -9285.3045 -7465.3299 300.0459 132.2604 163.0562 30350.1219 -136.9881 -88.9729
ENERGY: 1200000 2.9158 5.9065 6.0611 0.0000 -10691.8330 1438.4571 0.0000 0.0000 1788.1708 -7450.3217 303.9515 -9238.4925 -7468.0742 299.9162 52.0655 166.2288 30481.9934 -128.0145 -72.3101
ENERGY: 1500000 1.1281 5.0145 5.3029 0.0000 -10720.1456 1379.4352 0.0000 0.0000 1728.6612 -7600.6036 293.8361 -9329.2649 -7479.7410 299.9144 -673.6824 -562.5034 30236.4926 -131.1956 -68.2915
TCL: Running FEP window   9: Lambda1 0.5999999999999996 Lambda2 0.5499999999999996 [dLambda -0.050000000000000044]
TCL: Setting parameter firsttimestep to 0
TCL: Setting parameter alchLambda to 0.5999999999999996
Info: NONBONDED TABLE R-SQUARED SPACING: 0.0625
Info: NONBONDED TABLE SIZE: 705 POINTS
TCL: Setting parameter alchLambda2 to 0.5499999999999996
Info: NONBONDED TABLE R-SQUARED SPACING: 0.0625
Info: NONBONDED TABLE SIZE: 705 POINTS
TCL: Running for 1500000 steps
ETITLE: TS BOND ANGLE DIHED IMPRP ELECT VDW BOUNDARY MISC KINETIC TOTAL TEMP POTENTIAL TOTALAVG TEMPAVG PRESSURE GPRESSURE VOLUME PRESSAVG GPRESSAVG
ENERGY: 0 1.1281 5.0145 5.3029 0.0000 -10720.4263 1379.5894 0.0000 0.0000 1727.8483 -7601.5432 293.6980 -9329.3915 -7601.5432 293.6980 -648.5826 -569.8451 30236.4926 -648.5826 -569.8451
ENERGY: 300000 1.7345 2.8229 4.5158 0.0000 -10692.0356 1403.1734 0.0000 0.0000 1768.4925 -7511.2966 300.6066 -9279.7891 -7560.9728 297.8333 -180.1912 -128.2194 30490.0437 -178.5289 -135.3648
ENERGY: 600000 2.1112 3.6016 4.1880 0.0000 -10628.5925 1390.4732 0.0000 0.0000 1732.2833 -7495.9352 294.4518 -9228.2185 -7540.6287 296.8970 52.1397 52.1013 30165.7158 -68.8209 -18.3590
ENERGY: 900000 4.8687 8.3328 4.8574 0.0000 -10842.6624 1435.6004 0.0000 0.0000 1763.9703 -7625.0328 299.8379 -9389.0031 -7561.5294 296.6822 -490.9450 -375.4132 30066.4570 -65.3131 -11.6855
ENERGY: 1200000 2.8135 6.2964 5.6445 0.0000 -10797.6408 1432.7096 0.0000 0.0000 1789.0671 -7561.1098 304.1039 -9350.1768 -7542.5639 297.5073 -208.6838 -187.0765 30181.7094 -21.8392 25.0620
ENERGY: 1500000 2.8065 6.3565 6.5249 0.0000 -10699.9968 1426.7603 0.0000 0.0000 1762.5214 -7495.0273 299.5917 -9257.5487 -7523.2589 297.8414 216.2503 267.3551 29933.9467 -22.9983 17.8574
TCL: Running FEP window  10: Lambda1 0.5499999999999996 Lambda2 0.4999999999999996 [dLambda -0.04999999999999999]
TCL: Setting parameter firsttimestep to 0
TCL: Setting parameter alchLambda to 0.5499999999999996
Info: NONBONDED TABLE R-SQUARED SPACING: 0.0625
Info: NONBONDED TABLE SIZE: 705 POINTS
TCL: Setting parameter alchLambda2 to 0.4999999999999996
Info: NONBONDED TABLE R-SQUARED SPACING: 0.0625
Info: NONBONDED TABLE SIZE: 705 POINTS
TCL: Running for 1500000 steps
ETITLE: TS BOND ANGLE DIHED IMPRP ELECT VDW BOUNDARY MISC KINETIC TOTAL TEMP POTENTIAL TOTALAVG TEMPAVG PRESSURE GPRESSURE VOLUME PRESSAVG GPRESSAVG
ENERGY: 0 2.8065 6.3565 6.5249 0.0000 -10698.4552 1425.9034 0.0000 0.0000 1761.6797 -7495.1842 299.4486 -9256.8639 -7495.1842 299.4486 182.9179 255.8619 29933.9467 182.9179 255.8619
ENERGY: 300000 2.0155 6.6709 4.4992 0.0000 -10803.2316 1486.8849 0.0000 0.0000 1765.0084 -7538.1526 300.0144 -9303.1610 -7533.3061 302.9827 67.1779 177.6943 30526.5326 508.6086 592.8465
ENERGY: 600000 2.8693 5.3195 3.8347 0.0000 -10660.8281 1390.1213 0.0000 0.0000 1780.7721 -7477.9112 302.6939 -9258.6833 -7517.0957 300.7175 -449.6760 -412.4836 30574.4171 101.2857 176.4904
ENERGY: 900000 2.7392 6.1000 5.3983 0.0000 -10672.5287 1453.1802 0.0000 0.0000 1776.7807 -7428.3302 302.0154 -9205.1109 -7493.5771 299.9746 169.7678 231.0050 30589.4810 5.3019 80.9948
ENERGY: 1200000 2.1498 6.5251 6.3175 0.0000 -10758.5073 1446.1968 0.0000 0.0000 1803.8120 -7493.5062 306.6102 -9297.3182 -7495.3170 299.8675 49.1091 125.1936 30170.2856 -72.1541 0.2193
ENERGY: 1500000 1.8033 4.0966 4.4176 0.0000 -10666.9813 1412.9559 0.0000 0.0000 1803.0651 -7440.6429 306.4832 -9243.7080 -7481.5450 300.4980 18.2850 120.0197 30109.2821 -102.6876 -25.7265
TCL: Running FEP window  11: Lambda1 0.4999999999999996 Lambda2 0.4499999999999996 [dLambda -0.04999999999999999]
TCL: Setting parameter firsttimestep to 0
TCL: Setting parameter alchLambda to 0.4999999999999996
Info: NONBONDED TABLE R-SQUARED SPACING: 0.0625
Info: NONBONDED TABLE SIZE: 705 POINTS
TCL: Setting parameter alchLambda2 to 0.4499999999999996
Info: NONBONDED TABLE R-SQUARED SPACING: 0.0625
Info: NONBONDED TABLE SIZE: 705 POINTS
TCL: Running for 1500000 steps
ETITLE: TS BOND ANGLE DIHED IMPRP ELECT VDW BOUNDARY MISC KINETIC TOTAL TEMP POTENTIAL TOTALAVG TEMPAVG PRESSURE GPRESSURE VOLUME PRESSAVG GPRESSAVG
ENERGY: 0 1.8033 4.0966 4.4176 0.0000 -10666.0653 1412.4833 0.0000 0.0000 1802.1664 -7441.0981 306.3305 -9243.2645 -7441.0981 306.3305 23.3254 111.9533 30109.2821 23.3254 111.9533
ENERGY: 300000 3.3144 5.5450 6.2739 0.0000 -10596.4682 1346.8889 0.0000 0.0000 1734.2917 -7500.1543 294.7932 -9234.4460 -7494.4346 302.2931 -782.8698 -753.7285 30487.0208 -399.7707 -336.8884
ENERGY: 600000 6.2582 3.5754 3.5253 0.0000 -10911.6214 1634.9866 0.0000 0.0000 1693.6522 -7569.6238 287.8853 -9263.2759 -7489.6692 300.5306 1186.8877 1243.7400 30493.5241 -333.4880 -257.6259
ENERGY: 900000 2.2567 4.9017 3.6784 0.0000 -10624.2457 1413.7587 0.0000 0.0000 1771.2885 -7428.3617 301.0819 -9199.6502 -7475.8017 301.0877 17.0612 59.6942 30268.8073 -222.5813 -142.4913
ENERGY: 1200000 2.5901 5.2244 4.9756 0.0000 -10627.5265 1354.7078 0.0000 0.0000 1782.2652 -7477.7634 302.9477 -9260.0287 -7475.9117 300.6814 -579.6692 -532.0858 30419.9184 -230.0808 -161.8197
ENERGY: 1500000 3.8420 4.0669 4.7357 0.0000 -10620.3788 1345.6461 0.0000 0.0000 1804.4884 -7457.5997 306.7252 -9262.0880 -7486.2906 300.5423 -1053.8422 -997.7681 31037.9988 -300.4617 -231.1763
TCL: Running FEP window  12: Lambda1 0.4499999999999996 Lambda2 0.39999999999999963 [dLambda -0.04999999999999999]
TCL: Setting parameter firsttimestep to 0
TCL: Setting parameter alchLambda to 0.4499999999999996
Info: NONBONDED TABLE R-SQUARED SPACING: 0.0625
Info: NONBONDED TABLE SIZE: 705 POINTS
TCL: Setting parameter alchLambda2 to 0.39999999999999963
Info: NONBONDED TABLE R-SQUARED SPACING: 0.0625
Info: NONBONDED TABLE SIZE: 705 POINTS
TCL: Running for 1500000 steps
ETITLE: TS BOND ANGLE DIHED IMPRP ELECT VDW BOUNDARY MISC KINETIC TOTAL TEMP POTENTIAL TOTALAVG TEMPAVG PRESSURE GPRESSURE VOLUME PRESSAVG GPRESSAVG
ENERGY: 0 3.8420 4.0669 4.7357 0.0000 -10620.3786 1345.9121 0.0000 0.0000 1803.6400 -7458.1818 306.5810 -9261.8218 -7458.1818 306.5810 -1084.3643 -1001.2374 31037.9988 -1084.3643 -1001.2374
ENERGY: 300000 2.2591 4.6991 7.0346 0.0000 -10775.8571 1550.0430 0.0000 0.0000 1725.5564 -7486.2648 293.3084 -9211.8212 -7507.7527 299.6412 1119.1467 1188.4800 30292.7306 -32.7039 42.3764
ENERGY: 600000 2.7048 4.5964 5.8978 0.0000 -10649.5826 1455.0991 0.0000 0.0000 1763.7153 -7417.5693 299.7946 -9181.2846 -7500.0999 299.3143 116.7617 147.3877 30632.0447 1.6212 67.8274
ENERGY: 900000 2.7038 7.1213 4.2264 0.0000 -10704.0841 1408.0852 0.0000 0.0000 1766.1079 -7515.8395 300.2013 -9281.9474 -7508.8905 299.2755 -501.7368 -423.4739 30683.1349 -30.8451 33.9617
ENERGY: 1200000 3.3801 4.8235 6.3946 0.0000 -10728.8586 1457.9474 0.0000 0.0000 1793.9530 -7462.3601 304.9344 -9256.3131 -7498.4902 300.1365 -194.1346 -117.1522 30934.1317 -25.3502 46.6437
ENERGY: 1500000 2.0414 4.7785 8.0588 0.0000 -10674.3613 1290.6807 0.0000 0.0000 1778.0384 -7590.7634 302.2292 -9368.8018 -7511.6735 299.8596 -1387.6518 -1283.2710 29993.2724 -122.9898 -52.7986
TCL: Running FEP window  13: Lambda1 0.39999999999999963 Lambda2 0.34999999999999964 [dLambda -0.04999999999999999]
TCL: Setting parameter firsttimestep to 0
TCL: Setting parameter alchLambda to 0.39999999999999963
Info: NONBONDED TABLE R-SQUARED SPACING: 0.0625
Info: NONBONDED TABLE SIZE: 705 POINTS
TCL: Setting parameter alchLambda2 to 0.34999999999999964
Info: NONBONDED TABLE R-SQUARED SPACING: 0.0625
Info: NONBONDED TABLE SIZE: 705 POINTS
TCL: Running for 1500000 steps
ETITLE: TS BOND ANGLE DIHED IMPRP ELECT VDW BOUNDARY MISC KINETIC TOTAL TEMP POTENTIAL TOTALAVG TEMPAVG PRESSURE GPRESSURE VOLUME PRESSAVG GPRESSAVG
ENERGY: 0 2.0414 4.7785 8.0588 0.0000 -10674.3622 1290.8196 0.0000 0.0000 1777.2131 -7591.4508 302.0889 -9368.6639 -7591.4508 302.0889 -1390.1984 -1291.6501 29993.2724 -1390.1984 -1291.6501
ENERGY: 300000 6.6384 4.2909 6.2613 0.0000 -10735.3698 1528.2082 0.0000 0.0000 1773.9151 -7416.0558 301.5284 -9189.9709 -7479.8517 300.4753 556.3582 617.2689 30751.0614 -35.4466 42.7203
ENERGY: 600000 1.6074 5.2173 6.8750 0.0000 -10559.3124 1336.5673 0.0000 0.0000 1757.3413 -7451.7041 298.7112 -9209.0454 -7461.3668 302.1227 -1052.6337 -989.0100 31037.5378 -285.6517 -217.1431
ENERGY: 900000 4.5767 5.6077 6.7553 0.0000 -10684.2846 1412.9360 0.0000 0.0000 1779.1813 -7475.2275 302.4235 -9254.4089 -7475.8355 302.5949 -405.3059 -434.5524 30710.5183 -319.8094 -262.3256
ENERGY: 1200000 5.1317 5.6518 4.8929 0.0000 -10635.7869 1325.3095 0.0000 0.0000 1828.9591 -7465.8420 310.8847 -9294.8011 -7467.0088 303.1242 -975.6367 -880.5295 29897.9512 -236.4206 -169.6886
ENERGY: 1500000 4.1907 5.6810 3.8553 0.0000 -10771.6573 1489.6208 0.0000 0.0000 1817.0238 -7451.2856 308.8559 -9268.3094 -7458.9891 302.9247 -101.2872 -46.6654 31023.8968 -257.8603 -199.0707
TCL: Running FEP window  14: Lambda1 0.34999999999999964 Lambda2 0.29999999999999966 [dLambda -0.04999999999999999]
TCL: Setting parameter firsttimestep to 0
TCL: Setting parameter alchLambda to 0.34999999999999964
Info: NONBONDED TABLE R-SQUARED SPACING: 0.0625
Info: NONBONDED TABLE SIZE: 705 POINTS
TCL: Setting parameter alchLambda2 to 0.29999999999999966
Info: NONBONDED TABLE R-SQUARED SPACING: 0.0625
Info: NONBONDED TABLE SIZE: 705 POINTS
TCL: Running for 1500000 steps
ETITLE: TS BOND ANGLE DIHED IMPRP ELECT VDW BOUNDARY MISC KINETIC TOTAL TEMP POTENTIAL TOTALAVG TEMPAVG PRESSURE GPRESSURE VOLUME PRESSAVG GPRESSAVG
ENERGY: 0 4.1907 5.6810 3.8553 0.0000 -10771.6588 1490.0988 0.0000 0.0000 1816.1950 -7451.6381 308.7150 -9267.8330 -7451.6381 308.7150 -128.6956 -45.5183 31023.8968 -128.6956 -45.5183
ENERGY: 300000 5.4988 6.9860 4.9492 0.0000 -10559.1021 1277.4112 0.0000 0.0000 1664.1305 -7600.1264 282.8673 -9264.2569 -7518.4825 298.2528 -1477.2423 -1426.8953 30176.3092 -491.0104 -414.6757
ENERGY: 600000 2.7508 6.4601 7.4886 0.0000 -10608.5391 1359.3938 0.0000 0.0000 1697.0674 -7535.3784 288.4659 -9232.4458 -7513.9859 298.1287 -693.7495 -572.6625 30339.0495 -514.9316 -437.1657
ENERGY: 900000 1.5055 2.4852 6.2376 0.0000 -10915.5285 1586.5862 0.0000 0.0000 1761.7790 -7556.9350 299.4655 -9318.7140 -7509.4563 299.0372 659.9545 792.9705 30592.4874 -227.3994 -153.1269
ENERGY: 1200000 1.8855 4.7290 10.1143 0.0000 -10788.4197 1498.7683 0.0000 0.0000 1770.0147 -7502.9078 300.8654 -9272.9225 -7494.5122 299.6291 336.2798 386.8316 30310.5539 -206.1015 -129.3459
ENERGY: 1500000 2.7780 6.0092 5.3232 0.0000 -10625.9902 1377.5558 0.0000 0.0000 1730.6742 -7503.6498 294.1783 -9234.3240 -7487.2817 300.0839 -560.2557 -547.4400 30742.5697 -172.1091 -107.7962
TCL: Running FEP window  15: Lambda1 0.29999999999999966 Lambda2 0.24999999999999967 [dLambda -0.04999999999999999]
TCL: Setting parameter firsttimestep to 0
TCL: Setting parameter alchLambda to 0.29999999999999966
Info: NONBONDED TABLE R-SQUARED SPACING: 0.0625
Info: NONBONDED TABLE SIZE: 705 POINTS
TCL: Setting parameter alchLambda2 to 0.24999999999999967
Info: NONBONDED TABLE R-SQUARED SPACING: 0.0625
Info: NONBONDED TABLE SIZE: 705 POINTS
TCL: Running for 1500000 steps
ETITLE: TS BOND ANGLE DIHED IMPRP ELECT VDW BOUNDARY MISC KINETIC TOTAL TEMP POTENTIAL TOTALAVG TEMPAVG PRESSURE GPRESSURE VOLUME PRESSAVG GPRESSAVG
ENERGY: 0 2.7780 6.0092 5.3232 0.0000 -10625.9904 1376.8586 0.0000 0.0000 1729.7759 -7505.2454 294.0256 -9235.0213 -7505.2454 294.0256 -626.7409 -557.6745 30742.5697 -626.7409 -557.6745
ENERGY: 300000 3.4975 2.3395 6.2691 0.0000 -10661.1350 1443.9348 0.0000 0.0000 1773.2728 -7431.8213 301.4192 -9205.0941 -7499.1231 298.8934 342.7637 349.2951 30000.3227 227.1290 241.8265
ENERGY: 600000 5.2276 8.5503 4.0889 0.0000 -10702.2964 1388.9784 0.0000 0.0000 1757.2269 -7538.2243 298.6917 -9295.4512 -7507.0464 298.3211 -808.0775 -792.3545 30797.7212 83.1050 123.7379
ENERGY: 900000 2.6538 5.2370 8.9439 0.0000 -10760.0674 1434.7579 0.0000 0.0000 1755.4678 -7553.0070 298.3927 -9308.4749 -7513.0681 298.7390 -381.3650 -309.7235 30570.7218 66.5901 114.3033
ENERGY: 1200000 3.7422 6.8869 5.9447 0.0000 -10578.5975 1382.4155 0.0000 0.0000 1754.4401 -7425.1681 298.2180 -9179.6082 -7504.1898 299.7738 -261.6083 -203.6226 30302.8898 76.2199 125.6890
ENERGY: 1500000 3.6663 4.3897 3.5808 0.0000 -10758.3207 1499.5615 0.0000 0.0000 1754.8256 -7492.2969 298.2835 -9247.1225 -7492.1500 300.5315 858.1298 852.9237 29754.2178 112.8876 161.6087
TCL: Running FEP window  16: Lambda1 0.24999999999999967 Lambda2 0.19999999999999968 [dLambda -0.04999999999999999]
TCL: Setting parameter firsttimestep to 0
TCL: Setting parameter alchLambda to 0.24999999999999967
Info: NONBONDED TABLE R-SQUARED SPACING: 0.0625
Info: NONBONDED TABLE SIZE: 705 POINTS
TCL: Setting parameter alchLambda2 to 0.19999999999999968
Info: NONBONDED TABLE R-SQUARED SPACING: 0.0625
Info: NONBONDED TABLE SIZE: 705 POINTS
TCL: Running for 1500000 steps
ETITLE: TS BOND ANGLE DIHED IMPRP ELECT VDW BOUNDARY MISC KINETIC TOTAL TEMP POTENTIAL TOTALAVG TEMPAVG PRESSURE GPRESSURE VOLUME PRESSAVG GPRESSAVG
ENERGY: 0 3.6663 4.3897 3.5808 0.0000 -10758.3208 1499.7334 0.0000 0.0000 1753.9940 -7492.9567 298.1422 -9246.9507 -7492.9567 298.1422 771.9402 847.2824 29754.2178 771.9402 847.2824
ENERGY: 300000 4.6207 4.9935 5.7231 0.0000 -10724.7657 1432.1910 0.0000 0.0000 1753.8461 -7523.3913 298.1171 -9277.2374 -7502.3425 301.2451 -229.9480 -161.2106 30471.5241 171.4743 227.2847
ENERGY: 600000 1.7434 6.3289 6.1643 0.0000 -10822.1824 1516.9974 0.0000 0.0000 1782.0981 -7508.8502 302.9193 -9290.9484 -7517.3155 300.4944 749.1980 775.8043 29985.5503 254.0351 298.5220
ENERGY: 900000 3.5104 5.8853 6.3173 0.0000 -10662.1758 1415.8546 0.0000 0.0000 1767.6047 -7463.0035 300.4557 -9230.6082 -7504.1709 299.8529 -189.4192 -93.6957 30762.4935 131.2391 186.1473
ENERGY: 1200000 3.7146 5.8481 6.0436 0.0000 -10697.8070 1425.5707 0.0000 0.0000 1819.3204 -7437.3096 309.2463 -9256.6299 -7502.7536 300.6395 -57.5110 -30.0255 30167.7078 76.7287 132.6570
ENERGY: 1500000 2.1980 6.2753 5.6048 0.0000 -10768.4865 1444.8387 0.0000 0.0000 1736.7815 -7572.7882 295.2164 -9309.5697 -7510.6717 300.3451 92.0597 178.3693 29985.6511 41.1719 96.4392
TCL: Running FEP window  17: Lambda1 0.19999999999999968 Lambda2 0.1499999999999997 [dLambda -0.04999999999999999]
TCL: Setting parameter firsttimestep to 0
TCL: Setting parameter alchLambda to 0.19999999999999968
Info: NONBONDED TABLE R-SQUARED SPACING: 0.0625
Info: NONBONDED TABLE SIZE: 705 POINTS
TCL: Setting parameter alchLambda2 to 0.1499999999999997
Info: NONBONDED TABLE R-SQUARED SPACING: 0.0625
Info: NONBONDED TABLE SIZE: 705 POINTS
TCL: Running for 1500000 steps
ETITLE: TS BOND ANGLE DIHED IMPRP ELECT VDW BOUNDARY MISC KINETIC TOTAL TEMP POTENTIAL TOTALAVG TEMPAVG PRESSURE GPRESSURE VOLUME PRESSAVG GPRESSAVG
ENERGY: 0 2.1980 6.2753 5.6048 0.0000 -10768.4848 1444.5825 0.0000 0.0000 1735.9476 -7573.8766 295.0747 -9309.8243 -7573.8766 295.0747 88.0567 173.3149 29985.6511 88.0567 173.3149
ENERGY: 300000 2.1538 5.4829 4.6664 0.0000 -10682.6276 1388.7405 0.0000 0.0000 1812.6516 -7468.9324 308.1128 -9281.5841 -7472.5677 303.7373 -533.4787 -396.1764 30109.1768 -302.2015 -207.4287
ENERGY: 600000 1.5342 2.3569 5.4510 0.0000 -10736.7642 1493.2124 0.0000 0.0000 1747.9563 -7486.2533 297.1159 -9234.2097 -7485.6675 301.1569 253.9890 371.2401 30772.1304 -236.0439 -131.5017
ENERGY: 900000 2.9320 6.1191 6.2010 0.0000 -10727.2344 1437.4030 0.0000 0.0000 1756.4051 -7518.1741 298.5520 -9274.5792 -7489.0555 300.6071 -470.8438 -353.7766 30663.3169 -286.6555 -182.4316
ENERGY: 1200000 2.1697 7.8229 5.2939 0.0000 -10677.3416 1433.5377 0.0000 0.0000 1779.8854 -7448.6318 302.5432 -9228.5172 -7476.7429 301.0726 -22.5906 93.9367 30310.3961 -291.8838 -191.3991
ENERGY: 1500000 2.9539 4.8488 5.8110 0.0000 -10640.3351 1397.9483 0.0000 0.0000 1792.7776 -7435.9955 304.7346 -9228.7731 -7482.5471 301.1465 -447.2010 -337.3586 30396.8478 -231.6295 -131.1994
TCL: Running FEP window  18: Lambda1 0.1499999999999997 Lambda2 0.09999999999999969 [dLambda -0.05 ]
TCL: Setting parameter firsttimestep to 0
TCL: Setting parameter alchLambda to 0.1499999999999997
Info: NONBONDED TABLE R-SQUARED SPACING: 0.0625
Info: NONBONDED TABLE SIZE: 705 POINTS
TCL: Setting parameter alchLambda2 to 0.09999999999999969
Info: NONBONDED TABLE R-SQUARED SPACING: 0.0625
Info: NONBONDED TABLE SIZE: 705 POINTS
TCL: Running for 1500000 steps
ETITLE: TS BOND ANGLE DIHED IMPRP ELECT VDW BOUNDARY MISC KINETIC TOTAL TEMP POTENTIAL TOTALAVG TEMPAVG PRESSURE GPRESSURE VOLUME PRESSAVG GPRESSAVG
ENERGY: 0 2.9539 4.8488 5.8110 0.0000 -10640.3341 1396.7559 0.0000 0.0000 1791.8976 -7438.0670 304.5850 -9229.9646 -7438.0670 304.5850 -432.4582 -345.1630 30396.8478 -432.4582 -345.1630
ENERGY: 300000 1.9684 2.5840 6.4396 0.0000 -10874.6248 1541.3575 0.0000 0.0000 1780.6705 -7541.6048 302.6766 -9322.2754 -7482.9945 302.3149 919.1863 993.6933 29748.9096 140.0651 216.1495
ENERGY: 600000 1.5597 6.9242 5.8640 0.0000 -10706.4458 1450.6312 0.0000 0.0000 1750.6119 -7490.8549 297.5673 -9241.4668 -7495.1955 300.9290 -64.3429 -21.8379 30414.6463 -19.3222 57.3228
ENERGY: 900000 1.0362 3.6147 4.9585 0.0000 -10676.7564 1395.0279 0.0000 0.0000 1750.6092 -7521.5099 297.5668 -9272.1191 -7489.6303 301.0911 -391.1303 -309.6689 30110.1514 -95.7799 -23.3385
ENERGY: 1200000 5.0159 3.0205 9.6618 0.0000 -10727.5977 1485.5754 0.0000 0.0000 1764.4181 -7459.9060 299.9141 -9224.3241 -7490.0795 301.2582 0.6590 47.2859 30661.1530 -155.2237 -85.5336
ENERGY: 1500000 3.6221 6.1315 7.0664 0.0000 -10725.9759 1404.0744 0.0000 0.0000 1777.9042 -7527.1773 302.2064 -9305.0815 -7489.8004 300.8497 -501.2363 -399.2905 30287.5022 -159.1444 -84.0726
TCL: Running FEP window  19: Lambda1 0.09999999999999969 Lambda2 0.049999999999999684 [dLambda -0.05 ]
TCL: Setting parameter firsttimestep to 0
TCL: Setting parameter alchLambda to 0.09999999999999969
Info: NONBONDED TABLE R-SQUARED SPACING: 0.0625
Info: NONBONDED TABLE SIZE: 705 POINTS
TCL: Setting parameter alchLambda2 to 0.049999999999999684
Info: NONBONDED TABLE R-SQUARED SPACING: 0.0625
Info: NONBONDED TABLE SIZE: 705 POINTS
TCL: Running for 1500000 steps
ETITLE: TS BOND ANGLE DIHED IMPRP ELECT VDW BOUNDARY MISC KINETIC TOTAL TEMP POTENTIAL TOTALAVG TEMPAVG PRESSURE GPRESSURE VOLUME PRESSAVG GPRESSAVG
ENERGY: 0 3.6221 6.1315 7.0664 0.0000 -10725.9744 1403.9932 0.0000 0.0000 1777.0119 -7528.1494 302.0547 -9305.1612 -7528.1494 302.0547 -505.2303 -402.2195 30287.5022 -505.2303 -402.2195
ENERGY: 300000 0.9601 6.5254 7.2234 0.0000 -10671.1706 1442.8428 0.0000 0.0000 1773.0970 -7440.5220 301.3893 -9213.6190 -7480.3255 299.0885 307.3585 404.6827 29841.2146 -252.4417 -176.9168
ENERGY: 600000 2.0499 6.9668 5.3569 0.0000 -10594.3583 1345.2303 0.0000 0.0000 1757.2333 -7477.5211 298.6928 -9234.7544 -7457.1798 301.6326 -750.6109 -731.2071 30818.4826 -254.1657 -199.6652
ENERGY: 900000 0.9647 7.6751 3.6393 0.0000 -10598.2123 1378.6621 0.0000 0.0000 1794.8993 -7412.3719 305.0952 -9207.2712 -7457.5932 301.6989 -135.9744 -78.8968 30044.4414 -254.2820 -205.7211
ENERGY: 1200000 5.3015 3.1767 6.2478 0.0000 -10706.3203 1438.4311 0.0000 0.0000 1743.6684 -7509.4947 296.3871 -9253.1632 -7467.5390 301.0967 -10.9689 83.9525 30087.7666 -211.1486 -160.5613
ENERGY: 1500000 2.9326 6.3214 4.6258 0.0000 -10848.0848 1509.6336 0.0000 0.0000 1752.1732 -7572.3981 297.8327 -9324.5714 -7479.4735 300.8193 87.7304 120.2225 30570.7401 -122.6047 -68.3008
TCL: Running FEP window  20: Lambda1 0.049999999999999684 Lambda2 0.0    [dLambda -0.049999999999999684]
TCL: Setting parameter firsttimestep to 0
TCL: Setting parameter alchLambda to 0.049999999999999684
Info: NONBONDED TABLE R-SQUARED SPACING: 0.0625
Info: NONBONDED TABLE SIZE: 705 POINTS
TCL: Setting parameter alchLambda2 to 0.0
Info: NONBONDED TABLE R-SQUARED SPACING: 0.0625
Info: NONBONDED TABLE SIZE: 705 POINTS
TCL: Running for 1500000 steps
ETITLE: TS BOND ANGLE DIHED IMPRP ELECT VDW BOUNDARY MISC KINETIC TOTAL TEMP POTENTIAL TOTALAVG TEMPAVG PRESSURE GPRESSURE VOLUME PRESSAVG GPRESSAVG
ENERGY: 0 2.9326 6.3214 4.6258 0.0000 -10848.0846 1509.3183 0.0000 0.0000 1751.2970 -7573.5895 297.6838 -9324.8866 -7573.5895 297.6838 42.7551 114.8220 30570.7401 42.7551 114.8220
ENERGY: 300000 9.9885 3.8894 5.0378 0.0000 -10706.9912 1456.8048 0.0000 0.0000 1776.7978 -7454.4728 302.0184 -9231.2707 -7502.6353 295.7300 -195.2503 -86.2417 30223.0498 -40.6770 26.5657
ENERGY: 600000 4.3630 4.0473 4.5483 0.0000 -10763.0123 1472.4730 0.0000 0.0000 1738.2871 -7539.2937 295.4723 -9277.5807 -7493.6912 297.8919 254.8593 373.2584 29819.7335 150.5720 217.8358
ENERGY: 900000 6.4516 6.6396 4.5891 0.0000 -10676.7887 1450.5586 0.0000 0.0000 1768.8695 -7439.6804 300.6707 -9208.5499 -7486.5132 298.8359 -183.9726 -151.6230 30871.6217 128.0284 188.1928
ENERGY: 1200000 2.0614 7.7184 4.6489 0.0000 -10629.9071 1404.4137 0.0000 0.0000 1790.8502 -7420.2144 304.4070 -9211.0646 -7472.4562 299.3010 -325.6138 -258.2938 30418.6248 70.9272 132.6113
ENERGY: 1500000 7.0435 5.1393 5.3763 0.0000 -10653.3126 1424.9559 0.0000 0.0000 1763.8377 -7446.9599 299.8154 -9210.7976 -7464.1552 299.8730 -125.2114 -95.5085 30277.0249 0.9596 58.8631
TCL: Exiting due to exit command.
