Info: SIMULATION PARAMETERS:
Info: TIMESTEP               2
Info: NUMBER OF STEPS        0
Info: STEPS PER CYCLE        10
Info: PERIODIC CELL BASIS 1  29.3431 0 0
Info: PERIODIC CELL BASIS 2  0 31.53 0
Info: PERIODIC CELL BASIS 3  0 0 33.1184
Info: PERIODIC CELL CENTER   0 0 0
Info: WRAPPING WATERS AROUND PERIODIC BOUNDARIES ON OUTPUT.
Info: WRAPPING ALL CLUSTERS AROUND PERIODIC BOUNDARIES ON OUTPUT.
Info: FIRST LDB TIMESTEP     50
Info: LAST LDB TIMESTEP     -1
Info: HOM BACKGROUND SCALING 1
Info: PME BACKGROUND SCALING 1
Info: MIN ATOMS PER PATCH    40
Info: EMPTY PATCH LOAD       40 ATOMS
Info: VELOCITY FILE          mobley_4893032_equil.vel
Info: CENTER OF MASS MOVING INITIALLY? NO
Info: DIELECTRIC             1
Info: EXCLUDE                SCALED ONE-FOUR
Info: 1-4 ELECTROSTATICS SCALED BY 0.833333
Info: MODIFIED 1-4 VDW PARAMETERS WILL BE USED
Info: DCD FILENAME           mobley_4893032_prod.dcd
Info: DCD FREQUENCY          100000
Info: DCD FIRST STEP         100000
Info: DCD FILE WILL CONTAIN UNIT CELL DATA
Info: XST FILENAME           mobley_4893032_prod.xst
Info: XST FREQUENCY          100000
Info: NO VELOCITY DCD OUTPUT
Info: NO FORCE DCD OUTPUT
Info: OUTPUT FILENAME        mobley_4893032_prod
Info: BINARY OUTPUT FILES WILL BE USED
Info: RESTART FILENAME       mobley_4893032_prod.restart
Info: RESTART FREQUENCY      100000
Info: BINARY RESTART FILES WILL BE USED
Info: CUTOFF                 9
Info: PAIRLIST DISTANCE      11
Info: PAIRLIST SHRINK RATE   0.01
Info: PAIRLIST GROW RATE     0.01
Info: PAIRLIST TRIGGER       0.3
Info: PAIRLISTS PER CYCLE    2
Info: PAIRLISTS ENABLED
Info: MARGIN                 2
Info: HYDROGEN GROUP CUTOFF  2.5
Info: PATCH DIMENSION        15.5
Info: ENERGY OUTPUT STEPS    100000
Info: ENERGY EVALUATION STEPS    100000
Info: OUTPUT ENERGY PRECISION 4
Info: CROSSTERM ENERGY INCLUDED IN DIHEDRAL
Info: TIMING OUTPUT STEPS    1000000
Info: PRESSURE OUTPUT STEPS  100000
Info: ALCHEMICAL FEP ON
Info: FEP CURRENT LAMBDA VALUE     1
Info: FEP COMPARISON LAMBDA VALUE  0.95
Info: FEP INTRA-ALCHEMICAL NON-BONDED INTERACTIONS WILL BE RETAINED
Info: FEP INTRA-ALCHEMICAL BONDED INTERACTIONS WILL BE RETAINED
Info: FEP VDW SHIFTING COEFFICIENT 5
Info: FEP ELEC. ACTIVE FOR ANNIHILATED PARTICLES BETWEEN LAMBDA = 0 AND LAMBDA = 0.5
Info: FEP ELEC. ACTIVE FOR EXNIHILATED PARTICLES BETWEEN LAMBDA = 0.5 AND LAMBDA = 1
Info: FEP VDW ACTIVE FOR ANNIHILATED PARTICLES BETWEEN LAMBDA = 0 AND LAMBDA = 1
Info: FEP VDW ACTIVE FOR EXNIHILATED PARTICLES BETWEEN LAMBDA = 0 AND LAMBDA = 1
Info: FEP BOND ACTIVE FOR ANNIHILATED PARTICLES BETWEEN LAMBDA = 1 AND LAMBDA = 1
Info: FEP BOND ACTIVE FOR EXNIHILATED PARTICLES BETWEEN LAMBDA = 0 AND LAMBDA = 0
Info: LANGEVIN DYNAMICS ACTIVE
Info: LANGEVIN TEMPERATURE   300
Info: LANGEVIN USING BBK INTEGRATOR
Info: LANGEVIN DAMPING COEFFICIENT IS 1 INVERSE PS
Info: LANGEVIN DYNAMICS APPLIED TO HYDROGENS
Info: LANGEVIN PISTON PRESSURE CONTROL ACTIVE
Info:        TARGET PRESSURE IS 1.01325 BAR
Info:     OSCILLATION PERIOD IS 50 FS
Info:             DECAY TIME IS 25 FS
Info:     PISTON TEMPERATURE IS 300 K
Info:       PRESSURE CONTROL IS GROUP-BASED
Info:    INITIAL STRAIN RATE IS 0.00035064 0.00035064 0.00035064
Info:       CELL FLUCTUATION IS ISOTROPIC
Info: PARTICLE MESH EWALD (PME) ACTIVE
Info: PME TOLERANCE               1e-06
Info: PME EWALD COEFFICIENT       0.348832
Info: PME INTERPOLATION ORDER     4
Info: PME GRID DIMENSIONS         32 32 36
Info: PME MAXIMUM GRID SPACING    1
Info: PME CALCULATION WILL BE PERFORMED ON GPU
Info: FULL ELECTROSTATIC EVALUATION FREQUENCY      2
Info: USING VERLET I (r-RESPA) MTS SCHEME.
Info: C1 SPLITTING OF LONG RANGE ELECTROSTATICS
Info: PLACING ATOMS IN PATCHES BY HYDROGEN GROUPS
Info: RIGID BONDS TO HYDROGEN : ALL
Info:         ERROR TOLERANCE : 1e-08
Info:          MAX ITERATIONS : 100
Info: RIGID WATER USING SETTLE ALGORITHM
Info: RANDOM NUMBER SEED     1743852824
Info: USE HYDROGEN BONDS?    NO
Info: Using AMBER format force field!
Info: AMBER PARM FILE        mobley_4893032.prmtop
Info: COORDINATE PDB         mobley_4893032.pdb
Info: Exclusions will be read from PARM file!
Info: SCNB (VDW SCALING)     2
Info: USING ARITHMETIC MEAN TO COMBINE L-J SIGMA PARAMETERS
Info: BINARY COORDINATES     mobley_4893032_equil.coor
Info: SUMMARY OF PARAMETERS:
Info: 6 BONDS
Info: 6 ANGLES
Info:   6 HARMONIC
Info:   0 COSINE-BASED
Info: 7 DIHEDRAL
Info: 0 IMPROPER
Info: 0 CROSSTERM
Info: 0 VDW
Info: 21 VDW_PAIRS
Info: 0 NBTHOLE_PAIRS
Info: To read alchdata from file: mobley_4893032.pdb
Info: To read alchflag data from column: 5
Info: STRUCTURE SUMMARY:
Info: 2979 ATOMS
Info: 2978 BONDS
Info: 25 ANGLES
Info: 32 DIHEDRALS
Info: 0 IMPROPERS
Info: 0 CROSSTERMS
Info: 3033 EXCLUSIONS
Info: 2973 RIGID BONDS
Info: ALCH: 0 ATOMS TO DISAPPEAR IN FINAL STATE
Info: ALCH: 15 ATOMS TO APPEAR IN FINAL STATE
Info: 5964 DEGREES OF FREEDOM
Info: 994 HYDROGEN GROUPS
Info: 4 ATOMS IN LARGEST HYDROGEN GROUP
Info: 994 MIGRATION GROUPS
Info: 4 ATOMS IN LARGEST MIGRATION GROUP
Info: TOTAL MASS = 17882.9 amu
Info: TOTAL CHARGE = -0.000300003 e
Info: MASS DENSITY = 0.969165 g/cm^3
Info: ATOM DENSITY = 0.0972233 atoms/A^3
Info: ADDED 0 IMPLICIT EXCLUSIONS
Info: NONBONDED TABLE R-SQUARED SPACING: 0.0625
Info: NONBONDED TABLE SIZE: 705 POINTS
Info: REMOVING COM VELOCITY -0.0964321 -0.0375282 -0.0302691
Info: Use 3D box decompostion in PME FFT.
Info: Updated CUDA force table with 4096 elements.
Info: Updated CUDA LJ table with 6 x 6 elements.
Info: Found 17 unique exclusion lists needing 40 bytes
TCL: Running for 1500000 steps
ETITLE: TS BOND ANGLE DIHED IMPRP ELECT VDW BOUNDARY MISC KINETIC TOTAL TEMP POTENTIAL TOTALAVG TEMPAVG PRESSURE GPRESSURE VOLUME PRESSAVG GPRESSAVG
ENERGY: 0 1.4936 8.3789 0.6434 0.0000 -10684.3501 1368.2805 0.0000 0.0000 1771.8151 -7533.7386 299.0000 -9305.5536 -7533.7386 299.0000 -513.8362 -428.7463 30640.8117 -513.8362 -428.7463
ENERGY: 300000 0.9651 10.6422 2.1574 0.0000 -10721.2484 1455.2284 0.0000 0.0000 1835.3713 -7416.8840 309.7253 -9252.2553 -7496.3036 303.0154 431.4787 497.2546 30408.1904 29.3905 98.2323
ENERGY: 600000 0.4961 5.0023 1.9517 0.0000 -10907.4844 1506.9188 0.0000 0.0000 1807.2464 -7585.8692 304.9791 -9393.1156 -7527.6271 303.1472 251.2244 299.4967 30694.2676 94.8615 155.5674
ENERGY: 900000 1.2461 6.5366 1.4143 0.0000 -10791.6545 1427.2926 0.0000 0.0000 1771.8010 -7583.3639 298.9976 -9355.1649 -7544.3561 302.3528 -279.4881 -211.6434 30972.0328 23.5588 87.0713
ENERGY: 1200000 1.9575 11.3156 1.8624 0.0000 -10847.2204 1468.7296 0.0000 0.0000 1806.9734 -7556.3819 304.9331 -9363.3553 -7556.9573 301.8969 -113.6441 -63.0231 31035.7684 17.2308 77.7263
ENERGY: 1500000 1.6799 6.1901 2.2073 0.0000 -10896.9933 1522.2062 0.0000 0.0000 1805.0869 -7559.6230 304.6147 -9364.7098 -7557.9816 301.4301 520.6923 563.1073 30725.8751 109.0366 164.9690
TCL: Running FEP window   2: Lambda1 0.95   Lambda2 0.8999999999999999 [dLambda -0.050000000000000044]
TCL: Setting parameter firsttimestep to 0
TCL: Setting parameter alchLambda to 0.95
Info: NONBONDED TABLE R-SQUARED SPACING: 0.0625
Info: NONBONDED TABLE SIZE: 705 POINTS
TCL: Setting parameter alchLambda2 to 0.8999999999999999
Info: NONBONDED TABLE R-SQUARED SPACING: 0.0625
Info: NONBONDED TABLE SIZE: 705 POINTS
TCL: Running for 1500000 steps
ETITLE: TS BOND ANGLE DIHED IMPRP ELECT VDW BOUNDARY MISC KINETIC TOTAL TEMP POTENTIAL TOTALAVG TEMPAVG PRESSURE GPRESSURE VOLUME PRESSAVG GPRESSAVG
ENERGY: 0 1.6799 6.1901 2.2073 0.0000 -10896.3002 1522.7649 0.0000 0.0000 1804.1940 -7559.2640 304.4640 -9363.4580 -7559.2640 304.4640 481.1300 562.7489 30725.8751 481.1300 562.7489
ENERGY: 300000 0.2283 4.4622 0.7748 0.0000 -10792.9353 1406.2591 0.0000 0.0000 1812.0392 -7569.1717 305.7879 -9381.2109 -7592.0215 300.5407 -205.5658 -132.3744 30212.4974 -85.0592 -1.7642
ENERGY: 600000 2.4651 6.3950 2.5122 0.0000 -10928.9397 1578.0528 0.0000 0.0000 1867.2647 -7472.2498 315.1074 -9339.5145 -7548.6353 302.8935 851.9473 954.8817 30631.7157 152.1987 228.7310
ENERGY: 900000 1.6498 6.8755 1.9635 0.0000 -10761.3413 1417.4445 0.0000 0.0000 1765.3574 -7568.0506 297.9102 -9333.4080 -7555.6332 302.1687 -248.2992 -146.5170 30597.2945 104.2077 173.6777
ENERGY: 1200000 3.6095 9.5504 0.7048 0.0000 -10741.9717 1363.6355 0.0000 0.0000 1766.1471 -7598.3244 298.0435 -9364.4715 -7557.7528 301.6095 -1042.4089 -994.2540 31127.2617 -46.7279 16.9794
ENERGY: 1500000 0.8542 6.8709 1.3375 0.0000 -10839.5870 1469.1078 0.0000 0.0000 1800.3682 -7561.0484 303.8184 -9361.4166 -7554.0268 301.2112 310.6905 430.5791 30156.7376 -69.6066 -2.8975
TCL: Running FEP window   3: Lambda1 0.8999999999999999 Lambda2 0.8499999999999999 [dLambda -0.050000000000000044]
TCL: Setting parameter firsttimestep to 0
TCL: Setting parameter alchLambda to 0.8999999999999999
Info: NONBONDED TABLE R-SQUARED SPACING: 0.0625
Info: NONBONDED TABLE SIZE: 705 POINTS
TCL: Setting parameter alchLambda2 to 0.8499999999999999
Info: NONBONDED TABLE R-SQUARED SPACING: 0.0625
Info: NONBONDED TABLE SIZE: 705 POINTS
TCL: Running for 1500000 steps
ETITLE: TS BOND ANGLE DIHED IMPRP ELECT VDW BOUNDARY MISC KINETIC TOTAL TEMP POTENTIAL TOTALAVG TEMPAVG PRESSURE GPRESSURE VOLUME PRESSAVG GPRESSAVG
ENERGY: 0 0.8542 6.8708 1.3375 0.0000 -10838.9962 1469.5789 0.0000 0.0000 1799.4752 -7560.8796 303.6677 -9360.3549 -7560.8796 303.6677 344.8633 427.4810 30156.7376 344.8633 427.4810
ENERGY: 300000 1.0545 7.4049 1.1805 0.0000 -10695.7578 1397.1475 0.0000 0.0000 1782.9116 -7506.0589 300.8726 -9288.9705 -7586.0754 297.9590 -243.1333 -209.9058 30983.4092 -28.7944 20.6003
ENERGY: 600000 1.1551 5.4704 0.8707 0.0000 -10828.0868 1473.2303 0.0000 0.0000 1802.6401 -7544.7202 304.2018 -9347.3603 -7569.5301 299.2720 50.6002 130.6737 30953.7831 171.5942 231.8814
ENERGY: 900000 1.6146 6.6097 1.7287 0.0000 -10765.1787 1467.8847 0.0000 0.0000 1817.4454 -7469.8957 306.7002 -9287.3411 -7560.4756 300.9803 442.8903 428.1925 30398.4852 125.2808 181.6027
ENERGY: 1200000 0.8479 7.7379 0.9077 0.0000 -10830.6833 1415.4635 0.0000 0.0000 1766.2776 -7639.4487 298.0655 -9405.7262 -7572.5043 300.6270 -405.8307 -374.7287 30609.3895 100.3006 156.4209
ENERGY: 1500000 0.6295 5.2409 1.0847 0.0000 -10900.3498 1465.8567 0.0000 0.0000 1846.0288 -7581.5092 311.5238 -9427.5380 -7568.9819 302.7859 -66.4066 -20.7937 30484.1592 32.4027 85.8579
TCL: Running FEP window   4: Lambda1 0.8499999999999999 Lambda2 0.7999999999999998 [dLambda -0.050000000000000044]
TCL: Setting parameter firsttimestep to 0
TCL: Setting parameter alchLambda to 0.8499999999999999
Info: NONBONDED TABLE R-SQUARED SPACING: 0.0625
Info: NONBONDED TABLE SIZE: 705 POINTS
TCL: Setting parameter alchLambda2 to 0.7999999999999998
Info: NONBONDED TABLE R-SQUARED SPACING: 0.0625
Info: NONBONDED TABLE SIZE: 705 POINTS
TCL: Running for 1500000 steps
ETITLE: TS BOND ANGLE DIHED IMPRP ELECT VDW BOUNDARY MISC KINETIC TOTAL TEMP POTENTIAL TOTALAVG TEMPAVG PRESSURE GPRESSURE VOLUME PRESSAVG GPRESSAVG
ENERGY: 0 0.6295 5.2409 1.0847 0.0000 -10900.3516 1465.7029 0.0000 0.0000 1845.1676 -7582.5259 311.3785 -9427.6935 -7582.5259 311.3785 -111.9643 -35.8251 30484.1592 -111.9643 -35.8251
ENERGY: 300000 2.4832 4.1551 1.1371 0.0000 -10809.1511 1463.2057 0.0000 0.0000 1812.3067 -7525.8633 305.8331 -9338.1700 -7536.3452 305.1341 36.6354 119.2439 30823.6341 34.5507 108.4490
ENERGY: 600000 2.2792 6.2247 1.6142 0.0000 -10742.8007 1350.2162 0.0000 0.0000 1847.7239 -7534.7425 311.8099 -9382.4664 -7508.9382 305.7917 -845.7642 -823.6252 30882.7950 -68.4702 8.8035
ENERGY: 900000 1.0188 5.3949 1.7103 0.0000 -10688.5223 1376.2068 0.0000 0.0000 1754.0545 -7550.1371 296.0028 -9304.1915 -7530.1290 303.3079 -429.2429 -344.1721 30473.2827 -70.9780 3.6895
ENERGY: 1200000 2.0440 11.4051 2.9621 0.0000 -10764.1591 1425.4162 0.0000 0.0000 1819.1181 -7503.2137 306.9825 -9322.3318 -7532.9391 303.3345 -82.0952 -86.5887 30773.9644 -122.2268 -58.7679
ENERGY: 1500000 3.4196 8.7208 2.1802 0.0000 -10623.8295 1353.4993 0.0000 0.0000 1817.3648 -7438.6448 306.6866 -9256.0096 -7536.5839 302.6123 -932.1788 -847.0596 31088.3369 -185.1466 -124.4489
TCL: Running FEP window   5: Lambda1 0.7999999999999998 Lambda2 0.7499999999999998 [dLambda -0.050000000000000044]
TCL: Setting parameter firsttimestep to 0
TCL: Setting parameter alchLambda to 0.7999999999999998
Info: NONBONDED TABLE R-SQUARED SPACING: 0.0625
Info: NONBONDED TABLE SIZE: 705 POINTS
TCL: Setting parameter alchLambda2 to 0.7499999999999998
Info: NONBONDED TABLE R-SQUARED SPACING: 0.0625
Info: NONBONDED TABLE SIZE: 705 POINTS
TCL: Running for 1500000 steps
ETITLE: TS BOND ANGLE DIHED IMPRP ELECT VDW BOUNDARY MISC KINETIC TOTAL TEMP POTENTIAL TOTALAVG TEMPAVG PRESSURE GPRESSURE VOLUME PRESSAVG GPRESSAVG
ENERGY: 0 3.4196 8.7208 2.1802 0.0000 -10622.9918 1353.7339 0.0000 0.0000 1816.4864 -7438.4509 306.5384 -9254.9373 -7438.4509 306.5384 -939.4074 -854.6703 31088.3369 -939.4074 -854.6703
ENERGY: 300000 1.2143 3.2798 0.7527 0.0000 -10699.2261 1380.9615 0.0000 0.0000 1789.1339 -7523.8840 301.9226 -9313.0179 -7535.2358 303.0305 -483.5271 -406.4791 30947.4026 -550.5342 -475.1915
ENERGY: 600000 5.1553 4.3291 0.8529 0.0000 -10852.9133 1501.8608 0.0000 0.0000 1731.5538 -7609.1614 292.2057 -9340.7152 -7549.8574 300.8451 401.2726 523.0391 30621.0019 -316.1185 -234.2223
ENERGY: 900000 3.2904 6.0804 1.5596 0.0000 -10670.6926 1359.4695 0.0000 0.0000 1789.1619 -7511.1310 301.9273 -9300.2929 -7561.0556 300.0083 -769.3554 -701.7186 30726.1939 -277.4114 -201.3628
ENERGY: 1200000 1.2593 5.2695 0.8023 0.0000 -10706.1788 1375.8919 0.0000 0.0000 1821.9228 -7501.0329 307.4558 -9322.9558 -7558.4005 300.2605 -531.9241 -447.1280 30765.4848 -283.8768 -215.1602
ENERGY: 1500000 1.5574 6.4258 1.2650 0.0000 -10645.0384 1368.4781 0.0000 0.0000 1796.1929 -7471.1192 303.1138 -9267.3121 -7548.6668 300.2296 -458.4412 -394.6983 30703.4339 -265.0965 -199.6516
TCL: Running FEP window   6: Lambda1 0.7499999999999998 Lambda2 0.6999999999999997 [dLambda -0.050000000000000044]
TCL: Setting parameter firsttimestep to 0
TCL: Setting parameter alchLambda to 0.7499999999999998
Info: NONBONDED TABLE R-SQUARED SPACING: 0.0625
Info: NONBONDED TABLE SIZE: 705 POINTS
TCL: Setting parameter alchLambda2 to 0.6999999999999997
Info: NONBONDED TABLE R-SQUARED SPACING: 0.0625
Info: NONBONDED TABLE SIZE: 705 POINTS
TCL: Running for 1500000 steps
ETITLE: TS BOND ANGLE DIHED IMPRP ELECT VDW BOUNDARY MISC KINETIC TOTAL TEMP POTENTIAL TOTALAVG TEMPAVG PRESSURE GPRESSURE VOLUME PRESSAVG GPRESSAVG
ENERGY: 0 1.5574 6.4258 1.2650 0.0000 -10644.3185 1368.9209 0.0000 0.0000 1795.2517 -7470.8976 302.9550 -9266.1494 -7470.8976 302.9550 -470.0512 -395.2365 30703.4339 -470.0512 -395.2365
ENERGY: 300000 1.1252 9.5204 1.2432 0.0000 -10604.0380 1335.9872 0.0000 0.0000 1814.7163 -7441.4457 306.2397 -9256.1620 -7513.6855 301.3095 -643.6170 -508.6943 30416.2414 -515.9862 -448.9049
ENERGY: 600000 1.6389 5.4825 1.6954 0.0000 -11019.0855 1613.2078 0.0000 0.0000 1741.1136 -7655.9474 293.8190 -9397.0610 -7541.1865 300.6665 1093.4742 1147.0935 30466.4223 -220.1427 -165.3775
ENERGY: 900000 3.7609 6.6851 1.8065 0.0000 -10617.7702 1357.6082 0.0000 0.0000 1764.8313 -7483.0782 297.8214 -9247.9095 -7532.8679 300.1688 -388.7911 -342.1639 30688.3793 -166.4705 -116.6896
ENERGY: 1200000 1.3000 8.6890 0.7193 0.0000 -10726.2927 1443.7617 0.0000 0.0000 1759.3297 -7512.4929 296.8930 -9271.8226 -7538.5398 299.7780 310.3707 347.6271 30552.0125 -105.4869 -55.7724
ENERGY: 1500000 1.5760 6.0491 1.4209 0.0000 -10902.2474 1518.8433 0.0000 0.0000 1824.8932 -7549.4650 307.9571 -9374.3582 -7536.7532 300.4284 718.0168 771.7289 30186.2680 -52.8218 -5.5512
TCL: Running FEP window   7: Lambda1 0.6999999999999997 Lambda2 0.6499999999999997 [dLambda -0.050000000000000044]
TCL: Setting parameter firsttimestep to 0
TCL: Setting parameter alchLambda to 0.6999999999999997
Info: NONBONDED TABLE R-SQUARED SPACING: 0.0625
Info: NONBONDED TABLE SIZE: 705 POINTS
TCL: Setting parameter alchLambda2 to 0.6499999999999997
Info: NONBONDED TABLE R-SQUARED SPACING: 0.0625
Info: NONBONDED TABLE SIZE: 705 POINTS
TCL: Running for 1500000 steps
ETITLE: TS BOND ANGLE DIHED IMPRP ELECT VDW BOUNDARY MISC KINETIC TOTAL TEMP POTENTIAL TOTALAVG TEMPAVG PRESSURE GPRESSURE VOLUME PRESSAVG GPRESSAVG
ENERGY: 0 1.5760 6.0491 1.4209 0.0000 -10901.7900 1519.2698 0.0000 0.0000 1824.0117 -7549.4626 307.8083 -9373.4743 -7549.4626 307.8083 687.4854 767.7229 30186.2680 687.4854 767.7229
ENERGY: 300000 0.8933 9.9864 1.4585 0.0000 -10671.8829 1411.4369 0.0000 0.0000 1699.3650 -7548.7427 286.7738 -9248.1077 -7545.1663 300.3510 -106.9553 -41.3913 30726.1631 276.8750 329.5867
ENERGY: 600000 0.7405 3.6515 0.7152 0.0000 -10694.3861 1395.1281 0.0000 0.0000 1701.1137 -7593.0372 287.0689 -9294.1509 -7549.9214 300.5254 -608.1306 -533.2550 31258.6072 -101.1899 -23.8132
ENERGY: 900000 1.4779 5.0766 1.6819 0.0000 -10777.1655 1446.2376 0.0000 0.0000 1775.8232 -7546.8682 299.6764 -9322.6915 -7545.7164 300.5584 69.5342 82.6614 30295.9695 -50.6537 16.2499
ENERGY: 1200000 1.5986 7.3595 1.7280 0.0000 -10685.9930 1450.5102 0.0000 0.0000 1797.6333 -7427.1634 303.3569 -9224.7967 -7535.9711 301.1076 171.5374 179.1872 30826.5814 -127.7293 -68.1448
ENERGY: 1500000 0.9946 6.2157 1.1296 0.0000 -10694.9960 1351.5628 0.0000 0.0000 1791.0420 -7544.0514 302.2446 -9335.0933 -7538.0840 300.8731 -674.1335 -603.2626 30506.6782 -194.5115 -133.8448
TCL: Running FEP window   8: Lambda1 0.6499999999999997 Lambda2 0.5999999999999996 [dLambda -0.050000000000000044]
TCL: Setting parameter firsttimestep to 0
TCL: Setting parameter alchLambda to 0.6499999999999997
Info: NONBONDED TABLE R-SQUARED SPACING: 0.0625
Info: NONBONDED TABLE SIZE: 705 POINTS
TCL: Setting parameter alchLambda2 to 0.5999999999999996
Info: NONBONDED TABLE R-SQUARED SPACING: 0.0625
Info: NONBONDED TABLE SIZE: 705 POINTS
TCL: Running for 1500000 steps
ETITLE: TS BOND ANGLE DIHED IMPRP ELECT VDW BOUNDARY MISC KINETIC TOTAL TEMP POTENTIAL TOTALAVG TEMPAVG PRESSURE GPRESSURE VOLUME PRESSAVG GPRESSAVG
ENERGY: 0 0.9946 6.2157 1.1296 0.0000 -10694.5916 1351.6433 0.0000 0.0000 1790.2015 -7544.4069 302.1027 -9334.6085 -7544.4069 302.1027 -711.9033 -613.5368 30506.6782 -711.9033 -613.5368
ENERGY: 300000 0.8490 5.0661 0.8669 0.0000 -10923.3383 1461.1605 0.0000 0.0000 1810.7531 -7644.6426 305.5709 -9455.3958 -7599.5953 304.5621 -4.6045 9.9523 30402.6077 -104.7025 -53.1802
ENERGY: 600000 3.0906 5.3547 1.4721 0.0000 -10772.5740 1497.9642 0.0000 0.0000 1854.2430 -7410.4493 312.9100 -9264.6923 -7552.6383 303.4826 543.7393 561.3274 30964.1996 151.8840 199.0128
ENERGY: 900000 1.8872 15.5061 1.7117 0.0000 -10732.7844 1464.8874 0.0000 0.0000 1788.7034 -7460.0886 301.8499 -9248.7920 -7538.7810 303.1584 212.8701 280.1317 30613.9034 86.1391 135.9131
ENERGY: 1200000 4.7515 6.4524 1.1155 0.0000 -10761.4370 1415.6983 0.0000 0.0000 1764.6635 -7568.7556 297.7931 -9333.4191 -7548.8891 301.2624 -466.3903 -373.1771 30711.6144 -24.6736 28.2582
ENERGY: 1500000 1.4853 7.1395 1.0532 0.0000 -10731.1935 1365.9090 0.0000 0.0000 1750.2577 -7605.3488 295.3621 -9355.6065 -7557.2705 300.7073 -747.8967 -685.2691 30710.4600 -63.5613 -3.4242
TCL: Running FEP window   9: Lambda1 0.5999999999999996 Lambda2 0.5499999999999996 [dLambda -0.050000000000000044]
TCL: Setting parameter firsttimestep to 0
TCL: Setting parameter alchLambda to 0.5999999999999996
Info: NONBONDED TABLE R-SQUARED SPACING: 0.0625
Info: NONBONDED TABLE SIZE: 705 POINTS
TCL: Setting parameter alchLambda2 to 0.5499999999999996
Info: NONBONDED TABLE R-SQUARED SPACING: 0.0625
Info: NONBONDED TABLE SIZE: 705 POINTS
TCL: Running for 1500000 steps
ETITLE: TS BOND ANGLE DIHED IMPRP ELECT VDW BOUNDARY MISC KINETIC TOTAL TEMP POTENTIAL TOTALAVG TEMPAVG PRESSURE GPRESSURE VOLUME PRESSAVG GPRESSAVG
ENERGY: 0 1.4853 7.1395 1.0532 0.0000 -10730.2592 1365.4954 0.0000 0.0000 1749.3649 -7605.7209 295.2114 -9355.0858 -7605.7209 295.2114 -775.3068 -694.0599 30710.4600 -775.3068 -694.0599
ENERGY: 300000 1.5820 10.3577 0.8945 0.0000 -10695.3398 1330.2779 0.0000 0.0000 1809.8704 -7542.3574 305.4219 -9352.2277 -7568.7134 301.5927 -899.1632 -864.7442 30385.0216 -256.9196 -190.8083
ENERGY: 600000 0.8208 8.9459 1.7516 0.0000 -10991.4071 1579.8662 0.0000 0.0000 1772.6442 -7627.3784 299.1399 -9400.0226 -7588.2993 302.0264 1148.1598 1191.2930 29947.3676 -79.5984 -6.6806
ENERGY: 900000 0.9700 7.9808 2.5693 0.0000 -10764.7494 1406.6344 0.0000 0.0000 1848.5848 -7498.0102 311.9551 -9346.5949 -7567.9505 302.0944 -382.6762 -239.9160 30394.3854 -165.6048 -84.8651
ENERGY: 1200000 1.2931 8.9176 0.8599 0.0000 -10887.3604 1479.4599 0.0000 0.0000 1830.0157 -7566.8141 308.8215 -9396.8298 -7579.2403 301.5414 32.9425 115.8425 30456.0181 -178.0895 -105.3415
ENERGY: 1500000 2.4968 8.9392 0.7935 0.0000 -10678.3348 1410.5471 0.0000 0.0000 1745.6840 -7509.8742 294.5903 -9255.5582 -7567.0258 300.5462 -269.4164 -187.4176 30637.0096 -163.0146 -88.2245
TCL: Running FEP window  10: Lambda1 0.5499999999999996 Lambda2 0.4999999999999996 [dLambda -0.04999999999999999]
TCL: Setting parameter firsttimestep to 0
TCL: Setting parameter alchLambda to 0.5499999999999996
Info: NONBONDED TABLE R-SQUARED SPACING: 0.0625
Info: NONBONDED TABLE SIZE: 705 POINTS
TCL: Setting parameter alchLambda2 to 0.4999999999999996
Info: NONBONDED TABLE R-SQUARED SPACING: 0.0625
Info: NONBONDED TABLE SIZE: 705 POINTS
TCL: Running for 1500000 steps
ETITLE: TS BOND ANGLE DIHED IMPRP ELECT VDW BOUNDARY MISC KINETIC TOTAL TEMP POTENTIAL TOTALAVG TEMPAVG PRESSURE GPRESSURE VOLUME PRESSAVG GPRESSAVG
ENERGY: 0 2.4968 8.9392 0.7935 0.0000 -10677.8342 1410.5601 0.0000 0.0000 1744.7912 -7510.2533 294.4396 -9255.0445 -7510.2533 294.4396 -280.0893 -197.1400 30637.0096 -280.0893 -197.1400
ENERGY: 300000 3.0816 12.4858 1.8747 0.0000 -10805.8745 1486.2481 0.0000 0.0000 1748.5047 -7553.6796 295.0663 -9302.1843 -7553.7540 294.8988 -64.1819 -14.3732 30961.9954 48.3516 108.8265
ENERGY: 600000 4.1793 11.3946 1.1587 0.0000 -10798.5682 1430.9729 0.0000 0.0000 1778.4224 -7572.4404 300.1150 -9350.8628 -7546.6194 298.3030 -684.4692 -561.7666 30639.5442 -58.3754 14.6385
ENERGY: 900000 0.9616 5.1117 0.5812 0.0000 -10876.7124 1434.7397 0.0000 0.0000 1726.0443 -7709.2740 291.2760 -9435.3183 -7573.0037 298.1012 -318.9502 -263.2077 30486.1021 -25.8320 50.0513
ENERGY: 1200000 1.9703 8.0518 1.5334 0.0000 -10728.8327 1381.5163 0.0000 0.0000 1759.3591 -7576.4017 296.8980 -9335.7608 -7575.3626 298.1451 -401.8495 -359.6697 30264.4393 -44.5099 16.6359
ENERGY: 1500000 1.4095 5.6944 2.1763 0.0000 -10742.0759 1414.8170 0.0000 0.0000 1757.7400 -7560.2386 296.6248 -9317.9786 -7575.0563 298.4453 -74.7705 -44.4534 30267.6023 -68.2255 -6.7171
TCL: Running FEP window  11: Lambda1 0.4999999999999996 Lambda2 0.4499999999999996 [dLambda -0.04999999999999999]
TCL: Setting parameter firsttimestep to 0
TCL: Setting parameter alchLambda to 0.4999999999999996
Info: NONBONDED TABLE R-SQUARED SPACING: 0.0625
Info: NONBONDED TABLE SIZE: 705 POINTS
TCL: Setting parameter alchLambda2 to 0.4499999999999996
Info: NONBONDED TABLE R-SQUARED SPACING: 0.0625
Info: NONBONDED TABLE SIZE: 705 POINTS
TCL: Running for 1500000 steps
ETITLE: TS BOND ANGLE DIHED IMPRP ELECT VDW BOUNDARY MISC KINETIC TOTAL TEMP POTENTIAL TOTALAVG TEMPAVG PRESSURE GPRESSURE VOLUME PRESSAVG GPRESSAVG
ENERGY: 0 1.4095 5.6944 2.1763 0.0000 -10742.1357 1415.2216 0.0000 0.0000 1756.8515 -7560.7823 296.4748 -9317.6338 -7560.7823 296.4748 -132.8373 -48.6176 30267.6023 -132.8373 -48.6176
ENERGY: 300000 3.5457 6.6440 2.5070 0.0000 -10834.7434 1507.0959 0.0000 0.0000 1811.8136 -7503.1373 305.7499 -9314.9508 -7525.8619 300.1997 761.2377 815.5368 30272.8384 11.7806 91.0016
ENERGY: 600000 0.9222 8.0747 2.8591 0.0000 -10710.2527 1424.4442 0.0000 0.0000 1772.5497 -7501.4029 299.1239 -9273.9526 -7539.3585 298.6389 -108.2031 -1.3853 30577.6560 -76.9624 -0.9791
ENERGY: 900000 2.1016 7.3365 1.2439 0.0000 -10815.3552 1504.0105 0.0000 0.0000 1759.0096 -7541.6532 296.8390 -9300.6628 -7529.3036 300.7146 444.8653 522.3426 30353.2816 27.3157 96.4860
ENERGY: 1200000 2.3617 4.9944 0.6605 0.0000 -10905.6573 1563.0712 0.0000 0.0000 1738.2332 -7596.3364 293.3329 -9334.5696 -7543.3262 299.3458 562.5812 609.4345 30866.3435 -10.9018 57.3975
ENERGY: 1500000 5.4371 5.8207 1.6602 0.0000 -10789.2143 1422.5519 0.0000 0.0000 1817.6904 -7536.0540 306.7416 -9353.7444 -7545.3092 300.0306 -588.3249 -437.3185 30906.1045 -51.0116 20.5800
TCL: Running FEP window  12: Lambda1 0.4499999999999996 Lambda2 0.39999999999999963 [dLambda -0.04999999999999999]
TCL: Setting parameter firsttimestep to 0
TCL: Setting parameter alchLambda to 0.4499999999999996
Info: NONBONDED TABLE R-SQUARED SPACING: 0.0625
Info: NONBONDED TABLE SIZE: 705 POINTS
TCL: Setting parameter alchLambda2 to 0.39999999999999963
Info: NONBONDED TABLE R-SQUARED SPACING: 0.0625
Info: NONBONDED TABLE SIZE: 705 POINTS
TCL: Running for 1500000 steps
ETITLE: TS BOND ANGLE DIHED IMPRP ELECT VDW BOUNDARY MISC KINETIC TOTAL TEMP POTENTIAL TOTALAVG TEMPAVG PRESSURE GPRESSURE VOLUME PRESSAVG GPRESSAVG
ENERGY: 0 5.4371 5.8207 1.6602 0.0000 -10789.2152 1423.0264 0.0000 0.0000 1816.8221 -7536.4488 306.5951 -9353.2709 -7536.4488 306.5951 -524.9187 -436.0669 30906.1045 -524.9187 -436.0669
ENERGY: 300000 0.7402 5.5128 0.7942 0.0000 -10824.4214 1394.8535 0.0000 0.0000 1765.0878 -7657.4328 297.8647 -9422.5207 -7609.7805 299.5780 -580.7564 -617.7577 30447.2890 -621.2594 -570.6681
ENERGY: 600000 2.7025 7.6736 1.7320 0.0000 -10695.4296 1424.3458 0.0000 0.0000 1771.8403 -7487.1355 299.0042 -9258.9758 -7570.2040 299.7855 -90.2610 -43.0664 30761.4963 -460.2862 -404.8371
ENERGY: 900000 0.7808 7.3434 2.3745 0.0000 -10643.9666 1362.4777 0.0000 0.0000 1815.9072 -7455.0831 306.4407 -9270.9902 -7537.0353 300.9882 -466.5213 -346.5230 30473.8273 -487.5186 -421.1389
ENERGY: 1200000 1.0853 7.9178 3.1868 0.0000 -10607.8130 1290.9081 0.0000 0.0000 1775.6650 -7529.0499 299.6496 -9304.7149 -7524.1873 301.7115 -1288.9609 -1209.3685 30794.7464 -435.6494 -376.0469
ENERGY: 1500000 1.1979 7.4304 0.8724 0.0000 -10803.5137 1449.8368 0.0000 0.0000 1752.8711 -7591.3051 295.8031 -9344.1762 -7525.4251 301.5493 -91.0326 -44.4388 30664.6855 -402.6097 -342.0594
TCL: Running FEP window  13: Lambda1 0.39999999999999963 Lambda2 0.34999999999999964 [dLambda -0.04999999999999999]
TCL: Setting parameter firsttimestep to 0
TCL: Setting parameter alchLambda to 0.39999999999999963
Info: NONBONDED TABLE R-SQUARED SPACING: 0.0625
Info: NONBONDED TABLE SIZE: 705 POINTS
TCL: Setting parameter alchLambda2 to 0.34999999999999964
Info: NONBONDED TABLE R-SQUARED SPACING: 0.0625
Info: NONBONDED TABLE SIZE: 705 POINTS
TCL: Running for 1500000 steps
ETITLE: TS BOND ANGLE DIHED IMPRP ELECT VDW BOUNDARY MISC KINETIC TOTAL TEMP POTENTIAL TOTALAVG TEMPAVG PRESSURE GPRESSURE VOLUME PRESSAVG GPRESSAVG
ENERGY: 0 1.1979 7.4304 0.8724 0.0000 -10803.5135 1449.7776 0.0000 0.0000 1752.0037 -7592.2315 295.6567 -9344.2353 -7592.2315 295.6567 -129.4924 -49.8343 30664.6855 -129.4924 -49.8343
ENERGY: 300000 0.4337 9.6638 0.8454 0.0000 -10691.4994 1376.5881 0.0000 0.0000 1739.0611 -7564.9074 293.4726 -9303.9684 -7534.8800 297.7863 -804.9676 -729.6800 30997.9460 -178.9561 -111.1663
ENERGY: 600000 1.3500 7.2377 1.3483 0.0000 -10886.0822 1527.9098 0.0000 0.0000 1787.6100 -7560.6266 301.6654 -9348.2366 -7537.7399 298.7694 424.9262 489.5687 30647.8081 -87.5020 -31.8201
ENERGY: 900000 0.6690 8.2890 2.2897 0.0000 -10687.4792 1430.7818 0.0000 0.0000 1802.1832 -7443.2665 304.1247 -9245.4497 -7528.7591 299.0442 106.1582 201.6133 30638.3675 -30.4445 23.4089
ENERGY: 1200000 2.5669 8.1913 1.1827 0.0000 -10753.6066 1441.5286 0.0000 0.0000 1783.7985 -7516.3386 301.0222 -9300.1372 -7519.9000 300.3093 162.7833 226.5410 30319.4071 40.1625 97.2014
ENERGY: 1500000 1.8583 8.0977 0.7401 0.0000 -10759.7528 1454.2125 0.0000 0.0000 1778.7501 -7516.0942 300.1703 -9294.8443 -7525.8667 300.4726 128.1421 207.8019 30572.1093 -30.6392 21.7550
TCL: Running FEP window  14: Lambda1 0.34999999999999964 Lambda2 0.29999999999999966 [dLambda -0.04999999999999999]
TCL: Setting parameter firsttimestep to 0
TCL: Setting parameter alchLambda to 0.34999999999999964
Info: NONBONDED TABLE R-SQUARED SPACING: 0.0625
Info: NONBONDED TABLE SIZE: 705 POINTS
TCL: Setting parameter alchLambda2 to 0.29999999999999966
Info: NONBONDED TABLE R-SQUARED SPACING: 0.0625
Info: NONBONDED TABLE SIZE: 705 POINTS
TCL: Running for 1500000 steps
ETITLE: TS BOND ANGLE DIHED IMPRP ELECT VDW BOUNDARY MISC KINETIC TOTAL TEMP POTENTIAL TOTALAVG TEMPAVG PRESSURE GPRESSURE VOLUME PRESSAVG GPRESSAVG
ENERGY: 0 1.8583 8.0977 0.7401 0.0000 -10759.7520 1454.5377 0.0000 0.0000 1777.8491 -7516.6691 300.0182 -9294.5183 -7516.6691 300.0182 103.6314 202.3773 30572.1093 103.6314 202.3773
ENERGY: 300000 1.1301 6.9192 1.6438 0.0000 -10706.7620 1436.1516 0.0000 0.0000 1762.9207 -7497.9966 297.4990 -9260.9173 -7518.2688 301.3316 147.6878 198.2941 30366.0917 44.0936 123.1917
ENERGY: 600000 1.2546 5.9677 1.1702 0.0000 -10834.8243 1444.8279 0.0000 0.0000 1757.5839 -7624.0201 296.5984 -9381.6040 -7545.2091 300.3749 -340.5229 -254.5860 30766.6180 66.6035 139.5151
ENERGY: 900000 1.9204 5.3534 0.7713 0.0000 -10883.5348 1478.1899 0.0000 0.0000 1775.5558 -7621.7438 299.6312 -9397.2997 -7552.8407 300.2573 39.7137 111.4744 30432.2598 164.9238 228.6437
ENERGY: 1200000 2.2630 6.0201 1.2249 0.0000 -10842.5079 1452.4981 0.0000 0.0000 1791.9030 -7588.5989 302.3899 -9380.5019 -7553.5617 300.6398 -167.9478 -67.7200 30249.0697 180.7255 244.3089
ENERGY: 1500000 3.5444 8.6663 0.9877 0.0000 -10914.9695 1513.7259 0.0000 0.0000 1793.2587 -7594.7865 302.6187 -9388.0452 -7550.6281 301.3988 444.9083 473.8504 30500.4704 159.0392 220.3045
TCL: Running FEP window  15: Lambda1 0.29999999999999966 Lambda2 0.24999999999999967 [dLambda -0.04999999999999999]
TCL: Setting parameter firsttimestep to 0
TCL: Setting parameter alchLambda to 0.29999999999999966
Info: NONBONDED TABLE R-SQUARED SPACING: 0.0625
Info: NONBONDED TABLE SIZE: 705 POINTS
TCL: Setting parameter alchLambda2 to 0.24999999999999967
Info: NONBONDED TABLE R-SQUARED SPACING: 0.0625
Info: NONBONDED TABLE SIZE: 705 POINTS
TCL: Running for 1500000 steps
ETITLE: TS BOND ANGLE DIHED IMPRP ELECT VDW BOUNDARY MISC KINETIC TOTAL TEMP POTENTIAL TOTALAVG TEMPAVG PRESSURE GPRESSURE VOLUME PRESSAVG GPRESSAVG
ENERGY: 0 3.5444 8.6663 0.9877 0.0000 -10914.9695 1513.7837 0.0000 0.0000 1792.3828 -7595.6046 302.4708 -9387.9874 -7595.6046 302.4708 385.3968 469.3137 30500.4704 385.3968 469.3137
ENERGY: 300000 2.0268 3.6213 1.4224 0.0000 -10733.2825 1443.0999 0.0000 0.0000 1790.0065 -7493.1056 302.0698 -9283.1121 -7567.9889 299.6297 30.1953 82.0913 30677.2874 268.9708 323.4929
ENERGY: 600000 1.3804 4.2942 1.6445 0.0000 -10604.4514 1364.2879 0.0000 0.0000 1739.1762 -7493.6682 293.4920 -9232.8444 -7535.5938 300.4685 -465.1402 -501.2829 30926.3606 10.9979 56.3068
ENERGY: 900000 1.7479 5.4718 1.7059 0.0000 -10778.5521 1442.5204 0.0000 0.0000 1769.0403 -7558.0658 298.5317 -9327.1061 -7534.6485 300.7599 -671.3660 -545.1969 31648.1609 -236.2307 -179.7622
ENERGY: 1200000 2.5933 6.9591 0.8058 0.0000 -10624.3565 1360.1705 0.0000 0.0000 1788.2000 -7465.6277 301.7650 -9253.8277 -7537.3335 300.2050 -703.3693 -639.3935 30809.1353 -295.5827 -240.5017
ENERGY: 1500000 0.6921 4.4650 2.6749 0.0000 -10742.9329 1418.0265 0.0000 0.0000 1744.2713 -7572.8029 294.3519 -9317.0743 -7547.0321 299.6349 -38.6598 31.0093 30098.0279 -282.8059 -221.0474
TCL: Running FEP window  16: Lambda1 0.24999999999999967 Lambda2 0.19999999999999968 [dLambda -0.04999999999999999]
TCL: Setting parameter firsttimestep to 0
TCL: Setting parameter alchLambda to 0.24999999999999967
Info: NONBONDED TABLE R-SQUARED SPACING: 0.0625
Info: NONBONDED TABLE SIZE: 705 POINTS
TCL: Setting parameter alchLambda2 to 0.19999999999999968
Info: NONBONDED TABLE R-SQUARED SPACING: 0.0625
Info: NONBONDED TABLE SIZE: 705 POINTS
TCL: Running for 1500000 steps
ETITLE: TS BOND ANGLE DIHED IMPRP ELECT VDW BOUNDARY MISC KINETIC TOTAL TEMP POTENTIAL TOTALAVG TEMPAVG PRESSURE GPRESSURE VOLUME PRESSAVG GPRESSAVG
ENERGY: 0 0.6921 4.4650 2.6749 0.0000 -10742.9324 1417.6006 0.0000 0.0000 1743.3720 -7574.1277 294.2001 -9317.4997 -7574.1277 294.2001 -58.4823 21.2601 30098.0279 -58.4823 21.2601
ENERGY: 300000 2.6636 5.0104 1.3595 0.0000 -10919.8329 1540.3466 0.0000 0.0000 1780.0260 -7590.4267 300.3856 -9370.4527 -7526.8002 299.8336 745.0152 782.4505 30124.0557 179.5050 235.1300
ENERGY: 600000 0.6441 7.0433 0.5420 0.0000 -10779.6345 1494.8686 0.0000 0.0000 1781.3970 -7495.1396 300.6170 -9276.5366 -7501.8578 301.1870 573.7786 606.6760 30426.4761 267.4118 321.6411
ENERGY: 900000 0.8279 5.4250 3.2255 0.0000 -10925.3498 1505.2541 0.0000 0.0000 1798.6401 -7611.9772 303.5268 -9410.6173 -7522.8345 300.3028 162.2462 193.1049 30470.1157 158.1838 215.3790
ENERGY: 1200000 1.4554 10.4197 1.2522 0.0000 -10727.3687 1426.3257 0.0000 0.0000 1789.2914 -7498.6243 301.9492 -9287.9157 -7528.4710 301.0234 77.0835 134.6434 30318.3228 18.4570 83.7327
ENERGY: 1500000 1.1469 8.5806 1.0182 0.0000 -10783.2442 1426.5021 0.0000 0.0000 1780.6945 -7565.3019 300.4984 -9345.9964 -7533.9200 301.5567 -192.9822 -204.4325 30618.8625 -63.5945 -0.3674
TCL: Running FEP window  17: Lambda1 0.19999999999999968 Lambda2 0.1499999999999997 [dLambda -0.04999999999999999]
TCL: Setting parameter firsttimestep to 0
TCL: Setting parameter alchLambda to 0.19999999999999968
Info: NONBONDED TABLE R-SQUARED SPACING: 0.0625
Info: NONBONDED TABLE SIZE: 705 POINTS
TCL: Setting parameter alchLambda2 to 0.1499999999999997
Info: NONBONDED TABLE R-SQUARED SPACING: 0.0625
Info: NONBONDED TABLE SIZE: 705 POINTS
TCL: Running for 1500000 steps
ETITLE: TS BOND ANGLE DIHED IMPRP ELECT VDW BOUNDARY MISC KINETIC TOTAL TEMP POTENTIAL TOTALAVG TEMPAVG PRESSURE GPRESSURE VOLUME PRESSAVG GPRESSAVG
ENERGY: 0 1.1469 8.5806 1.0182 0.0000 -10783.2447 1426.3793 0.0000 0.0000 1779.8239 -7566.2959 300.3515 -9346.1198 -7566.2959 300.3515 -283.4714 -209.5929 30618.8625 -283.4714 -209.5929
ENERGY: 300000 0.9193 8.0215 1.9632 0.0000 -10684.1066 1374.0645 0.0000 0.0000 1812.3427 -7486.7954 305.8391 -9299.1382 -7538.0920 303.1806 -704.8281 -690.3859 31165.7035 -479.7220 -412.5818
ENERGY: 600000 1.6897 7.9925 1.0017 0.0000 -10776.1289 1428.3781 0.0000 0.0000 1778.2863 -7558.7806 300.0920 -9337.0669 -7549.1709 301.8477 -332.6725 -313.4389 30800.3149 -416.1486 -364.1203
ENERGY: 900000 2.4622 11.9402 4.8222 0.0000 -10724.2064 1434.6090 0.0000 0.0000 1781.7462 -7488.6266 300.6759 -9270.3728 -7541.4193 302.1545 -161.5115 -107.7733 30733.0599 -334.3357 -287.7495
ENERGY: 1200000 0.3865 7.5398 1.3391 0.0000 -10807.2460 1441.3514 0.0000 0.0000 1820.2364 -7536.3928 307.1712 -9356.6292 -7546.3906 302.1949 -135.0037 -80.8103 30408.7707 -230.0349 -176.4744
ENERGY: 1500000 0.4993 5.0739 1.0607 0.0000 -10820.2641 1415.1562 0.0000 0.0000 1803.6523 -7594.8217 304.3726 -9398.4740 -7554.3933 301.8211 -525.0887 -456.1255 30576.0740 -278.5972 -221.4263
TCL: Running FEP window  18: Lambda1 0.1499999999999997 Lambda2 0.09999999999999969 [dLambda -0.05 ]
TCL: Setting parameter firsttimestep to 0
TCL: Setting parameter alchLambda to 0.1499999999999997
Info: NONBONDED TABLE R-SQUARED SPACING: 0.0625
Info: NONBONDED TABLE SIZE: 705 POINTS
TCL: Setting parameter alchLambda2 to 0.09999999999999969
Info: NONBONDED TABLE R-SQUARED SPACING: 0.0625
Info: NONBONDED TABLE SIZE: 705 POINTS
TCL: Running for 1500000 steps
ETITLE: TS BOND ANGLE DIHED IMPRP ELECT VDW BOUNDARY MISC KINETIC TOTAL TEMP POTENTIAL TOTALAVG TEMPAVG PRESSURE GPRESSURE VOLUME PRESSAVG GPRESSAVG
ENERGY: 0 0.4993 5.0739 1.0607 0.0000 -10820.2645 1414.8189 0.0000 0.0000 1802.7568 -7596.0549 304.2215 -9398.8117 -7596.0549 304.2215 -542.7484 -457.7324 30576.0740 -542.7484 -457.7324
ENERGY: 300000 1.2558 11.8758 1.1636 0.0000 -10645.3648 1364.6880 0.0000 0.0000 1775.1560 -7491.2256 299.5638 -9266.3816 -7571.8917 300.9458 -604.6942 -598.7889 31076.6883 -433.2635 -369.1260
ENERGY: 600000 0.8888 8.8833 0.7224 0.0000 -10936.3965 1548.5746 0.0000 0.0000 1743.6775 -7633.6499 294.2516 -9377.3274 -7563.1696 300.1966 562.1201 546.9471 30466.1537 -238.2958 -194.8952
ENERGY: 900000 0.2526 2.5376 0.5885 0.0000 -10761.7732 1453.3468 0.0000 0.0000 1728.3301 -7576.7176 291.6617 -9305.0478 -7561.1664 298.4430 -154.5255 -119.6402 30882.8999 -269.0239 -218.9889
ENERGY: 1200000 2.7176 8.5262 1.1300 0.0000 -10606.1396 1360.8345 0.0000 0.0000 1742.3535 -7490.5778 294.0282 -9232.9313 -7549.1449 299.0981 -746.2699 -704.6785 31259.7806 -316.2655 -265.3587
ENERGY: 1500000 1.4167 7.2384 1.7176 0.0000 -10741.7533 1445.9569 0.0000 0.0000 1819.0047 -7466.4190 306.9634 -9285.4236 -7548.8597 299.3783 -4.1788 32.0176 30649.9157 -279.6749 -230.2685
TCL: Running FEP window  19: Lambda1 0.09999999999999969 Lambda2 0.049999999999999684 [dLambda -0.05 ]
TCL: Setting parameter firsttimestep to 0
TCL: Setting parameter alchLambda to 0.09999999999999969
Info: NONBONDED TABLE R-SQUARED SPACING: 0.0625
Info: NONBONDED TABLE SIZE: 705 POINTS
TCL: Setting parameter alchLambda2 to 0.049999999999999684
Info: NONBONDED TABLE R-SQUARED SPACING: 0.0625
Info: NONBONDED TABLE SIZE: 705 POINTS
TCL: Running for 1500000 steps
ETITLE: TS BOND ANGLE DIHED IMPRP ELECT VDW BOUNDARY MISC KINETIC TOTAL TEMP POTENTIAL TOTALAVG TEMPAVG PRESSURE GPRESSURE VOLUME PRESSAVG GPRESSAVG
ENERGY: 0 1.4167 7.2384 1.7176 0.0000 -10741.7520 1445.8314 0.0000 0.0000 1818.1351 -7467.4126 306.8166 -9285.5478 -7467.4126 306.8166 -56.7978 26.5894 30649.9157 -56.7978 26.5894
ENERGY: 300000 1.8116 4.3321 1.5871 0.0000 -10765.5149 1422.2859 0.0000 0.0000 1747.8066 -7587.6916 294.9484 -9335.4981 -7524.0842 301.3343 -422.5128 -330.6870 30748.7311 -117.5420 -47.6362
ENERGY: 600000 1.8462 6.1566 1.4799 0.0000 -10865.3310 1541.1906 0.0000 0.0000 1807.1822 -7507.4755 304.9683 -9314.6577 -7523.6844 301.7438 914.1609 995.1470 29937.4745 -118.1355 -48.6890
ENERGY: 900000 1.8691 6.1713 0.7416 0.0000 -10737.4949 1372.6403 0.0000 0.0000 1817.8904 -7538.1821 306.7753 -9356.0726 -7541.0192 302.0355 -454.6430 -423.4591 29998.2245 -172.0690 -110.7848
ENERGY: 1200000 3.4383 6.9871 1.1427 0.0000 -10766.8883 1435.5487 0.0000 0.0000 1734.7780 -7584.9935 292.7498 -9319.7714 -7545.6780 301.6408 -412.7669 -217.5958 30544.0209 -136.2329 -63.0415
ENERGY: 1500000 1.5761 6.1708 0.8233 0.0000 -10641.8499 1400.3382 0.0000 0.0000 1788.3781 -7444.5634 301.7950 -9232.9415 -7533.5244 302.0040 -153.2964 -97.0348 30310.8496 -155.1455 -86.3113
TCL: Running FEP window  20: Lambda1 0.049999999999999684 Lambda2 0.0    [dLambda -0.049999999999999684]
TCL: Setting parameter firsttimestep to 0
TCL: Setting parameter alchLambda to 0.049999999999999684
Info: NONBONDED TABLE R-SQUARED SPACING: 0.0625
Info: NONBONDED TABLE SIZE: 705 POINTS
TCL: Setting parameter alchLambda2 to 0.0
Info: NONBONDED TABLE R-SQUARED SPACING: 0.0625
Info: NONBONDED TABLE SIZE: 705 POINTS
TCL: Running for 1500000 steps
ETITLE: TS BOND ANGLE DIHED IMPRP ELECT VDW BOUNDARY MISC KINETIC TOTAL TEMP POTENTIAL TOTALAVG TEMPAVG PRESSURE GPRESSURE VOLUME PRESSAVG GPRESSAVG
ENERGY: 0 1.5761 6.1708 0.8233 0.0000 -10641.8509 1400.3700 0.0000 0.0000 1787.5127 -7445.3980 301.6490 -9232.9107 -7445.3980 301.6490 -168.5416 -102.8215 30310.8496 -168.5416 -102.8215
ENERGY: 300000 0.3667 7.3322 1.4794 0.0000 -10790.9059 1447.0978 0.0000 0.0000 1758.0231 -7576.6066 296.6725 -9334.6297 -7533.1814 297.5187 72.2426 104.7835 30259.2854 -187.6949 -117.5029
ENERGY: 600000 3.2352 3.7870 1.4824 0.0000 -10823.2761 1457.2196 0.0000 0.0000 1799.8603 -7557.6917 303.7327 -9357.5520 -7536.5947 299.6662 -315.3020 -256.5320 30868.7765 -294.7016 -220.6234
ENERGY: 900000 3.8706 8.7619 0.7479 0.0000 -10593.1334 1394.5054 0.0000 0.0000 1752.4542 -7432.7935 295.7328 -9185.2477 -7514.8363 300.7435 -267.6713 -183.1152 31035.4888 -291.7497 -217.2683
ENERGY: 1200000 0.6368 5.1703 0.5694 0.0000 -10898.7892 1514.0220 0.0000 0.0000 1755.8879 -7622.5028 296.3122 -9378.3907 -7541.3658 300.3037 173.4568 226.9145 30763.2023 -233.7833 -165.9729
ENERGY: 1500000 4.1651 10.2813 1.3588 0.0000 -10825.1929 1551.8992 0.0000 0.0000 1810.4709 -7447.0177 305.5233 -9257.4885 -7538.8912 300.9388 1230.5933 1235.5715 30143.6781 -79.3577 -16.6445
TCL: Exiting due to exit command.
