Info: SIMULATION PARAMETERS:
Info: TIMESTEP               2
Info: NUMBER OF STEPS        0
Info: STEPS PER CYCLE        10
Info: PERIODIC CELL BASIS 1  30.8526 0 0
Info: PERIODIC CELL BASIS 2  0 29.3781 0
Info: PERIODIC CELL BASIS 3  0 0 33.0264
Info: PERIODIC CELL CENTER   0 0 0
Info: WRAPPING WATERS AROUND PERIODIC BOUNDARIES ON OUTPUT.
Info: WRAPPING ALL CLUSTERS AROUND PERIODIC BOUNDARIES ON OUTPUT.
Info: FIRST LDB TIMESTEP     50
Info: LAST LDB TIMESTEP     -1
Info: HOM BACKGROUND SCALING 1
Info: PME BACKGROUND SCALING 1
Info: MIN ATOMS PER PATCH    40
Info: EMPTY PATCH LOAD       40 ATOMS
Info: VELOCITY FILE          mobley_1728386_equil.vel
Info: CENTER OF MASS MOVING INITIALLY? NO
Info: DIELECTRIC             1
Info: EXCLUDE                SCALED ONE-FOUR
Info: 1-4 ELECTROSTATICS SCALED BY 0.833333
Info: MODIFIED 1-4 VDW PARAMETERS WILL BE USED
Info: DCD FILENAME           mobley_1728386_prod.dcd
Info: DCD FREQUENCY          100000
Info: DCD FIRST STEP         100000
Info: DCD FILE WILL CONTAIN UNIT CELL DATA
Info: XST FILENAME           mobley_1728386_prod.xst
Info: XST FREQUENCY          100000
Info: NO VELOCITY DCD OUTPUT
Info: NO FORCE DCD OUTPUT
Info: OUTPUT FILENAME        mobley_1728386_prod
Info: BINARY OUTPUT FILES WILL BE USED
Info: RESTART FILENAME       mobley_1728386_prod.restart
Info: RESTART FREQUENCY      100000
Info: BINARY RESTART FILES WILL BE USED
Info: CUTOFF                 9
Info: PAIRLIST DISTANCE      11
Info: PAIRLIST SHRINK RATE   0.01
Info: PAIRLIST GROW RATE     0.01
Info: PAIRLIST TRIGGER       0.3
Info: PAIRLISTS PER CYCLE    2
Info: PAIRLISTS ENABLED
Info: MARGIN                 2
Info: HYDROGEN GROUP CUTOFF  2.5
Info: PATCH DIMENSION        15.5
Info: ENERGY OUTPUT STEPS    100000
Info: ENERGY EVALUATION STEPS    100000
Info: OUTPUT ENERGY PRECISION 4
Info: CROSSTERM ENERGY INCLUDED IN DIHEDRAL
Info: TIMING OUTPUT STEPS    1000000
Info: PRESSURE OUTPUT STEPS  100000
Info: ALCHEMICAL FEP ON
Info: FEP CURRENT LAMBDA VALUE     0
Info: FEP COMPARISON LAMBDA VALUE  0.05
Info: FEP INTRA-ALCHEMICAL NON-BONDED INTERACTIONS WILL BE RETAINED
Info: FEP INTRA-ALCHEMICAL BONDED INTERACTIONS WILL BE RETAINED
Info: FEP VDW SHIFTING COEFFICIENT 5
Info: FEP ELEC. ACTIVE FOR ANNIHILATED PARTICLES BETWEEN LAMBDA = 0 AND LAMBDA = 0.5
Info: FEP ELEC. ACTIVE FOR EXNIHILATED PARTICLES BETWEEN LAMBDA = 0.5 AND LAMBDA = 1
Info: FEP VDW ACTIVE FOR ANNIHILATED PARTICLES BETWEEN LAMBDA = 0 AND LAMBDA = 1
Info: FEP VDW ACTIVE FOR EXNIHILATED PARTICLES BETWEEN LAMBDA = 0 AND LAMBDA = 1
Info: FEP BOND ACTIVE FOR ANNIHILATED PARTICLES BETWEEN LAMBDA = 1 AND LAMBDA = 1
Info: FEP BOND ACTIVE FOR EXNIHILATED PARTICLES BETWEEN LAMBDA = 0 AND LAMBDA = 0
Info: LANGEVIN DYNAMICS ACTIVE
Info: LANGEVIN TEMPERATURE   300
Info: LANGEVIN USING BBK INTEGRATOR
Info: LANGEVIN DAMPING COEFFICIENT IS 1 INVERSE PS
Info: LANGEVIN DYNAMICS APPLIED TO HYDROGENS
Info: LANGEVIN PISTON PRESSURE CONTROL ACTIVE
Info:        TARGET PRESSURE IS 1.01325 BAR
Info:     OSCILLATION PERIOD IS 50 FS
Info:             DECAY TIME IS 25 FS
Info:     PISTON TEMPERATURE IS 300 K
Info:       PRESSURE CONTROL IS GROUP-BASED
Info:    INITIAL STRAIN RATE IS 0.000557218 0.000557218 0.000557218
Info:       CELL FLUCTUATION IS ISOTROPIC
Info: PARTICLE MESH EWALD (PME) ACTIVE
Info: PME TOLERANCE               1e-06
Info: PME EWALD COEFFICIENT       0.348832
Info: PME INTERPOLATION ORDER     4
Info: PME GRID DIMENSIONS         32 32 36
Info: PME MAXIMUM GRID SPACING    1
Info: PME CALCULATION WILL BE PERFORMED ON GPU
Info: FULL ELECTROSTATIC EVALUATION FREQUENCY      2
Info: USING VERLET I (r-RESPA) MTS SCHEME.
Info: C1 SPLITTING OF LONG RANGE ELECTROSTATICS
Info: PLACING ATOMS IN PATCHES BY HYDROGEN GROUPS
Info: RIGID BONDS TO HYDROGEN : ALL
Info:         ERROR TOLERANCE : 1e-08
Info:          MAX ITERATIONS : 100
Info: RIGID WATER USING SETTLE ALGORITHM
Info: RANDOM NUMBER SEED     1743763926
Info: USE HYDROGEN BONDS?    NO
Info: Using AMBER format force field!
Info: AMBER PARM FILE        mobley_1728386.prmtop
Info: COORDINATE PDB         mobley_1728386.pdb
Info: Exclusions will be read from PARM file!
Info: SCNB (VDW SCALING)     2
Info: USING ARITHMETIC MEAN TO COMBINE L-J SIGMA PARAMETERS
Info: BINARY COORDINATES     mobley_1728386_equil.coor
Info: SUMMARY OF PARAMETERS:
Info: 8 BONDS
Info: 8 ANGLES
Info:   8 HARMONIC
Info:   0 COSINE-BASED
Info: 6 DIHEDRAL
Info: 0 IMPROPER
Info: 0 CROSSTERM
Info: 0 VDW
Info: 28 VDW_PAIRS
Info: 0 NBTHOLE_PAIRS
Info: To read alchdata from file: mobley_1728386.pdb
Info: To read alchflag data from column: 5
Info: STRUCTURE SUMMARY:
Info: 2923 ATOMS
Info: 2923 BONDS
Info: 24 ANGLES
Info: 42 DIHEDRALS
Info: 0 IMPROPERS
Info: 0 CROSSTERMS
Info: 2976 EXCLUSIONS
Info: 2914 RIGID BONDS
Info: ALCH: 0 ATOMS TO DISAPPEAR IN FINAL STATE
Info: ALCH: 16 ATOMS TO APPEAR IN FINAL STATE
Info: 5855 DEGREES OF FREEDOM
Info: 978 HYDROGEN GROUPS
Info: 3 ATOMS IN LARGEST HYDROGEN GROUP
Info: 978 MIGRATION GROUPS
Info: 3 ATOMS IN LARGEST MIGRATION GROUP
Info: TOTAL MASS = 17578.6 amu
Info: TOTAL CHARGE = -9.99048e-05 e
Info: MASS DENSITY = 0.975142 g/cm^3
Info: ATOM DENSITY = 0.0976455 atoms/A^3
Info: ADDED 0 IMPLICIT EXCLUSIONS
Info: NONBONDED TABLE R-SQUARED SPACING: 0.0625
Info: NONBONDED TABLE SIZE: 705 POINTS
Info: REMOVING COM VELOCITY -0.00510916 -0.0309017 -0.134077
Info: Use 3D box decompostion in PME FFT.
Info: Updated CUDA force table with 4096 elements.
Info: Updated CUDA LJ table with 7 x 7 elements.
Info: Found 18 unique exclusion lists needing 40 bytes
TCL: Running for 1500000 steps
ETITLE: TS BOND ANGLE DIHED IMPRP ELECT VDW BOUNDARY MISC KINETIC TOTAL TEMP POTENTIAL TOTALAVG TEMPAVG PRESSURE GPRESSURE VOLUME PRESSAVG GPRESSAVG
ENERGY: 0 2.4413 3.9437 8.8547 0.0000 -10555.0129 1365.6416 0.0000 0.0000 1769.9600 -7404.1716 304.2474 -9174.1315 -7404.1716 304.2474 -499.0337 -420.0682 29934.8136 -499.0337 -420.0682
ENERGY: 300000 3.5413 6.9401 8.4009 0.0000 -10465.7411 1318.9637 0.0000 0.0000 1706.6721 -7421.2231 293.3686 -9127.8952 -7410.6549 299.8188 -806.4981 -741.7070 29913.2608 -625.8822 -527.1691
ENERGY: 600000 1.6960 6.5075 10.3013 0.0000 -10691.3458 1453.1187 0.0000 0.0000 1748.7233 -7470.9991 300.5970 -9219.7224 -7418.0449 300.2780 41.3264 140.6561 29899.6948 -544.6716 -459.2156
ENERGY: 900000 1.7994 8.6523 10.8607 0.0000 -10687.9598 1454.9714 0.0000 0.0000 1753.2096 -7458.4663 301.3681 -9211.6759 -7427.1184 299.6196 290.0572 378.4022 29742.1685 -426.3836 -346.9411
ENERGY: 1200000 4.8537 3.6441 9.0751 0.0000 -10467.5402 1272.7000 0.0000 0.0000 1716.2574 -7461.0099 295.0162 -9177.2673 -7419.5263 299.3607 -1085.1464 -963.9737 29538.2769 -464.5501 -392.4718
ENERGY: 1500000 2.7809 4.4389 9.1390 0.0000 -10535.9368 1392.7105 0.0000 0.0000 1809.9488 -7316.9188 311.1213 -9126.8676 -7419.2044 300.4007 2.7160 100.1371 29743.3296 -347.5338 -276.7529
TCL: Running FEP window   2: Lambda1 0.05   Lambda2 0.1    [dLambda 0.05  ]
TCL: Setting parameter firsttimestep to 0
TCL: Setting parameter alchLambda to 0.05
Info: NONBONDED TABLE R-SQUARED SPACING: 0.0625
Info: NONBONDED TABLE SIZE: 705 POINTS
TCL: Setting parameter alchLambda2 to 0.1
Info: NONBONDED TABLE R-SQUARED SPACING: 0.0625
Info: NONBONDED TABLE SIZE: 705 POINTS
TCL: Running for 1500000 steps
ETITLE: TS BOND ANGLE DIHED IMPRP ELECT VDW BOUNDARY MISC KINETIC TOTAL TEMP POTENTIAL TOTALAVG TEMPAVG PRESSURE GPRESSURE VOLUME PRESSAVG GPRESSAVG
ENERGY: 0 2.7809 4.4389 9.1390 0.0000 -10535.9363 1394.4380 0.0000 0.0000 1809.1189 -7316.0206 310.9787 -9125.1395 -7316.0206 310.9787 24.6811 104.3591 29743.3296 24.6811 104.3591
ENERGY: 300000 4.7885 9.6308 7.2724 0.0000 -10484.8001 1361.7698 0.0000 0.0000 1734.8088 -7366.5298 298.2051 -9101.3386 -7382.5829 300.0567 -463.2851 -381.1207 30459.6115 -228.0580 -153.1279
ENERGY: 600000 3.0449 3.0164 9.5394 0.0000 -10624.5562 1392.5101 0.0000 0.0000 1719.2991 -7497.1462 295.5391 -9216.4453 -7418.8295 299.7234 -584.4568 -525.3497 30086.7539 -218.0266 -142.5109
ENERGY: 900000 4.2921 5.7369 8.8843 0.0000 -10575.8764 1417.4492 0.0000 0.0000 1775.9090 -7363.6049 305.2700 -9139.5139 -7417.6547 299.5839 -59.0639 -1.4633 29919.9022 -87.7340 -20.0845
ENERGY: 1200000 3.2077 4.3997 12.9527 0.0000 -10599.2472 1382.6667 0.0000 0.0000 1772.8085 -7423.2118 304.7371 -9196.0203 -7430.2532 300.2857 -603.9810 -511.5620 30235.7462 -93.8682 -26.2188
ENERGY: 1500000 4.2804 4.6936 10.6998 0.0000 -10707.9526 1479.9279 0.0000 0.0000 1768.3534 -7439.9974 303.9713 -9208.3508 -7428.1400 300.4102 410.8626 460.9220 29995.6535 -96.2713 -30.0329
TCL: Running FEP window   3: Lambda1 0.1    Lambda2 0.15000000000000002 [dLambda 0.05000000000000002]
TCL: Setting parameter firsttimestep to 0
TCL: Setting parameter alchLambda to 0.1
Info: NONBONDED TABLE R-SQUARED SPACING: 0.0625
Info: NONBONDED TABLE SIZE: 705 POINTS
TCL: Setting parameter alchLambda2 to 0.15000000000000002
Info: NONBONDED TABLE R-SQUARED SPACING: 0.0625
Info: NONBONDED TABLE SIZE: 705 POINTS
TCL: Running for 1500000 steps
ETITLE: TS BOND ANGLE DIHED IMPRP ELECT VDW BOUNDARY MISC KINETIC TOTAL TEMP POTENTIAL TOTALAVG TEMPAVG PRESSURE GPRESSURE VOLUME PRESSAVG GPRESSAVG
ENERGY: 0 4.2804 4.6936 10.6998 0.0000 -10707.9525 1480.1445 0.0000 0.0000 1767.5008 -7440.6333 303.8247 -9208.1341 -7440.6333 303.8247 383.7539 459.5096 29995.6535 383.7539 459.5096
ENERGY: 300000 3.4767 7.1594 6.9558 0.0000 -10652.9089 1473.1352 0.0000 0.0000 1733.1283 -7429.0536 297.9163 -9162.1819 -7412.6870 301.1568 483.0910 547.4430 29979.1714 435.1006 519.6871
ENERGY: 600000 3.3234 9.4501 8.1132 0.0000 -10613.1673 1406.2792 0.0000 0.0000 1799.5243 -7386.4772 309.3294 -9186.0014 -7404.6268 302.2144 -95.3832 -74.2294 30022.2137 290.7960 364.4513
ENERGY: 900000 3.7292 3.7049 7.2382 0.0000 -10562.6580 1430.7409 0.0000 0.0000 1740.2065 -7377.0383 299.1330 -9117.2447 -7409.8516 300.6700 301.7756 296.9138 29733.7847 193.1219 264.4229
ENERGY: 1200000 2.4872 7.6280 6.8455 0.0000 -10534.0980 1376.5302 0.0000 0.0000 1762.4140 -7378.1932 302.9503 -9140.6071 -7409.1234 301.6087 -477.6277 -414.2226 30443.2028 112.0958 174.6951
ENERGY: 1500000 2.2323 4.7474 7.5900 0.0000 -10693.3633 1444.3699 0.0000 0.0000 1699.5386 -7534.8851 292.1423 -9234.4237 -7419.7486 300.5899 65.0719 125.6953 29560.1836 79.6195 134.2803
TCL: Running FEP window   4: Lambda1 0.15000000000000002 Lambda2 0.2    [dLambda 0.04999999999999999]
TCL: Setting parameter firsttimestep to 0
TCL: Setting parameter alchLambda to 0.15000000000000002
Info: NONBONDED TABLE R-SQUARED SPACING: 0.0625
Info: NONBONDED TABLE SIZE: 705 POINTS
TCL: Setting parameter alchLambda2 to 0.2
Info: NONBONDED TABLE R-SQUARED SPACING: 0.0625
Info: NONBONDED TABLE SIZE: 705 POINTS
TCL: Running for 1500000 steps
ETITLE: TS BOND ANGLE DIHED IMPRP ELECT VDW BOUNDARY MISC KINETIC TOTAL TEMP POTENTIAL TOTALAVG TEMPAVG PRESSURE GPRESSURE VOLUME PRESSAVG GPRESSAVG
ENERGY: 0 2.2323 4.7474 7.5900 0.0000 -10693.3636 1444.4104 0.0000 0.0000 1698.6852 -7535.6982 291.9957 -9234.3834 -7535.6982 291.9957 34.0357 128.3075 29560.1836 34.0357 128.3075
ENERGY: 300000 3.8294 5.2879 12.0251 0.0000 -10651.8180 1447.7035 0.0000 0.0000 1777.0658 -7405.9062 305.4689 -9182.9720 -7457.2619 298.7020 9.5906 67.4675 29852.2002 412.9743 459.6010
ENERGY: 600000 2.2759 7.5306 7.0542 0.0000 -10737.7607 1452.9125 0.0000 0.0000 1786.8942 -7481.0933 307.1583 -9267.9875 -7433.6143 299.0322 183.8313 212.2029 29443.6348 255.0289 303.4766
ENERGY: 900000 2.8249 6.9587 8.0769 0.0000 -10578.2632 1433.9228 0.0000 0.0000 1799.1177 -7327.3622 309.2595 -9126.4799 -7411.5638 301.3731 -58.5489 -2.1072 30072.7676 162.6533 203.5063
ENERGY: 1200000 3.7419 2.3791 6.9491 0.0000 -10573.1622 1419.6125 0.0000 0.0000 1723.3709 -7417.1087 296.2390 -9140.4795 -7409.5058 300.1813 12.5120 84.2560 29778.5791 99.4076 146.4675
ENERGY: 1500000 5.7776 2.5679 9.0622 0.0000 -10585.3587 1441.1765 0.0000 0.0000 1734.6484 -7392.1261 298.1776 -9126.7745 -7413.0127 299.2912 284.7514 370.3551 30106.5711 91.5458 147.1517
TCL: Running FEP window   5: Lambda1 0.2    Lambda2 0.25   [dLambda 0.04999999999999999]
TCL: Setting parameter firsttimestep to 0
TCL: Setting parameter alchLambda to 0.2
Info: NONBONDED TABLE R-SQUARED SPACING: 0.0625
Info: NONBONDED TABLE SIZE: 705 POINTS
TCL: Setting parameter alchLambda2 to 0.25
Info: NONBONDED TABLE R-SQUARED SPACING: 0.0625
Info: NONBONDED TABLE SIZE: 705 POINTS
TCL: Running for 1500000 steps
ETITLE: TS BOND ANGLE DIHED IMPRP ELECT VDW BOUNDARY MISC KINETIC TOTAL TEMP POTENTIAL TOTALAVG TEMPAVG PRESSURE GPRESSURE VOLUME PRESSAVG GPRESSAVG
ENERGY: 0 5.7776 2.5679 9.0622 0.0000 -10585.3586 1440.9572 0.0000 0.0000 1733.7798 -7393.2139 298.0282 -9126.9937 -7393.2139 298.0282 291.3796 372.1449 30106.5711 291.3796 372.1449
ENERGY: 300000 4.9100 6.1210 8.4484 0.0000 -10533.6047 1380.0428 0.0000 0.0000 1768.5586 -7365.5238 304.0065 -9134.0824 -7407.7437 301.0628 -373.3600 -378.3711 30289.4326 -285.7795 -235.1421
ENERGY: 600000 2.7296 5.0451 10.1626 0.0000 -10596.7455 1392.3678 0.0000 0.0000 1724.4847 -7461.9556 296.4305 -9186.4403 -7426.3174 300.0549 -254.3365 -201.7454 29766.6423 -123.6973 -74.1791
ENERGY: 900000 2.4424 8.9506 6.6155 0.0000 -10600.0765 1402.0972 0.0000 0.0000 1775.9695 -7404.0012 305.2804 -9179.9707 -7419.7725 301.2557 -221.9743 -125.3947 29984.4423 -56.3408 -3.3130
ENERGY: 1200000 2.6898 5.4324 10.3640 0.0000 -10655.6874 1425.8113 0.0000 0.0000 1743.7803 -7467.6095 299.7473 -9211.3898 -7435.2274 300.4926 -3.8485 17.0576 29577.6435 -117.1055 -60.7252
ENERGY: 1500000 5.5114 3.1072 11.5542 0.0000 -10699.8248 1474.9102 0.0000 0.0000 1742.8841 -7461.8577 299.5932 -9204.7417 -7444.0203 299.6336 340.2309 423.0297 29968.5407 -125.4354 -71.7942
TCL: Running FEP window   6: Lambda1 0.25   Lambda2 0.3    [dLambda 0.04999999999999999]
TCL: Setting parameter firsttimestep to 0
TCL: Setting parameter alchLambda to 0.25
Info: NONBONDED TABLE R-SQUARED SPACING: 0.0625
Info: NONBONDED TABLE SIZE: 705 POINTS
TCL: Setting parameter alchLambda2 to 0.3
Info: NONBONDED TABLE R-SQUARED SPACING: 0.0625
Info: NONBONDED TABLE SIZE: 705 POINTS
TCL: Running for 1500000 steps
ETITLE: TS BOND ANGLE DIHED IMPRP ELECT VDW BOUNDARY MISC KINETIC TOTAL TEMP POTENTIAL TOTALAVG TEMPAVG PRESSURE GPRESSURE VOLUME PRESSAVG GPRESSAVG
ENERGY: 0 5.5114 3.1072 11.5542 0.0000 -10699.8253 1474.8420 0.0000 0.0000 1742.0333 -7462.7771 299.4470 -9204.8104 -7462.7771 299.4470 335.3729 424.2491 29968.5407 335.3729 424.2491
ENERGY: 300000 2.7270 5.4185 7.9302 0.0000 -10709.9521 1459.5307 0.0000 0.0000 1686.6786 -7547.6671 289.9318 -9234.3457 -7478.0755 295.7635 -130.9496 -27.7463 30171.5826 95.2076 156.4850
ENERGY: 600000 5.0695 7.9039 6.9308 0.0000 -10816.4501 1565.5181 0.0000 0.0000 1707.0811 -7523.9466 293.4389 -9231.0277 -7472.9843 294.4823 548.5017 617.9478 30124.9513 324.9428 376.3022
ENERGY: 900000 1.8722 2.5406 9.3105 0.0000 -10680.1979 1416.4314 0.0000 0.0000 1754.1429 -7495.9003 301.5286 -9250.0432 -7480.5855 295.2184 -23.8322 -13.4940 29514.9022 178.2031 223.1608
ENERGY: 1200000 4.8417 5.7585 7.1352 0.0000 -10720.7701 1473.1662 0.0000 0.0000 1779.1864 -7450.6822 305.8334 -9229.8685 -7461.9256 298.1101 142.1938 188.5566 30088.9798 197.1056 243.6641
ENERGY: 1500000 3.3522 4.0094 10.2441 0.0000 -10757.6504 1480.2377 0.0000 0.0000 1748.8595 -7510.9475 300.6204 -9259.8070 -7459.3725 298.7168 316.7719 369.3211 29571.6954 234.8992 280.9316
TCL: Running FEP window   7: Lambda1 0.3    Lambda2 0.35   [dLambda 0.04999999999999999]
TCL: Setting parameter firsttimestep to 0
TCL: Setting parameter alchLambda to 0.3
Info: NONBONDED TABLE R-SQUARED SPACING: 0.0625
Info: NONBONDED TABLE SIZE: 705 POINTS
TCL: Setting parameter alchLambda2 to 0.35
Info: NONBONDED TABLE R-SQUARED SPACING: 0.0625
Info: NONBONDED TABLE SIZE: 705 POINTS
TCL: Running for 1500000 steps
ETITLE: TS BOND ANGLE DIHED IMPRP ELECT VDW BOUNDARY MISC KINETIC TOTAL TEMP POTENTIAL TOTALAVG TEMPAVG PRESSURE GPRESSURE VOLUME PRESSAVG GPRESSAVG
ENERGY: 0 3.3522 4.0094 10.2441 0.0000 -10757.6496 1479.7354 0.0000 0.0000 1748.0065 -7512.3021 300.4737 -9260.3086 -7512.3021 300.4737 271.0569 368.8375 29571.6954 271.0569 368.8375
ENERGY: 300000 2.5818 5.2529 6.6663 0.0000 -10425.7005 1319.5856 0.0000 0.0000 1758.5758 -7333.0381 302.2905 -9091.6139 -7373.0703 304.2770 -838.5977 -749.1014 30307.8317 -197.6236 -134.2238
ENERGY: 600000 4.2901 5.0553 9.2671 0.0000 -10565.9817 1369.1240 0.0000 0.0000 1714.9212 -7463.3240 294.7865 -9178.2452 -7413.3635 302.3649 -493.4685 -394.8219 30095.2926 -340.0381 -274.6692
ENERGY: 900000 1.3237 3.4572 8.0422 0.0000 -10550.9332 1384.8930 0.0000 0.0000 1722.9768 -7430.2403 296.1713 -9153.2171 -7426.7631 301.1541 -394.9639 -331.5432 30124.1060 -274.6837 -211.4241
ENERGY: 1200000 4.4652 7.5404 6.8972 0.0000 -10680.1938 1438.8861 0.0000 0.0000 1793.3942 -7429.0106 308.2757 -9222.4049 -7427.0632 301.4129 -262.2345 -146.0187 30032.5748 -283.8734 -224.2259
ENERGY: 1500000 3.2939 6.1880 9.2472 0.0000 -10532.3372 1418.6913 0.0000 0.0000 1771.2780 -7323.6388 304.4740 -9094.9168 -7414.5045 301.4344 -5.7072 72.9266 30247.9007 -200.2165 -136.7169
TCL: Running FEP window   8: Lambda1 0.35   Lambda2 0.39999999999999997 [dLambda 0.04999999999999999]
TCL: Setting parameter firsttimestep to 0
TCL: Setting parameter alchLambda to 0.35
Info: NONBONDED TABLE R-SQUARED SPACING: 0.0625
Info: NONBONDED TABLE SIZE: 705 POINTS
TCL: Setting parameter alchLambda2 to 0.39999999999999997
Info: NONBONDED TABLE R-SQUARED SPACING: 0.0625
Info: NONBONDED TABLE SIZE: 705 POINTS
TCL: Running for 1500000 steps
ETITLE: TS BOND ANGLE DIHED IMPRP ELECT VDW BOUNDARY MISC KINETIC TOTAL TEMP POTENTIAL TOTALAVG TEMPAVG PRESSURE GPRESSURE VOLUME PRESSAVG GPRESSAVG
ENERGY: 0 3.2939 6.1880 9.2472 0.0000 -10532.3342 1418.9088 0.0000 0.0000 1770.3808 -7324.3154 304.3198 -9094.6962 -7324.3154 304.3198 3.5493 81.8454 30247.9007 3.5493 81.8454
ENERGY: 300000 2.5133 2.5266 13.0443 0.0000 -10664.2867 1483.7089 0.0000 0.0000 1713.6721 -7448.8215 294.5718 -9162.4936 -7404.4118 301.4798 256.0956 336.5664 30052.8564 52.9693 105.8485
ENERGY: 600000 4.3066 2.5374 4.8596 0.0000 -10523.2638 1394.8379 0.0000 0.0000 1773.6884 -7343.0339 304.8883 -9116.7223 -7394.3759 302.5847 149.0020 198.5946 29987.6712 46.5718 93.5670
ENERGY: 900000 2.3708 4.6408 11.1078 0.0000 -10671.8948 1433.7398 0.0000 0.0000 1716.1600 -7503.8755 294.9995 -9220.0355 -7407.2525 301.7346 -242.0483 -166.8570 30131.3936 125.5760 169.0517
ENERGY: 1200000 3.7176 4.8613 6.4890 0.0000 -10644.9259 1400.5630 0.0000 0.0000 1715.5676 -7513.7273 294.8977 -9229.2949 -7416.2662 300.6996 -288.4169 -245.7141 29631.3285 149.4936 195.0856
ENERGY: 1500000 4.0902 9.6111 6.6385 0.0000 -10715.6412 1473.8013 0.0000 0.0000 1772.0317 -7449.4683 304.6036 -9221.5000 -7424.0324 300.3448 226.6973 321.9581 29966.6641 162.1467 213.7322
TCL: Running FEP window   9: Lambda1 0.39999999999999997 Lambda2 0.44999999999999996 [dLambda 0.04999999999999999]
TCL: Setting parameter firsttimestep to 0
TCL: Setting parameter alchLambda to 0.39999999999999997
Info: NONBONDED TABLE R-SQUARED SPACING: 0.0625
Info: NONBONDED TABLE SIZE: 705 POINTS
TCL: Setting parameter alchLambda2 to 0.44999999999999996
Info: NONBONDED TABLE R-SQUARED SPACING: 0.0625
Info: NONBONDED TABLE SIZE: 705 POINTS
TCL: Running for 1500000 steps
ETITLE: TS BOND ANGLE DIHED IMPRP ELECT VDW BOUNDARY MISC KINETIC TOTAL TEMP POTENTIAL TOTALAVG TEMPAVG PRESSURE GPRESSURE VOLUME PRESSAVG GPRESSAVG
ENERGY: 0 4.0902 9.6111 6.6385 0.0000 -10715.6419 1474.0436 0.0000 0.0000 1771.1671 -7450.0913 304.4549 -9221.2584 -7450.0913 304.4549 241.1486 326.2438 29966.6641 241.1486 326.2438
ENERGY: 300000 3.3220 4.1533 9.4184 0.0000 -10626.6937 1462.7892 0.0000 0.0000 1741.0336 -7405.9771 299.2751 -9147.0107 -7431.0562 300.9251 390.1432 447.5031 30118.7761 187.6712 232.3497
ENERGY: 600000 4.4082 4.6642 12.0315 0.0000 -10773.6967 1524.1119 0.0000 0.0000 1839.6276 -7388.8532 316.2230 -9228.4808 -7435.4522 302.9754 697.3965 772.2249 30051.8567 192.1055 243.3335
ENERGY: 900000 4.5026 6.8920 7.0385 0.0000 -10599.0016 1387.7839 0.0000 0.0000 1756.3718 -7436.4128 301.9117 -9192.7846 -7431.1711 301.7552 -508.8294 -423.3774 30500.5352 53.2092 112.1794
ENERGY: 1200000 3.2743 4.8144 6.7633 0.0000 -10596.7772 1414.6900 0.0000 0.0000 1805.6412 -7361.5940 310.3809 -9167.2352 -7419.1444 302.1591 -104.4356 -116.6084 30101.9068 76.1502 134.0751
ENERGY: 1500000 3.7340 3.8559 8.5660 0.0000 -10552.0230 1360.3259 0.0000 0.0000 1762.4934 -7413.0478 302.9640 -9175.5412 -7423.2147 300.9560 -590.0949 -492.8092 29952.4020 10.8734 70.1296
TCL: Running FEP window  10: Lambda1 0.44999999999999996 Lambda2 0.49999999999999994 [dLambda 0.04999999999999999]
TCL: Setting parameter firsttimestep to 0
TCL: Setting parameter alchLambda to 0.44999999999999996
Info: NONBONDED TABLE R-SQUARED SPACING: 0.0625
Info: NONBONDED TABLE SIZE: 705 POINTS
TCL: Setting parameter alchLambda2 to 0.49999999999999994
Info: NONBONDED TABLE R-SQUARED SPACING: 0.0625
Info: NONBONDED TABLE SIZE: 705 POINTS
TCL: Running for 1500000 steps
ETITLE: TS BOND ANGLE DIHED IMPRP ELECT VDW BOUNDARY MISC KINETIC TOTAL TEMP POTENTIAL TOTALAVG TEMPAVG PRESSURE GPRESSURE VOLUME PRESSAVG GPRESSAVG
ENERGY: 0 3.7340 3.8559 8.5660 0.0000 -10552.0214 1360.4974 0.0000 0.0000 1761.6755 -7413.6925 302.8234 -9175.3680 -7413.6925 302.8234 -572.7922 -483.1781 29952.4020 -572.7922 -483.1781
ENERGY: 300000 3.2021 3.7935 9.5067 0.0000 -10633.6647 1410.7389 0.0000 0.0000 1755.4394 -7450.9840 301.7514 -9206.4235 -7415.6309 302.5459 -593.8722 -497.9293 30513.0259 -386.2999 -291.9018
ENERGY: 600000 3.1756 2.5353 9.3137 0.0000 -10688.9738 1502.1927 0.0000 0.0000 1815.5702 -7356.1864 312.0876 -9171.7565 -7416.1369 302.6380 805.6615 887.7926 29991.7807 -118.9724 -42.8702
ENERGY: 900000 2.0261 3.1165 9.7512 0.0000 -10635.0589 1448.5608 0.0000 0.0000 1698.1763 -7473.4279 291.9082 -9171.6042 -7422.3484 300.6284 0.1895 105.4151 30275.7259 -156.7415 -78.4818
ENERGY: 1200000 2.1945 5.2851 8.1588 0.0000 -10556.0467 1416.2424 0.0000 0.0000 1751.0152 -7373.1507 300.9909 -9124.1659 -7415.7585 300.0646 -7.4449 87.1759 30273.2258 -142.3653 -67.7720
ENERGY: 1500000 5.0637 2.2721 7.7101 0.0000 -10663.8705 1468.0599 0.0000 0.0000 1703.1635 -7477.6013 292.7654 -9180.7648 -7415.1714 299.6842 28.0635 69.4947 30124.0262 -187.8504 -116.3353
TCL: Running FEP window  11: Lambda1 0.49999999999999994 Lambda2 0.5499999999999999 [dLambda 0.04999999999999999]
TCL: Setting parameter firsttimestep to 0
TCL: Setting parameter alchLambda to 0.49999999999999994
Info: NONBONDED TABLE R-SQUARED SPACING: 0.0625
Info: NONBONDED TABLE SIZE: 705 POINTS
TCL: Setting parameter alchLambda2 to 0.5499999999999999
Info: NONBONDED TABLE R-SQUARED SPACING: 0.0625
Info: NONBONDED TABLE SIZE: 705 POINTS
TCL: Running for 1500000 steps
ETITLE: TS BOND ANGLE DIHED IMPRP ELECT VDW BOUNDARY MISC KINETIC TOTAL TEMP POTENTIAL TOTALAVG TEMPAVG PRESSURE GPRESSURE VOLUME PRESSAVG GPRESSAVG
ENERGY: 0 5.0637 2.2721 7.7101 0.0000 -10663.8701 1467.9130 0.0000 0.0000 1702.2743 -7478.6370 292.6126 -9180.9113 -7478.6370 292.6126 -1.4321 73.4690 30124.0262 -1.4321 73.4690
ENERGY: 300000 3.2659 5.8107 11.2093 0.0000 -10676.4095 1386.5365 0.0000 0.0000 1753.6737 -7515.9134 301.4479 -9269.5872 -7434.6259 299.4304 -817.1230 -742.7349 30300.5022 -331.6202 -281.0715
ENERGY: 600000 2.0126 2.1784 8.0331 0.0000 -10622.8565 1460.4668 0.0000 0.0000 1708.3954 -7441.7702 293.6648 -9150.1656 -7445.7003 299.2272 224.4565 285.6450 30163.0847 -193.2681 -135.9977
ENERGY: 900000 3.6965 5.0359 5.6945 0.0000 -10713.0845 1508.3884 0.0000 0.0000 1757.5754 -7432.6938 302.1186 -9190.2692 -7438.6566 300.1641 872.0216 925.6827 29656.3158 -91.8568 -35.7970
ENERGY: 1200000 1.3930 4.0952 9.0067 0.0000 -10719.1953 1466.9304 0.0000 0.0000 1775.1023 -7462.6678 305.1314 -9237.7701 -7440.2741 299.5439 580.0412 672.5394 29387.4698 -99.2653 -32.5435
ENERGY: 1500000 2.5720 4.8849 8.5366 0.0000 -10708.8991 1475.0240 0.0000 0.0000 1759.0789 -7458.8027 302.3770 -9217.8816 -7442.6055 299.8652 63.9672 119.5753 30192.4713 -106.9294 -44.8559
TCL: Running FEP window  12: Lambda1 0.5499999999999999 Lambda2 0.6    [dLambda 0.050000000000000044]
TCL: Setting parameter firsttimestep to 0
TCL: Setting parameter alchLambda to 0.5499999999999999
Info: NONBONDED TABLE R-SQUARED SPACING: 0.0625
Info: NONBONDED TABLE SIZE: 705 POINTS
TCL: Setting parameter alchLambda2 to 0.6
Info: NONBONDED TABLE R-SQUARED SPACING: 0.0625
Info: NONBONDED TABLE SIZE: 705 POINTS
TCL: Running for 1500000 steps
ETITLE: TS BOND ANGLE DIHED IMPRP ELECT VDW BOUNDARY MISC KINETIC TOTAL TEMP POTENTIAL TOTALAVG TEMPAVG PRESSURE GPRESSURE VOLUME PRESSAVG GPRESSAVG
ENERGY: 0 2.5720 4.8849 8.5366 0.0000 -10708.9137 1474.8238 0.0000 0.0000 1758.2065 -7459.8898 302.2271 -9218.0963 -7459.8898 302.2271 45.3812 122.0385 30192.4713 45.3812 122.0385
ENERGY: 300000 5.4916 6.5237 8.7645 0.0000 -10644.7863 1379.6830 0.0000 0.0000 1756.7754 -7487.5480 301.9811 -9244.3234 -7466.0801 299.5760 -81.0658 -80.3433 29575.1545 94.4724 156.9802
ENERGY: 600000 4.6347 5.2539 5.3641 0.0000 -10580.6125 1438.2338 0.0000 0.0000 1714.8907 -7412.2353 294.7813 -9127.1260 -7452.1508 299.1037 -119.0713 -62.4647 30350.7731 59.6227 117.1943
ENERGY: 900000 4.2848 9.5895 7.5285 0.0000 -10632.9905 1433.3572 0.0000 0.0000 1782.4251 -7395.8054 306.3901 -9178.2305 -7458.8830 299.0070 194.5919 303.8742 29871.5556 -0.1728 67.5497
ENERGY: 1200000 0.9995 8.5598 7.9501 0.0000 -10612.0738 1476.6960 0.0000 0.0000 1699.3624 -7418.5060 292.1121 -9117.8684 -7457.7694 297.6186 529.1862 548.6806 29962.1436 43.3411 110.5551
ENERGY: 1500000 3.3759 5.3821 12.1720 0.0000 -10476.3543 1286.3301 0.0000 0.0000 1755.9480 -7413.1462 301.8389 -9169.0942 -7459.0136 297.9793 -1154.2310 -1148.4096 30179.4317 6.4582 70.4219
TCL: Running FEP window  13: Lambda1 0.6    Lambda2 0.65   [dLambda 0.050000000000000044]
TCL: Setting parameter firsttimestep to 0
TCL: Setting parameter alchLambda to 0.6
Info: NONBONDED TABLE R-SQUARED SPACING: 0.0625
Info: NONBONDED TABLE SIZE: 705 POINTS
TCL: Setting parameter alchLambda2 to 0.65
Info: NONBONDED TABLE R-SQUARED SPACING: 0.0625
Info: NONBONDED TABLE SIZE: 705 POINTS
TCL: Running for 1500000 steps
ETITLE: TS BOND ANGLE DIHED IMPRP ELECT VDW BOUNDARY MISC KINETIC TOTAL TEMP POTENTIAL TOTALAVG TEMPAVG PRESSURE GPRESSURE VOLUME PRESSAVG GPRESSAVG
ENERGY: 0 3.3759 5.3821 12.1720 0.0000 -10477.0870 1286.1065 0.0000 0.0000 1755.0594 -7414.9911 301.6861 -9170.0506 -7414.9911 301.6861 -1224.5182 -1145.3138 30179.4317 -1224.5182 -1145.3138
ENERGY: 300000 2.3627 5.9934 6.3315 0.0000 -10727.4942 1465.4469 0.0000 0.0000 1738.2918 -7509.0679 298.8038 -9247.3597 -7423.3651 301.6920 612.4211 636.4200 29447.2794 -417.3793 -350.2647
ENERGY: 600000 2.1263 5.2171 11.1124 0.0000 -10754.3881 1492.2681 0.0000 0.0000 1730.0769 -7513.5873 297.3917 -9243.6643 -7444.1413 299.2086 398.1950 488.1342 29772.2860 -284.2225 -229.3011
ENERGY: 900000 3.2313 6.3180 7.9324 0.0000 -10513.5917 1355.4320 0.0000 0.0000 1732.6429 -7408.0351 297.8328 -9140.6780 -7442.7075 299.1466 -334.2291 -330.5890 30022.3528 -141.3726 -95.7420
ENERGY: 1200000 1.1188 4.3733 7.4860 0.0000 -10517.1064 1332.7038 0.0000 0.0000 1767.6837 -7403.7408 303.8562 -9171.4245 -7432.1576 300.0299 -650.1246 -554.0096 29922.7074 -239.8515 -189.6158
ENERGY: 1500000 6.3584 4.9515 6.0579 0.0000 -10551.4015 1391.8984 0.0000 0.0000 1739.5872 -7402.5480 299.0265 -9142.1353 -7432.9335 300.1797 -338.4777 -337.0792 30534.4918 -161.0141 -117.2748
TCL: Running FEP window  14: Lambda1 0.65   Lambda2 0.7000000000000001 [dLambda 0.050000000000000044]
TCL: Setting parameter firsttimestep to 0
TCL: Setting parameter alchLambda to 0.65
Info: NONBONDED TABLE R-SQUARED SPACING: 0.0625
Info: NONBONDED TABLE SIZE: 705 POINTS
TCL: Setting parameter alchLambda2 to 0.7000000000000001
Info: NONBONDED TABLE R-SQUARED SPACING: 0.0625
Info: NONBONDED TABLE SIZE: 705 POINTS
TCL: Running for 1500000 steps
ETITLE: TS BOND ANGLE DIHED IMPRP ELECT VDW BOUNDARY MISC KINETIC TOTAL TEMP POTENTIAL TOTALAVG TEMPAVG PRESSURE GPRESSURE VOLUME PRESSAVG GPRESSAVG
ENERGY: 0 6.3584 4.9515 6.0579 0.0000 -10552.5415 1392.0331 0.0000 0.0000 1738.6959 -7404.4447 298.8733 -9143.1406 -7404.4447 298.8733 -406.7344 -330.7529 30534.4918 -406.7344 -330.7529
ENERGY: 300000 3.7313 4.9508 6.6781 0.0000 -10580.3317 1387.1599 0.0000 0.0000 1724.9875 -7452.8241 296.5169 -9177.8115 -7484.1558 296.9681 -307.4547 -197.3233 29737.7365 -205.1178 -128.8873
ENERGY: 600000 1.2169 9.1689 7.2155 0.0000 -10732.8374 1437.0030 0.0000 0.0000 1773.5986 -7504.6344 304.8729 -9278.2330 -7478.1603 297.7577 36.1901 -6.8277 29916.4069 -120.4881 -66.7359
ENERGY: 900000 6.6292 4.1034 7.9339 0.0000 -10551.3401 1332.0934 0.0000 0.0000 1740.6160 -7459.9641 299.2034 -9200.5801 -7465.5906 299.0465 -849.9456 -782.8256 30122.9186 -133.3357 -87.8358
ENERGY: 1200000 2.5744 2.2726 9.7191 0.0000 -10602.2837 1322.5059 0.0000 0.0000 1766.3475 -7498.8641 303.6265 -9265.2116 -7463.9562 299.5056 -1033.6879 -923.5711 30215.2358 -188.1029 -134.9057
ENERGY: 1500000 1.1293 2.2323 9.5365 0.0000 -10792.6195 1498.8692 0.0000 0.0000 1720.3939 -7560.4582 295.7273 -9280.8522 -7473.1141 298.6035 147.3178 160.5826 30304.3537 -162.0022 -112.0848
TCL: Running FEP window  15: Lambda1 0.7000000000000001 Lambda2 0.7500000000000001 [dLambda 0.050000000000000044]
TCL: Setting parameter firsttimestep to 0
TCL: Setting parameter alchLambda to 0.7000000000000001
Info: NONBONDED TABLE R-SQUARED SPACING: 0.0625
Info: NONBONDED TABLE SIZE: 705 POINTS
TCL: Setting parameter alchLambda2 to 0.7500000000000001
Info: NONBONDED TABLE R-SQUARED SPACING: 0.0625
Info: NONBONDED TABLE SIZE: 705 POINTS
TCL: Running for 1500000 steps
ETITLE: TS BOND ANGLE DIHED IMPRP ELECT VDW BOUNDARY MISC KINETIC TOTAL TEMP POTENTIAL TOTALAVG TEMPAVG PRESSURE GPRESSURE VOLUME PRESSAVG GPRESSAVG
ENERGY: 0 1.1293 2.2324 9.5365 0.0000 -10793.2046 1498.6099 0.0000 0.0000 1719.5122 -7562.1842 295.5757 -9281.6965 -7562.1842 295.5757 88.5163 166.5355 30304.3537 88.5163 166.5355
ENERGY: 300000 2.5312 4.2252 7.5717 0.0000 -10694.3107 1482.8361 0.0000 0.0000 1725.6792 -7471.4673 296.6358 -9197.1465 -7445.5345 299.9327 495.1080 603.9820 29654.5324 -278.7099 -211.1196
ENERGY: 600000 2.1300 5.9729 7.7651 0.0000 -10700.2501 1475.8725 0.0000 0.0000 1773.3924 -7435.1172 304.8375 -9208.5096 -7429.1899 301.3216 531.3232 588.4481 29773.0937 -56.7461 9.9575
ENERGY: 900000 1.6110 8.3069 8.7433 0.0000 -10690.9021 1484.2152 0.0000 0.0000 1757.8422 -7430.1835 302.1645 -9188.0258 -7427.8106 300.8519 600.4799 648.8147 30073.8296 74.5475 132.8010
ENERGY: 1200000 5.6171 7.0866 7.0355 0.0000 -10615.6434 1461.5691 0.0000 0.0000 1733.5028 -7400.8324 297.9806 -9134.3352 -7420.3770 301.0755 182.9937 219.3301 30418.1364 66.0415 124.1672
ENERGY: 1500000 2.2528 3.1466 8.3674 0.0000 -10540.2448 1393.1979 0.0000 0.0000 1766.2203 -7367.0599 303.6046 -9133.2802 -7422.0289 301.2146 -127.2798 -47.7220 30175.4626 115.3768 175.3238
TCL: Running FEP window  16: Lambda1 0.7500000000000001 Lambda2 0.8000000000000002 [dLambda 0.050000000000000044]
TCL: Setting parameter firsttimestep to 0
TCL: Setting parameter alchLambda to 0.7500000000000001
Info: NONBONDED TABLE R-SQUARED SPACING: 0.0625
Info: NONBONDED TABLE SIZE: 705 POINTS
TCL: Setting parameter alchLambda2 to 0.8000000000000002
Info: NONBONDED TABLE R-SQUARED SPACING: 0.0625
Info: NONBONDED TABLE SIZE: 705 POINTS
TCL: Running for 1500000 steps
ETITLE: TS BOND ANGLE DIHED IMPRP ELECT VDW BOUNDARY MISC KINETIC TOTAL TEMP POTENTIAL TOTALAVG TEMPAVG PRESSURE GPRESSURE VOLUME PRESSAVG GPRESSAVG
ENERGY: 0 2.2528 3.1466 8.3674 0.0000 -10542.2199 1395.7667 0.0000 0.0000 1765.3816 -7367.3049 303.4604 -9132.6865 -7367.3049 303.4604 -94.0941 -20.4820 30175.4626 -94.0941 -20.4820
ENERGY: 300000 3.3640 4.3935 7.4765 0.0000 -10630.1866 1404.0989 0.0000 0.0000 1737.5646 -7473.2892 298.6788 -9210.8538 -7387.8941 302.7869 -144.7403 -104.7538 30156.5269 -160.1497 -91.8558
ENERGY: 600000 1.0671 3.9095 13.9975 0.0000 -10613.1287 1396.8810 0.0000 0.0000 1793.1211 -7404.1525 308.2287 -9197.2736 -7390.5875 302.8643 -377.8306 -336.8019 30335.9452 -228.4139 -167.9786
ENERGY: 900000 0.9922 5.8453 8.3049 0.0000 -10555.3805 1416.1664 0.0000 0.0000 1734.1913 -7389.8804 298.0990 -9124.0717 -7393.0206 302.2295 19.1776 87.5362 30338.8401 -187.5635 -119.3153
ENERGY: 1200000 11.3190 8.7452 11.1893 0.0000 -10544.9746 1321.5807 0.0000 0.0000 1717.1244 -7475.0160 295.1653 -9192.1404 -7407.0088 300.1595 -1043.2693 -1043.9753 30246.4122 -224.9747 -168.3689
ENERGY: 1500000 3.9813 7.5790 8.6792 0.0000 -10525.3962 1251.7223 0.0000 0.0000 1800.8891 -7452.5455 309.5640 -9253.4345 -7427.3347 299.7967 -1539.0331 -1463.7735 29779.6043 -247.0439 -194.2945
TCL: Running FEP window  17: Lambda1 0.8000000000000002 Lambda2 0.8500000000000002 [dLambda 0.050000000000000044]
TCL: Setting parameter firsttimestep to 0
TCL: Setting parameter alchLambda to 0.8000000000000002
Info: NONBONDED TABLE R-SQUARED SPACING: 0.0625
Info: NONBONDED TABLE SIZE: 705 POINTS
TCL: Setting parameter alchLambda2 to 0.8500000000000002
Info: NONBONDED TABLE R-SQUARED SPACING: 0.0625
Info: NONBONDED TABLE SIZE: 705 POINTS
TCL: Running for 1500000 steps
ETITLE: TS BOND ANGLE DIHED IMPRP ELECT VDW BOUNDARY MISC KINETIC TOTAL TEMP POTENTIAL TOTALAVG TEMPAVG PRESSURE GPRESSURE VOLUME PRESSAVG GPRESSAVG
ENERGY: 0 3.9813 7.5790 8.6792 0.0000 -10528.2825 1253.5141 0.0000 0.0000 1800.0620 -7454.4669 309.4218 -9254.5290 -7454.4669 309.4218 -1529.2602 -1437.2393 29779.6043 -1529.2602 -1437.2393
ENERGY: 300000 7.5923 9.2579 9.1717 0.0000 -10550.8715 1443.1084 0.0000 0.0000 1730.2138 -7351.5274 297.4153 -9081.7412 -7424.6021 302.2457 24.1622 91.6607 30492.8852 -581.2343 -509.8334
ENERGY: 600000 3.7281 4.8477 8.7714 0.0000 -10531.6377 1358.8982 0.0000 0.0000 1778.9155 -7376.4768 305.7868 -9155.3923 -7422.7826 303.4423 -299.0333 -291.7116 30067.1785 -270.7069 -209.1755
ENERGY: 900000 2.9417 6.1035 8.9641 0.0000 -10757.2490 1503.5836 0.0000 0.0000 1749.1971 -7486.4590 300.6784 -9235.6561 -7429.3462 301.9492 527.1508 629.4003 29888.2791 -149.7083 -82.3546
ENERGY: 1200000 3.5402 7.4036 8.0812 0.0000 -10608.8036 1354.7188 0.0000 0.0000 1741.8425 -7493.2173 299.4142 -9235.0598 -7443.8236 302.2453 -511.9565 -523.7884 29768.3289 -172.7823 -108.3310
ENERGY: 1500000 2.5048 4.5705 5.5587 0.0000 -10653.1300 1403.4392 0.0000 0.0000 1747.3027 -7489.7542 300.3528 -9237.0569 -7437.0562 302.1936 -118.6650 -58.7441 29731.6989 -150.8090 -90.3698
TCL: Running FEP window  18: Lambda1 0.8500000000000002 Lambda2 0.9000000000000002 [dLambda 0.050000000000000044]
TCL: Setting parameter firsttimestep to 0
TCL: Setting parameter alchLambda to 0.8500000000000002
Info: NONBONDED TABLE R-SQUARED SPACING: 0.0625
Info: NONBONDED TABLE SIZE: 705 POINTS
TCL: Setting parameter alchLambda2 to 0.9000000000000002
Info: NONBONDED TABLE R-SQUARED SPACING: 0.0625
Info: NONBONDED TABLE SIZE: 705 POINTS
TCL: Running for 1500000 steps
ETITLE: TS BOND ANGLE DIHED IMPRP ELECT VDW BOUNDARY MISC KINETIC TOTAL TEMP POTENTIAL TOTALAVG TEMPAVG PRESSURE GPRESSURE VOLUME PRESSAVG GPRESSAVG
ENERGY: 0 2.5048 4.5705 5.5587 0.0000 -10655.6111 1405.2978 0.0000 0.0000 1746.4433 -7491.2360 300.2050 -9237.6792 -7491.2360 300.2050 -116.9232 -29.9537 29731.6989 -116.9232 -29.9537
ENERGY: 300000 3.1566 4.6054 5.6287 0.0000 -10758.9369 1533.3214 0.0000 0.0000 1757.0886 -7455.1363 302.0349 -9212.2249 -7458.2076 300.3102 1029.4631 1091.9254 29556.3570 361.3770 434.5902
ENERGY: 600000 7.1284 4.9698 8.8347 0.0000 -10606.5732 1413.1883 0.0000 0.0000 1800.7868 -7371.6652 309.5464 -9172.4520 -7454.0503 301.3623 -123.7245 -32.1986 29888.9300 390.3063 465.7462
ENERGY: 900000 5.6284 3.3723 8.7012 0.0000 -10503.0883 1339.7681 0.0000 0.0000 1797.3436 -7348.2747 308.9545 -9145.6183 -7442.5395 301.5678 -748.7914 -692.1954 30563.5690 108.6279 175.3536
ENERGY: 1200000 2.8821 5.5457 8.4226 0.0000 -10640.8986 1430.1261 0.0000 0.0000 1744.6976 -7449.2245 299.9050 -9193.9221 -7448.0622 301.1232 -120.4055 -45.6359 30190.5781 -40.4191 22.9374
ENERGY: 1500000 1.4490 5.1045 12.1550 0.0000 -10562.9892 1422.7853 0.0000 0.0000 1805.9832 -7315.5122 310.4397 -9121.4955 -7440.0331 300.9391 383.9430 519.8653 29843.3922 -20.3775 41.9488
TCL: Running FEP window  19: Lambda1 0.9000000000000002 Lambda2 0.9500000000000003 [dLambda 0.050000000000000044]
TCL: Setting parameter firsttimestep to 0
TCL: Setting parameter alchLambda to 0.9000000000000002
Info: NONBONDED TABLE R-SQUARED SPACING: 0.0625
Info: NONBONDED TABLE SIZE: 705 POINTS
TCL: Setting parameter alchLambda2 to 0.9500000000000003
Info: NONBONDED TABLE R-SQUARED SPACING: 0.0625
Info: NONBONDED TABLE SIZE: 705 POINTS
TCL: Running for 1500000 steps
ETITLE: TS BOND ANGLE DIHED IMPRP ELECT VDW BOUNDARY MISC KINETIC TOTAL TEMP POTENTIAL TOTALAVG TEMPAVG PRESSURE GPRESSURE VOLUME PRESSAVG GPRESSAVG
ENERGY: 0 1.4490 5.1045 12.1550 0.0000 -10565.9727 1424.1669 0.0000 0.0000 1805.1369 -7317.9605 310.2942 -9123.0973 -7317.9605 310.2942 449.9811 539.4368 29843.3922 449.9811 539.4368
ENERGY: 300000 4.3069 7.5989 7.5187 0.0000 -10580.0692 1406.9765 0.0000 0.0000 1799.8827 -7353.7855 309.3910 -9153.6682 -7397.0174 303.8883 -262.4365 -157.8188 30192.6895 151.4058 224.6337
ENERGY: 600000 4.2964 4.8558 6.2650 0.0000 -10583.9353 1348.0070 0.0000 0.0000 1822.4670 -7398.0442 313.2731 -9220.5112 -7402.6878 304.8079 -653.7298 -631.4489 29992.7983 -4.1893 61.5912
ENERGY: 900000 3.3004 6.6308 7.9920 0.0000 -10649.8189 1481.0104 0.0000 0.0000 1765.3595 -7385.5258 303.4566 -9150.8852 -7408.5652 303.5279 807.6073 837.8156 29624.8174 -88.6173 -25.4057
ENERGY: 1200000 4.2937 2.4589 12.8011 0.0000 -10601.2865 1419.4141 0.0000 0.0000 1703.6408 -7458.6780 292.8475 -9162.3187 -7417.7106 301.8926 -141.1814 -149.8361 30219.8044 -51.6447 3.5275
ENERGY: 1500000 3.1583 5.7116 6.6136 0.0000 -10750.6783 1544.7742 0.0000 0.0000 1806.0650 -7384.3556 310.4537 -9190.4206 -7410.6745 302.7863 1071.1131 1119.2392 29843.4408 37.3011 89.8551
TCL: Running FEP window  20: Lambda1 0.9500000000000003 Lambda2 1.0    [dLambda 0.04999999999999971]
TCL: Setting parameter firsttimestep to 0
TCL: Setting parameter alchLambda to 0.9500000000000003
Info: NONBONDED TABLE R-SQUARED SPACING: 0.0625
Info: NONBONDED TABLE SIZE: 705 POINTS
TCL: Setting parameter alchLambda2 to 1.0
Info: NONBONDED TABLE R-SQUARED SPACING: 0.0625
Info: NONBONDED TABLE SIZE: 705 POINTS
TCL: Running for 1500000 steps
ETITLE: TS BOND ANGLE DIHED IMPRP ELECT VDW BOUNDARY MISC KINETIC TOTAL TEMP POTENTIAL TOTALAVG TEMPAVG PRESSURE GPRESSURE VOLUME PRESSAVG GPRESSAVG
ENERGY: 0 3.1582 5.7116 6.6136 0.0000 -10753.1375 1545.0104 0.0000 0.0000 1805.2183 -7387.4254 310.3082 -9192.6437 -7387.4254 310.3082 1048.1182 1132.7170 29843.4408 1048.1182 1132.7170
ENERGY: 300000 5.5013 4.9220 10.9007 0.0000 -10712.2929 1467.5022 0.0000 0.0000 1752.0267 -7471.4400 301.1648 -9223.4667 -7447.4013 304.2664 339.9354 398.9150 30198.9435 318.5396 413.3951
ENERGY: 600000 3.7984 2.2988 7.1638 0.0000 -10705.0061 1429.5673 0.0000 0.0000 1758.0122 -7504.1657 302.1937 -9262.1779 -7459.5295 302.2603 -46.2642 -5.4830 29838.2582 111.3642 189.7470
ENERGY: 900000 3.5568 2.4905 8.2178 0.0000 -10640.5910 1419.8239 0.0000 0.0000 1681.6990 -7524.8029 289.0758 -9206.5019 -7471.7946 299.6749 55.2512 116.4885 29760.6309 96.6137 169.1363
ENERGY: 1200000 2.1691 5.7614 6.6624 0.0000 -10701.5693 1542.7901 0.0000 0.0000 1746.8325 -7397.3538 300.2719 -9144.1863 -7463.3503 299.7458 1137.8448 1243.4444 30047.5988 68.3498 145.6114
ENERGY: 1500000 1.9781 2.1481 10.1317 0.0000 -10599.6842 1422.2234 0.0000 0.0000 1799.3972 -7363.8056 309.3075 -9163.2028 -7457.2607 300.8054 229.9767 315.7890 29683.5863 23.3313 92.2616
TCL: Exiting due to exit command.
