Info: SIMULATION PARAMETERS:
Info: TIMESTEP               2
Info: NUMBER OF STEPS        0
Info: STEPS PER CYCLE        10
Info: PERIODIC CELL BASIS 1  31.0065 0 0
Info: PERIODIC CELL BASIS 2  0 29.6 0
Info: PERIODIC CELL BASIS 3  0 0 32.9642
Info: PERIODIC CELL CENTER   0 0 0
Info: WRAPPING WATERS AROUND PERIODIC BOUNDARIES ON OUTPUT.
Info: WRAPPING ALL CLUSTERS AROUND PERIODIC BOUNDARIES ON OUTPUT.
Info: FIRST LDB TIMESTEP     50
Info: LAST LDB TIMESTEP     -1
Info: HOM BACKGROUND SCALING 1
Info: PME BACKGROUND SCALING 1
Info: MIN ATOMS PER PATCH    40
Info: EMPTY PATCH LOAD       40 ATOMS
Info: VELOCITY FILE          mobley_3515580_equil.vel
Info: CENTER OF MASS MOVING INITIALLY? NO
Info: DIELECTRIC             1
Info: EXCLUDE                SCALED ONE-FOUR
Info: 1-4 ELECTROSTATICS SCALED BY 0.833333
Info: MODIFIED 1-4 VDW PARAMETERS WILL BE USED
Info: DCD FILENAME           mobley_3515580_prod.dcd
Info: DCD FREQUENCY          100000
Info: DCD FIRST STEP         100000
Info: DCD FILE WILL CONTAIN UNIT CELL DATA
Info: XST FILENAME           mobley_3515580_prod.xst
Info: XST FREQUENCY          100000
Info: NO VELOCITY DCD OUTPUT
Info: NO FORCE DCD OUTPUT
Info: OUTPUT FILENAME        mobley_3515580_prod
Info: BINARY OUTPUT FILES WILL BE USED
Info: RESTART FILENAME       mobley_3515580_prod.restart
Info: RESTART FREQUENCY      100000
Info: BINARY RESTART FILES WILL BE USED
Info: CUTOFF                 9
Info: PAIRLIST DISTANCE      11
Info: PAIRLIST SHRINK RATE   0.01
Info: PAIRLIST GROW RATE     0.01
Info: PAIRLIST TRIGGER       0.3
Info: PAIRLISTS PER CYCLE    2
Info: PAIRLISTS ENABLED
Info: MARGIN                 2
Info: HYDROGEN GROUP CUTOFF  2.5
Info: PATCH DIMENSION        15.5
Info: ENERGY OUTPUT STEPS    100000
Info: ENERGY EVALUATION STEPS    100000
Info: OUTPUT ENERGY PRECISION 4
Info: CROSSTERM ENERGY INCLUDED IN DIHEDRAL
Info: TIMING OUTPUT STEPS    1000000
Info: PRESSURE OUTPUT STEPS  100000
Info: ALCHEMICAL FEP ON
Info: FEP CURRENT LAMBDA VALUE     1
Info: FEP COMPARISON LAMBDA VALUE  0.95
Info: FEP INTRA-ALCHEMICAL NON-BONDED INTERACTIONS WILL BE RETAINED
Info: FEP INTRA-ALCHEMICAL BONDED INTERACTIONS WILL BE RETAINED
Info: FEP VDW SHIFTING COEFFICIENT 5
Info: FEP ELEC. ACTIVE FOR ANNIHILATED PARTICLES BETWEEN LAMBDA = 0 AND LAMBDA = 0.5
Info: FEP ELEC. ACTIVE FOR EXNIHILATED PARTICLES BETWEEN LAMBDA = 0.5 AND LAMBDA = 1
Info: FEP VDW ACTIVE FOR ANNIHILATED PARTICLES BETWEEN LAMBDA = 0 AND LAMBDA = 1
Info: FEP VDW ACTIVE FOR EXNIHILATED PARTICLES BETWEEN LAMBDA = 0 AND LAMBDA = 1
Info: FEP BOND ACTIVE FOR ANNIHILATED PARTICLES BETWEEN LAMBDA = 1 AND LAMBDA = 1
Info: FEP BOND ACTIVE FOR EXNIHILATED PARTICLES BETWEEN LAMBDA = 0 AND LAMBDA = 0
Info: LANGEVIN DYNAMICS ACTIVE
Info: LANGEVIN TEMPERATURE   300
Info: LANGEVIN USING BBK INTEGRATOR
Info: LANGEVIN DAMPING COEFFICIENT IS 1 INVERSE PS
Info: LANGEVIN DYNAMICS APPLIED TO HYDROGENS
Info: LANGEVIN PISTON PRESSURE CONTROL ACTIVE
Info:        TARGET PRESSURE IS 1.01325 BAR
Info:     OSCILLATION PERIOD IS 50 FS
Info:             DECAY TIME IS 25 FS
Info:     PISTON TEMPERATURE IS 300 K
Info:       PRESSURE CONTROL IS GROUP-BASED
Info:    INITIAL STRAIN RATE IS -0.000574643 -0.000574643 -0.000574643
Info:       CELL FLUCTUATION IS ISOTROPIC
Info: PARTICLE MESH EWALD (PME) ACTIVE
Info: PME TOLERANCE               1e-06
Info: PME EWALD COEFFICIENT       0.348832
Info: PME INTERPOLATION ORDER     4
Info: PME GRID DIMENSIONS         32 32 36
Info: PME MAXIMUM GRID SPACING    1
Info: PME CALCULATION WILL BE PERFORMED ON GPU
Info: FULL ELECTROSTATIC EVALUATION FREQUENCY      2
Info: USING VERLET I (r-RESPA) MTS SCHEME.
Info: C1 SPLITTING OF LONG RANGE ELECTROSTATICS
Info: PLACING ATOMS IN PATCHES BY HYDROGEN GROUPS
Info: RIGID BONDS TO HYDROGEN : ALL
Info:         ERROR TOLERANCE : 1e-08
Info:          MAX ITERATIONS : 100
Info: RIGID WATER USING SETTLE ALGORITHM
Info: RANDOM NUMBER SEED     1743786033
Info: USE HYDROGEN BONDS?    NO
Info: Using AMBER format force field!
Info: AMBER PARM FILE        mobley_3515580.prmtop
Info: COORDINATE PDB         mobley_3515580.pdb
Info: Exclusions will be read from PARM file!
Info: SCNB (VDW SCALING)     2
Info: USING ARITHMETIC MEAN TO COMBINE L-J SIGMA PARAMETERS
Info: BINARY COORDINATES     mobley_3515580_equil.coor
Info: SUMMARY OF PARAMETERS:
Info: 9 BONDS
Info: 8 ANGLES
Info:   8 HARMONIC
Info:   0 COSINE-BASED
Info: 4 DIHEDRAL
Info: 0 IMPROPER
Info: 0 CROSSTERM
Info: 0 VDW
Info: 36 VDW_PAIRS
Info: 0 NBTHOLE_PAIRS
Info: To read alchdata from file: mobley_3515580.pdb
Info: To read alchflag data from column: 5
Info: STRUCTURE SUMMARY:
Info: 2927 ATOMS
Info: 2927 BONDS
Info: 26 ANGLES
Info: 37 DIHEDRALS
Info: 0 IMPROPERS
Info: 0 CROSSTERMS
Info: 2981 EXCLUSIONS
Info: 2918 RIGID BONDS
Info: ALCH: 0 ATOMS TO DISAPPEAR IN FINAL STATE
Info: ALCH: 17 ATOMS TO APPEAR IN FINAL STATE
Info: 5863 DEGREES OF FREEDOM
Info: 979 HYDROGEN GROUPS
Info: 4 ATOMS IN LARGEST HYDROGEN GROUP
Info: 979 MIGRATION GROUPS
Info: 4 ATOMS IN LARGEST MIGRATION GROUP
Info: TOTAL MASS = 17599.7 amu
Info: TOTAL CHARGE = -0.000199955 e
Info: MASS DENSITY = 0.965996 g/cm^3
Info: ATOM DENSITY = 0.0967464 atoms/A^3
Info: ADDED 0 IMPLICIT EXCLUSIONS
Info: NONBONDED TABLE R-SQUARED SPACING: 0.0625
Info: NONBONDED TABLE SIZE: 705 POINTS
Info: REMOVING COM VELOCITY 0.180693 -0.0391972 -0.23031
Info: Use 3D box decompostion in PME FFT.
Info: Updated CUDA force table with 4096 elements.
Info: Updated CUDA LJ table with 8 x 8 elements.
Info: Found 16 unique exclusion lists needing 36 bytes
TCL: Running for 1500000 steps
ETITLE: TS BOND ANGLE DIHED IMPRP ELECT VDW BOUNDARY MISC KINETIC TOTAL TEMP POTENTIAL TOTALAVG TEMPAVG PRESSURE GPRESSURE VOLUME PRESSAVG GPRESSAVG
ENERGY: 0 2.1457 4.3504 8.7459 0.0000 -10534.1340 1384.6487 0.0000 0.0000 1745.4313 -7388.8119 299.6217 -9134.2432 -7388.8119 299.6217 -160.3830 -71.8514 30254.3662 -160.3830 -71.8514
ENERGY: 300000 2.8508 7.1811 1.6940 0.0000 -10514.2322 1438.5349 0.0000 0.0000 1774.1847 -7289.7867 304.5575 -9063.9714 -7388.2552 299.4029 504.9096 520.1335 30344.4276 342.3287 401.7526
ENERGY: 600000 2.2305 2.6436 3.8684 0.0000 -10718.5618 1433.9954 0.0000 0.0000 1731.2517 -7544.5722 297.1876 -9275.8238 -7433.2965 298.7969 -108.4033 -36.9767 29846.0943 88.2783 146.2027
ENERGY: 900000 3.0216 5.8569 8.1422 0.0000 -10501.2488 1374.4423 0.0000 0.0000 1749.7693 -7360.0164 300.3664 -9109.7858 -7424.7163 299.9017 -350.3975 -300.7008 30583.1031 -86.7432 -20.9870
ENERGY: 1200000 1.7086 6.7698 5.4683 0.0000 -10543.6809 1325.1665 0.0000 0.0000 1736.8105 -7467.7572 298.1418 -9204.5678 -7428.6008 299.7712 -1045.3376 -956.8188 30360.8351 -173.5479 -109.0697
ENERGY: 1500000 2.4810 4.3167 2.9826 0.0000 -10746.3821 1541.5898 0.0000 0.0000 1730.8373 -7464.1747 297.1165 -9195.0120 -7437.0096 298.8702 930.2872 921.4816 30055.0579 -73.4905 -15.2143
TCL: Running FEP window   2: Lambda1 0.95   Lambda2 0.8999999999999999 [dLambda -0.050000000000000044]
TCL: Setting parameter firsttimestep to 0
TCL: Setting parameter alchLambda to 0.95
Info: NONBONDED TABLE R-SQUARED SPACING: 0.0625
Info: NONBONDED TABLE SIZE: 705 POINTS
TCL: Setting parameter alchLambda2 to 0.8999999999999999
Info: NONBONDED TABLE R-SQUARED SPACING: 0.0625
Info: NONBONDED TABLE SIZE: 705 POINTS
TCL: Running for 1500000 steps
ETITLE: TS BOND ANGLE DIHED IMPRP ELECT VDW BOUNDARY MISC KINETIC TOTAL TEMP POTENTIAL TOTALAVG TEMPAVG PRESSURE GPRESSURE VOLUME PRESSAVG GPRESSAVG
ENERGY: 0 2.4810 4.3167 2.9826 0.0000 -10743.8671 1539.8190 0.0000 0.0000 1729.9590 -7464.3089 296.9657 -9194.2679 -7464.3089 296.9657 795.0344 890.6599 30055.0579 795.0344 890.6599
ENERGY: 300000 3.7078 3.6082 4.4890 0.0000 -10520.1531 1358.7908 0.0000 0.0000 1727.5532 -7422.0042 296.5527 -9149.5573 -7432.4163 297.6625 -744.5626 -634.8997 30283.6833 -69.6932 20.8519
ENERGY: 600000 3.6631 4.1085 6.3036 0.0000 -10748.1208 1504.8964 0.0000 0.0000 1736.2679 -7492.8814 298.0487 -9229.1492 -7426.6117 298.8105 676.8386 729.0273 29717.5762 4.2884 58.4860
ENERGY: 900000 1.8788 6.2400 1.5576 0.0000 -10547.8813 1403.6499 0.0000 0.0000 1770.8372 -7363.7177 303.9829 -9134.5549 -7413.0696 299.0854 -105.7959 -52.8987 30234.9183 -40.8825 10.5440
ENERGY: 1200000 2.0813 6.3652 10.0986 0.0000 -10613.1246 1462.7942 0.0000 0.0000 1759.0128 -7372.7725 301.9531 -9131.7853 -7407.7744 298.6671 601.7792 673.5970 29919.2903 138.1938 194.3895
ENERGY: 1500000 3.1989 7.1736 5.0925 0.0000 -10594.2523 1410.2406 0.0000 0.0000 1723.4487 -7445.0980 295.8481 -9168.5467 -7416.5493 299.1463 -237.6446 -162.0359 30518.2943 162.3380 222.0131
TCL: Running FEP window   3: Lambda1 0.8999999999999999 Lambda2 0.8499999999999999 [dLambda -0.050000000000000044]
TCL: Setting parameter firsttimestep to 0
TCL: Setting parameter alchLambda to 0.8999999999999999
Info: NONBONDED TABLE R-SQUARED SPACING: 0.0625
Info: NONBONDED TABLE SIZE: 705 POINTS
TCL: Setting parameter alchLambda2 to 0.8499999999999999
Info: NONBONDED TABLE R-SQUARED SPACING: 0.0625
Info: NONBONDED TABLE SIZE: 705 POINTS
TCL: Running for 1500000 steps
ETITLE: TS BOND ANGLE DIHED IMPRP ELECT VDW BOUNDARY MISC KINETIC TOTAL TEMP POTENTIAL TOTALAVG TEMPAVG PRESSURE GPRESSURE VOLUME PRESSAVG GPRESSAVG
ENERGY: 0 3.1989 7.1736 5.0925 0.0000 -10592.2048 1410.2091 0.0000 0.0000 1722.5984 -7443.9322 295.7022 -9166.5307 -7443.9322 295.7022 -246.7378 -170.2710 30518.2943 -246.7378 -170.2710
ENERGY: 300000 2.8484 6.0716 7.0870 0.0000 -10657.9790 1435.9119 0.0000 0.0000 1725.0287 -7481.0314 296.1194 -9206.0601 -7442.6250 297.2130 296.0889 324.4595 29536.5469 36.9414 85.6071
ENERGY: 600000 2.1782 4.1935 3.8648 0.0000 -10602.1239 1403.5722 0.0000 0.0000 1686.5244 -7501.7908 289.5097 -9188.3152 -7448.8995 297.7667 -304.7426 -244.8013 30104.4255 -16.2750 44.8870
ENERGY: 900000 2.9466 5.5684 2.8994 0.0000 -10514.9950 1391.3857 0.0000 0.0000 1761.6618 -7350.5330 302.4078 -9112.1948 -7449.1324 299.2617 -60.9830 32.4044 30168.0618 -6.4490 56.8666
ENERGY: 1200000 2.0143 5.2047 6.2030 0.0000 -10622.0760 1473.6374 0.0000 0.0000 1799.9663 -7335.0504 308.9832 -9135.0166 -7431.5392 301.5770 647.1562 749.1488 29979.0078 126.3009 195.1634
ENERGY: 1500000 3.1388 4.7344 2.0564 0.0000 -10705.2837 1444.5998 0.0000 0.0000 1764.7141 -7486.0402 302.9318 -9250.7543 -7442.7022 300.7904 26.4643 127.9747 29782.7443 132.7436 199.9316
TCL: Running FEP window   4: Lambda1 0.8499999999999999 Lambda2 0.7999999999999998 [dLambda -0.050000000000000044]
TCL: Setting parameter firsttimestep to 0
TCL: Setting parameter alchLambda to 0.8499999999999999
Info: NONBONDED TABLE R-SQUARED SPACING: 0.0625
Info: NONBONDED TABLE SIZE: 705 POINTS
TCL: Setting parameter alchLambda2 to 0.7999999999999998
Info: NONBONDED TABLE R-SQUARED SPACING: 0.0625
Info: NONBONDED TABLE SIZE: 705 POINTS
TCL: Running for 1500000 steps
ETITLE: TS BOND ANGLE DIHED IMPRP ELECT VDW BOUNDARY MISC KINETIC TOTAL TEMP POTENTIAL TOTALAVG TEMPAVG PRESSURE GPRESSURE VOLUME PRESSAVG GPRESSAVG
ENERGY: 0 3.1388 4.7344 2.0564 0.0000 -10704.5600 1445.0043 0.0000 0.0000 1763.8617 -7485.7644 302.7855 -9249.6262 -7485.7644 302.7855 27.3224 122.2921 29782.7443 27.3224 122.2921
ENERGY: 300000 1.8303 6.2784 3.0068 0.0000 -10702.0488 1438.8985 0.0000 0.0000 1722.2071 -7529.8277 295.6350 -9252.0348 -7468.9333 296.8307 -53.3081 2.9544 29849.6419 -132.7003 -84.1398
ENERGY: 600000 5.2514 2.4449 5.0039 0.0000 -10516.1475 1339.6068 0.0000 0.0000 1750.4676 -7413.3729 300.4862 -9163.8404 -7452.7304 297.8959 -352.7157 -338.4023 30038.8493 -113.8264 -69.2440
ENERGY: 900000 8.7763 4.1271 4.5840 0.0000 -10630.0996 1399.0088 0.0000 0.0000 1769.4327 -7444.1707 303.7418 -9213.6034 -7435.3413 299.5218 -298.0796 -238.4293 29595.5366 -100.4888 -47.0760
ENERGY: 1200000 3.7944 3.9174 7.5629 0.0000 -10538.5016 1373.0225 0.0000 0.0000 1717.2922 -7432.9122 294.7913 -9150.2044 -7440.4808 298.9973 -510.7709 -470.1464 30068.2037 -75.8973 -28.8827
ENERGY: 1500000 2.2348 6.1387 4.6421 0.0000 -10482.0498 1313.0380 0.0000 0.0000 1726.7177 -7429.2784 296.4093 -9155.9961 -7444.0278 299.5464 -1024.5832 -1067.0261 30960.4483 -128.1957 -86.8914
TCL: Running FEP window   5: Lambda1 0.7999999999999998 Lambda2 0.7499999999999998 [dLambda -0.050000000000000044]
TCL: Setting parameter firsttimestep to 0
TCL: Setting parameter alchLambda to 0.7999999999999998
Info: NONBONDED TABLE R-SQUARED SPACING: 0.0625
Info: NONBONDED TABLE SIZE: 705 POINTS
TCL: Setting parameter alchLambda2 to 0.7499999999999998
Info: NONBONDED TABLE R-SQUARED SPACING: 0.0625
Info: NONBONDED TABLE SIZE: 705 POINTS
TCL: Running for 1500000 steps
ETITLE: TS BOND ANGLE DIHED IMPRP ELECT VDW BOUNDARY MISC KINETIC TOTAL TEMP POTENTIAL TOTALAVG TEMPAVG PRESSURE GPRESSURE VOLUME PRESSAVG GPRESSAVG
ENERGY: 0 2.2348 6.1387 4.6421 0.0000 -10481.0127 1313.0338 0.0000 0.0000 1725.8274 -7429.1358 296.2565 -9154.9633 -7429.1358 296.2565 -1154.7985 -1077.8788 30960.4483 -1154.7985 -1077.8788
ENERGY: 300000 2.4754 3.4829 4.5454 0.0000 -10585.3466 1404.0018 0.0000 0.0000 1673.2083 -7497.6328 287.2239 -9170.8412 -7422.9784 294.8971 -172.4512 -99.9820 29937.8627 -304.9248 -249.3853
ENERGY: 600000 1.7370 2.8105 5.5540 0.0000 -10671.0223 1460.0436 0.0000 0.0000 1752.0679 -7448.8094 300.7609 -9200.8773 -7429.3446 296.5449 399.8014 511.1271 29875.3259 -202.4950 -143.6053
ENERGY: 900000 3.1510 6.6947 2.3669 0.0000 -10478.6592 1327.6846 0.0000 0.0000 1713.5379 -7425.2240 294.1469 -9138.7619 -7415.4449 297.7805 -1099.0427 -1029.1540 30656.5273 -363.8901 -292.1064
ENERGY: 1200000 1.8363 6.9701 5.7495 0.0000 -10602.1188 1451.5424 0.0000 0.0000 1728.8374 -7407.1830 296.7732 -9136.0204 -7409.9113 298.9412 305.8617 360.7956 30231.0591 -237.8092 -178.5214
ENERGY: 1500000 1.3412 12.3670 3.2579 0.0000 -10622.1019 1445.5615 0.0000 0.0000 1736.2785 -7423.2958 298.0505 -9159.5743 -7405.8845 299.7952 -35.2370 15.1892 30530.3813 -196.3226 -135.0370
TCL: Running FEP window   6: Lambda1 0.7499999999999998 Lambda2 0.6999999999999997 [dLambda -0.050000000000000044]
TCL: Setting parameter firsttimestep to 0
TCL: Setting parameter alchLambda to 0.7499999999999998
Info: NONBONDED TABLE R-SQUARED SPACING: 0.0625
Info: NONBONDED TABLE SIZE: 705 POINTS
TCL: Setting parameter alchLambda2 to 0.6999999999999997
Info: NONBONDED TABLE R-SQUARED SPACING: 0.0625
Info: NONBONDED TABLE SIZE: 705 POINTS
TCL: Running for 1500000 steps
ETITLE: TS BOND ANGLE DIHED IMPRP ELECT VDW BOUNDARY MISC KINETIC TOTAL TEMP POTENTIAL TOTALAVG TEMPAVG PRESSURE GPRESSURE VOLUME PRESSAVG GPRESSAVG
ENERGY: 0 1.3412 12.3670 3.2579 0.0000 -10621.1045 1445.6896 0.0000 0.0000 1735.3602 -7423.0886 297.8929 -9158.4489 -7423.0886 297.8929 -74.3130 9.3723 30530.3813 -74.3130 9.3723
ENERGY: 300000 2.4097 5.8776 6.7596 0.0000 -10573.2322 1403.2037 0.0000 0.0000 1767.9957 -7386.9858 303.4951 -9154.9815 -7402.5369 298.2882 -315.0314 -230.6463 30457.2440 -178.0080 -114.5504
ENERGY: 600000 1.4827 7.4698 3.1044 0.0000 -10518.7432 1373.1705 0.0000 0.0000 1781.1619 -7352.3539 305.7552 -9133.5157 -7418.5116 297.4521 -327.6412 -300.3503 30159.4219 -259.3170 -199.9285
ENERGY: 900000 1.7927 4.3932 2.6253 0.0000 -10620.0480 1447.4644 0.0000 0.0000 1773.1171 -7390.6552 304.3743 -9163.7724 -7402.6654 298.6482 -30.5699 56.2525 30310.8920 -186.6824 -129.8523
ENERGY: 1200000 2.0411 3.0180 3.8367 0.0000 -10823.1696 1525.2229 0.0000 0.0000 1738.6554 -7550.3954 298.4585 -9289.0509 -7418.2879 297.9979 839.6699 871.0176 29342.8415 -167.6884 -115.9992
ENERGY: 1500000 0.3180 6.0044 5.0257 0.0000 -10615.9548 1448.1999 0.0000 0.0000 1751.9690 -7404.4377 300.7440 -9156.4068 -7405.7413 298.9281 127.0817 203.4326 30520.5435 -177.6928 -113.9709
TCL: Running FEP window   7: Lambda1 0.6999999999999997 Lambda2 0.6499999999999997 [dLambda -0.050000000000000044]
TCL: Setting parameter firsttimestep to 0
TCL: Setting parameter alchLambda to 0.6999999999999997
Info: NONBONDED TABLE R-SQUARED SPACING: 0.0625
Info: NONBONDED TABLE SIZE: 705 POINTS
TCL: Setting parameter alchLambda2 to 0.6499999999999997
Info: NONBONDED TABLE R-SQUARED SPACING: 0.0625
Info: NONBONDED TABLE SIZE: 705 POINTS
TCL: Running for 1500000 steps
ETITLE: TS BOND ANGLE DIHED IMPRP ELECT VDW BOUNDARY MISC KINETIC TOTAL TEMP POTENTIAL TOTALAVG TEMPAVG PRESSURE GPRESSURE VOLUME PRESSAVG GPRESSAVG
ENERGY: 0 0.3180 6.0044 5.0257 0.0000 -10614.4944 1447.9939 0.0000 0.0000 1751.1370 -7404.0155 300.6011 -9155.1524 -7404.0155 300.6011 100.9113 194.2795 30520.5435 100.9113 194.2795
ENERGY: 300000 2.1549 2.9900 3.4083 0.0000 -10632.0338 1496.2588 0.0000 0.0000 1724.2436 -7402.9781 295.9846 -9127.2218 -7407.5423 300.8461 604.7926 679.6132 30019.9753 330.9621 381.3507
ENERGY: 600000 3.0257 6.9057 1.1608 0.0000 -10590.5343 1428.6502 0.0000 0.0000 1754.0516 -7396.7403 301.1015 -9150.7919 -7419.8581 300.7344 187.4545 193.7747 30006.8423 115.2586 153.8825
ENERGY: 900000 3.0161 4.1487 3.0600 0.0000 -10615.7290 1448.9698 0.0000 0.0000 1799.3527 -7357.1817 308.8779 -9156.5345 -7421.3415 300.6454 -20.0912 15.0589 30540.2801 45.7133 93.6983
ENERGY: 1200000 1.9966 8.7605 6.4417 0.0000 -10432.7614 1338.6079 0.0000 0.0000 1768.1781 -7308.7765 303.5264 -9076.9546 -7409.6840 301.1007 -327.7687 -280.5314 29793.8190 54.7660 94.8279
ENERGY: 1500000 2.1428 4.0402 6.0234 0.0000 -10517.3910 1369.4485 0.0000 0.0000 1767.3556 -7368.3805 303.3852 -9135.7361 -7413.1893 300.9402 -319.6826 -265.1930 30040.0750 -34.0574 6.6060
TCL: Running FEP window   8: Lambda1 0.6499999999999997 Lambda2 0.5999999999999996 [dLambda -0.050000000000000044]
TCL: Setting parameter firsttimestep to 0
TCL: Setting parameter alchLambda to 0.6499999999999997
Info: NONBONDED TABLE R-SQUARED SPACING: 0.0625
Info: NONBONDED TABLE SIZE: 705 POINTS
TCL: Setting parameter alchLambda2 to 0.5999999999999996
Info: NONBONDED TABLE R-SQUARED SPACING: 0.0625
Info: NONBONDED TABLE SIZE: 705 POINTS
TCL: Running for 1500000 steps
ETITLE: TS BOND ANGLE DIHED IMPRP ELECT VDW BOUNDARY MISC KINETIC TOTAL TEMP POTENTIAL TOTALAVG TEMPAVG PRESSURE GPRESSURE VOLUME PRESSAVG GPRESSAVG
ENERGY: 0 2.1428 4.0402 6.0234 0.0000 -10516.9270 1369.3194 0.0000 0.0000 1766.5082 -7368.8930 303.2398 -9135.4012 -7368.8930 303.2398 -365.6347 -276.3835 30040.0750 -365.6347 -276.3835
ENERGY: 300000 1.5623 4.6660 4.4292 0.0000 -10716.7930 1441.8459 0.0000 0.0000 1806.5483 -7457.7413 310.1131 -9264.2896 -7377.1168 304.2181 -216.4900 -79.3749 30077.7333 -78.3218 18.5020
ENERGY: 600000 3.9073 4.8253 4.9206 0.0000 -10493.4886 1357.9873 0.0000 0.0000 1728.7302 -7393.1179 296.7548 -9121.8481 -7391.4917 301.8084 -331.5203 -262.4738 29717.9450 -166.1697 -86.7767
ENERGY: 900000 2.1851 5.9258 7.4347 0.0000 -10669.5018 1471.3819 0.0000 0.0000 1742.0672 -7440.5069 299.0442 -9182.5742 -7391.7850 301.1428 111.0668 120.3803 30416.3419 -53.3735 11.6626
ENERGY: 1200000 3.5825 2.1845 2.6885 0.0000 -10542.9991 1381.4117 0.0000 0.0000 1770.2931 -7382.8389 303.8895 -9153.1319 -7388.5160 301.5254 -165.5927 -148.0621 29635.5349 -79.9864 -16.6825
ENERGY: 1500000 5.7428 8.3472 2.5594 0.0000 -10660.8947 1448.3710 0.0000 0.0000 1735.5010 -7460.3732 297.9171 -9195.8742 -7392.0982 301.6566 107.7073 114.6565 30153.8471 -92.9092 -43.9798
TCL: Running FEP window   9: Lambda1 0.5999999999999996 Lambda2 0.5499999999999996 [dLambda -0.050000000000000044]
TCL: Setting parameter firsttimestep to 0
TCL: Setting parameter alchLambda to 0.5999999999999996
Info: NONBONDED TABLE R-SQUARED SPACING: 0.0625
Info: NONBONDED TABLE SIZE: 705 POINTS
TCL: Setting parameter alchLambda2 to 0.5499999999999996
Info: NONBONDED TABLE R-SQUARED SPACING: 0.0625
Info: NONBONDED TABLE SIZE: 705 POINTS
TCL: Running for 1500000 steps
ETITLE: TS BOND ANGLE DIHED IMPRP ELECT VDW BOUNDARY MISC KINETIC TOTAL TEMP POTENTIAL TOTALAVG TEMPAVG PRESSURE GPRESSURE VOLUME PRESSAVG GPRESSAVG
ENERGY: 0 5.7428 8.3472 2.5594 0.0000 -10659.8251 1447.1148 0.0000 0.0000 1734.6400 -7461.4209 297.7692 -9196.0609 -7461.4209 297.7692 20.6758 97.0040 30153.8471 20.6758 97.0040
ENERGY: 300000 4.0378 7.7240 5.6308 0.0000 -10591.0516 1414.9814 0.0000 0.0000 1721.3515 -7437.3260 295.4881 -9158.6776 -7447.6651 297.7774 50.9628 129.5935 29860.6682 145.9558 205.5639
ENERGY: 600000 3.1977 6.0009 4.4870 0.0000 -10517.8850 1358.6315 0.0000 0.0000 1721.9271 -7423.6408 295.5869 -9145.5679 -7442.2952 298.6211 -605.5405 -527.4250 30217.7628 -53.2346 2.2568
ENERGY: 900000 0.9628 4.2326 3.7579 0.0000 -10601.9629 1438.5585 0.0000 0.0000 1719.8097 -7434.6414 295.2235 -9154.4511 -7427.9247 300.2400 289.7399 323.6740 29784.0995 35.3533 84.9283
ENERGY: 1200000 1.4993 4.3929 4.0342 0.0000 -10646.3787 1452.2533 0.0000 0.0000 1771.7227 -7412.4763 304.1349 -9184.1990 -7437.7559 299.8391 395.8515 464.0593 29679.9020 93.2632 145.1959
ENERGY: 1500000 3.0765 6.6704 2.2377 0.0000 -10619.7134 1459.0883 0.0000 0.0000 1717.6872 -7430.9534 294.8591 -9148.6406 -7440.2220 298.8973 246.6196 361.6172 30120.9269 94.5768 153.6248
TCL: Running FEP window  10: Lambda1 0.5499999999999996 Lambda2 0.4999999999999996 [dLambda -0.04999999999999999]
TCL: Setting parameter firsttimestep to 0
TCL: Setting parameter alchLambda to 0.5499999999999996
Info: NONBONDED TABLE R-SQUARED SPACING: 0.0625
Info: NONBONDED TABLE SIZE: 705 POINTS
TCL: Setting parameter alchLambda2 to 0.4999999999999996
Info: NONBONDED TABLE R-SQUARED SPACING: 0.0625
Info: NONBONDED TABLE SIZE: 705 POINTS
TCL: Running for 1500000 steps
ETITLE: TS BOND ANGLE DIHED IMPRP ELECT VDW BOUNDARY MISC KINETIC TOTAL TEMP POTENTIAL TOTALAVG TEMPAVG PRESSURE GPRESSURE VOLUME PRESSAVG GPRESSAVG
ENERGY: 0 3.0765 6.6704 2.2377 0.0000 -10618.8175 1459.4284 0.0000 0.0000 1716.8456 -7430.5590 294.7147 -9147.4046 -7430.5590 294.7147 273.6950 358.0279 30120.9269 273.6950 358.0279
ENERGY: 300000 1.8324 8.6821 4.9527 0.0000 -10592.9246 1463.7958 0.0000 0.0000 1792.7957 -7320.8659 307.7523 -9113.6616 -7367.5368 301.8392 615.5521 691.8470 29774.6688 239.5483 312.6183
ENERGY: 600000 2.8914 3.4816 5.3540 0.0000 -10574.6458 1388.8861 0.0000 0.0000 1809.9473 -7364.0854 310.6965 -9174.0327 -7396.0265 301.4863 -286.7910 -219.4275 30105.0099 289.7099 364.4213
ENERGY: 900000 3.6840 5.9741 6.0308 0.0000 -10602.1451 1443.0326 0.0000 0.0000 1829.0650 -7314.3585 313.9783 -9143.4235 -7387.4915 303.5969 467.9453 546.8621 29713.6108 274.3875 346.2777
ENERGY: 1200000 2.2951 5.8517 5.4032 0.0000 -10532.0648 1462.7076 0.0000 0.0000 1735.9306 -7319.8766 297.9908 -9055.8072 -7382.4144 303.2108 679.5887 629.5622 30200.0520 212.4128 271.3380
ENERGY: 1500000 3.3639 4.7583 2.7535 0.0000 -10562.9669 1381.4257 0.0000 0.0000 1774.1248 -7396.5406 304.5472 -9170.6653 -7386.5027 303.3138 -418.2954 -385.4852 30352.0669 228.9663 285.4299
TCL: Running FEP window  11: Lambda1 0.4999999999999996 Lambda2 0.4499999999999996 [dLambda -0.04999999999999999]
TCL: Setting parameter firsttimestep to 0
TCL: Setting parameter alchLambda to 0.4999999999999996
Info: NONBONDED TABLE R-SQUARED SPACING: 0.0625
Info: NONBONDED TABLE SIZE: 705 POINTS
TCL: Setting parameter alchLambda2 to 0.4499999999999996
Info: NONBONDED TABLE R-SQUARED SPACING: 0.0625
Info: NONBONDED TABLE SIZE: 705 POINTS
TCL: Running for 1500000 steps
ETITLE: TS BOND ANGLE DIHED IMPRP ELECT VDW BOUNDARY MISC KINETIC TOTAL TEMP POTENTIAL TOTALAVG TEMPAVG PRESSURE GPRESSURE VOLUME PRESSAVG GPRESSAVG
ENERGY: 0 3.3639 4.7583 2.7535 0.0000 -10562.9261 1381.4620 0.0000 0.0000 1773.2504 -7397.3379 304.3971 -9170.5883 -7397.3379 304.3971 -474.9403 -392.6963 30352.0669 -474.9403 -392.6963
ENERGY: 300000 2.3450 4.6655 4.4568 0.0000 -10571.0675 1433.2859 0.0000 0.0000 1761.8066 -7364.5077 302.4327 -9126.3143 -7365.0846 303.1793 11.8727 91.6086 29879.4917 -153.3751 -93.5949
ENERGY: 600000 2.5109 6.5238 10.4837 0.0000 -10625.5434 1460.1355 0.0000 0.0000 1740.4279 -7405.4616 298.7628 -9145.8895 -7367.3200 303.6936 37.8311 115.3802 30642.0104 -73.9556 6.0065
ENERGY: 900000 2.5361 3.1985 5.0111 0.0000 -10556.8389 1342.7923 0.0000 0.0000 1680.3576 -7522.9434 288.4511 -9203.3010 -7380.2789 301.0107 -1240.1581 -1147.4047 30625.0241 -254.4189 -172.6358
ENERGY: 1200000 3.0997 7.2806 6.9106 0.0000 -10591.0813 1389.4956 0.0000 0.0000 1710.1201 -7474.1748 293.5601 -9184.2949 -7388.6163 300.2824 -647.7532 -617.5983 30241.9859 -279.7343 -202.9326
ENERGY: 1500000 2.8465 5.8911 3.0396 0.0000 -10666.8770 1486.7963 0.0000 0.0000 1823.8887 -7344.4146 313.0897 -9168.3034 -7389.3236 301.3725 510.0987 546.0469 30079.5469 -220.7140 -151.8381
TCL: Running FEP window  12: Lambda1 0.4499999999999996 Lambda2 0.39999999999999963 [dLambda -0.04999999999999999]
TCL: Setting parameter firsttimestep to 0
TCL: Setting parameter alchLambda to 0.4499999999999996
Info: NONBONDED TABLE R-SQUARED SPACING: 0.0625
Info: NONBONDED TABLE SIZE: 705 POINTS
TCL: Setting parameter alchLambda2 to 0.39999999999999963
Info: NONBONDED TABLE R-SQUARED SPACING: 0.0625
Info: NONBONDED TABLE SIZE: 705 POINTS
TCL: Running for 1500000 steps
ETITLE: TS BOND ANGLE DIHED IMPRP ELECT VDW BOUNDARY MISC KINETIC TOTAL TEMP POTENTIAL TOTALAVG TEMPAVG PRESSURE GPRESSURE VOLUME PRESSAVG GPRESSAVG
ENERGY: 0 2.8465 5.8911 3.0396 0.0000 -10666.8774 1486.5344 0.0000 0.0000 1822.9944 -7345.5713 312.9362 -9168.5657 -7345.5713 312.9362 450.8388 537.5116 30079.5469 450.8388 537.5116
ENERGY: 300000 4.0823 4.5695 3.0247 0.0000 -10644.8629 1485.5138 0.0000 0.0000 1779.1302 -7368.5424 305.4065 -9147.6726 -7382.1732 305.9975 571.0752 648.7172 29833.5118 94.0840 166.7090
ENERGY: 600000 4.7924 3.0741 2.9615 0.0000 -10651.8075 1449.5960 0.0000 0.0000 1786.7512 -7404.6322 306.7147 -9191.3834 -7402.4643 303.6327 -137.2360 -92.4920 30449.6707 -113.5751 -48.7256
ENERGY: 900000 2.5957 6.9757 7.7308 0.0000 -10671.5328 1465.7399 0.0000 0.0000 1752.6664 -7435.8244 300.8637 -9188.4908 -7403.0181 302.8697 87.6648 159.9156 30118.1104 -21.2296 36.4057
ENERGY: 1200000 1.4235 5.3128 2.6904 0.0000 -10743.9077 1479.5344 0.0000 0.0000 1700.4393 -7554.5073 291.8983 -9254.9466 -7416.0255 301.8696 327.5670 395.1520 29558.9172 -61.7991 -1.3940
ENERGY: 1500000 4.1059 7.8345 3.2692 0.0000 -10634.1469 1438.0915 0.0000 0.0000 1801.0883 -7379.7576 309.1758 -9180.8459 -7408.7727 302.5057 0.5119 38.7809 30080.0802 -47.7080 6.2631
TCL: Running FEP window  13: Lambda1 0.39999999999999963 Lambda2 0.34999999999999964 [dLambda -0.04999999999999999]
TCL: Setting parameter firsttimestep to 0
TCL: Setting parameter alchLambda to 0.39999999999999963
Info: NONBONDED TABLE R-SQUARED SPACING: 0.0625
Info: NONBONDED TABLE SIZE: 705 POINTS
TCL: Setting parameter alchLambda2 to 0.34999999999999964
Info: NONBONDED TABLE R-SQUARED SPACING: 0.0625
Info: NONBONDED TABLE SIZE: 705 POINTS
TCL: Running for 1500000 steps
ETITLE: TS BOND ANGLE DIHED IMPRP ELECT VDW BOUNDARY MISC KINETIC TOTAL TEMP POTENTIAL TOTALAVG TEMPAVG PRESSURE GPRESSURE VOLUME PRESSAVG GPRESSAVG
ENERGY: 0 4.1059 7.8345 3.2692 0.0000 -10634.1462 1438.4935 0.0000 0.0000 1800.2391 -7380.2040 309.0300 -9180.4431 -7380.2040 309.0300 -42.5245 33.2372 30080.0802 -42.5245 33.2372
ENERGY: 300000 4.7970 5.0537 3.7864 0.0000 -10437.7876 1412.8864 0.0000 0.0000 1695.3108 -7315.9532 291.0180 -9011.2641 -7375.0019 299.3488 128.2721 255.9873 30281.1406 -373.3207 -278.3767
ENERGY: 600000 2.0075 8.2605 1.4128 0.0000 -10515.9294 1394.9280 0.0000 0.0000 1729.5803 -7379.7404 296.9007 -9109.3207 -7360.8444 301.0700 -363.7543 -274.3842 30365.3961 -438.5099 -356.1066
ENERGY: 900000 2.7785 8.0722 4.2814 0.0000 -10632.9803 1462.4374 0.0000 0.0000 1721.8466 -7433.5642 295.5731 -9155.4109 -7391.7385 299.6282 218.7628 306.2732 29860.9057 -346.9794 -271.8113
ENERGY: 1200000 3.4343 6.6745 1.9112 0.0000 -10569.8219 1415.7843 0.0000 0.0000 1790.9933 -7351.0243 307.4429 -9142.0176 -7396.4002 299.6473 -226.4390 -100.8479 30176.8220 -365.0185 -289.0716
ENERGY: 1500000 2.7366 3.7809 5.6431 0.0000 -10553.9210 1407.4099 0.0000 0.0000 1730.4899 -7403.8607 297.0568 -9134.3506 -7394.0844 299.6538 -90.5865 21.5511 30044.7141 -323.0914 -244.2452
TCL: Running FEP window  14: Lambda1 0.34999999999999964 Lambda2 0.29999999999999966 [dLambda -0.04999999999999999]
TCL: Setting parameter firsttimestep to 0
TCL: Setting parameter alchLambda to 0.34999999999999964
Info: NONBONDED TABLE R-SQUARED SPACING: 0.0625
Info: NONBONDED TABLE SIZE: 705 POINTS
TCL: Setting parameter alchLambda2 to 0.29999999999999966
Info: NONBONDED TABLE R-SQUARED SPACING: 0.0625
Info: NONBONDED TABLE SIZE: 705 POINTS
TCL: Running for 1500000 steps
ETITLE: TS BOND ANGLE DIHED IMPRP ELECT VDW BOUNDARY MISC KINETIC TOTAL TEMP POTENTIAL TOTALAVG TEMPAVG PRESSURE GPRESSURE VOLUME PRESSAVG GPRESSAVG
ENERGY: 0 2.7366 3.7809 5.6431 0.0000 -10553.9212 1407.7699 0.0000 0.0000 1729.6345 -7404.3562 296.9100 -9133.9907 -7404.3562 296.9100 -80.2211 16.4336 30044.7141 -80.2211 16.4336
ENERGY: 300000 1.5689 5.5537 1.6750 0.0000 -10506.9062 1406.1849 0.0000 0.0000 1754.8415 -7337.0821 301.2371 -9091.9236 -7403.5450 297.4811 -138.9668 -124.3721 30538.4214 -57.1866 -2.7530
ENERGY: 600000 3.6980 9.9185 4.5618 0.0000 -10714.4478 1445.5850 0.0000 0.0000 1781.2205 -7469.4638 305.7653 -9250.6843 -7425.2762 298.0740 96.9585 187.4572 29395.6604 -72.9339 -8.0751
ENERGY: 900000 2.9199 7.3899 1.5678 0.0000 -10636.2543 1459.8882 0.0000 0.0000 1757.0258 -7407.4626 301.6120 -9164.4885 -7405.1299 299.3361 346.9980 343.4628 29942.1395 -20.9928 36.4606
ENERGY: 1200000 2.1268 5.7669 3.9151 0.0000 -10468.8534 1402.6451 0.0000 0.0000 1750.9630 -7303.4365 300.5713 -9054.3995 -7408.5817 298.9310 -109.4423 -16.8606 30447.2770 -126.1707 -62.7101
ENERGY: 1500000 4.3641 4.8437 1.4616 0.0000 -10578.1427 1429.9250 0.0000 0.0000 1779.0748 -7358.4735 305.3969 -9137.5483 -7400.1318 299.5297 4.5393 18.9888 29832.0650 -113.0965 -56.7172
TCL: Running FEP window  15: Lambda1 0.29999999999999966 Lambda2 0.24999999999999967 [dLambda -0.04999999999999999]
TCL: Setting parameter firsttimestep to 0
TCL: Setting parameter alchLambda to 0.29999999999999966
Info: NONBONDED TABLE R-SQUARED SPACING: 0.0625
Info: NONBONDED TABLE SIZE: 705 POINTS
TCL: Setting parameter alchLambda2 to 0.24999999999999967
Info: NONBONDED TABLE R-SQUARED SPACING: 0.0625
Info: NONBONDED TABLE SIZE: 705 POINTS
TCL: Running for 1500000 steps
ETITLE: TS BOND ANGLE DIHED IMPRP ELECT VDW BOUNDARY MISC KINETIC TOTAL TEMP POTENTIAL TOTALAVG TEMPAVG PRESSURE GPRESSURE VOLUME PRESSAVG GPRESSAVG
ENERGY: 0 4.3641 4.8437 1.4616 0.0000 -10578.1411 1429.4157 0.0000 0.0000 1778.2549 -7359.8011 305.2562 -9138.0560 -7359.8011 305.2562 -71.4637 9.9829 29832.0650 -71.4637 9.9829
ENERGY: 300000 1.6832 4.3288 2.5694 0.0000 -10471.1529 1355.8270 0.0000 0.0000 1778.8722 -7327.8723 305.3622 -9106.7445 -7374.4545 301.6141 -406.3693 -297.1001 30089.9449 -397.0498 -306.8393
ENERGY: 600000 4.7873 4.8064 6.6228 0.0000 -10682.4691 1472.5611 0.0000 0.0000 1743.5763 -7450.1153 299.3033 -9193.6917 -7402.5732 300.6513 260.7932 362.9666 29832.0193 -192.1157 -119.1832
ENERGY: 900000 1.2142 5.8190 3.2508 0.0000 -10751.2325 1480.5321 0.0000 0.0000 1777.2065 -7483.2098 305.0762 -9260.4164 -7421.8500 299.7032 -37.4221 22.0400 30004.4731 -162.7419 -97.1523
ENERGY: 1200000 6.6005 9.4717 4.3057 0.0000 -10445.5385 1354.4697 0.0000 0.0000 1785.1215 -7285.5693 306.4349 -9070.6908 -7416.8131 300.1027 -609.0712 -552.9431 30336.9022 -218.4243 -152.1742
ENERGY: 1500000 1.8235 5.0545 2.3228 0.0000 -10651.1639 1488.1197 0.0000 0.0000 1745.9749 -7407.8685 299.7150 -9153.8434 -7410.8560 300.3997 592.4360 608.2089 29964.5805 -176.6650 -115.9335
TCL: Running FEP window  16: Lambda1 0.24999999999999967 Lambda2 0.19999999999999968 [dLambda -0.04999999999999999]
TCL: Setting parameter firsttimestep to 0
TCL: Setting parameter alchLambda to 0.24999999999999967
Info: NONBONDED TABLE R-SQUARED SPACING: 0.0625
Info: NONBONDED TABLE SIZE: 705 POINTS
TCL: Setting parameter alchLambda2 to 0.19999999999999968
Info: NONBONDED TABLE R-SQUARED SPACING: 0.0625
Info: NONBONDED TABLE SIZE: 705 POINTS
TCL: Running for 1500000 steps
ETITLE: TS BOND ANGLE DIHED IMPRP ELECT VDW BOUNDARY MISC KINETIC TOTAL TEMP POTENTIAL TOTALAVG TEMPAVG PRESSURE GPRESSURE VOLUME PRESSAVG GPRESSAVG
ENERGY: 0 1.8235 5.0545 2.3228 0.0000 -10651.1644 1488.1888 0.0000 0.0000 1745.1350 -7408.6400 299.5708 -9153.7749 -7408.6400 299.5708 523.2262 604.6015 29964.5805 523.2262 604.6015
ENERGY: 300000 4.5829 6.0925 1.9945 0.0000 -10650.0672 1485.9480 0.0000 0.0000 1749.7063 -7401.7429 300.3555 -9151.4492 -7413.2327 297.8025 325.7290 340.3451 30250.1046 107.7755 129.3560
ENERGY: 600000 2.9074 8.2670 3.1446 0.0000 -10591.4860 1463.2178 0.0000 0.0000 1732.3490 -7381.6003 297.3760 -9113.9493 -7413.7041 297.9505 360.5648 409.6427 30015.7620 159.3938 187.2575
ENERGY: 900000 3.5796 4.6783 8.2717 0.0000 -10657.1734 1466.7513 0.0000 0.0000 1740.8479 -7433.0446 298.8349 -9173.8926 -7425.3465 298.6167 72.4257 112.3613 30162.0792 141.9852 179.0458
ENERGY: 1200000 2.3505 3.3326 5.9270 0.0000 -10720.2551 1436.5322 0.0000 0.0000 1764.3578 -7507.7551 302.8706 -9272.1129 -7426.9698 298.9676 -386.2045 -289.5931 30088.7538 100.2193 145.8257
ENERGY: 1500000 3.3730 6.0137 4.2933 0.0000 -10596.6397 1376.4886 0.0000 0.0000 1786.5991 -7419.8721 306.6886 -9206.4712 -7425.3985 299.8553 -415.2258 -359.8623 29793.9240 134.7279 182.1930
TCL: Running FEP window  17: Lambda1 0.19999999999999968 Lambda2 0.1499999999999997 [dLambda -0.04999999999999999]
TCL: Setting parameter firsttimestep to 0
TCL: Setting parameter alchLambda to 0.19999999999999968
Info: NONBONDED TABLE R-SQUARED SPACING: 0.0625
Info: NONBONDED TABLE SIZE: 705 POINTS
TCL: Setting parameter alchLambda2 to 0.1499999999999997
Info: NONBONDED TABLE R-SQUARED SPACING: 0.0625
Info: NONBONDED TABLE SIZE: 705 POINTS
TCL: Running for 1500000 steps
ETITLE: TS BOND ANGLE DIHED IMPRP ELECT VDW BOUNDARY MISC KINETIC TOTAL TEMP POTENTIAL TOTALAVG TEMPAVG PRESSURE GPRESSURE VOLUME PRESSAVG GPRESSAVG
ENERGY: 0 3.3730 6.0137 4.2933 0.0000 -10596.6397 1376.9200 0.0000 0.0000 1785.7127 -7420.3270 306.5364 -9206.0397 -7420.3270 306.5364 -445.0633 -360.6345 29793.9240 -445.0633 -360.6345
ENERGY: 300000 2.4259 1.9193 3.7022 0.0000 -10694.4076 1463.2883 0.0000 0.0000 1726.8289 -7496.2430 296.4284 -9223.0719 -7463.6874 299.3617 242.5031 290.5108 29760.7972 -538.5294 -470.7035
ENERGY: 600000 1.4730 8.1448 2.3553 0.0000 -10610.4637 1510.6838 0.0000 0.0000 1715.5805 -7372.2262 294.4975 -9087.8067 -7433.1252 299.1884 855.2515 942.3732 29674.4179 5.4705 63.7741
ENERGY: 900000 1.6319 6.8937 6.0349 0.0000 -10697.8174 1398.6896 0.0000 0.0000 1730.5012 -7554.0660 297.0588 -9284.5672 -7441.6189 298.0638 -573.1377 -537.7710 29874.3804 -93.3392 -28.9516
ENERGY: 1200000 2.1165 8.6659 4.4512 0.0000 -10532.3852 1375.5516 0.0000 0.0000 1702.4411 -7439.1589 292.2420 -9141.6000 -7439.9558 297.2922 -507.1251 -400.4836 30036.3176 -89.7186 -20.0222
ENERGY: 1500000 6.2028 6.3629 1.9804 0.0000 -10618.2622 1470.7079 0.0000 0.0000 1749.4369 -7383.5713 300.3093 -9133.0083 -7430.8751 298.1131 227.6319 290.5836 30179.0107 -40.0465 22.5645
TCL: Running FEP window  18: Lambda1 0.1499999999999997 Lambda2 0.09999999999999969 [dLambda -0.05 ]
TCL: Setting parameter firsttimestep to 0
TCL: Setting parameter alchLambda to 0.1499999999999997
Info: NONBONDED TABLE R-SQUARED SPACING: 0.0625
Info: NONBONDED TABLE SIZE: 705 POINTS
TCL: Setting parameter alchLambda2 to 0.09999999999999969
Info: NONBONDED TABLE R-SQUARED SPACING: 0.0625
Info: NONBONDED TABLE SIZE: 705 POINTS
TCL: Running for 1500000 steps
ETITLE: TS BOND ANGLE DIHED IMPRP ELECT VDW BOUNDARY MISC KINETIC TOTAL TEMP POTENTIAL TOTALAVG TEMPAVG PRESSURE GPRESSURE VOLUME PRESSAVG GPRESSAVG
ENERGY: 0 6.2028 6.3629 1.9804 0.0000 -10618.2623 1471.1865 0.0000 0.0000 1748.5856 -7383.9442 300.1632 -9132.5297 -7383.9442 300.1632 221.3452 289.4572 30179.0107 221.3452 289.4572
ENERGY: 300000 5.0459 6.3290 7.0799 0.0000 -10612.1403 1428.3847 0.0000 0.0000 1818.0366 -7347.2641 312.0852 -9165.3008 -7398.7460 303.6791 43.0153 89.4665 30072.3752 268.5933 343.6394
ENERGY: 600000 2.4068 7.3550 5.0661 0.0000 -10699.6644 1537.6519 0.0000 0.0000 1770.4789 -7376.7058 303.9214 -9147.1847 -7404.5374 302.4317 829.5019 852.3928 30056.4915 175.0901 241.7944
ENERGY: 900000 3.0276 8.7193 3.6035 0.0000 -10637.8047 1420.0797 0.0000 0.0000 1800.4749 -7401.8997 309.0705 -9202.3746 -7392.2623 303.6965 -300.0919 -182.8078 29795.4388 34.0270 99.3502
ENERGY: 1200000 3.7626 2.9641 3.0363 0.0000 -10507.9173 1388.6780 0.0000 0.0000 1690.7375 -7418.7389 290.2329 -9109.4764 -7387.4437 302.6485 -285.1663 -186.6058 29980.2504 -3.9385 59.7585
ENERGY: 1500000 2.5300 5.8620 7.1807 0.0000 -10533.6340 1361.4988 0.0000 0.0000 1733.8426 -7422.7198 297.6324 -9156.5624 -7394.6227 301.6877 -654.9948 -624.1296 30253.0529 -47.7767 17.6111
TCL: Running FEP window  19: Lambda1 0.09999999999999969 Lambda2 0.049999999999999684 [dLambda -0.05 ]
TCL: Setting parameter firsttimestep to 0
TCL: Setting parameter alchLambda to 0.09999999999999969
Info: NONBONDED TABLE R-SQUARED SPACING: 0.0625
Info: NONBONDED TABLE SIZE: 705 POINTS
TCL: Setting parameter alchLambda2 to 0.049999999999999684
Info: NONBONDED TABLE R-SQUARED SPACING: 0.0625
Info: NONBONDED TABLE SIZE: 705 POINTS
TCL: Running for 1500000 steps
ETITLE: TS BOND ANGLE DIHED IMPRP ELECT VDW BOUNDARY MISC KINETIC TOTAL TEMP POTENTIAL TOTALAVG TEMPAVG PRESSURE GPRESSURE VOLUME PRESSAVG GPRESSAVG
ENERGY: 0 2.5301 5.8620 7.1807 0.0000 -10533.6344 1361.9067 0.0000 0.0000 1733.0014 -7423.1534 297.4880 -9156.1549 -7423.1534 297.4880 -698.0977 -624.2298 30253.0529 -698.0977 -624.2298
ENERGY: 300000 5.1012 3.3734 5.5160 0.0000 -10663.4978 1477.7835 0.0000 0.0000 1792.2792 -7379.4445 307.6636 -9171.7237 -7454.7590 300.7519 320.4034 406.3068 29792.6193 -40.3016 27.4188
ENERGY: 600000 4.7391 4.3584 4.1005 0.0000 -10499.2551 1369.8029 0.0000 0.0000 1797.7481 -7318.5061 308.6024 -9116.2542 -7420.7300 302.4708 -475.4746 -413.7715 30133.3268 -188.5991 -132.5331
ENERGY: 900000 2.0747 5.5436 6.3290 0.0000 -10565.2874 1333.9241 0.0000 0.0000 1715.7586 -7501.6574 294.5281 -9217.4160 -7415.2113 302.7608 -894.3725 -880.2523 29750.7785 -276.6601 -222.4324
ENERGY: 1200000 5.5117 5.6174 4.7572 0.0000 -10547.8916 1413.9706 0.0000 0.0000 1742.3667 -7375.6679 299.0956 -9118.0346 -7413.9428 301.8792 -31.9159 8.8378 29946.8933 -247.1354 -195.2942
ENERGY: 1500000 1.6283 5.3067 4.2207 0.0000 -10561.5101 1419.9767 0.0000 0.0000 1706.0549 -7424.3228 292.8623 -9130.3777 -7425.0202 300.5948 -2.4744 46.5894 30099.1637 -219.7356 -167.1561
TCL: Running FEP window  20: Lambda1 0.049999999999999684 Lambda2 0.0    [dLambda -0.049999999999999684]
TCL: Setting parameter firsttimestep to 0
TCL: Setting parameter alchLambda to 0.049999999999999684
Info: NONBONDED TABLE R-SQUARED SPACING: 0.0625
Info: NONBONDED TABLE SIZE: 705 POINTS
TCL: Setting parameter alchLambda2 to 0.0
Info: NONBONDED TABLE R-SQUARED SPACING: 0.0625
Info: NONBONDED TABLE SIZE: 705 POINTS
TCL: Running for 1500000 steps
ETITLE: TS BOND ANGLE DIHED IMPRP ELECT VDW BOUNDARY MISC KINETIC TOTAL TEMP POTENTIAL TOTALAVG TEMPAVG PRESSURE GPRESSURE VOLUME PRESSAVG GPRESSAVG
ENERGY: 0 1.6283 5.3067 4.2207 0.0000 -10561.5098 1419.9215 0.0000 0.0000 1705.1508 -7425.2817 292.7071 -9130.4325 -7425.2817 292.7071 -48.1258 45.9704 30099.1637 -48.1258 45.9704
ENERGY: 300000 2.4606 5.2856 2.7174 0.0000 -10440.1854 1363.5158 0.0000 0.0000 1680.8178 -7385.3882 288.5301 -9066.2060 -7394.2995 294.2687 -664.4051 -566.6425 30422.4169 -277.8559 -204.2388
ENERGY: 600000 3.4239 8.3927 2.7512 0.0000 -10531.5554 1403.1650 0.0000 0.0000 1742.6791 -7371.1435 299.1493 -9113.8226 -7390.3384 297.6042 -188.8021 -106.4882 29903.6785 -257.7919 -178.0536
ENERGY: 900000 3.6301 3.4593 6.3557 0.0000 -10665.1648 1461.4932 0.0000 0.0000 1804.3109 -7385.9155 309.7290 -9190.2265 -7387.3625 300.1142 -124.3782 -67.7085 30299.4439 -213.8526 -141.5088
ENERGY: 1200000 2.5280 5.6170 6.2062 0.0000 -10651.3213 1471.6505 0.0000 0.0000 1684.7463 -7480.5732 289.2045 -9165.3195 -7412.7804 298.6498 497.9503 544.3447 29643.2433 -148.0081 -84.6996
ENERGY: 1500000 2.6659 6.0255 2.8013 0.0000 -10584.2476 1355.1401 0.0000 0.0000 1729.5429 -7488.0720 296.8943 -9217.6149 -7418.2584 298.0827 -480.6762 -425.5766 29317.8134 -195.8865 -135.0535
TCL: Exiting due to exit command.
