Info: SIMULATION PARAMETERS:
Info: TIMESTEP               2
Info: NUMBER OF STEPS        0
Info: STEPS PER CYCLE        10
Info: PERIODIC CELL BASIS 1  31.676 0 0
Info: PERIODIC CELL BASIS 2  0 29.4775 0
Info: PERIODIC CELL BASIS 3  0 0 32.8278
Info: PERIODIC CELL CENTER   0 0 0
Info: WRAPPING WATERS AROUND PERIODIC BOUNDARIES ON OUTPUT.
Info: WRAPPING ALL CLUSTERS AROUND PERIODIC BOUNDARIES ON OUTPUT.
Info: FIRST LDB TIMESTEP     50
Info: LAST LDB TIMESTEP     -1
Info: HOM BACKGROUND SCALING 1
Info: PME BACKGROUND SCALING 1
Info: MIN ATOMS PER PATCH    40
Info: EMPTY PATCH LOAD       40 ATOMS
Info: VELOCITY FILE          mobley_5449201_equil.vel
Info: CENTER OF MASS MOVING INITIALLY? NO
Info: DIELECTRIC             1
Info: EXCLUDE                SCALED ONE-FOUR
Info: 1-4 ELECTROSTATICS SCALED BY 0.833333
Info: MODIFIED 1-4 VDW PARAMETERS WILL BE USED
Info: DCD FILENAME           mobley_5449201_prod.dcd
Info: DCD FREQUENCY          100000
Info: DCD FIRST STEP         100000
Info: DCD FILE WILL CONTAIN UNIT CELL DATA
Info: XST FILENAME           mobley_5449201_prod.xst
Info: XST FREQUENCY          100000
Info: NO VELOCITY DCD OUTPUT
Info: NO FORCE DCD OUTPUT
Info: OUTPUT FILENAME        mobley_5449201_prod
Info: BINARY OUTPUT FILES WILL BE USED
Info: RESTART FILENAME       mobley_5449201_prod.restart
Info: RESTART FREQUENCY      100000
Info: BINARY RESTART FILES WILL BE USED
Info: CUTOFF                 9
Info: PAIRLIST DISTANCE      11
Info: PAIRLIST SHRINK RATE   0.01
Info: PAIRLIST GROW RATE     0.01
Info: PAIRLIST TRIGGER       0.3
Info: PAIRLISTS PER CYCLE    2
Info: PAIRLISTS ENABLED
Info: MARGIN                 2
Info: HYDROGEN GROUP CUTOFF  2.5
Info: PATCH DIMENSION        15.5
Info: ENERGY OUTPUT STEPS    100000
Info: ENERGY EVALUATION STEPS    100000
Info: OUTPUT ENERGY PRECISION 4
Info: CROSSTERM ENERGY INCLUDED IN DIHEDRAL
Info: TIMING OUTPUT STEPS    1000000
Info: PRESSURE OUTPUT STEPS  100000
Info: ALCHEMICAL FEP ON
Info: FEP CURRENT LAMBDA VALUE     0
Info: FEP COMPARISON LAMBDA VALUE  0.05
Info: FEP INTRA-ALCHEMICAL NON-BONDED INTERACTIONS WILL BE RETAINED
Info: FEP INTRA-ALCHEMICAL BONDED INTERACTIONS WILL BE RETAINED
Info: FEP VDW SHIFTING COEFFICIENT 5
Info: FEP ELEC. ACTIVE FOR ANNIHILATED PARTICLES BETWEEN LAMBDA = 0 AND LAMBDA = 0.5
Info: FEP ELEC. ACTIVE FOR EXNIHILATED PARTICLES BETWEEN LAMBDA = 0.5 AND LAMBDA = 1
Info: FEP VDW ACTIVE FOR ANNIHILATED PARTICLES BETWEEN LAMBDA = 0 AND LAMBDA = 1
Info: FEP VDW ACTIVE FOR EXNIHILATED PARTICLES BETWEEN LAMBDA = 0 AND LAMBDA = 1
Info: FEP BOND ACTIVE FOR ANNIHILATED PARTICLES BETWEEN LAMBDA = 1 AND LAMBDA = 1
Info: FEP BOND ACTIVE FOR EXNIHILATED PARTICLES BETWEEN LAMBDA = 0 AND LAMBDA = 0
Info: LANGEVIN DYNAMICS ACTIVE
Info: LANGEVIN TEMPERATURE   300
Info: LANGEVIN USING BBK INTEGRATOR
Info: LANGEVIN DAMPING COEFFICIENT IS 1 INVERSE PS
Info: LANGEVIN DYNAMICS APPLIED TO HYDROGENS
Info: LANGEVIN PISTON PRESSURE CONTROL ACTIVE
Info:        TARGET PRESSURE IS 1.01325 BAR
Info:     OSCILLATION PERIOD IS 50 FS
Info:             DECAY TIME IS 25 FS
Info:     PISTON TEMPERATURE IS 300 K
Info:       PRESSURE CONTROL IS GROUP-BASED
Info:    INITIAL STRAIN RATE IS -0.000385261 -0.000385261 -0.000385261
Info:       CELL FLUCTUATION IS ISOTROPIC
Info: PARTICLE MESH EWALD (PME) ACTIVE
Info: PME TOLERANCE               1e-06
Info: PME EWALD COEFFICIENT       0.348832
Info: PME INTERPOLATION ORDER     4
Info: PME GRID DIMENSIONS         32 32 36
Info: PME MAXIMUM GRID SPACING    1
Info: PME CALCULATION WILL BE PERFORMED ON GPU
Info: FULL ELECTROSTATIC EVALUATION FREQUENCY      2
Info: USING VERLET I (r-RESPA) MTS SCHEME.
Info: C1 SPLITTING OF LONG RANGE ELECTROSTATICS
Info: PLACING ATOMS IN PATCHES BY HYDROGEN GROUPS
Info: RIGID BONDS TO HYDROGEN : ALL
Info:         ERROR TOLERANCE : 1e-08
Info:          MAX ITERATIONS : 100
Info: RIGID WATER USING SETTLE ALGORITHM
Info: RANDOM NUMBER SEED     1743845117
Info: USE HYDROGEN BONDS?    NO
Info: Using AMBER format force field!
Info: AMBER PARM FILE        mobley_5449201.prmtop
Info: COORDINATE PDB         mobley_5449201.pdb
Info: Exclusions will be read from PARM file!
Info: SCNB (VDW SCALING)     2
Info: USING ARITHMETIC MEAN TO COMBINE L-J SIGMA PARAMETERS
Info: BINARY COORDINATES     mobley_5449201_equil.coor
Info: SUMMARY OF PARAMETERS:
Info: 4 BONDS
Info: 3 ANGLES
Info:   3 HARMONIC
Info:   0 COSINE-BASED
Info: 5 DIHEDRAL
Info: 0 IMPROPER
Info: 0 CROSSTERM
Info: 0 VDW
Info: 10 VDW_PAIRS
Info: 0 NBTHOLE_PAIRS
Info: To read alchdata from file: mobley_5449201.pdb
Info: To read alchflag data from column: 5
Info: STRUCTURE SUMMARY:
Info: 2987 ATOMS
Info: 2986 BONDS
Info: 30 ANGLES
Info: 40 DIHEDRALS
Info: 0 IMPROPERS
Info: 0 CROSSTERMS
Info: 3052 EXCLUSIONS
Info: 2982 RIGID BONDS
Info: ALCH: 0 ATOMS TO DISAPPEAR IN FINAL STATE
Info: ALCH: 17 ATOMS TO APPEAR IN FINAL STATE
Info: 5979 DEGREES OF FREEDOM
Info: 995 HYDROGEN GROUPS
Info: 4 ATOMS IN LARGEST HYDROGEN GROUP
Info: 995 MIGRATION GROUPS
Info: 4 ATOMS IN LARGEST MIGRATION GROUP
Info: TOTAL MASS = 17908 amu
Info: TOTAL CHARGE = -0.000200011 e
Info: MASS DENSITY = 0.97016 g/cm^3
Info: ATOM DENSITY = 0.0974479 atoms/A^3
Info: ADDED 0 IMPLICIT EXCLUSIONS
Info: NONBONDED TABLE R-SQUARED SPACING: 0.0625
Info: NONBONDED TABLE SIZE: 705 POINTS
Info: REMOVING COM VELOCITY 0.015573 -0.0202356 -0.146718
Info: Use 3D box decompostion in PME FFT.
Info: Updated CUDA force table with 4096 elements.
Info: Updated CUDA LJ table with 4 x 4 elements.
Info: Found 20 unique exclusion lists needing 48 bytes
TCL: Running for 1500000 steps
ETITLE: TS BOND ANGLE DIHED IMPRP ELECT VDW BOUNDARY MISC KINETIC TOTAL TEMP POTENTIAL TOTALAVG TEMPAVG PRESSURE GPRESSURE VOLUME PRESSAVG GPRESSAVG
ENERGY: 0 0.8531 6.4440 1.4429 0.0000 -10825.4513 1392.9359 0.0000 0.0000 1801.3231 -7622.4523 303.2169 -9423.7754 -7622.4523 303.2169 -781.9193 -700.5509 30652.2707 -781.9193 -700.5509
ENERGY: 300000 0.4725 12.3630 2.4404 0.0000 -10790.3528 1427.7277 0.0000 0.0000 1763.7837 -7583.5655 296.8979 -9347.3492 -7602.3743 298.2543 -248.1524 -167.2358 30578.3522 -448.6137 -363.4924
ENERGY: 600000 0.7611 11.2016 2.5477 0.0000 -10853.5763 1489.3950 0.0000 0.0000 1729.9557 -7619.7153 291.2037 -9349.6710 -7595.5195 298.4520 205.0690 278.5722 30566.2326 -166.7296 -92.2995
ENERGY: 900000 2.7043 9.4344 3.6746 0.0000 -10793.0285 1430.4566 0.0000 0.0000 1741.4100 -7605.3486 293.1318 -9346.7586 -7576.1645 299.6028 -514.7728 -419.7867 30759.4323 -140.0090 -60.4534
ENERGY: 1200000 0.1369 11.2503 2.6303 0.0000 -10737.2122 1359.4899 0.0000 0.0000 1829.4181 -7534.2867 307.9462 -9363.7048 -7581.3675 300.2121 -794.7039 -747.3371 30641.6116 -183.9125 -113.5572
ENERGY: 1500000 0.4386 7.3947 2.5206 0.0000 -10749.1368 1450.6839 0.0000 0.0000 1872.9717 -7415.1273 315.2775 -9288.0990 -7569.4841 300.7703 135.9425 177.6460 30833.5240 -146.7505 -82.3578
TCL: Running FEP window   2: Lambda1 0.05   Lambda2 0.1    [dLambda 0.05  ]
TCL: Setting parameter firsttimestep to 0
TCL: Setting parameter alchLambda to 0.05
Info: NONBONDED TABLE R-SQUARED SPACING: 0.0625
Info: NONBONDED TABLE SIZE: 705 POINTS
TCL: Setting parameter alchLambda2 to 0.1
Info: NONBONDED TABLE R-SQUARED SPACING: 0.0625
Info: NONBONDED TABLE SIZE: 705 POINTS
TCL: Running for 1500000 steps
ETITLE: TS BOND ANGLE DIHED IMPRP ELECT VDW BOUNDARY MISC KINETIC TOTAL TEMP POTENTIAL TOTALAVG TEMPAVG PRESSURE GPRESSURE VOLUME PRESSAVG GPRESSAVG
ENERGY: 0 0.4386 7.3947 2.5206 0.0000 -10749.1366 1452.8326 0.0000 0.0000 1872.0899 -7413.8602 315.1291 -9285.9502 -7413.8602 315.1291 102.4410 183.6247 30833.5240 102.4410 183.6247
ENERGY: 300000 3.8032 14.1892 2.0781 0.0000 -10795.3405 1442.4103 0.0000 0.0000 1778.4440 -7554.4159 299.3657 -9332.8599 -7506.6602 301.5635 -273.0810 -211.1040 30667.6731 -103.8903 -34.5445
ENERGY: 600000 1.7719 6.8783 1.9234 0.0000 -10722.9873 1378.7262 0.0000 0.0000 1755.0913 -7578.5963 295.4347 -9333.6875 -7517.8122 301.4385 -592.8807 -543.8416 30721.5392 -201.9689 -143.1132
ENERGY: 900000 2.4354 9.1265 1.5524 0.0000 -10767.8676 1394.1251 0.0000 0.0000 1779.2152 -7581.4130 299.4955 -9360.6282 -7529.6306 301.1526 -945.3858 -854.2419 31243.2927 -292.0499 -231.7375
ENERGY: 1200000 1.2856 10.5100 2.5885 0.0000 -10874.6560 1525.2071 0.0000 0.0000 1748.6229 -7586.4418 294.3459 -9335.0647 -7537.5912 300.9722 506.1322 555.0818 30412.9884 -241.6529 -181.6844
ENERGY: 1500000 2.3112 10.5469 1.1991 0.0000 -10896.4931 1474.2607 0.0000 0.0000 1765.3819 -7642.7933 297.1669 -9408.1752 -7549.1066 300.4221 -63.4192 48.3924 30260.0455 -198.3067 -132.5724
TCL: Running FEP window   3: Lambda1 0.1    Lambda2 0.15000000000000002 [dLambda 0.05000000000000002]
TCL: Setting parameter firsttimestep to 0
TCL: Setting parameter alchLambda to 0.1
Info: NONBONDED TABLE R-SQUARED SPACING: 0.0625
Info: NONBONDED TABLE SIZE: 705 POINTS
TCL: Setting parameter alchLambda2 to 0.15000000000000002
Info: NONBONDED TABLE R-SQUARED SPACING: 0.0625
Info: NONBONDED TABLE SIZE: 705 POINTS
TCL: Running for 1500000 steps
ETITLE: TS BOND ANGLE DIHED IMPRP ELECT VDW BOUNDARY MISC KINETIC TOTAL TEMP POTENTIAL TOTALAVG TEMPAVG PRESSURE GPRESSURE VOLUME PRESSAVG GPRESSAVG
ENERGY: 0 2.3112 10.5469 1.1991 0.0000 -10896.4937 1475.6074 0.0000 0.0000 1764.5079 -7642.3211 297.0198 -9406.8291 -7642.3211 297.0198 -42.7216 55.2320 30260.0455 -42.7216 55.2320
ENERGY: 300000 3.5609 4.1969 3.6626 0.0000 -10823.1054 1502.3735 0.0000 0.0000 1769.6742 -7539.6372 297.8895 -9309.3114 -7555.3836 299.8007 320.1787 353.6183 30821.9369 -282.2813 -226.1818
ENERGY: 600000 0.4547 7.7428 1.4740 0.0000 -10687.1125 1403.7980 0.0000 0.0000 1820.6973 -7452.9457 306.4782 -9273.6430 -7526.5903 300.8103 -314.0075 -223.3356 31011.3596 -242.9019 -191.9152
ENERGY: 900000 0.6168 7.9095 2.2343 0.0000 -10766.9153 1425.6698 0.0000 0.0000 1727.6690 -7602.8159 290.8187 -9330.4850 -7531.7963 299.9205 -205.4819 -121.7591 30403.0276 -204.7508 -142.1445
ENERGY: 1200000 1.0767 9.4734 1.7957 0.0000 -10689.5807 1415.9922 0.0000 0.0000 1806.0623 -7455.1804 304.0147 -9261.2427 -7526.2728 301.0553 -181.5192 -116.9461 31004.5472 -138.5741 -77.0520
ENERGY: 1500000 0.4499 8.6795 3.5098 0.0000 -10864.3205 1457.0391 0.0000 0.0000 1709.4865 -7685.1557 287.7581 -9394.6422 -7544.6634 299.9436 -172.6271 -150.3580 30491.3080 -183.1219 -122.9159
TCL: Running FEP window   4: Lambda1 0.15000000000000002 Lambda2 0.2    [dLambda 0.04999999999999999]
TCL: Setting parameter firsttimestep to 0
TCL: Setting parameter alchLambda to 0.15000000000000002
Info: NONBONDED TABLE R-SQUARED SPACING: 0.0625
Info: NONBONDED TABLE SIZE: 705 POINTS
TCL: Setting parameter alchLambda2 to 0.2
Info: NONBONDED TABLE R-SQUARED SPACING: 0.0625
Info: NONBONDED TABLE SIZE: 705 POINTS
TCL: Running for 1500000 steps
ETITLE: TS BOND ANGLE DIHED IMPRP ELECT VDW BOUNDARY MISC KINETIC TOTAL TEMP POTENTIAL TOTALAVG TEMPAVG PRESSURE GPRESSURE VOLUME PRESSAVG GPRESSAVG
ENERGY: 0 0.4499 8.6795 3.5098 0.0000 -10864.3200 1457.1023 0.0000 0.0000 1708.5924 -7685.9862 287.6076 -9394.5786 -7685.9862 287.6076 -214.1411 -146.1842 30491.3080 -214.1411 -146.1842
ENERGY: 300000 1.0171 6.0553 1.5290 0.0000 -10784.3496 1353.5339 0.0000 0.0000 1793.5328 -7628.6815 301.9056 -9422.2143 -7580.1599 297.5934 -750.4488 -682.8945 30236.3128 -366.5403 -297.4297
ENERGY: 600000 0.4811 8.5303 1.7020 0.0000 -10898.3442 1496.0232 0.0000 0.0000 1765.5281 -7626.0795 297.1916 -9391.6076 -7581.7977 297.9033 322.4230 443.2180 30385.8520 -268.2755 -197.3911
ENERGY: 900000 0.1360 7.5413 3.9450 0.0000 -10782.3077 1502.8989 0.0000 0.0000 1862.3410 -7405.4456 313.4881 -9267.7866 -7556.8279 298.6660 640.7356 721.4391 30370.8399 -139.3528 -74.9515
ENERGY: 1200000 1.6970 5.7195 2.5247 0.0000 -10729.9328 1421.1306 0.0000 0.0000 1760.5955 -7538.2654 296.3613 -9298.8609 -7552.9612 299.2446 -107.6134 -74.0204 30392.4591 -88.4700 -29.5578
ENERGY: 1500000 1.3971 7.1711 1.5500 0.0000 -10722.4051 1379.9888 0.0000 0.0000 1743.8777 -7588.4204 293.5471 -9332.2982 -7551.0416 299.6573 -844.5661 -773.0741 31035.0888 -122.4592 -58.3607
TCL: Running FEP window   5: Lambda1 0.2    Lambda2 0.25   [dLambda 0.04999999999999999]
TCL: Setting parameter firsttimestep to 0
TCL: Setting parameter alchLambda to 0.2
Info: NONBONDED TABLE R-SQUARED SPACING: 0.0625
Info: NONBONDED TABLE SIZE: 705 POINTS
TCL: Setting parameter alchLambda2 to 0.25
Info: NONBONDED TABLE R-SQUARED SPACING: 0.0625
Info: NONBONDED TABLE SIZE: 705 POINTS
TCL: Running for 1500000 steps
ETITLE: TS BOND ANGLE DIHED IMPRP ELECT VDW BOUNDARY MISC KINETIC TOTAL TEMP POTENTIAL TOTALAVG TEMPAVG PRESSURE GPRESSURE VOLUME PRESSAVG GPRESSAVG
ENERGY: 0 1.3971 7.1711 1.5500 0.0000 -10722.4060 1381.0892 0.0000 0.0000 1743.0292 -7588.1694 293.4043 -9331.1987 -7588.1694 293.4043 -842.6682 -766.9532 31035.0888 -842.6682 -766.9532
ENERGY: 300000 0.8561 9.8006 1.7805 0.0000 -10925.5134 1530.9460 0.0000 0.0000 1769.4603 -7612.6699 297.8535 -9382.1303 -7606.2135 297.2370 644.9593 628.6778 30413.3839 -44.9803 -6.1072
ENERGY: 600000 1.2991 11.8706 2.1922 0.0000 -10823.5045 1517.5733 0.0000 0.0000 1777.2021 -7513.3672 299.1566 -9290.5693 -7580.4923 297.5754 735.2099 845.5888 30402.3342 120.1335 183.0587
ENERGY: 900000 2.8892 12.0890 2.2306 0.0000 -10770.8722 1417.0359 0.0000 0.0000 1802.5250 -7534.1025 303.4193 -9336.6275 -7569.5413 298.7205 -441.8551 -487.2649 30705.5169 25.2850 72.5464
ENERGY: 1200000 0.5999 5.0960 1.3227 0.0000 -10877.7944 1501.2596 0.0000 0.0000 1749.1887 -7620.3275 294.4411 -9369.5162 -7559.9810 299.8354 588.3429 666.3316 29881.3548 118.8854 170.8454
ENERGY: 1500000 1.6287 6.6109 1.0766 0.0000 -10775.5669 1409.1320 0.0000 0.0000 1792.6380 -7564.4806 301.7550 -9357.1187 -7564.2194 299.7777 -303.8191 -269.1418 30709.8678 36.0453 88.7811
TCL: Running FEP window   6: Lambda1 0.25   Lambda2 0.3    [dLambda 0.04999999999999999]
TCL: Setting parameter firsttimestep to 0
TCL: Setting parameter alchLambda to 0.25
Info: NONBONDED TABLE R-SQUARED SPACING: 0.0625
Info: NONBONDED TABLE SIZE: 705 POINTS
TCL: Setting parameter alchLambda2 to 0.3
Info: NONBONDED TABLE R-SQUARED SPACING: 0.0625
Info: NONBONDED TABLE SIZE: 705 POINTS
TCL: Running for 1500000 steps
ETITLE: TS BOND ANGLE DIHED IMPRP ELECT VDW BOUNDARY MISC KINETIC TOTAL TEMP POTENTIAL TOTALAVG TEMPAVG PRESSURE GPRESSURE VOLUME PRESSAVG GPRESSAVG
ENERGY: 0 1.6287 6.6109 1.0766 0.0000 -10775.5690 1408.7005 0.0000 0.0000 1791.7451 -7565.8072 301.6047 -9357.5523 -7565.8072 301.6047 -351.1069 -268.6425 30709.8678 -351.1069 -268.6425
ENERGY: 300000 2.3485 12.0140 2.2612 0.0000 -10884.3837 1505.7795 0.0000 0.0000 1829.8660 -7532.1145 308.0216 -9361.9805 -7581.0224 299.7062 244.9804 410.6588 30493.0222 -25.2230 61.5176
ENERGY: 600000 1.9763 8.6021 1.7137 0.0000 -10765.5660 1428.8134 0.0000 0.0000 1793.6453 -7530.8152 301.9245 -9324.4606 -7562.0235 300.2609 -320.7654 -235.3441 30735.1946 46.3764 120.7426
ENERGY: 900000 0.6823 6.6637 3.3530 0.0000 -10688.3790 1412.1779 0.0000 0.0000 1750.0228 -7515.4793 294.5816 -9265.5021 -7550.5806 299.5460 -114.5178 -71.6962 30789.5029 -77.3415 -0.3605
ENERGY: 1200000 2.7242 8.3969 3.2172 0.0000 -10854.4005 1494.9854 0.0000 0.0000 1753.5317 -7591.5451 295.1722 -9345.0768 -7558.0979 298.3606 411.9253 465.2692 30201.5980 28.8876 97.8888
ENERGY: 1500000 0.5387 8.7480 2.6592 0.0000 -10863.7748 1477.3921 0.0000 0.0000 1821.2450 -7553.1919 306.5704 -9374.4369 -7558.9809 298.9352 6.2341 80.0864 30628.7356 -10.1002 55.8272
TCL: Running FEP window   7: Lambda1 0.3    Lambda2 0.35   [dLambda 0.04999999999999999]
TCL: Setting parameter firsttimestep to 0
TCL: Setting parameter alchLambda to 0.3
Info: NONBONDED TABLE R-SQUARED SPACING: 0.0625
Info: NONBONDED TABLE SIZE: 705 POINTS
TCL: Setting parameter alchLambda2 to 0.35
Info: NONBONDED TABLE R-SQUARED SPACING: 0.0625
Info: NONBONDED TABLE SIZE: 705 POINTS
TCL: Running for 1500000 steps
ETITLE: TS BOND ANGLE DIHED IMPRP ELECT VDW BOUNDARY MISC KINETIC TOTAL TEMP POTENTIAL TOTALAVG TEMPAVG PRESSURE GPRESSURE VOLUME PRESSAVG GPRESSAVG
ENERGY: 0 0.5387 8.7480 2.6592 0.0000 -10863.7740 1477.6739 0.0000 0.0000 1820.3698 -7553.7845 306.4231 -9374.1544 -7553.7845 306.4231 10.8221 86.6763 30628.7356 10.8221 86.6763
ENERGY: 300000 0.9276 7.3091 1.2891 0.0000 -10849.3142 1467.9540 0.0000 0.0000 1828.0564 -7543.7781 307.7170 -9371.8345 -7540.8277 303.7782 -23.6565 34.4628 30626.1455 -119.1189 -28.7614
ENERGY: 600000 0.8131 7.2842 1.9719 0.0000 -10920.9830 1519.5443 0.0000 0.0000 1778.4132 -7612.9563 299.3605 -9391.3695 -7591.7441 301.5362 226.8847 268.5667 30809.8046 -97.0586 -26.9369
ENERGY: 900000 1.0685 9.0884 1.7784 0.0000 -10903.0098 1509.3197 0.0000 0.0000 1824.2250 -7557.5299 307.0720 -9381.7549 -7569.8692 301.4602 319.1182 380.7541 30475.5379 142.0786 213.9374
ENERGY: 1200000 0.9996 4.5327 2.4829 0.0000 -10768.6801 1393.7744 0.0000 0.0000 1793.8315 -7573.0590 301.9559 -9366.8905 -7566.9847 300.2130 -691.4042 -651.8494 30997.0632 38.3242 112.0163
ENERGY: 1500000 3.8923 4.5893 1.0968 0.0000 -10830.1451 1494.3533 0.0000 0.0000 1729.6059 -7596.6075 291.1448 -9326.2134 -7569.3655 299.2535 284.5771 302.1139 30742.5162 91.9475 165.2225
TCL: Running FEP window   8: Lambda1 0.35   Lambda2 0.39999999999999997 [dLambda 0.04999999999999999]
TCL: Setting parameter firsttimestep to 0
TCL: Setting parameter alchLambda to 0.35
Info: NONBONDED TABLE R-SQUARED SPACING: 0.0625
Info: NONBONDED TABLE SIZE: 705 POINTS
TCL: Setting parameter alchLambda2 to 0.39999999999999997
Info: NONBONDED TABLE R-SQUARED SPACING: 0.0625
Info: NONBONDED TABLE SIZE: 705 POINTS
TCL: Running for 1500000 steps
ETITLE: TS BOND ANGLE DIHED IMPRP ELECT VDW BOUNDARY MISC KINETIC TOTAL TEMP POTENTIAL TOTALAVG TEMPAVG PRESSURE GPRESSURE VOLUME PRESSAVG GPRESSAVG
ENERGY: 0 3.8923 4.5893 1.0968 0.0000 -10830.1453 1494.6721 0.0000 0.0000 1728.6964 -7597.1983 290.9917 -9325.8948 -7597.1983 290.9917 218.4975 309.3849 30742.5162 218.4975 309.3849
ENERGY: 300000 0.4200 7.0231 1.5649 0.0000 -10805.3469 1479.3378 0.0000 0.0000 1729.8795 -7587.1216 291.1908 -9317.0011 -7542.4598 295.9913 163.7638 226.5850 30668.3536 -154.3383 -104.2040
ENERGY: 600000 2.9323 12.1602 1.7961 0.0000 -10740.6470 1437.6179 0.0000 0.0000 1827.2337 -7458.9068 307.5785 -9286.1405 -7548.6663 300.0707 142.0489 151.2757 30770.6981 -48.9689 4.9397
ENERGY: 900000 0.9044 7.7856 3.8116 0.0000 -10716.0726 1437.2248 0.0000 0.0000 1827.4007 -7438.9455 307.6066 -9266.3462 -7544.8342 299.7368 -25.5718 90.0030 30690.6926 -199.7105 -137.2365
ENERGY: 1200000 1.7166 8.2743 2.0293 0.0000 -10753.7563 1428.3502 0.0000 0.0000 1764.2446 -7549.1414 296.9755 -9313.3859 -7547.8363 299.2113 -295.8130 -215.0544 30847.4803 -151.8891 -90.1727
ENERGY: 1500000 0.3070 7.4332 2.6468 0.0000 -10735.2368 1430.6404 0.0000 0.0000 1811.4384 -7482.7710 304.9196 -9294.2094 -7539.3792 299.0845 -215.3871 -116.9367 30793.0903 -192.1864 -128.5465
TCL: Running FEP window   9: Lambda1 0.39999999999999997 Lambda2 0.44999999999999996 [dLambda 0.04999999999999999]
TCL: Setting parameter firsttimestep to 0
TCL: Setting parameter alchLambda to 0.39999999999999997
Info: NONBONDED TABLE R-SQUARED SPACING: 0.0625
Info: NONBONDED TABLE SIZE: 705 POINTS
TCL: Setting parameter alchLambda2 to 0.44999999999999996
Info: NONBONDED TABLE R-SQUARED SPACING: 0.0625
Info: NONBONDED TABLE SIZE: 705 POINTS
TCL: Running for 1500000 steps
ETITLE: TS BOND ANGLE DIHED IMPRP ELECT VDW BOUNDARY MISC KINETIC TOTAL TEMP POTENTIAL TOTALAVG TEMPAVG PRESSURE GPRESSURE VOLUME PRESSAVG GPRESSAVG
ENERGY: 0 0.3070 7.4332 2.6468 0.0000 -10735.2365 1430.6845 0.0000 0.0000 1810.5674 -7483.5975 304.7730 -9294.1649 -7483.5975 304.7730 -193.9722 -110.4719 30793.0903 -193.9722 -110.4719
ENERGY: 300000 0.5885 8.2248 2.5705 0.0000 -10798.8595 1474.3961 0.0000 0.0000 1769.9332 -7543.1465 297.9331 -9313.0797 -7534.6778 300.3036 84.6057 208.5352 30707.7266 -70.1808 -4.6075
ENERGY: 600000 1.5613 5.1772 1.9514 0.0000 -10824.9383 1456.4735 0.0000 0.0000 1731.5765 -7628.1983 291.4765 -9359.7748 -7568.7088 297.6146 58.3101 145.5775 30478.4276 -79.2058 2.0590
ENERGY: 900000 1.7899 10.2022 2.6318 0.0000 -10677.1232 1469.1142 0.0000 0.0000 1723.0428 -7470.3423 290.0400 -9193.3851 -7559.1101 297.8218 144.5102 223.6274 31326.7358 -71.1111 3.3309
ENERGY: 1200000 1.5919 12.7129 2.8909 0.0000 -10720.2710 1500.3677 0.0000 0.0000 1803.8548 -7398.8529 303.6431 -9202.7077 -7554.5821 297.6824 708.1441 790.0831 30494.3061 -71.8384 -2.6679
ENERGY: 1500000 1.9054 5.8919 3.4317 0.0000 -10868.8410 1480.4376 0.0000 0.0000 1826.0270 -7551.1473 307.3753 -9377.1744 -7551.2552 298.6358 503.2337 587.9800 30151.5207 -101.5901 -34.3080
TCL: Running FEP window  10: Lambda1 0.44999999999999996 Lambda2 0.49999999999999994 [dLambda 0.04999999999999999]
TCL: Setting parameter firsttimestep to 0
TCL: Setting parameter alchLambda to 0.44999999999999996
Info: NONBONDED TABLE R-SQUARED SPACING: 0.0625
Info: NONBONDED TABLE SIZE: 705 POINTS
TCL: Setting parameter alchLambda2 to 0.49999999999999994
Info: NONBONDED TABLE R-SQUARED SPACING: 0.0625
Info: NONBONDED TABLE SIZE: 705 POINTS
TCL: Running for 1500000 steps
ETITLE: TS BOND ANGLE DIHED IMPRP ELECT VDW BOUNDARY MISC KINETIC TOTAL TEMP POTENTIAL TOTALAVG TEMPAVG PRESSURE GPRESSURE VOLUME PRESSAVG GPRESSAVG
ENERGY: 0 1.9054 5.8919 3.4317 0.0000 -10868.8423 1480.0821 0.0000 0.0000 1825.1303 -7552.4009 307.2244 -9377.5312 -7552.4009 307.2244 518.0032 589.3346 30151.5207 518.0032 589.3346
ENERGY: 300000 0.0963 9.0302 2.7607 0.0000 -10846.8133 1465.5002 0.0000 0.0000 1722.2461 -7647.1798 289.9059 -9369.4259 -7582.1803 299.4572 -187.9178 -137.4570 31041.8952 -16.2096 46.3358
ENERGY: 600000 0.2831 10.5596 1.7842 0.0000 -10717.2130 1392.9819 0.0000 0.0000 1829.6992 -7481.9050 307.9935 -9311.6042 -7563.1876 299.6984 -540.5563 -468.5268 31141.4796 -168.1268 -96.0506
ENERGY: 900000 1.7748 8.1489 1.9650 0.0000 -10697.0908 1452.7679 0.0000 0.0000 1832.0972 -7400.3370 308.3971 -9232.4342 -7537.3256 301.5587 -53.9685 -10.8612 31337.1007 -146.1907 -89.0405
ENERGY: 1200000 2.2217 7.7693 1.4408 0.0000 -10664.7445 1444.7358 0.0000 0.0000 1783.0052 -7425.5716 300.1335 -9208.5768 -7535.4845 300.5674 -78.0449 36.0883 31408.9894 -100.3089 -43.7416
ENERGY: 1500000 2.4943 7.7111 1.9562 0.0000 -10694.0291 1385.7678 0.0000 0.0000 1790.1736 -7505.9261 301.3401 -9296.0997 -7531.3103 300.8861 -508.3055 -412.2490 30670.3337 -137.9236 -77.1629
TCL: Running FEP window  11: Lambda1 0.49999999999999994 Lambda2 0.5499999999999999 [dLambda 0.04999999999999999]
TCL: Setting parameter firsttimestep to 0
TCL: Setting parameter alchLambda to 0.49999999999999994
Info: NONBONDED TABLE R-SQUARED SPACING: 0.0625
Info: NONBONDED TABLE SIZE: 705 POINTS
TCL: Setting parameter alchLambda2 to 0.5499999999999999
Info: NONBONDED TABLE R-SQUARED SPACING: 0.0625
Info: NONBONDED TABLE SIZE: 705 POINTS
TCL: Running for 1500000 steps
ETITLE: TS BOND ANGLE DIHED IMPRP ELECT VDW BOUNDARY MISC KINETIC TOTAL TEMP POTENTIAL TOTALAVG TEMPAVG PRESSURE GPRESSURE VOLUME PRESSAVG GPRESSAVG
ENERGY: 0 2.4943 7.7111 1.9562 0.0000 -10694.0279 1386.7024 0.0000 0.0000 1789.3282 -7505.8358 301.1978 -9295.1640 -7505.8358 301.1978 -485.5400 -396.4556 30670.3337 -485.5400 -396.4556
ENERGY: 300000 2.1927 11.1256 3.0108 0.0000 -10766.9721 1386.7204 0.0000 0.0000 1799.6083 -7564.3144 302.9283 -9363.9227 -7528.0391 304.0836 -388.1420 -361.9778 30461.9501 46.3468 92.2592
ENERGY: 600000 1.2630 7.3285 2.0916 0.0000 -10765.9746 1423.4668 0.0000 0.0000 1789.4967 -7542.3280 301.2262 -9331.8247 -7534.8108 302.2590 -144.3814 -101.9334 30415.9323 47.3195 90.4655
ENERGY: 900000 3.7887 7.6349 1.4420 0.0000 -10653.7856 1345.4555 0.0000 0.0000 1824.0728 -7471.3917 307.0464 -9295.4645 -7532.1120 302.2867 -789.3367 -714.8339 30968.3083 -1.5728 50.0453
ENERGY: 1200000 2.8802 9.9131 1.4942 0.0000 -10825.1933 1445.4554 0.0000 0.0000 1799.7882 -7565.6622 302.9586 -9365.4504 -7541.2970 301.6824 23.1697 56.5070 30541.0123 15.4178 68.1808
ENERGY: 1500000 3.4022 6.7183 3.7997 0.0000 -10695.8324 1384.0625 0.0000 0.0000 1796.4777 -7501.3721 302.4013 -9297.8498 -7540.2603 301.7359 -596.5199 -522.8663 30880.1591 -20.6467 37.4416
TCL: Running FEP window  12: Lambda1 0.5499999999999999 Lambda2 0.6    [dLambda 0.050000000000000044]
TCL: Setting parameter firsttimestep to 0
TCL: Setting parameter alchLambda to 0.5499999999999999
Info: NONBONDED TABLE R-SQUARED SPACING: 0.0625
Info: NONBONDED TABLE SIZE: 705 POINTS
TCL: Setting parameter alchLambda2 to 0.6
Info: NONBONDED TABLE R-SQUARED SPACING: 0.0625
Info: NONBONDED TABLE SIZE: 705 POINTS
TCL: Running for 1500000 steps
ETITLE: TS BOND ANGLE DIHED IMPRP ELECT VDW BOUNDARY MISC KINETIC TOTAL TEMP POTENTIAL TOTALAVG TEMPAVG PRESSURE GPRESSURE VOLUME PRESSAVG GPRESSAVG
ENERGY: 0 3.4022 6.7183 3.7997 0.0000 -10695.8461 1383.7642 0.0000 0.0000 1795.6094 -7502.5524 302.2552 -9298.1618 -7502.5524 302.2552 -613.1787 -520.2505 30880.1591 -613.1787 -520.2505
ENERGY: 300000 0.3238 6.3014 2.2573 0.0000 -10776.3171 1432.4406 0.0000 0.0000 1758.8715 -7576.1224 296.0711 -9334.9940 -7528.5987 301.6704 -97.3421 9.0419 30419.3709 -463.6857 -391.4233
ENERGY: 600000 1.0683 7.3061 1.2658 0.0000 -10669.2703 1352.7230 0.0000 0.0000 1748.1827 -7558.7245 294.2718 -9306.9071 -7559.4933 297.2090 -616.1596 -531.0362 30779.8071 -286.9865 -207.6451
ENERGY: 900000 1.5601 9.4706 1.3286 0.0000 -10756.3613 1401.7688 0.0000 0.0000 1769.4749 -7572.7583 297.8559 -9342.2333 -7565.0788 297.2726 -331.2816 -318.1550 31035.6307 -215.3662 -145.5218
ENERGY: 1200000 0.5974 5.4821 1.9799 0.0000 -10870.5176 1447.0729 0.0000 0.0000 1798.0596 -7617.3257 302.6676 -9415.3853 -7568.0823 298.0481 -237.7678 -121.3219 30472.3309 -175.1433 -100.6618
ENERGY: 1500000 0.5290 7.8341 2.4057 0.0000 -10810.1944 1439.3890 0.0000 0.0000 1740.3750 -7619.6616 292.9575 -9360.0366 -7568.3287 298.4542 -353.9891 -230.2031 30869.2135 -177.8898 -104.7967
TCL: Running FEP window  13: Lambda1 0.6    Lambda2 0.65   [dLambda 0.050000000000000044]
TCL: Setting parameter firsttimestep to 0
TCL: Setting parameter alchLambda to 0.6
Info: NONBONDED TABLE R-SQUARED SPACING: 0.0625
Info: NONBONDED TABLE SIZE: 705 POINTS
TCL: Setting parameter alchLambda2 to 0.65
Info: NONBONDED TABLE R-SQUARED SPACING: 0.0625
Info: NONBONDED TABLE SIZE: 705 POINTS
TCL: Running for 1500000 steps
ETITLE: TS BOND ANGLE DIHED IMPRP ELECT VDW BOUNDARY MISC KINETIC TOTAL TEMP POTENTIAL TOTALAVG TEMPAVG PRESSURE GPRESSURE VOLUME PRESSAVG GPRESSAVG
ENERGY: 0 0.5290 7.8341 2.4057 0.0000 -10810.1867 1438.9321 0.0000 0.0000 1739.5060 -7620.9798 292.8113 -9360.4858 -7620.9798 292.8113 -305.6273 -227.6541 30869.2135 -305.6273 -227.6541
ENERGY: 300000 1.3063 5.6450 2.9580 0.0000 -10845.1400 1411.9411 0.0000 0.0000 1759.5491 -7663.7405 296.1851 -9423.2896 -7590.2467 300.3591 -634.1422 -572.7973 30542.5536 -266.4213 -200.3741
ENERGY: 600000 0.1384 8.8661 1.4865 0.0000 -10761.8746 1425.9482 0.0000 0.0000 1774.1776 -7551.2578 298.6475 -9325.4354 -7586.1533 301.2951 -270.4988 -184.7371 31035.7661 -107.1688 -34.6783
ENERGY: 900000 0.7856 5.6432 2.3824 0.0000 -10895.2789 1469.4471 0.0000 0.0000 1765.9249 -7651.0957 297.2584 -9417.0206 -7576.9925 300.8810 -201.2808 -108.6145 30549.0871 -223.6135 -154.8390
ENERGY: 1200000 0.7148 4.5086 1.6216 0.0000 -10871.4283 1505.2433 0.0000 0.0000 1804.6261 -7554.7137 303.7729 -9359.3398 -7575.4037 300.4570 406.4964 410.5058 30481.1666 -181.3908 -121.0727
ENERGY: 1500000 0.5014 8.5701 1.7295 0.0000 -10810.6969 1458.1148 0.0000 0.0000 1829.3809 -7512.4002 307.9399 -9341.7811 -7569.2914 301.5091 -122.8144 -113.5479 31213.2360 -147.3243 -93.7903
TCL: Running FEP window  14: Lambda1 0.65   Lambda2 0.7000000000000001 [dLambda 0.050000000000000044]
TCL: Setting parameter firsttimestep to 0
TCL: Setting parameter alchLambda to 0.65
Info: NONBONDED TABLE R-SQUARED SPACING: 0.0625
Info: NONBONDED TABLE SIZE: 705 POINTS
TCL: Setting parameter alchLambda2 to 0.7000000000000001
Info: NONBONDED TABLE R-SQUARED SPACING: 0.0625
Info: NONBONDED TABLE SIZE: 705 POINTS
TCL: Running for 1500000 steps
ETITLE: TS BOND ANGLE DIHED IMPRP ELECT VDW BOUNDARY MISC KINETIC TOTAL TEMP POTENTIAL TOTALAVG TEMPAVG PRESSURE GPRESSURE VOLUME PRESSAVG GPRESSAVG
ENERGY: 0 0.5014 8.5701 1.7295 0.0000 -10810.6983 1458.4715 0.0000 0.0000 1828.5078 -7512.9181 307.7929 -9341.4259 -7512.9181 307.7929 -164.3451 -101.9214 31213.2360 -164.3451 -101.9214
ENERGY: 300000 1.1172 5.0321 1.9291 0.0000 -10780.8719 1493.1511 0.0000 0.0000 1841.4547 -7438.1877 309.9723 -9279.6424 -7475.6127 305.2920 435.1369 493.0708 30631.1366 -28.2734 43.9128
ENERGY: 600000 0.6049 9.1070 2.4708 0.0000 -10699.9034 1342.3062 0.0000 0.0000 1772.3493 -7573.0653 298.3398 -9345.4145 -7528.0116 301.6628 -963.8303 -808.1395 30845.6764 -177.1225 -96.7054
ENERGY: 900000 1.6897 9.0938 1.9155 0.0000 -10713.1916 1385.8275 0.0000 0.0000 1797.6332 -7517.0320 302.5958 -9314.6652 -7531.5817 301.8519 -314.9037 -235.7561 30510.7818 -124.8924 -50.6562
ENERGY: 1200000 0.7864 6.5624 2.2002 0.0000 -10541.9521 1318.3062 0.0000 0.0000 1775.3448 -7438.7522 298.8440 -9214.0970 -7537.1628 300.8543 -634.7480 -554.3694 30734.2785 -158.2064 -89.2786
ENERGY: 1500000 0.7066 10.0554 1.8704 0.0000 -10807.8344 1385.4725 0.0000 0.0000 1835.9636 -7573.7659 309.0480 -9409.7295 -7538.8095 301.0074 -788.7787 -713.9093 30979.5985 -195.1781 -131.8072
TCL: Running FEP window  15: Lambda1 0.7000000000000001 Lambda2 0.7500000000000001 [dLambda 0.050000000000000044]
TCL: Setting parameter firsttimestep to 0
TCL: Setting parameter alchLambda to 0.7000000000000001
Info: NONBONDED TABLE R-SQUARED SPACING: 0.0625
Info: NONBONDED TABLE SIZE: 705 POINTS
TCL: Setting parameter alchLambda2 to 0.7500000000000001
Info: NONBONDED TABLE R-SQUARED SPACING: 0.0625
Info: NONBONDED TABLE SIZE: 705 POINTS
TCL: Running for 1500000 steps
ETITLE: TS BOND ANGLE DIHED IMPRP ELECT VDW BOUNDARY MISC KINETIC TOTAL TEMP POTENTIAL TOTALAVG TEMPAVG PRESSURE GPRESSURE VOLUME PRESSAVG GPRESSAVG
ENERGY: 0 0.7066 10.0554 1.8704 0.0000 -10807.8332 1385.6045 0.0000 0.0000 1835.0814 -7574.5148 308.8995 -9409.5962 -7574.5148 308.8995 -784.5700 -705.8658 30979.5985 -784.5700 -705.8658
ENERGY: 300000 0.6482 7.8137 2.3530 0.0000 -10883.8311 1471.8954 0.0000 0.0000 1743.0396 -7658.0812 293.4061 -9401.1208 -7637.5866 295.6637 41.3208 97.2637 30618.6063 -32.9813 37.4913
ENERGY: 600000 0.7383 6.8598 1.8171 0.0000 -10612.4645 1360.7161 0.0000 0.0000 1804.2648 -7438.0683 303.7121 -9242.3331 -7589.1157 298.2448 -239.7736 -146.3892 30608.7120 -76.1544 -3.8496
ENERGY: 900000 1.1788 5.8177 2.4588 0.0000 -10821.8598 1441.6974 0.0000 0.0000 1779.6976 -7591.0096 299.5767 -9370.7071 -7572.7498 300.5704 -239.1858 -169.0114 30735.0653 -71.0366 1.4832
ENERGY: 1200000 1.3144 4.1703 3.0373 0.0000 -10752.6326 1374.5945 0.0000 0.0000 1787.3348 -7582.1812 300.8623 -9369.5160 -7578.9574 299.7992 -935.8627 -849.8933 31013.5179 -124.1316 -50.7079
ENERGY: 1500000 2.8412 8.8004 1.3538 0.0000 -10761.5904 1443.9215 0.0000 0.0000 1798.2643 -7506.4093 302.7020 -9304.6736 -7582.8841 299.9065 27.1163 19.5973 30934.4178 -170.0436 -106.3565
TCL: Running FEP window  16: Lambda1 0.7500000000000001 Lambda2 0.8000000000000002 [dLambda 0.050000000000000044]
TCL: Setting parameter firsttimestep to 0
TCL: Setting parameter alchLambda to 0.7500000000000001
Info: NONBONDED TABLE R-SQUARED SPACING: 0.0625
Info: NONBONDED TABLE SIZE: 705 POINTS
TCL: Setting parameter alchLambda2 to 0.8000000000000002
Info: NONBONDED TABLE R-SQUARED SPACING: 0.0625
Info: NONBONDED TABLE SIZE: 705 POINTS
TCL: Running for 1500000 steps
ETITLE: TS BOND ANGLE DIHED IMPRP ELECT VDW BOUNDARY MISC KINETIC TOTAL TEMP POTENTIAL TOTALAVG TEMPAVG PRESSURE GPRESSURE VOLUME PRESSAVG GPRESSAVG
ENERGY: 0 2.8412 8.8004 1.3538 0.0000 -10761.5772 1444.7299 0.0000 0.0000 1797.3749 -7506.4770 302.5523 -9303.8519 -7506.4770 302.5523 -31.6943 37.5852 30934.4178 -31.6943 37.5852
ENERGY: 300000 1.7334 11.1137 1.5401 0.0000 -10892.1712 1487.4397 0.0000 0.0000 1783.2359 -7607.1084 300.1723 -9390.3443 -7585.9197 300.4835 431.2039 423.3462 30274.1070 92.8776 146.6212
ENERGY: 600000 2.7512 9.8496 1.1613 0.0000 -10599.7996 1329.5664 0.0000 0.0000 1725.0695 -7531.4016 290.3812 -9256.4711 -7580.6190 300.1752 -963.7233 -881.3685 31143.7584 -170.3826 -110.0881
ENERGY: 900000 0.5450 6.6533 1.4504 0.0000 -10894.1519 1503.5784 0.0000 0.0000 1783.0014 -7598.9234 300.1328 -9381.9248 -7578.4976 299.9977 415.1908 454.6844 30481.3522 -76.2879 -16.5105
ENERGY: 1200000 0.9653 7.4196 2.0585 0.0000 -10797.7419 1462.2256 0.0000 0.0000 1739.8081 -7585.2648 292.8621 -9325.0729 -7570.3103 299.0768 42.7556 111.0905 30884.8147 -112.7174 -50.2446
ENERGY: 1500000 1.0115 6.6889 1.5582 0.0000 -10755.8431 1363.9548 0.0000 0.0000 1795.0560 -7587.5736 302.1620 -9382.6296 -7574.3153 298.7997 -748.2525 -660.6653 30490.4052 -187.4759 -125.6711
TCL: Running FEP window  17: Lambda1 0.8000000000000002 Lambda2 0.8500000000000002 [dLambda 0.050000000000000044]
TCL: Setting parameter firsttimestep to 0
TCL: Setting parameter alchLambda to 0.8000000000000002
Info: NONBONDED TABLE R-SQUARED SPACING: 0.0625
Info: NONBONDED TABLE SIZE: 705 POINTS
TCL: Setting parameter alchLambda2 to 0.8500000000000002
Info: NONBONDED TABLE R-SQUARED SPACING: 0.0625
Info: NONBONDED TABLE SIZE: 705 POINTS
TCL: Running for 1500000 steps
ETITLE: TS BOND ANGLE DIHED IMPRP ELECT VDW BOUNDARY MISC KINETIC TOTAL TEMP POTENTIAL TOTALAVG TEMPAVG PRESSURE GPRESSURE VOLUME PRESSAVG GPRESSAVG
ENERGY: 0 1.0115 6.6889 1.5582 0.0000 -10755.8702 1363.9640 0.0000 0.0000 1794.1904 -7588.4571 302.0163 -9382.6475 -7588.4571 302.0163 -734.3795 -653.3951 30490.4052 -734.3795 -653.3951
ENERGY: 300000 0.9627 10.3838 1.4484 0.0000 -10778.3836 1458.0767 0.0000 0.0000 1786.6880 -7520.8241 300.7534 -9307.5121 -7573.4625 300.3709 -43.4002 7.9153 30763.7716 -100.7783 -59.7620
ENERGY: 600000 1.5481 6.9882 1.5204 0.0000 -10836.2992 1431.5197 0.0000 0.0000 1797.6917 -7597.0311 302.6057 -9394.7228 -7569.4091 301.0534 -444.7179 -340.6022 31089.2818 -155.3805 -102.1917
ENERGY: 900000 0.5028 8.3151 1.9883 0.0000 -10760.4564 1490.7436 0.0000 0.0000 1793.6152 -7465.2914 301.9195 -9258.9066 -7557.4039 300.9767 610.8937 619.1067 30495.2083 -195.9816 -151.0141
ENERGY: 1200000 2.0466 7.1070 3.5322 0.0000 -10777.5778 1419.6346 0.0000 0.0000 1788.2673 -7556.9901 301.0192 -9345.2574 -7559.2974 300.2204 -204.3845 -106.9481 30743.3824 -93.8146 -43.5789
ENERGY: 1500000 1.8293 6.8256 1.3597 0.0000 -10881.0409 1477.5659 0.0000 0.0000 1776.7400 -7616.7204 299.0789 -9393.4604 -7568.5144 299.4328 -94.6417 -29.2788 30787.6850 -127.0900 -74.1317
TCL: Running FEP window  18: Lambda1 0.8500000000000002 Lambda2 0.9000000000000002 [dLambda 0.050000000000000044]
TCL: Setting parameter firsttimestep to 0
TCL: Setting parameter alchLambda to 0.8500000000000002
Info: NONBONDED TABLE R-SQUARED SPACING: 0.0625
Info: NONBONDED TABLE SIZE: 705 POINTS
TCL: Setting parameter alchLambda2 to 0.9000000000000002
Info: NONBONDED TABLE R-SQUARED SPACING: 0.0625
Info: NONBONDED TABLE SIZE: 705 POINTS
TCL: Running for 1500000 steps
ETITLE: TS BOND ANGLE DIHED IMPRP ELECT VDW BOUNDARY MISC KINETIC TOTAL TEMP POTENTIAL TOTALAVG TEMPAVG PRESSURE GPRESSURE VOLUME PRESSAVG GPRESSAVG
ENERGY: 0 1.8293 6.8256 1.3597 0.0000 -10881.0453 1477.4963 0.0000 0.0000 1775.8846 -7617.6498 298.9349 -9393.5344 -7617.6498 298.9349 -103.8582 -20.0063 30787.6850 -103.8582 -20.0063
ENERGY: 300000 1.8743 9.9036 1.8442 0.0000 -10748.9310 1389.5700 0.0000 0.0000 1801.3284 -7544.4105 303.2178 -9345.7389 -7564.4170 301.3064 -557.5541 -537.9139 30834.4172 -292.4435 -233.3750
ENERGY: 600000 4.5275 11.0776 3.6393 0.0000 -10747.6943 1422.3865 0.0000 0.0000 1814.4180 -7491.6453 305.4212 -9306.0633 -7547.5205 301.9801 -338.6814 -308.4757 30846.1407 -256.6607 -205.5418
ENERGY: 900000 0.7429 7.2351 2.0159 0.0000 -10867.5989 1503.9827 0.0000 0.0000 1832.7356 -7520.8867 308.5046 -9353.6223 -7548.2406 301.6745 692.9314 764.4618 30423.2698 -114.3561 -69.0258
ENERGY: 1200000 2.1713 10.1712 2.4116 0.0000 -10764.2171 1453.8425 0.0000 0.0000 1788.6396 -7506.9810 301.0819 -9295.6206 -7564.3073 299.7375 -298.4569 -190.5787 31333.6232 -96.2813 -37.8500
ENERGY: 1500000 0.5017 9.7079 3.6280 0.0000 -10788.4693 1453.1424 0.0000 0.0000 1817.3905 -7504.0988 305.9216 -9321.4893 -7558.6768 300.4418 41.2790 103.3173 30912.3525 -40.4332 23.9089
TCL: Running FEP window  19: Lambda1 0.9000000000000002 Lambda2 0.9500000000000003 [dLambda 0.050000000000000044]
TCL: Setting parameter firsttimestep to 0
TCL: Setting parameter alchLambda to 0.9000000000000002
Info: NONBONDED TABLE R-SQUARED SPACING: 0.0625
Info: NONBONDED TABLE SIZE: 705 POINTS
TCL: Setting parameter alchLambda2 to 0.9500000000000003
Info: NONBONDED TABLE R-SQUARED SPACING: 0.0625
Info: NONBONDED TABLE SIZE: 705 POINTS
TCL: Running for 1500000 steps
ETITLE: TS BOND ANGLE DIHED IMPRP ELECT VDW BOUNDARY MISC KINETIC TOTAL TEMP POTENTIAL TOTALAVG TEMPAVG PRESSURE GPRESSURE VOLUME PRESSAVG GPRESSAVG
ENERGY: 0 0.5017 9.7079 3.6280 0.0000 -10788.4589 1452.8471 0.0000 0.0000 1816.5224 -7505.2517 305.7754 -9321.7742 -7505.2517 305.7754 16.0301 106.8796 30912.3525 16.0301 106.8796
ENERGY: 300000 0.6462 8.8639 1.1595 0.0000 -10732.6775 1426.7808 0.0000 0.0000 1790.4036 -7504.8234 301.3788 -9295.2270 -7527.4534 303.0071 259.1860 264.1769 30491.1382 -75.8861 -31.7461
ENERGY: 600000 0.8840 8.0438 2.3554 0.0000 -10794.2575 1447.5232 0.0000 0.0000 1836.1654 -7499.2857 309.0819 -9335.4510 -7535.9142 303.0161 46.6608 128.3391 30492.3139 -303.6494 -243.2824
ENERGY: 900000 0.5393 7.8468 1.8315 0.0000 -10771.4725 1440.3292 0.0000 0.0000 1752.9867 -7567.9390 295.0805 -9320.9257 -7551.0313 301.0329 171.4230 153.5361 30652.9302 -177.7251 -124.5783
ENERGY: 1200000 0.4982 5.4318 2.7102 0.0000 -10698.6595 1440.5440 0.0000 0.0000 1761.4087 -7488.0666 296.4981 -9249.4753 -7541.2029 301.3234 -62.0566 11.4217 31282.9574 -196.3310 -131.4288
ENERGY: 1500000 0.9240 7.5376 1.7277 0.0000 -10688.2976 1410.5410 0.0000 0.0000 1762.5545 -7505.0128 296.6910 -9267.5673 -7538.3867 301.0456 3.9650 36.1900 30844.5072 -246.9143 -187.7893
TCL: Running FEP window  20: Lambda1 0.9500000000000003 Lambda2 1.0    [dLambda 0.04999999999999971]
TCL: Setting parameter firsttimestep to 0
TCL: Setting parameter alchLambda to 0.9500000000000003
Info: NONBONDED TABLE R-SQUARED SPACING: 0.0625
Info: NONBONDED TABLE SIZE: 705 POINTS
TCL: Setting parameter alchLambda2 to 1.0
Info: NONBONDED TABLE R-SQUARED SPACING: 0.0625
Info: NONBONDED TABLE SIZE: 705 POINTS
TCL: Running for 1500000 steps
ETITLE: TS BOND ANGLE DIHED IMPRP ELECT VDW BOUNDARY MISC KINETIC TOTAL TEMP POTENTIAL TOTALAVG TEMPAVG PRESSURE GPRESSURE VOLUME PRESSAVG GPRESSAVG
ENERGY: 0 0.9240 7.5376 1.7277 0.0000 -10688.3044 1410.5855 0.0000 0.0000 1761.6744 -7505.8552 296.5429 -9267.5296 -7505.8552 296.5429 -42.8747 48.6472 30844.5072 -42.8747 48.6472
ENERGY: 300000 1.5028 4.3576 1.9204 0.0000 -10639.3483 1355.0179 0.0000 0.0000 1779.1301 -7497.4196 299.4812 -9276.5497 -7547.9353 298.0413 -541.5164 -572.2460 30881.7924 -203.3119 -163.4781
ENERGY: 600000 2.1498 5.3834 2.1744 0.0000 -10825.4756 1453.1374 0.0000 0.0000 1846.0608 -7516.5699 310.7476 -9362.6307 -7555.7321 299.5939 -57.8832 25.9375 30739.8543 -114.2111 -57.5518
ENERGY: 900000 0.5871 5.1770 1.4961 0.0000 -10760.5019 1426.1253 0.0000 0.0000 1805.9210 -7521.1953 303.9909 -9327.1163 -7555.3616 300.9511 -319.7542 -303.7023 31145.3571 -195.6326 -148.1711
ENERGY: 1200000 1.3872 5.8496 2.0651 0.0000 -10798.4860 1479.3682 0.0000 0.0000 1754.1098 -7555.7062 295.2695 -9309.8160 -7564.5664 300.0684 134.7989 246.6550 30685.5731 -159.9340 -109.6567
ENERGY: 1500000 1.6666 10.0859 2.1276 0.0000 -10904.0569 1503.7581 0.0000 0.0000 1777.4228 -7608.9960 299.1938 -9386.4187 -7566.0437 299.3042 653.4678 759.3394 29895.6915 -148.7918 -96.1861
TCL: Exiting due to exit command.
