Info: SIMULATION PARAMETERS:
Info: TIMESTEP               2
Info: NUMBER OF STEPS        0
Info: STEPS PER CYCLE        10
Info: PERIODIC CELL BASIS 1  30.8255 0 0
Info: PERIODIC CELL BASIS 2  0 31.5242 0
Info: PERIODIC CELL BASIS 3  0 0 31.4052
Info: PERIODIC CELL CENTER   0 0 0
Info: WRAPPING WATERS AROUND PERIODIC BOUNDARIES ON OUTPUT.
Info: WRAPPING ALL CLUSTERS AROUND PERIODIC BOUNDARIES ON OUTPUT.
Info: FIRST LDB TIMESTEP     50
Info: LAST LDB TIMESTEP     -1
Info: HOM BACKGROUND SCALING 1
Info: PME BACKGROUND SCALING 1
Info: MIN ATOMS PER PATCH    40
Info: EMPTY PATCH LOAD       40 ATOMS
Info: VELOCITY FILE          mobley_9733743_equil.vel
Info: CENTER OF MASS MOVING INITIALLY? NO
Info: DIELECTRIC             1
Info: EXCLUDE                SCALED ONE-FOUR
Info: 1-4 ELECTROSTATICS SCALED BY 0.833333
Info: MODIFIED 1-4 VDW PARAMETERS WILL BE USED
Info: DCD FILENAME           mobley_9733743_prod.dcd
Info: DCD FREQUENCY          100000
Info: DCD FIRST STEP         100000
Info: DCD FILE WILL CONTAIN UNIT CELL DATA
Info: XST FILENAME           mobley_9733743_prod.xst
Info: XST FREQUENCY          100000
Info: NO VELOCITY DCD OUTPUT
Info: NO FORCE DCD OUTPUT
Info: OUTPUT FILENAME        mobley_9733743_prod
Info: BINARY OUTPUT FILES WILL BE USED
Info: RESTART FILENAME       mobley_9733743_prod.restart
Info: RESTART FREQUENCY      100000
Info: BINARY RESTART FILES WILL BE USED
Info: CUTOFF                 9
Info: PAIRLIST DISTANCE      11
Info: PAIRLIST SHRINK RATE   0.01
Info: PAIRLIST GROW RATE     0.01
Info: PAIRLIST TRIGGER       0.3
Info: PAIRLISTS PER CYCLE    2
Info: PAIRLISTS ENABLED
Info: MARGIN                 2
Info: HYDROGEN GROUP CUTOFF  2.5
Info: PATCH DIMENSION        15.5
Info: ENERGY OUTPUT STEPS    100000
Info: ENERGY EVALUATION STEPS    100000
Info: OUTPUT ENERGY PRECISION 4
Info: CROSSTERM ENERGY INCLUDED IN DIHEDRAL
Info: TIMING OUTPUT STEPS    1000000
Info: PRESSURE OUTPUT STEPS  100000
Info: ALCHEMICAL FEP ON
Info: FEP CURRENT LAMBDA VALUE     0
Info: FEP COMPARISON LAMBDA VALUE  0.05
Info: FEP INTRA-ALCHEMICAL NON-BONDED INTERACTIONS WILL BE RETAINED
Info: FEP INTRA-ALCHEMICAL BONDED INTERACTIONS WILL BE RETAINED
Info: FEP VDW SHIFTING COEFFICIENT 5
Info: FEP ELEC. ACTIVE FOR ANNIHILATED PARTICLES BETWEEN LAMBDA = 0 AND LAMBDA = 0.5
Info: FEP ELEC. ACTIVE FOR EXNIHILATED PARTICLES BETWEEN LAMBDA = 0.5 AND LAMBDA = 1
Info: FEP VDW ACTIVE FOR ANNIHILATED PARTICLES BETWEEN LAMBDA = 0 AND LAMBDA = 1
Info: FEP VDW ACTIVE FOR EXNIHILATED PARTICLES BETWEEN LAMBDA = 0 AND LAMBDA = 1
Info: FEP BOND ACTIVE FOR ANNIHILATED PARTICLES BETWEEN LAMBDA = 1 AND LAMBDA = 1
Info: FEP BOND ACTIVE FOR EXNIHILATED PARTICLES BETWEEN LAMBDA = 0 AND LAMBDA = 0
Info: LANGEVIN DYNAMICS ACTIVE
Info: LANGEVIN TEMPERATURE   300
Info: LANGEVIN USING BBK INTEGRATOR
Info: LANGEVIN DAMPING COEFFICIENT IS 1 INVERSE PS
Info: LANGEVIN DYNAMICS APPLIED TO HYDROGENS
Info: LANGEVIN PISTON PRESSURE CONTROL ACTIVE
Info:        TARGET PRESSURE IS 1.01325 BAR
Info:     OSCILLATION PERIOD IS 50 FS
Info:             DECAY TIME IS 25 FS
Info:     PISTON TEMPERATURE IS 300 K
Info:       PRESSURE CONTROL IS GROUP-BASED
Info:    INITIAL STRAIN RATE IS -0.000474215 -0.000474215 -0.000474215
Info:       CELL FLUCTUATION IS ISOTROPIC
Info: PARTICLE MESH EWALD (PME) ACTIVE
Info: PME TOLERANCE               1e-06
Info: PME EWALD COEFFICIENT       0.348832
Info: PME INTERPOLATION ORDER     4
Info: PME GRID DIMENSIONS         32 32 32
Info: PME MAXIMUM GRID SPACING    1
Info: PME CALCULATION WILL BE PERFORMED ON GPU
Info: FULL ELECTROSTATIC EVALUATION FREQUENCY      2
Info: USING VERLET I (r-RESPA) MTS SCHEME.
Info: C1 SPLITTING OF LONG RANGE ELECTROSTATICS
Info: PLACING ATOMS IN PATCHES BY HYDROGEN GROUPS
Info: RIGID BONDS TO HYDROGEN : ALL
Info:         ERROR TOLERANCE : 1e-08
Info:          MAX ITERATIONS : 100
Info: RIGID WATER USING SETTLE ALGORITHM
Info: RANDOM NUMBER SEED     1743842257
Info: USE HYDROGEN BONDS?    NO
Info: Using AMBER format force field!
Info: AMBER PARM FILE        mobley_9733743.prmtop
Info: COORDINATE PDB         mobley_9733743.pdb
Info: Exclusions will be read from PARM file!
Info: SCNB (VDW SCALING)     2
Info: USING ARITHMETIC MEAN TO COMBINE L-J SIGMA PARAMETERS
Info: BINARY COORDINATES     mobley_9733743_equil.coor
Info: SUMMARY OF PARAMETERS:
Info: 7 BONDS
Info: 9 ANGLES
Info:   9 HARMONIC
Info:   0 COSINE-BASED
Info: 7 DIHEDRAL
Info: 0 IMPROPER
Info: 0 CROSSTERM
Info: 0 VDW
Info: 28 VDW_PAIRS
Info: 0 NBTHOLE_PAIRS
Info: To read alchdata from file: mobley_9733743.pdb
Info: To read alchflag data from column: 5
Info: STRUCTURE SUMMARY:
Info: 2929 ATOMS
Info: 2928 BONDS
Info: 27 ANGLES
Info: 35 DIHEDRALS
Info: 0 IMPROPERS
Info: 0 CROSSTERMS
Info: 2988 EXCLUSIONS
Info: 2924 RIGID BONDS
Info: ALCH: 0 ATOMS TO DISAPPEAR IN FINAL STATE
Info: ALCH: 16 ATOMS TO APPEAR IN FINAL STATE
Info: 5863 DEGREES OF FREEDOM
Info: 976 HYDROGEN GROUPS
Info: 4 ATOMS IN LARGEST HYDROGEN GROUP
Info: 976 MIGRATION GROUPS
Info: 4 ATOMS IN LARGEST MIGRATION GROUP
Info: TOTAL MASS = 17566.7 amu
Info: TOTAL CHARGE = -0.000200044 e
Info: MASS DENSITY = 0.95586 g/cm^3
Info: ATOM DENSITY = 0.0959765 atoms/A^3
Info: ADDED 0 IMPLICIT EXCLUSIONS
Info: NONBONDED TABLE R-SQUARED SPACING: 0.0625
Info: NONBONDED TABLE SIZE: 705 POINTS
Info: REMOVING COM VELOCITY -0.28872 -0.00834868 -0.00510926
Info: Use 3D box decompostion in PME FFT.
Info: Updated CUDA force table with 4096 elements.
Info: Updated CUDA LJ table with 7 x 7 elements.
Info: Found 19 unique exclusion lists needing 44 bytes
TCL: Running for 1500000 steps
ETITLE: TS BOND ANGLE DIHED IMPRP ELECT VDW BOUNDARY MISC KINETIC TOTAL TEMP POTENTIAL TOTALAVG TEMPAVG PRESSURE GPRESSURE VOLUME PRESSAVG GPRESSAVG
ENERGY: 0 0.2077 6.4473 2.5325 0.0000 -10578.9292 1462.4900 0.0000 0.0000 1740.1036 -7367.1480 298.7071 -9107.2517 -7367.1480 298.7071 348.3707 432.9693 30517.9023 348.3707 432.9693
ENERGY: 300000 1.4699 8.1471 1.5369 0.0000 -10567.2808 1385.7563 0.0000 0.0000 1675.6086 -7494.7620 287.6359 -9170.3706 -7383.8647 296.9510 -250.4246 -174.3724 29661.6486 75.4102 153.8394
ENERGY: 600000 0.2887 7.8790 1.6246 0.0000 -10623.2054 1411.8647 0.0000 0.0000 1776.2277 -7425.3206 304.9082 -9201.5483 -7400.9279 299.1281 -371.1296 -231.5198 30157.9838 -5.0262 85.4475
ENERGY: 900000 1.2337 5.0831 1.1299 0.0000 -10556.2764 1415.8607 0.0000 0.0000 1744.8858 -7388.0833 299.5280 -9132.9690 -7394.3864 298.7235 -424.4715 -347.9918 30562.8431 -90.6039 -6.5227
ENERGY: 1200000 0.5452 5.2017 0.7296 0.0000 -10469.6424 1391.6285 0.0000 0.0000 1770.1148 -7301.4226 303.8589 -9071.5374 -7392.5593 298.9377 48.2821 115.4860 29903.5722 -100.7471 -21.7609
ENERGY: 1500000 1.5724 8.4124 1.0066 0.0000 -10658.1328 1458.4472 0.0000 0.0000 1720.9216 -7467.7727 295.4143 -9188.6942 -7397.9834 298.8700 59.1366 137.2558 30182.1249 -148.6230 -72.1505
TCL: Running FEP window   2: Lambda1 0.05   Lambda2 0.1    [dLambda 0.05  ]
TCL: Setting parameter firsttimestep to 0
TCL: Setting parameter alchLambda to 0.05
Info: NONBONDED TABLE R-SQUARED SPACING: 0.0625
Info: NONBONDED TABLE SIZE: 705 POINTS
TCL: Setting parameter alchLambda2 to 0.1
Info: NONBONDED TABLE R-SQUARED SPACING: 0.0625
Info: NONBONDED TABLE SIZE: 705 POINTS
TCL: Running for 1500000 steps
ETITLE: TS BOND ANGLE DIHED IMPRP ELECT VDW BOUNDARY MISC KINETIC TOTAL TEMP POTENTIAL TOTALAVG TEMPAVG PRESSURE GPRESSURE VOLUME PRESSAVG GPRESSAVG
ENERGY: 0 1.5724 8.4124 1.0066 0.0000 -10658.1334 1458.7107 0.0000 0.0000 1720.0459 -7468.3855 295.2640 -9188.4314 -7468.3855 295.2640 81.6452 142.1858 30182.1249 81.6452 142.1858
ENERGY: 300000 1.7114 5.3843 1.0397 0.0000 -10589.4060 1439.2776 0.0000 0.0000 1787.8057 -7354.1874 306.8957 -9141.9930 -7459.9307 300.5017 311.6079 362.7138 29815.5797 23.7824 65.8822
ENERGY: 600000 2.4700 6.3779 1.7666 0.0000 -10534.9645 1425.8107 0.0000 0.0000 1790.0470 -7308.4921 307.2804 -9098.5391 -7410.7107 301.4851 -227.1113 -139.0135 30376.3491 -106.9403 -56.7780
ENERGY: 900000 3.0112 4.9016 2.0654 0.0000 -10703.9669 1471.6351 0.0000 0.0000 1765.3173 -7457.0364 303.0353 -9222.3536 -7413.0347 301.0077 301.7376 352.9857 29449.2678 -20.0151 25.4259
ENERGY: 1200000 0.7163 4.3763 1.4253 0.0000 -10631.7466 1500.2036 0.0000 0.0000 1715.0593 -7409.9657 294.4080 -9125.0251 -7419.0365 300.0659 887.7474 929.1468 29843.1372 25.1125 73.4261
ENERGY: 1500000 0.3848 7.9435 1.8595 0.0000 -10621.7004 1437.1570 0.0000 0.0000 1735.3034 -7439.0523 297.8831 -9174.3557 -7414.6438 299.9339 24.9326 77.3832 30090.0740 2.6759 49.7470
TCL: Running FEP window   3: Lambda1 0.1    Lambda2 0.15000000000000002 [dLambda 0.05000000000000002]
TCL: Setting parameter firsttimestep to 0
TCL: Setting parameter alchLambda to 0.1
Info: NONBONDED TABLE R-SQUARED SPACING: 0.0625
Info: NONBONDED TABLE SIZE: 705 POINTS
TCL: Setting parameter alchLambda2 to 0.15000000000000002
Info: NONBONDED TABLE R-SQUARED SPACING: 0.0625
Info: NONBONDED TABLE SIZE: 705 POINTS
TCL: Running for 1500000 steps
ETITLE: TS BOND ANGLE DIHED IMPRP ELECT VDW BOUNDARY MISC KINETIC TOTAL TEMP POTENTIAL TOTALAVG TEMPAVG PRESSURE GPRESSURE VOLUME PRESSAVG GPRESSAVG
ENERGY: 0 0.3848 7.9435 1.8595 0.0000 -10621.7008 1437.9474 0.0000 0.0000 1734.4244 -7439.1412 297.7322 -9173.5656 -7439.1412 297.7322 2.5846 82.0558 30090.0740 2.5846 82.0558
ENERGY: 300000 0.7776 5.6767 2.3046 0.0000 -10572.6940 1462.4704 0.0000 0.0000 1756.5164 -7344.9483 301.5246 -9101.4647 -7384.1206 304.2606 573.7277 636.2976 29939.9971 80.4937 135.2668
ENERGY: 600000 0.1945 6.1995 1.5897 0.0000 -10561.9835 1415.2818 0.0000 0.0000 1759.7788 -7378.9392 302.0846 -9138.7179 -7374.3853 303.9356 -94.6438 -67.7034 30256.2757 5.4709 55.1984
ENERGY: 900000 2.3049 9.9954 2.7366 0.0000 -10654.2656 1463.2076 0.0000 0.0000 1707.3168 -7468.7042 293.0789 -9176.0211 -7382.9125 302.3355 0.7630 121.6453 30030.7217 -49.1102 2.1486
ENERGY: 1200000 0.4246 6.5622 0.8635 0.0000 -10557.2829 1431.6352 0.0000 0.0000 1745.5801 -7372.2173 299.6472 -9117.7974 -7392.0719 300.8189 118.2495 178.7905 29993.2867 -46.4719 12.3221
ENERGY: 1500000 0.3702 6.1943 1.9580 0.0000 -10515.3095 1380.6445 0.0000 0.0000 1760.7633 -7365.3792 302.2536 -9126.1426 -7383.2515 301.4780 -422.4448 -369.1067 30465.8437 -52.3099 5.2139
TCL: Running FEP window   4: Lambda1 0.15000000000000002 Lambda2 0.2    [dLambda 0.04999999999999999]
TCL: Setting parameter firsttimestep to 0
TCL: Setting parameter alchLambda to 0.15000000000000002
Info: NONBONDED TABLE R-SQUARED SPACING: 0.0625
Info: NONBONDED TABLE SIZE: 705 POINTS
TCL: Setting parameter alchLambda2 to 0.2
Info: NONBONDED TABLE R-SQUARED SPACING: 0.0625
Info: NONBONDED TABLE SIZE: 705 POINTS
TCL: Running for 1500000 steps
ETITLE: TS BOND ANGLE DIHED IMPRP ELECT VDW BOUNDARY MISC KINETIC TOTAL TEMP POTENTIAL TOTALAVG TEMPAVG PRESSURE GPRESSURE VOLUME PRESSAVG GPRESSAVG
ENERGY: 0 0.3702 6.1943 1.9580 0.0000 -10515.3100 1381.7168 0.0000 0.0000 1759.9033 -7365.1674 302.1060 -9125.0707 -7365.1674 302.1060 -430.2722 -362.1260 30465.8437 -430.2722 -362.1260
ENERGY: 300000 1.4629 9.6912 2.3394 0.0000 -10513.8024 1358.6569 0.0000 0.0000 1720.9702 -7420.6819 295.4227 -9141.6520 -7416.8479 299.3327 -586.3039 -462.0748 29898.2617 -346.1917 -260.0046
ENERGY: 600000 1.4647 6.2996 2.1850 0.0000 -10683.8251 1460.5622 0.0000 0.0000 1763.4225 -7449.8911 302.7101 -9213.3136 -7422.3137 300.0220 225.0504 344.7069 29875.5944 -150.5790 -71.6901
ENERGY: 900000 0.7920 7.4474 1.1677 0.0000 -10620.0686 1405.4328 0.0000 0.0000 1784.1425 -7421.0863 306.2669 -9205.2287 -7426.7628 301.3602 -439.9398 -336.0969 30207.7569 -121.5752 -36.8153
ENERGY: 1200000 1.2298 7.1851 2.5879 0.0000 -10554.2965 1388.8483 0.0000 0.0000 1763.1791 -7391.2663 302.6683 -9154.4454 -7420.9950 300.9705 -448.7259 -328.7624 30189.6593 -124.6046 -41.7727
ENERGY: 1500000 2.3978 6.1168 2.4052 0.0000 -10655.9532 1446.2848 0.0000 0.0000 1735.0559 -7463.6927 297.8406 -9198.7486 -7416.5251 301.3433 69.8453 14.8108 30108.7542 -38.4418 32.1296
TCL: Running FEP window   5: Lambda1 0.2    Lambda2 0.25   [dLambda 0.04999999999999999]
TCL: Setting parameter firsttimestep to 0
TCL: Setting parameter alchLambda to 0.2
Info: NONBONDED TABLE R-SQUARED SPACING: 0.0625
Info: NONBONDED TABLE SIZE: 705 POINTS
TCL: Setting parameter alchLambda2 to 0.25
Info: NONBONDED TABLE R-SQUARED SPACING: 0.0625
Info: NONBONDED TABLE SIZE: 705 POINTS
TCL: Running for 1500000 steps
ETITLE: TS BOND ANGLE DIHED IMPRP ELECT VDW BOUNDARY MISC KINETIC TOTAL TEMP POTENTIAL TOTALAVG TEMPAVG PRESSURE GPRESSURE VOLUME PRESSAVG GPRESSAVG
ENERGY: 0 2.3978 6.1168 2.4052 0.0000 -10655.9546 1447.5881 0.0000 0.0000 1734.1877 -7463.2590 297.6916 -9197.4467 -7463.2590 297.6916 -50.4421 23.4742 30108.7542 -50.4421 23.4742
ENERGY: 300000 2.3689 4.7800 1.4705 0.0000 -10536.5784 1405.1723 0.0000 0.0000 1729.1941 -7393.5926 296.8344 -9122.7867 -7414.0609 298.3777 -168.6142 -131.0375 30132.0351 -86.9917 -23.9628
ENERGY: 600000 1.1961 10.0360 1.9267 0.0000 -10553.1427 1400.5550 0.0000 0.0000 1824.7322 -7314.6967 313.2345 -9139.4289 -7404.3748 303.4050 -318.1007 -246.8669 30380.8174 -200.8539 -133.6607
ENERGY: 900000 1.3188 4.9602 1.6049 0.0000 -10477.6034 1352.7524 0.0000 0.0000 1764.3010 -7352.6661 302.8609 -9116.9671 -7395.6595 302.1939 -391.9596 -314.5035 30201.0727 -170.7881 -96.2548
ENERGY: 1200000 1.7659 5.3392 2.1814 0.0000 -10666.3018 1522.5963 0.0000 0.0000 1741.9896 -7392.4294 299.0309 -9134.4190 -7401.1001 301.0483 822.1920 911.1999 30087.9584 -50.0067 30.6294
ENERGY: 1500000 0.9993 11.1651 1.1690 0.0000 -10474.6031 1331.2502 0.0000 0.0000 1736.2316 -7393.7880 298.0425 -9130.0196 -7408.2892 300.5192 -750.3400 -672.2468 30046.0266 -7.3463 73.2671
TCL: Running FEP window   6: Lambda1 0.25   Lambda2 0.3    [dLambda 0.04999999999999999]
TCL: Setting parameter firsttimestep to 0
TCL: Setting parameter alchLambda to 0.25
Info: NONBONDED TABLE R-SQUARED SPACING: 0.0625
Info: NONBONDED TABLE SIZE: 705 POINTS
TCL: Setting parameter alchLambda2 to 0.3
Info: NONBONDED TABLE R-SQUARED SPACING: 0.0625
Info: NONBONDED TABLE SIZE: 705 POINTS
TCL: Running for 1500000 steps
ETITLE: TS BOND ANGLE DIHED IMPRP ELECT VDW BOUNDARY MISC KINETIC TOTAL TEMP POTENTIAL TOTALAVG TEMPAVG PRESSURE GPRESSURE VOLUME PRESSAVG GPRESSAVG
ENERGY: 0 0.9993 11.1651 1.1690 0.0000 -10474.6023 1331.2959 0.0000 0.0000 1735.3058 -7394.6672 297.8835 -9129.9731 -7394.6672 297.8835 -759.6444 -671.3143 30046.0266 -759.6444 -671.3143
ENERGY: 300000 0.6683 8.1703 2.7771 0.0000 -10619.6647 1414.4732 0.0000 0.0000 1661.6061 -7531.9697 285.2322 -9193.5758 -7445.5564 296.1749 -410.9025 -357.8928 30147.3307 -301.0842 -256.9101
ENERGY: 600000 1.4946 6.0855 1.0714 0.0000 -10679.2761 1428.7298 0.0000 0.0000 1698.1195 -7543.7754 291.5001 -9241.8949 -7446.8531 295.3585 -335.4393 -237.2103 29914.4060 -354.9125 -312.1601
ENERGY: 900000 1.5450 4.3723 2.1961 0.0000 -10616.0056 1373.3821 0.0000 0.0000 1768.9333 -7465.5768 303.6561 -9234.5101 -7447.7719 296.7271 -731.7074 -618.4319 30206.7446 -295.0018 -243.4257
ENERGY: 1200000 0.8296 6.5568 2.5326 0.0000 -10552.5995 1403.9913 0.0000 0.0000 1718.2803 -7420.4090 294.9609 -9138.6893 -7444.7507 296.3747 -113.6213 -80.7520 29877.0025 -235.7705 -176.1734
ENERGY: 1500000 2.3538 6.0968 1.6473 0.0000 -10571.1604 1376.5161 0.0000 0.0000 1780.3414 -7404.2051 305.6144 -9184.5464 -7430.1419 297.5042 -616.1948 -539.6750 30490.2470 -205.5285 -145.0965
TCL: Running FEP window   7: Lambda1 0.3    Lambda2 0.35   [dLambda 0.04999999999999999]
TCL: Setting parameter firsttimestep to 0
TCL: Setting parameter alchLambda to 0.3
Info: NONBONDED TABLE R-SQUARED SPACING: 0.0625
Info: NONBONDED TABLE SIZE: 705 POINTS
TCL: Setting parameter alchLambda2 to 0.35
Info: NONBONDED TABLE R-SQUARED SPACING: 0.0625
Info: NONBONDED TABLE SIZE: 705 POINTS
TCL: Running for 1500000 steps
ETITLE: TS BOND ANGLE DIHED IMPRP ELECT VDW BOUNDARY MISC KINETIC TOTAL TEMP POTENTIAL TOTALAVG TEMPAVG PRESSURE GPRESSURE VOLUME PRESSAVG GPRESSAVG
ENERGY: 0 2.3538 6.0968 1.6473 0.0000 -10571.1629 1377.7894 0.0000 0.0000 1779.4400 -7403.8355 305.4596 -9183.2756 -7403.8355 305.4596 -604.3867 -528.0160 30490.2470 -604.3867 -528.0160
ENERGY: 300000 1.0213 8.3761 1.9022 0.0000 -10654.7171 1527.8793 0.0000 0.0000 1814.6257 -7300.9123 311.4996 -9115.5381 -7422.5107 303.0284 835.6671 854.6081 30539.9228 463.8557 503.7988
ENERGY: 600000 0.0481 3.6959 5.8226 0.0000 -10491.5854 1370.6979 0.0000 0.0000 1753.7552 -7357.5657 301.0506 -9111.3209 -7421.3151 302.5686 -479.6846 -411.6679 30393.5760 371.1350 423.7349
ENERGY: 900000 1.2608 11.5923 2.0323 0.0000 -10713.7717 1536.8690 0.0000 0.0000 1725.9987 -7436.0186 296.2859 -9162.0173 -7411.6827 301.7551 873.7127 1018.5252 29633.9681 293.3123 354.1001
ENERGY: 1200000 0.6291 6.6433 1.2773 0.0000 -10665.8196 1433.6015 0.0000 0.0000 1695.6135 -7528.0549 291.0699 -9223.6684 -7418.6940 300.5635 -153.9813 -57.6253 29579.1399 164.9673 223.4710
ENERGY: 1500000 0.0207 4.8589 1.3291 0.0000 -10441.7417 1333.3170 0.0000 0.0000 1766.9688 -7335.2471 303.3188 -9102.2159 -7409.2708 300.8051 -482.0337 -380.3481 30022.1733 -1.7561 62.8473
TCL: Running FEP window   8: Lambda1 0.35   Lambda2 0.39999999999999997 [dLambda 0.04999999999999999]
TCL: Setting parameter firsttimestep to 0
TCL: Setting parameter alchLambda to 0.35
Info: NONBONDED TABLE R-SQUARED SPACING: 0.0625
Info: NONBONDED TABLE SIZE: 705 POINTS
TCL: Setting parameter alchLambda2 to 0.39999999999999997
Info: NONBONDED TABLE R-SQUARED SPACING: 0.0625
Info: NONBONDED TABLE SIZE: 705 POINTS
TCL: Running for 1500000 steps
ETITLE: TS BOND ANGLE DIHED IMPRP ELECT VDW BOUNDARY MISC KINETIC TOTAL TEMP POTENTIAL TOTALAVG TEMPAVG PRESSURE GPRESSURE VOLUME PRESSAVG GPRESSAVG
ENERGY: 0 0.0207 4.8589 1.3291 0.0000 -10441.7421 1333.2814 0.0000 0.0000 1766.0986 -7336.1533 303.1695 -9102.2519 -7336.1533 303.1695 -477.2711 -378.1342 30022.1733 -477.2711 -378.1342
ENERGY: 300000 1.1482 4.4798 1.7079 0.0000 -10460.0463 1386.1770 0.0000 0.0000 1779.1561 -7287.3773 305.4109 -9066.5334 -7371.0486 304.2316 -115.0314 -106.7641 30354.2297 -105.8817 -38.8334
ENERGY: 600000 0.3683 3.6600 2.8700 0.0000 -10592.8872 1465.0485 0.0000 0.0000 1727.2726 -7393.6678 296.5046 -9120.9404 -7362.2725 304.7902 600.7806 629.1759 29834.9541 183.3060 246.6952
ENERGY: 900000 0.9148 4.7851 2.6023 0.0000 -10502.4955 1315.2362 0.0000 0.0000 1707.3869 -7471.5702 293.0910 -9178.9571 -7384.6947 302.6769 -737.9446 -697.9853 29820.0550 15.4623 71.0663
ENERGY: 1200000 0.5969 4.9620 2.8697 0.0000 -10754.3511 1494.9151 0.0000 0.0000 1731.8009 -7519.2065 297.2819 -9251.0074 -7395.1931 302.0751 376.7978 416.9737 29796.5002 34.2026 93.3687
ENERGY: 1500000 1.4668 7.9064 3.0937 0.0000 -10626.3277 1489.8777 0.0000 0.0000 1773.1148 -7350.8683 304.3739 -9123.9831 -7395.2209 301.7617 387.3608 439.2733 30477.2459 -26.4439 36.8304
TCL: Running FEP window   9: Lambda1 0.39999999999999997 Lambda2 0.44999999999999996 [dLambda 0.04999999999999999]
TCL: Setting parameter firsttimestep to 0
TCL: Setting parameter alchLambda to 0.39999999999999997
Info: NONBONDED TABLE R-SQUARED SPACING: 0.0625
Info: NONBONDED TABLE SIZE: 705 POINTS
TCL: Setting parameter alchLambda2 to 0.44999999999999996
Info: NONBONDED TABLE R-SQUARED SPACING: 0.0625
Info: NONBONDED TABLE SIZE: 705 POINTS
TCL: Running for 1500000 steps
ETITLE: TS BOND ANGLE DIHED IMPRP ELECT VDW BOUNDARY MISC KINETIC TOTAL TEMP POTENTIAL TOTALAVG TEMPAVG PRESSURE GPRESSURE VOLUME PRESSAVG GPRESSAVG
ENERGY: 0 1.4668 7.9064 3.0937 0.0000 -10626.3286 1490.2235 0.0000 0.0000 1772.2735 -7351.3647 304.2294 -9123.6382 -7351.3647 304.2294 379.0285 448.0916 30477.2459 379.0285 448.0916
ENERGY: 300000 1.9892 4.3869 1.4781 0.0000 -10590.3079 1468.2654 0.0000 0.0000 1750.0875 -7364.1008 300.4210 -9114.1883 -7425.0926 298.2981 357.4907 417.6569 30207.4358 198.5303 267.4090
ENERGY: 600000 1.1714 5.7608 0.9003 0.0000 -10503.1554 1378.7999 0.0000 0.0000 1731.9548 -7384.5683 297.3083 -9116.5231 -7424.4316 298.4565 -157.4702 -106.6846 30178.4788 2.3372 78.9595
ENERGY: 900000 1.1362 6.9600 2.1210 0.0000 -10468.0081 1400.1186 0.0000 0.0000 1793.8932 -7263.7791 307.9407 -9057.6723 -7398.7224 299.7926 12.9260 20.6943 30471.7426 183.1520 251.2895
ENERGY: 1200000 1.1242 7.7506 1.5644 0.0000 -10461.3247 1302.2450 0.0000 0.0000 1705.2154 -7443.4251 292.7182 -9148.6406 -7405.7368 299.3888 -1122.6005 -1108.0824 30515.7309 -107.7699 -49.8889
ENERGY: 1500000 1.0325 7.3109 4.2871 0.0000 -10541.6439 1387.3548 0.0000 0.0000 1770.6976 -7370.9611 303.9589 -9141.6586 -7404.4608 300.0691 -223.7643 -173.1438 30084.8203 -66.5479 -6.9008
TCL: Running FEP window  10: Lambda1 0.44999999999999996 Lambda2 0.49999999999999994 [dLambda 0.04999999999999999]
TCL: Setting parameter firsttimestep to 0
TCL: Setting parameter alchLambda to 0.44999999999999996
Info: NONBONDED TABLE R-SQUARED SPACING: 0.0625
Info: NONBONDED TABLE SIZE: 705 POINTS
TCL: Setting parameter alchLambda2 to 0.49999999999999994
Info: NONBONDED TABLE R-SQUARED SPACING: 0.0625
Info: NONBONDED TABLE SIZE: 705 POINTS
TCL: Running for 1500000 steps
ETITLE: TS BOND ANGLE DIHED IMPRP ELECT VDW BOUNDARY MISC KINETIC TOTAL TEMP POTENTIAL TOTALAVG TEMPAVG PRESSURE GPRESSURE VOLUME PRESSAVG GPRESSAVG
ENERGY: 0 1.0325 7.3109 4.2871 0.0000 -10541.6443 1386.7885 0.0000 0.0000 1769.8221 -7372.4032 303.8086 -9142.2253 -7372.4032 303.8086 -253.5662 -173.7056 30084.8203 -253.5662 -173.7056
ENERGY: 300000 2.0671 8.9488 1.4085 0.0000 -10550.7055 1379.4837 0.0000 0.0000 1741.4190 -7417.3783 298.9329 -9158.7974 -7403.1355 300.6921 -330.4326 -335.7741 30084.2139 -383.1978 -324.4132
ENERGY: 600000 1.1053 7.8889 1.6440 0.0000 -10687.0177 1484.8294 0.0000 0.0000 1719.7276 -7471.8224 295.2094 -9191.5500 -7418.9104 298.7781 266.6158 366.0009 29873.3362 -238.3206 -170.3158
ENERGY: 900000 1.8744 6.9535 0.7303 0.0000 -10618.2662 1440.3522 0.0000 0.0000 1771.0150 -7397.3408 304.0134 -9168.3557 -7421.9386 299.0914 85.6661 147.1995 29846.7667 -207.5075 -144.9155
ENERGY: 1200000 1.1798 6.3012 1.3950 0.0000 -10587.7485 1382.8170 0.0000 0.0000 1750.2758 -7445.7798 300.4533 -9196.0556 -7422.2204 300.0768 -398.0658 -341.6591 29888.8741 -153.1995 -88.5178
ENERGY: 1500000 1.6292 7.1449 1.8938 0.0000 -10515.6735 1399.9789 0.0000 0.0000 1780.3101 -7324.7166 305.6090 -9105.0267 -7415.7988 300.4896 131.2659 141.4798 30103.3060 -204.8711 -142.4235
TCL: Running FEP window  11: Lambda1 0.49999999999999994 Lambda2 0.5499999999999999 [dLambda 0.04999999999999999]
TCL: Setting parameter firsttimestep to 0
TCL: Setting parameter alchLambda to 0.49999999999999994
Info: NONBONDED TABLE R-SQUARED SPACING: 0.0625
Info: NONBONDED TABLE SIZE: 705 POINTS
TCL: Setting parameter alchLambda2 to 0.5499999999999999
Info: NONBONDED TABLE R-SQUARED SPACING: 0.0625
Info: NONBONDED TABLE SIZE: 705 POINTS
TCL: Running for 1500000 steps
ETITLE: TS BOND ANGLE DIHED IMPRP ELECT VDW BOUNDARY MISC KINETIC TOTAL TEMP POTENTIAL TOTALAVG TEMPAVG PRESSURE GPRESSURE VOLUME PRESSAVG GPRESSAVG
ENERGY: 0 1.6292 7.1449 1.8938 0.0000 -10515.6733 1399.8706 0.0000 0.0000 1779.4386 -7325.6962 305.4594 -9105.1348 -7325.6962 305.4594 52.1388 144.1817 30103.3060 52.1388 144.1817
ENERGY: 300000 3.1266 5.9652 0.9591 0.0000 -10491.5764 1334.5902 0.0000 0.0000 1776.1368 -7370.7984 304.8926 -9146.9352 -7382.7833 302.2596 -631.8404 -606.1856 30401.8192 -22.5928 46.6564
ENERGY: 600000 0.7335 7.5376 2.5708 0.0000 -10618.6577 1384.4458 0.0000 0.0000 1734.5845 -7488.7855 297.7597 -9223.3700 -7427.5420 298.8750 -523.1583 -480.2717 30049.9590 -234.3581 -178.9325
ENERGY: 900000 0.7952 6.6376 2.7497 0.0000 -10664.2979 1442.8570 0.0000 0.0000 1744.3260 -7466.9324 299.4319 -9211.2583 -7421.9485 299.4734 249.1859 283.8103 29691.0453 -200.3344 -142.1274
ENERGY: 1200000 2.0563 5.4156 0.7600 0.0000 -10544.4867 1391.8766 0.0000 0.0000 1694.3210 -7450.0572 290.8481 -9144.3782 -7422.0977 299.2647 -373.5003 -333.5467 30354.5735 -169.1166 -113.7174
ENERGY: 1500000 0.0655 9.9281 3.8220 0.0000 -10560.2820 1416.7042 0.0000 0.0000 1714.8379 -7414.9242 294.3700 -9129.7621 -7417.8165 299.4013 -87.1818 -34.6546 30385.0078 -167.6929 -110.0793
TCL: Running FEP window  12: Lambda1 0.5499999999999999 Lambda2 0.6    [dLambda 0.050000000000000044]
TCL: Setting parameter firsttimestep to 0
TCL: Setting parameter alchLambda to 0.5499999999999999
Info: NONBONDED TABLE R-SQUARED SPACING: 0.0625
Info: NONBONDED TABLE SIZE: 705 POINTS
TCL: Setting parameter alchLambda2 to 0.6
Info: NONBONDED TABLE R-SQUARED SPACING: 0.0625
Info: NONBONDED TABLE SIZE: 705 POINTS
TCL: Running for 1500000 steps
ETITLE: TS BOND ANGLE DIHED IMPRP ELECT VDW BOUNDARY MISC KINETIC TOTAL TEMP POTENTIAL TOTALAVG TEMPAVG PRESSURE GPRESSURE VOLUME PRESSAVG GPRESSAVG
ENERGY: 0 0.0655 9.9281 3.8220 0.0000 -10560.5056 1416.2217 0.0000 0.0000 1713.9313 -7416.5369 294.2144 -9130.4682 -7416.5369 294.2144 -114.0585 -33.9355 30385.0078 -114.0585 -33.9355
ENERGY: 300000 1.3077 9.2026 1.5134 0.0000 -10674.5725 1496.0558 0.0000 0.0000 1753.8713 -7412.6218 301.0705 -9166.4931 -7408.9668 297.9886 652.1337 711.9466 29648.7763 102.3867 158.6004
ENERGY: 600000 3.0189 6.4154 2.2246 0.0000 -10683.6210 1501.1089 0.0000 0.0000 1805.1379 -7365.7152 309.8710 -9170.8532 -7402.6951 301.1633 459.1612 500.3733 30210.2307 194.5302 250.8248
ENERGY: 900000 0.2607 6.2821 1.8094 0.0000 -10548.5461 1406.9955 0.0000 0.0000 1737.5370 -7395.6615 298.2666 -9133.1985 -7406.4526 300.5273 -31.5118 79.6760 30107.8905 196.9472 254.9692
ENERGY: 1200000 0.8690 4.0330 1.7556 0.0000 -10676.3024 1514.2785 0.0000 0.0000 1728.1486 -7427.2178 296.6549 -9155.3664 -7409.2254 300.4504 723.0800 800.2328 30107.1171 288.1839 346.0599
ENERGY: 1500000 1.4700 7.4729 1.5608 0.0000 -10791.5793 1492.8650 0.0000 0.0000 1759.2710 -7528.9397 301.9974 -9288.2107 -7417.0157 300.4584 385.1861 458.1947 29875.5295 295.2129 354.9081
TCL: Running FEP window  13: Lambda1 0.6    Lambda2 0.65   [dLambda 0.050000000000000044]
TCL: Setting parameter firsttimestep to 0
TCL: Setting parameter alchLambda to 0.6
Info: NONBONDED TABLE R-SQUARED SPACING: 0.0625
Info: NONBONDED TABLE SIZE: 705 POINTS
TCL: Setting parameter alchLambda2 to 0.65
Info: NONBONDED TABLE R-SQUARED SPACING: 0.0625
Info: NONBONDED TABLE SIZE: 705 POINTS
TCL: Running for 1500000 steps
ETITLE: TS BOND ANGLE DIHED IMPRP ELECT VDW BOUNDARY MISC KINETIC TOTAL TEMP POTENTIAL TOTALAVG TEMPAVG PRESSURE GPRESSURE VOLUME PRESSAVG GPRESSAVG
ENERGY: 0 1.4700 7.4729 1.5608 0.0000 -10791.4892 1492.8270 0.0000 0.0000 1758.3819 -7529.7767 301.8448 -9288.1585 -7529.7767 301.8448 392.6093 462.1746 29875.5295 392.6093 462.1746
ENERGY: 300000 2.4768 4.8422 1.2488 0.0000 -10617.9345 1431.4546 0.0000 0.0000 1728.1289 -7449.7831 296.6516 -9177.9120 -7460.3561 299.6544 -113.0596 -59.4410 30291.2059 -111.1605 -41.2713
ENERGY: 600000 0.6373 9.4279 2.3540 0.0000 -10565.7170 1434.1809 0.0000 0.0000 1754.8834 -7364.2336 301.2442 -9119.1170 -7417.0616 301.6618 -39.2619 60.5828 30330.2403 -279.5149 -186.6650
ENERGY: 900000 1.4143 8.4522 0.8141 0.0000 -10649.9548 1404.5288 0.0000 0.0000 1703.6249 -7531.1205 292.4452 -9234.7454 -7418.8252 301.8015 -661.6039 -542.7851 30671.4657 -253.1785 -155.4089
ENERGY: 1200000 0.4091 10.3574 2.0513 0.0000 -10647.0446 1456.7466 0.0000 0.0000 1723.9326 -7453.5475 295.9312 -9177.4801 -7417.8861 301.1827 139.6415 233.4903 30279.1838 -120.8744 -28.8656
ENERGY: 1500000 2.7409 4.1298 2.6928 0.0000 -10570.4642 1351.6896 0.0000 0.0000 1759.8951 -7449.3161 302.1046 -9209.2112 -7421.5827 301.5352 -772.8795 -729.9429 30138.1894 -163.9871 -76.1460
TCL: Running FEP window  14: Lambda1 0.65   Lambda2 0.7000000000000001 [dLambda 0.050000000000000044]
TCL: Setting parameter firsttimestep to 0
TCL: Setting parameter alchLambda to 0.65
Info: NONBONDED TABLE R-SQUARED SPACING: 0.0625
Info: NONBONDED TABLE SIZE: 705 POINTS
TCL: Setting parameter alchLambda2 to 0.7000000000000001
Info: NONBONDED TABLE R-SQUARED SPACING: 0.0625
Info: NONBONDED TABLE SIZE: 705 POINTS
TCL: Running for 1500000 steps
ETITLE: TS BOND ANGLE DIHED IMPRP ELECT VDW BOUNDARY MISC KINETIC TOTAL TEMP POTENTIAL TOTALAVG TEMPAVG PRESSURE GPRESSURE VOLUME PRESSAVG GPRESSAVG
ENERGY: 0 2.7409 4.1298 2.6928 0.0000 -10570.8154 1352.7940 0.0000 0.0000 1759.0053 -7449.4526 301.9518 -9208.4579 -7449.4526 301.9518 -815.0975 -713.8460 30138.1894 -815.0975 -713.8460
ENERGY: 300000 0.5611 9.3223 3.3785 0.0000 -10635.0306 1456.1287 0.0000 0.0000 1743.1826 -7422.4574 299.2357 -9165.6400 -7462.6695 299.3404 287.3323 296.8083 30118.6208 -163.6191 -110.6441
ENERGY: 600000 1.8974 7.1051 1.0012 0.0000 -10555.3721 1344.7265 0.0000 0.0000 1745.0687 -7455.5733 299.5595 -9200.6420 -7457.7656 299.2779 -1038.0345 -923.4359 30638.6652 -275.7109 -207.1939
ENERGY: 900000 0.9185 11.6602 1.1612 0.0000 -10695.2293 1459.9974 0.0000 0.0000 1708.5571 -7512.9348 293.2918 -9221.4919 -7455.3492 299.7346 227.2942 389.6570 29578.1667 -88.1618 -11.3277
ENERGY: 1200000 0.3852 8.5455 1.0648 0.0000 -10563.9607 1399.2894 0.0000 0.0000 1765.6240 -7389.0517 303.0880 -9154.6758 -7444.3077 299.5750 -268.3789 -185.2238 30377.5238 -197.6085 -120.3652
ENERGY: 1500000 0.1157 9.3535 1.1242 0.0000 -10607.8149 1379.4940 0.0000 0.0000 1728.1634 -7489.5641 296.6575 -9217.7275 -7443.8689 299.6496 -504.0951 -442.2144 30015.4169 -219.9344 -146.6986
TCL: Running FEP window  15: Lambda1 0.7000000000000001 Lambda2 0.7500000000000001 [dLambda 0.050000000000000044]
TCL: Setting parameter firsttimestep to 0
TCL: Setting parameter alchLambda to 0.7000000000000001
Info: NONBONDED TABLE R-SQUARED SPACING: 0.0625
Info: NONBONDED TABLE SIZE: 705 POINTS
TCL: Setting parameter alchLambda2 to 0.7500000000000001
Info: NONBONDED TABLE R-SQUARED SPACING: 0.0625
Info: NONBONDED TABLE SIZE: 705 POINTS
TCL: Running for 1500000 steps
ETITLE: TS BOND ANGLE DIHED IMPRP ELECT VDW BOUNDARY MISC KINETIC TOTAL TEMP POTENTIAL TOTALAVG TEMPAVG PRESSURE GPRESSURE VOLUME PRESSAVG GPRESSAVG
ENERGY: 0 0.1157 9.3535 1.1242 0.0000 -10608.6950 1380.2785 0.0000 0.0000 1727.2967 -7490.5263 296.5087 -9217.8230 -7490.5263 296.5087 -508.3016 -426.1258 30015.4169 -508.3016 -426.1258
ENERGY: 300000 1.9792 6.1525 1.8043 0.0000 -10693.7641 1450.2780 0.0000 0.0000 1761.9623 -7471.5877 302.4594 -9233.5500 -7451.2045 301.5051 125.1545 148.7022 29775.7951 -146.6340 -103.7340
ENERGY: 600000 1.1085 9.6994 2.2336 0.0000 -10744.6651 1554.5473 0.0000 0.0000 1749.4404 -7427.6358 300.3099 -9177.0762 -7435.6064 301.7730 933.7956 983.7053 30079.2716 212.4316 260.3003
ENERGY: 900000 0.8462 6.8292 1.5199 0.0000 -10548.5523 1458.3862 0.0000 0.0000 1787.2810 -7293.6897 306.8056 -9080.9707 -7424.9670 302.1954 305.2310 379.1233 30693.1813 195.5237 243.3708
ENERGY: 1200000 0.5648 9.2897 3.4568 0.0000 -10713.9377 1507.4597 0.0000 0.0000 1754.7567 -7438.4099 301.2225 -9193.1666 -7411.4060 302.1457 231.4510 270.5673 30651.6783 231.3873 278.7779
ENERGY: 1500000 1.2594 16.1528 1.6328 0.0000 -10533.1991 1397.9712 0.0000 0.0000 1734.1722 -7382.0107 297.6889 -9116.1829 -7423.4735 300.8376 -148.8384 -145.9038 30141.3123 170.1845 213.8866
TCL: Running FEP window  16: Lambda1 0.7500000000000001 Lambda2 0.8000000000000002 [dLambda 0.050000000000000044]
TCL: Setting parameter firsttimestep to 0
TCL: Setting parameter alchLambda to 0.7500000000000001
Info: NONBONDED TABLE R-SQUARED SPACING: 0.0625
Info: NONBONDED TABLE SIZE: 705 POINTS
TCL: Setting parameter alchLambda2 to 0.8000000000000002
Info: NONBONDED TABLE R-SQUARED SPACING: 0.0625
Info: NONBONDED TABLE SIZE: 705 POINTS
TCL: Running for 1500000 steps
ETITLE: TS BOND ANGLE DIHED IMPRP ELECT VDW BOUNDARY MISC KINETIC TOTAL TEMP POTENTIAL TOTALAVG TEMPAVG PRESSURE GPRESSURE VOLUME PRESSAVG GPRESSAVG
ENERGY: 0 1.2594 16.1528 1.6328 0.0000 -10533.9608 1397.8992 0.0000 0.0000 1733.2936 -7383.7231 297.5381 -9117.0167 -7383.7231 297.5381 -218.8315 -138.9522 30141.3123 -218.8315 -138.9522
ENERGY: 300000 1.7325 8.0846 1.5342 0.0000 -10532.1193 1354.5495 0.0000 0.0000 1742.9959 -7423.2226 299.2036 -9166.2186 -7402.3018 299.3305 -850.2664 -779.2473 30464.3123 -503.3656 -424.4231
ENERGY: 600000 0.3267 7.6391 0.8514 0.0000 -10505.4207 1379.9514 0.0000 0.0000 1764.9971 -7351.6551 302.9804 -9116.6522 -7407.2122 299.6584 -368.7493 -320.1181 30445.2602 -334.0133 -258.4568
ENERGY: 900000 1.2255 9.0754 2.0509 0.0000 -10689.1521 1452.3858 0.0000 0.0000 1755.8749 -7468.5396 301.4145 -9224.4145 -7413.8004 300.2340 71.4526 90.5568 30052.9001 -244.6193 -176.4841
ENERGY: 1200000 1.6799 5.2550 2.2675 0.0000 -10471.9908 1352.8763 0.0000 0.0000 1753.2108 -7356.7013 300.9571 -9109.9121 -7411.7979 300.0867 -301.0384 -284.0474 30091.4130 -196.7802 -128.8719
ENERGY: 1500000 0.1345 3.0215 3.7787 0.0000 -10621.2035 1451.1638 0.0000 0.0000 1696.7196 -7466.3855 291.2598 -9163.1051 -7412.7012 299.3083 163.9195 207.2050 30173.1618 -192.9587 -131.5476
TCL: Running FEP window  17: Lambda1 0.8000000000000002 Lambda2 0.8500000000000002 [dLambda 0.050000000000000044]
TCL: Setting parameter firsttimestep to 0
TCL: Setting parameter alchLambda to 0.8000000000000002
Info: NONBONDED TABLE R-SQUARED SPACING: 0.0625
Info: NONBONDED TABLE SIZE: 705 POINTS
TCL: Setting parameter alchLambda2 to 0.8500000000000002
Info: NONBONDED TABLE R-SQUARED SPACING: 0.0625
Info: NONBONDED TABLE SIZE: 705 POINTS
TCL: Running for 1500000 steps
ETITLE: TS BOND ANGLE DIHED IMPRP ELECT VDW BOUNDARY MISC KINETIC TOTAL TEMP POTENTIAL TOTALAVG TEMPAVG PRESSURE GPRESSURE VOLUME PRESSAVG GPRESSAVG
ENERGY: 0 0.1345 3.0215 3.7787 0.0000 -10623.6685 1453.2110 0.0000 0.0000 1695.8608 -7467.6620 291.1124 -9163.5228 -7467.6620 291.1124 140.8548 229.7313 30173.1618 140.8548 229.7313
ENERGY: 300000 1.1139 7.7191 1.9856 0.0000 -10645.7036 1446.4090 0.0000 0.0000 1728.9705 -7459.5055 296.7960 -9188.4760 -7446.4825 293.5550 209.4323 352.2448 29706.0843 69.3014 124.8858
ENERGY: 600000 0.9574 7.0767 1.0377 0.0000 -10663.0501 1427.5657 0.0000 0.0000 1715.6284 -7510.7843 294.5057 -9226.4126 -7458.9823 296.8027 124.4616 183.1705 29594.8771 30.8753 89.0911
ENERGY: 900000 1.2042 10.2488 1.4699 0.0000 -10735.4700 1492.2870 0.0000 0.0000 1705.6099 -7524.6502 292.7859 -9230.2601 -7449.2717 297.3146 412.0043 484.9597 29952.3747 128.6544 197.2971
ENERGY: 1200000 0.9552 4.3560 2.5546 0.0000 -10684.2464 1463.9855 0.0000 0.0000 1752.0106 -7460.3845 300.7511 -9212.3951 -7455.2073 296.8785 287.3344 326.0058 29878.3196 122.1167 185.9893
ENERGY: 1500000 0.5388 8.6137 1.4351 0.0000 -10619.1410 1459.6169 0.0000 0.0000 1779.6939 -7369.2426 305.5032 -9148.9365 -7447.7989 297.8979 434.0890 472.1437 29805.0126 139.5605 198.3341
TCL: Running FEP window  18: Lambda1 0.8500000000000002 Lambda2 0.9000000000000002 [dLambda 0.050000000000000044]
TCL: Setting parameter firsttimestep to 0
TCL: Setting parameter alchLambda to 0.8500000000000002
Info: NONBONDED TABLE R-SQUARED SPACING: 0.0625
Info: NONBONDED TABLE SIZE: 705 POINTS
TCL: Setting parameter alchLambda2 to 0.9000000000000002
Info: NONBONDED TABLE R-SQUARED SPACING: 0.0625
Info: NONBONDED TABLE SIZE: 705 POINTS
TCL: Running for 1500000 steps
ETITLE: TS BOND ANGLE DIHED IMPRP ELECT VDW BOUNDARY MISC KINETIC TOTAL TEMP POTENTIAL TOTALAVG TEMPAVG PRESSURE GPRESSURE VOLUME PRESSAVG GPRESSAVG
ENERGY: 0 0.5388 8.6137 1.4351 0.0000 -10620.1867 1460.0125 0.0000 0.0000 1778.7804 -7370.8062 305.3464 -9149.5866 -7370.8062 305.3464 388.9389 480.9256 29805.0126 388.9389 480.9256
ENERGY: 300000 1.1705 6.8708 1.1701 0.0000 -10666.3285 1426.4888 0.0000 0.0000 1734.2984 -7496.3300 297.7106 -9230.6284 -7448.5018 302.1762 61.2016 158.6007 29633.2244 145.9811 229.7366
ENERGY: 600000 0.2432 9.5188 1.7870 0.0000 -10533.0628 1380.0614 0.0000 0.0000 1736.6564 -7404.7959 298.1154 -9141.4523 -7427.6304 301.1932 -231.5269 -118.7359 29892.5725 -0.3757 76.2565
ENERGY: 900000 0.8294 5.5740 1.9883 0.0000 -10642.3573 1459.8339 0.0000 0.0000 1729.8671 -7444.2646 296.9499 -9174.1317 -7429.7075 300.8100 327.5939 320.4043 29949.9198 -65.5231 0.6561
ENERGY: 1200000 0.5247 6.3388 1.4623 0.0000 -10604.4643 1448.4142 0.0000 0.0000 1749.0675 -7398.6568 300.2459 -9147.7242 -7424.5238 301.1929 132.7245 192.4398 30365.0071 -95.7589 -29.9618
ENERGY: 1500000 0.1139 4.8700 1.1526 0.0000 -10489.4205 1360.4600 0.0000 0.0000 1757.9235 -7364.9005 301.7661 -9122.8239 -7427.1205 300.4257 -421.6156 -284.3972 30118.9266 -60.1728 0.6118
TCL: Running FEP window  19: Lambda1 0.9000000000000002 Lambda2 0.9500000000000003 [dLambda 0.050000000000000044]
TCL: Setting parameter firsttimestep to 0
TCL: Setting parameter alchLambda to 0.9000000000000002
Info: NONBONDED TABLE R-SQUARED SPACING: 0.0625
Info: NONBONDED TABLE SIZE: 705 POINTS
TCL: Setting parameter alchLambda2 to 0.9500000000000003
Info: NONBONDED TABLE R-SQUARED SPACING: 0.0625
Info: NONBONDED TABLE SIZE: 705 POINTS
TCL: Running for 1500000 steps
ETITLE: TS BOND ANGLE DIHED IMPRP ELECT VDW BOUNDARY MISC KINETIC TOTAL TEMP POTENTIAL TOTALAVG TEMPAVG PRESSURE GPRESSURE VOLUME PRESSAVG GPRESSAVG
ENERGY: 0 0.1139 4.8700 1.1526 0.0000 -10491.3373 1362.2598 0.0000 0.0000 1757.0463 -7365.8947 301.6155 -9122.9409 -7365.8947 301.6155 -339.9617 -259.0362 30118.9266 -339.9617 -259.0362
ENERGY: 300000 0.9534 5.8535 0.8780 0.0000 -10576.8439 1359.2550 0.0000 0.0000 1740.9933 -7468.9107 298.8599 -9209.9040 -7433.2646 297.8899 -671.7033 -637.6842 30194.8349 -492.4213 -424.7671
ENERGY: 600000 0.7637 7.7539 1.5302 0.0000 -10726.6237 1488.4058 0.0000 0.0000 1735.0446 -7493.1255 297.8387 -9228.1701 -7449.5148 299.0307 602.9590 678.0500 29636.2660 -165.2728 -102.4066
ENERGY: 900000 2.1518 3.3948 0.9845 0.0000 -10690.3567 1427.7387 0.0000 0.0000 1820.4557 -7435.6311 312.5004 -9256.0868 -7448.8795 300.7102 -50.5726 44.6850 29932.5824 -70.6206 -9.1257
ENERGY: 1200000 1.3406 5.6632 1.8580 0.0000 -10686.4645 1470.8864 0.0000 0.0000 1789.9783 -7416.7381 307.2686 -9206.7164 -7451.5829 299.8171 466.1253 520.0365 29938.0579 -43.8008 10.9663
ENERGY: 1500000 1.1360 7.5906 1.3809 0.0000 -10529.4850 1370.8036 0.0000 0.0000 1761.8214 -7386.7526 302.4352 -9148.5740 -7441.6316 301.3283 -608.0128 -607.4868 30717.1665 -28.3833 26.8389
TCL: Running FEP window  20: Lambda1 0.9500000000000003 Lambda2 1.0    [dLambda 0.04999999999999971]
TCL: Setting parameter firsttimestep to 0
TCL: Setting parameter alchLambda to 0.9500000000000003
Info: NONBONDED TABLE R-SQUARED SPACING: 0.0625
Info: NONBONDED TABLE SIZE: 705 POINTS
TCL: Setting parameter alchLambda2 to 1.0
Info: NONBONDED TABLE R-SQUARED SPACING: 0.0625
Info: NONBONDED TABLE SIZE: 705 POINTS
TCL: Running for 1500000 steps
ETITLE: TS BOND ANGLE DIHED IMPRP ELECT VDW BOUNDARY MISC KINETIC TOTAL TEMP POTENTIAL TOTALAVG TEMPAVG PRESSURE GPRESSURE VOLUME PRESSAVG GPRESSAVG
ENERGY: 0 1.1360 7.5906 1.3809 0.0000 -10531.3504 1372.3818 0.0000 0.0000 1760.9443 -7387.9168 302.2847 -9148.8611 -7387.9168 302.2847 -677.7896 -584.7960 30717.1665 -677.7896 -584.7960
ENERGY: 300000 0.6073 5.1180 1.1126 0.0000 -10481.9366 1295.5008 0.0000 0.0000 1744.8223 -7434.7755 299.5172 -9179.5978 -7434.9783 297.0677 -928.0649 -820.7617 30069.2993 -360.2151 -277.8441
ENERGY: 600000 0.4882 6.8228 2.2758 0.0000 -10594.6323 1440.2160 0.0000 0.0000 1771.3231 -7373.5064 304.0663 -9144.8294 -7421.7260 298.7585 77.2713 145.9514 30355.4843 -273.5965 -202.8619
ENERGY: 900000 0.6400 7.3807 1.5660 0.0000 -10810.3206 1519.7069 0.0000 0.0000 1752.9870 -7528.0402 300.9187 -9281.0272 -7424.2369 299.3464 466.6735 500.4389 30034.8227 -186.0292 -121.3985
ENERGY: 1200000 1.0496 10.0392 1.3034 0.0000 -10601.3337 1443.4830 0.0000 0.0000 1764.1415 -7381.3170 302.8335 -9145.4584 -7412.2290 300.2358 330.4720 439.2314 29890.2413 -91.0726 -17.1723
ENERGY: 1500000 6.1467 7.3769 1.5202 0.0000 -10490.1859 1325.1800 0.0000 0.0000 1753.6554 -7396.3067 301.0334 -9149.9621 -7417.6362 300.2033 -878.0393 -706.8962 30137.9148 -145.7911 -68.1754
TCL: Exiting due to exit command.
