Info: SIMULATION PARAMETERS:
Info: TIMESTEP               2
Info: NUMBER OF STEPS        0
Info: STEPS PER CYCLE        10
Info: PERIODIC CELL BASIS 1  31.9649 0 0
Info: PERIODIC CELL BASIS 2  0 29.9278 0
Info: PERIODIC CELL BASIS 3  0 0 31.6216
Info: PERIODIC CELL CENTER   0 0 0
Info: WRAPPING WATERS AROUND PERIODIC BOUNDARIES ON OUTPUT.
Info: WRAPPING ALL CLUSTERS AROUND PERIODIC BOUNDARIES ON OUTPUT.
Info: FIRST LDB TIMESTEP     50
Info: LAST LDB TIMESTEP     -1
Info: HOM BACKGROUND SCALING 1
Info: PME BACKGROUND SCALING 1
Info: MIN ATOMS PER PATCH    40
Info: EMPTY PATCH LOAD       40 ATOMS
Info: VELOCITY FILE          mobley_6055410_equil.vel
Info: CENTER OF MASS MOVING INITIALLY? NO
Info: DIELECTRIC             1
Info: EXCLUDE                SCALED ONE-FOUR
Info: 1-4 ELECTROSTATICS SCALED BY 0.833333
Info: MODIFIED 1-4 VDW PARAMETERS WILL BE USED
Info: DCD FILENAME           mobley_6055410_prod.dcd
Info: DCD FREQUENCY          100000
Info: DCD FIRST STEP         100000
Info: DCD FILE WILL CONTAIN UNIT CELL DATA
Info: XST FILENAME           mobley_6055410_prod.xst
Info: XST FREQUENCY          100000
Info: NO VELOCITY DCD OUTPUT
Info: NO FORCE DCD OUTPUT
Info: OUTPUT FILENAME        mobley_6055410_prod
Info: BINARY OUTPUT FILES WILL BE USED
Info: RESTART FILENAME       mobley_6055410_prod.restart
Info: RESTART FREQUENCY      100000
Info: BINARY RESTART FILES WILL BE USED
Info: CUTOFF                 9
Info: PAIRLIST DISTANCE      11
Info: PAIRLIST SHRINK RATE   0.01
Info: PAIRLIST GROW RATE     0.01
Info: PAIRLIST TRIGGER       0.3
Info: PAIRLISTS PER CYCLE    2
Info: PAIRLISTS ENABLED
Info: MARGIN                 2
Info: HYDROGEN GROUP CUTOFF  2.5
Info: PATCH DIMENSION        15.5
Info: ENERGY OUTPUT STEPS    100000
Info: ENERGY EVALUATION STEPS    100000
Info: OUTPUT ENERGY PRECISION 4
Info: CROSSTERM ENERGY INCLUDED IN DIHEDRAL
Info: TIMING OUTPUT STEPS    1000000
Info: PRESSURE OUTPUT STEPS  100000
Info: ALCHEMICAL FEP ON
Info: FEP CURRENT LAMBDA VALUE     0
Info: FEP COMPARISON LAMBDA VALUE  0.05
Info: FEP INTRA-ALCHEMICAL NON-BONDED INTERACTIONS WILL BE RETAINED
Info: FEP INTRA-ALCHEMICAL BONDED INTERACTIONS WILL BE RETAINED
Info: FEP VDW SHIFTING COEFFICIENT 5
Info: FEP ELEC. ACTIVE FOR ANNIHILATED PARTICLES BETWEEN LAMBDA = 0 AND LAMBDA = 0.5
Info: FEP ELEC. ACTIVE FOR EXNIHILATED PARTICLES BETWEEN LAMBDA = 0.5 AND LAMBDA = 1
Info: FEP VDW ACTIVE FOR ANNIHILATED PARTICLES BETWEEN LAMBDA = 0 AND LAMBDA = 1
Info: FEP VDW ACTIVE FOR EXNIHILATED PARTICLES BETWEEN LAMBDA = 0 AND LAMBDA = 1
Info: FEP BOND ACTIVE FOR ANNIHILATED PARTICLES BETWEEN LAMBDA = 1 AND LAMBDA = 1
Info: FEP BOND ACTIVE FOR EXNIHILATED PARTICLES BETWEEN LAMBDA = 0 AND LAMBDA = 0
Info: LANGEVIN DYNAMICS ACTIVE
Info: LANGEVIN TEMPERATURE   300
Info: LANGEVIN USING BBK INTEGRATOR
Info: LANGEVIN DAMPING COEFFICIENT IS 1 INVERSE PS
Info: LANGEVIN DYNAMICS APPLIED TO HYDROGENS
Info: LANGEVIN PISTON PRESSURE CONTROL ACTIVE
Info:        TARGET PRESSURE IS 1.01325 BAR
Info:     OSCILLATION PERIOD IS 50 FS
Info:             DECAY TIME IS 25 FS
Info:     PISTON TEMPERATURE IS 300 K
Info:       PRESSURE CONTROL IS GROUP-BASED
Info:    INITIAL STRAIN RATE IS -9.34649e-05 -9.34649e-05 -9.34649e-05
Info:       CELL FLUCTUATION IS ISOTROPIC
Info: PARTICLE MESH EWALD (PME) ACTIVE
Info: PME TOLERANCE               1e-06
Info: PME EWALD COEFFICIENT       0.348832
Info: PME INTERPOLATION ORDER     4
Info: PME GRID DIMENSIONS         32 32 32
Info: PME MAXIMUM GRID SPACING    1
Info: PME CALCULATION WILL BE PERFORMED ON GPU
Info: FULL ELECTROSTATIC EVALUATION FREQUENCY      2
Info: USING VERLET I (r-RESPA) MTS SCHEME.
Info: C1 SPLITTING OF LONG RANGE ELECTROSTATICS
Info: PLACING ATOMS IN PATCHES BY HYDROGEN GROUPS
Info: RIGID BONDS TO HYDROGEN : ALL
Info:         ERROR TOLERANCE : 1e-08
Info:          MAX ITERATIONS : 100
Info: RIGID WATER USING SETTLE ALGORITHM
Info: RANDOM NUMBER SEED     1743895597
Info: USE HYDROGEN BONDS?    NO
Info: Using AMBER format force field!
Info: AMBER PARM FILE        mobley_6055410.prmtop
Info: COORDINATE PDB         mobley_6055410.pdb
Info: Exclusions will be read from PARM file!
Info: SCNB (VDW SCALING)     2
Info: USING ARITHMETIC MEAN TO COMBINE L-J SIGMA PARAMETERS
Info: BINARY COORDINATES     mobley_6055410_equil.coor
Info: SUMMARY OF PARAMETERS:
Info: 12 BONDS
Info: 15 ANGLES
Info:   15 HARMONIC
Info:   0 COSINE-BASED
Info: 6 DIHEDRAL
Info: 0 IMPROPER
Info: 0 CROSSTERM
Info: 0 VDW
Info: 28 VDW_PAIRS
Info: 0 NBTHOLE_PAIRS
Info: To read alchdata from file: mobley_6055410.pdb
Info: To read alchflag data from column: 5
Info: STRUCTURE SUMMARY:
Info: 2975 ATOMS
Info: 2976 BONDS
Info: 41 ANGLES
Info: 74 DIHEDRALS
Info: 0 IMPROPERS
Info: 0 CROSSTERMS
Info: 3071 EXCLUSIONS
Info: 2957 RIGID BONDS
Info: ALCH: 0 ATOMS TO DISAPPEAR IN FINAL STATE
Info: ALCH: 26 ATOMS TO APPEAR IN FINAL STATE
Info: 5968 DEGREES OF FREEDOM
Info: 1001 HYDROGEN GROUPS
Info: 3 ATOMS IN LARGEST HYDROGEN GROUP
Info: 1001 MIGRATION GROUPS
Info: 3 ATOMS IN LARGEST MIGRATION GROUP
Info: TOTAL MASS = 17959.9 amu
Info: TOTAL CHARGE = -0.000200089 e
Info: MASS DENSITY = 0.985898 g/cm^3
Info: ATOM DENSITY = 0.0983457 atoms/A^3
Info: ADDED 0 IMPLICIT EXCLUSIONS
Info: NONBONDED TABLE R-SQUARED SPACING: 0.0625
Info: NONBONDED TABLE SIZE: 705 POINTS
Info: REMOVING COM VELOCITY -0.106499 0.04121 -0.0212623
Info: Use 3D box decompostion in PME FFT.
Info: Updated CUDA force table with 4096 elements.
Info: Updated CUDA LJ table with 7 x 7 elements.
Info: Found 28 unique exclusion lists needing 100 bytes
TCL: Running for 1500000 steps
ETITLE: TS BOND ANGLE DIHED IMPRP ELECT VDW BOUNDARY MISC KINETIC TOTAL TEMP POTENTIAL TOTALAVG TEMPAVG PRESSURE GPRESSURE VOLUME PRESSAVG GPRESSAVG
ENERGY: 0 7.0108 13.3428 16.1890 0.0000 -10744.0739 1393.4374 0.0000 0.0000 1786.8082 -7527.2858 301.3280 -9314.0940 -7527.2858 301.3280 -67.4647 20.8806 30250.4365 -67.4647 20.8806
ENERGY: 300000 8.3243 9.6839 11.1697 0.0000 -10905.9504 1469.4908 0.0000 0.0000 1711.3619 -7695.9198 288.6047 -9407.2817 -7589.3863 296.6583 -85.6862 -5.2145 30014.1546 -226.6978 -152.9461
ENERGY: 600000 6.2101 9.4419 14.8662 0.0000 -10841.2196 1484.8722 0.0000 0.0000 1797.6786 -7528.1507 303.1612 -9325.8292 -7573.6499 297.1879 384.3880 417.4737 30499.8330 -134.5540 -78.9971
ENERGY: 900000 10.5863 11.8118 16.2388 0.0000 -10671.0210 1317.2462 0.0000 0.0000 1780.8621 -7534.2757 300.3253 -9315.1379 -7568.2225 297.1251 -1055.7856 -964.2238 30351.1512 -197.1691 -142.6925
ENERGY: 1200000 9.8659 11.6198 16.3977 0.0000 -10679.5235 1331.7661 0.0000 0.0000 1769.6255 -7540.2485 298.4303 -9309.8740 -7561.6242 298.2167 -859.8014 -804.9643 30367.8599 -181.9100 -121.7198
ENERGY: 1500000 8.9180 12.4214 11.4121 0.0000 -10848.7852 1471.1994 0.0000 0.0000 1766.3089 -7578.5253 297.8710 -9344.8343 -7563.0114 298.3017 -189.2699 -139.0917 30480.1529 -136.8931 -76.6756
TCL: Running FEP window   2: Lambda1 0.05   Lambda2 0.1    [dLambda 0.05  ]
TCL: Setting parameter firsttimestep to 0
TCL: Setting parameter alchLambda to 0.05
Info: NONBONDED TABLE R-SQUARED SPACING: 0.0625
Info: NONBONDED TABLE SIZE: 705 POINTS
TCL: Setting parameter alchLambda2 to 0.1
Info: NONBONDED TABLE R-SQUARED SPACING: 0.0625
Info: NONBONDED TABLE SIZE: 705 POINTS
TCL: Running for 1500000 steps
ETITLE: TS BOND ANGLE DIHED IMPRP ELECT VDW BOUNDARY MISC KINETIC TOTAL TEMP POTENTIAL TOTALAVG TEMPAVG PRESSURE GPRESSURE VOLUME PRESSAVG GPRESSAVG
ENERGY: 0 8.9180 12.4214 11.4121 0.0000 -10848.7848 1474.1184 0.0000 0.0000 1765.3901 -7576.5247 297.7161 -9341.9148 -7576.5247 297.7161 -220.5444 -130.0228 30480.1529 -220.5444 -130.0228
ENERGY: 300000 6.3528 6.6348 13.8809 0.0000 -10764.1017 1416.3548 0.0000 0.0000 1750.0124 -7570.8660 295.1227 -9320.8784 -7494.4173 300.6037 -355.8071 -363.9475 30675.6058 -26.6355 25.3330
ENERGY: 600000 4.4724 12.1717 14.4826 0.0000 -10967.3205 1535.9419 0.0000 0.0000 1795.5677 -7604.6843 302.8052 -9400.2519 -7527.0580 300.3695 462.4134 560.5658 30046.5581 102.0015 161.1939
ENERGY: 900000 3.9874 11.2066 16.2222 0.0000 -10811.1082 1512.7557 0.0000 0.0000 1755.5276 -7511.4087 296.0528 -9266.9363 -7516.1959 300.8223 519.7256 602.4939 30437.7603 107.6262 170.7715
ENERGY: 1200000 6.9516 3.0029 14.3941 0.0000 -10804.4996 1435.9410 0.0000 0.0000 1796.7685 -7547.4416 303.0077 -9344.2100 -7518.9901 301.2256 -499.2139 -386.8463 30587.6578 51.3405 119.1969
ENERGY: 1500000 10.1137 15.1632 12.1155 0.0000 -10729.5170 1460.2162 0.0000 0.0000 1845.5965 -7386.3119 311.2421 -9231.9084 -7505.7452 302.0106 439.0341 486.5643 30542.9208 58.8430 129.0869
TCL: Running FEP window   3: Lambda1 0.1    Lambda2 0.15000000000000002 [dLambda 0.05000000000000002]
TCL: Setting parameter firsttimestep to 0
TCL: Setting parameter alchLambda to 0.1
Info: NONBONDED TABLE R-SQUARED SPACING: 0.0625
Info: NONBONDED TABLE SIZE: 705 POINTS
TCL: Setting parameter alchLambda2 to 0.15000000000000002
Info: NONBONDED TABLE R-SQUARED SPACING: 0.0625
Info: NONBONDED TABLE SIZE: 705 POINTS
TCL: Running for 1500000 steps
ETITLE: TS BOND ANGLE DIHED IMPRP ELECT VDW BOUNDARY MISC KINETIC TOTAL TEMP POTENTIAL TOTALAVG TEMPAVG PRESSURE GPRESSURE VOLUME PRESSAVG GPRESSAVG
ENERGY: 0 10.1137 15.1632 12.1155 0.0000 -10729.5183 1463.1130 0.0000 0.0000 1844.7230 -7384.2898 311.0948 -9229.0128 -7384.2898 311.0948 412.8933 504.2946 30542.9208 412.8933 504.2946
ENERGY: 300000 6.2906 11.6635 12.1143 0.0000 -10776.3471 1359.6589 0.0000 0.0000 1851.4455 -7535.1744 312.2285 -9386.6199 -7510.0648 301.8450 -911.6677 -872.9255 30679.7787 -547.1140 -490.2377
ENERGY: 600000 7.6980 8.9563 15.1514 0.0000 -10852.6848 1492.2831 0.0000 0.0000 1776.3464 -7552.2496 299.5637 -9328.5960 -7533.2862 301.2635 131.6580 130.5128 30605.5596 -175.6979 -134.1965
ENERGY: 900000 6.3856 6.8509 12.0683 0.0000 -10792.2263 1509.1718 0.0000 0.0000 1763.6056 -7494.1441 297.4151 -9257.7497 -7515.4833 300.1160 497.4709 590.9287 30316.9280 -124.5676 -80.5289
ENERGY: 1200000 3.4417 7.3584 15.3659 0.0000 -10835.3946 1502.5434 0.0000 0.0000 1817.1799 -7489.5052 306.4499 -9306.6851 -7521.0019 300.3462 504.5101 568.7229 30197.5393 -140.5299 -97.2567
ENERGY: 1500000 6.5254 9.7001 12.2734 0.0000 -10931.1833 1484.3564 0.0000 0.0000 1814.8247 -7603.5032 306.0527 -9418.3280 -7532.9800 299.5761 -44.1393 80.0484 30379.4383 -180.1410 -128.7735
TCL: Running FEP window   4: Lambda1 0.15000000000000002 Lambda2 0.2    [dLambda 0.04999999999999999]
TCL: Setting parameter firsttimestep to 0
TCL: Setting parameter alchLambda to 0.15000000000000002
Info: NONBONDED TABLE R-SQUARED SPACING: 0.0625
Info: NONBONDED TABLE SIZE: 705 POINTS
TCL: Setting parameter alchLambda2 to 0.2
Info: NONBONDED TABLE R-SQUARED SPACING: 0.0625
Info: NONBONDED TABLE SIZE: 705 POINTS
TCL: Running for 1500000 steps
ETITLE: TS BOND ANGLE DIHED IMPRP ELECT VDW BOUNDARY MISC KINETIC TOTAL TEMP POTENTIAL TOTALAVG TEMPAVG PRESSURE GPRESSURE VOLUME PRESSAVG GPRESSAVG
ENERGY: 0 6.5254 9.7001 12.2734 0.0000 -10931.1830 1486.4911 0.0000 0.0000 1813.9639 -7602.2291 305.9076 -9416.1929 -7602.2291 305.9076 1.5484 90.8401 30379.4383 1.5484 90.8401
ENERGY: 300000 10.2272 7.1861 13.3754 0.0000 -10706.1733 1407.0437 0.0000 0.0000 1796.7393 -7471.6016 303.0028 -9268.3409 -7537.3796 304.9451 -491.3262 -394.6088 30668.6663 23.9463 101.3815
ENERGY: 600000 5.3741 9.4419 17.1853 0.0000 -10804.9367 1407.0273 0.0000 0.0000 1739.4142 -7626.4940 293.3355 -9365.9082 -7543.8378 302.5760 -602.2639 -497.5170 30570.0553 -110.6642 -38.3128
ENERGY: 900000 5.5704 12.8106 17.5254 0.0000 -10645.5232 1356.8428 0.0000 0.0000 1790.0163 -7462.7577 301.8690 -9252.7740 -7541.5720 300.7936 -805.3732 -739.9876 30817.6599 -130.1775 -62.8560
ENERGY: 1200000 10.9275 16.8452 19.2728 0.0000 -10858.8200 1475.7952 0.0000 0.0000 1755.3610 -7580.6182 296.0248 -9335.9793 -7541.2998 300.4740 8.1886 77.8838 30685.9664 -217.1190 -147.9345
ENERGY: 1500000 7.2094 11.5153 13.0105 0.0000 -10772.1298 1446.7798 0.0000 0.0000 1748.7938 -7544.8210 294.9173 -9293.6148 -7536.1208 300.2836 -26.2842 18.1798 30422.2546 -231.2196 -160.4010
TCL: Running FEP window   5: Lambda1 0.2    Lambda2 0.25   [dLambda 0.04999999999999999]
TCL: Setting parameter firsttimestep to 0
TCL: Setting parameter alchLambda to 0.2
Info: NONBONDED TABLE R-SQUARED SPACING: 0.0625
Info: NONBONDED TABLE SIZE: 705 POINTS
TCL: Setting parameter alchLambda2 to 0.25
Info: NONBONDED TABLE R-SQUARED SPACING: 0.0625
Info: NONBONDED TABLE SIZE: 705 POINTS
TCL: Running for 1500000 steps
ETITLE: TS BOND ANGLE DIHED IMPRP ELECT VDW BOUNDARY MISC KINETIC TOTAL TEMP POTENTIAL TOTALAVG TEMPAVG PRESSURE GPRESSURE VOLUME PRESSAVG GPRESSAVG
ENERGY: 0 7.2094 11.5153 13.0105 0.0000 -10772.1282 1447.5054 0.0000 0.0000 1747.9513 -7544.9363 294.7752 -9292.8876 -7544.9363 294.7752 -66.1217 25.2354 30422.2546 -66.1217 25.2354
ENERGY: 300000 10.6801 12.1490 14.7852 0.0000 -10708.3712 1436.5014 0.0000 0.0000 1775.3274 -7458.9280 299.3919 -9234.2554 -7535.0892 298.9386 -55.7658 -18.9755 30424.1909 196.1296 234.0993
ENERGY: 600000 6.0028 10.5860 11.9871 0.0000 -10856.0357 1539.9581 0.0000 0.0000 1746.2988 -7541.2029 294.4965 -9287.5018 -7523.9750 299.2279 818.4939 848.3953 30583.0055 105.7628 147.5969
ENERGY: 900000 6.1719 8.3740 12.8073 0.0000 -10795.9700 1444.9197 0.0000 0.0000 1843.7319 -7479.9651 310.9277 -9323.6971 -7522.4100 300.8745 257.2703 369.2425 30251.4697 118.9282 160.1790
ENERGY: 1200000 6.1228 9.6467 12.4606 0.0000 -10744.4388 1371.9132 0.0000 0.0000 1776.8966 -7567.3989 299.6565 -9344.2955 -7532.9645 300.9246 -775.5979 -712.5804 30565.8277 -7.8317 33.2486
ENERGY: 1500000 3.5101 10.6808 13.5775 0.0000 -10955.7553 1555.1133 0.0000 0.0000 1699.7009 -7673.1727 286.6382 -9372.8737 -7538.6740 299.9931 660.5027 723.5555 30315.1938 -27.5287 16.4990
TCL: Running FEP window   6: Lambda1 0.25   Lambda2 0.3    [dLambda 0.04999999999999999]
TCL: Setting parameter firsttimestep to 0
TCL: Setting parameter alchLambda to 0.25
Info: NONBONDED TABLE R-SQUARED SPACING: 0.0625
Info: NONBONDED TABLE SIZE: 705 POINTS
TCL: Setting parameter alchLambda2 to 0.3
Info: NONBONDED TABLE R-SQUARED SPACING: 0.0625
Info: NONBONDED TABLE SIZE: 705 POINTS
TCL: Running for 1500000 steps
ETITLE: TS BOND ANGLE DIHED IMPRP ELECT VDW BOUNDARY MISC KINETIC TOTAL TEMP POTENTIAL TOTALAVG TEMPAVG PRESSURE GPRESSURE VOLUME PRESSAVG GPRESSAVG
ENERGY: 0 3.5101 10.6808 13.5775 0.0000 -10955.7540 1555.1668 0.0000 0.0000 1698.8295 -7673.9893 286.4912 -9372.8187 -7673.9893 286.4912 631.1774 725.5847 30315.1938 631.1774 725.5847
ENERGY: 300000 9.0309 11.5265 17.7351 0.0000 -10815.8338 1508.4764 0.0000 0.0000 1809.0928 -7459.9721 305.0861 -9269.0649 -7586.2429 295.7791 501.1153 519.8541 30588.6926 217.3036 267.3517
ENERGY: 600000 5.4738 6.9865 19.3979 0.0000 -10827.2800 1444.4972 0.0000 0.0000 1751.9410 -7598.9837 295.4480 -9350.9247 -7581.0753 297.0501 -267.7502 -208.4128 30754.9625 -2.5700 50.5905
ENERGY: 900000 9.1016 13.2151 13.1876 0.0000 -10792.1868 1407.3846 0.0000 0.0000 1747.8988 -7601.3991 294.7663 -9349.2979 -7578.5595 296.8130 -466.4179 -395.4378 30442.0323 -2.3660 52.8234
ENERGY: 1200000 5.8558 7.7758 12.4169 0.0000 -10884.7000 1533.6328 0.0000 0.0000 1764.2768 -7560.7418 297.5283 -9325.0186 -7571.9972 297.0858 941.1529 979.6008 29994.2179 103.7738 160.0365
ENERGY: 1500000 6.7396 10.0649 14.7864 0.0000 -10934.6456 1500.9638 0.0000 0.0000 1791.4355 -7610.6554 302.1084 -9402.0909 -7569.3500 297.4596 367.8549 430.6955 29806.4870 74.6670 132.8273
TCL: Running FEP window   7: Lambda1 0.3    Lambda2 0.35   [dLambda 0.04999999999999999]
TCL: Setting parameter firsttimestep to 0
TCL: Setting parameter alchLambda to 0.3
Info: NONBONDED TABLE R-SQUARED SPACING: 0.0625
Info: NONBONDED TABLE SIZE: 705 POINTS
TCL: Setting parameter alchLambda2 to 0.35
Info: NONBONDED TABLE R-SQUARED SPACING: 0.0625
Info: NONBONDED TABLE SIZE: 705 POINTS
TCL: Running for 1500000 steps
ETITLE: TS BOND ANGLE DIHED IMPRP ELECT VDW BOUNDARY MISC KINETIC TOTAL TEMP POTENTIAL TOTALAVG TEMPAVG PRESSURE GPRESSURE VOLUME PRESSAVG GPRESSAVG
ENERGY: 0 6.7396 10.0649 14.7864 0.0000 -10934.6456 1502.7545 0.0000 0.0000 1790.5614 -7609.7388 301.9610 -9400.3003 -7609.7388 301.9610 363.9021 449.0105 29806.4870 363.9021 449.0105
ENERGY: 300000 9.8573 14.4381 15.6512 0.0000 -10712.9395 1434.4795 0.0000 0.0000 1768.9508 -7469.5625 298.3165 -9238.5134 -7550.7273 297.4198 5.1775 93.9877 30669.9622 -78.6994 0.2058
ENERGY: 600000 3.0107 5.9407 13.9459 0.0000 -10948.0436 1497.9951 0.0000 0.0000 1738.6392 -7688.5120 293.2048 -9427.1512 -7566.1195 296.6154 76.3971 130.8881 30611.2337 -74.5224 -8.8183
ENERGY: 900000 6.1254 12.8857 15.7534 0.0000 -10646.6772 1357.3403 0.0000 0.0000 1778.0182 -7476.5542 299.8457 -9254.5724 -7549.2146 297.0883 -579.3633 -520.3833 30406.8288 -147.8924 -89.1770
ENERGY: 1200000 5.6526 7.4457 13.0929 0.0000 -10875.2538 1507.0857 0.0000 0.0000 1816.7740 -7525.2028 306.3815 -9341.9769 -7556.5773 296.9726 445.3757 516.2853 30162.7596 -36.1620 26.9276
ENERGY: 1500000 3.7200 9.4598 16.6753 0.0000 -10775.6754 1425.7795 0.0000 0.0000 1758.5352 -7561.5056 296.5600 -9320.0408 -7549.3997 297.6521 -243.3518 -138.9029 30849.5395 -69.2778 0.5248
TCL: Running FEP window   8: Lambda1 0.35   Lambda2 0.39999999999999997 [dLambda 0.04999999999999999]
TCL: Setting parameter firsttimestep to 0
TCL: Setting parameter alchLambda to 0.35
Info: NONBONDED TABLE R-SQUARED SPACING: 0.0625
Info: NONBONDED TABLE SIZE: 705 POINTS
TCL: Setting parameter alchLambda2 to 0.39999999999999997
Info: NONBONDED TABLE R-SQUARED SPACING: 0.0625
Info: NONBONDED TABLE SIZE: 705 POINTS
TCL: Running for 1500000 steps
ETITLE: TS BOND ANGLE DIHED IMPRP ELECT VDW BOUNDARY MISC KINETIC TOTAL TEMP POTENTIAL TOTALAVG TEMPAVG PRESSURE GPRESSURE VOLUME PRESSAVG GPRESSAVG
ENERGY: 0 3.7200 9.4598 16.6753 0.0000 -10775.6754 1425.3519 0.0000 0.0000 1757.6298 -7562.8386 296.4074 -9320.4684 -7562.8386 296.4074 -210.1633 -136.8567 30849.5395 -210.1633 -136.8567
ENERGY: 300000 7.7925 8.8248 11.3504 0.0000 -10863.1515 1472.7516 0.0000 0.0000 1812.0078 -7550.4245 305.5777 -9362.4323 -7576.8190 298.4755 168.1349 234.4781 30075.5272 164.6251 248.9554
ENERGY: 600000 7.3856 8.9593 13.1908 0.0000 -10832.5747 1418.9488 0.0000 0.0000 1775.6903 -7608.3999 299.4531 -9384.0902 -7584.2878 298.1338 -258.7789 -179.3845 30056.9303 -90.5698 -8.6906
ENERGY: 900000 8.4108 4.2713 15.5668 0.0000 -10785.4726 1416.8971 0.0000 0.0000 1743.4464 -7596.8802 294.0155 -9340.3266 -7569.2121 298.0919 -179.7552 -107.4159 30391.9761 -7.6352 70.0758
ENERGY: 1200000 9.2533 6.2792 11.9410 0.0000 -10831.3254 1452.6224 0.0000 0.0000 1773.0228 -7578.2068 299.0032 -9351.2296 -7570.2976 297.7490 -717.0564 -580.1855 30875.4305 -154.8352 -74.3602
ENERGY: 1500000 5.5471 10.5524 15.9348 0.0000 -10908.8462 1479.7232 0.0000 0.0000 1745.1597 -7651.9291 294.3044 -9397.0888 -7575.3453 297.8931 -232.8392 -130.2849 30636.6151 -145.0038 -62.8059
TCL: Running FEP window   9: Lambda1 0.39999999999999997 Lambda2 0.44999999999999996 [dLambda 0.04999999999999999]
TCL: Setting parameter firsttimestep to 0
TCL: Setting parameter alchLambda to 0.39999999999999997
Info: NONBONDED TABLE R-SQUARED SPACING: 0.0625
Info: NONBONDED TABLE SIZE: 705 POINTS
TCL: Setting parameter alchLambda2 to 0.44999999999999996
Info: NONBONDED TABLE R-SQUARED SPACING: 0.0625
Info: NONBONDED TABLE SIZE: 705 POINTS
TCL: Running for 1500000 steps
ETITLE: TS BOND ANGLE DIHED IMPRP ELECT VDW BOUNDARY MISC KINETIC TOTAL TEMP POTENTIAL TOTALAVG TEMPAVG PRESSURE GPRESSURE VOLUME PRESSAVG GPRESSAVG
ENERGY: 0 5.5471 10.5524 15.9348 0.0000 -10908.8463 1479.3035 0.0000 0.0000 1744.3214 -7653.1871 294.1630 -9397.5086 -7653.1871 294.1630 -203.8230 -127.8838 30636.6151 -203.8230 -127.8838
ENERGY: 300000 5.9749 8.5986 15.3619 0.0000 -10825.4233 1498.7205 0.0000 0.0000 1777.7258 -7519.0416 299.7964 -9296.7674 -7548.3767 300.8430 -85.8403 -42.0711 30949.2629 -247.5219 -223.9153
ENERGY: 600000 5.9965 7.0971 14.3474 0.0000 -10858.5398 1519.1018 0.0000 0.0000 1776.4219 -7535.5752 299.5765 -9311.9971 -7547.5556 301.0710 703.3387 724.1911 30551.9757 52.7492 73.3049
ENERGY: 900000 3.4939 9.7161 15.1728 0.0000 -10747.7092 1401.5440 0.0000 0.0000 1709.4365 -7608.3458 288.2800 -9317.7824 -7545.2314 299.0104 -41.8357 25.3449 30111.8975 54.7228 83.6740
ENERGY: 1200000 6.9391 10.4641 11.6812 0.0000 -10758.1694 1332.9791 0.0000 0.0000 1848.3781 -7547.7280 311.7112 -9396.1061 -7545.3990 300.3738 -885.0436 -869.1584 30515.0204 -45.4102 -10.3100
ENERGY: 1500000 7.5487 11.2552 13.2129 0.0000 -10881.0466 1456.8372 0.0000 0.0000 1815.5813 -7576.6113 306.1803 -9392.1926 -7546.3868 301.1787 205.0099 253.6892 30493.5568 -30.8537 10.2760
TCL: Running FEP window  10: Lambda1 0.44999999999999996 Lambda2 0.49999999999999994 [dLambda 0.04999999999999999]
TCL: Setting parameter firsttimestep to 0
TCL: Setting parameter alchLambda to 0.44999999999999996
Info: NONBONDED TABLE R-SQUARED SPACING: 0.0625
Info: NONBONDED TABLE SIZE: 705 POINTS
TCL: Setting parameter alchLambda2 to 0.49999999999999994
Info: NONBONDED TABLE R-SQUARED SPACING: 0.0625
Info: NONBONDED TABLE SIZE: 705 POINTS
TCL: Running for 1500000 steps
ETITLE: TS BOND ANGLE DIHED IMPRP ELECT VDW BOUNDARY MISC KINETIC TOTAL TEMP POTENTIAL TOTALAVG TEMPAVG PRESSURE GPRESSURE VOLUME PRESSAVG GPRESSAVG
ENERGY: 0 7.5487 11.2552 13.2129 0.0000 -10881.0476 1456.4470 0.0000 0.0000 1814.6818 -7577.9020 306.0286 -9392.5838 -7577.9020 306.0286 184.2737 258.0267 30493.5568 184.2737 258.0267
ENERGY: 300000 5.4048 8.4344 12.2878 0.0000 -10836.8334 1456.8760 0.0000 0.0000 1790.6520 -7563.1784 301.9762 -9353.8303 -7595.7443 296.3849 -200.1315 -114.7094 30908.7975 -473.3203 -413.4519
ENERGY: 600000 9.8688 10.6484 15.5478 0.0000 -10872.5037 1454.9368 0.0000 0.0000 1762.6759 -7618.8260 297.2583 -9381.5019 -7582.7496 296.3371 -200.9132 -131.8019 30435.3284 -386.9793 -333.2815
ENERGY: 900000 5.8884 12.0187 17.1768 0.0000 -10780.8425 1410.9076 0.0000 0.0000 1791.2829 -7543.5682 302.0826 -9334.8511 -7584.3451 297.2555 -73.0781 -24.1591 30484.2446 -458.6699 -405.8586
ENERGY: 1200000 6.6609 11.8465 20.1784 0.0000 -10768.0004 1420.8175 0.0000 0.0000 1735.4783 -7573.0187 292.6717 -9308.4971 -7567.7948 298.5169 -177.1090 -174.0471 30975.2660 -401.5497 -351.0316
ENERGY: 1500000 6.2033 5.2238 14.1397 0.0000 -10891.9509 1456.8108 0.0000 0.0000 1847.8407 -7561.7327 311.6206 -9409.5734 -7558.0180 299.9386 177.1216 168.6574 30314.7304 -309.8494 -267.0828
TCL: Running FEP window  11: Lambda1 0.49999999999999994 Lambda2 0.5499999999999999 [dLambda 0.04999999999999999]
TCL: Setting parameter firsttimestep to 0
TCL: Setting parameter alchLambda to 0.49999999999999994
Info: NONBONDED TABLE R-SQUARED SPACING: 0.0625
Info: NONBONDED TABLE SIZE: 705 POINTS
TCL: Setting parameter alchLambda2 to 0.5499999999999999
Info: NONBONDED TABLE R-SQUARED SPACING: 0.0625
Info: NONBONDED TABLE SIZE: 705 POINTS
TCL: Running for 1500000 steps
ETITLE: TS BOND ANGLE DIHED IMPRP ELECT VDW BOUNDARY MISC KINETIC TOTAL TEMP POTENTIAL TOTALAVG TEMPAVG PRESSURE GPRESSURE VOLUME PRESSAVG GPRESSAVG
ENERGY: 0 6.2033 5.2238 14.1397 0.0000 -10891.9504 1455.9692 0.0000 0.0000 1846.9488 -7563.4656 311.4702 -9410.4145 -7563.4656 311.4702 91.3785 169.5832 30314.7304 91.3785 169.5832
ENERGY: 300000 6.2367 9.5549 17.6583 0.0000 -10867.7801 1471.1247 0.0000 0.0000 1764.1845 -7599.0210 297.5127 -9363.2055 -7620.8554 299.5872 197.9268 272.8529 30205.8136 -196.2160 -119.5341
ENERGY: 600000 9.4723 8.7992 11.8297 0.0000 -10819.4569 1387.8811 0.0000 0.0000 1770.3875 -7631.0872 298.5588 -9401.4747 -7589.9381 300.2315 -786.1937 -700.5185 30700.6931 -302.6248 -223.6095
ENERGY: 900000 5.5684 15.3564 15.8900 0.0000 -10762.2267 1465.7713 0.0000 0.0000 1728.3722 -7531.2684 291.4733 -9259.6406 -7568.5494 300.0100 -48.9670 35.1263 31002.7504 -190.4553 -106.9230
ENERGY: 1200000 7.1019 7.8151 13.9534 0.0000 -10890.0538 1505.6201 0.0000 0.0000 1796.5806 -7558.9827 302.9760 -9355.5633 -7571.6583 299.7645 184.5038 258.1443 30689.4043 -202.6025 -130.6323
ENERGY: 1500000 2.2189 8.5382 15.6304 0.0000 -10899.4157 1503.7574 0.0000 0.0000 1778.6816 -7590.5891 299.9575 -9369.2707 -7567.0534 300.8710 456.3090 544.2061 30369.8999 -139.7935 -65.2400
TCL: Running FEP window  12: Lambda1 0.5499999999999999 Lambda2 0.6    [dLambda 0.050000000000000044]
TCL: Setting parameter firsttimestep to 0
TCL: Setting parameter alchLambda to 0.5499999999999999
Info: NONBONDED TABLE R-SQUARED SPACING: 0.0625
Info: NONBONDED TABLE SIZE: 705 POINTS
TCL: Setting parameter alchLambda2 to 0.6
Info: NONBONDED TABLE R-SQUARED SPACING: 0.0625
Info: NONBONDED TABLE SIZE: 705 POINTS
TCL: Running for 1500000 steps
ETITLE: TS BOND ANGLE DIHED IMPRP ELECT VDW BOUNDARY MISC KINETIC TOTAL TEMP POTENTIAL TOTALAVG TEMPAVG PRESSURE GPRESSURE VOLUME PRESSAVG GPRESSAVG
ENERGY: 0 2.2189 8.5383 15.6304 0.0000 -10899.8106 1503.6816 0.0000 0.0000 1777.7709 -7591.9706 299.8040 -9369.7415 -7591.9706 299.8040 475.3027 552.7401 30369.8999 475.3027 552.7401
ENERGY: 300000 6.0841 13.5237 11.3909 0.0000 -10852.7679 1534.8048 0.0000 0.0000 1763.1278 -7523.8367 297.3345 -9286.9645 -7569.8438 295.4918 1025.2241 1033.8922 30401.0789 227.0415 281.1519
ENERGY: 600000 5.5649 6.9451 11.7657 0.0000 -10927.0374 1499.4770 0.0000 0.0000 1767.5919 -7635.6928 298.0874 -9403.2847 -7569.4523 296.5177 95.9101 161.4537 30494.9697 114.6282 176.5975
ENERGY: 900000 6.2443 10.4249 12.0326 0.0000 -10826.7156 1437.2137 0.0000 0.0000 1760.9837 -7599.8162 296.9730 -9360.8000 -7558.4560 297.6900 -406.6403 -344.5938 30699.3877 82.4690 148.5457
ENERGY: 1200000 9.0243 12.5196 12.6137 0.0000 -10708.4789 1393.8700 0.0000 0.0000 1826.3874 -7454.0638 308.0027 -9280.4512 -7546.8159 298.5191 -551.2342 -459.6320 30749.0227 20.8718 88.9425
ENERGY: 1500000 5.3691 13.7060 14.9040 0.0000 -10824.8090 1412.7727 0.0000 0.0000 1829.5169 -7548.5402 308.5304 -9378.0571 -7543.1979 299.0057 -435.8746 -392.0718 30473.6199 34.0771 100.6321
TCL: Running FEP window  13: Lambda1 0.6    Lambda2 0.65   [dLambda 0.050000000000000044]
TCL: Setting parameter firsttimestep to 0
TCL: Setting parameter alchLambda to 0.6
Info: NONBONDED TABLE R-SQUARED SPACING: 0.0625
Info: NONBONDED TABLE SIZE: 705 POINTS
TCL: Setting parameter alchLambda2 to 0.65
Info: NONBONDED TABLE R-SQUARED SPACING: 0.0625
Info: NONBONDED TABLE SIZE: 705 POINTS
TCL: Running for 1500000 steps
ETITLE: TS BOND ANGLE DIHED IMPRP ELECT VDW BOUNDARY MISC KINETIC TOTAL TEMP POTENTIAL TOTALAVG TEMPAVG PRESSURE GPRESSURE VOLUME PRESSAVG GPRESSAVG
ENERGY: 0 5.3691 13.7061 14.9040 0.0000 -10825.5977 1412.4047 0.0000 0.0000 1828.6048 -7550.6090 308.3766 -9379.2138 -7550.6090 308.3766 -477.7911 -385.6441 30473.6199 -477.7911 -385.6441
ENERGY: 300000 6.5083 14.1736 16.2157 0.0000 -10693.4765 1427.3678 0.0000 0.0000 1768.3782 -7460.8330 298.2200 -9229.2112 -7506.1201 301.5429 49.6885 97.7876 31316.5129 -146.3714 -81.5591
ENERGY: 600000 4.1840 8.2926 13.9645 0.0000 -10750.3871 1405.5376 0.0000 0.0000 1807.4994 -7510.9089 304.8174 -9318.4083 -7528.6708 300.9996 -190.5532 -214.1997 30602.2904 -41.2191 12.4070
ENERGY: 900000 8.7238 6.2014 15.5193 0.0000 -10817.2546 1440.5300 0.0000 0.0000 1760.0688 -7586.2114 296.8187 -9346.2802 -7548.6962 299.8208 -328.0074 -304.2725 30561.3129 -84.3361 -29.9018
ENERGY: 1200000 7.7007 6.1138 12.0584 0.0000 -10786.7066 1418.8869 0.0000 0.0000 1792.2427 -7549.7041 302.2445 -9341.9468 -7556.4803 299.4119 -465.9803 -445.5687 30802.4176 -130.2772 -77.4810
ENERGY: 1500000 6.4052 8.9824 12.6700 0.0000 -10858.2022 1497.0912 0.0000 0.0000 1785.3755 -7547.6778 301.0864 -9333.0533 -7547.4111 299.5315 679.0205 673.7850 30599.9790 -26.2010 24.6933
TCL: Running FEP window  14: Lambda1 0.65   Lambda2 0.7000000000000001 [dLambda 0.050000000000000044]
TCL: Setting parameter firsttimestep to 0
TCL: Setting parameter alchLambda to 0.65
Info: NONBONDED TABLE R-SQUARED SPACING: 0.0625
Info: NONBONDED TABLE SIZE: 705 POINTS
TCL: Setting parameter alchLambda2 to 0.7000000000000001
Info: NONBONDED TABLE R-SQUARED SPACING: 0.0625
Info: NONBONDED TABLE SIZE: 705 POINTS
TCL: Running for 1500000 steps
ETITLE: TS BOND ANGLE DIHED IMPRP ELECT VDW BOUNDARY MISC KINETIC TOTAL TEMP POTENTIAL TOTALAVG TEMPAVG PRESSURE GPRESSURE VOLUME PRESSAVG GPRESSAVG
ENERGY: 0 6.4052 8.9824 12.6700 0.0000 -10858.8630 1496.3071 0.0000 0.0000 1784.5409 -7549.9574 300.9457 -9334.4983 -7549.9574 300.9457 599.8178 676.8337 30599.9790 599.8178 676.8337
ENERGY: 300000 7.5064 10.0745 17.5038 0.0000 -10836.2997 1426.7173 0.0000 0.0000 1795.2124 -7579.2853 302.7453 -9374.4977 -7548.0302 300.1312 -468.1856 -466.4627 31019.3367 -27.3169 23.7970
ENERGY: 600000 4.4958 12.3430 16.2584 0.0000 -10815.0013 1433.1122 0.0000 0.0000 1716.0512 -7632.7406 289.3955 -9348.7919 -7537.3498 299.8498 -263.8256 -238.2194 30587.7539 -221.6479 -159.3117
ENERGY: 900000 4.5232 13.6896 12.4069 0.0000 -10874.4407 1484.2579 0.0000 0.0000 1768.2684 -7591.2947 298.2014 -9359.5631 -7536.7522 299.9605 147.7037 210.7086 30692.4774 -251.5026 -192.9626
ENERGY: 1200000 4.3025 6.2835 15.7131 0.0000 -10845.1880 1403.3630 0.0000 0.0000 1757.3417 -7658.1841 296.3588 -9415.5258 -7551.1579 299.7933 -269.2748 -241.7262 30306.5235 -247.8511 -194.5588
ENERGY: 1500000 5.5861 7.2327 16.2572 0.0000 -10895.2681 1465.4512 0.0000 0.0000 1784.0928 -7616.6482 300.8701 -9400.7410 -7548.3831 300.6536 111.5666 191.7238 30340.2752 -221.8087 -168.7473
TCL: Running FEP window  15: Lambda1 0.7000000000000001 Lambda2 0.7500000000000001 [dLambda 0.050000000000000044]
TCL: Setting parameter firsttimestep to 0
TCL: Setting parameter alchLambda to 0.7000000000000001
Info: NONBONDED TABLE R-SQUARED SPACING: 0.0625
Info: NONBONDED TABLE SIZE: 705 POINTS
TCL: Setting parameter alchLambda2 to 0.7500000000000001
Info: NONBONDED TABLE R-SQUARED SPACING: 0.0625
Info: NONBONDED TABLE SIZE: 705 POINTS
TCL: Running for 1500000 steps
ETITLE: TS BOND ANGLE DIHED IMPRP ELECT VDW BOUNDARY MISC KINETIC TOTAL TEMP POTENTIAL TOTALAVG TEMPAVG PRESSURE GPRESSURE VOLUME PRESSAVG GPRESSAVG
ENERGY: 0 5.5861 7.2327 16.2572 0.0000 -10895.6055 1465.7321 0.0000 0.0000 1783.2601 -7617.5373 300.7297 -9400.7974 -7617.5373 300.7297 117.2501 208.9532 30340.2752 117.2501 208.9532
ENERGY: 300000 4.9530 6.2143 10.4001 0.0000 -10716.8847 1365.6939 0.0000 0.0000 1795.7204 -7533.9030 302.8310 -9329.6234 -7567.5570 299.3436 -506.1818 -459.7637 30330.9212 -285.2371 -230.5433
ENERGY: 600000 4.7133 10.2192 17.4379 0.0000 -10771.3053 1439.7943 0.0000 0.0000 1791.7512 -7507.3894 302.1616 -9299.1406 -7552.8512 300.3953 115.9664 181.3433 30838.0503 -120.3933 -55.5145
ENERGY: 900000 7.7684 11.0282 16.5287 0.0000 -10819.2295 1358.7019 0.0000 0.0000 1787.0026 -7638.1997 301.3608 -9425.2022 -7557.6256 300.1334 -789.0604 -761.7494 30682.5620 -244.3852 -184.3902
ENERGY: 1200000 5.3531 8.5788 17.1549 0.0000 -10858.9201 1467.4600 0.0000 0.0000 1783.9269 -7576.4464 300.8421 -9360.3733 -7554.2202 300.0250 334.3657 391.6277 30215.9789 -154.5250 -91.2388
ENERGY: 1500000 9.8126 8.0646 14.2788 0.0000 -10751.6120 1407.2289 0.0000 0.0000 1807.6142 -7504.6129 304.8367 -9312.2271 -7556.9225 300.3263 -527.5335 -451.3780 30788.2093 -145.6484 -79.0668
TCL: Running FEP window  16: Lambda1 0.7500000000000001 Lambda2 0.8000000000000002 [dLambda 0.050000000000000044]
TCL: Setting parameter firsttimestep to 0
TCL: Setting parameter alchLambda to 0.7500000000000001
Info: NONBONDED TABLE R-SQUARED SPACING: 0.0625
Info: NONBONDED TABLE SIZE: 705 POINTS
TCL: Setting parameter alchLambda2 to 0.8000000000000002
Info: NONBONDED TABLE R-SQUARED SPACING: 0.0625
Info: NONBONDED TABLE SIZE: 705 POINTS
TCL: Running for 1500000 steps
ETITLE: TS BOND ANGLE DIHED IMPRP ELECT VDW BOUNDARY MISC KINETIC TOTAL TEMP POTENTIAL TOTALAVG TEMPAVG PRESSURE GPRESSURE VOLUME PRESSAVG GPRESSAVG
ENERGY: 0 9.8126 8.0646 14.2788 0.0000 -10752.6009 1408.7310 0.0000 0.0000 1806.7202 -7504.9935 304.6860 -9311.7138 -7504.9935 304.6860 -487.6689 -420.6984 30788.2093 -487.6689 -420.6984
ENERGY: 300000 6.0738 16.6311 14.9535 0.0000 -10842.2327 1459.1612 0.0000 0.0000 1823.2045 -7522.2085 307.4659 -9345.4131 -7565.2259 301.0830 326.8770 418.0254 30291.2883 -677.2729 -599.4070
ENERGY: 600000 6.3786 8.7527 16.4975 0.0000 -10987.3869 1550.7684 0.0000 0.0000 1709.1265 -7695.8632 288.2277 -9404.9897 -7585.5199 298.1369 676.0295 729.5767 30325.6375 -157.6541 -99.9408
ENERGY: 900000 9.2400 5.4649 11.5735 0.0000 -10749.7796 1429.1616 0.0000 0.0000 1746.0092 -7548.3303 294.4477 -9294.3396 -7586.2442 298.0688 -341.3256 -317.7324 31007.1805 -177.2796 -115.6274
ENERGY: 1200000 11.0215 12.8104 15.9858 0.0000 -10738.1900 1381.7806 0.0000 0.0000 1697.8993 -7618.6924 286.3344 -9316.5917 -7579.5754 296.8714 -778.0854 -639.4469 30929.5551 -256.2756 -179.1237
ENERGY: 1500000 4.9803 14.9210 14.9191 0.0000 -10868.7558 1419.4631 0.0000 0.0000 1761.5996 -7652.8726 297.0768 -9414.4723 -7570.3691 298.0184 -265.5643 -155.0853 30441.1342 -283.1792 -207.3995
TCL: Running FEP window  17: Lambda1 0.8000000000000002 Lambda2 0.8500000000000002 [dLambda 0.050000000000000044]
TCL: Setting parameter firsttimestep to 0
TCL: Setting parameter alchLambda to 0.8000000000000002
Info: NONBONDED TABLE R-SQUARED SPACING: 0.0625
Info: NONBONDED TABLE SIZE: 705 POINTS
TCL: Setting parameter alchLambda2 to 0.8500000000000002
Info: NONBONDED TABLE R-SQUARED SPACING: 0.0625
Info: NONBONDED TABLE SIZE: 705 POINTS
TCL: Running for 1500000 steps
ETITLE: TS BOND ANGLE DIHED IMPRP ELECT VDW BOUNDARY MISC KINETIC TOTAL TEMP POTENTIAL TOTALAVG TEMPAVG PRESSURE GPRESSURE VOLUME PRESSAVG GPRESSAVG
ENERGY: 0 4.9803 14.9210 14.9191 0.0000 -10869.6836 1419.9434 0.0000 0.0000 1760.7414 -7654.1783 296.9321 -9414.9197 -7654.1783 296.9321 -229.0969 -138.9507 30441.1342 -229.0969 -138.9507
ENERGY: 300000 5.3386 15.2686 15.6571 0.0000 -10893.0996 1553.7368 0.0000 0.0000 1816.9542 -7486.1442 306.4118 -9303.0984 -7585.0705 301.6019 857.9612 910.3299 30637.0239 121.5070 189.1272
ENERGY: 600000 2.6584 6.1779 14.1585 0.0000 -10916.1889 1515.8885 0.0000 0.0000 1778.5853 -7598.7203 299.9413 -9377.3056 -7607.1734 298.9438 684.3845 737.6949 30291.6275 235.5242 290.1464
ENERGY: 900000 4.4494 7.1373 16.2580 0.0000 -10767.6109 1395.0690 0.0000 0.0000 1787.7318 -7556.9654 301.4838 -9344.6972 -7589.3558 300.3856 -232.6659 -174.5946 30447.2130 177.6972 227.2900
ENERGY: 1200000 6.1847 9.4871 11.7457 0.0000 -10845.2001 1527.5510 0.0000 0.0000 1789.3606 -7500.8709 301.7585 -9290.2316 -7587.3523 299.4144 921.9071 949.9917 30298.2352 213.2378 266.5404
ENERGY: 1500000 4.8931 6.6760 12.2417 0.0000 -10861.1667 1454.7385 0.0000 0.0000 1789.7374 -7592.8801 301.8220 -9382.6174 -7582.8500 299.8203 88.9182 94.4195 30552.4444 134.1906 187.4007
TCL: Running FEP window  18: Lambda1 0.8500000000000002 Lambda2 0.9000000000000002 [dLambda 0.050000000000000044]
TCL: Setting parameter firsttimestep to 0
TCL: Setting parameter alchLambda to 0.8500000000000002
Info: NONBONDED TABLE R-SQUARED SPACING: 0.0625
Info: NONBONDED TABLE SIZE: 705 POINTS
TCL: Setting parameter alchLambda2 to 0.9000000000000002
Info: NONBONDED TABLE R-SQUARED SPACING: 0.0625
Info: NONBONDED TABLE SIZE: 705 POINTS
TCL: Running for 1500000 steps
ETITLE: TS BOND ANGLE DIHED IMPRP ELECT VDW BOUNDARY MISC KINETIC TOTAL TEMP POTENTIAL TOTALAVG TEMPAVG PRESSURE GPRESSURE VOLUME PRESSAVG GPRESSAVG
ENERGY: 0 4.8931 6.6759 12.2417 0.0000 -10863.0119 1455.6476 0.0000 0.0000 1788.8366 -7594.7170 301.6701 -9383.5536 -7594.7170 301.6701 41.6034 122.7418 30552.4444 41.6034 122.7418
ENERGY: 300000 5.6103 12.2861 16.4238 0.0000 -10909.1191 1563.3066 0.0000 0.0000 1759.4182 -7552.0742 296.7090 -9311.4924 -7564.7835 295.1324 1154.8497 1205.4789 30332.2495 154.6692 215.0777
ENERGY: 600000 6.6744 5.5614 15.9156 0.0000 -10781.8478 1425.3445 0.0000 0.0000 1732.1768 -7596.1751 292.1150 -9328.3519 -7546.2472 296.4215 -328.8771 -254.9097 30557.4056 66.5375 132.2414
ENERGY: 900000 8.4813 9.3172 18.3438 0.0000 -10895.8764 1514.6597 0.0000 0.0000 1749.3262 -7595.7482 295.0070 -9345.0744 -7553.6890 296.2578 715.9968 767.5092 30514.0369 -40.1244 26.2036
ENERGY: 1200000 5.8453 7.4770 15.1243 0.0000 -10902.6577 1461.2041 0.0000 0.0000 1801.6259 -7611.3812 303.8269 -9413.0070 -7568.2411 297.1374 -227.3787 -177.2619 30617.7416 -36.5452 38.6467
ENERGY: 1500000 10.1782 14.1284 15.5525 0.0000 -10769.8792 1360.4817 0.0000 0.0000 1844.5792 -7524.9590 311.0705 -9369.5382 -7564.4547 299.0015 -882.0539 -849.5029 30896.1743 6.2908 70.5538
TCL: Running FEP window  19: Lambda1 0.9000000000000002 Lambda2 0.9500000000000003 [dLambda 0.050000000000000044]
TCL: Setting parameter firsttimestep to 0
TCL: Setting parameter alchLambda to 0.9000000000000002
Info: NONBONDED TABLE R-SQUARED SPACING: 0.0625
Info: NONBONDED TABLE SIZE: 705 POINTS
TCL: Setting parameter alchLambda2 to 0.9500000000000003
Info: NONBONDED TABLE R-SQUARED SPACING: 0.0625
Info: NONBONDED TABLE SIZE: 705 POINTS
TCL: Running for 1500000 steps
ETITLE: TS BOND ANGLE DIHED IMPRP ELECT VDW BOUNDARY MISC KINETIC TOTAL TEMP POTENTIAL TOTALAVG TEMPAVG PRESSURE GPRESSURE VOLUME PRESSAVG GPRESSAVG
ENERGY: 0 10.1782 14.1284 15.5525 0.0000 -10771.1617 1359.4326 0.0000 0.0000 1843.6695 -7528.2005 310.9171 -9371.8700 -7528.2005 310.9171 -931.8132 -844.4318 30896.1743 -931.8132 -844.4318
ENERGY: 300000 7.6635 8.3159 12.1879 0.0000 -10746.1386 1386.7484 0.0000 0.0000 1805.2094 -7526.0134 304.4312 -9331.2228 -7520.7629 304.0122 -319.4773 -284.3519 30480.6128 54.7465 134.0340
ENERGY: 600000 5.3281 11.5437 13.0522 0.0000 -10819.1695 1451.9143 0.0000 0.0000 1759.7252 -7577.6060 296.7607 -9337.3312 -7526.4897 302.0267 -167.0954 -72.6039 30979.0305 -17.2706 59.5799
ENERGY: 900000 11.9916 13.1359 13.0185 0.0000 -10728.1661 1392.4329 0.0000 0.0000 1814.5778 -7483.0094 306.0111 -9297.5872 -7528.3362 302.7715 -24.1600 2.5368 30321.4885 -0.7015 55.6341
ENERGY: 1200000 7.4328 5.2962 14.8177 0.0000 -10791.0618 1433.9071 0.0000 0.0000 1760.4158 -7569.1920 296.8772 -9329.6078 -7527.6064 302.6692 -416.7237 -389.7518 31471.0780 -80.3749 -28.2297
ENERGY: 1500000 6.4845 12.8970 10.1920 0.0000 -10729.6836 1389.8426 0.0000 0.0000 1760.1259 -7550.1416 296.8283 -9310.2675 -7532.4592 300.6425 -692.1584 -613.1014 31132.2558 -52.3691 -0.0307
TCL: Running FEP window  20: Lambda1 0.9500000000000003 Lambda2 1.0    [dLambda 0.04999999999999971]
TCL: Setting parameter firsttimestep to 0
TCL: Setting parameter alchLambda to 0.9500000000000003
Info: NONBONDED TABLE R-SQUARED SPACING: 0.0625
Info: NONBONDED TABLE SIZE: 705 POINTS
TCL: Setting parameter alchLambda2 to 1.0
Info: NONBONDED TABLE R-SQUARED SPACING: 0.0625
Info: NONBONDED TABLE SIZE: 705 POINTS
TCL: Running for 1500000 steps
ETITLE: TS BOND ANGLE DIHED IMPRP ELECT VDW BOUNDARY MISC KINETIC TOTAL TEMP POTENTIAL TOTALAVG TEMPAVG PRESSURE GPRESSURE VOLUME PRESSAVG GPRESSAVG
ENERGY: 0 6.4845 12.8970 10.1920 0.0000 -10731.4682 1391.0502 0.0000 0.0000 1759.2163 -7551.6283 296.6749 -9310.8446 -7551.6283 296.6749 -673.4348 -584.6014 31132.2558 -673.4348 -584.6014
ENERGY: 300000 4.3777 7.0199 15.4718 0.0000 -10881.9000 1494.4566 0.0000 0.0000 1738.7196 -7621.8545 293.2183 -9360.5741 -7558.7860 296.7545 401.0230 442.7772 30761.4379 -356.8471 -284.6887
ENERGY: 600000 5.7727 8.3331 12.1899 0.0000 -10721.2509 1386.8227 0.0000 0.0000 1753.3182 -7554.8142 295.6802 -9308.1324 -7548.2664 296.8165 -740.4301 -686.8852 31355.3788 -346.7107 -279.3220
ENERGY: 900000 7.1207 7.5097 14.2763 0.0000 -10768.4715 1466.7751 0.0000 0.0000 1806.8572 -7465.9326 304.7091 -9272.7898 -7539.0523 299.1781 501.5807 624.0035 30762.5835 -329.2424 -245.2437
ENERGY: 1200000 4.7319 8.9972 14.1950 0.0000 -10785.0491 1406.6222 0.0000 0.0000 1751.8427 -7598.6602 295.4314 -9350.5028 -7548.0802 299.6246 -836.5178 -769.7907 31269.7591 -349.2536 -271.4990
ENERGY: 1500000 4.0951 8.4108 13.7909 0.0000 -10848.7909 1445.6572 0.0000 0.0000 1808.1122 -7568.7247 304.9207 -9376.8369 -7544.1942 300.8689 15.5094 0.1927 30939.3601 -405.9759 -331.9414
TCL: Exiting due to exit command.
