Info: SIMULATION PARAMETERS:
Info: TIMESTEP               2
Info: NUMBER OF STEPS        0
Info: STEPS PER CYCLE        10
Info: PERIODIC CELL BASIS 1  31.0877 0 0
Info: PERIODIC CELL BASIS 2  0 30.4426 0
Info: PERIODIC CELL BASIS 3  0 0 32.5068
Info: PERIODIC CELL CENTER   0 0 0
Info: WRAPPING WATERS AROUND PERIODIC BOUNDARIES ON OUTPUT.
Info: WRAPPING ALL CLUSTERS AROUND PERIODIC BOUNDARIES ON OUTPUT.
Info: FIRST LDB TIMESTEP     50
Info: LAST LDB TIMESTEP     -1
Info: HOM BACKGROUND SCALING 1
Info: PME BACKGROUND SCALING 1
Info: MIN ATOMS PER PATCH    40
Info: EMPTY PATCH LOAD       40 ATOMS
Info: VELOCITY FILE          mobley_4252724_equil.vel
Info: CENTER OF MASS MOVING INITIALLY? NO
Info: DIELECTRIC             1
Info: EXCLUDE                SCALED ONE-FOUR
Info: 1-4 ELECTROSTATICS SCALED BY 0.833333
Info: MODIFIED 1-4 VDW PARAMETERS WILL BE USED
Info: DCD FILENAME           mobley_4252724_prod.dcd
Info: DCD FREQUENCY          100000
Info: DCD FIRST STEP         100000
Info: DCD FILE WILL CONTAIN UNIT CELL DATA
Info: XST FILENAME           mobley_4252724_prod.xst
Info: XST FREQUENCY          100000
Info: NO VELOCITY DCD OUTPUT
Info: NO FORCE DCD OUTPUT
Info: OUTPUT FILENAME        mobley_4252724_prod
Info: BINARY OUTPUT FILES WILL BE USED
Info: RESTART FILENAME       mobley_4252724_prod.restart
Info: RESTART FREQUENCY      100000
Info: BINARY RESTART FILES WILL BE USED
Info: CUTOFF                 9
Info: PAIRLIST DISTANCE      11
Info: PAIRLIST SHRINK RATE   0.01
Info: PAIRLIST GROW RATE     0.01
Info: PAIRLIST TRIGGER       0.3
Info: PAIRLISTS PER CYCLE    2
Info: PAIRLISTS ENABLED
Info: MARGIN                 2
Info: HYDROGEN GROUP CUTOFF  2.5
Info: PATCH DIMENSION        15.5
Info: ENERGY OUTPUT STEPS    100000
Info: ENERGY EVALUATION STEPS    100000
Info: OUTPUT ENERGY PRECISION 4
Info: CROSSTERM ENERGY INCLUDED IN DIHEDRAL
Info: TIMING OUTPUT STEPS    1000000
Info: PRESSURE OUTPUT STEPS  100000
Info: ALCHEMICAL FEP ON
Info: FEP CURRENT LAMBDA VALUE     1
Info: FEP COMPARISON LAMBDA VALUE  0.95
Info: FEP INTRA-ALCHEMICAL NON-BONDED INTERACTIONS WILL BE RETAINED
Info: FEP INTRA-ALCHEMICAL BONDED INTERACTIONS WILL BE RETAINED
Info: FEP VDW SHIFTING COEFFICIENT 5
Info: FEP ELEC. ACTIVE FOR ANNIHILATED PARTICLES BETWEEN LAMBDA = 0 AND LAMBDA = 0.5
Info: FEP ELEC. ACTIVE FOR EXNIHILATED PARTICLES BETWEEN LAMBDA = 0.5 AND LAMBDA = 1
Info: FEP VDW ACTIVE FOR ANNIHILATED PARTICLES BETWEEN LAMBDA = 0 AND LAMBDA = 1
Info: FEP VDW ACTIVE FOR EXNIHILATED PARTICLES BETWEEN LAMBDA = 0 AND LAMBDA = 1
Info: FEP BOND ACTIVE FOR ANNIHILATED PARTICLES BETWEEN LAMBDA = 1 AND LAMBDA = 1
Info: FEP BOND ACTIVE FOR EXNIHILATED PARTICLES BETWEEN LAMBDA = 0 AND LAMBDA = 0
Info: LANGEVIN DYNAMICS ACTIVE
Info: LANGEVIN TEMPERATURE   300
Info: LANGEVIN USING BBK INTEGRATOR
Info: LANGEVIN DAMPING COEFFICIENT IS 1 INVERSE PS
Info: LANGEVIN DYNAMICS APPLIED TO HYDROGENS
Info: LANGEVIN PISTON PRESSURE CONTROL ACTIVE
Info:        TARGET PRESSURE IS 1.01325 BAR
Info:     OSCILLATION PERIOD IS 50 FS
Info:             DECAY TIME IS 25 FS
Info:     PISTON TEMPERATURE IS 300 K
Info:       PRESSURE CONTROL IS GROUP-BASED
Info:    INITIAL STRAIN RATE IS 0.000315441 0.000315441 0.000315441
Info:       CELL FLUCTUATION IS ISOTROPIC
Info: PARTICLE MESH EWALD (PME) ACTIVE
Info: PME TOLERANCE               1e-06
Info: PME EWALD COEFFICIENT       0.348832
Info: PME INTERPOLATION ORDER     4
Info: PME GRID DIMENSIONS         32 32 36
Info: PME MAXIMUM GRID SPACING    1
Info: PME CALCULATION WILL BE PERFORMED ON GPU
Info: FULL ELECTROSTATIC EVALUATION FREQUENCY      2
Info: USING VERLET I (r-RESPA) MTS SCHEME.
Info: C1 SPLITTING OF LONG RANGE ELECTROSTATICS
Info: PLACING ATOMS IN PATCHES BY HYDROGEN GROUPS
Info: RIGID BONDS TO HYDROGEN : ALL
Info:         ERROR TOLERANCE : 1e-08
Info:          MAX ITERATIONS : 100
Info: RIGID WATER USING SETTLE ALGORITHM
Info: RANDOM NUMBER SEED     1743890868
Info: USE HYDROGEN BONDS?    NO
Info: Using AMBER format force field!
Info: AMBER PARM FILE        mobley_4252724.prmtop
Info: COORDINATE PDB         mobley_4252724.pdb
Info: Exclusions will be read from PARM file!
Info: SCNB (VDW SCALING)     2
Info: USING ARITHMETIC MEAN TO COMBINE L-J SIGMA PARAMETERS
Info: BINARY COORDINATES     mobley_4252724_equil.coor
Info: SUMMARY OF PARAMETERS:
Info: 7 BONDS
Info: 8 ANGLES
Info:   8 HARMONIC
Info:   0 COSINE-BASED
Info: 6 DIHEDRAL
Info: 0 IMPROPER
Info: 0 CROSSTERM
Info: 0 VDW
Info: 21 VDW_PAIRS
Info: 0 NBTHOLE_PAIRS
Info: To read alchdata from file: mobley_4252724.pdb
Info: To read alchflag data from column: 5
Info: STRUCTURE SUMMARY:
Info: 2958 ATOMS
Info: 2958 BONDS
Info: 42 ANGLES
Info: 63 DIHEDRALS
Info: 0 IMPROPERS
Info: 0 CROSSTERMS
Info: 3054 EXCLUSIONS
Info: 2948 RIGID BONDS
Info: ALCH: 0 ATOMS TO DISAPPEAR IN FINAL STATE
Info: ALCH: 24 ATOMS TO APPEAR IN FINAL STATE
Info: 5926 DEGREES OF FREEDOM
Info: 988 HYDROGEN GROUPS
Info: 4 ATOMS IN LARGEST HYDROGEN GROUP
Info: 988 MIGRATION GROUPS
Info: 4 ATOMS IN LARGEST MIGRATION GROUP
Info: TOTAL MASS = 17753.9 amu
Info: TOTAL CHARGE = -1.49012e-08 e
Info: MASS DENSITY = 0.958314 g/cm^3
Info: ATOM DENSITY = 0.0961511 atoms/A^3
Info: ADDED 0 IMPLICIT EXCLUSIONS
Info: NONBONDED TABLE R-SQUARED SPACING: 0.0625
Info: NONBONDED TABLE SIZE: 705 POINTS
Info: REMOVING COM VELOCITY 0.00239927 0.120169 -0.0221591
Info: Use 3D box decompostion in PME FFT.
Info: Updated CUDA force table with 4096 elements.
Info: Updated CUDA LJ table with 6 x 6 elements.
Info: Found 23 unique exclusion lists needing 80 bytes
TCL: Running for 1500000 steps
ETITLE: TS BOND ANGLE DIHED IMPRP ELECT VDW BOUNDARY MISC KINETIC TOTAL TEMP POTENTIAL TOTALAVG TEMPAVG PRESSURE GPRESSURE VOLUME PRESSAVG GPRESSAVG
ENERGY: 0 2.4545 11.3216 3.4208 0.0000 -10684.1846 1429.0930 0.0000 0.0000 1710.0558 -7527.8388 290.4284 -9237.8946 -7527.8388 290.4284 -158.0483 -91.6400 30764.0868 -158.0483 -91.6400
ENERGY: 300000 2.4330 12.3851 5.2740 0.0000 -10537.9519 1344.1944 0.0000 0.0000 1724.8222 -7448.8432 292.9362 -9173.6654 -7466.9725 293.4037 -646.6590 -605.8301 30730.8118 -96.2068 -50.0900
ENERGY: 600000 2.2935 10.0947 1.7614 0.0000 -10617.5548 1326.6288 0.0000 0.0000 1748.9635 -7527.8129 297.0363 -9276.7764 -7480.3496 295.2798 -1062.9965 -944.9922 30590.8569 -214.0955 -148.0273
ENERGY: 900000 4.0507 7.6443 5.3810 0.0000 -10644.1072 1419.5626 0.0000 0.0000 1748.7542 -7458.7144 297.0007 -9207.4686 -7480.5997 296.3972 -171.3344 -147.4864 30790.8722 -73.7637 -14.1066
ENERGY: 1200000 1.9049 6.6141 2.7939 0.0000 -10680.3386 1481.3485 0.0000 0.0000 1768.9006 -7418.7766 300.4223 -9187.6772 -7482.5692 297.1503 374.3079 503.0423 30519.9167 -69.9147 -9.3393
ENERGY: 1500000 4.0927 12.2018 2.5701 0.0000 -10747.0173 1502.9249 0.0000 0.0000 1766.3508 -7458.8770 299.9893 -9225.2278 -7476.8321 298.6119 561.5404 600.0606 30685.7738 -94.0566 -34.8010
TCL: Running FEP window   2: Lambda1 0.95   Lambda2 0.8999999999999999 [dLambda -0.050000000000000044]
TCL: Setting parameter firsttimestep to 0
TCL: Setting parameter alchLambda to 0.95
Info: NONBONDED TABLE R-SQUARED SPACING: 0.0625
Info: NONBONDED TABLE SIZE: 705 POINTS
TCL: Setting parameter alchLambda2 to 0.8999999999999999
Info: NONBONDED TABLE R-SQUARED SPACING: 0.0625
Info: NONBONDED TABLE SIZE: 705 POINTS
TCL: Running for 1500000 steps
ETITLE: TS BOND ANGLE DIHED IMPRP ELECT VDW BOUNDARY MISC KINETIC TOTAL TEMP POTENTIAL TOTALAVG TEMPAVG PRESSURE GPRESSURE VOLUME PRESSAVG GPRESSAVG
ENERGY: 0 4.0928 12.2018 2.5701 0.0000 -10746.3984 1503.2645 0.0000 0.0000 1765.4713 -7458.7980 299.8399 -9224.2693 -7458.7980 299.8399 494.6253 589.2327 30685.7738 494.6253 589.2327
ENERGY: 300000 2.8883 9.5483 4.2037 0.0000 -10645.6144 1428.1902 0.0000 0.0000 1752.8696 -7447.9143 297.6997 -9200.7840 -7452.2448 298.2982 62.2536 106.6059 30470.6822 263.7481 301.5166
ENERGY: 600000 2.6450 15.4174 2.7081 0.0000 -10558.3865 1379.0883 0.0000 0.0000 1787.6146 -7370.9131 303.6006 -9158.5277 -7449.5990 299.3104 -212.5343 -155.6178 30516.2576 170.8334 210.2539
ENERGY: 900000 7.0072 9.0664 1.5828 0.0000 -10795.0014 1467.8038 0.0000 0.0000 1804.7221 -7504.8191 306.5061 -9309.5412 -7468.3059 300.5700 216.7824 309.4013 30062.5001 95.9968 143.3426
ENERGY: 1200000 6.0170 8.5045 2.6402 0.0000 -10679.8115 1334.7747 0.0000 0.0000 1774.0178 -7553.8572 301.2914 -9327.8750 -7479.9642 300.0155 -947.6021 -890.8380 30263.6449 35.2215 74.1436
ENERGY: 1500000 3.2394 11.9793 2.9252 0.0000 -10743.5944 1458.5873 0.0000 0.0000 1820.3684 -7446.4947 309.1634 -9266.8631 -7476.4197 299.4092 494.1702 571.8565 29836.4556 59.2233 102.9467
TCL: Running FEP window   3: Lambda1 0.8999999999999999 Lambda2 0.8499999999999999 [dLambda -0.050000000000000044]
TCL: Setting parameter firsttimestep to 0
TCL: Setting parameter alchLambda to 0.8999999999999999
Info: NONBONDED TABLE R-SQUARED SPACING: 0.0625
Info: NONBONDED TABLE SIZE: 705 POINTS
TCL: Setting parameter alchLambda2 to 0.8499999999999999
Info: NONBONDED TABLE R-SQUARED SPACING: 0.0625
Info: NONBONDED TABLE SIZE: 705 POINTS
TCL: Running for 1500000 steps
ETITLE: TS BOND ANGLE DIHED IMPRP ELECT VDW BOUNDARY MISC KINETIC TOTAL TEMP POTENTIAL TOTALAVG TEMPAVG PRESSURE GPRESSURE VOLUME PRESSAVG GPRESSAVG
ENERGY: 0 3.2394 11.9793 2.9252 0.0000 -10742.7760 1458.5335 0.0000 0.0000 1819.4745 -7446.6240 309.0116 -9266.0986 -7446.6240 309.0116 475.1355 556.6449 29836.4556 475.1355 556.6449
ENERGY: 300000 2.7226 6.3598 2.1660 0.0000 -10823.3795 1557.8945 0.0000 0.0000 1721.1223 -7533.1144 292.3078 -9254.2367 -7502.5257 295.4893 1093.3575 1135.5918 29979.2986 241.0662 284.0012
ENERGY: 600000 4.4290 6.6245 5.3852 0.0000 -10630.6188 1354.2510 0.0000 0.0000 1773.8903 -7486.0388 301.2697 -9259.9291 -7499.8130 294.9077 -540.8310 -451.0100 29888.1156 96.4734 154.0582
ENERGY: 900000 2.1159 8.7906 0.5219 0.0000 -10592.2471 1390.3666 0.0000 0.0000 1796.5435 -7393.9085 305.1171 -9190.4520 -7489.3104 295.3017 -208.7487 -161.5191 30772.4991 7.6927 66.1929
ENERGY: 1200000 3.7895 7.4039 2.8139 0.0000 -10715.5628 1456.3649 0.0000 0.0000 1755.1194 -7490.0712 298.0818 -9245.1906 -7487.3527 296.6159 341.0632 357.9177 29930.1141 96.2239 149.4459
ENERGY: 1500000 3.5534 10.0493 3.7026 0.0000 -10640.1175 1446.7396 0.0000 0.0000 1726.1553 -7449.9174 293.1626 -9176.0727 -7486.2944 295.4449 78.8287 157.7146 30489.0321 172.5088 230.1394
TCL: Running FEP window   4: Lambda1 0.8499999999999999 Lambda2 0.7999999999999998 [dLambda -0.050000000000000044]
TCL: Setting parameter firsttimestep to 0
TCL: Setting parameter alchLambda to 0.8499999999999999
Info: NONBONDED TABLE R-SQUARED SPACING: 0.0625
Info: NONBONDED TABLE SIZE: 705 POINTS
TCL: Setting parameter alchLambda2 to 0.7999999999999998
Info: NONBONDED TABLE R-SQUARED SPACING: 0.0625
Info: NONBONDED TABLE SIZE: 705 POINTS
TCL: Running for 1500000 steps
ETITLE: TS BOND ANGLE DIHED IMPRP ELECT VDW BOUNDARY MISC KINETIC TOTAL TEMP POTENTIAL TOTALAVG TEMPAVG PRESSURE GPRESSURE VOLUME PRESSAVG GPRESSAVG
ENERGY: 0 3.5534 10.0493 3.7026 0.0000 -10639.3394 1446.8449 0.0000 0.0000 1725.2429 -7449.9463 293.0077 -9175.1892 -7449.9463 293.0077 45.6914 148.7793 30489.0321 45.6914 148.7793
ENERGY: 300000 2.8941 10.2072 2.3265 0.0000 -10595.6087 1382.6952 0.0000 0.0000 1750.1526 -7447.3331 297.2382 -9197.4857 -7452.2387 295.5441 -303.1363 -275.8177 30540.8631 -124.8923 -90.4311
ENERGY: 600000 3.6029 6.6533 4.4789 0.0000 -10675.1323 1438.4163 0.0000 0.0000 1791.2820 -7430.6991 304.2235 -9221.9811 -7450.3134 298.3920 139.7876 143.4769 30590.5115 -155.3285 -111.4042
ENERGY: 900000 3.3291 6.2293 5.0528 0.0000 -10671.9811 1398.2400 0.0000 0.0000 1779.9985 -7479.1315 302.3071 -9259.1300 -7458.8910 298.1677 -239.4234 -191.3860 30299.1896 -110.4401 -70.7008
ENERGY: 1200000 3.4931 9.4956 3.4599 0.0000 -10657.6327 1446.6541 0.0000 0.0000 1716.5300 -7477.9999 291.5279 -9194.5299 -7466.2269 297.9049 250.6440 304.2231 30347.9038 -30.1375 16.5156
ENERGY: 1500000 5.7048 7.8936 4.7186 0.0000 -10510.1523 1362.0199 0.0000 0.0000 1734.0588 -7395.7566 294.5049 -9129.8154 -7465.1500 297.3873 -556.1028 -514.3817 30977.6893 42.7987 90.6357
TCL: Running FEP window   5: Lambda1 0.7999999999999998 Lambda2 0.7499999999999998 [dLambda -0.050000000000000044]
TCL: Setting parameter firsttimestep to 0
TCL: Setting parameter alchLambda to 0.7999999999999998
Info: NONBONDED TABLE R-SQUARED SPACING: 0.0625
Info: NONBONDED TABLE SIZE: 705 POINTS
TCL: Setting parameter alchLambda2 to 0.7499999999999998
Info: NONBONDED TABLE R-SQUARED SPACING: 0.0625
Info: NONBONDED TABLE SIZE: 705 POINTS
TCL: Running for 1500000 steps
ETITLE: TS BOND ANGLE DIHED IMPRP ELECT VDW BOUNDARY MISC KINETIC TOTAL TEMP POTENTIAL TOTALAVG TEMPAVG PRESSURE GPRESSURE VOLUME PRESSAVG GPRESSAVG
ENERGY: 0 5.7048 7.8936 4.7186 0.0000 -10509.6289 1362.2186 0.0000 0.0000 1733.1678 -7395.9254 294.3536 -9129.0932 -7395.9254 294.3536 -608.9957 -525.1984 30977.6893 -608.9957 -525.1984
ENERGY: 300000 2.5321 9.3109 6.6935 0.0000 -10681.0805 1453.4387 0.0000 0.0000 1736.8961 -7472.2092 294.9868 -9209.1053 -7439.8103 299.1828 314.5812 360.6950 30240.7656 41.7860 107.0508
ENERGY: 600000 5.9750 9.4105 2.6955 0.0000 -10642.1149 1327.8108 0.0000 0.0000 1787.8834 -7508.3398 303.6463 -9296.2232 -7472.1761 299.1301 -1115.1866 -1019.5416 30633.0176 -127.6625 -75.5925
ENERGY: 900000 4.5538 6.8843 6.1644 0.0000 -10735.5664 1484.7838 0.0000 0.0000 1787.6275 -7445.5527 303.6028 -9233.1802 -7470.2904 299.2154 376.3817 505.2562 30211.3850 -9.9180 53.9148
ENERGY: 1200000 1.6994 10.9483 2.8651 0.0000 -10793.1053 1473.5284 0.0000 0.0000 1824.4121 -7479.6519 309.8501 -9304.0640 -7452.6665 300.5485 181.4189 199.9862 30506.8588 14.8840 76.3654
ENERGY: 1500000 2.3184 5.1553 3.1485 0.0000 -10601.1917 1436.8637 0.0000 0.0000 1808.6752 -7345.0306 307.1774 -9153.7058 -7439.9366 301.0144 275.0069 308.5762 30487.3998 83.5698 145.7721
TCL: Running FEP window   6: Lambda1 0.7499999999999998 Lambda2 0.6999999999999997 [dLambda -0.050000000000000044]
TCL: Setting parameter firsttimestep to 0
TCL: Setting parameter alchLambda to 0.7499999999999998
Info: NONBONDED TABLE R-SQUARED SPACING: 0.0625
Info: NONBONDED TABLE SIZE: 705 POINTS
TCL: Setting parameter alchLambda2 to 0.6999999999999997
Info: NONBONDED TABLE R-SQUARED SPACING: 0.0625
Info: NONBONDED TABLE SIZE: 705 POINTS
TCL: Running for 1500000 steps
ETITLE: TS BOND ANGLE DIHED IMPRP ELECT VDW BOUNDARY MISC KINETIC TOTAL TEMP POTENTIAL TOTALAVG TEMPAVG PRESSURE GPRESSURE VOLUME PRESSAVG GPRESSAVG
ENERGY: 0 2.3184 5.1553 3.1485 0.0000 -10601.0863 1437.0730 0.0000 0.0000 1807.7577 -7345.6335 307.0216 -9153.3912 -7345.6335 307.0216 215.2630 301.5862 30487.3998 215.2630 301.5862
ENERGY: 300000 3.4612 11.0668 3.1189 0.0000 -10828.4681 1539.6172 0.0000 0.0000 1796.7105 -7474.4934 305.1454 -9271.2039 -7398.4962 304.6605 734.0504 793.8474 30292.3411 281.8192 339.6228
ENERGY: 600000 2.4268 6.4288 3.4528 0.0000 -10695.5870 1439.1806 0.0000 0.0000 1758.7668 -7485.3311 298.7012 -9244.0980 -7436.8050 302.5234 51.5777 134.9656 30251.2294 174.3433 231.0410
ENERGY: 900000 2.2413 15.6866 5.2705 0.0000 -10662.5119 1401.3254 0.0000 0.0000 1686.0427 -7551.9454 286.3501 -9237.9880 -7468.5127 299.4206 -324.2949 -308.2493 30464.5878 68.3265 129.0990
ENERGY: 1200000 1.6214 5.8419 4.0117 0.0000 -10566.8211 1365.2976 0.0000 0.0000 1766.0559 -7423.9927 299.9392 -9190.0485 -7467.2592 298.9900 -546.9928 -479.2877 30640.5972 41.6784 101.4947
ENERGY: 1500000 2.0903 9.4847 2.3148 0.0000 -10742.4542 1495.0045 0.0000 0.0000 1773.9813 -7459.5786 301.2852 -9233.5598 -7459.5959 299.9157 485.3533 567.2884 30175.3194 87.8012 150.0750
TCL: Running FEP window   7: Lambda1 0.6999999999999997 Lambda2 0.6499999999999997 [dLambda -0.050000000000000044]
TCL: Setting parameter firsttimestep to 0
TCL: Setting parameter alchLambda to 0.6999999999999997
Info: NONBONDED TABLE R-SQUARED SPACING: 0.0625
Info: NONBONDED TABLE SIZE: 705 POINTS
TCL: Setting parameter alchLambda2 to 0.6499999999999997
Info: NONBONDED TABLE R-SQUARED SPACING: 0.0625
Info: NONBONDED TABLE SIZE: 705 POINTS
TCL: Running for 1500000 steps
ETITLE: TS BOND ANGLE DIHED IMPRP ELECT VDW BOUNDARY MISC KINETIC TOTAL TEMP POTENTIAL TOTALAVG TEMPAVG PRESSURE GPRESSURE VOLUME PRESSAVG GPRESSAVG
ENERGY: 0 2.0903 9.4847 2.3148 0.0000 -10742.1556 1495.1643 0.0000 0.0000 1773.1469 -7459.9545 301.1435 -9233.1014 -7459.9545 301.1435 475.2340 557.4189 30175.3194 475.2340 557.4189
ENERGY: 300000 0.8304 11.0366 3.0235 0.0000 -10663.0632 1438.0644 0.0000 0.0000 1787.2541 -7422.8542 303.5394 -9210.1083 -7446.9864 300.9026 103.1248 208.3598 30332.3200 273.1637 347.3114
ENERGY: 600000 4.2376 10.5716 4.2975 0.0000 -10690.5321 1368.4213 0.0000 0.0000 1749.2659 -7553.7383 297.0876 -9303.0041 -7473.3674 299.4312 -467.3972 -382.0738 30208.1310 104.1481 184.8421
ENERGY: 900000 3.4402 7.0345 2.4846 0.0000 -10761.8038 1511.7148 0.0000 0.0000 1774.8043 -7462.3255 301.4250 -9237.1297 -7457.5449 300.0579 469.6383 561.3236 30488.4209 50.9560 131.7007
ENERGY: 1200000 1.8244 10.1362 4.1912 0.0000 -10606.4974 1394.3770 0.0000 0.0000 1750.9461 -7445.0226 297.3730 -9195.9686 -7452.4260 300.5974 -421.8980 -281.6798 30578.5323 19.0337 95.1147
ENERGY: 1500000 2.4834 9.8429 3.6732 0.0000 -10654.9922 1449.9240 0.0000 0.0000 1747.2215 -7441.8472 296.7404 -9189.0687 -7445.8716 300.8974 110.5268 124.8270 30676.2141 33.7850 106.9538
TCL: Running FEP window   8: Lambda1 0.6499999999999997 Lambda2 0.5999999999999996 [dLambda -0.050000000000000044]
TCL: Setting parameter firsttimestep to 0
TCL: Setting parameter alchLambda to 0.6499999999999997
Info: NONBONDED TABLE R-SQUARED SPACING: 0.0625
Info: NONBONDED TABLE SIZE: 705 POINTS
TCL: Setting parameter alchLambda2 to 0.5999999999999996
Info: NONBONDED TABLE R-SQUARED SPACING: 0.0625
Info: NONBONDED TABLE SIZE: 705 POINTS
TCL: Running for 1500000 steps
ETITLE: TS BOND ANGLE DIHED IMPRP ELECT VDW BOUNDARY MISC KINETIC TOTAL TEMP POTENTIAL TOTALAVG TEMPAVG PRESSURE GPRESSURE VOLUME PRESSAVG GPRESSAVG
ENERGY: 0 2.4834 9.8429 3.6732 0.0000 -10654.9307 1450.1821 0.0000 0.0000 1746.3482 -7442.4009 296.5921 -9188.7491 -7442.4009 296.5921 17.6974 115.3528 30676.2141 17.6974 115.3528
ENERGY: 300000 3.6761 8.0530 1.9513 0.0000 -10774.3611 1544.8481 0.0000 0.0000 1728.5413 -7487.2914 293.5678 -9215.8327 -7490.9571 294.2155 808.1583 914.9535 30185.4767 247.6487 329.1721
ENERGY: 600000 1.8909 7.7437 6.2008 0.0000 -10723.7325 1469.7566 0.0000 0.0000 1797.9871 -7440.1534 305.3622 -9238.1405 -7483.8061 297.1134 108.6844 156.1032 30874.6022 73.8548 156.9639
ENERGY: 900000 3.7434 5.6023 1.4810 0.0000 -10848.8914 1540.5733 0.0000 0.0000 1787.4839 -7510.0075 303.5784 -9297.4914 -7496.2821 298.8837 808.1943 866.9734 30006.4706 17.8829 91.4584
ENERGY: 1200000 1.6588 6.1464 2.4152 0.0000 -10626.0557 1401.3365 0.0000 0.0000 1719.4764 -7495.0223 292.0283 -9214.4988 -7489.2587 297.8822 -186.7514 -79.4331 30379.5259 -80.9035 -11.8609
ENERGY: 1500000 1.2799 6.2093 3.4329 0.0000 -10579.4025 1310.2111 0.0000 0.0000 1723.8459 -7534.4233 292.7704 -9258.2692 -7491.7405 297.4150 -1055.5947 -974.1673 30322.2020 -201.2066 -132.9839
TCL: Running FEP window   9: Lambda1 0.5999999999999996 Lambda2 0.5499999999999996 [dLambda -0.050000000000000044]
TCL: Setting parameter firsttimestep to 0
TCL: Setting parameter alchLambda to 0.5999999999999996
Info: NONBONDED TABLE R-SQUARED SPACING: 0.0625
Info: NONBONDED TABLE SIZE: 705 POINTS
TCL: Setting parameter alchLambda2 to 0.5499999999999996
Info: NONBONDED TABLE R-SQUARED SPACING: 0.0625
Info: NONBONDED TABLE SIZE: 705 POINTS
TCL: Running for 1500000 steps
ETITLE: TS BOND ANGLE DIHED IMPRP ELECT VDW BOUNDARY MISC KINETIC TOTAL TEMP POTENTIAL TOTALAVG TEMPAVG PRESSURE GPRESSURE VOLUME PRESSAVG GPRESSAVG
ENERGY: 0 1.2799 6.2093 3.4329 0.0000 -10579.1307 1310.2460 0.0000 0.0000 1722.9443 -7535.0183 292.6173 -9257.9626 -7535.0183 292.6173 -1063.5298 -984.9275 30322.2020 -1063.5298 -984.9275
ENERGY: 300000 3.5705 8.5997 5.2762 0.0000 -10723.5959 1450.9222 0.0000 0.0000 1735.4157 -7519.8116 294.7354 -9255.2273 -7504.9651 297.1845 -144.7764 -25.3039 30385.6252 -491.8445 -416.5642
ENERGY: 600000 2.0497 10.0176 3.9007 0.0000 -10466.4994 1302.0478 0.0000 0.0000 1742.9794 -7405.5041 296.0200 -9148.4836 -7469.7396 297.1557 -803.3898 -746.6070 30518.4069 -330.2613 -261.4780
ENERGY: 900000 2.6459 7.9638 3.9255 0.0000 -10600.4368 1392.7522 0.0000 0.0000 1765.2870 -7427.8624 299.8086 -9193.1494 -7466.4227 298.4999 -169.6152 -125.0733 30333.6404 -367.6096 -309.7047
ENERGY: 1200000 1.3210 10.5201 6.9288 0.0000 -10706.4841 1450.7183 0.0000 0.0000 1747.8416 -7489.1543 296.8457 -9236.9959 -7472.1117 299.1021 143.0107 206.6134 30176.4306 -296.9743 -236.7243
ENERGY: 1500000 1.3904 8.4509 4.1511 0.0000 -10585.9196 1353.2756 0.0000 0.0000 1776.3825 -7442.2692 301.6930 -9218.6517 -7472.6113 298.4846 -552.1850 -508.0537 30361.8749 -277.7133 -221.1879
TCL: Running FEP window  10: Lambda1 0.5499999999999996 Lambda2 0.4999999999999996 [dLambda -0.04999999999999999]
TCL: Setting parameter firsttimestep to 0
TCL: Setting parameter alchLambda to 0.5499999999999996
Info: NONBONDED TABLE R-SQUARED SPACING: 0.0625
Info: NONBONDED TABLE SIZE: 705 POINTS
TCL: Setting parameter alchLambda2 to 0.4999999999999996
Info: NONBONDED TABLE R-SQUARED SPACING: 0.0625
Info: NONBONDED TABLE SIZE: 705 POINTS
TCL: Running for 1500000 steps
ETITLE: TS BOND ANGLE DIHED IMPRP ELECT VDW BOUNDARY MISC KINETIC TOTAL TEMP POTENTIAL TOTALAVG TEMPAVG PRESSURE GPRESSURE VOLUME PRESSAVG GPRESSAVG
ENERGY: 0 1.3904 8.4509 4.1511 0.0000 -10585.1590 1353.2190 0.0000 0.0000 1775.4913 -7442.4564 301.5416 -9217.9477 -7442.4564 301.5416 -602.7552 -515.4560 30361.8749 -602.7552 -515.4560
ENERGY: 300000 4.0489 10.0604 2.9834 0.0000 -10625.7418 1384.7651 0.0000 0.0000 1705.6855 -7518.1985 289.6861 -9223.8840 -7479.6701 298.5207 -537.2034 -438.6599 30193.0080 -452.4731 -385.5562
ENERGY: 600000 3.7223 9.8727 6.2693 0.0000 -10657.0264 1473.2950 0.0000 0.0000 1745.0429 -7418.8243 296.3704 -9163.8672 -7469.4319 297.6908 541.2242 682.3835 29850.5097 -242.5599 -166.6144
ENERGY: 900000 6.4923 9.5563 3.9152 0.0000 -10663.5654 1419.8350 0.0000 0.0000 1774.9673 -7448.7992 301.4526 -9223.7665 -7460.3050 297.8088 81.4810 72.3475 30118.5681 -232.5783 -172.4180
ENERGY: 1200000 2.4463 11.7188 3.5715 0.0000 -10707.3058 1441.5270 0.0000 0.0000 1716.5150 -7531.5273 291.5254 -9248.0423 -7461.3252 298.3870 -264.2623 -112.7543 30668.2726 -197.2855 -128.3645
ENERGY: 1500000 2.8419 12.3519 5.0792 0.0000 -10572.5628 1359.5127 0.0000 0.0000 1750.9183 -7441.8588 297.3683 -9192.7770 -7458.0867 298.7270 -549.9544 -548.8479 30459.3480 -180.6383 -118.7217
TCL: Running FEP window  11: Lambda1 0.4999999999999996 Lambda2 0.4499999999999996 [dLambda -0.04999999999999999]
TCL: Setting parameter firsttimestep to 0
TCL: Setting parameter alchLambda to 0.4999999999999996
Info: NONBONDED TABLE R-SQUARED SPACING: 0.0625
Info: NONBONDED TABLE SIZE: 705 POINTS
TCL: Setting parameter alchLambda2 to 0.4499999999999996
Info: NONBONDED TABLE R-SQUARED SPACING: 0.0625
Info: NONBONDED TABLE SIZE: 705 POINTS
TCL: Running for 1500000 steps
ETITLE: TS BOND ANGLE DIHED IMPRP ELECT VDW BOUNDARY MISC KINETIC TOTAL TEMP POTENTIAL TOTALAVG TEMPAVG PRESSURE GPRESSURE VOLUME PRESSAVG GPRESSAVG
ENERGY: 0 2.8419 12.3519 5.0792 0.0000 -10572.3136 1360.0137 0.0000 0.0000 1750.0081 -7442.0187 297.2137 -9192.0268 -7442.0187 297.2137 -621.0480 -552.4988 30459.3480 -621.0480 -552.4988
ENERGY: 300000 0.8904 7.3544 2.0662 0.0000 -10706.1761 1495.2676 0.0000 0.0000 1815.9283 -7384.6692 308.4093 -9200.5975 -7437.5303 300.0002 388.6549 483.7020 30640.7854 -93.4405 -12.3020
ENERGY: 600000 3.8331 9.7395 2.0992 0.0000 -10579.4619 1405.8526 0.0000 0.0000 1783.9804 -7373.9571 302.9834 -9157.9375 -7433.5123 302.1432 -98.6631 -38.1326 30494.2122 -61.9384 13.7756
ENERGY: 900000 2.4186 9.7833 4.4938 0.0000 -10850.2969 1577.0677 0.0000 0.0000 1782.1782 -7474.3554 302.6773 -9256.5336 -7454.9666 301.7237 1292.3345 1340.5194 29761.1510 110.3936 177.7195
ENERGY: 1200000 2.5270 5.6954 4.8715 0.0000 -10804.9250 1558.9383 0.0000 0.0000 1792.1233 -7440.7695 304.3663 -9232.8928 -7456.9312 300.4306 678.2895 793.5923 30596.9947 76.3803 146.5659
ENERGY: 1500000 10.9199 12.7281 4.4448 0.0000 -10813.7326 1529.6375 0.0000 0.0000 1782.0853 -7473.9170 302.6615 -9256.0023 -7447.9178 301.2446 648.4025 691.3254 29976.4058 85.4766 154.6663
TCL: Running FEP window  12: Lambda1 0.4499999999999996 Lambda2 0.39999999999999963 [dLambda -0.04999999999999999]
TCL: Setting parameter firsttimestep to 0
TCL: Setting parameter alchLambda to 0.4499999999999996
Info: NONBONDED TABLE R-SQUARED SPACING: 0.0625
Info: NONBONDED TABLE SIZE: 705 POINTS
TCL: Setting parameter alchLambda2 to 0.39999999999999963
Info: NONBONDED TABLE R-SQUARED SPACING: 0.0625
Info: NONBONDED TABLE SIZE: 705 POINTS
TCL: Running for 1500000 steps
ETITLE: TS BOND ANGLE DIHED IMPRP ELECT VDW BOUNDARY MISC KINETIC TOTAL TEMP POTENTIAL TOTALAVG TEMPAVG PRESSURE GPRESSURE VOLUME PRESSAVG GPRESSAVG
ENERGY: 0 10.9199 12.7281 4.4448 0.0000 -10813.7311 1529.9014 0.0000 0.0000 1781.1974 -7474.5395 302.5107 -9255.7369 -7474.5395 302.5107 584.5369 685.2355 29976.4058 584.5369 685.2355
ENERGY: 300000 1.7667 13.5212 6.9964 0.0000 -10692.0682 1462.3121 0.0000 0.0000 1692.1644 -7515.3074 287.3898 -9207.4718 -7471.8423 297.5875 42.3970 133.5288 30284.8144 -217.8193 -140.0966
ENERGY: 600000 1.9433 5.8022 3.7628 0.0000 -10448.8162 1274.6253 0.0000 0.0000 1797.1226 -7365.5600 305.2154 -9162.6826 -7449.0115 300.5763 -1219.1951 -1200.1753 30866.1105 -216.0840 -153.2893
ENERGY: 900000 3.4093 15.0143 6.0250 0.0000 -10668.7289 1431.4268 0.0000 0.0000 1773.2742 -7439.5794 301.1651 -9212.8535 -7459.7915 300.8390 -105.0562 -2.5484 30525.8156 -245.0716 -175.2428
ENERGY: 1200000 3.6777 8.5545 5.2466 0.0000 -10670.1895 1394.7582 0.0000 0.0000 1740.0978 -7517.8546 295.5306 -9257.9524 -7463.7449 301.0413 -877.0685 -786.2741 30764.8722 -253.5762 -182.9358
ENERGY: 1500000 2.3773 8.0639 5.9561 0.0000 -10590.6383 1313.4064 0.0000 0.0000 1757.7705 -7503.0641 298.5320 -9260.8346 -7463.9500 301.0721 -1007.9602 -892.1845 30352.6149 -270.6612 -203.2357
TCL: Running FEP window  13: Lambda1 0.39999999999999963 Lambda2 0.34999999999999964 [dLambda -0.04999999999999999]
TCL: Setting parameter firsttimestep to 0
TCL: Setting parameter alchLambda to 0.39999999999999963
Info: NONBONDED TABLE R-SQUARED SPACING: 0.0625
Info: NONBONDED TABLE SIZE: 705 POINTS
TCL: Setting parameter alchLambda2 to 0.34999999999999964
Info: NONBONDED TABLE R-SQUARED SPACING: 0.0625
Info: NONBONDED TABLE SIZE: 705 POINTS
TCL: Running for 1500000 steps
ETITLE: TS BOND ANGLE DIHED IMPRP ELECT VDW BOUNDARY MISC KINETIC TOTAL TEMP POTENTIAL TOTALAVG TEMPAVG PRESSURE GPRESSURE VOLUME PRESSAVG GPRESSAVG
ENERGY: 0 2.3773 8.0639 5.9561 0.0000 -10590.6380 1313.5046 0.0000 0.0000 1756.8759 -7503.8602 298.3801 -9260.7361 -7503.8602 298.3801 -984.2071 -898.7063 30352.6149 -984.2071 -898.7063
ENERGY: 300000 6.5362 10.7268 2.9611 0.0000 -10657.2832 1458.4781 0.0000 0.0000 1788.7874 -7389.7936 303.7998 -9178.5810 -7458.6662 302.1788 501.9926 565.5424 29731.5179 56.6074 133.6205
ENERGY: 600000 4.5003 9.0301 4.0702 0.0000 -10668.8173 1422.5049 0.0000 0.0000 1743.9992 -7484.7125 296.1932 -9228.7118 -7478.1250 300.1024 -12.5351 27.3298 30083.3868 61.5827 123.1100
ENERGY: 900000 1.2639 9.5366 3.8235 0.0000 -10631.3459 1414.3221 0.0000 0.0000 1761.3375 -7441.0623 299.1378 -9202.3998 -7475.2184 299.1359 -233.6909 -116.4945 30363.9430 -35.1691 37.2527
ENERGY: 1200000 6.4051 4.4643 3.1001 0.0000 -10606.4772 1377.9982 0.0000 0.0000 1821.2607 -7393.2488 309.3149 -9214.5095 -7465.3732 299.3321 -512.8854 -476.3708 30627.3902 -8.0046 57.7582
ENERGY: 1500000 4.6566 7.1652 4.4778 0.0000 -10566.1908 1386.5570 0.0000 0.0000 1782.4579 -7380.8764 302.7248 -9163.3343 -7468.8214 299.6255 -164.3067 -52.7181 30062.9922 -9.3188 58.9310
TCL: Running FEP window  14: Lambda1 0.34999999999999964 Lambda2 0.29999999999999966 [dLambda -0.04999999999999999]
TCL: Setting parameter firsttimestep to 0
TCL: Setting parameter alchLambda to 0.34999999999999964
Info: NONBONDED TABLE R-SQUARED SPACING: 0.0625
Info: NONBONDED TABLE SIZE: 705 POINTS
TCL: Setting parameter alchLambda2 to 0.29999999999999966
Info: NONBONDED TABLE R-SQUARED SPACING: 0.0625
Info: NONBONDED TABLE SIZE: 705 POINTS
TCL: Running for 1500000 steps
ETITLE: TS BOND ANGLE DIHED IMPRP ELECT VDW BOUNDARY MISC KINETIC TOTAL TEMP POTENTIAL TOTALAVG TEMPAVG PRESSURE GPRESSURE VOLUME PRESSAVG GPRESSAVG
ENERGY: 0 4.6566 7.1651 4.4778 0.0000 -10566.1912 1386.9694 0.0000 0.0000 1781.5846 -7381.3378 302.5765 -9162.9223 -7381.3378 302.5765 -159.4834 -57.1277 30062.9922 -159.4834 -57.1277
ENERGY: 300000 3.4626 9.6562 3.9984 0.0000 -10598.2800 1401.9483 0.0000 0.0000 1820.0522 -7359.1622 309.1097 -9179.2144 -7399.4477 302.8556 -218.8573 -94.1249 30424.9220 141.2977 216.9830
ENERGY: 600000 2.9698 9.1454 2.4319 0.0000 -10742.6236 1533.6243 0.0000 0.0000 1781.1977 -7413.2546 302.5108 -9194.4523 -7427.4494 302.9124 805.2095 769.5491 30322.4175 283.5531 330.4438
ENERGY: 900000 1.7583 7.5094 3.1210 0.0000 -10648.0201 1467.2642 0.0000 0.0000 1754.7964 -7413.5708 298.0269 -9168.3672 -7427.6455 302.5107 643.5486 664.0893 29724.0903 208.9441 249.1456
ENERGY: 1200000 6.6601 8.2351 5.1007 0.0000 -10761.7676 1504.5045 0.0000 0.0000 1753.9437 -7483.3236 297.8821 -9237.2673 -7442.5573 301.4804 423.3752 507.7395 30583.1864 129.7768 174.2236
ENERGY: 1500000 4.6795 10.6455 5.9869 0.0000 -10609.1208 1358.7716 0.0000 0.0000 1721.7741 -7507.2633 292.4185 -9229.0373 -7451.8678 300.9560 -825.9161 -814.8288 30640.9464 56.4417 97.1020
TCL: Running FEP window  15: Lambda1 0.29999999999999966 Lambda2 0.24999999999999967 [dLambda -0.04999999999999999]
TCL: Setting parameter firsttimestep to 0
TCL: Setting parameter alchLambda to 0.29999999999999966
Info: NONBONDED TABLE R-SQUARED SPACING: 0.0625
Info: NONBONDED TABLE SIZE: 705 POINTS
TCL: Setting parameter alchLambda2 to 0.24999999999999967
Info: NONBONDED TABLE R-SQUARED SPACING: 0.0625
Info: NONBONDED TABLE SIZE: 705 POINTS
TCL: Running for 1500000 steps
ETITLE: TS BOND ANGLE DIHED IMPRP ELECT VDW BOUNDARY MISC KINETIC TOTAL TEMP POTENTIAL TOTALAVG TEMPAVG PRESSURE GPRESSURE VOLUME PRESSAVG GPRESSAVG
ENERGY: 0 4.6795 10.6455 5.9869 0.0000 -10609.1196 1358.8389 0.0000 0.0000 1720.8679 -7508.1008 292.2646 -9228.9687 -7508.1008 292.2646 -908.0273 -822.3516 30640.9464 -908.0273 -822.3516
ENERGY: 300000 3.7772 6.7784 6.6284 0.0000 -10651.6149 1431.2299 0.0000 0.0000 1725.3138 -7477.8873 293.0197 -9203.2012 -7459.5749 297.2031 -227.1031 -160.4386 30957.3413 -318.4335 -218.0841
ENERGY: 600000 2.8243 4.6295 3.5177 0.0000 -10669.1313 1412.1131 0.0000 0.0000 1783.6323 -7462.4143 302.9243 -9246.0466 -7442.4029 299.8932 -314.3187 -232.9258 30504.3740 -231.3101 -135.7108
ENERGY: 900000 8.0952 8.6544 4.3873 0.0000 -10661.9930 1442.6624 0.0000 0.0000 1721.7441 -7476.4496 292.4135 -9198.1937 -7426.6207 300.4189 -233.8881 -125.5683 30426.9312 -297.9899 -208.7133
ENERGY: 1200000 4.6980 11.7780 5.9913 0.0000 -10522.1837 1378.8832 0.0000 0.0000 1766.4408 -7354.3925 300.0045 -9120.8332 -7411.2509 301.5071 -522.9964 -426.0302 30344.2821 -301.3731 -224.1170
ENERGY: 1500000 3.0756 11.3679 2.4060 0.0000 -10681.2281 1477.6410 0.0000 0.0000 1732.1278 -7454.6099 294.1770 -9186.7376 -7419.4257 300.7631 328.6911 389.3562 30560.0929 -231.6754 -158.3198
TCL: Running FEP window  16: Lambda1 0.24999999999999967 Lambda2 0.19999999999999968 [dLambda -0.04999999999999999]
TCL: Setting parameter firsttimestep to 0
TCL: Setting parameter alchLambda to 0.24999999999999967
Info: NONBONDED TABLE R-SQUARED SPACING: 0.0625
Info: NONBONDED TABLE SIZE: 705 POINTS
TCL: Setting parameter alchLambda2 to 0.19999999999999968
Info: NONBONDED TABLE R-SQUARED SPACING: 0.0625
Info: NONBONDED TABLE SIZE: 705 POINTS
TCL: Running for 1500000 steps
ETITLE: TS BOND ANGLE DIHED IMPRP ELECT VDW BOUNDARY MISC KINETIC TOTAL TEMP POTENTIAL TOTALAVG TEMPAVG PRESSURE GPRESSURE VOLUME PRESSAVG GPRESSAVG
ENERGY: 0 3.0756 11.3679 2.4060 0.0000 -10681.2283 1477.3603 0.0000 0.0000 1731.2839 -7455.7345 294.0336 -9187.0185 -7455.7345 294.0336 281.2724 380.7545 30560.0929 281.2724 380.7545
ENERGY: 300000 4.1332 11.8121 4.3273 0.0000 -10635.1421 1413.0151 0.0000 0.0000 1745.2061 -7456.6483 296.3981 -9201.8544 -7469.2070 298.5015 -415.9083 -340.7904 30658.2771 -121.8042 -44.2065
ENERGY: 600000 1.9239 8.5760 3.9635 0.0000 -10681.6269 1384.7696 0.0000 0.0000 1775.7868 -7506.6070 301.5918 -9282.3938 -7475.7505 300.0707 -702.8572 -706.4801 30484.5718 -176.8039 -116.4713
ENERGY: 900000 2.0436 13.7845 2.9517 0.0000 -10737.7077 1438.9974 0.0000 0.0000 1741.1405 -7538.7900 295.7076 -9279.9305 -7471.3803 300.0532 -63.9229 -2.3855 30123.1695 -220.7636 -164.5525
ENERGY: 1200000 4.1112 7.1642 3.0007 0.0000 -10623.6870 1400.4583 0.0000 0.0000 1784.3799 -7424.5726 303.0512 -9208.9525 -7468.5616 299.4558 -124.6550 -72.7277 30535.6527 -200.2149 -147.4514
ENERGY: 1500000 1.3822 8.7399 4.1415 0.0000 -10536.2197 1402.9361 0.0000 0.0000 1740.1873 -7378.8328 295.5458 -9119.0201 -7462.9333 299.2795 -284.4836 -303.7306 30929.9095 -160.8160 -115.2564
TCL: Running FEP window  17: Lambda1 0.19999999999999968 Lambda2 0.1499999999999997 [dLambda -0.04999999999999999]
TCL: Setting parameter firsttimestep to 0
TCL: Setting parameter alchLambda to 0.19999999999999968
Info: NONBONDED TABLE R-SQUARED SPACING: 0.0625
Info: NONBONDED TABLE SIZE: 705 POINTS
TCL: Setting parameter alchLambda2 to 0.1499999999999997
Info: NONBONDED TABLE R-SQUARED SPACING: 0.0625
Info: NONBONDED TABLE SIZE: 705 POINTS
TCL: Running for 1500000 steps
ETITLE: TS BOND ANGLE DIHED IMPRP ELECT VDW BOUNDARY MISC KINETIC TOTAL TEMP POTENTIAL TOTALAVG TEMPAVG PRESSURE GPRESSURE VOLUME PRESSAVG GPRESSAVG
ENERGY: 0 1.3822 8.7399 4.1415 0.0000 -10536.2181 1402.5265 0.0000 0.0000 1739.3598 -7380.0682 295.4052 -9119.4280 -7380.0682 295.4052 -390.0834 -312.4332 30929.9095 -390.0834 -312.4332
ENERGY: 300000 3.1151 13.0842 6.6374 0.0000 -10769.6787 1468.6588 0.0000 0.0000 1796.6000 -7481.5832 305.1266 -9278.1832 -7436.6228 298.6108 353.0880 448.2199 29737.9667 -20.7611 48.4713
ENERGY: 600000 3.5092 9.0665 1.4617 0.0000 -10623.7706 1437.5907 0.0000 0.0000 1798.8564 -7373.2861 305.5099 -9172.1425 -7434.7016 299.6912 141.2082 163.7726 30322.0250 15.1859 74.8056
ENERGY: 900000 2.9334 7.1730 3.3126 0.0000 -10770.5678 1600.4835 0.0000 0.0000 1765.2406 -7391.4247 299.8007 -9156.6653 -7439.0451 298.9353 1735.6889 1755.2657 29903.1148 114.3052 175.4757
ENERGY: 1200000 1.3847 10.7289 5.4669 0.0000 -10553.2849 1355.2017 0.0000 0.0000 1762.5020 -7418.0008 299.3356 -9180.5027 -7431.3425 299.9443 -568.7471 -531.3268 30176.5107 -55.5175 3.6156
ENERGY: 1500000 1.5272 9.1340 5.6941 0.0000 -10649.6763 1431.1118 0.0000 0.0000 1797.2325 -7404.9766 305.2341 -9202.2092 -7432.0889 300.5317 45.0412 100.1543 30413.5349 -92.7094 -36.4715
TCL: Running FEP window  18: Lambda1 0.1499999999999997 Lambda2 0.09999999999999969 [dLambda -0.05 ]
TCL: Setting parameter firsttimestep to 0
TCL: Setting parameter alchLambda to 0.1499999999999997
Info: NONBONDED TABLE R-SQUARED SPACING: 0.0625
Info: NONBONDED TABLE SIZE: 705 POINTS
TCL: Setting parameter alchLambda2 to 0.09999999999999969
Info: NONBONDED TABLE R-SQUARED SPACING: 0.0625
Info: NONBONDED TABLE SIZE: 705 POINTS
TCL: Running for 1500000 steps
ETITLE: TS BOND ANGLE DIHED IMPRP ELECT VDW BOUNDARY MISC KINETIC TOTAL TEMP POTENTIAL TOTALAVG TEMPAVG PRESSURE GPRESSURE VOLUME PRESSAVG GPRESSAVG
ENERGY: 0 1.5272 9.1340 5.6941 0.0000 -10649.6749 1431.6109 0.0000 0.0000 1796.3079 -7405.4008 305.0770 -9201.7086 -7405.4008 305.0770 8.2386 100.8651 30413.5349 8.2386 100.8651
ENERGY: 300000 2.4126 8.0355 2.1909 0.0000 -10575.3423 1378.9981 0.0000 0.0000 1734.7649 -7448.9402 294.6248 -9183.7051 -7419.0498 302.9611 -677.1246 -559.5434 30395.9269 -374.1463 -279.6419
ENERGY: 600000 3.4314 7.7389 4.2361 0.0000 -10685.9065 1414.3240 0.0000 0.0000 1734.2291 -7521.9471 294.5338 -9256.1762 -7443.2093 300.9359 -163.2776 -160.2029 29930.9292 -21.2448 41.4003
ENERGY: 900000 3.4969 8.7807 2.3617 0.0000 -10724.8910 1503.5364 0.0000 0.0000 1807.7060 -7399.0093 307.0128 -9206.7153 -7453.4215 300.4484 465.9879 570.2391 30258.3259 -55.9011 10.7850
ENERGY: 1200000 1.9783 11.7091 5.1094 0.0000 -10815.7795 1591.9655 0.0000 0.0000 1772.9924 -7432.0248 301.1172 -9205.0172 -7458.5004 300.2682 1351.0129 1381.9859 30082.8860 -39.5988 22.1130
ENERGY: 1500000 2.6884 9.3633 2.7628 0.0000 -10757.4216 1495.4853 0.0000 0.0000 1739.7028 -7507.4189 295.4635 -9247.1217 -7460.6233 299.6411 441.1466 514.1001 30014.3010 -81.8685 -10.2374
TCL: Running FEP window  19: Lambda1 0.09999999999999969 Lambda2 0.049999999999999684 [dLambda -0.05 ]
TCL: Setting parameter firsttimestep to 0
TCL: Setting parameter alchLambda to 0.09999999999999969
Info: NONBONDED TABLE R-SQUARED SPACING: 0.0625
Info: NONBONDED TABLE SIZE: 705 POINTS
TCL: Setting parameter alchLambda2 to 0.049999999999999684
Info: NONBONDED TABLE R-SQUARED SPACING: 0.0625
Info: NONBONDED TABLE SIZE: 705 POINTS
TCL: Running for 1500000 steps
ETITLE: TS BOND ANGLE DIHED IMPRP ELECT VDW BOUNDARY MISC KINETIC TOTAL TEMP POTENTIAL TOTALAVG TEMPAVG PRESSURE GPRESSURE VOLUME PRESSAVG GPRESSAVG
ENERGY: 0 2.6884 9.3634 2.7628 0.0000 -10757.4219 1495.6280 0.0000 0.0000 1738.8415 -7508.1379 295.3172 -9246.9794 -7508.1379 295.3172 411.1600 509.2288 30014.3010 411.1600 509.2288
ENERGY: 300000 2.6414 11.1980 4.4617 0.0000 -10731.3471 1405.9786 0.0000 0.0000 1754.9837 -7552.0837 298.0587 -9307.0674 -7518.2271 295.1518 -94.7451 -29.8270 29306.5861 36.0427 125.9885
ENERGY: 600000 1.0370 10.7138 4.1490 0.0000 -10753.8617 1525.0937 0.0000 0.0000 1774.8904 -7437.9779 301.4396 -9212.8683 -7500.4633 297.0977 475.3035 555.3065 30665.8322 0.4336 94.2986
ENERGY: 900000 4.4001 4.7530 2.3941 0.0000 -10661.1734 1422.1299 0.0000 0.0000 1763.6997 -7463.7964 299.5390 -9227.4961 -7488.3103 297.4587 6.3124 19.4739 30227.5163 133.8171 209.7060
ENERGY: 1200000 3.7536 12.8945 7.5561 0.0000 -10513.3568 1285.9663 0.0000 0.0000 1774.0874 -7429.0989 301.3032 -9203.1863 -7483.9194 298.6380 -1426.6399 -1299.0770 30305.3390 64.9215 139.1120
ENERGY: 1500000 2.4077 8.9946 3.9382 0.0000 -10566.3045 1297.0954 0.0000 0.0000 1790.7912 -7463.0775 304.1401 -9253.8686 -7470.2147 299.8004 -1295.8717 -1170.2967 30299.4892 0.8041 78.4322
TCL: Running FEP window  20: Lambda1 0.049999999999999684 Lambda2 0.0    [dLambda -0.049999999999999684]
TCL: Setting parameter firsttimestep to 0
TCL: Setting parameter alchLambda to 0.049999999999999684
Info: NONBONDED TABLE R-SQUARED SPACING: 0.0625
Info: NONBONDED TABLE SIZE: 705 POINTS
TCL: Setting parameter alchLambda2 to 0.0
Info: NONBONDED TABLE R-SQUARED SPACING: 0.0625
Info: NONBONDED TABLE SIZE: 705 POINTS
TCL: Running for 1500000 steps
ETITLE: TS BOND ANGLE DIHED IMPRP ELECT VDW BOUNDARY MISC KINETIC TOTAL TEMP POTENTIAL TOTALAVG TEMPAVG PRESSURE GPRESSURE VOLUME PRESSAVG GPRESSAVG
ENERGY: 0 2.4077 8.9946 3.9382 0.0000 -10566.3039 1297.0182 0.0000 0.0000 1789.9000 -7464.0452 303.9888 -9253.9452 -7464.0452 303.9888 -1254.0585 -1173.7655 30299.4892 -1254.0585 -1173.7655
ENERGY: 300000 5.6654 11.8659 2.0212 0.0000 -10665.7076 1424.9563 0.0000 0.0000 1708.4496 -7512.7491 290.1556 -9221.1988 -7474.2803 299.5382 -829.5989 -741.1263 31349.0741 -500.7614 -438.8091
ENERGY: 600000 4.2304 13.8814 5.1263 0.0000 -10767.1785 1469.9180 0.0000 0.0000 1746.5946 -7527.4278 296.6339 -9274.0224 -7463.3649 299.5502 254.8754 292.0300 29772.5117 -350.7183 -312.4666
ENERGY: 900000 4.4479 8.5932 2.3967 0.0000 -10771.8922 1527.2739 0.0000 0.0000 1774.5328 -7454.6477 301.3789 -9229.1805 -7452.1813 300.8860 660.5002 749.9050 29906.9953 -218.1330 -168.1323
ENERGY: 1200000 2.8773 8.4828 2.9907 0.0000 -10888.1003 1580.6263 0.0000 0.0000 1764.7313 -7528.3919 299.7142 -9293.1233 -7463.3371 299.7952 1018.5407 1074.6064 29939.4651 -116.2591 -68.9886
ENERGY: 1500000 3.1883 9.8641 3.2101 0.0000 -10541.4152 1366.2534 0.0000 0.0000 1723.2640 -7435.6353 292.6716 -9158.8992 -7459.8251 299.9101 -745.3983 -621.1824 30445.3138 -155.0758 -100.0586
TCL: Exiting due to exit command.
