Info: SIMULATION PARAMETERS:
Info: TIMESTEP               2
Info: NUMBER OF STEPS        0
Info: STEPS PER CYCLE        10
Info: PERIODIC CELL BASIS 1  31.7896 0 0
Info: PERIODIC CELL BASIS 2  0 31.0273 0
Info: PERIODIC CELL BASIS 3  0 0 30.3868
Info: PERIODIC CELL CENTER   0 0 0
Info: WRAPPING WATERS AROUND PERIODIC BOUNDARIES ON OUTPUT.
Info: WRAPPING ALL CLUSTERS AROUND PERIODIC BOUNDARIES ON OUTPUT.
Info: FIRST LDB TIMESTEP     50
Info: LAST LDB TIMESTEP     -1
Info: HOM BACKGROUND SCALING 1
Info: PME BACKGROUND SCALING 1
Info: MIN ATOMS PER PATCH    40
Info: EMPTY PATCH LOAD       40 ATOMS
Info: VELOCITY FILE          mobley_9653690_equil.vel
Info: CENTER OF MASS MOVING INITIALLY? NO
Info: DIELECTRIC             1
Info: EXCLUDE                SCALED ONE-FOUR
Info: 1-4 ELECTROSTATICS SCALED BY 0.833333
Info: MODIFIED 1-4 VDW PARAMETERS WILL BE USED
Info: DCD FILENAME           mobley_9653690_prod.dcd
Info: DCD FREQUENCY          100000
Info: DCD FIRST STEP         100000
Info: DCD FILE WILL CONTAIN UNIT CELL DATA
Info: XST FILENAME           mobley_9653690_prod.xst
Info: XST FREQUENCY          100000
Info: NO VELOCITY DCD OUTPUT
Info: NO FORCE DCD OUTPUT
Info: OUTPUT FILENAME        mobley_9653690_prod
Info: BINARY OUTPUT FILES WILL BE USED
Info: RESTART FILENAME       mobley_9653690_prod.restart
Info: RESTART FREQUENCY      100000
Info: BINARY RESTART FILES WILL BE USED
Info: CUTOFF                 9
Info: PAIRLIST DISTANCE      11
Info: PAIRLIST SHRINK RATE   0.01
Info: PAIRLIST GROW RATE     0.01
Info: PAIRLIST TRIGGER       0.3
Info: PAIRLISTS PER CYCLE    2
Info: PAIRLISTS ENABLED
Info: MARGIN                 2
Info: HYDROGEN GROUP CUTOFF  2.5
Info: PATCH DIMENSION        15.5
Info: ENERGY OUTPUT STEPS    100000
Info: ENERGY EVALUATION STEPS    100000
Info: OUTPUT ENERGY PRECISION 4
Info: CROSSTERM ENERGY INCLUDED IN DIHEDRAL
Info: TIMING OUTPUT STEPS    1000000
Info: PRESSURE OUTPUT STEPS  100000
Info: ALCHEMICAL FEP ON
Info: FEP CURRENT LAMBDA VALUE     1
Info: FEP COMPARISON LAMBDA VALUE  0.95
Info: FEP INTRA-ALCHEMICAL NON-BONDED INTERACTIONS WILL BE RETAINED
Info: FEP INTRA-ALCHEMICAL BONDED INTERACTIONS WILL BE RETAINED
Info: FEP VDW SHIFTING COEFFICIENT 5
Info: FEP ELEC. ACTIVE FOR ANNIHILATED PARTICLES BETWEEN LAMBDA = 0 AND LAMBDA = 0.5
Info: FEP ELEC. ACTIVE FOR EXNIHILATED PARTICLES BETWEEN LAMBDA = 0.5 AND LAMBDA = 1
Info: FEP VDW ACTIVE FOR ANNIHILATED PARTICLES BETWEEN LAMBDA = 0 AND LAMBDA = 1
Info: FEP VDW ACTIVE FOR EXNIHILATED PARTICLES BETWEEN LAMBDA = 0 AND LAMBDA = 1
Info: FEP BOND ACTIVE FOR ANNIHILATED PARTICLES BETWEEN LAMBDA = 1 AND LAMBDA = 1
Info: FEP BOND ACTIVE FOR EXNIHILATED PARTICLES BETWEEN LAMBDA = 0 AND LAMBDA = 0
Info: LANGEVIN DYNAMICS ACTIVE
Info: LANGEVIN TEMPERATURE   300
Info: LANGEVIN USING BBK INTEGRATOR
Info: LANGEVIN DAMPING COEFFICIENT IS 1 INVERSE PS
Info: LANGEVIN DYNAMICS APPLIED TO HYDROGENS
Info: LANGEVIN PISTON PRESSURE CONTROL ACTIVE
Info:        TARGET PRESSURE IS 1.01325 BAR
Info:     OSCILLATION PERIOD IS 50 FS
Info:             DECAY TIME IS 25 FS
Info:     PISTON TEMPERATURE IS 300 K
Info:       PRESSURE CONTROL IS GROUP-BASED
Info:    INITIAL STRAIN RATE IS -0.000605804 -0.000605804 -0.000605804
Info:       CELL FLUCTUATION IS ISOTROPIC
Info: PARTICLE MESH EWALD (PME) ACTIVE
Info: PME TOLERANCE               1e-06
Info: PME EWALD COEFFICIENT       0.348832
Info: PME INTERPOLATION ORDER     4
Info: PME GRID DIMENSIONS         32 32 32
Info: PME MAXIMUM GRID SPACING    1
Info: PME CALCULATION WILL BE PERFORMED ON GPU
Info: FULL ELECTROSTATIC EVALUATION FREQUENCY      2
Info: USING VERLET I (r-RESPA) MTS SCHEME.
Info: C1 SPLITTING OF LONG RANGE ELECTROSTATICS
Info: PLACING ATOMS IN PATCHES BY HYDROGEN GROUPS
Info: RIGID BONDS TO HYDROGEN : ALL
Info:         ERROR TOLERANCE : 1e-08
Info:          MAX ITERATIONS : 100
Info: RIGID WATER USING SETTLE ALGORITHM
Info: RANDOM NUMBER SEED     1743817449
Info: USE HYDROGEN BONDS?    NO
Info: Using AMBER format force field!
Info: AMBER PARM FILE        mobley_9653690.prmtop
Info: COORDINATE PDB         mobley_9653690.pdb
Info: Exclusions will be read from PARM file!
Info: SCNB (VDW SCALING)     2
Info: USING ARITHMETIC MEAN TO COMBINE L-J SIGMA PARAMETERS
Info: BINARY COORDINATES     mobley_9653690_equil.coor
Info: SUMMARY OF PARAMETERS:
Info: 10 BONDS
Info: 16 ANGLES
Info:   16 HARMONIC
Info:   0 COSINE-BASED
Info: 15 DIHEDRAL
Info: 0 IMPROPER
Info: 0 CROSSTERM
Info: 0 VDW
Info: 36 VDW_PAIRS
Info: 0 NBTHOLE_PAIRS
Info: To read alchdata from file: mobley_9653690.pdb
Info: To read alchflag data from column: 5
Info: STRUCTURE SUMMARY:
Info: 2916 ATOMS
Info: 2916 BONDS
Info: 49 ANGLES
Info: 97 DIHEDRALS
Info: 0 IMPROPERS
Info: 0 CROSSTERMS
Info: 3030 EXCLUSIONS
Info: 2905 RIGID BONDS
Info: ALCH: 0 ATOMS TO DISAPPEAR IN FINAL STATE
Info: ALCH: 27 ATOMS TO APPEAR IN FINAL STATE
Info: 5843 DEGREES OF FREEDOM
Info: 974 HYDROGEN GROUPS
Info: 4 ATOMS IN LARGEST HYDROGEN GROUP
Info: 974 MIGRATION GROUPS
Info: 4 ATOMS IN LARGEST MIGRATION GROUP
Info: TOTAL MASS = 17501.6 amu
Info: TOTAL CHARGE = -3.72529e-09 e
Info: MASS DENSITY = 0.969666 g/cm^3
Info: ATOM DENSITY = 0.0972908 atoms/A^3
Info: ADDED 0 IMPLICIT EXCLUSIONS
Info: NONBONDED TABLE R-SQUARED SPACING: 0.0625
Info: NONBONDED TABLE SIZE: 705 POINTS
Info: REDUCING NUMBER OF PATCHES TO IMPROVE LOAD BALANCE
Info: REMOVING COM VELOCITY -0.0262585 0.0617685 0.194102
Info: Use 3D box decompostion in PME FFT.
Info: Updated CUDA force table with 4096 elements.
Info: Updated CUDA LJ table with 8 x 8 elements.
Info: Found 30 unique exclusion lists needing 100 bytes
TCL: Running for 1500000 steps
ETITLE: TS BOND ANGLE DIHED IMPRP ELECT VDW BOUNDARY MISC KINETIC TOTAL TEMP POTENTIAL TOTALAVG TEMPAVG PRESSURE GPRESSURE VOLUME PRESSAVG GPRESSAVG
ENERGY: 0 3.6984 12.5579 17.5781 0.0000 -10538.9675 1492.3653 0.0000 0.0000 1786.7421 -7226.0257 307.7630 -9012.7678 -7226.0257 307.7630 838.7362 925.0527 29972.0019 838.7362 925.0527
ENERGY: 300000 2.8300 8.5386 18.1369 0.0000 -10442.6887 1382.6626 0.0000 0.0000 1694.2433 -7336.2773 291.8302 -9030.5206 -7284.5209 303.3228 110.0203 173.7329 29772.4184 311.2187 389.9578
ENERGY: 600000 4.0308 11.0841 15.4149 0.0000 -10466.4054 1347.1626 0.0000 0.0000 1698.1898 -7390.5232 292.5100 -9088.7130 -7320.8090 301.8666 -689.4484 -545.2291 29839.9382 55.1033 132.0963
ENERGY: 900000 4.0340 5.5931 16.8101 0.0000 -10512.2179 1383.1367 0.0000 0.0000 1690.8981 -7411.7459 291.2540 -9102.6440 -7327.1807 299.8434 -664.1632 -578.1145 30597.2910 -11.7793 49.4605
ENERGY: 1200000 4.5576 10.3727 17.7860 0.0000 -10718.6767 1488.2693 0.0000 0.0000 1746.2202 -7451.4710 300.7831 -9197.6911 -7343.8541 299.3514 409.8815 461.4950 29350.8313 -94.5240 -27.5872
ENERGY: 1500000 7.1706 11.0483 16.7500 0.0000 -10523.5144 1422.6488 0.0000 0.0000 1743.7274 -7322.1694 300.3538 -9065.8968 -7344.6015 299.6286 31.3450 129.6653 29787.9069 -90.6698 -20.5266
TCL: Running FEP window   2: Lambda1 0.95   Lambda2 0.8999999999999999 [dLambda -0.050000000000000044]
TCL: Setting parameter firsttimestep to 0
TCL: Setting parameter alchLambda to 0.95
Info: NONBONDED TABLE R-SQUARED SPACING: 0.0625
Info: NONBONDED TABLE SIZE: 705 POINTS
TCL: Setting parameter alchLambda2 to 0.8999999999999999
Info: NONBONDED TABLE R-SQUARED SPACING: 0.0625
Info: NONBONDED TABLE SIZE: 705 POINTS
TCL: Running for 1500000 steps
ETITLE: TS BOND ANGLE DIHED IMPRP ELECT VDW BOUNDARY MISC KINETIC TOTAL TEMP POTENTIAL TOTALAVG TEMPAVG PRESSURE GPRESSURE VOLUME PRESSAVG GPRESSAVG
ENERGY: 0 7.1706 11.0483 16.7500 0.0000 -10521.6660 1421.9187 0.0000 0.0000 1742.8570 -7321.9215 300.2038 -9064.7784 -7321.9215 300.2038 23.5345 107.9969 29787.9069 23.5345 107.9969
ENERGY: 300000 2.8712 12.8323 16.8257 0.0000 -10602.8776 1519.9232 0.0000 0.0000 1738.4415 -7311.9837 299.4433 -9050.4252 -7339.2443 303.7129 845.5957 966.8375 29934.4526 251.3458 325.3175
ENERGY: 600000 2.4756 16.6240 18.7652 0.0000 -10392.1461 1350.6491 0.0000 0.0000 1777.1458 -7226.4864 306.1100 -9003.6323 -7311.9422 302.7249 -315.2977 -248.7479 30088.4361 108.3298 189.8311
ENERGY: 900000 3.6154 7.2224 17.4763 0.0000 -10563.0493 1455.5534 0.0000 0.0000 1755.7197 -7323.4619 302.4194 -9079.1817 -7312.1851 302.6219 126.0799 239.0150 30301.0592 97.8559 181.3440
ENERGY: 1200000 2.3136 12.5400 16.5654 0.0000 -10616.8237 1460.0247 0.0000 0.0000 1802.4591 -7322.9209 310.4702 -9125.3800 -7309.0191 303.1355 354.5109 433.4232 29831.1543 64.6362 155.4947
ENERGY: 1500000 2.4684 12.5830 16.7733 0.0000 -10522.8112 1415.1399 0.0000 0.0000 1747.6589 -7328.1877 301.0310 -9075.8466 -7308.2402 303.3632 -46.7093 29.7615 30264.2579 47.4819 132.2525
TCL: Running FEP window   3: Lambda1 0.8999999999999999 Lambda2 0.8499999999999999 [dLambda -0.050000000000000044]
TCL: Setting parameter firsttimestep to 0
TCL: Setting parameter alchLambda to 0.8999999999999999
Info: NONBONDED TABLE R-SQUARED SPACING: 0.0625
Info: NONBONDED TABLE SIZE: 705 POINTS
TCL: Setting parameter alchLambda2 to 0.8499999999999999
Info: NONBONDED TABLE R-SQUARED SPACING: 0.0625
Info: NONBONDED TABLE SIZE: 705 POINTS
TCL: Running for 1500000 steps
ETITLE: TS BOND ANGLE DIHED IMPRP ELECT VDW BOUNDARY MISC KINETIC TOTAL TEMP POTENTIAL TOTALAVG TEMPAVG PRESSURE GPRESSURE VOLUME PRESSAVG GPRESSAVG
ENERGY: 0 2.4684 12.5830 16.7733 0.0000 -10520.7461 1415.2609 0.0000 0.0000 1746.8226 -7326.8378 300.8869 -9073.6605 -7326.8378 300.8869 -53.9683 21.2422 30264.2579 -53.9683 21.2422
ENERGY: 300000 2.8668 8.6998 16.5998 0.0000 -10584.1420 1440.9405 0.0000 0.0000 1794.3643 -7320.6709 309.0759 -9115.0352 -7321.2659 302.4077 -13.4766 1.0330 30326.6583 237.5821 301.3235
ENERGY: 600000 5.0064 8.9552 18.3776 0.0000 -10591.8659 1464.7341 0.0000 0.0000 1726.6534 -7368.1393 297.4128 -9094.7926 -7324.6610 299.7886 375.2118 374.8601 29889.1249 124.5141 175.4759
ENERGY: 900000 2.4143 8.8714 18.8529 0.0000 -10512.7590 1445.5914 0.0000 0.0000 1678.4075 -7358.6215 289.1025 -9037.0290 -7319.2014 299.0535 362.0293 414.0416 30167.2241 82.4163 138.0624
ENERGY: 1200000 3.1759 11.3906 17.4142 0.0000 -10547.5642 1462.1387 0.0000 0.0000 1715.6917 -7337.7530 295.5247 -9053.4447 -7320.8332 298.6601 282.6764 381.9754 29981.3155 62.0712 125.0044
ENERGY: 1500000 3.8362 14.6654 19.2592 0.0000 -10478.6261 1405.5277 0.0000 0.0000 1752.5764 -7282.7613 301.8780 -9035.3377 -7311.1557 300.1450 -234.9280 -117.1811 30397.1324 119.7667 177.3570
TCL: Running FEP window   4: Lambda1 0.8499999999999999 Lambda2 0.7999999999999998 [dLambda -0.050000000000000044]
TCL: Setting parameter firsttimestep to 0
TCL: Setting parameter alchLambda to 0.8499999999999999
Info: NONBONDED TABLE R-SQUARED SPACING: 0.0625
Info: NONBONDED TABLE SIZE: 705 POINTS
TCL: Setting parameter alchLambda2 to 0.7999999999999998
Info: NONBONDED TABLE R-SQUARED SPACING: 0.0625
Info: NONBONDED TABLE SIZE: 705 POINTS
TCL: Running for 1500000 steps
ETITLE: TS BOND ANGLE DIHED IMPRP ELECT VDW BOUNDARY MISC KINETIC TOTAL TEMP POTENTIAL TOTALAVG TEMPAVG PRESSURE GPRESSURE VOLUME PRESSAVG GPRESSAVG
ENERGY: 0 3.8362 14.6654 19.2592 0.0000 -10476.6268 1404.4862 0.0000 0.0000 1751.7301 -7282.6497 301.7322 -9034.3799 -7282.6497 301.7322 -218.1048 -136.3608 30397.1324 -218.1048 -136.3608
ENERGY: 300000 2.6376 10.1221 19.9691 0.0000 -10573.8618 1435.5075 0.0000 0.0000 1789.5016 -7316.1239 308.2383 -9105.6255 -7311.5529 302.6244 398.6762 427.7900 29702.2441 118.5010 176.4956
ENERGY: 600000 3.5163 9.4171 17.7050 0.0000 -10525.6940 1444.1019 0.0000 0.0000 1770.9783 -7279.9753 305.0477 -9050.9536 -7304.2458 302.7352 380.3381 454.3499 29788.5116 109.4776 176.4090
ENERGY: 900000 1.0794 9.8422 15.6554 0.0000 -10559.1990 1447.9871 0.0000 0.0000 1763.3794 -7321.2555 303.7388 -9084.6349 -7322.2575 302.1587 560.6050 614.8792 29688.5706 31.8798 87.9464
ENERGY: 1200000 4.5090 12.0888 18.1038 0.0000 -10473.3012 1368.4897 0.0000 0.0000 1744.3102 -7325.7998 300.4542 -9070.1100 -7331.7185 302.2617 -264.9526 -284.0906 29996.0666 -77.7718 -24.9475
ENERGY: 1500000 3.8310 8.2600 15.6112 0.0000 -10508.4029 1377.1001 0.0000 0.0000 1732.0607 -7371.5398 298.3442 -9103.6004 -7332.1030 301.0382 -22.4755 47.8010 29485.1030 -75.8463 -23.1958
TCL: Running FEP window   5: Lambda1 0.7999999999999998 Lambda2 0.7499999999999998 [dLambda -0.050000000000000044]
TCL: Setting parameter firsttimestep to 0
TCL: Setting parameter alchLambda to 0.7999999999999998
Info: NONBONDED TABLE R-SQUARED SPACING: 0.0625
Info: NONBONDED TABLE SIZE: 705 POINTS
TCL: Setting parameter alchLambda2 to 0.7499999999999998
Info: NONBONDED TABLE R-SQUARED SPACING: 0.0625
Info: NONBONDED TABLE SIZE: 705 POINTS
TCL: Running for 1500000 steps
ETITLE: TS BOND ANGLE DIHED IMPRP ELECT VDW BOUNDARY MISC KINETIC TOTAL TEMP POTENTIAL TOTALAVG TEMPAVG PRESSURE GPRESSURE VOLUME PRESSAVG GPRESSAVG
ENERGY: 0 3.8310 8.2600 15.6112 0.0000 -10506.2282 1376.3299 0.0000 0.0000 1731.2156 -7370.9804 298.1986 -9102.1960 -7370.9804 298.1986 -75.6417 23.9289 29485.1030 -75.6417 23.9289
ENERGY: 300000 1.9969 12.9770 16.0089 0.0000 -10480.2683 1399.0335 0.0000 0.0000 1710.0376 -7340.2144 294.5508 -9050.2520 -7345.5199 298.0446 -157.8296 -128.9270 30315.4050 100.5147 158.5872
ENERGY: 600000 4.6757 10.2707 16.6428 0.0000 -10481.6472 1384.5258 0.0000 0.0000 1690.8504 -7374.6817 291.2458 -9065.5321 -7354.0702 296.7795 -250.0949 -161.3314 30121.9610 40.8477 100.3808
ENERGY: 900000 6.9881 9.5970 17.2285 0.0000 -10462.6383 1402.3226 0.0000 0.0000 1768.0534 -7258.4486 304.5439 -9026.5021 -7356.1098 296.7880 151.7810 178.2856 29932.5237 102.3949 160.6816
ENERGY: 1200000 3.2286 18.4914 17.4624 0.0000 -10481.4138 1358.9298 0.0000 0.0000 1713.2317 -7370.0700 295.1009 -9083.3017 -7354.8707 297.2363 -432.7863 -365.8714 29958.6069 13.2957 75.7482
ENERGY: 1500000 3.9405 11.3445 16.7951 0.0000 -10520.8020 1371.8802 0.0000 0.0000 1756.5953 -7360.2464 302.5702 -9116.8417 -7353.9809 297.7680 -440.9215 -374.3800 29989.6824 -23.4198 37.0037
TCL: Running FEP window   6: Lambda1 0.7499999999999998 Lambda2 0.6999999999999997 [dLambda -0.050000000000000044]
TCL: Setting parameter firsttimestep to 0
TCL: Setting parameter alchLambda to 0.7499999999999998
Info: NONBONDED TABLE R-SQUARED SPACING: 0.0625
Info: NONBONDED TABLE SIZE: 705 POINTS
TCL: Setting parameter alchLambda2 to 0.6999999999999997
Info: NONBONDED TABLE R-SQUARED SPACING: 0.0625
Info: NONBONDED TABLE SIZE: 705 POINTS
TCL: Running for 1500000 steps
ETITLE: TS BOND ANGLE DIHED IMPRP ELECT VDW BOUNDARY MISC KINETIC TOTAL TEMP POTENTIAL TOTALAVG TEMPAVG PRESSURE GPRESSURE VOLUME PRESSAVG GPRESSAVG
ENERGY: 0 3.9405 11.3445 16.7951 0.0000 -10519.9967 1372.0238 0.0000 0.0000 1755.7380 -7360.1547 302.4226 -9115.8927 -7360.1547 302.4226 -472.6766 -386.2369 29989.6824 -472.6766 -386.2369
ENERGY: 300000 3.7901 12.5339 17.8868 0.0000 -10512.5649 1459.6731 0.0000 0.0000 1711.6535 -7307.0274 294.8291 -9018.6810 -7372.2140 296.3381 469.0166 482.1397 30008.9360 136.7832 204.6956
ENERGY: 600000 3.2014 9.4061 17.6563 0.0000 -10440.6954 1363.6136 0.0000 0.0000 1740.0986 -7306.7194 299.7287 -9046.8180 -7343.9064 299.8111 -623.4542 -605.4617 30349.3555 -14.1949 43.9645
ENERGY: 900000 3.1764 14.3511 16.3228 0.0000 -10634.4850 1497.3004 0.0000 0.0000 1752.6972 -7350.6370 301.8988 -9103.3343 -7342.3954 300.0131 627.9531 730.5648 29974.5746 187.9901 253.6651
ENERGY: 1200000 4.6817 8.5115 16.6171 0.0000 -10397.3484 1334.4297 0.0000 0.0000 1694.5755 -7338.5329 291.8875 -9033.1084 -7348.7589 298.8619 -889.4947 -845.2152 30729.9199 53.3308 117.1423
ENERGY: 1500000 6.4849 7.2973 24.3741 0.0000 -10452.1217 1385.8730 0.0000 0.0000 1762.1993 -7265.8931 303.5355 -9028.0924 -7337.6926 299.7375 -306.9818 -257.7804 30111.8120 42.0209 102.4810
TCL: Running FEP window   7: Lambda1 0.6999999999999997 Lambda2 0.6499999999999997 [dLambda -0.050000000000000044]
TCL: Setting parameter firsttimestep to 0
TCL: Setting parameter alchLambda to 0.6999999999999997
Info: NONBONDED TABLE R-SQUARED SPACING: 0.0625
Info: NONBONDED TABLE SIZE: 705 POINTS
TCL: Setting parameter alchLambda2 to 0.6499999999999997
Info: NONBONDED TABLE R-SQUARED SPACING: 0.0625
Info: NONBONDED TABLE SIZE: 705 POINTS
TCL: Running for 1500000 steps
ETITLE: TS BOND ANGLE DIHED IMPRP ELECT VDW BOUNDARY MISC KINETIC TOTAL TEMP POTENTIAL TOTALAVG TEMPAVG PRESSURE GPRESSURE VOLUME PRESSAVG GPRESSAVG
ENERGY: 0 6.4849 7.2973 24.3741 0.0000 -10450.1097 1385.5094 0.0000 0.0000 1761.3475 -7265.0964 303.3888 -9026.4439 -7265.0964 303.3888 -367.9334 -271.3570 30111.8120 -367.9334 -271.3570
ENERGY: 300000 3.2070 11.4700 18.2531 0.0000 -10573.9746 1418.8607 0.0000 0.0000 1682.7415 -7439.4422 289.8491 -9122.1837 -7345.4874 297.7818 -146.2423 -79.8454 30251.3844 141.0156 211.6475
ENERGY: 600000 2.2081 14.2621 18.4072 0.0000 -10579.9338 1464.3567 0.0000 0.0000 1791.8124 -7288.8873 308.6363 -9080.6997 -7346.1154 298.6833 345.6767 470.6950 29743.7580 89.3812 179.6402
ENERGY: 900000 6.2142 11.4506 17.8313 0.0000 -10468.8169 1354.3236 0.0000 0.0000 1721.8845 -7357.1127 296.5914 -9078.9972 -7350.1036 300.1241 -515.2237 -497.0370 29870.0067 45.9288 120.8948
ENERGY: 1200000 1.6635 10.8015 16.8953 0.0000 -10528.7189 1380.9770 0.0000 0.0000 1722.6587 -7395.7229 296.7247 -9118.3816 -7349.6148 300.3044 -421.1225 -367.4933 30030.9054 49.7253 123.1676
ENERGY: 1500000 3.2170 9.3229 16.7511 0.0000 -10447.3601 1363.1016 0.0000 0.0000 1823.7384 -7231.2291 314.1355 -9054.9675 -7340.6757 301.2307 -463.8600 -451.1958 30253.5950 14.9207 77.0299
TCL: Running FEP window   8: Lambda1 0.6499999999999997 Lambda2 0.5999999999999996 [dLambda -0.050000000000000044]
TCL: Setting parameter firsttimestep to 0
TCL: Setting parameter alchLambda to 0.6499999999999997
Info: NONBONDED TABLE R-SQUARED SPACING: 0.0625
Info: NONBONDED TABLE SIZE: 705 POINTS
TCL: Setting parameter alchLambda2 to 0.5999999999999996
Info: NONBONDED TABLE R-SQUARED SPACING: 0.0625
Info: NONBONDED TABLE SIZE: 705 POINTS
TCL: Running for 1500000 steps
ETITLE: TS BOND ANGLE DIHED IMPRP ELECT VDW BOUNDARY MISC KINETIC TOTAL TEMP POTENTIAL TOTALAVG TEMPAVG PRESSURE GPRESSURE VOLUME PRESSAVG GPRESSAVG
ENERGY: 0 3.2170 9.3229 16.7511 0.0000 -10447.0513 1363.6677 0.0000 0.0000 1822.8801 -7231.2125 313.9877 -9054.0926 -7231.2125 313.9877 -538.6507 -455.0803 30253.5950 -538.6507 -455.0803
ENERGY: 300000 1.7990 8.2314 17.7435 0.0000 -10459.1285 1377.7730 0.0000 0.0000 1789.5555 -7264.0260 308.2476 -9053.5815 -7312.5195 304.8907 -99.1268 -55.4364 29854.8613 -279.5194 -199.9877
ENERGY: 600000 1.8126 12.3360 17.9074 0.0000 -10529.6769 1390.0820 0.0000 0.0000 1710.2841 -7397.2548 294.5932 -9107.5389 -7319.2567 302.4341 -443.2662 -342.6858 30066.2273 -194.0201 -102.6552
ENERGY: 900000 4.0020 7.3407 15.9303 0.0000 -10546.6760 1394.8876 0.0000 0.0000 1766.0421 -7358.4733 304.1974 -9124.5154 -7329.4799 302.5622 -104.8707 -74.9044 29831.2086 -261.1102 -179.1245
ENERGY: 1200000 1.1292 18.8177 17.5277 0.0000 -10508.8220 1367.8361 0.0000 0.0000 1755.5445 -7347.9669 302.3892 -9103.5113 -7334.0077 301.8875 -457.1231 -409.4709 30122.6310 -329.8402 -257.6460
ENERGY: 1500000 4.5486 12.3534 17.4757 0.0000 -10459.5815 1410.7974 0.0000 0.0000 1778.4070 -7235.9994 306.3273 -9014.4064 -7333.4624 301.3752 139.3555 199.4453 30218.3275 -217.8978 -147.3556
TCL: Running FEP window   9: Lambda1 0.5999999999999996 Lambda2 0.5499999999999996 [dLambda -0.050000000000000044]
TCL: Setting parameter firsttimestep to 0
TCL: Setting parameter alchLambda to 0.5999999999999996
Info: NONBONDED TABLE R-SQUARED SPACING: 0.0625
Info: NONBONDED TABLE SIZE: 705 POINTS
TCL: Setting parameter alchLambda2 to 0.5499999999999996
Info: NONBONDED TABLE R-SQUARED SPACING: 0.0625
Info: NONBONDED TABLE SIZE: 705 POINTS
TCL: Running for 1500000 steps
ETITLE: TS BOND ANGLE DIHED IMPRP ELECT VDW BOUNDARY MISC KINETIC TOTAL TEMP POTENTIAL TOTALAVG TEMPAVG PRESSURE GPRESSURE VOLUME PRESSAVG GPRESSAVG
ENERGY: 0 4.5486 12.3534 17.4757 0.0000 -10459.0098 1411.2224 0.0000 0.0000 1777.5298 -7235.8799 306.1762 -9013.4097 -7235.8799 306.1762 103.6603 192.6020 30218.3275 103.6603 192.6020
ENERGY: 300000 4.5419 8.2850 16.9398 0.0000 -10372.8412 1312.2545 0.0000 0.0000 1731.3484 -7299.4717 298.2215 -9030.8201 -7326.9978 300.2613 -693.9405 -615.5571 29868.1306 -659.8918 -615.3054
ENERGY: 600000 4.8121 14.1745 17.5027 0.0000 -10457.0437 1350.3387 0.0000 0.0000 1743.0847 -7327.1311 300.2431 -9070.2157 -7330.8721 298.5325 -210.1818 -162.5383 29783.8406 -491.2749 -439.7575
ENERGY: 900000 3.3418 12.1778 16.8377 0.0000 -10680.8803 1510.5034 0.0000 0.0000 1796.4986 -7341.5210 309.4435 -9138.0196 -7337.6362 300.0006 725.9592 814.4636 29545.7128 -255.6463 -201.2509
ENERGY: 1200000 2.3946 9.1315 19.7259 0.0000 -10594.3060 1492.4922 0.0000 0.0000 1761.2774 -7309.2846 303.3767 -9070.5620 -7339.2404 299.3346 742.2784 756.3403 29917.0402 -162.1199 -116.6424
ENERGY: 1500000 6.5338 9.8167 17.3984 0.0000 -10486.9720 1412.1733 0.0000 0.0000 1720.6330 -7320.4168 296.3758 -9041.0498 -7330.9397 299.3596 -198.8678 -96.6650 30359.1683 -134.4419 -82.5829
TCL: Running FEP window  10: Lambda1 0.5499999999999996 Lambda2 0.4999999999999996 [dLambda -0.04999999999999999]
TCL: Setting parameter firsttimestep to 0
TCL: Setting parameter alchLambda to 0.5499999999999996
Info: NONBONDED TABLE R-SQUARED SPACING: 0.0625
Info: NONBONDED TABLE SIZE: 705 POINTS
TCL: Setting parameter alchLambda2 to 0.4999999999999996
Info: NONBONDED TABLE R-SQUARED SPACING: 0.0625
Info: NONBONDED TABLE SIZE: 705 POINTS
TCL: Running for 1500000 steps
ETITLE: TS BOND ANGLE DIHED IMPRP ELECT VDW BOUNDARY MISC KINETIC TOTAL TEMP POTENTIAL TOTALAVG TEMPAVG PRESSURE GPRESSURE VOLUME PRESSAVG GPRESSAVG
ENERGY: 0 6.5338 9.8167 17.3984 0.0000 -10486.9467 1412.4298 0.0000 0.0000 1719.7757 -7320.9924 296.2281 -9040.7681 -7320.9924 296.2281 -172.3138 -103.9060 30359.1683 -172.3138 -103.9060
ENERGY: 300000 10.9746 10.0908 16.3459 0.0000 -10643.3270 1480.8729 0.0000 0.0000 1740.7049 -7384.3379 299.8331 -9125.0428 -7363.3728 299.8488 547.1926 470.8218 29391.9835 49.4771 60.9490
ENERGY: 600000 1.6523 9.1211 19.2907 0.0000 -10532.7426 1417.7547 0.0000 0.0000 1796.8302 -7288.0937 309.5006 -9084.9238 -7348.0924 299.6257 31.8058 120.8155 29673.2747 -180.4861 -137.5150
ENERGY: 900000 4.9099 10.1778 16.5062 0.0000 -10619.2361 1431.9804 0.0000 0.0000 1788.3755 -7367.2864 308.0443 -9155.6618 -7353.0721 300.4240 -174.3405 -148.2632 29946.9275 -19.6406 24.3872
ENERGY: 1200000 2.1605 8.3201 17.4689 0.0000 -10441.6557 1337.5855 0.0000 0.0000 1702.7878 -7373.3328 293.3020 -9076.1206 -7364.0199 298.9338 -568.1468 -470.5318 29894.8133 -203.5014 -148.4622
ENERGY: 1500000 6.4697 9.4868 17.1478 0.0000 -10404.2657 1367.6878 0.0000 0.0000 1766.5780 -7236.8957 304.2897 -9003.4737 -7352.2963 299.8469 -25.3902 32.1463 29975.2153 -175.1670 -123.6411
TCL: Running FEP window  11: Lambda1 0.4999999999999996 Lambda2 0.4499999999999996 [dLambda -0.04999999999999999]
TCL: Setting parameter firsttimestep to 0
TCL: Setting parameter alchLambda to 0.4999999999999996
Info: NONBONDED TABLE R-SQUARED SPACING: 0.0625
Info: NONBONDED TABLE SIZE: 705 POINTS
TCL: Setting parameter alchLambda2 to 0.4499999999999996
Info: NONBONDED TABLE R-SQUARED SPACING: 0.0625
Info: NONBONDED TABLE SIZE: 705 POINTS
TCL: Running for 1500000 steps
ETITLE: TS BOND ANGLE DIHED IMPRP ELECT VDW BOUNDARY MISC KINETIC TOTAL TEMP POTENTIAL TOTALAVG TEMPAVG PRESSURE GPRESSURE VOLUME PRESSAVG GPRESSAVG
ENERGY: 0 6.4697 9.4868 17.1478 0.0000 -10403.1432 1367.7508 0.0000 0.0000 1765.7258 -7236.5623 304.1430 -9002.2881 -7236.5623 304.1430 -56.4942 25.6947 29975.2153 -56.4942 25.6947
ENERGY: 300000 2.2041 12.0526 17.8482 0.0000 -10601.4773 1442.0662 0.0000 0.0000 1762.2622 -7365.0440 303.5464 -9127.3062 -7312.5516 301.2484 247.6421 311.0300 29647.3848 41.6253 96.9224
ENERGY: 600000 4.1664 9.7022 17.4473 0.0000 -10509.6826 1428.3487 0.0000 0.0000 1734.9967 -7315.0213 298.8499 -9050.0180 -7304.1901 302.1188 424.3330 493.0994 29433.4325 193.2624 259.8432
ENERGY: 900000 4.3167 13.9068 17.0436 0.0000 -10531.0326 1448.4000 0.0000 0.0000 1734.5304 -7312.8352 298.7696 -9047.3655 -7296.8575 302.3426 339.1469 456.9796 29976.7050 107.9257 173.7053
ENERGY: 1200000 3.2024 17.7015 17.6954 0.0000 -10518.6200 1395.1164 0.0000 0.0000 1740.2383 -7344.6660 299.7528 -9084.9043 -7310.0642 300.9115 -218.5319 -157.8883 29878.7699 30.5071 92.7224
ENERGY: 1500000 2.5577 11.5209 16.7144 0.0000 -10559.4824 1432.5918 0.0000 0.0000 1780.7692 -7315.3284 306.7342 -9096.0976 -7311.7797 300.7832 59.7222 101.2402 30187.4587 18.1677 71.1159
TCL: Running FEP window  12: Lambda1 0.4499999999999996 Lambda2 0.39999999999999963 [dLambda -0.04999999999999999]
TCL: Setting parameter firsttimestep to 0
TCL: Setting parameter alchLambda to 0.4499999999999996
Info: NONBONDED TABLE R-SQUARED SPACING: 0.0625
Info: NONBONDED TABLE SIZE: 705 POINTS
TCL: Setting parameter alchLambda2 to 0.39999999999999963
Info: NONBONDED TABLE R-SQUARED SPACING: 0.0625
Info: NONBONDED TABLE SIZE: 705 POINTS
TCL: Running for 1500000 steps
ETITLE: TS BOND ANGLE DIHED IMPRP ELECT VDW BOUNDARY MISC KINETIC TOTAL TEMP POTENTIAL TOTALAVG TEMPAVG PRESSURE GPRESSURE VOLUME PRESSAVG GPRESSAVG
ENERGY: 0 2.5577 11.5209 16.7144 0.0000 -10559.4821 1433.0213 0.0000 0.0000 1779.9336 -7315.7343 306.5902 -9095.6679 -7315.7343 306.5902 24.8464 98.1281 30187.4587 24.8464 98.1281
ENERGY: 300000 3.0877 14.2706 18.0825 0.0000 -10500.9728 1341.3038 0.0000 0.0000 1730.3316 -7393.8966 298.0464 -9124.2282 -7351.7634 301.5528 -797.3794 -763.2045 29880.9377 -107.8617 -69.4144
ENERGY: 600000 7.4433 9.4915 16.9520 0.0000 -10442.1150 1384.2634 0.0000 0.0000 1714.4297 -7309.5351 295.3073 -9023.9648 -7362.5729 300.6083 -203.1286 -260.3562 30028.8019 -185.6945 -161.1422
ENERGY: 900000 8.3763 11.3743 16.1670 0.0000 -10596.6495 1417.5119 0.0000 0.0000 1725.8709 -7417.3491 297.2780 -9143.2200 -7348.4700 300.8164 -136.0093 -59.2735 29544.9329 -107.6860 -71.9524
ENERGY: 1200000 2.2851 8.8645 16.7815 0.0000 -10512.9185 1426.6816 0.0000 0.0000 1722.4150 -7335.8908 296.6828 -9058.3059 -7339.3911 300.6537 -54.9278 33.0889 30007.0322 -25.0365 12.6438
ENERGY: 1500000 2.6292 12.7881 18.1138 0.0000 -10545.4304 1415.3341 0.0000 0.0000 1747.7881 -7348.7771 301.0532 -9096.5652 -7338.8544 300.7252 319.0656 322.3931 29511.9702 -72.7370 -31.6502
TCL: Running FEP window  13: Lambda1 0.39999999999999963 Lambda2 0.34999999999999964 [dLambda -0.04999999999999999]
TCL: Setting parameter firsttimestep to 0
TCL: Setting parameter alchLambda to 0.39999999999999963
Info: NONBONDED TABLE R-SQUARED SPACING: 0.0625
Info: NONBONDED TABLE SIZE: 705 POINTS
TCL: Setting parameter alchLambda2 to 0.34999999999999964
Info: NONBONDED TABLE R-SQUARED SPACING: 0.0625
Info: NONBONDED TABLE SIZE: 705 POINTS
TCL: Running for 1500000 steps
ETITLE: TS BOND ANGLE DIHED IMPRP ELECT VDW BOUNDARY MISC KINETIC TOTAL TEMP POTENTIAL TOTALAVG TEMPAVG PRESSURE GPRESSURE VOLUME PRESSAVG GPRESSAVG
ENERGY: 0 2.6292 12.7881 18.1138 0.0000 -10545.4295 1415.3897 0.0000 0.0000 1746.9032 -7349.6054 300.9008 -9096.5087 -7349.6054 300.9008 246.0552 313.0756 29511.9702 246.0552 313.0756
ENERGY: 300000 3.9013 8.1292 15.9244 0.0000 -10507.5350 1452.3163 0.0000 0.0000 1789.4691 -7237.7947 308.2327 -9027.2638 -7333.3546 299.8620 269.2392 379.3816 30079.8927 129.7338 219.9173
ENERGY: 600000 3.0051 9.8848 18.6781 0.0000 -10430.9125 1329.9205 0.0000 0.0000 1761.4240 -7307.9999 303.4020 -9069.4239 -7339.0632 301.2862 -756.1764 -764.5741 30271.4920 -110.4369 -47.3600
ENERGY: 900000 4.2695 13.8859 19.0410 0.0000 -10710.3542 1493.5372 0.0000 0.0000 1741.6948 -7437.9257 300.0037 -9179.6205 -7351.0209 299.8922 110.9779 202.8514 30078.1013 -174.4750 -105.0698
ENERGY: 1200000 4.7692 17.6154 17.8706 0.0000 -10603.3964 1484.9711 0.0000 0.0000 1740.1695 -7338.0006 299.7409 -9078.1701 -7344.1995 300.3134 521.0405 539.8129 29724.7705 -194.0550 -130.1161
ENERGY: 1500000 3.1628 6.9564 15.9732 0.0000 -10676.9703 1548.9395 0.0000 0.0000 1758.8627 -7343.0757 302.9608 -9101.9384 -7347.2522 299.8570 1090.4135 1146.9560 29772.9143 -101.2324 -35.9606
TCL: Running FEP window  14: Lambda1 0.34999999999999964 Lambda2 0.29999999999999966 [dLambda -0.04999999999999999]
TCL: Setting parameter firsttimestep to 0
TCL: Setting parameter alchLambda to 0.34999999999999964
Info: NONBONDED TABLE R-SQUARED SPACING: 0.0625
Info: NONBONDED TABLE SIZE: 705 POINTS
TCL: Setting parameter alchLambda2 to 0.29999999999999966
Info: NONBONDED TABLE R-SQUARED SPACING: 0.0625
Info: NONBONDED TABLE SIZE: 705 POINTS
TCL: Running for 1500000 steps
ETITLE: TS BOND ANGLE DIHED IMPRP ELECT VDW BOUNDARY MISC KINETIC TOTAL TEMP POTENTIAL TOTALAVG TEMPAVG PRESSURE GPRESSURE VOLUME PRESSAVG GPRESSAVG
ENERGY: 0 3.1628 6.9564 15.9732 0.0000 -10676.9708 1549.4196 0.0000 0.0000 1757.9843 -7343.4746 302.8095 -9101.4588 -7343.4746 302.8095 1053.9815 1146.1720 29772.9143 1053.9815 1146.1720
ENERGY: 300000 6.4937 10.8777 16.2871 0.0000 -10470.6566 1347.2527 0.0000 0.0000 1776.9007 -7312.8448 306.0678 -9089.7455 -7342.1201 299.0166 -691.5510 -668.6141 29846.4212 -97.9244 -14.8054
ENERGY: 600000 3.4485 12.7316 16.2950 0.0000 -10569.0288 1424.3952 0.0000 0.0000 1711.8981 -7400.2604 294.8712 -9112.1585 -7351.4368 299.8715 -93.9172 -27.7038 29930.0007 -70.7364 0.8575
ENERGY: 900000 2.4423 7.8783 16.6862 0.0000 -10674.2611 1505.7479 0.0000 0.0000 1722.0346 -7419.4718 296.6172 -9141.5064 -7343.6405 300.1962 577.0681 661.7623 29607.3857 -0.4124 82.1492
ENERGY: 1200000 2.4797 9.2465 20.5407 0.0000 -10484.3879 1382.5852 0.0000 0.0000 1773.8910 -7295.6448 305.5494 -9069.5358 -7339.6846 300.4159 -372.0666 -337.4667 30226.6884 -4.1092 69.2382
ENERGY: 1500000 1.8936 8.1893 18.1856 0.0000 -10551.5188 1420.4792 0.0000 0.0000 1742.4548 -7360.3165 300.1346 -9102.7713 -7349.1791 300.0256 81.4212 163.1099 29563.9437 -64.5222 3.9535
TCL: Running FEP window  15: Lambda1 0.29999999999999966 Lambda2 0.24999999999999967 [dLambda -0.04999999999999999]
TCL: Setting parameter firsttimestep to 0
TCL: Setting parameter alchLambda to 0.29999999999999966
Info: NONBONDED TABLE R-SQUARED SPACING: 0.0625
Info: NONBONDED TABLE SIZE: 705 POINTS
TCL: Setting parameter alchLambda2 to 0.24999999999999967
Info: NONBONDED TABLE R-SQUARED SPACING: 0.0625
Info: NONBONDED TABLE SIZE: 705 POINTS
TCL: Running for 1500000 steps
ETITLE: TS BOND ANGLE DIHED IMPRP ELECT VDW BOUNDARY MISC KINETIC TOTAL TEMP POTENTIAL TOTALAVG TEMPAVG PRESSURE GPRESSURE VOLUME PRESSAVG GPRESSAVG
ENERGY: 0 1.8936 8.1893 18.1856 0.0000 -10551.5189 1420.5961 0.0000 0.0000 1741.5775 -7361.0770 299.9834 -9102.6544 -7361.0770 299.9834 67.5759 159.0747 29563.9437 67.5759 159.0747
ENERGY: 300000 2.3951 9.2443 18.3882 0.0000 -10650.8197 1489.8692 0.0000 0.0000 1751.6746 -7379.2483 301.7227 -9130.9229 -7369.9659 301.9808 341.3447 398.8340 29689.7821 101.1499 156.1678
ENERGY: 600000 2.5732 10.1089 16.5801 0.0000 -10422.5104 1325.9581 0.0000 0.0000 1727.2022 -7340.0879 297.5073 -9067.2901 -7353.3914 302.0567 -787.3680 -734.8854 29908.8806 24.1425 77.2077
ENERGY: 900000 3.8250 13.2898 16.8754 0.0000 -10547.9519 1433.1155 0.0000 0.0000 1731.8767 -7348.9695 298.3125 -9080.8461 -7353.5603 300.7830 34.6321 20.8182 29980.0984 29.7733 82.3877
ENERGY: 1200000 5.5852 11.6448 17.0513 0.0000 -10389.3108 1378.1996 0.0000 0.0000 1724.6840 -7252.1459 297.0736 -8976.8300 -7339.3664 301.3167 -457.3420 -352.7317 30541.9075 -73.5250 -13.4236
ENERGY: 1500000 1.4650 9.7960 17.7164 0.0000 -10614.5445 1485.7685 0.0000 0.0000 1769.3734 -7330.4252 304.7713 -9099.7987 -7336.8579 301.6607 566.6194 601.6055 29900.8481 33.8264 96.3864
TCL: Running FEP window  16: Lambda1 0.24999999999999967 Lambda2 0.19999999999999968 [dLambda -0.04999999999999999]
TCL: Setting parameter firsttimestep to 0
TCL: Setting parameter alchLambda to 0.24999999999999967
Info: NONBONDED TABLE R-SQUARED SPACING: 0.0625
Info: NONBONDED TABLE SIZE: 705 POINTS
TCL: Setting parameter alchLambda2 to 0.19999999999999968
Info: NONBONDED TABLE R-SQUARED SPACING: 0.0625
Info: NONBONDED TABLE SIZE: 705 POINTS
TCL: Running for 1500000 steps
ETITLE: TS BOND ANGLE DIHED IMPRP ELECT VDW BOUNDARY MISC KINETIC TOTAL TEMP POTENTIAL TOTALAVG TEMPAVG PRESSURE GPRESSURE VOLUME PRESSAVG GPRESSAVG
ENERGY: 0 1.4650 9.7960 17.7164 0.0000 -10614.5457 1486.4687 0.0000 0.0000 1768.5007 -7330.5990 304.6209 -9099.0997 -7330.5990 304.6209 515.0504 599.5809 29900.8481 515.0504 599.5809
ENERGY: 300000 3.8197 11.5995 18.4103 0.0000 -10662.8975 1526.2587 0.0000 0.0000 1752.5910 -7350.2182 301.8805 -9102.8093 -7329.3767 302.9214 917.5132 882.2642 29481.4900 400.7224 437.7765
ENERGY: 600000 5.4491 13.7652 17.5462 0.0000 -10374.2868 1312.6274 0.0000 0.0000 1710.6444 -7314.2546 294.6553 -9024.8990 -7314.2626 300.5673 -653.9003 -544.0100 29757.3100 206.3780 265.7978
ENERGY: 900000 4.6343 10.1804 16.5100 0.0000 -10408.2509 1347.5090 0.0000 0.0000 1803.4658 -7225.9513 310.6436 -9029.4171 -7296.8553 302.2535 -220.6263 -231.7670 29634.4081 40.0017 102.7402
ENERGY: 1200000 2.1612 9.9005 16.3650 0.0000 -10533.5682 1389.8663 0.0000 0.0000 1776.1015 -7339.1736 305.9302 -9115.2751 -7313.0518 301.2612 -505.1167 -433.9636 30035.3853 40.8051 111.0086
ENERGY: 1500000 2.5405 10.4262 17.5696 0.0000 -10477.6141 1339.6967 0.0000 0.0000 1715.0385 -7392.3426 295.4122 -9107.3811 -7317.6746 300.5538 -715.9134 -656.9258 30012.9855 -35.5794 32.5310
TCL: Running FEP window  17: Lambda1 0.19999999999999968 Lambda2 0.1499999999999997 [dLambda -0.04999999999999999]
TCL: Setting parameter firsttimestep to 0
TCL: Setting parameter alchLambda to 0.19999999999999968
Info: NONBONDED TABLE R-SQUARED SPACING: 0.0625
Info: NONBONDED TABLE SIZE: 705 POINTS
TCL: Setting parameter alchLambda2 to 0.1499999999999997
Info: NONBONDED TABLE R-SQUARED SPACING: 0.0625
Info: NONBONDED TABLE SIZE: 705 POINTS
TCL: Running for 1500000 steps
ETITLE: TS BOND ANGLE DIHED IMPRP ELECT VDW BOUNDARY MISC KINETIC TOTAL TEMP POTENTIAL TOTALAVG TEMPAVG PRESSURE GPRESSURE VOLUME PRESSAVG GPRESSAVG
ENERGY: 0 2.5405 10.4262 17.5696 0.0000 -10477.6137 1339.6299 0.0000 0.0000 1714.1383 -7393.3092 295.2571 -9107.4475 -7393.3092 295.2571 -753.7574 -666.0296 30012.9855 -753.7574 -666.0296
ENERGY: 300000 2.1359 8.3626 17.0041 0.0000 -10518.1510 1442.4924 0.0000 0.0000 1775.9801 -7272.1758 305.9092 -9048.1559 -7317.8563 302.7752 605.3527 602.0372 29433.7460 -148.8077 -88.0781
ENERGY: 600000 4.9694 12.8717 18.2418 0.0000 -10651.5136 1503.8064 0.0000 0.0000 1786.5559 -7325.0685 307.7309 -9111.6243 -7326.0605 302.0119 864.1022 877.7069 29527.3723 -37.6386 21.3089
ENERGY: 900000 4.8071 16.8297 16.3395 0.0000 -10572.1533 1430.6748 0.0000 0.0000 1767.6371 -7335.8651 304.4722 -9103.5023 -7335.7249 301.6125 -75.1386 -37.9481 29815.3166 135.2544 196.8345
ENERGY: 1200000 3.9423 11.6587 16.7202 0.0000 -10604.3367 1435.8090 0.0000 0.0000 1735.1350 -7401.0715 298.8737 -9136.2065 -7343.5777 301.2446 101.9820 162.6086 29540.2255 51.8401 107.5500
ENERGY: 1500000 5.5090 13.6206 18.4011 0.0000 -10535.5586 1411.0736 0.0000 0.0000 1698.3952 -7388.5591 292.5454 -9086.9544 -7346.8792 300.7966 -113.6332 -68.5308 29819.3759 -16.2285 43.7208
TCL: Running FEP window  18: Lambda1 0.1499999999999997 Lambda2 0.09999999999999969 [dLambda -0.05 ]
TCL: Setting parameter firsttimestep to 0
TCL: Setting parameter alchLambda to 0.1499999999999997
Info: NONBONDED TABLE R-SQUARED SPACING: 0.0625
Info: NONBONDED TABLE SIZE: 705 POINTS
TCL: Setting parameter alchLambda2 to 0.09999999999999969
Info: NONBONDED TABLE R-SQUARED SPACING: 0.0625
Info: NONBONDED TABLE SIZE: 705 POINTS
TCL: Running for 1500000 steps
ETITLE: TS BOND ANGLE DIHED IMPRP ELECT VDW BOUNDARY MISC KINETIC TOTAL TEMP POTENTIAL TOTALAVG TEMPAVG PRESSURE GPRESSURE VOLUME PRESSAVG GPRESSAVG
ENERGY: 0 5.5090 13.6206 18.4011 0.0000 -10535.5598 1411.0547 0.0000 0.0000 1697.5129 -7389.4616 292.3934 -9086.9745 -7389.4616 292.3934 -153.8774 -76.1015 29819.3759 -153.8774 -76.1015
ENERGY: 300000 3.5702 9.8707 17.0742 0.0000 -10420.1094 1348.9531 0.0000 0.0000 1792.0600 -7248.5813 308.6790 -9040.6413 -7366.7737 299.7895 -764.6866 -627.8101 30130.2199 -6.4025 63.0415
ENERGY: 600000 6.2289 12.3901 17.3976 0.0000 -10528.1356 1423.9470 0.0000 0.0000 1727.4654 -7340.7066 297.5527 -9068.1720 -7355.5213 300.5903 -242.8349 -121.5315 29950.6392 -107.1729 -21.8761
ENERGY: 900000 4.5954 18.1281 18.0067 0.0000 -10481.6931 1429.0958 0.0000 0.0000 1755.9069 -7255.9603 302.4517 -9011.8672 -7335.2928 300.9246 55.8698 136.1370 30206.2274 -87.4024 -5.8520
ENERGY: 1200000 3.1629 14.9755 16.8889 0.0000 -10578.9553 1452.8828 0.0000 0.0000 1797.9721 -7293.0730 309.6973 -9091.0451 -7319.8244 302.6550 156.5145 171.4726 30074.2271 -27.4682 46.2980
ENERGY: 1500000 4.4609 15.0797 18.6183 0.0000 -10649.5972 1488.4764 0.0000 0.0000 1740.2152 -7382.7467 299.7488 -9122.9619 -7338.4280 301.6576 58.1423 136.3242 30183.6415 -122.5004 -55.0348
TCL: Running FEP window  19: Lambda1 0.09999999999999969 Lambda2 0.049999999999999684 [dLambda -0.05 ]
TCL: Setting parameter firsttimestep to 0
TCL: Setting parameter alchLambda to 0.09999999999999969
Info: NONBONDED TABLE R-SQUARED SPACING: 0.0625
Info: NONBONDED TABLE SIZE: 705 POINTS
TCL: Setting parameter alchLambda2 to 0.049999999999999684
Info: NONBONDED TABLE R-SQUARED SPACING: 0.0625
Info: NONBONDED TABLE SIZE: 705 POINTS
TCL: Running for 1500000 steps
ETITLE: TS BOND ANGLE DIHED IMPRP ELECT VDW BOUNDARY MISC KINETIC TOTAL TEMP POTENTIAL TOTALAVG TEMPAVG PRESSURE GPRESSURE VOLUME PRESSAVG GPRESSAVG
ENERGY: 0 4.4609 15.0797 18.6183 0.0000 -10649.5978 1488.6715 0.0000 0.0000 1739.3439 -7383.4235 299.5987 -9122.7674 -7383.4235 299.5987 49.5127 136.9249 30183.6415 49.5127 136.9249
ENERGY: 300000 1.3593 13.4594 18.7665 0.0000 -10526.1995 1434.1752 0.0000 0.0000 1751.9420 -7306.4972 301.7687 -9058.4392 -7290.9711 303.0905 160.3330 288.3397 29790.5849 259.7769 364.3606
ENERGY: 600000 1.0594 9.9163 15.5628 0.0000 -10675.0656 1475.5876 0.0000 0.0000 1748.9213 -7424.0182 301.2484 -9172.9395 -7320.3944 302.9863 160.8882 225.9349 29818.0421 166.4759 247.1774
ENERGY: 900000 2.5755 15.4353 18.6023 0.0000 -10516.9259 1402.5290 0.0000 0.0000 1754.5897 -7323.1942 302.2248 -9077.7838 -7324.3728 302.6180 60.0882 68.9578 29542.0373 32.6945 97.3170
ENERGY: 1200000 7.2389 5.8264 16.7971 0.0000 -10605.1963 1434.1000 0.0000 0.0000 1760.4452 -7380.7887 303.2334 -9141.2338 -7333.2784 301.7520 -412.1459 -400.2399 29874.6115 -97.4996 -36.8262
ENERGY: 1500000 6.6429 10.2517 19.2430 0.0000 -10504.5004 1359.4220 0.0000 0.0000 1692.7007 -7416.2401 291.5645 -9108.9408 -7333.6269 301.3950 -931.0206 -839.9738 30219.1240 -107.4902 -44.6315
TCL: Running FEP window  20: Lambda1 0.049999999999999684 Lambda2 0.0    [dLambda -0.049999999999999684]
TCL: Setting parameter firsttimestep to 0
TCL: Setting parameter alchLambda to 0.049999999999999684
Info: NONBONDED TABLE R-SQUARED SPACING: 0.0625
Info: NONBONDED TABLE SIZE: 705 POINTS
TCL: Setting parameter alchLambda2 to 0.0
Info: NONBONDED TABLE R-SQUARED SPACING: 0.0625
Info: NONBONDED TABLE SIZE: 705 POINTS
TCL: Running for 1500000 steps
ETITLE: TS BOND ANGLE DIHED IMPRP ELECT VDW BOUNDARY MISC KINETIC TOTAL TEMP POTENTIAL TOTALAVG TEMPAVG PRESSURE GPRESSURE VOLUME PRESSAVG GPRESSAVG
ENERGY: 0 6.6429 10.2517 19.2430 0.0000 -10504.4998 1359.6482 0.0000 0.0000 1691.8207 -7416.8934 291.4129 -9108.7140 -7416.8934 291.4129 -925.3201 -841.3698 30219.1240 -925.3201 -841.3698
ENERGY: 300000 2.0835 11.1692 16.6327 0.0000 -10601.7294 1476.9827 0.0000 0.0000 1755.5342 -7339.3271 302.3875 -9094.8613 -7373.6318 296.7361 121.9995 255.5345 29930.8423 -367.0481 -299.6165
ENERGY: 600000 3.8938 13.9988 18.5094 0.0000 -10591.3872 1485.8542 0.0000 0.0000 1701.9558 -7367.1752 293.1587 -9069.1310 -7368.9746 295.3648 408.5356 459.1059 29681.5686 -218.3375 -159.6858
ENERGY: 900000 4.2180 13.3746 15.9210 0.0000 -10607.5083 1457.4275 0.0000 0.0000 1791.9115 -7324.6558 308.6534 -9116.5672 -7373.7301 296.2859 -88.9454 -49.3860 30214.4052 -116.8128 -53.2066
ENERGY: 1200000 2.0427 9.0004 15.9238 0.0000 -10456.5919 1394.6127 0.0000 0.0000 1739.3262 -7295.6861 299.5957 -9035.0123 -7358.4530 296.9344 103.1471 134.1287 29631.6616 -80.3557 -15.4668
ENERGY: 1500000 3.0345 12.7122 16.6414 0.0000 -10543.5000 1450.5775 0.0000 0.0000 1756.8551 -7303.6792 302.6150 -9060.5343 -7361.5131 296.7717 237.6561 259.7012 29631.6579 -36.3083 32.0156
TCL: Exiting due to exit command.
