Info: SIMULATION PARAMETERS:
Info: TIMESTEP               2
Info: NUMBER OF STEPS        0
Info: STEPS PER CYCLE        10
Info: PERIODIC CELL BASIS 1  30.5325 0 0
Info: PERIODIC CELL BASIS 2  0 30.437 0
Info: PERIODIC CELL BASIS 3  0 0 33.428
Info: PERIODIC CELL CENTER   0 0 0
Info: WRAPPING WATERS AROUND PERIODIC BOUNDARIES ON OUTPUT.
Info: WRAPPING ALL CLUSTERS AROUND PERIODIC BOUNDARIES ON OUTPUT.
Info: FIRST LDB TIMESTEP     50
Info: LAST LDB TIMESTEP     -1
Info: HOM BACKGROUND SCALING 1
Info: PME BACKGROUND SCALING 1
Info: MIN ATOMS PER PATCH    40
Info: EMPTY PATCH LOAD       40 ATOMS
Info: VELOCITY FILE          mobley_3639400_equil.vel
Info: CENTER OF MASS MOVING INITIALLY? NO
Info: DIELECTRIC             1
Info: EXCLUDE                SCALED ONE-FOUR
Info: 1-4 ELECTROSTATICS SCALED BY 0.833333
Info: MODIFIED 1-4 VDW PARAMETERS WILL BE USED
Info: DCD FILENAME           mobley_3639400_prod.dcd
Info: DCD FREQUENCY          100000
Info: DCD FIRST STEP         100000
Info: DCD FILE WILL CONTAIN UNIT CELL DATA
Info: XST FILENAME           mobley_3639400_prod.xst
Info: XST FREQUENCY          100000
Info: NO VELOCITY DCD OUTPUT
Info: NO FORCE DCD OUTPUT
Info: OUTPUT FILENAME        mobley_3639400_prod
Info: BINARY OUTPUT FILES WILL BE USED
Info: RESTART FILENAME       mobley_3639400_prod.restart
Info: RESTART FREQUENCY      100000
Info: BINARY RESTART FILES WILL BE USED
Info: CUTOFF                 9
Info: PAIRLIST DISTANCE      11
Info: PAIRLIST SHRINK RATE   0.01
Info: PAIRLIST GROW RATE     0.01
Info: PAIRLIST TRIGGER       0.3
Info: PAIRLISTS PER CYCLE    2
Info: PAIRLISTS ENABLED
Info: MARGIN                 2
Info: HYDROGEN GROUP CUTOFF  2.5
Info: PATCH DIMENSION        15.5
Info: ENERGY OUTPUT STEPS    100000
Info: ENERGY EVALUATION STEPS    100000
Info: OUTPUT ENERGY PRECISION 4
Info: CROSSTERM ENERGY INCLUDED IN DIHEDRAL
Info: TIMING OUTPUT STEPS    1000000
Info: PRESSURE OUTPUT STEPS  100000
Info: ALCHEMICAL FEP ON
Info: FEP CURRENT LAMBDA VALUE     0
Info: FEP COMPARISON LAMBDA VALUE  0.05
Info: FEP INTRA-ALCHEMICAL NON-BONDED INTERACTIONS WILL BE RETAINED
Info: FEP INTRA-ALCHEMICAL BONDED INTERACTIONS WILL BE RETAINED
Info: FEP VDW SHIFTING COEFFICIENT 5
Info: FEP ELEC. ACTIVE FOR ANNIHILATED PARTICLES BETWEEN LAMBDA = 0 AND LAMBDA = 0.5
Info: FEP ELEC. ACTIVE FOR EXNIHILATED PARTICLES BETWEEN LAMBDA = 0.5 AND LAMBDA = 1
Info: FEP VDW ACTIVE FOR ANNIHILATED PARTICLES BETWEEN LAMBDA = 0 AND LAMBDA = 1
Info: FEP VDW ACTIVE FOR EXNIHILATED PARTICLES BETWEEN LAMBDA = 0 AND LAMBDA = 1
Info: FEP BOND ACTIVE FOR ANNIHILATED PARTICLES BETWEEN LAMBDA = 1 AND LAMBDA = 1
Info: FEP BOND ACTIVE FOR EXNIHILATED PARTICLES BETWEEN LAMBDA = 0 AND LAMBDA = 0
Info: LANGEVIN DYNAMICS ACTIVE
Info: LANGEVIN TEMPERATURE   300
Info: LANGEVIN USING BBK INTEGRATOR
Info: LANGEVIN DAMPING COEFFICIENT IS 1 INVERSE PS
Info: LANGEVIN DYNAMICS APPLIED TO HYDROGENS
Info: LANGEVIN PISTON PRESSURE CONTROL ACTIVE
Info:        TARGET PRESSURE IS 1.01325 BAR
Info:     OSCILLATION PERIOD IS 50 FS
Info:             DECAY TIME IS 25 FS
Info:     PISTON TEMPERATURE IS 300 K
Info:       PRESSURE CONTROL IS GROUP-BASED
Info:    INITIAL STRAIN RATE IS 0.000929183 0.000929183 0.000929183
Info:       CELL FLUCTUATION IS ISOTROPIC
Info: PARTICLE MESH EWALD (PME) ACTIVE
Info: PME TOLERANCE               1e-06
Info: PME EWALD COEFFICIENT       0.348832
Info: PME INTERPOLATION ORDER     4
Info: PME GRID DIMENSIONS         32 32 36
Info: PME MAXIMUM GRID SPACING    1
Info: PME CALCULATION WILL BE PERFORMED ON GPU
Info: FULL ELECTROSTATIC EVALUATION FREQUENCY      2
Info: USING VERLET I (r-RESPA) MTS SCHEME.
Info: C1 SPLITTING OF LONG RANGE ELECTROSTATICS
Info: PLACING ATOMS IN PATCHES BY HYDROGEN GROUPS
Info: RIGID BONDS TO HYDROGEN : ALL
Info:         ERROR TOLERANCE : 1e-08
Info:          MAX ITERATIONS : 100
Info: RIGID WATER USING SETTLE ALGORITHM
Info: RANDOM NUMBER SEED     1743831114
Info: USE HYDROGEN BONDS?    NO
Info: Using AMBER format force field!
Info: AMBER PARM FILE        mobley_3639400.prmtop
Info: COORDINATE PDB         mobley_3639400.pdb
Info: Exclusions will be read from PARM file!
Info: SCNB (VDW SCALING)     2
Info: USING ARITHMETIC MEAN TO COMBINE L-J SIGMA PARAMETERS
Info: BINARY COORDINATES     mobley_3639400_equil.coor
Info: SUMMARY OF PARAMETERS:
Info: 6 BONDS
Info: 7 ANGLES
Info:   7 HARMONIC
Info:   0 COSINE-BASED
Info: 8 DIHEDRAL
Info: 0 IMPROPER
Info: 0 CROSSTERM
Info: 0 VDW
Info: 21 VDW_PAIRS
Info: 0 NBTHOLE_PAIRS
Info: To read alchdata from file: mobley_3639400.pdb
Info: To read alchflag data from column: 5
Info: STRUCTURE SUMMARY:
Info: 2984 ATOMS
Info: 2983 BONDS
Info: 24 ANGLES
Info: 31 DIHEDRALS
Info: 0 IMPROPERS
Info: 0 CROSSTERMS
Info: 3034 EXCLUSIONS
Info: 2979 RIGID BONDS
Info: ALCH: 0 ATOMS TO DISAPPEAR IN FINAL STATE
Info: ALCH: 14 ATOMS TO APPEAR IN FINAL STATE
Info: 5973 DEGREES OF FREEDOM
Info: 995 HYDROGEN GROUPS
Info: 4 ATOMS IN LARGEST HYDROGEN GROUP
Info: 995 MIGRATION GROUPS
Info: 4 ATOMS IN LARGEST MIGRATION GROUP
Info: TOTAL MASS = 17928.4 amu
Info: TOTAL CHARGE = 0.000200015 e
Info: MASS DENSITY = 0.958357 g/cm^3
Info: ATOM DENSITY = 0.0960562 atoms/A^3
Info: ADDED 0 IMPLICIT EXCLUSIONS
Info: NONBONDED TABLE R-SQUARED SPACING: 0.0625
Info: NONBONDED TABLE SIZE: 705 POINTS
Info: REMOVING COM VELOCITY 0.229217 0.0469275 -0.0893259
Info: Use 3D box decompostion in PME FFT.
Info: Updated CUDA force table with 4096 elements.
Info: Updated CUDA LJ table with 6 x 6 elements.
Info: Found 17 unique exclusion lists needing 36 bytes
TCL: Running for 1500000 steps
ETITLE: TS BOND ANGLE DIHED IMPRP ELECT VDW BOUNDARY MISC KINETIC TOTAL TEMP POTENTIAL TOTALAVG TEMPAVG PRESSURE GPRESSURE VOLUME PRESSAVG GPRESSAVG
ENERGY: 0 1.8358 4.4554 2.2727 0.0000 -10724.1312 1349.3026 0.0000 0.0000 1779.7583 -7586.5065 299.8879 -9366.2648 -7586.5065 299.8879 -1186.8264 -1095.4395 31065.1494 -1186.8264 -1095.4395
ENERGY: 300000 4.0560 5.5427 2.6206 0.0000 -10767.9503 1421.9953 0.0000 0.0000 1747.2032 -7586.5326 294.4024 -9333.7358 -7603.0654 296.2242 -307.6735 -223.5711 30284.2353 -377.6536 -297.1315
ENERGY: 600000 0.4122 5.5177 1.9610 0.0000 -10963.9619 1581.1229 0.0000 0.0000 1786.7608 -7588.1873 301.0678 -9374.9481 -7589.3057 298.5396 674.1643 809.5075 30728.1620 -43.3946 31.5090
ENERGY: 900000 2.0947 4.5562 1.7687 0.0000 -10833.9117 1458.6426 0.0000 0.0000 1705.4652 -7661.3842 287.3695 -9366.8494 -7588.0023 297.8461 148.8351 214.1254 30036.5427 16.5889 87.4870
ENERGY: 1200000 0.9236 4.1769 1.5014 0.0000 -10635.8178 1388.4637 0.0000 0.0000 1746.0951 -7494.6571 294.2156 -9240.7522 -7578.6657 297.4427 -471.1671 -390.7035 31145.3006 -5.6045 66.4368
ENERGY: 1500000 1.3638 9.8790 1.2661 0.0000 -10752.1646 1418.5320 0.0000 0.0000 1750.3491 -7570.7746 294.9324 -9321.1237 -7568.1818 297.9312 46.0894 77.7147 30357.7372 38.9823 109.5155
TCL: Running FEP window   2: Lambda1 0.05   Lambda2 0.1    [dLambda 0.05  ]
TCL: Setting parameter firsttimestep to 0
TCL: Setting parameter alchLambda to 0.05
Info: NONBONDED TABLE R-SQUARED SPACING: 0.0625
Info: NONBONDED TABLE SIZE: 705 POINTS
TCL: Setting parameter alchLambda2 to 0.1
Info: NONBONDED TABLE R-SQUARED SPACING: 0.0625
Info: NONBONDED TABLE SIZE: 705 POINTS
TCL: Running for 1500000 steps
ETITLE: TS BOND ANGLE DIHED IMPRP ELECT VDW BOUNDARY MISC KINETIC TOTAL TEMP POTENTIAL TOTALAVG TEMPAVG PRESSURE GPRESSURE VOLUME PRESSAVG GPRESSAVG
ENERGY: 0 1.3638 9.8790 1.2661 0.0000 -10752.1625 1419.2822 0.0000 0.0000 1749.4848 -7570.8866 294.7868 -9320.3714 -7570.8866 294.7868 4.6442 83.6445 30357.7372 4.6442 83.6445
ENERGY: 300000 0.8640 3.5431 1.8138 0.0000 -10819.9337 1417.2521 0.0000 0.0000 1768.8883 -7627.5724 298.0563 -9396.4607 -7559.5128 298.7366 -454.0271 -484.6916 30836.4326 -201.5769 -155.4425
ENERGY: 600000 0.3253 5.0077 4.2806 0.0000 -10894.8649 1522.5579 0.0000 0.0000 1751.0183 -7611.6751 295.0452 -9362.6935 -7580.4484 298.6679 560.7073 618.9938 30487.5903 -13.6750 37.1446
ENERGY: 900000 0.2850 11.3826 2.4511 0.0000 -10877.2760 1502.8286 0.0000 0.0000 1809.4734 -7550.8553 304.8948 -9360.3287 -7582.3128 299.2761 374.1806 427.7510 30561.0452 -51.3626 12.4375
ENERGY: 1200000 0.8822 4.2388 1.4646 0.0000 -10876.9323 1491.4125 0.0000 0.0000 1794.9604 -7583.9738 302.4494 -9378.9342 -7579.3205 299.5956 34.5419 82.2288 30920.2726 11.9832 67.5682
ENERGY: 1500000 3.5651 5.0029 1.9325 0.0000 -10717.2836 1428.1216 0.0000 0.0000 1731.9262 -7546.7353 291.8282 -9278.6615 -7573.9928 298.9954 -223.9733 -228.1328 31173.2450 52.9455 106.1607
TCL: Running FEP window   3: Lambda1 0.1    Lambda2 0.15000000000000002 [dLambda 0.05000000000000002]
TCL: Setting parameter firsttimestep to 0
TCL: Setting parameter alchLambda to 0.1
Info: NONBONDED TABLE R-SQUARED SPACING: 0.0625
Info: NONBONDED TABLE SIZE: 705 POINTS
TCL: Setting parameter alchLambda2 to 0.15000000000000002
Info: NONBONDED TABLE R-SQUARED SPACING: 0.0625
Info: NONBONDED TABLE SIZE: 705 POINTS
TCL: Running for 1500000 steps
ETITLE: TS BOND ANGLE DIHED IMPRP ELECT VDW BOUNDARY MISC KINETIC TOTAL TEMP POTENTIAL TOTALAVG TEMPAVG PRESSURE GPRESSURE VOLUME PRESSAVG GPRESSAVG
ENERGY: 0 3.5651 5.0029 1.9325 0.0000 -10717.2822 1429.4460 0.0000 0.0000 1731.0376 -7546.2980 291.6785 -9277.3356 -7546.2980 291.6785 -300.5532 -218.3576 31173.2450 -300.5532 -218.3576
ENERGY: 300000 0.6252 5.9811 2.2973 0.0000 -10805.3040 1432.5030 0.0000 0.0000 1766.1450 -7597.7524 297.5940 -9363.8974 -7546.9433 299.4405 -263.6217 -252.0254 30762.0018 -490.0124 -424.8997
ENERGY: 600000 2.7841 8.9383 1.6719 0.0000 -10840.4387 1461.7654 0.0000 0.0000 1786.2916 -7578.9873 300.9887 -9365.2789 -7551.2549 299.5859 -33.9590 34.5087 30438.6584 -369.6891 -295.9747
ENERGY: 900000 0.7462 5.3790 2.8161 0.0000 -10944.9809 1576.7724 0.0000 0.0000 1811.9435 -7547.3237 305.3110 -9359.2672 -7558.8102 300.2478 1025.5568 1158.8675 30124.4494 -129.6388 -52.1817
ENERGY: 1200000 1.2384 7.2950 1.0671 0.0000 -10674.6488 1365.1650 0.0000 0.0000 1739.2641 -7560.6193 293.0646 -9299.8833 -7560.8676 299.9499 -694.9621 -564.9968 30703.6146 -89.1162 -10.6592
ENERGY: 1500000 1.4211 6.4549 1.4362 0.0000 -10751.1163 1398.7283 0.0000 0.0000 1766.0463 -7577.0295 297.5774 -9343.0758 -7563.4171 299.4758 -417.7113 -271.8737 30387.2444 -67.1485 9.5504
TCL: Running FEP window   4: Lambda1 0.15000000000000002 Lambda2 0.2    [dLambda 0.04999999999999999]
TCL: Setting parameter firsttimestep to 0
TCL: Setting parameter alchLambda to 0.15000000000000002
Info: NONBONDED TABLE R-SQUARED SPACING: 0.0625
Info: NONBONDED TABLE SIZE: 705 POINTS
TCL: Setting parameter alchLambda2 to 0.2
Info: NONBONDED TABLE R-SQUARED SPACING: 0.0625
Info: NONBONDED TABLE SIZE: 705 POINTS
TCL: Running for 1500000 steps
ETITLE: TS BOND ANGLE DIHED IMPRP ELECT VDW BOUNDARY MISC KINETIC TOTAL TEMP POTENTIAL TOTALAVG TEMPAVG PRESSURE GPRESSURE VOLUME PRESSAVG GPRESSAVG
ENERGY: 0 1.4211 6.4549 1.4362 0.0000 -10751.1154 1398.8244 0.0000 0.0000 1765.1191 -7577.8597 297.4212 -9342.9788 -7577.8597 297.4212 -354.9522 -269.7592 30387.2444 -354.9522 -269.7592
ENERGY: 300000 1.2895 7.3639 2.7391 0.0000 -10844.2629 1473.7853 0.0000 0.0000 1789.7194 -7569.3657 301.5663 -9359.0851 -7588.4156 299.9933 62.5119 134.5171 30597.3469 33.3781 93.8989
ENERGY: 600000 0.8553 6.0977 1.3097 0.0000 -10706.0201 1404.6519 0.0000 0.0000 1779.0677 -7514.0378 299.7715 -9293.1055 -7565.3764 299.4621 -374.4270 -329.6931 30983.6184 -150.8565 -93.7595
ENERGY: 900000 1.8714 3.9942 1.1002 0.0000 -10906.8604 1514.8210 0.0000 0.0000 1735.0962 -7649.9774 292.3623 -9385.0736 -7569.6623 298.8255 419.3933 486.2662 30393.9236 -169.7095 -121.5818
ENERGY: 1200000 0.4069 4.3137 2.2419 0.0000 -10758.7489 1397.1940 0.0000 0.0000 1726.8642 -7627.7283 290.9753 -9354.5925 -7567.9279 299.2624 -811.4261 -687.4166 30897.8065 -216.0104 -163.5032
ENERGY: 1500000 0.6109 3.3089 1.3784 0.0000 -10986.0197 1613.3816 0.0000 0.0000 1787.4039 -7579.9360 301.1761 -9367.3398 -7567.6930 299.4455 1137.9054 1193.2910 30559.9108 -9.3141 46.5577
TCL: Running FEP window   5: Lambda1 0.2    Lambda2 0.25   [dLambda 0.04999999999999999]
TCL: Setting parameter firsttimestep to 0
TCL: Setting parameter alchLambda to 0.2
Info: NONBONDED TABLE R-SQUARED SPACING: 0.0625
Info: NONBONDED TABLE SIZE: 705 POINTS
TCL: Setting parameter alchLambda2 to 0.25
Info: NONBONDED TABLE R-SQUARED SPACING: 0.0625
Info: NONBONDED TABLE SIZE: 705 POINTS
TCL: Running for 1500000 steps
ETITLE: TS BOND ANGLE DIHED IMPRP ELECT VDW BOUNDARY MISC KINETIC TOTAL TEMP POTENTIAL TOTALAVG TEMPAVG PRESSURE GPRESSURE VOLUME PRESSAVG GPRESSAVG
ENERGY: 0 0.6109 3.3089 1.3784 0.0000 -10986.0187 1614.6921 0.0000 0.0000 1786.4534 -7579.5751 301.0160 -9366.0285 -7579.5751 301.0160 1113.4439 1201.2804 30559.9108 1113.4439 1201.2804
ENERGY: 300000 2.8335 6.0966 1.6194 0.0000 -10707.2550 1416.3217 0.0000 0.0000 1798.6967 -7481.6871 303.0790 -9280.3838 -7533.4152 300.5758 -301.0432 -328.8635 30735.8979 167.0763 213.7787
ENERGY: 600000 0.2646 5.8706 1.1718 0.0000 -10727.9042 1376.3311 0.0000 0.0000 1831.9110 -7512.3551 308.6756 -9344.2661 -7561.9781 301.8485 -677.1340 -586.5543 30708.1409 48.9064 105.4290
ENERGY: 900000 0.6469 6.8168 2.8316 0.0000 -10847.4391 1435.1600 0.0000 0.0000 1776.8736 -7625.1102 299.4018 -9401.9838 -7568.1763 302.1366 -412.9736 -370.7445 30842.0442 95.2266 164.0076
ENERGY: 1200000 0.1260 4.8565 1.6801 0.0000 -10942.0274 1585.3984 0.0000 0.0000 1839.2558 -7510.7106 309.9131 -9349.9664 -7555.4121 303.2153 950.7372 1030.8518 30630.9480 99.8685 163.8651
ENERGY: 1500000 0.7903 4.9534 1.4635 0.0000 -10887.1228 1534.6843 0.0000 0.0000 1772.7263 -7572.5049 298.7030 -9345.2313 -7553.5213 303.2842 477.8729 542.8763 30703.0788 137.7107 193.8950
TCL: Running FEP window   6: Lambda1 0.25   Lambda2 0.3    [dLambda 0.04999999999999999]
TCL: Setting parameter firsttimestep to 0
TCL: Setting parameter alchLambda to 0.25
Info: NONBONDED TABLE R-SQUARED SPACING: 0.0625
Info: NONBONDED TABLE SIZE: 705 POINTS
TCL: Setting parameter alchLambda2 to 0.3
Info: NONBONDED TABLE R-SQUARED SPACING: 0.0625
Info: NONBONDED TABLE SIZE: 705 POINTS
TCL: Running for 1500000 steps
ETITLE: TS BOND ANGLE DIHED IMPRP ELECT VDW BOUNDARY MISC KINETIC TOTAL TEMP POTENTIAL TOTALAVG TEMPAVG PRESSURE GPRESSURE VOLUME PRESSAVG GPRESSAVG
ENERGY: 0 0.7903 4.9534 1.4635 0.0000 -10887.1225 1535.8992 0.0000 0.0000 1771.8173 -7572.1989 298.5498 -9344.0161 -7572.1989 298.5498 460.4799 551.5939 30703.0788 460.4799 551.5939
ENERGY: 300000 1.6988 5.4408 1.6305 0.0000 -10810.6845 1481.8282 0.0000 0.0000 1825.7634 -7494.3229 307.6397 -9320.0862 -7535.9425 301.9069 62.0031 142.5214 30676.9175 -45.7168 27.3662
ENERGY: 600000 1.0742 9.4797 1.3814 0.0000 -10560.0422 1305.8288 0.0000 0.0000 1723.4206 -7518.8575 290.3950 -9242.2781 -7552.2946 299.9886 -703.9679 -659.7345 30498.0013 -50.5803 17.5428
ENERGY: 900000 0.9042 8.4250 2.9808 0.0000 -10783.9944 1405.4472 0.0000 0.0000 1769.1987 -7597.0384 298.1086 -9366.2371 -7563.8658 300.1538 -536.7149 -474.6478 30720.1892 -83.1261 -17.5870
ENERGY: 1200000 0.2107 7.4464 1.2643 0.0000 -10903.3157 1499.5721 0.0000 0.0000 1773.8235 -7620.9985 298.8879 -9394.8221 -7580.6989 299.5694 74.2906 182.7132 30750.0183 -145.4724 -80.2421
ENERGY: 1500000 3.1082 6.2786 2.8518 0.0000 -10998.3765 1524.3697 0.0000 0.0000 1843.3048 -7618.4635 310.5954 -9461.7683 -7574.1338 301.5107 464.1415 481.7288 30110.0764 -40.2649 23.1703
TCL: Running FEP window   7: Lambda1 0.3    Lambda2 0.35   [dLambda 0.04999999999999999]
TCL: Setting parameter firsttimestep to 0
TCL: Setting parameter alchLambda to 0.3
Info: NONBONDED TABLE R-SQUARED SPACING: 0.0625
Info: NONBONDED TABLE SIZE: 705 POINTS
TCL: Setting parameter alchLambda2 to 0.35
Info: NONBONDED TABLE R-SQUARED SPACING: 0.0625
Info: NONBONDED TABLE SIZE: 705 POINTS
TCL: Running for 1500000 steps
ETITLE: TS BOND ANGLE DIHED IMPRP ELECT VDW BOUNDARY MISC KINETIC TOTAL TEMP POTENTIAL TOTALAVG TEMPAVG PRESSURE GPRESSURE VOLUME PRESSAVG GPRESSAVG
ENERGY: 0 3.1082 6.2786 2.8518 0.0000 -10998.3759 1524.3422 0.0000 0.0000 1842.4257 -7619.3694 310.4473 -9461.7951 -7619.3694 310.4473 402.9084 480.5148 30110.0764 402.9084 480.5148
ENERGY: 300000 1.1796 5.3578 2.2497 0.0000 -10847.6338 1463.8208 0.0000 0.0000 1812.9453 -7562.0806 305.4799 -9375.0259 -7597.5519 302.5049 -193.9268 -21.0134 30726.0118 -10.9804 73.0792
ENERGY: 600000 0.5083 6.2432 1.9717 0.0000 -10619.7301 1288.1284 0.0000 0.0000 1760.8319 -7562.0466 296.6988 -9322.8784 -7594.9610 298.2736 -1317.4422 -1233.8120 30726.8468 -250.4018 -167.1779
ENERGY: 900000 1.5564 6.6692 1.5786 0.0000 -10993.1058 1599.8842 0.0000 0.0000 1810.1521 -7573.2653 305.0092 -9383.4174 -7583.1999 299.1976 1298.7091 1366.9456 29912.6089 27.9138 100.7109
ENERGY: 1200000 0.7680 4.1277 1.5110 0.0000 -10802.5326 1445.4574 0.0000 0.0000 1750.1151 -7600.5534 294.8930 -9350.6685 -7585.4823 298.3309 -325.8643 -290.8417 31074.6768 50.1618 118.4953
ENERGY: 1500000 1.6338 4.7461 1.3199 0.0000 -10853.4371 1507.6351 0.0000 0.0000 1837.1680 -7500.9341 309.5613 -9338.1021 -7577.6798 299.0797 393.8767 523.2478 30570.4900 21.7208 92.4245
TCL: Running FEP window   8: Lambda1 0.35   Lambda2 0.39999999999999997 [dLambda 0.04999999999999999]
TCL: Setting parameter firsttimestep to 0
TCL: Setting parameter alchLambda to 0.35
Info: NONBONDED TABLE R-SQUARED SPACING: 0.0625
Info: NONBONDED TABLE SIZE: 705 POINTS
TCL: Setting parameter alchLambda2 to 0.39999999999999997
Info: NONBONDED TABLE R-SQUARED SPACING: 0.0625
Info: NONBONDED TABLE SIZE: 705 POINTS
TCL: Running for 1500000 steps
ETITLE: TS BOND ANGLE DIHED IMPRP ELECT VDW BOUNDARY MISC KINETIC TOTAL TEMP POTENTIAL TOTALAVG TEMPAVG PRESSURE GPRESSURE VOLUME PRESSAVG GPRESSAVG
ENERGY: 0 1.6338 4.7461 1.3199 0.0000 -10853.4357 1507.6409 0.0000 0.0000 1836.3052 -7501.7898 309.4160 -9338.0950 -7501.7898 309.4160 433.3387 525.4515 30570.4900 433.3387 525.4515
ENERGY: 300000 2.6842 7.9714 2.7281 0.0000 -10746.2986 1477.4106 0.0000 0.0000 1750.8765 -7504.6278 295.0213 -9255.5043 -7550.9285 296.4130 487.6631 490.4363 30599.2490 339.0525 398.6543
ENERGY: 600000 0.3260 6.0345 3.2459 0.0000 -10919.6016 1510.8400 0.0000 0.0000 1785.9227 -7613.2325 300.9266 -9399.1552 -7577.8947 296.0122 99.6333 172.1181 30700.4881 236.2864 296.5539
ENERGY: 900000 0.7045 7.2725 1.8825 0.0000 -10733.2875 1342.7500 0.0000 0.0000 1793.6546 -7587.0233 302.2294 -9380.6779 -7560.5411 298.2191 -1020.8167 -946.0484 30666.8659 -33.7318 28.6941
ENERGY: 1200000 1.8074 6.2609 1.5602 0.0000 -10766.5912 1439.9388 0.0000 0.0000 1806.8510 -7510.1729 304.4530 -9317.0239 -7559.6359 299.3139 419.2385 469.2892 30214.5433 75.8462 135.2172
ENERGY: 1500000 0.6346 8.8768 0.9277 0.0000 -10746.4631 1373.8310 0.0000 0.0000 1759.7358 -7602.4572 296.5141 -9362.1930 -7560.3945 299.6764 -955.3284 -882.0030 31149.8936 32.2478 97.1676
TCL: Running FEP window   9: Lambda1 0.39999999999999997 Lambda2 0.44999999999999996 [dLambda 0.04999999999999999]
TCL: Setting parameter firsttimestep to 0
TCL: Setting parameter alchLambda to 0.39999999999999997
Info: NONBONDED TABLE R-SQUARED SPACING: 0.0625
Info: NONBONDED TABLE SIZE: 705 POINTS
TCL: Setting parameter alchLambda2 to 0.44999999999999996
Info: NONBONDED TABLE R-SQUARED SPACING: 0.0625
Info: NONBONDED TABLE SIZE: 705 POINTS
TCL: Running for 1500000 steps
ETITLE: TS BOND ANGLE DIHED IMPRP ELECT VDW BOUNDARY MISC KINETIC TOTAL TEMP POTENTIAL TOTALAVG TEMPAVG PRESSURE GPRESSURE VOLUME PRESSAVG GPRESSAVG
ENERGY: 0 0.6346 8.8768 0.9277 0.0000 -10746.4629 1374.1391 0.0000 0.0000 1758.8826 -7603.0021 296.3703 -9361.8847 -7603.0021 296.3703 -953.3093 -875.0672 31149.8936 -953.3093 -875.0672
ENERGY: 300000 1.2064 4.9540 2.6209 0.0000 -10806.1089 1390.6435 0.0000 0.0000 1809.4627 -7597.2215 304.8930 -9406.6841 -7612.2949 295.1529 -674.7035 -522.6425 30533.8055 -417.7506 -326.0063
ENERGY: 600000 0.7299 8.4430 1.5001 0.0000 -10756.3969 1360.8277 0.0000 0.0000 1744.6624 -7640.2337 293.9742 -9384.8962 -7605.1608 296.3750 -971.2427 -907.9617 31133.6728 -422.0748 -324.4804
ENERGY: 900000 0.5695 4.9319 2.0110 0.0000 -10712.8354 1370.4000 0.0000 0.0000 1748.5855 -7586.3376 294.6353 -9334.9231 -7591.8714 296.9237 -474.3223 -363.8888 30374.0018 -384.8037 -283.2811
ENERGY: 1200000 0.1890 6.8089 1.7132 0.0000 -10866.3390 1423.0386 0.0000 0.0000 1767.6071 -7666.9822 297.8404 -9434.5892 -7604.1388 296.9892 -636.3972 -582.7174 30960.9502 -338.8760 -247.8584
ENERGY: 1500000 1.2678 7.8544 1.3562 0.0000 -10913.2657 1493.7106 0.0000 0.0000 1858.4804 -7550.5964 313.1525 -9409.0768 -7595.8840 298.1126 157.0895 155.3421 30751.7330 -298.8012 -227.8514
TCL: Running FEP window  10: Lambda1 0.44999999999999996 Lambda2 0.49999999999999994 [dLambda 0.04999999999999999]
TCL: Setting parameter firsttimestep to 0
TCL: Setting parameter alchLambda to 0.44999999999999996
Info: NONBONDED TABLE R-SQUARED SPACING: 0.0625
Info: NONBONDED TABLE SIZE: 705 POINTS
TCL: Setting parameter alchLambda2 to 0.49999999999999994
Info: NONBONDED TABLE R-SQUARED SPACING: 0.0625
Info: NONBONDED TABLE SIZE: 705 POINTS
TCL: Running for 1500000 steps
ETITLE: TS BOND ANGLE DIHED IMPRP ELECT VDW BOUNDARY MISC KINETIC TOTAL TEMP POTENTIAL TOTALAVG TEMPAVG PRESSURE GPRESSURE VOLUME PRESSAVG GPRESSAVG
ENERGY: 0 1.2678 7.8544 1.3562 0.0000 -10913.2672 1493.4598 0.0000 0.0000 1857.6033 -7551.7257 313.0047 -9409.3291 -7551.7257 313.0047 61.0919 156.7166 30751.7330 61.0919 156.7166
ENERGY: 300000 0.4309 4.9776 1.5937 0.0000 -10870.3311 1506.8407 0.0000 0.0000 1783.6760 -7572.8123 300.5480 -9356.4883 -7557.2074 302.4715 288.9192 374.6687 30783.6662 -87.4522 0.9821
ENERGY: 600000 0.4890 3.7456 1.5606 0.0000 -10794.9688 1416.5566 0.0000 0.0000 1775.5370 -7597.0800 299.1766 -9372.6170 -7559.1192 301.1762 -472.4425 -464.6479 30952.5129 -120.0763 -47.1294
ENERGY: 900000 1.4001 4.0491 3.0553 0.0000 -10728.3212 1371.0093 0.0000 0.0000 1850.1630 -7498.6444 311.7510 -9348.8073 -7563.7958 300.3122 -941.3544 -814.4029 31134.2718 -258.3648 -175.1452
ENERGY: 1200000 1.4635 5.9205 1.7462 0.0000 -10775.9255 1425.8902 0.0000 0.0000 1806.0760 -7534.8291 304.3224 -9340.9052 -7564.2110 300.0552 -266.2337 -151.9339 30491.0911 -228.1564 -145.2902
ENERGY: 1500000 0.8562 6.3737 2.6888 0.0000 -10682.8742 1368.4882 0.0000 0.0000 1773.6795 -7530.7877 298.8636 -9304.4672 -7559.0250 299.6498 -659.8297 -587.2308 30829.6042 -307.8548 -234.7147
TCL: Running FEP window  11: Lambda1 0.49999999999999994 Lambda2 0.5499999999999999 [dLambda 0.04999999999999999]
TCL: Setting parameter firsttimestep to 0
TCL: Setting parameter alchLambda to 0.49999999999999994
Info: NONBONDED TABLE R-SQUARED SPACING: 0.0625
Info: NONBONDED TABLE SIZE: 705 POINTS
TCL: Setting parameter alchLambda2 to 0.5499999999999999
Info: NONBONDED TABLE R-SQUARED SPACING: 0.0625
Info: NONBONDED TABLE SIZE: 705 POINTS
TCL: Running for 1500000 steps
ETITLE: TS BOND ANGLE DIHED IMPRP ELECT VDW BOUNDARY MISC KINETIC TOTAL TEMP POTENTIAL TOTALAVG TEMPAVG PRESSURE GPRESSURE VOLUME PRESSAVG GPRESSAVG
ENERGY: 0 0.8562 6.3737 2.6888 0.0000 -10682.8743 1369.2256 0.0000 0.0000 1772.8064 -7530.9236 298.7165 -9303.7300 -7530.9236 298.7165 -670.7203 -574.2509 30829.6042 -670.7203 -574.2509
ENERGY: 300000 0.0402 4.4405 4.0405 0.0000 -10884.9204 1529.8268 0.0000 0.0000 1767.3641 -7579.2083 297.7995 -9346.5724 -7584.0036 295.0100 308.0806 431.7600 31229.2292 46.5293 134.9561
ENERGY: 600000 2.1335 4.3899 1.7612 0.0000 -10819.9154 1414.8665 0.0000 0.0000 1730.9490 -7665.8152 291.6635 -9396.7642 -7577.4807 296.9371 -515.1576 -437.8837 30934.4019 -60.6749 25.1797
ENERGY: 900000 1.2861 3.7182 1.4916 0.0000 -10872.1174 1481.0581 0.0000 0.0000 1852.0277 -7532.5359 312.0652 -9384.5635 -7576.6029 298.3571 193.2900 267.8703 30425.5152 -106.9813 -31.8910
ENERGY: 1200000 1.5255 6.2604 1.8181 0.0000 -10637.3405 1401.6287 0.0000 0.0000 1782.7723 -7443.3355 300.3957 -9226.1078 -7567.1791 298.2845 -110.3349 -26.8473 31058.5431 -78.5237 -8.7635
ENERGY: 1500000 1.2145 8.6875 1.5369 0.0000 -10759.9334 1411.8254 0.0000 0.0000 1736.2778 -7600.3913 292.5614 -9336.6690 -7562.6181 298.9993 -271.7725 -241.1725 30784.6654 -71.6035 -2.3240
TCL: Running FEP window  12: Lambda1 0.5499999999999999 Lambda2 0.6    [dLambda 0.050000000000000044]
TCL: Setting parameter firsttimestep to 0
TCL: Setting parameter alchLambda to 0.5499999999999999
Info: NONBONDED TABLE R-SQUARED SPACING: 0.0625
Info: NONBONDED TABLE SIZE: 705 POINTS
TCL: Setting parameter alchLambda2 to 0.6
Info: NONBONDED TABLE R-SQUARED SPACING: 0.0625
Info: NONBONDED TABLE SIZE: 705 POINTS
TCL: Running for 1500000 steps
ETITLE: TS BOND ANGLE DIHED IMPRP ELECT VDW BOUNDARY MISC KINETIC TOTAL TEMP POTENTIAL TOTALAVG TEMPAVG PRESSURE GPRESSURE VOLUME PRESSAVG GPRESSAVG
ENERGY: 0 1.2145 8.6875 1.5369 0.0000 -10759.8371 1411.8898 0.0000 0.0000 1735.3897 -7601.1187 292.4118 -9336.5084 -7601.1187 292.4118 -310.8267 -236.5786 30784.6654 -310.8267 -236.5786
ENERGY: 300000 3.0212 6.6554 1.3618 0.0000 -10788.3427 1404.6967 0.0000 0.0000 1773.8293 -7598.7783 298.8888 -9372.6076 -7537.1851 301.7558 -312.7960 -214.5224 30297.6464 -276.8170 -216.5869
ENERGY: 600000 0.5120 7.1690 2.4859 0.0000 -10869.3368 1462.7945 0.0000 0.0000 1759.1553 -7637.2201 296.4163 -9396.3754 -7566.7563 300.5256 189.7861 228.3387 30170.3307 73.2930 130.7609
ENERGY: 900000 3.2825 5.3253 1.7248 0.0000 -10823.1449 1430.3805 0.0000 0.0000 1827.5191 -7554.9127 307.9355 -9382.4317 -7568.9824 301.0309 -411.3235 -283.6365 30737.7217 124.6707 187.1347
ENERGY: 1200000 0.8856 5.2774 2.2980 0.0000 -10696.9100 1361.3401 0.0000 0.0000 1765.4009 -7561.7080 297.4687 -9327.1089 -7554.8207 301.8860 -604.1701 -541.0244 30452.9832 37.2243 94.5835
ENERGY: 1500000 0.7297 5.0413 2.7588 0.0000 -10796.7043 1458.5187 0.0000 0.0000 1783.6595 -7545.9963 300.5452 -9329.6558 -7554.4194 302.0314 79.1989 134.7208 30787.4802 50.8918 109.1648
TCL: Running FEP window  13: Lambda1 0.6    Lambda2 0.65   [dLambda 0.050000000000000044]
TCL: Setting parameter firsttimestep to 0
TCL: Setting parameter alchLambda to 0.6
Info: NONBONDED TABLE R-SQUARED SPACING: 0.0625
Info: NONBONDED TABLE SIZE: 705 POINTS
TCL: Setting parameter alchLambda2 to 0.65
Info: NONBONDED TABLE R-SQUARED SPACING: 0.0625
Info: NONBONDED TABLE SIZE: 705 POINTS
TCL: Running for 1500000 steps
ETITLE: TS BOND ANGLE DIHED IMPRP ELECT VDW BOUNDARY MISC KINETIC TOTAL TEMP POTENTIAL TOTALAVG TEMPAVG PRESSURE GPRESSURE VOLUME PRESSAVG GPRESSAVG
ENERGY: 0 0.7297 5.0413 2.7588 0.0000 -10797.1789 1459.0007 0.0000 0.0000 1782.7717 -7546.8765 300.3956 -9329.6483 -7546.8765 300.3956 49.8356 144.1953 30787.4802 49.8356 144.1953
ENERGY: 300000 0.0853 5.4789 1.7251 0.0000 -10840.3540 1372.6368 0.0000 0.0000 1781.7880 -7678.6400 300.2299 -9460.4280 -7593.4904 297.3396 -992.7537 -871.0930 30524.3928 -209.9966 -121.4022
ENERGY: 600000 1.2062 5.8905 1.9937 0.0000 -10757.2725 1384.0720 0.0000 0.0000 1801.8177 -7562.2923 303.6049 -9364.1100 -7576.1571 298.9708 -529.8041 -493.8350 30651.3160 -181.8626 -109.7451
ENERGY: 900000 1.0675 5.7516 2.9480 0.0000 -10964.8386 1581.0384 0.0000 0.0000 1816.2443 -7557.7888 306.0357 -9374.0331 -7562.1627 299.9085 1061.7463 1090.0638 30495.4748 -2.8621 60.9225
ENERGY: 1200000 1.4519 5.3013 3.3841 0.0000 -10766.5232 1425.6906 0.0000 0.0000 1765.5505 -7565.1449 297.4939 -9330.6954 -7560.7802 299.4127 -186.2227 -100.0018 30749.9165 -164.2671 -103.8888
ENERGY: 1500000 0.6168 7.3645 1.2516 0.0000 -10851.4954 1450.7744 0.0000 0.0000 1787.0660 -7604.4221 301.1192 -9391.4881 -7563.0143 299.5604 -11.6062 34.1010 30437.0928 -234.8074 -179.2775
TCL: Running FEP window  14: Lambda1 0.65   Lambda2 0.7000000000000001 [dLambda 0.050000000000000044]
TCL: Setting parameter firsttimestep to 0
TCL: Setting parameter alchLambda to 0.65
Info: NONBONDED TABLE R-SQUARED SPACING: 0.0625
Info: NONBONDED TABLE SIZE: 705 POINTS
TCL: Setting parameter alchLambda2 to 0.7000000000000001
Info: NONBONDED TABLE R-SQUARED SPACING: 0.0625
Info: NONBONDED TABLE SIZE: 705 POINTS
TCL: Running for 1500000 steps
ETITLE: TS BOND ANGLE DIHED IMPRP ELECT VDW BOUNDARY MISC KINETIC TOTAL TEMP POTENTIAL TOTALAVG TEMPAVG PRESSURE GPRESSURE VOLUME PRESSAVG GPRESSAVG
ENERGY: 0 0.6168 7.3645 1.2516 0.0000 -10851.6636 1451.3006 0.0000 0.0000 1786.2117 -7604.9185 300.9753 -9391.1301 -7604.9185 300.9753 -40.1143 49.5892 30437.0928 -40.1143 49.5892
ENERGY: 300000 0.2980 4.4039 1.1087 0.0000 -10805.8723 1431.5034 0.0000 0.0000 1797.3672 -7571.1910 302.8550 -9368.5583 -7567.8418 300.6818 -471.6814 -365.0224 31068.1580 20.7748 91.5315
ENERGY: 600000 1.4122 5.7646 1.5468 0.0000 -10676.0641 1310.4548 0.0000 0.0000 1775.9019 -7580.9838 299.2381 -9356.8858 -7548.9500 302.0493 -1118.4888 -1028.4513 30458.1499 -85.0190 -22.3763
ENERGY: 900000 1.1253 5.4050 1.6559 0.0000 -10893.5660 1475.5109 0.0000 0.0000 1794.6835 -7615.1854 302.4028 -9409.8689 -7555.2731 302.1262 -0.3234 47.2992 30758.9982 -77.7904 -18.7300
ENERGY: 1200000 1.0893 10.7994 2.6439 0.0000 -10767.4630 1409.1180 0.0000 0.0000 1784.2272 -7559.5851 300.6409 -9343.8123 -7552.7485 302.1084 -319.3063 -227.0378 30702.2759 -114.2333 -49.2593
ENERGY: 1500000 1.4160 7.5936 2.1384 0.0000 -10731.8658 1388.1078 0.0000 0.0000 1742.9716 -7589.6383 293.6893 -9332.6099 -7550.3146 302.3450 -669.6394 -567.1632 30819.8093 -142.5371 -71.4465
TCL: Running FEP window  15: Lambda1 0.7000000000000001 Lambda2 0.7500000000000001 [dLambda 0.050000000000000044]
TCL: Setting parameter firsttimestep to 0
TCL: Setting parameter alchLambda to 0.7000000000000001
Info: NONBONDED TABLE R-SQUARED SPACING: 0.0625
Info: NONBONDED TABLE SIZE: 705 POINTS
TCL: Setting parameter alchLambda2 to 0.7500000000000001
Info: NONBONDED TABLE R-SQUARED SPACING: 0.0625
Info: NONBONDED TABLE SIZE: 705 POINTS
TCL: Running for 1500000 steps
ETITLE: TS BOND ANGLE DIHED IMPRP ELECT VDW BOUNDARY MISC KINETIC TOTAL TEMP POTENTIAL TOTALAVG TEMPAVG PRESSURE GPRESSURE VOLUME PRESSAVG GPRESSAVG
ENERGY: 0 1.4160 7.5936 2.1384 0.0000 -10731.9892 1388.0251 0.0000 0.0000 1742.0911 -7590.7251 293.5410 -9332.8162 -7590.7251 293.5410 -640.6645 -561.0125 30819.8093 -640.6645 -561.0125
ENERGY: 300000 1.3922 6.6564 1.4042 0.0000 -10824.0272 1430.1813 0.0000 0.0000 1771.4368 -7612.9563 298.4857 -9384.3932 -7601.7284 297.6280 -217.1486 -132.1526 30259.6496 -464.5989 -381.4144
ENERGY: 600000 0.7710 4.8607 1.6812 0.0000 -10708.9062 1382.3189 0.0000 0.0000 1794.6257 -7524.6487 302.3930 -9319.2744 -7577.2750 299.5533 -449.9956 -407.0695 30489.6184 -342.4617 -272.2887
ENERGY: 900000 0.2392 8.8351 2.6813 0.0000 -10831.5049 1492.7179 0.0000 0.0000 1754.8105 -7572.2210 295.6842 -9327.0315 -7563.0089 299.4078 199.9442 302.6698 30817.7969 -388.9860 -324.0401
ENERGY: 1200000 1.8204 5.6467 1.1980 0.0000 -10873.9425 1504.8213 0.0000 0.0000 1699.0813 -7661.3748 286.2939 -9360.4561 -7567.1025 298.2462 521.7386 555.1038 30403.2090 -196.7520 -125.1221
ENERGY: 1500000 0.9562 6.9656 2.5072 0.0000 -10945.4449 1531.2683 0.0000 0.0000 1760.7194 -7643.0282 296.6798 -9403.7476 -7555.7860 299.3308 478.6532 505.5375 30578.9312 -161.2280 -94.9452
TCL: Running FEP window  16: Lambda1 0.7500000000000001 Lambda2 0.8000000000000002 [dLambda 0.050000000000000044]
TCL: Setting parameter firsttimestep to 0
TCL: Setting parameter alchLambda to 0.7500000000000001
Info: NONBONDED TABLE R-SQUARED SPACING: 0.0625
Info: NONBONDED TABLE SIZE: 705 POINTS
TCL: Setting parameter alchLambda2 to 0.8000000000000002
Info: NONBONDED TABLE R-SQUARED SPACING: 0.0625
Info: NONBONDED TABLE SIZE: 705 POINTS
TCL: Running for 1500000 steps
ETITLE: TS BOND ANGLE DIHED IMPRP ELECT VDW BOUNDARY MISC KINETIC TOTAL TEMP POTENTIAL TOTALAVG TEMPAVG PRESSURE GPRESSURE VOLUME PRESSAVG GPRESSAVG
ENERGY: 0 0.9562 6.9656 2.5072 0.0000 -10945.5449 1531.0859 0.0000 0.0000 1759.8000 -7644.2299 296.5249 -9404.0300 -7644.2299 296.5249 428.4671 510.4551 30578.9312 428.4671 510.4551
ENERGY: 300000 0.5725 2.5902 2.0638 0.0000 -10958.2317 1621.2173 0.0000 0.0000 1850.9275 -7480.8604 311.8798 -9331.7879 -7545.6708 299.7993 1225.8076 1361.9095 30629.5219 305.8235 387.5827
ENERGY: 600000 0.4107 6.5966 1.4098 0.0000 -10761.9900 1450.1351 0.0000 0.0000 1831.0211 -7472.4167 308.5256 -9303.4378 -7535.8116 300.9530 -23.2287 21.2323 31329.5433 169.7343 239.2482
ENERGY: 900000 0.8163 4.8758 1.2395 0.0000 -10818.1583 1481.0350 0.0000 0.0000 1796.6907 -7533.5011 302.7410 -9330.1918 -7532.4866 300.7976 222.7428 303.1293 30673.1153 155.2023 231.8628
ENERGY: 1200000 1.8173 7.1363 2.1316 0.0000 -10791.5238 1464.7683 0.0000 0.0000 1764.6311 -7551.0392 297.3390 -9315.6703 -7550.6905 300.2053 89.3569 174.5715 30857.0873 25.8496 101.0278
ENERGY: 1500000 0.1327 7.1819 1.8694 0.0000 -10708.9396 1442.6248 0.0000 0.0000 1795.0694 -7462.0614 302.4678 -9257.1309 -7548.4891 300.6810 26.5855 75.2448 30901.5221 41.9711 115.8675
TCL: Running FEP window  17: Lambda1 0.8000000000000002 Lambda2 0.8500000000000002 [dLambda 0.050000000000000044]
TCL: Setting parameter firsttimestep to 0
TCL: Setting parameter alchLambda to 0.8000000000000002
Info: NONBONDED TABLE R-SQUARED SPACING: 0.0625
Info: NONBONDED TABLE SIZE: 705 POINTS
TCL: Setting parameter alchLambda2 to 0.8500000000000002
Info: NONBONDED TABLE R-SQUARED SPACING: 0.0625
Info: NONBONDED TABLE SIZE: 705 POINTS
TCL: Running for 1500000 steps
ETITLE: TS BOND ANGLE DIHED IMPRP ELECT VDW BOUNDARY MISC KINETIC TOTAL TEMP POTENTIAL TOTALAVG TEMPAVG PRESSURE GPRESSURE VOLUME PRESSAVG GPRESSAVG
ENERGY: 0 0.1327 7.1819 1.8694 0.0000 -10709.2594 1443.5436 0.0000 0.0000 1794.2209 -7462.3109 302.3248 -9256.5319 -7462.3109 302.3248 15.4534 98.4514 30901.5221 15.4534 98.4514
ENERGY: 300000 1.2301 4.6365 1.4711 0.0000 -10863.2707 1515.2109 0.0000 0.0000 1825.5988 -7515.1233 307.6119 -9340.7220 -7531.6011 301.3739 790.7865 883.3979 30398.5659 221.6939 306.3433
ENERGY: 600000 1.2793 9.1265 3.3493 0.0000 -10756.5195 1452.2057 0.0000 0.0000 1729.1636 -7561.3950 291.3627 -9290.5586 -7536.8392 300.8103 167.6777 281.7461 30650.4994 170.9918 270.1561
ENERGY: 900000 1.3661 6.2832 1.8091 0.0000 -10665.2757 1353.7293 0.0000 0.0000 1783.2336 -7518.8543 300.4735 -9302.0879 -7556.5697 300.1208 -773.8449 -713.3814 31146.0982 48.0314 130.6251
ENERGY: 1200000 2.3631 6.1405 3.2451 0.0000 -10827.7400 1506.0581 0.0000 0.0000 1827.4793 -7482.4539 307.9288 -9309.9332 -7557.1965 300.7368 652.2813 668.2371 30594.2809 83.8474 157.6475
ENERGY: 1500000 0.5638 4.8763 2.3233 0.0000 -10796.8858 1389.4766 0.0000 0.0000 1808.9475 -7590.6984 304.8062 -9399.6458 -7556.3900 301.6528 -498.9782 -378.1975 30355.8634 57.8976 131.5939
TCL: Running FEP window  18: Lambda1 0.8500000000000002 Lambda2 0.9000000000000002 [dLambda 0.050000000000000044]
TCL: Setting parameter firsttimestep to 0
TCL: Setting parameter alchLambda to 0.8500000000000002
Info: NONBONDED TABLE R-SQUARED SPACING: 0.0625
Info: NONBONDED TABLE SIZE: 705 POINTS
TCL: Setting parameter alchLambda2 to 0.9000000000000002
Info: NONBONDED TABLE R-SQUARED SPACING: 0.0625
Info: NONBONDED TABLE SIZE: 705 POINTS
TCL: Running for 1500000 steps
ETITLE: TS BOND ANGLE DIHED IMPRP ELECT VDW BOUNDARY MISC KINETIC TOTAL TEMP POTENTIAL TOTALAVG TEMPAVG PRESSURE GPRESSURE VOLUME PRESSAVG GPRESSAVG
ENERGY: 0 0.5638 4.8763 2.3233 0.0000 -10797.1503 1389.2050 0.0000 0.0000 1808.0733 -7592.1085 304.6589 -9400.1819 -7592.1085 304.6589 -459.6949 -374.9959 30355.8634 -459.6949 -374.9959
ENERGY: 300000 0.4927 5.2044 2.3141 0.0000 -10937.7435 1486.6198 0.0000 0.0000 1846.6957 -7596.4168 311.1668 -9443.1125 -7558.9096 308.2089 50.9059 176.6586 30624.6464 67.1393 136.6580
ENERGY: 600000 2.2537 6.3510 1.7413 0.0000 -10878.8893 1532.5266 0.0000 0.0000 1781.2141 -7554.8025 300.1332 -9336.0167 -7560.3243 305.2465 750.5205 793.9897 30560.1105 274.7100 327.4580
ENERGY: 900000 2.3349 3.0881 2.3199 0.0000 -10855.7038 1447.3113 0.0000 0.0000 1743.9225 -7656.7272 293.8496 -9400.6497 -7578.1652 302.3513 -443.5449 -340.6159 30888.7323 117.7362 173.7522
ENERGY: 1200000 0.5464 4.7985 2.6400 0.0000 -10741.6456 1413.4324 0.0000 0.0000 1738.1402 -7582.0880 292.8753 -9320.2282 -7588.8196 300.4050 -338.5328 -273.9527 30877.6655 9.0102 62.7137
ENERGY: 1500000 0.9516 4.8062 1.5535 0.0000 -10749.0482 1452.1256 0.0000 0.0000 1776.7610 -7512.8503 299.3828 -9289.6112 -7584.1134 299.5915 45.2870 79.1667 31146.7951 -35.7913 20.9573
TCL: Running FEP window  19: Lambda1 0.9000000000000002 Lambda2 0.9500000000000003 [dLambda 0.050000000000000044]
TCL: Setting parameter firsttimestep to 0
TCL: Setting parameter alchLambda to 0.9000000000000002
Info: NONBONDED TABLE R-SQUARED SPACING: 0.0625
Info: NONBONDED TABLE SIZE: 705 POINTS
TCL: Setting parameter alchLambda2 to 0.9500000000000003
Info: NONBONDED TABLE R-SQUARED SPACING: 0.0625
Info: NONBONDED TABLE SIZE: 705 POINTS
TCL: Running for 1500000 steps
ETITLE: TS BOND ANGLE DIHED IMPRP ELECT VDW BOUNDARY MISC KINETIC TOTAL TEMP POTENTIAL TOTALAVG TEMPAVG PRESSURE GPRESSURE VOLUME PRESSAVG GPRESSAVG
ENERGY: 0 0.9516 4.8062 1.5535 0.0000 -10749.5817 1452.8734 0.0000 0.0000 1775.9004 -7513.4966 299.2378 -9289.3970 -7513.4966 299.2378 26.8886 95.9089 31146.7951 26.8886 95.9089
ENERGY: 300000 0.4807 8.3383 1.5203 0.0000 -10860.4317 1465.6131 0.0000 0.0000 1868.1896 -7516.2896 314.7885 -9384.4792 -7544.0356 306.3181 138.6611 144.2724 30845.5714 222.4946 283.7349
ENERGY: 600000 5.7451 5.4766 1.5717 0.0000 -10819.5538 1474.8044 0.0000 0.0000 1814.2794 -7517.6766 305.7046 -9331.9560 -7542.0799 304.0129 123.0067 109.6114 30811.9530 128.0750 169.5747
ENERGY: 900000 0.4140 6.2728 1.5836 0.0000 -10763.3617 1386.7330 0.0000 0.0000 1780.9739 -7587.3843 300.0927 -9368.3583 -7550.8714 301.4141 -506.4871 -525.6320 30803.2450 -26.9205 2.9058
ENERGY: 1200000 1.2119 4.6394 2.0808 0.0000 -10984.9764 1581.0030 0.0000 0.0000 1748.8141 -7647.2271 294.6738 -9396.0412 -7561.2301 300.9673 1284.2486 1336.8999 29901.7892 201.9515 232.1744
ENERGY: 1500000 1.7233 4.3807 1.3488 0.0000 -10938.1874 1502.0819 0.0000 0.0000 1735.2747 -7693.3780 292.3924 -9428.6527 -7572.6967 299.8529 183.7368 253.0860 30466.7716 185.4013 217.1765
TCL: Running FEP window  20: Lambda1 0.9500000000000003 Lambda2 1.0    [dLambda 0.04999999999999971]
TCL: Setting parameter firsttimestep to 0
TCL: Setting parameter alchLambda to 0.9500000000000003
Info: NONBONDED TABLE R-SQUARED SPACING: 0.0625
Info: NONBONDED TABLE SIZE: 705 POINTS
TCL: Setting parameter alchLambda2 to 1.0
Info: NONBONDED TABLE R-SQUARED SPACING: 0.0625
Info: NONBONDED TABLE SIZE: 705 POINTS
TCL: Running for 1500000 steps
ETITLE: TS BOND ANGLE DIHED IMPRP ELECT VDW BOUNDARY MISC KINETIC TOTAL TEMP POTENTIAL TOTALAVG TEMPAVG PRESSURE GPRESSURE VOLUME PRESSAVG GPRESSAVG
ENERGY: 0 1.7233 4.3807 1.3488 0.0000 -10938.0298 1502.3018 0.0000 0.0000 1734.4090 -7693.8661 292.2465 -9428.2751 -7693.8661 292.2465 198.3772 269.5618 30466.7716 198.3772 269.5618
ENERGY: 300000 0.2060 5.5419 2.3912 0.0000 -10646.8472 1386.2598 0.0000 0.0000 1844.8567 -7407.5916 310.8569 -9252.4483 -7570.8531 303.0913 -385.9326 -273.1333 31090.9926 -216.5244 -160.0144
ENERGY: 600000 2.2753 4.9654 2.6701 0.0000 -10865.1606 1445.6822 0.0000 0.0000 1843.3145 -7566.2530 310.5970 -9409.5675 -7579.3816 304.2594 43.8209 72.4744 30496.6034 -114.9236 -79.8319
ENERGY: 900000 2.2145 8.2883 2.9583 0.0000 -10873.8345 1461.4766 0.0000 0.0000 1787.7564 -7611.1403 301.2355 -9398.8968 -7564.9286 304.2711 -261.9108 -128.2778 31069.0733 -122.6217 -73.7789
ENERGY: 1200000 0.6465 4.6885 1.8041 0.0000 -10858.0090 1547.6169 0.0000 0.0000 1765.2436 -7538.0093 297.4422 -9303.2529 -7557.3330 303.5272 677.4227 767.4836 30968.8457 -92.9936 -36.0600
ENERGY: 1500000 0.9948 2.7307 2.1856 0.0000 -10759.9553 1432.8042 0.0000 0.0000 1761.6879 -7559.5520 296.8430 -9321.2399 -7545.0153 303.5934 -130.6226 -54.8871 30913.0471 -115.0792 -60.6012
TCL: Exiting due to exit command.
