Info: SIMULATION PARAMETERS:
Info: TIMESTEP               2
Info: NUMBER OF STEPS        0
Info: STEPS PER CYCLE        10
Info: PERIODIC CELL BASIS 1  32.1373 0 0
Info: PERIODIC CELL BASIS 2  0 31.4233 0
Info: PERIODIC CELL BASIS 3  0 0 30.062
Info: PERIODIC CELL CENTER   0 0 0
Info: WRAPPING WATERS AROUND PERIODIC BOUNDARIES ON OUTPUT.
Info: WRAPPING ALL CLUSTERS AROUND PERIODIC BOUNDARIES ON OUTPUT.
Info: FIRST LDB TIMESTEP     50
Info: LAST LDB TIMESTEP     -1
Info: HOM BACKGROUND SCALING 1
Info: PME BACKGROUND SCALING 1
Info: MIN ATOMS PER PATCH    40
Info: EMPTY PATCH LOAD       40 ATOMS
Info: VELOCITY FILE          mobley_5263791_equil.vel
Info: CENTER OF MASS MOVING INITIALLY? NO
Info: DIELECTRIC             1
Info: EXCLUDE                SCALED ONE-FOUR
Info: 1-4 ELECTROSTATICS SCALED BY 0.833333
Info: MODIFIED 1-4 VDW PARAMETERS WILL BE USED
Info: DCD FILENAME           mobley_5263791_prod.dcd
Info: DCD FREQUENCY          100000
Info: DCD FIRST STEP         100000
Info: DCD FILE WILL CONTAIN UNIT CELL DATA
Info: XST FILENAME           mobley_5263791_prod.xst
Info: XST FREQUENCY          100000
Info: NO VELOCITY DCD OUTPUT
Info: NO FORCE DCD OUTPUT
Info: OUTPUT FILENAME        mobley_5263791_prod
Info: BINARY OUTPUT FILES WILL BE USED
Info: RESTART FILENAME       mobley_5263791_prod.restart
Info: RESTART FREQUENCY      100000
Info: BINARY RESTART FILES WILL BE USED
Info: CUTOFF                 9
Info: PAIRLIST DISTANCE      11
Info: PAIRLIST SHRINK RATE   0.01
Info: PAIRLIST GROW RATE     0.01
Info: PAIRLIST TRIGGER       0.3
Info: PAIRLISTS PER CYCLE    2
Info: PAIRLISTS ENABLED
Info: MARGIN                 2
Info: HYDROGEN GROUP CUTOFF  2.5
Info: PATCH DIMENSION        15.5
Info: ENERGY OUTPUT STEPS    100000
Info: ENERGY EVALUATION STEPS    100000
Info: OUTPUT ENERGY PRECISION 4
Info: CROSSTERM ENERGY INCLUDED IN DIHEDRAL
Info: TIMING OUTPUT STEPS    1000000
Info: PRESSURE OUTPUT STEPS  100000
Info: ALCHEMICAL FEP ON
Info: FEP CURRENT LAMBDA VALUE     0
Info: FEP COMPARISON LAMBDA VALUE  0.05
Info: FEP INTRA-ALCHEMICAL NON-BONDED INTERACTIONS WILL BE RETAINED
Info: FEP INTRA-ALCHEMICAL BONDED INTERACTIONS WILL BE RETAINED
Info: FEP VDW SHIFTING COEFFICIENT 5
Info: FEP ELEC. ACTIVE FOR ANNIHILATED PARTICLES BETWEEN LAMBDA = 0 AND LAMBDA = 0.5
Info: FEP ELEC. ACTIVE FOR EXNIHILATED PARTICLES BETWEEN LAMBDA = 0.5 AND LAMBDA = 1
Info: FEP VDW ACTIVE FOR ANNIHILATED PARTICLES BETWEEN LAMBDA = 0 AND LAMBDA = 1
Info: FEP VDW ACTIVE FOR EXNIHILATED PARTICLES BETWEEN LAMBDA = 0 AND LAMBDA = 1
Info: FEP BOND ACTIVE FOR ANNIHILATED PARTICLES BETWEEN LAMBDA = 1 AND LAMBDA = 1
Info: FEP BOND ACTIVE FOR EXNIHILATED PARTICLES BETWEEN LAMBDA = 0 AND LAMBDA = 0
Info: LANGEVIN DYNAMICS ACTIVE
Info: LANGEVIN TEMPERATURE   300
Info: LANGEVIN USING BBK INTEGRATOR
Info: LANGEVIN DAMPING COEFFICIENT IS 1 INVERSE PS
Info: LANGEVIN DYNAMICS APPLIED TO HYDROGENS
Info: LANGEVIN PISTON PRESSURE CONTROL ACTIVE
Info:        TARGET PRESSURE IS 1.01325 BAR
Info:     OSCILLATION PERIOD IS 50 FS
Info:             DECAY TIME IS 25 FS
Info:     PISTON TEMPERATURE IS 300 K
Info:       PRESSURE CONTROL IS GROUP-BASED
Info:    INITIAL STRAIN RATE IS 0.000249692 0.000249692 0.000249692
Info:       CELL FLUCTUATION IS ISOTROPIC
Info: PARTICLE MESH EWALD (PME) ACTIVE
Info: PME TOLERANCE               1e-06
Info: PME EWALD COEFFICIENT       0.348832
Info: PME INTERPOLATION ORDER     4
Info: PME GRID DIMENSIONS         36 32 32
Info: PME MAXIMUM GRID SPACING    1
Info: PME CALCULATION WILL BE PERFORMED ON GPU
Info: FULL ELECTROSTATIC EVALUATION FREQUENCY      2
Info: USING VERLET I (r-RESPA) MTS SCHEME.
Info: C1 SPLITTING OF LONG RANGE ELECTROSTATICS
Info: PLACING ATOMS IN PATCHES BY HYDROGEN GROUPS
Info: RIGID BONDS TO HYDROGEN : ALL
Info:         ERROR TOLERANCE : 1e-08
Info:          MAX ITERATIONS : 100
Info: RIGID WATER USING SETTLE ALGORITHM
Info: RANDOM NUMBER SEED     1743812763
Info: USE HYDROGEN BONDS?    NO
Info: Using AMBER format force field!
Info: AMBER PARM FILE        mobley_5263791.prmtop
Info: COORDINATE PDB         mobley_5263791.pdb
Info: Exclusions will be read from PARM file!
Info: SCNB (VDW SCALING)     2
Info: USING ARITHMETIC MEAN TO COMBINE L-J SIGMA PARAMETERS
Info: BINARY COORDINATES     mobley_5263791_equil.coor
Info: SUMMARY OF PARAMETERS:
Info: 7 BONDS
Info: 7 ANGLES
Info:   7 HARMONIC
Info:   0 COSINE-BASED
Info: 5 DIHEDRAL
Info: 0 IMPROPER
Info: 0 CROSSTERM
Info: 0 VDW
Info: 21 VDW_PAIRS
Info: 0 NBTHOLE_PAIRS
Info: To read alchdata from file: mobley_5263791.pdb
Info: To read alchflag data from column: 5
Info: STRUCTURE SUMMARY:
Info: 2943 ATOMS
Info: 2944 BONDS
Info: 42 ANGLES
Info: 69 DIHEDRALS
Info: 0 IMPROPERS
Info: 0 CROSSTERMS
Info: 3039 EXCLUSIONS
Info: 2931 RIGID BONDS
Info: ALCH: 0 ATOMS TO DISAPPEAR IN FINAL STATE
Info: ALCH: 24 ATOMS TO APPEAR IN FINAL STATE
Info: 5898 DEGREES OF FREEDOM
Info: 985 HYDROGEN GROUPS
Info: 4 ATOMS IN LARGEST HYDROGEN GROUP
Info: 985 MIGRATION GROUPS
Info: 4 ATOMS IN LARGEST MIGRATION GROUP
Info: TOTAL MASS = 17685.8 amu
Info: TOTAL CHARGE = 9.99849e-05 e
Info: MASS DENSITY = 0.967399 g/cm^3
Info: ATOM DENSITY = 0.0969421 atoms/A^3
Info: ADDED 0 IMPLICIT EXCLUSIONS
Info: NONBONDED TABLE R-SQUARED SPACING: 0.0625
Info: NONBONDED TABLE SIZE: 705 POINTS
Info: REDUCING NUMBER OF PATCHES TO IMPROVE LOAD BALANCE
Info: REMOVING COM VELOCITY 0.0693051 0.441449 0.166719
Info: Use 3D box decompostion in PME FFT.
Info: Updated CUDA force table with 4096 elements.
Info: Updated CUDA LJ table with 6 x 6 elements.
Info: Found 23 unique exclusion lists needing 76 bytes
TCL: Running for 1500000 steps
ETITLE: TS BOND ANGLE DIHED IMPRP ELECT VDW BOUNDARY MISC KINETIC TOTAL TEMP POTENTIAL TOTALAVG TEMPAVG PRESSURE GPRESSURE VOLUME PRESSAVG GPRESSAVG
ENERGY: 0 13.3563 8.0417 4.0851 0.0000 -10678.5581 1421.9177 0.0000 0.0000 1777.7359 -7453.4214 303.3562 -9231.1573 -7453.4214 303.3562 -242.3364 -157.1091 30358.3235 -242.3364 -157.1091
ENERGY: 300000 3.4818 6.2928 4.9719 0.0000 -10714.2334 1491.3665 0.0000 0.0000 1702.6763 -7505.4443 290.5479 -9208.1206 -7460.7997 298.7634 472.5959 552.0267 29621.9093 81.9631 142.7680
ENERGY: 600000 1.7082 9.8429 6.3516 0.0000 -10529.9147 1360.9939 0.0000 0.0000 1730.5112 -7420.5068 295.2977 -9151.0180 -7449.8658 298.8319 -593.4920 -521.4750 30159.7281 -27.2330 42.4923
ENERGY: 900000 6.9857 7.5789 3.9884 0.0000 -10567.7977 1372.6873 0.0000 0.0000 1754.7840 -7421.7735 299.4396 -9176.5575 -7445.5883 298.9783 -273.9331 -203.9344 29709.5007 -130.2059 -64.3944
ENERGY: 1200000 8.5234 6.8418 5.9491 0.0000 -10634.0964 1422.2883 0.0000 0.0000 1763.0844 -7427.4093 300.8560 -9190.4937 -7442.8702 298.9118 -413.4730 -296.1263 30141.9206 -130.0988 -56.8198
ENERGY: 1500000 4.1587 8.7644 4.4921 0.0000 -10760.5428 1486.7712 0.0000 0.0000 1730.3892 -7525.9672 295.2769 -9256.3564 -7452.0771 298.8950 -45.6867 39.5479 29975.0342 -92.9120 -18.4696
TCL: Running FEP window   2: Lambda1 0.05   Lambda2 0.1    [dLambda 0.05  ]
TCL: Setting parameter firsttimestep to 0
TCL: Setting parameter alchLambda to 0.05
Info: NONBONDED TABLE R-SQUARED SPACING: 0.0625
Info: NONBONDED TABLE SIZE: 705 POINTS
TCL: Setting parameter alchLambda2 to 0.1
Info: NONBONDED TABLE R-SQUARED SPACING: 0.0625
Info: NONBONDED TABLE SIZE: 705 POINTS
TCL: Running for 1500000 steps
ETITLE: TS BOND ANGLE DIHED IMPRP ELECT VDW BOUNDARY MISC KINETIC TOTAL TEMP POTENTIAL TOTALAVG TEMPAVG PRESSURE GPRESSURE VOLUME PRESSAVG GPRESSAVG
ENERGY: 0 4.1587 8.7644 4.4921 0.0000 -10760.5436 1489.8354 0.0000 0.0000 1729.5412 -7523.7517 295.1322 -9253.2929 -7523.7517 295.1322 -23.8665 47.6849 29975.0342 -23.8665 47.6849
ENERGY: 300000 7.2583 12.2311 2.2514 0.0000 -10766.3595 1539.7358 0.0000 0.0000 1731.9093 -7472.9735 295.5363 -9204.8828 -7463.8915 299.1309 629.8060 674.8995 29793.6147 251.5424 294.5410
ENERGY: 600000 3.3785 6.5530 5.0638 0.0000 -10654.6103 1435.0818 0.0000 0.0000 1771.0171 -7433.5160 302.2097 -9204.5331 -7441.9012 299.7510 -0.7854 43.7636 30141.1741 114.7532 172.7437
ENERGY: 900000 4.6035 6.1208 3.9368 0.0000 -10689.2871 1468.0119 0.0000 0.0000 1817.2076 -7389.4065 310.0917 -9206.6141 -7425.8598 300.1929 251.1065 272.0630 29830.8956 19.9395 77.1646
ENERGY: 1200000 2.9956 7.2300 3.2747 0.0000 -10602.6033 1358.5677 0.0000 0.0000 1729.0385 -7501.4967 295.0464 -9230.5353 -7424.2520 300.0758 -1038.4256 -986.3335 30425.9638 -142.9843 -86.2194
ENERGY: 1500000 5.3355 8.1963 7.6584 0.0000 -10562.9025 1364.9541 0.0000 0.0000 1767.9559 -7408.8023 301.6873 -9176.7582 -7429.4188 299.9264 -822.8733 -701.2485 30124.3029 -162.3039 -96.2824
TCL: Running FEP window   3: Lambda1 0.1    Lambda2 0.15000000000000002 [dLambda 0.05000000000000002]
TCL: Setting parameter firsttimestep to 0
TCL: Setting parameter alchLambda to 0.1
Info: NONBONDED TABLE R-SQUARED SPACING: 0.0625
Info: NONBONDED TABLE SIZE: 705 POINTS
TCL: Setting parameter alchLambda2 to 0.15000000000000002
Info: NONBONDED TABLE R-SQUARED SPACING: 0.0625
Info: NONBONDED TABLE SIZE: 705 POINTS
TCL: Running for 1500000 steps
ETITLE: TS BOND ANGLE DIHED IMPRP ELECT VDW BOUNDARY MISC KINETIC TOTAL TEMP POTENTIAL TOTALAVG TEMPAVG PRESSURE GPRESSURE VOLUME PRESSAVG GPRESSAVG
ENERGY: 0 5.3355 8.1963 7.6584 0.0000 -10562.9028 1365.9482 0.0000 0.0000 1767.0857 -7408.6787 301.5388 -9175.7644 -7408.6787 301.5388 -767.1061 -694.5014 30124.3029 -767.1061 -694.5014
ENERGY: 300000 4.5536 10.9671 5.6224 0.0000 -10657.2267 1401.6087 0.0000 0.0000 1720.6200 -7513.8549 293.6098 -9234.4750 -7432.1004 297.5742 -545.3154 -380.9862 29689.3222 -372.4088 -260.4274
ENERGY: 600000 5.4936 6.7372 3.6082 0.0000 -10540.8214 1406.6643 0.0000 0.0000 1744.8692 -7373.4490 297.7477 -9118.3182 -7427.3522 297.7706 -271.3677 -167.5046 30454.5611 -217.0133 -128.8216
ENERGY: 900000 4.3527 10.0197 9.1843 0.0000 -10557.1602 1448.1749 0.0000 0.0000 1693.4238 -7392.0049 288.9690 -9085.4286 -7423.3844 297.0127 239.2500 287.8133 29855.8870 -127.2553 -48.4321
ENERGY: 1200000 2.7048 8.4635 4.1816 0.0000 -10711.6783 1448.5078 0.0000 0.0000 1803.1190 -7444.7016 307.6876 -9247.8206 -7421.1809 298.7208 -36.5138 3.4853 29872.2073 -173.5060 -100.8078
ENERGY: 1500000 2.6627 8.1620 5.0405 0.0000 -10664.9486 1473.4620 0.0000 0.0000 1766.4241 -7409.1974 301.4259 -9175.6215 -7414.3989 299.0984 422.2309 423.0624 30157.8884 -121.3540 -55.0620
TCL: Running FEP window   4: Lambda1 0.15000000000000002 Lambda2 0.2    [dLambda 0.04999999999999999]
TCL: Setting parameter firsttimestep to 0
TCL: Setting parameter alchLambda to 0.15000000000000002
Info: NONBONDED TABLE R-SQUARED SPACING: 0.0625
Info: NONBONDED TABLE SIZE: 705 POINTS
TCL: Setting parameter alchLambda2 to 0.2
Info: NONBONDED TABLE R-SQUARED SPACING: 0.0625
Info: NONBONDED TABLE SIZE: 705 POINTS
TCL: Running for 1500000 steps
ETITLE: TS BOND ANGLE DIHED IMPRP ELECT VDW BOUNDARY MISC KINETIC TOTAL TEMP POTENTIAL TOTALAVG TEMPAVG PRESSURE GPRESSURE VOLUME PRESSAVG GPRESSAVG
ENERGY: 0 2.6627 8.1620 5.0405 0.0000 -10664.9497 1473.7422 0.0000 0.0000 1765.5533 -7409.7891 301.2773 -9175.3423 -7409.7891 301.2773 337.3764 428.5780 30157.8884 337.3764 428.5780
ENERGY: 300000 5.4142 10.0288 5.3407 0.0000 -10699.8696 1563.8142 0.0000 0.0000 1752.8925 -7362.3792 299.1169 -9115.2717 -7342.2482 300.8492 1057.8106 1027.3774 30446.1746 318.2081 357.4082
ENERGY: 600000 6.4210 4.7001 2.6448 0.0000 -10694.4662 1506.7553 0.0000 0.0000 1765.1440 -7408.8009 301.2075 -9173.9449 -7375.6157 301.0539 328.8362 396.6559 30007.3172 119.2120 175.7213
ENERGY: 900000 6.0778 9.5411 4.3948 0.0000 -10703.7477 1478.4382 0.0000 0.0000 1774.3492 -7430.9465 302.7783 -9205.2958 -7394.1546 299.2822 409.3287 390.6216 30090.8824 97.6530 145.2312
ENERGY: 1200000 4.7522 11.9359 6.1937 0.0000 -10687.5570 1431.7509 0.0000 0.0000 1795.0920 -7437.8323 306.3179 -9232.9243 -7399.6797 300.1466 -433.3114 -389.9872 30137.0115 -32.1167 21.9504
ENERGY: 1500000 3.6469 7.5892 2.6245 0.0000 -10536.7319 1378.1232 0.0000 0.0000 1740.9566 -7403.7915 297.0801 -9144.7481 -7403.6346 300.0210 -601.8358 -508.7591 30080.3731 -74.9120 -20.4542
TCL: Running FEP window   5: Lambda1 0.2    Lambda2 0.25   [dLambda 0.04999999999999999]
TCL: Setting parameter firsttimestep to 0
TCL: Setting parameter alchLambda to 0.2
Info: NONBONDED TABLE R-SQUARED SPACING: 0.0625
Info: NONBONDED TABLE SIZE: 705 POINTS
TCL: Setting parameter alchLambda2 to 0.25
Info: NONBONDED TABLE R-SQUARED SPACING: 0.0625
Info: NONBONDED TABLE SIZE: 705 POINTS
TCL: Running for 1500000 steps
ETITLE: TS BOND ANGLE DIHED IMPRP ELECT VDW BOUNDARY MISC KINETIC TOTAL TEMP POTENTIAL TOTALAVG TEMPAVG PRESSURE GPRESSURE VOLUME PRESSAVG GPRESSAVG
ENERGY: 0 3.6469 7.5892 2.6245 0.0000 -10536.7327 1378.7227 0.0000 0.0000 1740.0883 -7404.0612 296.9319 -9144.1495 -7404.0612 296.9319 -593.8560 -499.8760 30080.3731 -593.8560 -499.8760
ENERGY: 300000 2.8996 9.4440 4.5539 0.0000 -10751.5507 1519.4063 0.0000 0.0000 1755.6553 -7459.5916 299.5883 -9215.2468 -7438.6935 296.3432 535.6254 652.0760 29984.3241 35.3674 94.9602
ENERGY: 600000 4.2993 10.9691 1.5254 0.0000 -10666.6923 1499.1014 0.0000 0.0000 1808.9948 -7341.8023 308.6903 -9150.7970 -7425.5850 299.3025 421.8514 474.0458 30182.1081 240.0811 298.0545
ENERGY: 900000 1.8652 11.1325 3.4283 0.0000 -10619.7773 1447.4204 0.0000 0.0000 1800.0662 -7355.8646 307.1667 -9155.9308 -7432.5656 299.6789 361.4200 449.9808 29686.2342 232.1971 292.0873
ENERGY: 1200000 3.7754 8.3198 8.1358 0.0000 -10663.2511 1434.5656 0.0000 0.0000 1766.9801 -7441.4745 301.5208 -9208.4546 -7445.7273 298.9657 -456.4512 -376.2531 30388.4398 267.8714 336.9546
ENERGY: 1500000 5.3700 5.2600 3.5612 0.0000 -10542.3796 1443.9576 0.0000 0.0000 1768.3778 -7315.8530 301.7593 -9084.2309 -7443.6403 298.5757 259.5662 267.0823 30060.2187 247.2108 316.2138
TCL: Running FEP window   6: Lambda1 0.25   Lambda2 0.3    [dLambda 0.04999999999999999]
TCL: Setting parameter firsttimestep to 0
TCL: Setting parameter alchLambda to 0.25
Info: NONBONDED TABLE R-SQUARED SPACING: 0.0625
Info: NONBONDED TABLE SIZE: 705 POINTS
TCL: Setting parameter alchLambda2 to 0.3
Info: NONBONDED TABLE R-SQUARED SPACING: 0.0625
Info: NONBONDED TABLE SIZE: 705 POINTS
TCL: Running for 1500000 steps
ETITLE: TS BOND ANGLE DIHED IMPRP ELECT VDW BOUNDARY MISC KINETIC TOTAL TEMP POTENTIAL TOTALAVG TEMPAVG PRESSURE GPRESSURE VOLUME PRESSAVG GPRESSAVG
ENERGY: 0 5.3700 5.2600 3.5612 0.0000 -10542.3796 1444.9745 0.0000 0.0000 1767.4851 -7315.7287 301.6070 -9083.2139 -7315.7287 301.6070 199.0810 281.8210 30060.2187 199.0810 281.8210
ENERGY: 300000 4.2449 6.9011 4.2117 0.0000 -10603.4538 1396.9258 0.0000 0.0000 1776.7233 -7414.4471 303.1834 -9191.1704 -7383.4486 302.1391 -101.2180 -43.5115 29843.1255 44.9325 103.8313
ENERGY: 600000 3.5079 10.3741 4.1110 0.0000 -10533.3830 1373.4226 0.0000 0.0000 1752.7976 -7389.1699 299.1007 -9141.9674 -7386.1783 301.4087 -431.6641 -337.2333 30303.5465 -54.8757 4.8573
ENERGY: 900000 2.7691 8.4271 5.4143 0.0000 -10737.8707 1515.5251 0.0000 0.0000 1770.3204 -7435.4147 302.0908 -9205.7351 -7405.6666 302.1254 771.7025 816.0378 29988.8658 -12.1845 43.6481
ENERGY: 1200000 3.7749 9.3691 7.4307 0.0000 -10594.2361 1430.3163 0.0000 0.0000 1673.7818 -7469.5633 285.6173 -9143.3451 -7408.1257 300.9709 -133.4042 -165.5762 30574.8995 -38.5185 12.3812
ENERGY: 1500000 3.4248 9.8119 5.1718 0.0000 -10674.4215 1460.6847 0.0000 0.0000 1718.1184 -7477.2099 293.1830 -9195.3283 -7420.0973 300.3599 189.5025 229.2431 29953.3434 19.3869 73.9423
TCL: Running FEP window   7: Lambda1 0.3    Lambda2 0.35   [dLambda 0.04999999999999999]
TCL: Setting parameter firsttimestep to 0
TCL: Setting parameter alchLambda to 0.3
Info: NONBONDED TABLE R-SQUARED SPACING: 0.0625
Info: NONBONDED TABLE SIZE: 705 POINTS
TCL: Setting parameter alchLambda2 to 0.35
Info: NONBONDED TABLE R-SQUARED SPACING: 0.0625
Info: NONBONDED TABLE SIZE: 705 POINTS
TCL: Running for 1500000 steps
ETITLE: TS BOND ANGLE DIHED IMPRP ELECT VDW BOUNDARY MISC KINETIC TOTAL TEMP POTENTIAL TOTALAVG TEMPAVG PRESSURE GPRESSURE VOLUME PRESSAVG GPRESSAVG
ENERGY: 0 3.4248 9.8119 5.1718 0.0000 -10674.4220 1461.7055 0.0000 0.0000 1717.2436 -7477.0643 293.0337 -9194.3079 -7477.0643 293.0337 162.1209 240.4304 29953.3434 162.1209 240.4304
ENERGY: 300000 6.4596 10.7393 6.1480 0.0000 -10599.6346 1481.5025 0.0000 0.0000 1740.5427 -7354.2425 297.0095 -9094.7851 -7392.3331 299.5066 594.1825 704.4879 29787.3679 157.0095 214.7092
ENERGY: 600000 4.2204 9.6332 7.4807 0.0000 -10538.3195 1421.7425 0.0000 0.0000 1762.6977 -7332.5450 300.7900 -9095.2428 -7382.4876 301.1563 -148.6980 -95.3578 30438.6579 146.7442 195.6179
ENERGY: 900000 6.4536 5.2303 7.8505 0.0000 -10759.9250 1499.4695 0.0000 0.0000 1699.7702 -7541.1510 290.0520 -9240.9212 -7407.2863 299.1331 -35.8375 27.8811 30503.4115 220.7593 274.7894
ENERGY: 1200000 5.7318 6.3069 8.0321 0.0000 -10689.5218 1465.1707 0.0000 0.0000 1725.7374 -7478.5429 294.4831 -9204.2804 -7414.6553 297.9973 -112.6560 -23.7869 30176.4219 16.3976 78.6023
ENERGY: 1500000 3.5270 6.8331 3.4058 0.0000 -10445.3369 1364.7487 0.0000 0.0000 1743.7002 -7323.1221 297.5483 -9066.8223 -7406.4435 298.2469 -580.5142 -518.6075 30883.3901 -37.6740 28.5490
TCL: Running FEP window   8: Lambda1 0.35   Lambda2 0.39999999999999997 [dLambda 0.04999999999999999]
TCL: Setting parameter firsttimestep to 0
TCL: Setting parameter alchLambda to 0.35
Info: NONBONDED TABLE R-SQUARED SPACING: 0.0625
Info: NONBONDED TABLE SIZE: 705 POINTS
TCL: Setting parameter alchLambda2 to 0.39999999999999997
Info: NONBONDED TABLE R-SQUARED SPACING: 0.0625
Info: NONBONDED TABLE SIZE: 705 POINTS
TCL: Running for 1500000 steps
ETITLE: TS BOND ANGLE DIHED IMPRP ELECT VDW BOUNDARY MISC KINETIC TOTAL TEMP POTENTIAL TOTALAVG TEMPAVG PRESSURE GPRESSURE VOLUME PRESSAVG GPRESSAVG
ENERGY: 0 3.5270 6.8331 3.4058 0.0000 -10445.3377 1364.9495 0.0000 0.0000 1742.8252 -7323.7972 297.3990 -9066.6224 -7323.7972 297.3990 -592.5020 -511.9239 30883.3901 -592.5020 -511.9239
ENERGY: 300000 5.1052 7.9633 5.6749 0.0000 -10643.7468 1418.8772 0.0000 0.0000 1809.5614 -7396.5647 308.7870 -9206.1261 -7366.9515 303.4485 -340.5497 -248.2752 30193.6171 -191.3415 -132.2560
ENERGY: 600000 10.2120 5.6534 4.9999 0.0000 -10535.8512 1343.4014 0.0000 0.0000 1787.8101 -7383.7743 305.0753 -9171.5844 -7377.8754 301.0976 -918.7644 -784.8704 30270.9658 -432.5364 -363.6583
ENERGY: 900000 3.3928 15.9031 8.5716 0.0000 -10723.2096 1468.3339 0.0000 0.0000 1774.5592 -7452.4490 302.8141 -9227.0082 -7379.2462 301.3735 220.5963 291.6748 30054.8468 -299.6803 -226.9151
ENERGY: 1200000 2.6988 6.2180 5.3223 0.0000 -10675.9738 1452.8912 0.0000 0.0000 1727.2363 -7481.6072 294.7388 -9208.8435 -7386.5316 301.5234 -78.3798 -20.2084 30384.1264 -236.6315 -171.6712
ENERGY: 1500000 5.4605 5.2645 3.5454 0.0000 -10627.5937 1449.3510 0.0000 0.0000 1790.9735 -7372.9987 305.6151 -9163.9722 -7387.3885 301.1255 446.3508 479.2160 29761.4957 -169.0871 -106.8255
TCL: Running FEP window   9: Lambda1 0.39999999999999997 Lambda2 0.44999999999999996 [dLambda 0.04999999999999999]
TCL: Setting parameter firsttimestep to 0
TCL: Setting parameter alchLambda to 0.39999999999999997
Info: NONBONDED TABLE R-SQUARED SPACING: 0.0625
Info: NONBONDED TABLE SIZE: 705 POINTS
TCL: Setting parameter alchLambda2 to 0.44999999999999996
Info: NONBONDED TABLE R-SQUARED SPACING: 0.0625
Info: NONBONDED TABLE SIZE: 705 POINTS
TCL: Running for 1500000 steps
ETITLE: TS BOND ANGLE DIHED IMPRP ELECT VDW BOUNDARY MISC KINETIC TOTAL TEMP POTENTIAL TOTALAVG TEMPAVG PRESSURE GPRESSURE VOLUME PRESSAVG GPRESSAVG
ENERGY: 0 5.4605 5.2645 3.5454 0.0000 -10627.5939 1449.4362 0.0000 0.0000 1790.1337 -7373.7536 305.4718 -9163.8873 -7373.7536 305.4718 399.8621 487.2766 29761.4957 399.8621 487.2766
ENERGY: 300000 3.1686 7.2109 6.5628 0.0000 -10535.6518 1345.4137 0.0000 0.0000 1744.9639 -7428.3319 297.7639 -9173.2957 -7428.7624 298.5715 -701.1896 -666.0127 30228.3380 99.4709 174.0285
ENERGY: 600000 4.0682 8.2304 3.2169 0.0000 -10627.8688 1445.8326 0.0000 0.0000 1745.0263 -7421.4945 297.7746 -9166.5208 -7430.4433 298.1818 56.6271 116.2610 29939.7057 73.1804 158.3663
ENERGY: 900000 2.8480 16.3939 8.1407 0.0000 -10556.0698 1349.5223 0.0000 0.0000 1759.6413 -7419.5237 300.2685 -9179.1650 -7426.8662 298.6382 -1021.2540 -1027.4945 30706.5781 -15.7365 44.1905
ENERGY: 1200000 5.1109 9.0158 3.2662 0.0000 -10686.3417 1471.0192 0.0000 0.0000 1751.8013 -7446.1282 298.9307 -9197.9295 -7428.7327 299.1673 105.9730 156.6559 30374.8031 -21.6715 41.9818
ENERGY: 1500000 4.5355 8.6562 3.7480 0.0000 -10611.1815 1404.2435 0.0000 0.0000 1742.3302 -7447.6681 297.3145 -9189.9983 -7439.4703 298.1797 -230.2855 -146.5638 30057.1002 17.7707 81.0409
TCL: Running FEP window  10: Lambda1 0.44999999999999996 Lambda2 0.49999999999999994 [dLambda 0.04999999999999999]
TCL: Setting parameter firsttimestep to 0
TCL: Setting parameter alchLambda to 0.44999999999999996
Info: NONBONDED TABLE R-SQUARED SPACING: 0.0625
Info: NONBONDED TABLE SIZE: 705 POINTS
TCL: Setting parameter alchLambda2 to 0.49999999999999994
Info: NONBONDED TABLE R-SQUARED SPACING: 0.0625
Info: NONBONDED TABLE SIZE: 705 POINTS
TCL: Running for 1500000 steps
ETITLE: TS BOND ANGLE DIHED IMPRP ELECT VDW BOUNDARY MISC KINETIC TOTAL TEMP POTENTIAL TOTALAVG TEMPAVG PRESSURE GPRESSURE VOLUME PRESSAVG GPRESSAVG
ENERGY: 0 4.5355 8.6562 3.7480 0.0000 -10611.1835 1403.9734 0.0000 0.0000 1741.4674 -7448.8030 297.1673 -9190.2704 -7448.8030 297.1673 -211.6535 -137.4332 30057.1002 -211.6535 -137.4332
ENERGY: 300000 4.2442 7.4086 5.8383 0.0000 -10528.3046 1329.5749 0.0000 0.0000 1752.9066 -7428.3320 299.1193 -9181.2386 -7380.9742 297.5594 -1084.9867 -1020.4137 30756.9551 -594.4909 -515.1945
ENERGY: 600000 2.6047 6.5056 4.5599 0.0000 -10534.0107 1360.3299 0.0000 0.0000 1731.2959 -7428.7148 295.4316 -9160.0107 -7402.1373 296.2633 -658.5687 -567.4132 30535.8942 -597.2403 -523.5152
ENERGY: 900000 4.4210 8.1330 2.9937 0.0000 -10607.8575 1443.1722 0.0000 0.0000 1782.5828 -7366.5548 304.1833 -9149.1376 -7401.4110 297.0515 -8.3782 131.2309 30501.7061 -402.7313 -312.1274
ENERGY: 1200000 5.8848 5.0178 3.6526 0.0000 -10577.7282 1396.5215 0.0000 0.0000 1730.9921 -7435.6594 295.3797 -9166.6515 -7421.8892 296.4593 -160.2353 -141.8823 30293.4364 -345.7595 -268.3681
ENERGY: 1500000 8.8809 6.0475 4.8671 0.0000 -10479.1219 1392.8640 0.0000 0.0000 1721.3080 -7345.1544 293.7272 -9066.4624 -7419.7119 296.5398 -45.1452 -3.5474 30290.6074 -273.9226 -204.5108
TCL: Running FEP window  11: Lambda1 0.49999999999999994 Lambda2 0.5499999999999999 [dLambda 0.04999999999999999]
TCL: Setting parameter firsttimestep to 0
TCL: Setting parameter alchLambda to 0.49999999999999994
Info: NONBONDED TABLE R-SQUARED SPACING: 0.0625
Info: NONBONDED TABLE SIZE: 705 POINTS
TCL: Setting parameter alchLambda2 to 0.5499999999999999
Info: NONBONDED TABLE R-SQUARED SPACING: 0.0625
Info: NONBONDED TABLE SIZE: 705 POINTS
TCL: Running for 1500000 steps
ETITLE: TS BOND ANGLE DIHED IMPRP ELECT VDW BOUNDARY MISC KINETIC TOTAL TEMP POTENTIAL TOTALAVG TEMPAVG PRESSURE GPRESSURE VOLUME PRESSAVG GPRESSAVG
ENERGY: 0 8.8809 6.0475 4.8671 0.0000 -10479.1228 1392.3700 0.0000 0.0000 1720.4203 -7346.5369 293.5757 -9066.9573 -7346.5369 293.5757 -94.9321 2.6338 30290.6074 -94.9321 2.6338
ENERGY: 300000 2.4921 8.5106 1.6152 0.0000 -10458.4125 1359.6359 0.0000 0.0000 1796.5253 -7289.6334 306.5624 -9086.1587 -7361.2392 298.2302 -354.8465 -228.6009 30324.4322 -149.7271 -52.8174
ENERGY: 600000 6.5502 6.0839 2.1785 0.0000 -10483.9826 1385.1248 0.0000 0.0000 1772.0301 -7312.0150 302.3825 -9084.0451 -7368.3600 300.6699 -415.3269 -362.7283 30564.4086 -68.1798 15.1161
ENERGY: 900000 2.1500 10.7723 4.3950 0.0000 -10558.6386 1472.4166 0.0000 0.0000 1814.3593 -7254.5455 309.6057 -9068.9048 -7350.0930 302.6301 399.4430 475.6644 30432.8806 99.6426 173.5462
ENERGY: 1200000 3.0101 7.1372 5.1874 0.0000 -10814.0597 1558.8874 0.0000 0.0000 1715.6155 -7524.2220 292.7559 -9239.8376 -7379.3952 300.6831 903.5074 995.3968 29942.9192 128.0593 200.5189
ENERGY: 1500000 4.7888 9.1571 4.9723 0.0000 -10710.1697 1494.5207 0.0000 0.0000 1778.6335 -7418.0974 303.5094 -9196.7309 -7386.5741 300.7841 279.2307 296.2176 30654.4767 110.6605 183.2551
TCL: Running FEP window  12: Lambda1 0.5499999999999999 Lambda2 0.6    [dLambda 0.050000000000000044]
TCL: Setting parameter firsttimestep to 0
TCL: Setting parameter alchLambda to 0.5499999999999999
Info: NONBONDED TABLE R-SQUARED SPACING: 0.0625
Info: NONBONDED TABLE SIZE: 705 POINTS
TCL: Setting parameter alchLambda2 to 0.6
Info: NONBONDED TABLE R-SQUARED SPACING: 0.0625
Info: NONBONDED TABLE SIZE: 705 POINTS
TCL: Running for 1500000 steps
ETITLE: TS BOND ANGLE DIHED IMPRP ELECT VDW BOUNDARY MISC KINETIC TOTAL TEMP POTENTIAL TOTALAVG TEMPAVG PRESSURE GPRESSURE VOLUME PRESSAVG GPRESSAVG
ENERGY: 0 4.7888 9.1571 4.9723 0.0000 -10710.0410 1494.5981 0.0000 0.0000 1777.7551 -7418.7696 303.3595 -9196.5247 -7418.7696 303.3595 224.7550 305.0123 30654.4767 224.7550 305.0123
ENERGY: 300000 4.3957 4.4623 4.5526 0.0000 -10459.1158 1341.1640 0.0000 0.0000 1741.5239 -7363.0173 297.1769 -9104.5412 -7367.5178 300.8979 -485.4857 -428.7466 30453.7223 -234.0323 -185.6224
ENERGY: 600000 5.1650 6.8571 4.9496 0.0000 -10750.7199 1493.3588 0.0000 0.0000 1760.1252 -7480.2642 300.3511 -9240.3894 -7391.0253 302.3543 621.0525 674.1415 29505.2953 -152.3910 -105.1272
ENERGY: 900000 2.4168 9.0902 3.7608 0.0000 -10509.1664 1398.8779 0.0000 0.0000 1743.4291 -7351.5916 297.5020 -9095.0207 -7378.5270 302.0462 -266.0005 -142.0021 30544.3206 -119.2047 -63.4731
ENERGY: 1200000 2.5356 7.5772 4.0682 0.0000 -10737.9219 1456.4343 0.0000 0.0000 1795.1759 -7472.1308 306.3322 -9267.3067 -7393.7406 301.4062 432.7237 433.6370 29663.8559 -42.7675 12.2394
ENERGY: 1500000 3.4462 7.1305 5.9253 0.0000 -10614.9873 1440.3540 0.0000 0.0000 1806.4946 -7351.6367 308.2636 -9158.1314 -7395.2879 301.3284 188.2959 273.2021 30060.9843 -36.1889 21.2237
TCL: Running FEP window  13: Lambda1 0.6    Lambda2 0.65   [dLambda 0.050000000000000044]
TCL: Setting parameter firsttimestep to 0
TCL: Setting parameter alchLambda to 0.6
Info: NONBONDED TABLE R-SQUARED SPACING: 0.0625
Info: NONBONDED TABLE SIZE: 705 POINTS
TCL: Setting parameter alchLambda2 to 0.65
Info: NONBONDED TABLE R-SQUARED SPACING: 0.0625
Info: NONBONDED TABLE SIZE: 705 POINTS
TCL: Running for 1500000 steps
ETITLE: TS BOND ANGLE DIHED IMPRP ELECT VDW BOUNDARY MISC KINETIC TOTAL TEMP POTENTIAL TOTALAVG TEMPAVG PRESSURE GPRESSURE VOLUME PRESSAVG GPRESSAVG
ENERGY: 0 3.4462 7.1305 5.9253 0.0000 -10615.1096 1440.2544 0.0000 0.0000 1805.5974 -7352.7560 308.1105 -9158.3533 -7352.7560 308.1105 194.9488 278.4821 30060.9843 194.9488 278.4821
ENERGY: 300000 7.2534 6.7680 3.2482 0.0000 -10595.1063 1428.1542 0.0000 0.0000 1733.3915 -7416.2910 295.7892 -9149.6826 -7364.5361 302.6748 -117.2149 -23.7205 30276.2704 -24.6650 35.5101
ENERGY: 600000 5.8205 7.5721 4.9912 0.0000 -10517.0371 1390.3602 0.0000 0.0000 1772.3840 -7335.9091 302.4429 -9108.2931 -7362.6845 301.3179 34.6729 121.3501 30102.1405 -153.3219 -89.6075
ENERGY: 900000 4.1792 5.3610 2.4502 0.0000 -10580.5976 1391.3494 0.0000 0.0000 1732.2801 -7444.9778 295.5995 -9177.2579 -7377.0016 301.2979 -684.7961 -593.2199 30874.6877 -233.5220 -168.0539
ENERGY: 1200000 4.2211 5.0188 10.3697 0.0000 -10766.4757 1519.8679 0.0000 0.0000 1789.0187 -7437.9795 305.2815 -9226.9982 -7384.9618 301.2346 973.8691 1009.8059 29568.4638 -82.8931 -14.3288
ENERGY: 1500000 4.8440 8.3789 9.0114 0.0000 -10645.5101 1397.4816 0.0000 0.0000 1782.7376 -7443.0566 304.2097 -9225.7942 -7384.5597 301.8755 -587.7294 -562.6008 30253.5446 -110.4373 -44.3541
TCL: Running FEP window  14: Lambda1 0.65   Lambda2 0.7000000000000001 [dLambda 0.050000000000000044]
TCL: Setting parameter firsttimestep to 0
TCL: Setting parameter alchLambda to 0.65
Info: NONBONDED TABLE R-SQUARED SPACING: 0.0625
Info: NONBONDED TABLE SIZE: 705 POINTS
TCL: Setting parameter alchLambda2 to 0.7000000000000001
Info: NONBONDED TABLE R-SQUARED SPACING: 0.0625
Info: NONBONDED TABLE SIZE: 705 POINTS
TCL: Running for 1500000 steps
ETITLE: TS BOND ANGLE DIHED IMPRP ELECT VDW BOUNDARY MISC KINETIC TOTAL TEMP POTENTIAL TOTALAVG TEMPAVG PRESSURE GPRESSURE VOLUME PRESSAVG GPRESSAVG
ENERGY: 0 4.8440 8.3789 9.0114 0.0000 -10645.3656 1397.6086 0.0000 0.0000 1781.8608 -7443.6619 304.0601 -9225.5227 -7443.6619 304.0601 -627.9922 -549.2135 30253.5446 -627.9922 -549.2135
ENERGY: 300000 6.3146 9.2746 2.5083 0.0000 -10642.8207 1414.4271 0.0000 0.0000 1693.9368 -7516.3593 289.0565 -9210.2961 -7443.1188 301.1957 -605.9189 -601.0476 30748.6284 -614.5430 -570.4510
ENERGY: 600000 2.7692 6.7081 7.2496 0.0000 -10548.2340 1389.0019 0.0000 0.0000 1721.4391 -7421.0661 293.7496 -9142.5052 -7434.2614 299.9144 -350.0054 -286.0172 30754.2359 -327.7863 -279.1527
ENERGY: 900000 3.7979 8.0017 3.5836 0.0000 -10627.9721 1441.1977 0.0000 0.0000 1717.2374 -7454.1539 293.0326 -9171.3913 -7441.6653 300.0733 180.0865 139.3581 29926.6820 -278.9052 -242.0917
ENERGY: 1200000 5.3021 6.2672 6.0970 0.0000 -10578.1385 1341.0429 0.0000 0.0000 1832.1693 -7387.2601 312.6448 -9219.4294 -7429.3526 300.3389 -730.4678 -628.0221 29940.0659 -329.4009 -286.6120
ENERGY: 1500000 9.0262 6.0815 5.2222 0.0000 -10699.3417 1461.9233 0.0000 0.0000 1751.5029 -7465.5856 298.8797 -9217.0885 -7421.6982 301.3448 119.7079 189.9093 30423.0724 -267.9436 -220.4993
TCL: Running FEP window  15: Lambda1 0.7000000000000001 Lambda2 0.7500000000000001 [dLambda 0.050000000000000044]
TCL: Setting parameter firsttimestep to 0
TCL: Setting parameter alchLambda to 0.7000000000000001
Info: NONBONDED TABLE R-SQUARED SPACING: 0.0625
Info: NONBONDED TABLE SIZE: 705 POINTS
TCL: Setting parameter alchLambda2 to 0.7500000000000001
Info: NONBONDED TABLE R-SQUARED SPACING: 0.0625
Info: NONBONDED TABLE SIZE: 705 POINTS
TCL: Running for 1500000 steps
ETITLE: TS BOND ANGLE DIHED IMPRP ELECT VDW BOUNDARY MISC KINETIC TOTAL TEMP POTENTIAL TOTALAVG TEMPAVG PRESSURE GPRESSURE VOLUME PRESSAVG GPRESSAVG
ENERGY: 0 9.0262 6.0815 5.2222 0.0000 -10699.7301 1462.4887 0.0000 0.0000 1750.6670 -7466.2444 298.7371 -9216.9114 -7466.2444 298.7371 127.9022 210.2785 30423.0724 127.9022 210.2785
ENERGY: 300000 2.5597 7.4975 2.7096 0.0000 -10544.1886 1403.6024 0.0000 0.0000 1774.2475 -7353.5720 302.7609 -9127.8195 -7399.2648 300.1014 -225.6990 -145.1589 30528.0935 56.4697 117.6069
ENERGY: 600000 7.0160 9.0527 4.4735 0.0000 -10571.5579 1327.8247 0.0000 0.0000 1720.4841 -7502.7069 293.5866 -9223.1910 -7429.0018 299.0889 -1056.5007 -1016.8952 30296.1117 -198.7745 -145.7837
ENERGY: 900000 5.1697 10.3230 4.5686 0.0000 -10615.6669 1449.1716 0.0000 0.0000 1724.5964 -7421.8376 294.2884 -9146.4340 -7420.4349 298.7431 202.1345 264.7542 30001.2308 -98.7406 -39.2777
ENERGY: 1200000 5.8469 8.1119 8.6718 0.0000 -10631.5651 1395.6525 0.0000 0.0000 1727.7404 -7485.5416 294.8249 -9213.2820 -7422.6877 298.5066 -383.2181 -326.0330 30216.0087 -173.4602 -113.3503
ENERGY: 1500000 5.7094 6.2889 4.5002 0.0000 -10636.6189 1418.6938 0.0000 0.0000 1802.9630 -7398.4637 307.6610 -9201.4267 -7421.8687 299.1881 -435.2653 -316.7533 30301.4103 -123.5036 -56.9152
TCL: Running FEP window  16: Lambda1 0.7500000000000001 Lambda2 0.8000000000000002 [dLambda 0.050000000000000044]
TCL: Setting parameter firsttimestep to 0
TCL: Setting parameter alchLambda to 0.7500000000000001
Info: NONBONDED TABLE R-SQUARED SPACING: 0.0625
Info: NONBONDED TABLE SIZE: 705 POINTS
TCL: Setting parameter alchLambda2 to 0.8000000000000002
Info: NONBONDED TABLE R-SQUARED SPACING: 0.0625
Info: NONBONDED TABLE SIZE: 705 POINTS
TCL: Running for 1500000 steps
ETITLE: TS BOND ANGLE DIHED IMPRP ELECT VDW BOUNDARY MISC KINETIC TOTAL TEMP POTENTIAL TOTALAVG TEMPAVG PRESSURE GPRESSURE VOLUME PRESSAVG GPRESSAVG
ENERGY: 0 5.7094 6.2889 4.5002 0.0000 -10637.6316 1419.1074 0.0000 0.0000 1802.0555 -7399.9702 307.5061 -9202.0257 -7399.9702 307.5061 -395.2350 -301.1771 30301.4103 -395.2350 -301.1771
ENERGY: 300000 6.9162 5.6686 5.4278 0.0000 -10451.0916 1319.0041 0.0000 0.0000 1814.8518 -7299.2232 309.6897 -9114.0750 -7383.2644 302.1411 -955.4404 -867.3223 30562.9549 -448.1231 -373.1429
ENERGY: 600000 4.8208 6.7483 2.6356 0.0000 -10560.4927 1446.7075 0.0000 0.0000 1825.2164 -7274.3642 311.4583 -9099.5805 -7374.3782 304.1908 412.7472 467.7912 30210.3819 -274.0449 -220.1344
ENERGY: 900000 5.3196 4.8105 4.2634 0.0000 -10575.0542 1377.0938 0.0000 0.0000 1758.8146 -7424.7523 300.1274 -9183.5670 -7378.3338 302.3452 -507.9994 -425.6320 30352.5059 -247.2380 -183.8950
ENERGY: 1200000 2.3727 10.2292 3.6480 0.0000 -10575.8060 1374.5268 0.0000 0.0000 1756.4856 -7428.5437 299.7300 -9185.0293 -7383.3906 301.2473 -511.7878 -486.8856 30457.8599 -397.2890 -338.7466
ENERGY: 1500000 3.8087 9.2588 3.8118 0.0000 -10723.9668 1424.0726 0.0000 0.0000 1770.8899 -7512.1250 302.1880 -9283.0150 -7395.5820 301.1354 -305.2608 -307.9358 30361.0198 -254.5983 -196.6018
TCL: Running FEP window  17: Lambda1 0.8000000000000002 Lambda2 0.8500000000000002 [dLambda 0.050000000000000044]
TCL: Setting parameter firsttimestep to 0
TCL: Setting parameter alchLambda to 0.8000000000000002
Info: NONBONDED TABLE R-SQUARED SPACING: 0.0625
Info: NONBONDED TABLE SIZE: 705 POINTS
TCL: Setting parameter alchLambda2 to 0.8500000000000002
Info: NONBONDED TABLE R-SQUARED SPACING: 0.0625
Info: NONBONDED TABLE SIZE: 705 POINTS
TCL: Running for 1500000 steps
ETITLE: TS BOND ANGLE DIHED IMPRP ELECT VDW BOUNDARY MISC KINETIC TOTAL TEMP POTENTIAL TOTALAVG TEMPAVG PRESSURE GPRESSURE VOLUME PRESSAVG GPRESSAVG
ENERGY: 0 3.8087 9.2588 3.8118 0.0000 -10724.8549 1423.9788 0.0000 0.0000 1770.0137 -7513.9831 302.0385 -9283.9968 -7513.9831 302.0385 -377.1256 -299.2193 30361.0198 -377.1256 -299.2193
ENERGY: 300000 3.5062 6.8811 4.1137 0.0000 -10680.7318 1450.6138 0.0000 0.0000 1766.4449 -7449.1721 301.4295 -9215.6170 -7428.7422 302.4459 290.6099 353.3871 30182.8100 -85.2685 -27.9863
ENERGY: 600000 2.9165 4.0538 6.4137 0.0000 -10582.9536 1422.9668 0.0000 0.0000 1746.1157 -7400.4871 297.9605 -9146.6028 -7419.0015 300.6009 78.2464 100.8083 30321.7235 -26.4206 31.5310
ENERGY: 900000 4.5090 9.1283 7.4795 0.0000 -10712.3175 1432.7001 0.0000 0.0000 1751.5587 -7506.9418 298.8893 -9258.5006 -7429.5375 299.1463 -266.1369 -230.5775 29932.9258 -43.2164 3.4723
ENERGY: 1200000 5.2710 8.4667 4.7436 0.0000 -10674.6527 1487.0139 0.0000 0.0000 1763.3829 -7405.7745 300.9070 -9169.1574 -7423.4775 299.1019 619.9544 698.7748 29972.5013 64.5784 112.3762
ENERGY: 1500000 2.2458 7.4992 3.9802 0.0000 -10473.4770 1358.3505 0.0000 0.0000 1794.7081 -7306.6932 306.2523 -9101.4013 -7417.0087 299.3616 -432.5498 -363.2622 30546.9149 44.6104 95.1821
TCL: Running FEP window  18: Lambda1 0.8500000000000002 Lambda2 0.9000000000000002 [dLambda 0.050000000000000044]
TCL: Setting parameter firsttimestep to 0
TCL: Setting parameter alchLambda to 0.8500000000000002
Info: NONBONDED TABLE R-SQUARED SPACING: 0.0625
Info: NONBONDED TABLE SIZE: 705 POINTS
TCL: Setting parameter alchLambda2 to 0.9000000000000002
Info: NONBONDED TABLE R-SQUARED SPACING: 0.0625
Info: NONBONDED TABLE SIZE: 705 POINTS
TCL: Running for 1500000 steps
ETITLE: TS BOND ANGLE DIHED IMPRP ELECT VDW BOUNDARY MISC KINETIC TOTAL TEMP POTENTIAL TOTALAVG TEMPAVG PRESSURE GPRESSURE VOLUME PRESSAVG GPRESSAVG
ENERGY: 0 2.2458 7.4991 3.9802 0.0000 -10473.7073 1359.0777 0.0000 0.0000 1793.8688 -7307.0357 306.1091 -9100.9044 -7307.0357 306.1091 -430.5256 -341.2073 30546.9149 -430.5256 -341.2073
ENERGY: 300000 6.8014 4.4069 3.6026 0.0000 -10555.5022 1369.2855 0.0000 0.0000 1799.0881 -7372.3176 306.9998 -9171.4058 -7401.7542 302.3367 -887.5743 -805.7102 30717.5956 -489.6943 -403.4671
ENERGY: 600000 5.3749 8.4274 7.8673 0.0000 -10624.6462 1376.1549 0.0000 0.0000 1768.0546 -7458.7671 301.7041 -9226.8217 -7421.7696 301.5631 -353.7729 -320.4434 30135.9245 -392.5677 -326.8105
ENERGY: 900000 2.7335 5.5203 5.2854 0.0000 -10616.7726 1440.3541 0.0000 0.0000 1774.8793 -7388.0001 302.8687 -9162.8793 -7407.5603 300.3891 153.7516 218.3846 30161.1092 -304.7522 -242.1503
ENERGY: 1200000 2.9434 9.4277 4.0723 0.0000 -10613.9546 1413.7764 0.0000 0.0000 1784.5535 -7399.1813 304.5196 -9183.7348 -7403.2309 300.7314 -28.5399 50.9943 30150.7536 -266.2794 -201.0403
ENERGY: 1500000 3.9148 3.7904 2.6994 0.0000 -10613.5639 1385.7586 0.0000 0.0000 1773.6716 -7443.7291 302.6627 -9217.4007 -7413.4413 300.5929 -536.3521 -405.8222 30200.6881 -224.7345 -157.8856
TCL: Running FEP window  19: Lambda1 0.9000000000000002 Lambda2 0.9500000000000003 [dLambda 0.050000000000000044]
TCL: Setting parameter firsttimestep to 0
TCL: Setting parameter alchLambda to 0.9000000000000002
Info: NONBONDED TABLE R-SQUARED SPACING: 0.0625
Info: NONBONDED TABLE SIZE: 705 POINTS
TCL: Setting parameter alchLambda2 to 0.9500000000000003
Info: NONBONDED TABLE R-SQUARED SPACING: 0.0625
Info: NONBONDED TABLE SIZE: 705 POINTS
TCL: Running for 1500000 steps
ETITLE: TS BOND ANGLE DIHED IMPRP ELECT VDW BOUNDARY MISC KINETIC TOTAL TEMP POTENTIAL TOTALAVG TEMPAVG PRESSURE GPRESSURE VOLUME PRESSAVG GPRESSAVG
ENERGY: 0 3.9147 3.7904 2.6994 0.0000 -10614.5246 1386.3438 0.0000 0.0000 1772.7692 -7445.0071 302.5087 -9217.7763 -7445.0071 302.5087 -460.1570 -382.6432 30200.6881 -460.1570 -382.6432
ENERGY: 300000 6.3045 5.7627 5.3530 0.0000 -10756.5885 1435.7671 0.0000 0.0000 1799.8273 -7503.5739 307.1259 -9303.4012 -7428.9236 307.5386 -376.2227 -288.6432 30324.2683 -88.0885 -0.9016
ENERGY: 600000 5.0671 11.9546 4.8948 0.0000 -10564.2460 1382.2793 0.0000 0.0000 1721.8537 -7438.1965 293.8204 -9160.0502 -7427.4935 303.2208 -77.4296 -69.7400 30110.3601 -151.7156 -87.9527
ENERGY: 900000 10.2842 10.6186 4.9537 0.0000 -10540.9314 1313.7719 0.0000 0.0000 1766.7297 -7434.5734 301.4781 -9201.3031 -7427.5280 303.0544 -775.7372 -792.0050 29811.1089 -266.0273 -205.3881
ENERGY: 1200000 7.4247 6.9165 3.8635 0.0000 -10715.1326 1536.4737 0.0000 0.0000 1795.3080 -7365.1461 306.3547 -9160.4541 -7434.1739 302.3274 811.1206 849.5287 30562.3463 -229.0662 -167.2429
ENERGY: 1500000 2.0919 8.6361 5.7634 0.0000 -10771.4541 1489.0065 0.0000 0.0000 1728.4739 -7537.4824 294.9500 -9265.9562 -7433.1394 302.0043 207.2113 249.8767 30314.8355 -169.7638 -106.0768
TCL: Running FEP window  20: Lambda1 0.9500000000000003 Lambda2 1.0    [dLambda 0.04999999999999971]
TCL: Setting parameter firsttimestep to 0
TCL: Setting parameter alchLambda to 0.9500000000000003
Info: NONBONDED TABLE R-SQUARED SPACING: 0.0625
Info: NONBONDED TABLE SIZE: 705 POINTS
TCL: Setting parameter alchLambda2 to 1.0
Info: NONBONDED TABLE R-SQUARED SPACING: 0.0625
Info: NONBONDED TABLE SIZE: 705 POINTS
TCL: Running for 1500000 steps
ETITLE: TS BOND ANGLE DIHED IMPRP ELECT VDW BOUNDARY MISC KINETIC TOTAL TEMP POTENTIAL TOTALAVG TEMPAVG PRESSURE GPRESSURE VOLUME PRESSAVG GPRESSAVG
ENERGY: 0 2.0919 8.6361 5.7634 0.0000 -10772.0107 1489.1512 0.0000 0.0000 1727.5941 -7538.7740 294.7999 -9266.3681 -7538.7740 294.7999 191.5191 262.7552 30314.8355 191.5191 262.7552
ENERGY: 300000 4.7364 8.2609 7.7667 0.0000 -10639.4629 1519.3831 0.0000 0.0000 1704.9137 -7394.4021 290.9297 -9099.3158 -7453.1530 296.8976 680.4864 747.9717 30628.6670 241.6960 333.0247
ENERGY: 600000 6.8886 5.4910 4.8369 0.0000 -10594.4570 1413.3472 0.0000 0.0000 1724.9660 -7438.9274 294.3514 -9163.8934 -7457.2719 298.0063 -129.5714 -89.8834 30610.9195 104.0744 190.7663
ENERGY: 900000 8.6996 6.7461 3.1802 0.0000 -10621.9637 1447.0596 0.0000 0.0000 1816.8044 -7339.4738 310.0229 -9156.2782 -7438.8411 299.3079 339.7328 384.3332 30261.0032 102.0835 175.8770
ENERGY: 1200000 2.4764 7.2397 4.7069 0.0000 -10719.0227 1477.2192 0.0000 0.0000 1749.6970 -7477.6833 298.5716 -9227.3804 -7444.5886 299.7879 327.1405 407.1458 30119.4371 128.5404 203.0194
ENERGY: 1500000 1.7682 9.6549 2.1474 0.0000 -10777.9004 1509.6797 0.0000 0.0000 1709.6008 -7545.0494 291.7295 -9254.6501 -7444.8967 299.2179 702.7626 759.2039 30176.2499 138.0612 204.3424
TCL: Exiting due to exit command.
