Info: SIMULATION PARAMETERS:
Info: TIMESTEP               2
Info: NUMBER OF STEPS        0
Info: STEPS PER CYCLE        10
Info: PERIODIC CELL BASIS 1  30.2487 0 0
Info: PERIODIC CELL BASIS 2  0 29.459 0
Info: PERIODIC CELL BASIS 3  0 0 34.1484
Info: PERIODIC CELL CENTER   0 0 0
Info: WRAPPING WATERS AROUND PERIODIC BOUNDARIES ON OUTPUT.
Info: WRAPPING ALL CLUSTERS AROUND PERIODIC BOUNDARIES ON OUTPUT.
Info: FIRST LDB TIMESTEP     50
Info: LAST LDB TIMESTEP     -1
Info: HOM BACKGROUND SCALING 1
Info: PME BACKGROUND SCALING 1
Info: MIN ATOMS PER PATCH    40
Info: EMPTY PATCH LOAD       40 ATOMS
Info: VELOCITY FILE          mobley_4683624_equil.vel
Info: CENTER OF MASS MOVING INITIALLY? NO
Info: DIELECTRIC             1
Info: EXCLUDE                SCALED ONE-FOUR
Info: 1-4 ELECTROSTATICS SCALED BY 0.833333
Info: MODIFIED 1-4 VDW PARAMETERS WILL BE USED
Info: DCD FILENAME           mobley_4683624_prod.dcd
Info: DCD FREQUENCY          100000
Info: DCD FIRST STEP         100000
Info: DCD FILE WILL CONTAIN UNIT CELL DATA
Info: XST FILENAME           mobley_4683624_prod.xst
Info: XST FREQUENCY          100000
Info: NO VELOCITY DCD OUTPUT
Info: NO FORCE DCD OUTPUT
Info: OUTPUT FILENAME        mobley_4683624_prod
Info: BINARY OUTPUT FILES WILL BE USED
Info: RESTART FILENAME       mobley_4683624_prod.restart
Info: RESTART FREQUENCY      100000
Info: BINARY RESTART FILES WILL BE USED
Info: CUTOFF                 9
Info: PAIRLIST DISTANCE      11
Info: PAIRLIST SHRINK RATE   0.01
Info: PAIRLIST GROW RATE     0.01
Info: PAIRLIST TRIGGER       0.3
Info: PAIRLISTS PER CYCLE    2
Info: PAIRLISTS ENABLED
Info: MARGIN                 2
Info: HYDROGEN GROUP CUTOFF  2.5
Info: PATCH DIMENSION        15.5
Info: ENERGY OUTPUT STEPS    100000
Info: ENERGY EVALUATION STEPS    100000
Info: OUTPUT ENERGY PRECISION 4
Info: CROSSTERM ENERGY INCLUDED IN DIHEDRAL
Info: TIMING OUTPUT STEPS    1000000
Info: PRESSURE OUTPUT STEPS  100000
Info: ALCHEMICAL FEP ON
Info: FEP CURRENT LAMBDA VALUE     0
Info: FEP COMPARISON LAMBDA VALUE  0.05
Info: FEP INTRA-ALCHEMICAL NON-BONDED INTERACTIONS WILL BE RETAINED
Info: FEP INTRA-ALCHEMICAL BONDED INTERACTIONS WILL BE RETAINED
Info: FEP VDW SHIFTING COEFFICIENT 5
Info: FEP ELEC. ACTIVE FOR ANNIHILATED PARTICLES BETWEEN LAMBDA = 0 AND LAMBDA = 0.5
Info: FEP ELEC. ACTIVE FOR EXNIHILATED PARTICLES BETWEEN LAMBDA = 0.5 AND LAMBDA = 1
Info: FEP VDW ACTIVE FOR ANNIHILATED PARTICLES BETWEEN LAMBDA = 0 AND LAMBDA = 1
Info: FEP VDW ACTIVE FOR EXNIHILATED PARTICLES BETWEEN LAMBDA = 0 AND LAMBDA = 1
Info: FEP BOND ACTIVE FOR ANNIHILATED PARTICLES BETWEEN LAMBDA = 1 AND LAMBDA = 1
Info: FEP BOND ACTIVE FOR EXNIHILATED PARTICLES BETWEEN LAMBDA = 0 AND LAMBDA = 0
Info: LANGEVIN DYNAMICS ACTIVE
Info: LANGEVIN TEMPERATURE   300
Info: LANGEVIN USING BBK INTEGRATOR
Info: LANGEVIN DAMPING COEFFICIENT IS 1 INVERSE PS
Info: LANGEVIN DYNAMICS APPLIED TO HYDROGENS
Info: LANGEVIN PISTON PRESSURE CONTROL ACTIVE
Info:        TARGET PRESSURE IS 1.01325 BAR
Info:     OSCILLATION PERIOD IS 50 FS
Info:             DECAY TIME IS 25 FS
Info:     PISTON TEMPERATURE IS 300 K
Info:       PRESSURE CONTROL IS GROUP-BASED
Info:    INITIAL STRAIN RATE IS 0.000383542 0.000383542 0.000383542
Info:       CELL FLUCTUATION IS ISOTROPIC
Info: PARTICLE MESH EWALD (PME) ACTIVE
Info: PME TOLERANCE               1e-06
Info: PME EWALD COEFFICIENT       0.348832
Info: PME INTERPOLATION ORDER     4
Info: PME GRID DIMENSIONS         32 32 36
Info: PME MAXIMUM GRID SPACING    1
Info: PME CALCULATION WILL BE PERFORMED ON GPU
Info: FULL ELECTROSTATIC EVALUATION FREQUENCY      2
Info: USING VERLET I (r-RESPA) MTS SCHEME.
Info: C1 SPLITTING OF LONG RANGE ELECTROSTATICS
Info: PLACING ATOMS IN PATCHES BY HYDROGEN GROUPS
Info: RIGID BONDS TO HYDROGEN : ALL
Info:         ERROR TOLERANCE : 1e-08
Info:          MAX ITERATIONS : 100
Info: RIGID WATER USING SETTLE ALGORITHM
Info: RANDOM NUMBER SEED     1743883359
Info: USE HYDROGEN BONDS?    NO
Info: Using AMBER format force field!
Info: AMBER PARM FILE        mobley_4683624.prmtop
Info: COORDINATE PDB         mobley_4683624.pdb
Info: Exclusions will be read from PARM file!
Info: SCNB (VDW SCALING)     2
Info: USING ARITHMETIC MEAN TO COMBINE L-J SIGMA PARAMETERS
Info: BINARY COORDINATES     mobley_4683624_equil.coor
Info: SUMMARY OF PARAMETERS:
Info: 9 BONDS
Info: 10 ANGLES
Info:   10 HARMONIC
Info:   0 COSINE-BASED
Info: 7 DIHEDRAL
Info: 0 IMPROPER
Info: 0 CROSSTERM
Info: 0 VDW
Info: 28 VDW_PAIRS
Info: 0 NBTHOLE_PAIRS
Info: To read alchdata from file: mobley_4683624.pdb
Info: To read alchflag data from column: 5
Info: STRUCTURE SUMMARY:
Info: 2965 ATOMS
Info: 2965 BONDS
Info: 37 ANGLES
Info: 56 DIHEDRALS
Info: 0 IMPROPERS
Info: 0 CROSSTERMS
Info: 3049 EXCLUSIONS
Info: 2955 RIGID BONDS
Info: ALCH: 0 ATOMS TO DISAPPEAR IN FINAL STATE
Info: ALCH: 22 ATOMS TO APPEAR IN FINAL STATE
Info: 5940 DEGREES OF FREEDOM
Info: 991 HYDROGEN GROUPS
Info: 4 ATOMS IN LARGEST HYDROGEN GROUP
Info: 991 MIGRATION GROUPS
Info: 4 ATOMS IN LARGEST MIGRATION GROUP
Info: TOTAL MASS = 17809.9 amu
Info: TOTAL CHARGE = 0.000199992 e
Info: MASS DENSITY = 0.971906 g/cm^3
Info: ATOM DENSITY = 0.0974381 atoms/A^3
Info: ADDED 0 IMPLICIT EXCLUSIONS
Info: NONBONDED TABLE R-SQUARED SPACING: 0.0625
Info: NONBONDED TABLE SIZE: 705 POINTS
Info: REMOVING COM VELOCITY 0.0501358 -0.0124372 -0.00626879
Info: Use 3D box decompostion in PME FFT.
Info: Updated CUDA force table with 4096 elements.
Info: Updated CUDA LJ table with 7 x 7 elements.
Info: Found 24 unique exclusion lists needing 76 bytes
TCL: Running for 1500000 steps
ETITLE: TS BOND ANGLE DIHED IMPRP ELECT VDW BOUNDARY MISC KINETIC TOTAL TEMP POTENTIAL TOTALAVG TEMPAVG PRESSURE GPRESSURE VOLUME PRESSAVG GPRESSAVG
ENERGY: 0 4.7622 7.6772 5.5149 0.0000 -10691.7964 1459.9249 0.0000 0.0000 1751.2452 -7462.6721 296.7228 -9213.9173 -7462.6721 296.7228 120.1181 216.5447 30429.5839 120.1181 216.5447
ENERGY: 300000 4.3856 9.6820 2.6307 0.0000 -10784.3587 1521.7295 0.0000 0.0000 1767.5532 -7478.3777 299.4859 -9245.9309 -7501.4932 296.9014 1015.9312 1021.7072 30107.8418 268.2490 346.3780
ENERGY: 600000 4.5216 12.2274 2.4625 0.0000 -10784.5165 1496.6447 0.0000 0.0000 1800.2910 -7468.3693 305.0329 -9268.6602 -7474.2697 300.2496 407.4377 433.4606 30433.3893 201.5999 248.7604
ENERGY: 900000 3.8610 6.3011 1.6325 0.0000 -10762.4978 1483.3484 0.0000 0.0000 1818.2887 -7449.0661 308.0823 -9267.3548 -7470.3356 301.2828 560.8573 631.6132 29829.1305 255.2512 307.9147
ENERGY: 1200000 2.9623 4.7480 4.6212 0.0000 -10673.8480 1412.7307 0.0000 0.0000 1770.3451 -7478.4407 299.9590 -9248.7858 -7461.8390 302.1671 -259.3515 -248.6714 30593.6447 137.1601 192.0537
ENERGY: 1500000 2.5820 6.0575 4.1121 0.0000 -10747.7639 1481.1568 0.0000 0.0000 1798.7297 -7455.1259 304.7683 -9253.8556 -7467.3774 302.2613 554.7140 569.3831 29807.0765 177.4394 231.7341
TCL: Running FEP window   2: Lambda1 0.05   Lambda2 0.1    [dLambda 0.05  ]
TCL: Setting parameter firsttimestep to 0
TCL: Setting parameter alchLambda to 0.05
Info: NONBONDED TABLE R-SQUARED SPACING: 0.0625
Info: NONBONDED TABLE SIZE: 705 POINTS
TCL: Setting parameter alchLambda2 to 0.1
Info: NONBONDED TABLE R-SQUARED SPACING: 0.0625
Info: NONBONDED TABLE SIZE: 705 POINTS
TCL: Running for 1500000 steps
ETITLE: TS BOND ANGLE DIHED IMPRP ELECT VDW BOUNDARY MISC KINETIC TOTAL TEMP POTENTIAL TOTALAVG TEMPAVG PRESSURE GPRESSURE VOLUME PRESSAVG GPRESSAVG
ENERGY: 0 2.5820 6.0575 4.1121 0.0000 -10747.7631 1484.7859 0.0000 0.0000 1797.8348 -7452.3908 304.6167 -9250.2256 -7452.3908 304.6167 486.8308 577.6998 29807.0765 486.8308 577.6998
ENERGY: 300000 3.3920 7.1252 4.7455 0.0000 -10674.7321 1410.2145 0.0000 0.0000 1817.1108 -7432.1440 307.8827 -9249.2549 -7472.8100 302.4483 -198.6497 -188.2517 30483.4800 174.4270 223.0003
ENERGY: 600000 1.4380 5.5273 2.1434 0.0000 -10716.7185 1424.4886 0.0000 0.0000 1755.8092 -7527.3120 297.4961 -9283.1212 -7493.3373 301.6803 -264.6467 -199.6990 30412.8513 -98.6328 -51.0740
ENERGY: 900000 7.0486 10.6715 3.4516 0.0000 -10857.1343 1540.3120 0.0000 0.0000 1757.3374 -7538.3131 297.7550 -9295.6505 -7488.3080 301.2631 496.0506 580.2020 30445.3768 -65.3319 -1.1212
ENERGY: 1200000 2.4467 7.2117 2.6312 0.0000 -10634.1468 1377.9710 0.0000 0.0000 1697.4568 -7546.4294 287.6091 -9243.8863 -7494.5006 299.8737 -700.7206 -680.8617 30867.9561 -29.4924 26.6427
ENERGY: 1500000 3.7007 4.1498 3.2120 0.0000 -10849.7225 1488.4890 0.0000 0.0000 1773.7455 -7576.4254 300.5351 -9350.1709 -7492.0687 300.4931 136.0809 237.1785 29930.8530 -29.5034 31.7931
TCL: Running FEP window   3: Lambda1 0.1    Lambda2 0.15000000000000002 [dLambda 0.05000000000000002]
TCL: Setting parameter firsttimestep to 0
TCL: Setting parameter alchLambda to 0.1
Info: NONBONDED TABLE R-SQUARED SPACING: 0.0625
Info: NONBONDED TABLE SIZE: 705 POINTS
TCL: Setting parameter alchLambda2 to 0.15000000000000002
Info: NONBONDED TABLE R-SQUARED SPACING: 0.0625
Info: NONBONDED TABLE SIZE: 705 POINTS
TCL: Running for 1500000 steps
ETITLE: TS BOND ANGLE DIHED IMPRP ELECT VDW BOUNDARY MISC KINETIC TOTAL TEMP POTENTIAL TOTALAVG TEMPAVG PRESSURE GPRESSURE VOLUME PRESSAVG GPRESSAVG
ENERGY: 0 3.7007 4.1498 3.2120 0.0000 -10849.7234 1490.1038 0.0000 0.0000 1772.8486 -7575.7084 300.3832 -9348.5571 -7575.7084 300.3832 165.0811 243.6397 29930.8530 165.0811 243.6397
ENERGY: 300000 1.9113 8.6075 6.0987 0.0000 -10738.1672 1471.2310 0.0000 0.0000 1807.9078 -7442.4109 306.3234 -9250.3187 -7498.9443 303.3416 330.4775 400.4255 30337.4049 -2.1979 62.5412
ENERGY: 600000 3.4931 9.7422 2.1712 0.0000 -10753.3136 1463.2851 0.0000 0.0000 1787.2186 -7487.4034 302.8179 -9274.6219 -7492.6067 300.7282 -21.2735 13.8050 30576.7319 -175.8754 -124.2846
ENERGY: 900000 1.2198 5.4839 3.6898 0.0000 -10911.8122 1558.7886 0.0000 0.0000 1771.2779 -7571.3522 300.1170 -9342.6300 -7506.0267 300.2439 804.3322 815.5655 30045.2640 26.3904 73.8689
ENERGY: 1200000 1.9069 4.8501 6.2054 0.0000 -10755.5533 1500.4532 0.0000 0.0000 1768.9939 -7473.1438 299.7301 -9242.1378 -7505.5688 299.0631 400.9731 373.9495 30413.6860 37.8886 81.9134
ENERGY: 1500000 1.3381 6.5279 2.6603 0.0000 -10372.9380 1229.4678 0.0000 0.0000 1769.2669 -7363.6771 299.7763 -9132.9440 -7489.5854 299.2636 -1494.9255 -1427.4093 30888.3942 -18.6904 33.1825
TCL: Running FEP window   4: Lambda1 0.15000000000000002 Lambda2 0.2    [dLambda 0.04999999999999999]
TCL: Setting parameter firsttimestep to 0
TCL: Setting parameter alchLambda to 0.15000000000000002
Info: NONBONDED TABLE R-SQUARED SPACING: 0.0625
Info: NONBONDED TABLE SIZE: 705 POINTS
TCL: Setting parameter alchLambda2 to 0.2
Info: NONBONDED TABLE R-SQUARED SPACING: 0.0625
Info: NONBONDED TABLE SIZE: 705 POINTS
TCL: Running for 1500000 steps
ETITLE: TS BOND ANGLE DIHED IMPRP ELECT VDW BOUNDARY MISC KINETIC TOTAL TEMP POTENTIAL TOTALAVG TEMPAVG PRESSURE GPRESSURE VOLUME PRESSAVG GPRESSAVG
ENERGY: 0 1.3381 6.5279 2.6603 0.0000 -10372.9391 1229.9931 0.0000 0.0000 1768.3731 -7364.0466 299.6249 -9132.4198 -7364.0466 299.6249 -1514.2931 -1421.6633 30888.3942 -1514.2931 -1421.6633
ENERGY: 300000 1.3512 9.2054 4.7174 0.0000 -10748.9600 1414.2499 0.0000 0.0000 1708.7086 -7610.7276 289.5156 -9319.4362 -7470.9788 297.9121 -352.0627 -306.8898 30157.3488 -281.6846 -223.3582
ENERGY: 600000 2.1155 12.2793 4.6958 0.0000 -10799.9954 1458.4226 0.0000 0.0000 1775.7911 -7546.6911 300.8817 -9322.4822 -7469.9362 298.5670 -66.2399 9.5197 30049.4911 -219.9890 -147.2591
ENERGY: 900000 3.5021 9.5932 1.9377 0.0000 -10701.7598 1430.2687 0.0000 0.0000 1733.9418 -7522.5164 293.7910 -9256.4582 -7471.3179 298.9947 3.7472 93.5728 30036.7765 -235.5299 -170.4680
ENERGY: 1200000 1.2509 6.0565 4.9209 0.0000 -10695.4989 1432.2538 0.0000 0.0000 1739.8729 -7511.1439 294.7959 -9251.0167 -7471.6825 298.8140 -262.5283 -243.4110 30658.7646 -294.6576 -230.5556
ENERGY: 1500000 2.1994 7.8386 2.6629 0.0000 -10714.3649 1396.9916 0.0000 0.0000 1825.6421 -7479.0304 309.3282 -9304.6725 -7471.6639 300.0963 -486.0726 -480.5898 30706.5711 -223.6933 -157.1356
TCL: Running FEP window   5: Lambda1 0.2    Lambda2 0.25   [dLambda 0.04999999999999999]
TCL: Setting parameter firsttimestep to 0
TCL: Setting parameter alchLambda to 0.2
Info: NONBONDED TABLE R-SQUARED SPACING: 0.0625
Info: NONBONDED TABLE SIZE: 705 POINTS
TCL: Setting parameter alchLambda2 to 0.25
Info: NONBONDED TABLE R-SQUARED SPACING: 0.0625
Info: NONBONDED TABLE SIZE: 705 POINTS
TCL: Running for 1500000 steps
ETITLE: TS BOND ANGLE DIHED IMPRP ELECT VDW BOUNDARY MISC KINETIC TOTAL TEMP POTENTIAL TOTALAVG TEMPAVG PRESSURE GPRESSURE VOLUME PRESSAVG GPRESSAVG
ENERGY: 0 2.1994 7.8386 2.6629 0.0000 -10714.3645 1396.9780 0.0000 0.0000 1824.7434 -7479.9423 309.1760 -9304.6857 -7479.9423 309.1760 -556.6052 -478.2781 30706.5711 -556.6052 -478.2781
ENERGY: 300000 3.2843 7.8696 2.4908 0.0000 -10789.2092 1497.8912 0.0000 0.0000 1781.7426 -7495.9307 301.8901 -9277.6733 -7499.8688 302.7860 140.1489 177.3052 30697.5675 -112.4124 -60.6897
ENERGY: 600000 1.4494 9.3494 2.3289 0.0000 -10566.3581 1345.4954 0.0000 0.0000 1790.6418 -7417.0933 303.3980 -9207.7351 -7480.4515 301.4289 -516.8755 -417.8985 30333.8610 -150.3662 -83.9715
ENERGY: 900000 1.5505 7.3023 1.5160 0.0000 -10643.6688 1406.5792 0.0000 0.0000 1716.0845 -7510.6362 290.7653 -9226.7208 -7481.2107 299.8293 -245.5931 -157.2611 30578.8043 -124.6084 -54.1555
ENERGY: 1200000 3.2580 11.1223 3.6118 0.0000 -10832.8364 1526.3542 0.0000 0.0000 1773.2160 -7515.2740 300.4454 -9288.4900 -7489.0212 299.8302 312.3488 395.3537 30555.5629 -144.8026 -78.0256
ENERGY: 1500000 2.8250 8.2861 3.1123 0.0000 -10631.1326 1377.3657 0.0000 0.0000 1838.0851 -7401.4584 311.4365 -9239.5435 -7483.5703 300.6649 -604.2488 -568.2977 30749.3734 -242.3524 -175.0252
TCL: Running FEP window   6: Lambda1 0.25   Lambda2 0.3    [dLambda 0.04999999999999999]
TCL: Setting parameter firsttimestep to 0
TCL: Setting parameter alchLambda to 0.25
Info: NONBONDED TABLE R-SQUARED SPACING: 0.0625
Info: NONBONDED TABLE SIZE: 705 POINTS
TCL: Setting parameter alchLambda2 to 0.3
Info: NONBONDED TABLE R-SQUARED SPACING: 0.0625
Info: NONBONDED TABLE SIZE: 705 POINTS
TCL: Running for 1500000 steps
ETITLE: TS BOND ANGLE DIHED IMPRP ELECT VDW BOUNDARY MISC KINETIC TOTAL TEMP POTENTIAL TOTALAVG TEMPAVG PRESSURE GPRESSURE VOLUME PRESSAVG GPRESSAVG
ENERGY: 0 2.8250 8.2861 3.1123 0.0000 -10631.1320 1377.6585 0.0000 0.0000 1837.1774 -7402.0726 311.2827 -9239.2500 -7402.0726 311.2827 -631.8862 -562.7216 30749.3734 -631.8862 -562.7216
ENERGY: 300000 4.2382 8.0188 2.8140 0.0000 -10734.4226 1494.2791 0.0000 0.0000 1803.4482 -7421.6243 305.5678 -9225.0725 -7478.3270 303.9958 494.7282 557.6368 30533.9907 -93.0942 -43.8475
ENERGY: 600000 2.2688 6.2732 3.9601 0.0000 -10785.7098 1491.1872 0.0000 0.0000 1774.4643 -7507.5562 300.6569 -9282.0205 -7489.2677 303.8770 155.2803 240.3565 30620.3495 -115.3678 -51.4317
ENERGY: 900000 2.8373 8.8086 4.6449 0.0000 -10852.9503 1509.8181 0.0000 0.0000 1779.5512 -7547.2902 301.5188 -9326.8414 -7488.9952 304.3072 327.2092 385.9634 30274.4674 -105.2491 -28.7096
ENERGY: 1200000 3.8458 7.7550 1.5327 0.0000 -10770.8762 1430.2624 0.0000 0.0000 1751.5126 -7575.9678 296.7681 -9327.4804 -7499.4276 301.9555 -83.4094 -18.5781 30065.4156 -66.8375 -1.3640
ENERGY: 1500000 2.4068 10.3320 5.2663 0.0000 -10678.1677 1416.2317 0.0000 0.0000 1792.0963 -7451.8346 303.6444 -9243.9309 -7500.8306 301.8377 -321.0349 -295.6040 30755.6119 -31.1000 31.8885
TCL: Running FEP window   7: Lambda1 0.3    Lambda2 0.35   [dLambda 0.04999999999999999]
TCL: Setting parameter firsttimestep to 0
TCL: Setting parameter alchLambda to 0.3
Info: NONBONDED TABLE R-SQUARED SPACING: 0.0625
Info: NONBONDED TABLE SIZE: 705 POINTS
TCL: Setting parameter alchLambda2 to 0.35
Info: NONBONDED TABLE R-SQUARED SPACING: 0.0625
Info: NONBONDED TABLE SIZE: 705 POINTS
TCL: Running for 1500000 steps
ETITLE: TS BOND ANGLE DIHED IMPRP ELECT VDW BOUNDARY MISC KINETIC TOTAL TEMP POTENTIAL TOTALAVG TEMPAVG PRESSURE GPRESSURE VOLUME PRESSAVG GPRESSAVG
ENERGY: 0 2.4068 10.3320 5.2663 0.0000 -10678.1685 1417.5576 0.0000 0.0000 1791.2486 -7451.3571 303.5008 -9242.6057 -7451.3571 303.5008 -355.1205 -281.8101 30755.6119 -355.1205 -281.8101
ENERGY: 300000 4.8249 6.4978 2.3950 0.0000 -10710.3820 1361.4902 0.0000 0.0000 1831.0772 -7504.0971 310.2491 -9335.1743 -7483.2595 304.6662 -903.2693 -875.2182 30629.0949 -427.7061 -373.8820
ENERGY: 600000 4.2917 8.6357 5.1017 0.0000 -10640.6375 1423.1156 0.0000 0.0000 1724.9910 -7474.5018 292.2744 -9199.4928 -7484.1386 301.5148 -102.8053 -6.9777 30611.5271 -409.1899 -338.5820
ENERGY: 900000 2.8209 10.3023 4.9511 0.0000 -10485.0160 1289.5978 0.0000 0.0000 1790.1707 -7387.1732 303.3181 -9177.3439 -7483.5711 302.0786 -909.6708 -830.5901 30491.3311 -285.3376 -207.8801
ENERGY: 1200000 2.3062 12.6149 4.0295 0.0000 -10694.2479 1428.5593 0.0000 0.0000 1769.2834 -7477.4548 299.7791 -9246.7381 -7487.7640 302.0305 56.0246 130.6468 30196.7122 -259.9892 -184.2123
ENERGY: 1500000 3.2107 6.3291 5.9009 0.0000 -10679.1451 1417.9409 0.0000 0.0000 1712.8146 -7532.9488 290.2113 -9245.7634 -7498.0884 300.5233 -246.3874 -205.2527 30530.9368 -269.0736 -193.1262
TCL: Running FEP window   8: Lambda1 0.35   Lambda2 0.39999999999999997 [dLambda 0.04999999999999999]
TCL: Setting parameter firsttimestep to 0
TCL: Setting parameter alchLambda to 0.35
Info: NONBONDED TABLE R-SQUARED SPACING: 0.0625
Info: NONBONDED TABLE SIZE: 705 POINTS
TCL: Setting parameter alchLambda2 to 0.39999999999999997
Info: NONBONDED TABLE R-SQUARED SPACING: 0.0625
Info: NONBONDED TABLE SIZE: 705 POINTS
TCL: Running for 1500000 steps
ETITLE: TS BOND ANGLE DIHED IMPRP ELECT VDW BOUNDARY MISC KINETIC TOTAL TEMP POTENTIAL TOTALAVG TEMPAVG PRESSURE GPRESSURE VOLUME PRESSAVG GPRESSAVG
ENERGY: 0 3.2107 6.3291 5.9009 0.0000 -10679.1442 1417.8172 0.0000 0.0000 1711.9556 -7533.9306 290.0657 -9245.8862 -7533.9306 290.0657 -299.0232 -204.2495 30530.9368 -299.0232 -204.2495
ENERGY: 300000 1.2575 7.5049 5.9765 0.0000 -10910.9049 1547.5973 0.0000 0.0000 1741.8656 -7606.7031 295.1336 -9348.5687 -7522.5466 299.6303 653.4387 653.5708 30255.3372 76.4440 136.1890
ENERGY: 600000 2.2587 10.7810 1.4742 0.0000 -10773.6080 1433.5723 0.0000 0.0000 1811.3373 -7514.1845 306.9045 -9325.5218 -7499.2062 301.1860 -241.5349 -200.7898 30463.4462 33.6269 94.5337
ENERGY: 900000 1.4819 6.8118 5.9452 0.0000 -10837.5240 1465.2916 0.0000 0.0000 1729.5471 -7628.4463 293.0464 -9357.9934 -7517.3435 299.3518 -125.3737 -42.8945 30336.3943 -69.0669 -3.0858
ENERGY: 1200000 2.7274 8.1552 2.5002 0.0000 -10787.1711 1520.5896 0.0000 0.0000 1796.1584 -7457.0403 304.3327 -9253.1987 -7506.3501 299.4614 674.7785 773.1450 30341.0518 -54.4116 14.0841
ENERGY: 1500000 2.8221 10.2331 5.0189 0.0000 -10718.1524 1470.1782 0.0000 0.0000 1788.7191 -7441.1810 303.0722 -9229.9001 -7499.8375 299.9009 398.9923 465.3709 30191.4382 -13.5405 55.6020
TCL: Running FEP window   9: Lambda1 0.39999999999999997 Lambda2 0.44999999999999996 [dLambda 0.04999999999999999]
TCL: Setting parameter firsttimestep to 0
TCL: Setting parameter alchLambda to 0.39999999999999997
Info: NONBONDED TABLE R-SQUARED SPACING: 0.0625
Info: NONBONDED TABLE SIZE: 705 POINTS
TCL: Setting parameter alchLambda2 to 0.44999999999999996
Info: NONBONDED TABLE R-SQUARED SPACING: 0.0625
Info: NONBONDED TABLE SIZE: 705 POINTS
TCL: Running for 1500000 steps
ETITLE: TS BOND ANGLE DIHED IMPRP ELECT VDW BOUNDARY MISC KINETIC TOTAL TEMP POTENTIAL TOTALAVG TEMPAVG PRESSURE GPRESSURE VOLUME PRESSAVG GPRESSAVG
ENERGY: 0 2.8221 10.2331 5.0189 0.0000 -10718.1519 1470.2978 0.0000 0.0000 1787.8161 -7441.9639 302.9192 -9229.7800 -7441.9639 302.9192 391.9143 473.2505 30191.4382 391.9143 473.2505
ENERGY: 300000 6.4995 5.1644 4.2665 0.0000 -10576.7676 1406.6309 0.0000 0.0000 1770.5096 -7383.6968 299.9868 -9154.2064 -7425.6556 299.5466 -44.1663 -8.0065 30645.9506 172.2298 225.4526
ENERGY: 600000 4.1599 6.5367 5.3469 0.0000 -10606.4062 1342.0609 0.0000 0.0000 1798.4927 -7449.8092 304.7282 -9248.3019 -7439.9374 299.8394 -706.2210 -635.0000 30177.2553 46.3336 111.7359
ENERGY: 900000 4.5809 12.0468 1.8361 0.0000 -10665.6152 1451.5616 0.0000 0.0000 1811.4332 -7384.1566 306.9208 -9195.5898 -7442.0771 300.6105 96.2267 180.9346 30761.3734 22.2770 87.2092
ENERGY: 1200000 3.2527 7.8681 3.4430 0.0000 -10713.0700 1441.4187 0.0000 0.0000 1765.5223 -7491.5653 299.1418 -9257.0876 -7452.3192 301.3172 -73.1070 -27.9561 30583.4776 -51.4065 9.5079
ENERGY: 1500000 4.6499 6.7951 3.6741 0.0000 -10879.5537 1491.0939 0.0000 0.0000 1757.7378 -7615.6029 297.8229 -9373.3407 -7462.0177 301.8207 526.1287 513.0287 29750.6808 -47.0773 12.1252
TCL: Running FEP window  10: Lambda1 0.44999999999999996 Lambda2 0.49999999999999994 [dLambda 0.04999999999999999]
TCL: Setting parameter firsttimestep to 0
TCL: Setting parameter alchLambda to 0.44999999999999996
Info: NONBONDED TABLE R-SQUARED SPACING: 0.0625
Info: NONBONDED TABLE SIZE: 705 POINTS
TCL: Setting parameter alchLambda2 to 0.49999999999999994
Info: NONBONDED TABLE R-SQUARED SPACING: 0.0625
Info: NONBONDED TABLE SIZE: 705 POINTS
TCL: Running for 1500000 steps
ETITLE: TS BOND ANGLE DIHED IMPRP ELECT VDW BOUNDARY MISC KINETIC TOTAL TEMP POTENTIAL TOTALAVG TEMPAVG PRESSURE GPRESSURE VOLUME PRESSAVG GPRESSAVG
ENERGY: 0 4.6500 6.7951 3.6741 0.0000 -10879.5529 1491.3925 0.0000 0.0000 1756.8337 -7616.2075 297.6697 -9373.0412 -7616.2075 297.6697 423.1008 521.8711 29750.6808 423.1008 521.8711
ENERGY: 300000 2.3365 6.2180 5.5133 0.0000 -10766.3849 1452.9944 0.0000 0.0000 1789.8806 -7509.4420 303.2690 -9299.3226 -7556.0001 295.5348 -104.6367 -17.0804 30451.6002 245.7492 318.2037
ENERGY: 600000 2.8017 8.4042 8.4410 0.0000 -10763.6750 1468.7402 0.0000 0.0000 1786.5288 -7488.7591 302.7011 -9275.2879 -7517.7527 298.8576 -199.5028 -150.4746 31379.9617 83.6948 153.7620
ENERGY: 900000 3.6053 7.7350 5.5804 0.0000 -10723.0886 1485.5684 0.0000 0.0000 1821.5832 -7399.0163 308.6405 -9220.5995 -7487.5599 300.4497 379.7989 445.0899 30884.0864 164.3538 222.5901
ENERGY: 1200000 3.1891 7.4023 4.0636 0.0000 -10753.2862 1447.6474 0.0000 0.0000 1803.4128 -7487.5711 305.5618 -9290.9838 -7496.6871 299.8830 -231.5477 -126.4190 30664.1069 73.9172 140.6415
ENERGY: 1500000 1.8578 9.9051 3.7230 0.0000 -10832.0489 1514.7123 0.0000 0.0000 1796.0931 -7505.7577 304.3216 -9301.8508 -7499.1063 299.9763 663.0834 701.2134 29968.8703 34.6746 102.5602
TCL: Running FEP window  11: Lambda1 0.49999999999999994 Lambda2 0.5499999999999999 [dLambda 0.04999999999999999]
TCL: Setting parameter firsttimestep to 0
TCL: Setting parameter alchLambda to 0.49999999999999994
Info: NONBONDED TABLE R-SQUARED SPACING: 0.0625
Info: NONBONDED TABLE SIZE: 705 POINTS
TCL: Setting parameter alchLambda2 to 0.5499999999999999
Info: NONBONDED TABLE R-SQUARED SPACING: 0.0625
Info: NONBONDED TABLE SIZE: 705 POINTS
TCL: Running for 1500000 steps
ETITLE: TS BOND ANGLE DIHED IMPRP ELECT VDW BOUNDARY MISC KINETIC TOTAL TEMP POTENTIAL TOTALAVG TEMPAVG PRESSURE GPRESSURE VOLUME PRESSAVG GPRESSAVG
ENERGY: 0 1.8578 9.9051 3.7230 0.0000 -10832.0485 1514.8216 0.0000 0.0000 1795.1990 -7506.5421 304.1701 -9301.7411 -7506.5421 304.1701 623.4654 705.4222 29968.8703 623.4654 705.4222
ENERGY: 300000 1.4581 7.0959 4.0523 0.0000 -10627.2175 1361.2399 0.0000 0.0000 1790.7698 -7462.6015 303.4197 -9253.3714 -7483.2863 303.7863 -648.9300 -631.8193 30833.2288 -203.8778 -134.9179
ENERGY: 600000 2.7532 5.5666 2.8432 0.0000 -10695.1950 1368.0120 0.0000 0.0000 1779.4714 -7536.5486 301.5053 -9316.0200 -7524.9408 301.0440 -727.0978 -632.2982 30539.7509 -326.2956 -255.0332
ENERGY: 900000 3.2871 5.6144 1.6365 0.0000 -10839.0714 1531.5569 0.0000 0.0000 1832.6861 -7464.2903 310.5218 -9296.9764 -7521.7963 301.6034 791.6593 941.2898 30202.0858 -155.0431 -84.8892
ENERGY: 1200000 3.5158 7.2755 4.2830 0.0000 -10950.7581 1566.7224 0.0000 0.0000 1772.1849 -7596.7765 300.2707 -9368.9614 -7533.6761 300.5930 843.7262 878.7412 30326.4674 -160.5003 -100.9907
ENERGY: 1500000 2.2124 8.9398 3.0776 0.0000 -10695.1715 1459.6869 0.0000 0.0000 1787.2084 -7434.0464 302.8162 -9221.2548 -7519.7613 301.2212 409.2159 462.7168 30320.0634 -164.8626 -106.1769
TCL: Running FEP window  12: Lambda1 0.5499999999999999 Lambda2 0.6    [dLambda 0.050000000000000044]
TCL: Setting parameter firsttimestep to 0
TCL: Setting parameter alchLambda to 0.5499999999999999
Info: NONBONDED TABLE R-SQUARED SPACING: 0.0625
Info: NONBONDED TABLE SIZE: 705 POINTS
TCL: Setting parameter alchLambda2 to 0.6
Info: NONBONDED TABLE R-SQUARED SPACING: 0.0625
Info: NONBONDED TABLE SIZE: 705 POINTS
TCL: Running for 1500000 steps
ETITLE: TS BOND ANGLE DIHED IMPRP ELECT VDW BOUNDARY MISC KINETIC TOTAL TEMP POTENTIAL TOTALAVG TEMPAVG PRESSURE GPRESSURE VOLUME PRESSAVG GPRESSAVG
ENERGY: 0 2.2124 8.9398 3.0776 0.0000 -10695.2544 1459.6796 0.0000 0.0000 1786.3017 -7435.0432 302.6626 -9221.3449 -7435.0432 302.6626 394.6628 469.9507 30320.0634 394.6628 469.9507
ENERGY: 300000 3.4562 7.5659 3.3322 0.0000 -10673.1811 1435.6590 0.0000 0.0000 1758.6957 -7464.4722 297.9852 -9223.1679 -7479.9363 299.0356 107.5865 125.6389 30458.4286 263.8171 342.8250
ENERGY: 600000 3.6978 8.0979 2.8350 0.0000 -10703.2203 1424.2059 0.0000 0.0000 1704.0020 -7560.3818 288.7181 -9264.3837 -7504.0657 298.2782 -291.2754 -271.6291 30484.0359 20.5054 102.6673
ENERGY: 900000 3.3705 5.1339 3.1527 0.0000 -10671.8242 1372.9125 0.0000 0.0000 1747.6653 -7539.5893 296.1162 -9287.2546 -7497.3848 298.7132 -1031.0908 -932.0800 31067.8396 -82.3778 -3.7520
ENERGY: 1200000 2.7600 6.5834 2.2713 0.0000 -10784.7728 1451.1480 0.0000 0.0000 1753.2254 -7568.7846 297.0583 -9322.0100 -7505.2090 298.1788 -49.4371 -5.4397 30335.9395 -135.3776 -61.4996
ENERGY: 1500000 4.4389 8.5528 3.4932 0.0000 -10666.0084 1322.4193 0.0000 0.0000 1770.2670 -7556.8373 299.9457 -9327.1043 -7507.9588 298.1458 -1238.1284 -1192.9683 30584.1024 -256.5304 -186.6671
TCL: Running FEP window  13: Lambda1 0.6    Lambda2 0.65   [dLambda 0.050000000000000044]
TCL: Setting parameter firsttimestep to 0
TCL: Setting parameter alchLambda to 0.6
Info: NONBONDED TABLE R-SQUARED SPACING: 0.0625
Info: NONBONDED TABLE SIZE: 705 POINTS
TCL: Setting parameter alchLambda2 to 0.65
Info: NONBONDED TABLE R-SQUARED SPACING: 0.0625
Info: NONBONDED TABLE SIZE: 705 POINTS
TCL: Running for 1500000 steps
ETITLE: TS BOND ANGLE DIHED IMPRP ELECT VDW BOUNDARY MISC KINETIC TOTAL TEMP POTENTIAL TOTALAVG TEMPAVG PRESSURE GPRESSURE VOLUME PRESSAVG GPRESSAVG
ENERGY: 0 4.4389 8.5528 3.4932 0.0000 -10665.6056 1322.2037 0.0000 0.0000 1769.3928 -7557.5243 299.7976 -9326.9171 -7557.5243 299.7976 -1281.9214 -1183.8766 30584.1024 -1281.9214 -1183.8766
ENERGY: 300000 0.7862 8.0915 5.8555 0.0000 -10649.8436 1400.2749 0.0000 0.0000 1792.2283 -7442.6072 303.6668 -9234.8355 -7518.3367 299.8490 3.3011 22.6876 30338.6410 -326.2697 -287.0187
ENERGY: 600000 1.9669 9.4772 9.9753 0.0000 -10786.2065 1459.4157 0.0000 0.0000 1765.7067 -7539.6647 299.1731 -9305.3714 -7541.6738 299.6260 -82.9033 -21.1943 30309.5914 -288.6143 -234.4943
ENERGY: 900000 3.2031 6.8417 3.0799 0.0000 -10914.3223 1543.5376 0.0000 0.0000 1839.0875 -7518.5725 311.6064 -9357.6600 -7527.6061 299.9411 757.9799 840.3728 29895.0433 -169.3844 -116.3883
ENERGY: 1200000 5.4287 6.4497 4.0816 0.0000 -10535.3240 1371.7629 0.0000 0.0000 1850.2652 -7297.3358 313.5003 -9147.6011 -7507.1868 301.1262 -547.0871 -435.4752 31125.7040 -238.3399 -177.6861
ENERGY: 1500000 5.3254 8.1793 2.9004 0.0000 -10711.6361 1475.5274 0.0000 0.0000 1777.1689 -7442.5348 301.1152 -9219.7036 -7499.7544 301.1777 139.3270 272.9604 30458.2310 -244.3252 -176.3656
TCL: Running FEP window  14: Lambda1 0.65   Lambda2 0.7000000000000001 [dLambda 0.050000000000000044]
TCL: Setting parameter firsttimestep to 0
TCL: Setting parameter alchLambda to 0.65
Info: NONBONDED TABLE R-SQUARED SPACING: 0.0625
Info: NONBONDED TABLE SIZE: 705 POINTS
TCL: Setting parameter alchLambda2 to 0.7000000000000001
Info: NONBONDED TABLE R-SQUARED SPACING: 0.0625
Info: NONBONDED TABLE SIZE: 705 POINTS
TCL: Running for 1500000 steps
ETITLE: TS BOND ANGLE DIHED IMPRP ELECT VDW BOUNDARY MISC KINETIC TOTAL TEMP POTENTIAL TOTALAVG TEMPAVG PRESSURE GPRESSURE VOLUME PRESSAVG GPRESSAVG
ENERGY: 0 5.3254 8.1793 2.9004 0.0000 -10712.1212 1475.3800 0.0000 0.0000 1776.3150 -7444.0212 300.9705 -9220.3361 -7444.0212 300.9705 202.6045 283.3183 30458.2310 202.6045 283.3183
ENERGY: 300000 2.9318 5.8359 4.5928 0.0000 -10725.1710 1437.4942 0.0000 0.0000 1787.4737 -7486.8425 302.8612 -9274.3162 -7505.3964 301.0124 -305.9767 -225.6586 31007.7373 -272.1014 -172.9638
ENERGY: 600000 1.4180 7.9249 6.1660 0.0000 -10600.6552 1410.8955 0.0000 0.0000 1754.7969 -7419.4539 297.3246 -9174.2507 -7490.1248 301.2057 -62.9443 11.8630 30536.7661 -46.8739 43.6242
ENERGY: 900000 3.0578 7.1562 2.1725 0.0000 -10552.0372 1318.4211 0.0000 0.0000 1809.1811 -7412.0486 306.5392 -9221.2297 -7475.7311 302.5839 -1175.6591 -1075.6461 31319.6638 -171.4885 -89.6478
ENERGY: 1200000 3.2312 7.3125 1.8505 0.0000 -10579.2063 1364.6181 0.0000 0.0000 1802.3899 -7399.8040 305.3885 -9202.1940 -7475.4637 302.0378 -577.9033 -558.8857 30756.5030 -157.1724 -83.8831
ENERGY: 1500000 3.0423 9.5129 2.7736 0.0000 -10683.2460 1448.5596 0.0000 0.0000 1804.4155 -7414.9422 305.7317 -9219.3576 -7473.6591 302.1983 4.0944 79.5068 30621.6916 -103.6719 -32.3868
TCL: Running FEP window  15: Lambda1 0.7000000000000001 Lambda2 0.7500000000000001 [dLambda 0.050000000000000044]
TCL: Setting parameter firsttimestep to 0
TCL: Setting parameter alchLambda to 0.7000000000000001
Info: NONBONDED TABLE R-SQUARED SPACING: 0.0625
Info: NONBONDED TABLE SIZE: 705 POINTS
TCL: Setting parameter alchLambda2 to 0.7500000000000001
Info: NONBONDED TABLE R-SQUARED SPACING: 0.0625
Info: NONBONDED TABLE SIZE: 705 POINTS
TCL: Running for 1500000 steps
ETITLE: TS BOND ANGLE DIHED IMPRP ELECT VDW BOUNDARY MISC KINETIC TOTAL TEMP POTENTIAL TOTALAVG TEMPAVG PRESSURE GPRESSURE VOLUME PRESSAVG GPRESSAVG
ENERGY: 0 3.0423 9.5129 2.7736 0.0000 -10684.0694 1448.2459 0.0000 0.0000 1803.5133 -7416.9813 305.5788 -9220.4946 -7416.9813 305.5788 5.7523 85.4919 30621.6916 5.7523 85.4919
ENERGY: 300000 4.1869 10.8613 4.9399 0.0000 -10902.7177 1511.8676 0.0000 0.0000 1829.2580 -7541.6039 309.9409 -9370.8620 -7511.3135 304.2664 825.8946 907.0078 29742.5054 -194.1022 -115.2702
ENERGY: 600000 4.7790 7.2712 2.8915 0.0000 -10849.1790 1570.9876 0.0000 0.0000 1760.4444 -7502.8051 298.2815 -9263.2495 -7509.8689 301.6694 845.9915 973.0345 30405.2023 -78.4993 3.7913
ENERGY: 900000 2.3508 9.0290 7.6129 0.0000 -10560.6202 1361.1936 0.0000 0.0000 1777.8941 -7402.5398 301.2381 -9180.4339 -7509.7089 300.0743 -456.8678 -403.1827 30868.5191 -153.6950 -73.6457
ENERGY: 1200000 4.9021 6.8048 3.1372 0.0000 -10721.5225 1418.2270 0.0000 0.0000 1771.1583 -7517.2932 300.0968 -9288.4515 -7515.5972 298.8280 -298.0915 -273.6531 30514.6821 -157.4022 -82.0419
ENERGY: 1500000 3.1083 9.2299 3.8424 0.0000 -10662.6177 1411.7751 0.0000 0.0000 1781.0854 -7453.5766 301.7788 -9234.6620 -7505.5219 298.9962 -401.7959 -381.5818 31013.6438 -198.2171 -125.2874
TCL: Running FEP window  16: Lambda1 0.7500000000000001 Lambda2 0.8000000000000002 [dLambda 0.050000000000000044]
TCL: Setting parameter firsttimestep to 0
TCL: Setting parameter alchLambda to 0.7500000000000001
Info: NONBONDED TABLE R-SQUARED SPACING: 0.0625
Info: NONBONDED TABLE SIZE: 705 POINTS
TCL: Setting parameter alchLambda2 to 0.8000000000000002
Info: NONBONDED TABLE R-SQUARED SPACING: 0.0625
Info: NONBONDED TABLE SIZE: 705 POINTS
TCL: Running for 1500000 steps
ETITLE: TS BOND ANGLE DIHED IMPRP ELECT VDW BOUNDARY MISC KINETIC TOTAL TEMP POTENTIAL TOTALAVG TEMPAVG PRESSURE GPRESSURE VOLUME PRESSAVG GPRESSAVG
ENERGY: 0 3.1083 9.2299 3.8424 0.0000 -10662.7630 1412.8158 0.0000 0.0000 1780.1683 -7453.5982 301.6234 -9233.7665 -7453.5982 301.6234 -427.8836 -355.7679 31013.6438 -427.8836 -355.7679
ENERGY: 300000 3.1893 7.3974 6.4331 0.0000 -10746.8535 1452.3613 0.0000 0.0000 1780.6709 -7496.8016 301.7085 -9277.4725 -7483.8793 300.6437 371.6990 450.2758 29828.6922 -34.9225 18.4512
ENERGY: 600000 3.8506 9.2509 4.9571 0.0000 -10776.8551 1470.5143 0.0000 0.0000 1776.6713 -7511.6108 301.0309 -9288.2822 -7501.3412 300.7488 9.5883 79.4566 30831.5664 -119.9412 -66.3510
ENERGY: 900000 5.0731 9.0585 2.2300 0.0000 -10757.9492 1459.3590 0.0000 0.0000 1817.5565 -7464.6720 307.9583 -9282.2285 -7507.0448 300.8618 107.0314 162.3736 30353.2279 -119.3351 -57.7034
ENERGY: 1200000 3.8523 7.4273 3.9030 0.0000 -10788.2917 1432.8702 0.0000 0.0000 1783.6873 -7556.5514 302.2196 -9340.2388 -7515.8201 300.5858 -569.3926 -530.8504 30960.9535 -127.6971 -65.8715
ENERGY: 1500000 2.1257 9.9786 2.8329 0.0000 -10710.8511 1464.7662 0.0000 0.0000 1755.4332 -7475.7145 297.4324 -9231.1477 -7513.8558 300.2835 406.3916 431.1022 30552.2801 -28.5431 35.3363
TCL: Running FEP window  17: Lambda1 0.8000000000000002 Lambda2 0.8500000000000002 [dLambda 0.050000000000000044]
TCL: Setting parameter firsttimestep to 0
TCL: Setting parameter alchLambda to 0.8000000000000002
Info: NONBONDED TABLE R-SQUARED SPACING: 0.0625
Info: NONBONDED TABLE SIZE: 705 POINTS
TCL: Setting parameter alchLambda2 to 0.8500000000000002
Info: NONBONDED TABLE R-SQUARED SPACING: 0.0625
Info: NONBONDED TABLE SIZE: 705 POINTS
TCL: Running for 1500000 steps
ETITLE: TS BOND ANGLE DIHED IMPRP ELECT VDW BOUNDARY MISC KINETIC TOTAL TEMP POTENTIAL TOTALAVG TEMPAVG PRESSURE GPRESSURE VOLUME PRESSAVG GPRESSAVG
ENERGY: 0 2.1257 9.9786 2.8329 0.0000 -10711.1706 1464.4690 0.0000 0.0000 1754.5699 -7477.1945 297.2861 -9231.7645 -7477.1945 297.2861 366.9298 440.2477 30552.2801 366.9298 440.2477
ENERGY: 300000 2.6448 5.5619 7.3689 0.0000 -10824.3967 1500.7041 0.0000 0.0000 1805.7615 -7502.3556 305.9598 -9308.1171 -7470.4727 300.6190 542.8384 637.8636 30283.7542 174.4845 263.1742
ENERGY: 600000 3.2758 6.2406 3.9652 0.0000 -10695.3424 1426.1615 0.0000 0.0000 1686.8870 -7568.8123 285.8182 -9255.6994 -7518.9406 295.1683 -225.5856 -157.1039 30711.9405 122.0896 184.4834
ENERGY: 900000 3.8312 4.7557 4.0261 0.0000 -10615.9579 1316.5028 0.0000 0.0000 1735.3390 -7551.5031 294.0277 -9286.8421 -7516.4791 295.3275 -892.8182 -847.2474 30500.0988 -57.4007 5.9738
ENERGY: 1200000 3.0398 4.9595 4.9002 0.0000 -10686.3587 1380.5648 0.0000 0.0000 1819.4530 -7473.4413 308.2796 -9292.8944 -7517.7322 296.6584 -783.6509 -672.6920 30926.8745 -34.8319 23.5505
ENERGY: 1500000 5.7758 11.0072 4.3420 0.0000 -10614.6169 1336.4512 0.0000 0.0000 1768.5387 -7488.5019 299.6529 -9257.0406 -7508.9836 297.4810 -1182.1625 -1125.8996 30987.6296 -97.3145 -38.5788
TCL: Running FEP window  18: Lambda1 0.8500000000000002 Lambda2 0.9000000000000002 [dLambda 0.050000000000000044]
TCL: Setting parameter firsttimestep to 0
TCL: Setting parameter alchLambda to 0.8500000000000002
Info: NONBONDED TABLE R-SQUARED SPACING: 0.0625
Info: NONBONDED TABLE SIZE: 705 POINTS
TCL: Setting parameter alchLambda2 to 0.9000000000000002
Info: NONBONDED TABLE R-SQUARED SPACING: 0.0625
Info: NONBONDED TABLE SIZE: 705 POINTS
TCL: Running for 1500000 steps
ETITLE: TS BOND ANGLE DIHED IMPRP ELECT VDW BOUNDARY MISC KINETIC TOTAL TEMP POTENTIAL TOTALAVG TEMPAVG PRESSURE GPRESSURE VOLUME PRESSAVG GPRESSAVG
ENERGY: 0 5.7758 11.0072 4.3420 0.0000 -10615.8416 1336.0963 0.0000 0.0000 1767.6443 -7490.9759 299.5014 -9258.6202 -7490.9759 299.5014 -1198.6865 -1120.7679 30987.6296 -1198.6865 -1120.7679
ENERGY: 300000 2.4844 8.5083 2.7954 0.0000 -10569.1251 1351.3353 0.0000 0.0000 1795.2957 -7408.7060 304.1865 -9204.0017 -7450.9505 302.6309 -483.5088 -474.4528 30670.6949 -410.8584 -353.3107
ENERGY: 600000 1.1219 9.1917 3.3201 0.0000 -10795.4991 1465.5807 0.0000 0.0000 1807.2799 -7509.0047 306.2170 -9316.2847 -7475.2705 302.7684 229.4429 273.1238 30345.5071 -247.5921 -187.0640
ENERGY: 900000 1.0301 7.5885 1.9927 0.0000 -10777.4738 1482.9840 0.0000 0.0000 1787.6602 -7496.2183 302.8928 -9283.8785 -7492.5453 302.3852 213.8329 211.4073 30994.0112 -135.3782 -84.6456
ENERGY: 1200000 1.4551 8.7982 3.2123 0.0000 -10819.8571 1516.9754 0.0000 0.0000 1717.6993 -7571.7168 291.0389 -9289.4161 -7496.4900 301.1179 470.0456 487.0622 30556.1985 -113.8661 -69.5815
ENERGY: 1500000 2.9546 7.1310 2.2792 0.0000 -10622.7814 1395.0903 0.0000 0.0000 1757.5634 -7457.7628 297.7933 -9215.3263 -7500.2802 300.7885 -281.5659 -272.6373 30902.6674 -203.9025 -162.3329
TCL: Running FEP window  19: Lambda1 0.9000000000000002 Lambda2 0.9500000000000003 [dLambda 0.050000000000000044]
TCL: Setting parameter firsttimestep to 0
TCL: Setting parameter alchLambda to 0.9000000000000002
Info: NONBONDED TABLE R-SQUARED SPACING: 0.0625
Info: NONBONDED TABLE SIZE: 705 POINTS
TCL: Setting parameter alchLambda2 to 0.9500000000000003
Info: NONBONDED TABLE R-SQUARED SPACING: 0.0625
Info: NONBONDED TABLE SIZE: 705 POINTS
TCL: Running for 1500000 steps
ETITLE: TS BOND ANGLE DIHED IMPRP ELECT VDW BOUNDARY MISC KINETIC TOTAL TEMP POTENTIAL TOTALAVG TEMPAVG PRESSURE GPRESSURE VOLUME PRESSAVG GPRESSAVG
ENERGY: 0 2.9546 7.1310 2.2792 0.0000 -10624.1916 1396.2881 0.0000 0.0000 1756.6859 -7458.8528 297.6446 -9215.5387 -7458.8528 297.6446 -316.3707 -249.8297 30902.6674 -316.3707 -249.8297
ENERGY: 300000 1.6359 11.2400 1.9606 0.0000 -10868.3280 1482.8103 0.0000 0.0000 1767.6989 -7602.9823 299.5106 -9370.6812 -7496.3150 303.6655 162.8429 240.6285 30153.5219 -136.8239 -58.9939
ENERGY: 600000 2.4055 7.3343 4.6842 0.0000 -10672.7316 1385.2966 0.0000 0.0000 1716.8151 -7556.1959 290.8891 -9273.0109 -7524.5589 299.6519 -418.3284 -395.3904 30812.1609 -89.0016 -14.7789
ENERGY: 900000 5.3396 9.0629 2.1168 0.0000 -10553.9273 1328.4378 0.0000 0.0000 1792.2559 -7416.7142 303.6715 -9208.9702 -7504.5018 300.8404 -739.2410 -616.2336 30729.6656 -184.6398 -104.5666
ENERGY: 1200000 3.5721 9.3518 2.8003 0.0000 -10732.9066 1433.0924 0.0000 0.0000 1721.7176 -7562.3723 291.7198 -9284.0899 -7507.0312 299.6312 -122.2552 2.8307 30404.6614 -177.2425 -98.6572
ENERGY: 1500000 4.3242 7.5165 2.4497 0.0000 -10680.3230 1318.1913 0.0000 0.0000 1760.5702 -7587.2712 298.3028 -9347.8414 -7509.6836 300.0882 -838.5733 -797.6225 30272.9027 -309.6038 -232.9154
TCL: Running FEP window  20: Lambda1 0.9500000000000003 Lambda2 1.0    [dLambda 0.04999999999999971]
TCL: Setting parameter firsttimestep to 0
TCL: Setting parameter alchLambda to 0.9500000000000003
Info: NONBONDED TABLE R-SQUARED SPACING: 0.0625
Info: NONBONDED TABLE SIZE: 705 POINTS
TCL: Setting parameter alchLambda2 to 1.0
Info: NONBONDED TABLE R-SQUARED SPACING: 0.0625
Info: NONBONDED TABLE SIZE: 705 POINTS
TCL: Running for 1500000 steps
ETITLE: TS BOND ANGLE DIHED IMPRP ELECT VDW BOUNDARY MISC KINETIC TOTAL TEMP POTENTIAL TOTALAVG TEMPAVG PRESSURE GPRESSURE VOLUME PRESSAVG GPRESSAVG
ENERGY: 0 4.3242 7.5165 2.4497 0.0000 -10681.7924 1318.1074 0.0000 0.0000 1759.7262 -7589.6684 298.1598 -9349.3946 -7589.6684 298.1598 -868.4189 -783.4496 30272.9027 -868.4189 -783.4496
ENERGY: 300000 0.8383 8.8827 4.8239 0.0000 -10728.5177 1442.1829 0.0000 0.0000 1731.7991 -7539.9908 293.4279 -9271.7899 -7539.0242 298.2320 -61.4893 64.6336 30699.9579 -270.6781 -205.4940
ENERGY: 600000 5.9002 10.7393 3.7792 0.0000 -10722.1788 1467.8126 0.0000 0.0000 1836.9771 -7396.9704 311.2488 -9233.9475 -7506.1409 300.5641 341.2644 408.9395 30352.4596 8.9325 73.0687
ENERGY: 900000 2.5089 13.1610 3.0297 0.0000 -10970.5435 1571.6955 0.0000 0.0000 1775.8430 -7604.3054 300.8905 -9380.1484 -7517.9029 300.6090 825.3108 932.4896 30212.2933 179.8113 243.9508
ENERGY: 1200000 3.1137 5.9186 2.1131 0.0000 -10868.4194 1482.7632 0.0000 0.0000 1768.3724 -7606.1384 299.6247 -9374.5108 -7513.7220 300.7097 179.7004 240.5840 30257.4054 59.8285 128.4856
ENERGY: 1500000 2.9744 9.5237 2.8980 0.0000 -10630.7051 1395.1515 0.0000 0.0000 1792.1303 -7428.0273 303.6502 -9220.1576 -7514.2387 300.6583 -290.6032 -246.2804 31079.6870 63.9797 126.0824
TCL: Exiting due to exit command.
