Info: SIMULATION PARAMETERS:
Info: TIMESTEP               2
Info: NUMBER OF STEPS        0
Info: STEPS PER CYCLE        10
Info: PERIODIC CELL BASIS 1  30.9764 0 0
Info: PERIODIC CELL BASIS 2  0 29.5713 0
Info: PERIODIC CELL BASIS 3  0 0 33.1589
Info: PERIODIC CELL CENTER   0 0 0
Info: WRAPPING WATERS AROUND PERIODIC BOUNDARIES ON OUTPUT.
Info: WRAPPING ALL CLUSTERS AROUND PERIODIC BOUNDARIES ON OUTPUT.
Info: FIRST LDB TIMESTEP     50
Info: LAST LDB TIMESTEP     -1
Info: HOM BACKGROUND SCALING 1
Info: PME BACKGROUND SCALING 1
Info: MIN ATOMS PER PATCH    40
Info: EMPTY PATCH LOAD       40 ATOMS
Info: VELOCITY FILE          mobley_3969312_equil.vel
Info: CENTER OF MASS MOVING INITIALLY? NO
Info: DIELECTRIC             1
Info: EXCLUDE                SCALED ONE-FOUR
Info: 1-4 ELECTROSTATICS SCALED BY 0.833333
Info: MODIFIED 1-4 VDW PARAMETERS WILL BE USED
Info: DCD FILENAME           mobley_3969312_prod.dcd
Info: DCD FREQUENCY          100000
Info: DCD FIRST STEP         100000
Info: DCD FILE WILL CONTAIN UNIT CELL DATA
Info: XST FILENAME           mobley_3969312_prod.xst
Info: XST FREQUENCY          100000
Info: NO VELOCITY DCD OUTPUT
Info: NO FORCE DCD OUTPUT
Info: OUTPUT FILENAME        mobley_3969312_prod
Info: BINARY OUTPUT FILES WILL BE USED
Info: RESTART FILENAME       mobley_3969312_prod.restart
Info: RESTART FREQUENCY      100000
Info: BINARY RESTART FILES WILL BE USED
Info: CUTOFF                 9
Info: PAIRLIST DISTANCE      11
Info: PAIRLIST SHRINK RATE   0.01
Info: PAIRLIST GROW RATE     0.01
Info: PAIRLIST TRIGGER       0.3
Info: PAIRLISTS PER CYCLE    2
Info: PAIRLISTS ENABLED
Info: MARGIN                 2
Info: HYDROGEN GROUP CUTOFF  2.5
Info: PATCH DIMENSION        15.5
Info: ENERGY OUTPUT STEPS    100000
Info: ENERGY EVALUATION STEPS    100000
Info: OUTPUT ENERGY PRECISION 4
Info: CROSSTERM ENERGY INCLUDED IN DIHEDRAL
Info: TIMING OUTPUT STEPS    1000000
Info: PRESSURE OUTPUT STEPS  100000
Info: ALCHEMICAL FEP ON
Info: FEP CURRENT LAMBDA VALUE     0
Info: FEP COMPARISON LAMBDA VALUE  0.05
Info: FEP INTRA-ALCHEMICAL NON-BONDED INTERACTIONS WILL BE RETAINED
Info: FEP INTRA-ALCHEMICAL BONDED INTERACTIONS WILL BE RETAINED
Info: FEP VDW SHIFTING COEFFICIENT 5
Info: FEP ELEC. ACTIVE FOR ANNIHILATED PARTICLES BETWEEN LAMBDA = 0 AND LAMBDA = 0.5
Info: FEP ELEC. ACTIVE FOR EXNIHILATED PARTICLES BETWEEN LAMBDA = 0.5 AND LAMBDA = 1
Info: FEP VDW ACTIVE FOR ANNIHILATED PARTICLES BETWEEN LAMBDA = 0 AND LAMBDA = 1
Info: FEP VDW ACTIVE FOR EXNIHILATED PARTICLES BETWEEN LAMBDA = 0 AND LAMBDA = 1
Info: FEP BOND ACTIVE FOR ANNIHILATED PARTICLES BETWEEN LAMBDA = 1 AND LAMBDA = 1
Info: FEP BOND ACTIVE FOR EXNIHILATED PARTICLES BETWEEN LAMBDA = 0 AND LAMBDA = 0
Info: LANGEVIN DYNAMICS ACTIVE
Info: LANGEVIN TEMPERATURE   300
Info: LANGEVIN USING BBK INTEGRATOR
Info: LANGEVIN DAMPING COEFFICIENT IS 1 INVERSE PS
Info: LANGEVIN DYNAMICS APPLIED TO HYDROGENS
Info: LANGEVIN PISTON PRESSURE CONTROL ACTIVE
Info:        TARGET PRESSURE IS 1.01325 BAR
Info:     OSCILLATION PERIOD IS 50 FS
Info:             DECAY TIME IS 25 FS
Info:     PISTON TEMPERATURE IS 300 K
Info:       PRESSURE CONTROL IS GROUP-BASED
Info:    INITIAL STRAIN RATE IS -6.29953e-05 -6.29953e-05 -6.29953e-05
Info:       CELL FLUCTUATION IS ISOTROPIC
Info: PARTICLE MESH EWALD (PME) ACTIVE
Info: PME TOLERANCE               1e-06
Info: PME EWALD COEFFICIENT       0.348832
Info: PME INTERPOLATION ORDER     4
Info: PME GRID DIMENSIONS         32 32 36
Info: PME MAXIMUM GRID SPACING    1
Info: PME CALCULATION WILL BE PERFORMED ON GPU
Info: FULL ELECTROSTATIC EVALUATION FREQUENCY      2
Info: USING VERLET I (r-RESPA) MTS SCHEME.
Info: C1 SPLITTING OF LONG RANGE ELECTROSTATICS
Info: PLACING ATOMS IN PATCHES BY HYDROGEN GROUPS
Info: RIGID BONDS TO HYDROGEN : ALL
Info:         ERROR TOLERANCE : 1e-08
Info:          MAX ITERATIONS : 100
Info: RIGID WATER USING SETTLE ALGORITHM
Info: RANDOM NUMBER SEED     1743740653
Info: USE HYDROGEN BONDS?    NO
Info: Using AMBER format force field!
Info: AMBER PARM FILE        mobley_3969312.prmtop
Info: COORDINATE PDB         mobley_3969312.pdb
Info: Exclusions will be read from PARM file!
Info: SCNB (VDW SCALING)     2
Info: USING ARITHMETIC MEAN TO COMBINE L-J SIGMA PARAMETERS
Info: BINARY COORDINATES     mobley_3969312_equil.coor
Info: SUMMARY OF PARAMETERS:
Info: 7 BONDS
Info: 6 ANGLES
Info:   6 HARMONIC
Info:   0 COSINE-BASED
Info: 4 DIHEDRAL
Info: 0 IMPROPER
Info: 0 CROSSTERM
Info: 0 VDW
Info: 21 VDW_PAIRS
Info: 0 NBTHOLE_PAIRS
Info: To read alchdata from file: mobley_3969312.pdb
Info: To read alchflag data from column: 5
Info: STRUCTURE SUMMARY:
Info: 2951 ATOMS
Info: 2951 BONDS
Info: 21 ANGLES
Info: 35 DIHEDRALS
Info: 0 IMPROPERS
Info: 0 CROSSTERMS
Info: 2997 EXCLUSIONS
Info: 2943 RIGID BONDS
Info: ALCH: 0 ATOMS TO DISAPPEAR IN FINAL STATE
Info: ALCH: 14 ATOMS TO APPEAR IN FINAL STATE
Info: 5910 DEGREES OF FREEDOM
Info: 987 HYDROGEN GROUPS
Info: 3 ATOMS IN LARGEST HYDROGEN GROUP
Info: 987 MIGRATION GROUPS
Info: 3 ATOMS IN LARGEST MIGRATION GROUP
Info: TOTAL MASS = 17743.8 amu
Info: TOTAL CHARGE = 4.42378e-09 e
Info: MASS DENSITY = 0.970075 g/cm^3
Info: ATOM DENSITY = 0.0971559 atoms/A^3
Info: ADDED 0 IMPLICIT EXCLUSIONS
Info: NONBONDED TABLE R-SQUARED SPACING: 0.0625
Info: NONBONDED TABLE SIZE: 705 POINTS
Info: REMOVING COM VELOCITY 0.105575 0.00326246 0.254492
Info: Use 3D box decompostion in PME FFT.
Info: Updated CUDA force table with 4096 elements.
Info: Updated CUDA LJ table with 6 x 6 elements.
Info: Found 16 unique exclusion lists needing 32 bytes
TCL: Running for 1500000 steps
ETITLE: TS BOND ANGLE DIHED IMPRP ELECT VDW BOUNDARY MISC KINETIC TOTAL TEMP POTENTIAL TOTALAVG TEMPAVG PRESSURE GPRESSURE VOLUME PRESSAVG GPRESSAVG
ENERGY: 0 5.8221 2.3843 1.9993 0.0000 -10682.1104 1406.8285 0.0000 0.0000 1771.1946 -7493.8816 301.6263 -9265.0762 -7493.8816 301.6263 -346.2675 -264.7730 30373.8587 -346.2675 -264.7730
ENERGY: 300000 6.9045 4.7394 4.1163 0.0000 -10660.8415 1426.5182 0.0000 0.0000 1787.2622 -7431.3009 304.3625 -9218.5631 -7459.7768 302.1134 -56.4350 18.4638 30050.1998 -158.2785 -74.5857
ENERGY: 600000 3.8517 2.0468 4.1420 0.0000 -10757.3938 1486.4535 0.0000 0.0000 1741.1894 -7519.7103 296.5165 -9260.8997 -7473.8917 299.5131 257.9950 364.8714 30221.6086 -14.8879 61.3467
ENERGY: 900000 4.3164 4.0938 2.9551 0.0000 -10808.9315 1463.4365 0.0000 0.0000 1741.4341 -7592.6956 296.5582 -9334.1296 -7491.6866 300.2184 -47.0602 21.9794 29846.7839 -30.3979 42.9132
ENERGY: 1200000 1.0363 3.4364 1.8140 0.0000 -10674.7686 1430.7034 0.0000 0.0000 1720.2857 -7517.4928 292.9567 -9237.7785 -7490.8563 299.7228 -55.4809 -60.6891 30347.3309 -43.8403 19.2079
ENERGY: 1500000 4.8670 4.8915 3.1204 0.0000 -10771.8244 1553.2808 0.0000 0.0000 1852.2455 -7353.4192 315.4289 -9205.6647 -7478.8560 300.6078 1160.0458 1203.1849 29690.9453 -55.4508 5.3614
TCL: Running FEP window   2: Lambda1 0.05   Lambda2 0.1    [dLambda 0.05  ]
TCL: Setting parameter firsttimestep to 0
TCL: Setting parameter alchLambda to 0.05
Info: NONBONDED TABLE R-SQUARED SPACING: 0.0625
Info: NONBONDED TABLE SIZE: 705 POINTS
TCL: Setting parameter alchLambda2 to 0.1
Info: NONBONDED TABLE R-SQUARED SPACING: 0.0625
Info: NONBONDED TABLE SIZE: 705 POINTS
TCL: Running for 1500000 steps
ETITLE: TS BOND ANGLE DIHED IMPRP ELECT VDW BOUNDARY MISC KINETIC TOTAL TEMP POTENTIAL TOTALAVG TEMPAVG PRESSURE GPRESSURE VOLUME PRESSAVG GPRESSAVG
ENERGY: 0 4.8670 4.8915 3.1204 0.0000 -10771.8238 1557.7667 0.0000 0.0000 1851.3662 -7349.8120 315.2791 -9201.1782 -7349.8120 315.2791 1115.9452 1209.2286 29690.9453 1115.9452 1209.2286
ENERGY: 300000 2.4620 2.4594 4.9143 0.0000 -10723.6401 1429.6198 0.0000 0.0000 1742.4560 -7541.7285 296.7322 -9284.1845 -7457.7774 302.3271 -218.7352 -165.0055 30011.2543 231.5954 306.2761
ENERGY: 600000 3.5577 3.1007 3.8204 0.0000 -10665.3607 1410.0858 0.0000 0.0000 1786.2351 -7458.5611 304.1876 -9244.7962 -7445.7530 303.4868 -255.7921 -216.2974 30089.0348 2.2558 55.8057
ENERGY: 900000 1.6195 7.4647 1.4498 0.0000 -10511.6250 1386.7396 0.0000 0.0000 1761.6074 -7352.7440 299.9936 -9114.3515 -7436.8928 301.8915 -253.0028 -169.5798 30596.8281 -131.9854 -79.6694
ENERGY: 1200000 2.5377 3.0186 4.4573 0.0000 -10861.3342 1591.6555 0.0000 0.0000 1783.8887 -7475.7764 303.7880 -9259.6651 -7446.1161 301.8875 1109.1329 1149.6713 30202.8233 -71.1152 -9.4703
ENERGY: 1500000 3.3688 5.0715 4.5983 0.0000 -10637.6243 1377.6098 0.0000 0.0000 1750.4555 -7496.5204 298.0945 -9246.9758 -7436.4376 302.1929 -938.5917 -815.2831 30841.4445 -178.6805 -111.5763
TCL: Running FEP window   3: Lambda1 0.1    Lambda2 0.15000000000000002 [dLambda 0.05000000000000002]
TCL: Setting parameter firsttimestep to 0
TCL: Setting parameter alchLambda to 0.1
Info: NONBONDED TABLE R-SQUARED SPACING: 0.0625
Info: NONBONDED TABLE SIZE: 705 POINTS
TCL: Setting parameter alchLambda2 to 0.15000000000000002
Info: NONBONDED TABLE R-SQUARED SPACING: 0.0625
Info: NONBONDED TABLE SIZE: 705 POINTS
TCL: Running for 1500000 steps
ETITLE: TS BOND ANGLE DIHED IMPRP ELECT VDW BOUNDARY MISC KINETIC TOTAL TEMP POTENTIAL TOTALAVG TEMPAVG PRESSURE GPRESSURE VOLUME PRESSAVG GPRESSAVG
ENERGY: 0 3.3688 5.0715 4.5983 0.0000 -10637.6242 1379.5441 0.0000 0.0000 1749.6265 -7495.4150 297.9533 -9245.0415 -7495.4150 297.9533 -891.2605 -805.2616 30841.4445 -891.2605 -805.2616
ENERGY: 300000 1.6526 4.1095 2.1827 0.0000 -10792.0833 1531.5073 0.0000 0.0000 1781.9189 -7470.7122 303.4526 -9252.6312 -7476.5530 301.9096 647.5056 759.6987 30002.3009 -86.7021 -3.8757
ENERGY: 600000 4.5551 3.1326 0.9223 0.0000 -10584.7218 1381.8798 0.0000 0.0000 1758.7944 -7435.4377 299.5146 -9194.2320 -7457.6422 302.8713 -455.6338 -375.2331 30362.0404 -210.4824 -122.9060
ENERGY: 900000 2.9565 1.5676 3.7256 0.0000 -10686.3963 1450.5670 0.0000 0.0000 1706.7148 -7520.8648 290.6457 -9227.5796 -7482.3526 299.5588 383.8630 437.4603 29890.6908 -65.8016 15.4052
ENERGY: 1200000 3.9237 2.3017 2.9373 0.0000 -10629.4885 1400.1556 0.0000 0.0000 1720.5887 -7499.5816 293.0083 -9220.1702 -7479.3885 299.2205 -500.2173 -452.5139 30783.2757 -184.1998 -110.5456
ENERGY: 1500000 1.7672 2.8201 4.1271 0.0000 -10612.0171 1390.1026 0.0000 0.0000 1769.4096 -7443.7905 301.3223 -9213.2000 -7471.9256 300.1586 -183.9218 -161.6652 30065.7810 -183.1043 -120.4508
TCL: Running FEP window   4: Lambda1 0.15000000000000002 Lambda2 0.2    [dLambda 0.04999999999999999]
TCL: Setting parameter firsttimestep to 0
TCL: Setting parameter alchLambda to 0.15000000000000002
Info: NONBONDED TABLE R-SQUARED SPACING: 0.0625
Info: NONBONDED TABLE SIZE: 705 POINTS
TCL: Setting parameter alchLambda2 to 0.2
Info: NONBONDED TABLE R-SQUARED SPACING: 0.0625
Info: NONBONDED TABLE SIZE: 705 POINTS
TCL: Running for 1500000 steps
ETITLE: TS BOND ANGLE DIHED IMPRP ELECT VDW BOUNDARY MISC KINETIC TOTAL TEMP POTENTIAL TOTALAVG TEMPAVG PRESSURE GPRESSURE VOLUME PRESSAVG GPRESSAVG
ENERGY: 0 1.7672 2.8201 4.1271 0.0000 -10612.0166 1390.1315 0.0000 0.0000 1768.4962 -7444.6745 301.1668 -9213.1707 -7444.6745 301.1668 -241.8049 -159.1765 30065.7810 -241.8049 -159.1765
ENERGY: 300000 5.6899 2.9672 4.2258 0.0000 -10669.2522 1415.1468 0.0000 0.0000 1793.4373 -7447.7851 305.4141 -9241.2224 -7440.2269 301.1590 29.2260 14.4579 29774.0487 -204.6820 -162.0408
ENERGY: 600000 2.1974 6.4175 4.6706 0.0000 -10805.6291 1513.2936 0.0000 0.0000 1802.8090 -7476.2410 307.0101 -9279.0500 -7444.8328 304.3791 667.0217 752.3350 29868.1752 -130.1797 -71.9925
ENERGY: 900000 3.4577 3.1029 4.1436 0.0000 -10717.8707 1442.4191 0.0000 0.0000 1737.3006 -7527.4469 295.8543 -9264.7475 -7442.8217 303.1534 9.0563 46.0833 29906.7035 -105.0060 -43.5041
ENERGY: 1200000 2.6247 4.2535 2.0216 0.0000 -10866.7654 1521.1152 0.0000 0.0000 1800.8861 -7535.8643 306.6826 -9336.7504 -7460.0382 303.3383 571.1170 595.0411 29852.2156 32.4056 96.0897
ENERGY: 1500000 1.0711 2.2850 5.8377 0.0000 -10593.6149 1401.5588 0.0000 0.0000 1771.5286 -7411.3336 301.6832 -9182.8622 -7456.6027 303.7108 -184.0038 -180.6704 30736.9727 -67.7504 -17.3747
TCL: Running FEP window   5: Lambda1 0.2    Lambda2 0.25   [dLambda 0.04999999999999999]
TCL: Setting parameter firsttimestep to 0
TCL: Setting parameter alchLambda to 0.2
Info: NONBONDED TABLE R-SQUARED SPACING: 0.0625
Info: NONBONDED TABLE SIZE: 705 POINTS
TCL: Setting parameter alchLambda2 to 0.25
Info: NONBONDED TABLE R-SQUARED SPACING: 0.0625
Info: NONBONDED TABLE SIZE: 705 POINTS
TCL: Running for 1500000 steps
ETITLE: TS BOND ANGLE DIHED IMPRP ELECT VDW BOUNDARY MISC KINETIC TOTAL TEMP POTENTIAL TOTALAVG TEMPAVG PRESSURE GPRESSURE VOLUME PRESSAVG GPRESSAVG
ENERGY: 0 1.0711 2.2850 5.8377 0.0000 -10593.6149 1401.6645 0.0000 0.0000 1770.6568 -7412.0998 301.5347 -9182.7565 -7412.0998 301.5347 -266.5246 -177.3252 30736.9727 -266.5246 -177.3252
ENERGY: 300000 2.6454 2.7850 10.6744 0.0000 -10717.1572 1520.6119 0.0000 0.0000 1710.0904 -7470.3502 291.2205 -9180.4405 -7460.8682 297.1769 711.8089 837.5222 29933.6933 226.8623 328.1572
ENERGY: 600000 1.6704 4.1973 1.8912 0.0000 -10739.0291 1519.7656 0.0000 0.0000 1749.1621 -7462.3425 297.8743 -9211.5046 -7467.9681 298.4401 483.0442 556.5098 30456.2538 36.6893 116.0400
ENERGY: 900000 3.5521 2.2039 2.8606 0.0000 -10792.1723 1489.1074 0.0000 0.0000 1780.0917 -7514.3566 303.1414 -9294.4482 -7473.3978 298.7467 259.4186 324.3307 30279.7562 26.0658 105.9000
ENERGY: 1200000 5.4566 2.6443 4.3536 0.0000 -10623.4564 1388.2981 0.0000 0.0000 1692.7265 -7529.9774 288.2635 -9222.7039 -7467.3740 298.3401 -209.0644 -149.3897 29766.1049 -44.3723 34.5284
ENERGY: 1500000 3.5601 4.2502 1.7958 0.0000 -10538.1416 1389.6053 0.0000 0.0000 1760.4918 -7378.4384 299.8036 -9138.9302 -7467.8930 298.6867 -451.0564 -404.2030 30731.8203 -87.9301 -10.2620
TCL: Running FEP window   6: Lambda1 0.25   Lambda2 0.3    [dLambda 0.04999999999999999]
TCL: Setting parameter firsttimestep to 0
TCL: Setting parameter alchLambda to 0.25
Info: NONBONDED TABLE R-SQUARED SPACING: 0.0625
Info: NONBONDED TABLE SIZE: 705 POINTS
TCL: Setting parameter alchLambda2 to 0.3
Info: NONBONDED TABLE R-SQUARED SPACING: 0.0625
Info: NONBONDED TABLE SIZE: 705 POINTS
TCL: Running for 1500000 steps
ETITLE: TS BOND ANGLE DIHED IMPRP ELECT VDW BOUNDARY MISC KINETIC TOTAL TEMP POTENTIAL TOTALAVG TEMPAVG PRESSURE GPRESSURE VOLUME PRESSAVG GPRESSAVG
ENERGY: 0 3.5601 4.2502 1.7958 0.0000 -10538.1414 1389.3248 0.0000 0.0000 1759.6158 -7379.5947 299.6545 -9139.2105 -7379.5947 299.6545 -488.2915 -402.0722 30731.8203 -488.2915 -402.0722
ENERGY: 300000 4.2284 3.4161 0.6459 0.0000 -10502.2252 1392.2138 0.0000 0.0000 1742.1559 -7359.5652 296.6811 -9101.7211 -7415.9902 297.1373 -207.2408 -199.7302 31059.3590 -282.0895 -205.3737
ENERGY: 600000 4.0551 2.2698 2.4563 0.0000 -10728.1958 1494.8932 0.0000 0.0000 1761.0616 -7463.4598 299.9007 -9224.5214 -7452.1114 297.5508 490.1058 539.4965 30154.1754 -90.7332 -30.6911
ENERGY: 900000 2.9977 4.4320 2.5204 0.0000 -10600.0296 1397.8262 0.0000 0.0000 1739.9715 -7452.2817 296.3091 -9192.2532 -7440.9917 298.9130 -116.6641 -54.6267 30038.7859 -194.4249 -131.2944
ENERGY: 1200000 3.8103 2.0197 5.3588 0.0000 -10876.7418 1521.6916 0.0000 0.0000 1741.2009 -7602.6604 296.5185 -9343.8614 -7453.0303 299.2500 2.0117 28.3957 30265.4129 -194.7561 -128.2187
ENERGY: 1500000 2.0752 4.5540 5.0012 0.0000 -10636.4057 1429.7108 0.0000 0.0000 1724.3245 -7470.7401 293.6445 -9195.0646 -7461.6133 298.7315 147.6919 221.1131 30106.3370 -126.0386 -66.8132
TCL: Running FEP window   7: Lambda1 0.3    Lambda2 0.35   [dLambda 0.04999999999999999]
TCL: Setting parameter firsttimestep to 0
TCL: Setting parameter alchLambda to 0.3
Info: NONBONDED TABLE R-SQUARED SPACING: 0.0625
Info: NONBONDED TABLE SIZE: 705 POINTS
TCL: Setting parameter alchLambda2 to 0.35
Info: NONBONDED TABLE R-SQUARED SPACING: 0.0625
Info: NONBONDED TABLE SIZE: 705 POINTS
TCL: Running for 1500000 steps
ETITLE: TS BOND ANGLE DIHED IMPRP ELECT VDW BOUNDARY MISC KINETIC TOTAL TEMP POTENTIAL TOTALAVG TEMPAVG PRESSURE GPRESSURE VOLUME PRESSAVG GPRESSAVG
ENERGY: 0 2.0752 4.5540 5.0012 0.0000 -10636.4056 1430.3671 0.0000 0.0000 1723.4719 -7470.9362 293.4993 -9194.4081 -7470.9362 293.4993 147.2742 224.7774 30106.3370 147.2742 224.7774
ENERGY: 300000 4.0932 2.2171 4.2088 0.0000 -10618.4038 1420.8991 0.0000 0.0000 1797.6818 -7389.3038 306.1369 -9186.9856 -7435.3580 298.3286 -191.1802 -123.4701 30468.6587 -528.1251 -461.0329
ENERGY: 600000 5.4132 1.2979 2.9080 0.0000 -10787.0847 1463.8092 0.0000 0.0000 1770.9515 -7542.7050 301.5849 -9313.6565 -7433.2524 298.8105 -149.0843 -115.6138 30353.8068 -271.9134 -212.7498
ENERGY: 900000 1.7272 2.5262 2.1372 0.0000 -10727.5920 1477.6296 0.0000 0.0000 1708.0054 -7535.5665 290.8655 -9243.5719 -7451.6280 297.7906 350.7589 425.6525 30138.3847 -141.1423 -86.3384
ENERGY: 1200000 1.2090 3.6524 1.9148 0.0000 -10548.3274 1342.0082 0.0000 0.0000 1788.8395 -7410.7034 304.6311 -9199.5429 -7454.4947 298.5348 -572.2024 -483.9464 30281.4361 -208.8773 -150.5853
ENERGY: 1500000 2.3185 1.7317 3.9735 0.0000 -10647.4337 1389.8078 0.0000 0.0000 1727.3500 -7522.2522 294.1597 -9249.6022 -7464.7763 298.5968 -471.5651 -402.6707 30428.1419 -131.7260 -76.1617
TCL: Running FEP window   8: Lambda1 0.35   Lambda2 0.39999999999999997 [dLambda 0.04999999999999999]
TCL: Setting parameter firsttimestep to 0
TCL: Setting parameter alchLambda to 0.35
Info: NONBONDED TABLE R-SQUARED SPACING: 0.0625
Info: NONBONDED TABLE SIZE: 705 POINTS
TCL: Setting parameter alchLambda2 to 0.39999999999999997
Info: NONBONDED TABLE R-SQUARED SPACING: 0.0625
Info: NONBONDED TABLE SIZE: 705 POINTS
TCL: Running for 1500000 steps
ETITLE: TS BOND ANGLE DIHED IMPRP ELECT VDW BOUNDARY MISC KINETIC TOTAL TEMP POTENTIAL TOTALAVG TEMPAVG PRESSURE GPRESSURE VOLUME PRESSAVG GPRESSAVG
ENERGY: 0 2.3185 1.7317 3.9735 0.0000 -10647.4354 1390.0575 0.0000 0.0000 1726.4789 -7522.8753 294.0114 -9249.3542 -7522.8753 294.0114 -482.8942 -397.1271 30428.1419 -482.8942 -397.1271
ENERGY: 300000 3.3055 2.9071 1.5307 0.0000 -10570.8005 1354.3445 0.0000 0.0000 1768.9456 -7439.7671 301.2433 -9208.7127 -7481.1208 298.4046 -409.3534 -281.1875 29906.0206 174.9535 250.9815
ENERGY: 600000 2.3956 1.8280 7.0453 0.0000 -10730.8299 1501.4818 0.0000 0.0000 1708.5291 -7509.5501 290.9546 -9218.0793 -7480.0208 296.5387 640.9497 673.0632 29969.1763 232.2635 296.7985
ENERGY: 900000 1.3190 5.0974 2.7955 0.0000 -10637.9815 1402.1593 0.0000 0.0000 1798.6548 -7427.9556 306.3026 -9226.6104 -7462.9016 299.4485 -77.2188 0.3000 29829.6752 89.7557 151.5826
ENERGY: 1200000 1.1489 1.3685 3.6783 0.0000 -10608.5598 1407.8955 0.0000 0.0000 1740.6821 -7453.7864 296.4302 -9194.4685 -7457.9943 300.4890 -292.3708 -223.1680 30751.5168 75.6450 134.5853
ENERGY: 1500000 1.1488 2.0512 3.1037 0.0000 -10718.2008 1503.5118 0.0000 0.0000 1731.2938 -7477.0915 294.8314 -9208.3853 -7467.8374 299.5952 570.4731 628.8612 30204.4866 84.8199 143.5118
TCL: Running FEP window   9: Lambda1 0.39999999999999997 Lambda2 0.44999999999999996 [dLambda 0.04999999999999999]
TCL: Setting parameter firsttimestep to 0
TCL: Setting parameter alchLambda to 0.39999999999999997
Info: NONBONDED TABLE R-SQUARED SPACING: 0.0625
Info: NONBONDED TABLE SIZE: 705 POINTS
TCL: Setting parameter alchLambda2 to 0.44999999999999996
Info: NONBONDED TABLE R-SQUARED SPACING: 0.0625
Info: NONBONDED TABLE SIZE: 705 POINTS
TCL: Running for 1500000 steps
ETITLE: TS BOND ANGLE DIHED IMPRP ELECT VDW BOUNDARY MISC KINETIC TOTAL TEMP POTENTIAL TOTALAVG TEMPAVG PRESSURE GPRESSURE VOLUME PRESSAVG GPRESSAVG
ENERGY: 0 1.1488 2.0512 3.1037 0.0000 -10718.2017 1503.2928 0.0000 0.0000 1730.4621 -7478.1432 294.6897 -9208.6053 -7478.1432 294.6897 555.8661 630.9298 30204.4866 555.8661 630.9298
ENERGY: 300000 1.1788 3.6501 4.8287 0.0000 -10631.9958 1435.6213 0.0000 0.0000 1786.7728 -7399.9441 304.2792 -9186.7169 -7426.9904 303.9444 274.9909 414.0701 30037.6900 481.4168 535.0300
ENERGY: 600000 1.6516 1.3214 2.3310 0.0000 -10750.5573 1500.6628 0.0000 0.0000 1758.1187 -7486.4719 299.3995 -9244.5906 -7450.6717 302.4403 586.4989 659.6227 29935.4176 152.8527 233.2681
ENERGY: 900000 0.9453 1.9225 2.0173 0.0000 -10634.3231 1501.0465 0.0000 0.0000 1780.8376 -7347.5538 303.2684 -9128.3915 -7437.4671 302.7714 718.3600 814.5749 30588.1863 222.5608 300.5392
ENERGY: 1200000 1.3896 2.2667 4.6700 0.0000 -10790.0727 1514.1832 0.0000 0.0000 1774.7505 -7492.8126 302.2318 -9267.5630 -7449.3139 303.0894 778.7537 862.1063 29809.3842 239.2707 309.0369
ENERGY: 1500000 1.6032 5.4642 2.7109 0.0000 -10614.5171 1386.8914 0.0000 0.0000 1769.0328 -7448.8145 301.2581 -9217.8474 -7457.8296 302.4001 -202.4958 -181.4465 30263.4055 140.2246 204.2812
TCL: Running FEP window  10: Lambda1 0.44999999999999996 Lambda2 0.49999999999999994 [dLambda 0.04999999999999999]
TCL: Setting parameter firsttimestep to 0
TCL: Setting parameter alchLambda to 0.44999999999999996
Info: NONBONDED TABLE R-SQUARED SPACING: 0.0625
Info: NONBONDED TABLE SIZE: 705 POINTS
TCL: Setting parameter alchLambda2 to 0.49999999999999994
Info: NONBONDED TABLE R-SQUARED SPACING: 0.0625
Info: NONBONDED TABLE SIZE: 705 POINTS
TCL: Running for 1500000 steps
ETITLE: TS BOND ANGLE DIHED IMPRP ELECT VDW BOUNDARY MISC KINETIC TOTAL TEMP POTENTIAL TOTALAVG TEMPAVG PRESSURE GPRESSURE VOLUME PRESSAVG GPRESSAVG
ENERGY: 0 1.6032 5.4642 2.7109 0.0000 -10614.5153 1387.4167 0.0000 0.0000 1768.1867 -7449.1337 301.1140 -9217.3204 -7449.1337 301.1140 -245.8289 -171.3859 30263.4055 -245.8289 -171.3859
ENERGY: 300000 0.8559 3.1356 4.7662 0.0000 -10863.9403 1639.5431 0.0000 0.0000 1811.7560 -7403.8835 308.5337 -9215.6395 -7427.6333 301.1248 1776.9670 1816.2632 29761.3662 497.9719 569.4847
ENERGY: 600000 1.4410 4.5024 2.8686 0.0000 -10574.3903 1377.2327 0.0000 0.0000 1754.3253 -7434.0203 298.7535 -9188.3456 -7435.0444 300.4302 -499.3629 -421.4234 30591.6547 -2.6541 70.1401
ENERGY: 900000 2.7826 3.3566 4.4004 0.0000 -10729.0282 1468.1223 0.0000 0.0000 1743.1733 -7507.1930 296.8544 -9250.3663 -7437.3135 300.1369 -208.2312 -27.2118 30628.2185 -61.5181 16.0055
ENERGY: 1200000 5.2686 5.0298 1.4828 0.0000 -10665.8934 1398.0954 0.0000 0.0000 1774.4253 -7481.5915 302.1765 -9256.0168 -7439.0380 300.9138 -733.8537 -627.9094 30696.9843 -143.6971 -60.1993
ENERGY: 1500000 2.9271 5.2519 2.9081 0.0000 -10751.8854 1484.8127 0.0000 0.0000 1716.8108 -7539.1748 292.3650 -9255.9857 -7452.2274 300.8035 394.2573 438.4299 30102.5871 -168.3378 -92.3804
TCL: Running FEP window  11: Lambda1 0.49999999999999994 Lambda2 0.5499999999999999 [dLambda 0.04999999999999999]
TCL: Setting parameter firsttimestep to 0
TCL: Setting parameter alchLambda to 0.49999999999999994
Info: NONBONDED TABLE R-SQUARED SPACING: 0.0625
Info: NONBONDED TABLE SIZE: 705 POINTS
TCL: Setting parameter alchLambda2 to 0.5499999999999999
Info: NONBONDED TABLE R-SQUARED SPACING: 0.0625
Info: NONBONDED TABLE SIZE: 705 POINTS
TCL: Running for 1500000 steps
ETITLE: TS BOND ANGLE DIHED IMPRP ELECT VDW BOUNDARY MISC KINETIC TOTAL TEMP POTENTIAL TOTALAVG TEMPAVG PRESSURE GPRESSURE VOLUME PRESSAVG GPRESSAVG
ENERGY: 0 2.9271 5.2518 2.9081 0.0000 -10751.8839 1484.6039 0.0000 0.0000 1715.9818 -7540.2112 292.2238 -9256.1930 -7540.2112 292.2238 369.7730 441.4428 30102.5871 369.7730 441.4428
ENERGY: 300000 1.2321 3.4740 3.9030 0.0000 -10591.8479 1331.1840 0.0000 0.0000 1819.9440 -7432.1106 309.9281 -9252.0547 -7492.7798 300.1229 -1015.0251 -971.9468 30724.9491 -119.3459 -71.7471
ENERGY: 600000 3.8085 6.1414 3.3307 0.0000 -10752.3633 1513.6373 0.0000 0.0000 1708.1929 -7517.2524 290.8974 -9225.4453 -7464.4934 299.3794 690.2168 621.2088 30271.3629 34.5110 66.1307
ENERGY: 900000 1.9971 4.8783 2.6810 0.0000 -10737.0104 1446.4459 0.0000 0.0000 1822.3586 -7458.6496 310.3393 -9281.0081 -7451.1493 301.7343 189.7265 221.5844 30123.4779 106.8779 140.4589
ENERGY: 1200000 2.2755 3.1575 4.1054 0.0000 -10653.3783 1399.2582 0.0000 0.0000 1755.0774 -7489.5043 298.8816 -9244.5817 -7458.1090 301.4822 -540.6231 -501.5587 30519.4129 -79.0153 -33.1262
ENERGY: 1500000 3.3899 4.4355 2.8666 0.0000 -10550.1627 1377.3411 0.0000 0.0000 1830.1011 -7332.0284 311.6578 -9162.1295 -7453.9180 302.3854 -199.1332 -169.7240 30254.0206 -71.6671 -26.3283
TCL: Running FEP window  12: Lambda1 0.5499999999999999 Lambda2 0.6    [dLambda 0.050000000000000044]
TCL: Setting parameter firsttimestep to 0
TCL: Setting parameter alchLambda to 0.5499999999999999
Info: NONBONDED TABLE R-SQUARED SPACING: 0.0625
Info: NONBONDED TABLE SIZE: 705 POINTS
TCL: Setting parameter alchLambda2 to 0.6
Info: NONBONDED TABLE R-SQUARED SPACING: 0.0625
Info: NONBONDED TABLE SIZE: 705 POINTS
TCL: Running for 1500000 steps
ETITLE: TS BOND ANGLE DIHED IMPRP ELECT VDW BOUNDARY MISC KINETIC TOTAL TEMP POTENTIAL TOTALAVG TEMPAVG PRESSURE GPRESSURE VOLUME PRESSAVG GPRESSAVG
ENERGY: 0 3.3899 4.4355 2.8666 0.0000 -10550.2004 1377.1871 0.0000 0.0000 1829.2507 -7333.0706 311.5130 -9162.3213 -7333.0706 311.5130 -244.0436 -160.3797 30254.0206 -244.0436 -160.3797
ENERGY: 300000 1.5964 1.8023 2.7082 0.0000 -10599.6028 1379.2926 0.0000 0.0000 1777.0192 -7437.1841 302.6182 -9214.2033 -7375.9107 306.3934 -419.4896 -381.0175 30488.7135 -205.6289 -162.0788
ENERGY: 600000 2.1083 2.2900 2.7268 0.0000 -10818.8326 1540.9771 0.0000 0.0000 1742.5220 -7528.2085 296.7435 -9270.7305 -7429.0245 304.3068 669.0491 744.9864 30235.2719 26.0863 78.1740
ENERGY: 900000 4.3094 2.9235 2.2556 0.0000 -10725.8368 1470.6716 0.0000 0.0000 1810.0721 -7435.6046 308.2469 -9245.6768 -7436.9963 304.8687 236.8926 274.3133 30595.1089 89.1122 137.8890
ENERGY: 1200000 1.9118 2.5018 3.5710 0.0000 -10609.8494 1358.1751 0.0000 0.0000 1750.3099 -7493.3797 298.0697 -9243.6896 -7446.9547 303.8780 -665.0310 -606.1195 30283.9086 65.3279 115.6550
ENERGY: 1500000 1.1402 1.2133 1.7181 0.0000 -10697.0888 1473.1322 0.0000 0.0000 1841.5247 -7378.3604 313.6032 -9219.8851 -7452.3326 304.4794 273.1824 312.6169 30468.2231 29.2101 81.0302
TCL: Running FEP window  13: Lambda1 0.6    Lambda2 0.65   [dLambda 0.050000000000000044]
TCL: Setting parameter firsttimestep to 0
TCL: Setting parameter alchLambda to 0.6
Info: NONBONDED TABLE R-SQUARED SPACING: 0.0625
Info: NONBONDED TABLE SIZE: 705 POINTS
TCL: Setting parameter alchLambda2 to 0.65
Info: NONBONDED TABLE R-SQUARED SPACING: 0.0625
Info: NONBONDED TABLE SIZE: 705 POINTS
TCL: Running for 1500000 steps
ETITLE: TS BOND ANGLE DIHED IMPRP ELECT VDW BOUNDARY MISC KINETIC TOTAL TEMP POTENTIAL TOTALAVG TEMPAVG PRESSURE GPRESSURE VOLUME PRESSAVG GPRESSAVG
ENERGY: 0 1.1402 1.2133 1.7181 0.0000 -10696.8788 1472.7688 0.0000 0.0000 1840.6391 -7379.3993 313.4524 -9220.0384 -7379.3993 313.4524 238.3512 318.1700 30468.2231 238.3512 318.1700
ENERGY: 300000 2.7516 1.9108 1.4988 0.0000 -10628.0999 1382.7312 0.0000 0.0000 1741.0797 -7498.1277 296.4979 -9239.2074 -7474.5080 300.4814 -364.8304 -294.7859 30399.2187 -133.6885 -38.0800
ENERGY: 600000 2.0211 4.2064 1.2675 0.0000 -10595.6997 1482.5155 0.0000 0.0000 1744.2198 -7361.4694 297.0326 -9105.6893 -7462.8887 299.6275 606.2844 739.4761 30530.3158 -255.3332 -157.8408
ENERGY: 900000 3.2664 2.4020 5.8179 0.0000 -10617.2094 1375.0310 0.0000 0.0000 1800.5630 -7430.1290 306.6276 -9230.6920 -7451.4087 300.5267 -677.6317 -665.1677 30551.3863 -174.1148 -99.3858
ENERGY: 1200000 1.8444 3.5323 3.0852 0.0000 -10740.1324 1492.7529 0.0000 0.0000 1763.8405 -7475.0771 300.3739 -9238.9176 -7459.7323 298.4762 10.4988 128.8496 30775.1378 -254.9745 -177.7349
ENERGY: 1500000 1.3708 2.2167 4.4934 0.0000 -10670.8789 1439.6768 0.0000 0.0000 1739.6114 -7483.5098 296.2478 -9223.1212 -7460.3949 298.8124 -55.9332 41.6099 30431.9043 -185.7851 -107.2331
TCL: Running FEP window  14: Lambda1 0.65   Lambda2 0.7000000000000001 [dLambda 0.050000000000000044]
TCL: Setting parameter firsttimestep to 0
TCL: Setting parameter alchLambda to 0.65
Info: NONBONDED TABLE R-SQUARED SPACING: 0.0625
Info: NONBONDED TABLE SIZE: 705 POINTS
TCL: Setting parameter alchLambda2 to 0.7000000000000001
Info: NONBONDED TABLE R-SQUARED SPACING: 0.0625
Info: NONBONDED TABLE SIZE: 705 POINTS
TCL: Running for 1500000 steps
ETITLE: TS BOND ANGLE DIHED IMPRP ELECT VDW BOUNDARY MISC KINETIC TOTAL TEMP POTENTIAL TOTALAVG TEMPAVG PRESSURE GPRESSURE VOLUME PRESSAVG GPRESSAVG
ENERGY: 0 1.3708 2.2167 4.4934 0.0000 -10670.8738 1439.4620 0.0000 0.0000 1738.7178 -7484.6130 296.0956 -9223.3308 -7484.6130 296.0956 -26.0299 48.8766 30431.9043 -26.0299 48.8766
ENERGY: 300000 2.4371 4.1259 1.8863 0.0000 -10679.1586 1455.2520 0.0000 0.0000 1734.6986 -7480.7586 295.4112 -9215.4572 -7474.1834 295.9733 301.1123 343.9308 30103.3990 -51.6967 21.7799
ENERGY: 600000 1.4486 3.5137 4.0978 0.0000 -10569.2743 1485.6919 0.0000 0.0000 1804.6672 -7269.8550 307.3265 -9074.5222 -7444.1510 298.3222 652.1582 738.1970 31157.3158 137.2592 202.1893
ENERGY: 900000 2.0947 2.1720 3.5219 0.0000 -10620.5434 1374.0836 0.0000 0.0000 1783.4912 -7455.1800 303.7203 -9238.6712 -7438.9576 300.7657 -198.3676 -115.3887 29894.8197 77.7250 134.9758
ENERGY: 1200000 2.8733 1.6092 1.5541 0.0000 -10890.0927 1550.4698 0.0000 0.0000 1785.7282 -7547.8581 304.1013 -9333.5863 -7460.0138 300.9813 504.1921 542.6366 30262.7100 72.1601 130.3753
ENERGY: 1500000 1.9268 4.8786 1.9972 0.0000 -10638.0238 1524.0048 0.0000 0.0000 1717.8317 -7387.3847 292.5388 -9105.2164 -7458.0885 299.7879 881.5268 868.6144 30482.5849 180.3606 238.3386
TCL: Running FEP window  15: Lambda1 0.7000000000000001 Lambda2 0.7500000000000001 [dLambda 0.050000000000000044]
TCL: Setting parameter firsttimestep to 0
TCL: Setting parameter alchLambda to 0.7000000000000001
Info: NONBONDED TABLE R-SQUARED SPACING: 0.0625
Info: NONBONDED TABLE SIZE: 705 POINTS
TCL: Setting parameter alchLambda2 to 0.7500000000000001
Info: NONBONDED TABLE R-SQUARED SPACING: 0.0625
Info: NONBONDED TABLE SIZE: 705 POINTS
TCL: Running for 1500000 steps
ETITLE: TS BOND ANGLE DIHED IMPRP ELECT VDW BOUNDARY MISC KINETIC TOTAL TEMP POTENTIAL TOTALAVG TEMPAVG PRESSURE GPRESSURE VOLUME PRESSAVG GPRESSAVG
ENERGY: 0 1.9268 4.8786 1.9972 0.0000 -10638.4712 1524.4187 0.0000 0.0000 1716.9802 -7388.2698 292.3938 -9105.2500 -7388.2698 292.3938 787.6561 881.3000 30482.5849 787.6561 881.3000
ENERGY: 300000 1.8614 6.9043 4.3100 0.0000 -10731.1085 1474.5844 0.0000 0.0000 1734.1783 -7509.2701 295.3226 -9243.4484 -7449.9916 295.2746 90.8775 206.5663 30264.2609 101.4709 194.3498
ENERGY: 600000 2.7009 5.5211 3.2894 0.0000 -10757.8251 1503.9324 0.0000 0.0000 1765.9598 -7476.4215 300.7348 -9242.3813 -7461.8187 297.1504 224.0144 317.8452 30572.2832 158.8663 229.7376
ENERGY: 900000 6.3788 1.2805 5.9437 0.0000 -10710.1488 1472.3343 0.0000 0.0000 1722.0690 -7502.1425 293.2604 -9224.2115 -7461.6875 297.7399 155.6737 190.2928 30893.0782 127.5452 194.8292
ENERGY: 1200000 1.9605 2.7326 2.2632 0.0000 -10855.1265 1492.1100 0.0000 0.0000 1789.4998 -7566.5604 304.7436 -9356.0602 -7468.1450 298.4523 -18.7587 91.2079 30231.7803 149.1730 217.7612
ENERGY: 1500000 2.9768 3.7361 0.8941 0.0000 -10735.2943 1479.4021 0.0000 0.0000 1718.6692 -7529.6160 292.6814 -9248.2852 -7468.0028 298.7904 178.5084 253.1499 30241.5468 73.1267 141.0535
TCL: Running FEP window  16: Lambda1 0.7500000000000001 Lambda2 0.8000000000000002 [dLambda 0.050000000000000044]
TCL: Setting parameter firsttimestep to 0
TCL: Setting parameter alchLambda to 0.7500000000000001
Info: NONBONDED TABLE R-SQUARED SPACING: 0.0625
Info: NONBONDED TABLE SIZE: 705 POINTS
TCL: Setting parameter alchLambda2 to 0.8000000000000002
Info: NONBONDED TABLE R-SQUARED SPACING: 0.0625
Info: NONBONDED TABLE SIZE: 705 POINTS
TCL: Running for 1500000 steps
ETITLE: TS BOND ANGLE DIHED IMPRP ELECT VDW BOUNDARY MISC KINETIC TOTAL TEMP POTENTIAL TOTALAVG TEMPAVG PRESSURE GPRESSURE VOLUME PRESSAVG GPRESSAVG
ENERGY: 0 2.9768 3.7361 0.8941 0.0000 -10736.4193 1479.4473 0.0000 0.0000 1717.7763 -7531.5887 292.5294 -9249.3649 -7531.5887 292.5294 177.9740 261.3887 30241.5468 177.9740 261.3887
ENERGY: 300000 1.1182 0.7450 1.9415 0.0000 -10679.1465 1406.1668 0.0000 0.0000 1771.2761 -7497.8989 301.6402 -9269.1750 -7438.5896 301.9093 -160.9356 -128.0234 30372.8566 -276.7964 -210.8237
ENERGY: 600000 3.3185 3.9429 4.2525 0.0000 -10536.7633 1357.3234 0.0000 0.0000 1766.9943 -7400.9316 300.9110 -9167.9259 -7439.5988 300.9722 -312.6439 -286.3121 30363.9719 -93.9287 -42.4371
ENERGY: 900000 1.9846 5.8157 3.0400 0.0000 -10612.9584 1378.7275 0.0000 0.0000 1753.7877 -7469.6029 298.6620 -9223.3906 -7445.4493 300.2853 -310.8938 -231.8643 30267.5093 -149.4290 -94.2568
ENERGY: 1200000 3.3750 2.0343 4.8396 0.0000 -10658.7491 1399.5808 0.0000 0.0000 1824.5918 -7424.3277 310.7196 -9248.9195 -7445.3820 301.3564 -397.9685 -333.7292 30634.6523 -119.2566 -63.5275
ENERGY: 1500000 3.6168 4.9853 3.3413 0.0000 -10747.5342 1431.6199 0.0000 0.0000 1756.0293 -7547.9416 299.0437 -9303.9709 -7452.4462 301.0182 -551.1137 -451.1194 30795.2452 -115.5373 -56.0907
TCL: Running FEP window  17: Lambda1 0.8000000000000002 Lambda2 0.8500000000000002 [dLambda 0.050000000000000044]
TCL: Setting parameter firsttimestep to 0
TCL: Setting parameter alchLambda to 0.8000000000000002
Info: NONBONDED TABLE R-SQUARED SPACING: 0.0625
Info: NONBONDED TABLE SIZE: 705 POINTS
TCL: Setting parameter alchLambda2 to 0.8500000000000002
Info: NONBONDED TABLE R-SQUARED SPACING: 0.0625
Info: NONBONDED TABLE SIZE: 705 POINTS
TCL: Running for 1500000 steps
ETITLE: TS BOND ANGLE DIHED IMPRP ELECT VDW BOUNDARY MISC KINETIC TOTAL TEMP POTENTIAL TOTALAVG TEMPAVG PRESSURE GPRESSURE VOLUME PRESSAVG GPRESSAVG
ENERGY: 0 3.6168 4.9853 3.3413 0.0000 -10748.9967 1432.5469 0.0000 0.0000 1755.1871 -7549.3193 298.9003 -9304.5064 -7549.3193 298.9003 -525.4219 -431.4553 30795.2452 -525.4219 -431.4553
ENERGY: 300000 4.6942 3.0466 2.2585 0.0000 -10622.2545 1378.6926 0.0000 0.0000 1813.9289 -7419.6337 308.9037 -9233.5626 -7469.3467 304.8167 -319.4406 -247.4523 30114.0347 -175.2127 -99.6903
ENERGY: 600000 2.8392 1.7304 3.5546 0.0000 -10641.6734 1334.9337 0.0000 0.0000 1777.4427 -7521.1727 302.6903 -9298.6154 -7465.3540 304.5998 -789.9942 -707.6968 29965.3980 -197.5739 -128.1281
ENERGY: 900000 4.0036 2.5197 3.2672 0.0000 -10731.5824 1459.1488 0.0000 0.0000 1748.2737 -7514.3695 297.7230 -9262.6431 -7469.2357 303.2981 0.0481 52.0681 30563.0819 -148.8025 -85.7266
ENERGY: 1200000 3.2200 2.4586 6.8258 0.0000 -10705.1665 1437.5400 0.0000 0.0000 1704.5255 -7550.5966 290.2729 -9255.1221 -7471.4274 301.6960 -485.8650 -410.7525 30894.7048 -153.1595 -89.1067
ENERGY: 1500000 1.4529 3.1733 4.8033 0.0000 -10658.2002 1366.1820 0.0000 0.0000 1770.9198 -7511.6689 301.5795 -9282.5887 -7469.1894 302.0877 -766.3926 -670.0382 30322.3582 -192.3962 -123.1642
TCL: Running FEP window  18: Lambda1 0.8500000000000002 Lambda2 0.9000000000000002 [dLambda 0.050000000000000044]
TCL: Setting parameter firsttimestep to 0
TCL: Setting parameter alchLambda to 0.8500000000000002
Info: NONBONDED TABLE R-SQUARED SPACING: 0.0625
Info: NONBONDED TABLE SIZE: 705 POINTS
TCL: Setting parameter alchLambda2 to 0.9000000000000002
Info: NONBONDED TABLE R-SQUARED SPACING: 0.0625
Info: NONBONDED TABLE SIZE: 705 POINTS
TCL: Running for 1500000 steps
ETITLE: TS BOND ANGLE DIHED IMPRP ELECT VDW BOUNDARY MISC KINETIC TOTAL TEMP POTENTIAL TOTALAVG TEMPAVG PRESSURE GPRESSURE VOLUME PRESSAVG GPRESSAVG
ENERGY: 0 1.4529 3.1733 4.8033 0.0000 -10659.6364 1367.1063 0.0000 0.0000 1770.0624 -7513.0382 301.4335 -9283.1006 -7513.0382 301.4335 -747.8352 -654.6415 30322.3582 -747.8352 -654.6415
ENERGY: 300000 4.5237 3.9888 3.2378 0.0000 -10610.3065 1398.3026 0.0000 0.0000 1747.1357 -7453.1180 297.5292 -9200.2537 -7458.0121 302.3758 -222.6650 -111.7319 30458.2033 -202.1009 -120.8296
ENERGY: 600000 4.1817 3.1070 3.2025 0.0000 -10584.0850 1367.3876 0.0000 0.0000 1799.8311 -7406.3751 306.5030 -9206.2062 -7459.0350 301.8453 -422.2858 -329.5128 30290.7378 -212.6571 -135.3908
ENERGY: 900000 1.0824 3.4812 3.6773 0.0000 -10717.8599 1510.8335 0.0000 0.0000 1774.2165 -7424.5690 302.1409 -9198.7855 -7470.1216 300.8114 825.4211 912.0371 30190.4724 -208.4204 -137.4458
ENERGY: 1200000 2.9141 2.3478 2.4643 0.0000 -10807.8058 1498.1884 0.0000 0.0000 1757.3045 -7544.5867 299.2609 -9301.8912 -7472.7733 302.3403 688.4799 736.7713 29912.0169 -199.4325 -133.5345
ENERGY: 1500000 1.3307 2.6775 4.1196 0.0000 -10587.2050 1342.7852 0.0000 0.0000 1830.4806 -7405.8114 311.7224 -9236.2920 -7472.1818 301.7815 -781.5701 -792.9093 30809.2256 -226.3537 -169.0751
TCL: Running FEP window  19: Lambda1 0.9000000000000002 Lambda2 0.9500000000000003 [dLambda 0.050000000000000044]
TCL: Setting parameter firsttimestep to 0
TCL: Setting parameter alchLambda to 0.9000000000000002
Info: NONBONDED TABLE R-SQUARED SPACING: 0.0625
Info: NONBONDED TABLE SIZE: 705 POINTS
TCL: Setting parameter alchLambda2 to 0.9500000000000003
Info: NONBONDED TABLE R-SQUARED SPACING: 0.0625
Info: NONBONDED TABLE SIZE: 705 POINTS
TCL: Running for 1500000 steps
ETITLE: TS BOND ANGLE DIHED IMPRP ELECT VDW BOUNDARY MISC KINETIC TOTAL TEMP POTENTIAL TOTALAVG TEMPAVG PRESSURE GPRESSURE VOLUME PRESSAVG GPRESSAVG
ENERGY: 0 1.3307 2.6775 4.1196 0.0000 -10588.4385 1342.4560 0.0000 0.0000 1829.6187 -7408.2360 311.5756 -9237.8547 -7408.2360 311.5756 -851.9140 -787.9681 30809.2256 -851.9140 -787.9681
ENERGY: 300000 1.8240 1.5272 2.2506 0.0000 -10637.8853 1357.8244 0.0000 0.0000 1729.8303 -7544.6287 294.5821 -9274.4590 -7484.8051 299.0982 -723.7306 -742.4382 30373.2888 -679.7892 -617.8417
ENERGY: 600000 5.4301 2.7078 3.6993 0.0000 -10555.8920 1387.0078 0.0000 0.0000 1740.9702 -7416.0767 296.4792 -9157.0469 -7481.2829 298.2924 -267.0768 -180.7360 30870.2256 -446.6892 -376.9698
ENERGY: 900000 4.9256 3.3088 3.2417 0.0000 -10649.8670 1446.5331 0.0000 0.0000 1736.3107 -7455.5470 295.6857 -9191.8577 -7487.7460 297.9460 -99.9562 14.3146 30459.2817 -493.0644 -419.7415
ENERGY: 1200000 3.8957 2.7057 2.2085 0.0000 -10626.1514 1400.7118 0.0000 0.0000 1790.8179 -7425.8118 304.9680 -9216.6297 -7475.1731 299.9546 -373.4611 -390.5053 30574.4577 -420.3186 -359.4640
ENERGY: 1500000 4.3274 3.0865 4.0398 0.0000 -10624.7618 1402.5049 0.0000 0.0000 1779.1647 -7431.6385 302.9835 -9210.8031 -7474.9357 299.6568 -216.9647 -137.0494 30440.7588 -479.1401 -414.4708
TCL: Running FEP window  20: Lambda1 0.9500000000000003 Lambda2 1.0    [dLambda 0.04999999999999971]
TCL: Setting parameter firsttimestep to 0
TCL: Setting parameter alchLambda to 0.9500000000000003
Info: NONBONDED TABLE R-SQUARED SPACING: 0.0625
Info: NONBONDED TABLE SIZE: 705 POINTS
TCL: Setting parameter alchLambda2 to 1.0
Info: NONBONDED TABLE R-SQUARED SPACING: 0.0625
Info: NONBONDED TABLE SIZE: 705 POINTS
TCL: Running for 1500000 steps
ETITLE: TS BOND ANGLE DIHED IMPRP ELECT VDW BOUNDARY MISC KINETIC TOTAL TEMP POTENTIAL TOTALAVG TEMPAVG PRESSURE GPRESSURE VOLUME PRESSAVG GPRESSAVG
ENERGY: 0 4.3274 3.0865 4.0398 0.0000 -10626.1814 1403.6779 0.0000 0.0000 1778.2885 -7432.7613 302.8343 -9211.0498 -7432.7613 302.8343 -206.9131 -115.5011 30440.7588 -206.9131 -115.5011
ENERGY: 300000 2.5452 3.3716 4.8889 0.0000 -10691.9052 1369.0135 0.0000 0.0000 1792.3522 -7519.7337 305.2293 -9312.0859 -7467.2823 303.3076 -447.0153 -401.5404 29960.9530 40.9860 104.7187
ENERGY: 600000 2.6994 3.6507 4.0369 0.0000 -10679.2426 1442.3581 0.0000 0.0000 1712.4408 -7514.0567 291.6208 -9226.4975 -7471.1880 300.2539 -149.3194 -74.7144 30912.8817 83.6014 155.8375
ENERGY: 900000 1.8478 4.0811 2.4916 0.0000 -10583.8493 1354.1330 0.0000 0.0000 1831.6677 -7389.6280 311.9246 -9221.2958 -7454.5052 301.7886 -460.6704 -341.9301 30412.0302 10.8568 78.5722
ENERGY: 1200000 1.0101 4.6588 2.0495 0.0000 -10773.0330 1440.6193 0.0000 0.0000 1755.3647 -7569.3306 298.9305 -9324.6953 -7462.9132 301.7669 57.7384 73.6906 29929.7784 -24.6058 36.3994
ENERGY: 1500000 2.3480 2.6410 4.8485 0.0000 -10645.1949 1442.9255 0.0000 0.0000 1789.6058 -7402.8260 304.7616 -9192.4318 -7455.5556 301.5838 363.6571 446.0667 30082.7701 -30.9334 35.0672
TCL: Exiting due to exit command.
