Info: SIMULATION PARAMETERS:
Info: TIMESTEP               2
Info: NUMBER OF STEPS        0
Info: STEPS PER CYCLE        10
Info: PERIODIC CELL BASIS 1  30.3982 0 0
Info: PERIODIC CELL BASIS 2  0 29.6802 0
Info: PERIODIC CELL BASIS 3  0 0 33.5671
Info: PERIODIC CELL CENTER   0 0 0
Info: WRAPPING WATERS AROUND PERIODIC BOUNDARIES ON OUTPUT.
Info: WRAPPING ALL CLUSTERS AROUND PERIODIC BOUNDARIES ON OUTPUT.
Info: FIRST LDB TIMESTEP     50
Info: LAST LDB TIMESTEP     -1
Info: HOM BACKGROUND SCALING 1
Info: PME BACKGROUND SCALING 1
Info: MIN ATOMS PER PATCH    40
Info: EMPTY PATCH LOAD       40 ATOMS
Info: VELOCITY FILE          mobley_6430250_equil.vel
Info: CENTER OF MASS MOVING INITIALLY? NO
Info: DIELECTRIC             1
Info: EXCLUDE                SCALED ONE-FOUR
Info: 1-4 ELECTROSTATICS SCALED BY 0.833333
Info: MODIFIED 1-4 VDW PARAMETERS WILL BE USED
Info: DCD FILENAME           mobley_6430250_prod.dcd
Info: DCD FREQUENCY          100000
Info: DCD FIRST STEP         100000
Info: DCD FILE WILL CONTAIN UNIT CELL DATA
Info: XST FILENAME           mobley_6430250_prod.xst
Info: XST FREQUENCY          100000
Info: NO VELOCITY DCD OUTPUT
Info: NO FORCE DCD OUTPUT
Info: OUTPUT FILENAME        mobley_6430250_prod
Info: BINARY OUTPUT FILES WILL BE USED
Info: RESTART FILENAME       mobley_6430250_prod.restart
Info: RESTART FREQUENCY      100000
Info: BINARY RESTART FILES WILL BE USED
Info: CUTOFF                 9
Info: PAIRLIST DISTANCE      11
Info: PAIRLIST SHRINK RATE   0.01
Info: PAIRLIST GROW RATE     0.01
Info: PAIRLIST TRIGGER       0.3
Info: PAIRLISTS PER CYCLE    2
Info: PAIRLISTS ENABLED
Info: MARGIN                 2
Info: HYDROGEN GROUP CUTOFF  2.5
Info: PATCH DIMENSION        15.5
Info: ENERGY OUTPUT STEPS    100000
Info: ENERGY EVALUATION STEPS    100000
Info: OUTPUT ENERGY PRECISION 4
Info: CROSSTERM ENERGY INCLUDED IN DIHEDRAL
Info: TIMING OUTPUT STEPS    1000000
Info: PRESSURE OUTPUT STEPS  100000
Info: ALCHEMICAL FEP ON
Info: FEP CURRENT LAMBDA VALUE     0
Info: FEP COMPARISON LAMBDA VALUE  0.05
Info: FEP INTRA-ALCHEMICAL NON-BONDED INTERACTIONS WILL BE RETAINED
Info: FEP INTRA-ALCHEMICAL BONDED INTERACTIONS WILL BE RETAINED
Info: FEP VDW SHIFTING COEFFICIENT 5
Info: FEP ELEC. ACTIVE FOR ANNIHILATED PARTICLES BETWEEN LAMBDA = 0 AND LAMBDA = 0.5
Info: FEP ELEC. ACTIVE FOR EXNIHILATED PARTICLES BETWEEN LAMBDA = 0.5 AND LAMBDA = 1
Info: FEP VDW ACTIVE FOR ANNIHILATED PARTICLES BETWEEN LAMBDA = 0 AND LAMBDA = 1
Info: FEP VDW ACTIVE FOR EXNIHILATED PARTICLES BETWEEN LAMBDA = 0 AND LAMBDA = 1
Info: FEP BOND ACTIVE FOR ANNIHILATED PARTICLES BETWEEN LAMBDA = 1 AND LAMBDA = 1
Info: FEP BOND ACTIVE FOR EXNIHILATED PARTICLES BETWEEN LAMBDA = 0 AND LAMBDA = 0
Info: LANGEVIN DYNAMICS ACTIVE
Info: LANGEVIN TEMPERATURE   300
Info: LANGEVIN USING BBK INTEGRATOR
Info: LANGEVIN DAMPING COEFFICIENT IS 1 INVERSE PS
Info: LANGEVIN DYNAMICS APPLIED TO HYDROGENS
Info: LANGEVIN PISTON PRESSURE CONTROL ACTIVE
Info:        TARGET PRESSURE IS 1.01325 BAR
Info:     OSCILLATION PERIOD IS 50 FS
Info:             DECAY TIME IS 25 FS
Info:     PISTON TEMPERATURE IS 300 K
Info:       PRESSURE CONTROL IS GROUP-BASED
Info:    INITIAL STRAIN RATE IS 0.000460325 0.000460325 0.000460325
Info:       CELL FLUCTUATION IS ISOTROPIC
Info: PARTICLE MESH EWALD (PME) ACTIVE
Info: PME TOLERANCE               1e-06
Info: PME EWALD COEFFICIENT       0.348832
Info: PME INTERPOLATION ORDER     4
Info: PME GRID DIMENSIONS         32 32 36
Info: PME MAXIMUM GRID SPACING    1
Info: PME CALCULATION WILL BE PERFORMED ON GPU
Info: FULL ELECTROSTATIC EVALUATION FREQUENCY      2
Info: USING VERLET I (r-RESPA) MTS SCHEME.
Info: C1 SPLITTING OF LONG RANGE ELECTROSTATICS
Info: PLACING ATOMS IN PATCHES BY HYDROGEN GROUPS
Info: RIGID BONDS TO HYDROGEN : ALL
Info:         ERROR TOLERANCE : 1e-08
Info:          MAX ITERATIONS : 100
Info: RIGID WATER USING SETTLE ALGORITHM
Info: RANDOM NUMBER SEED     1743876215
Info: USE HYDROGEN BONDS?    NO
Info: Using AMBER format force field!
Info: AMBER PARM FILE        mobley_6430250.prmtop
Info: COORDINATE PDB         mobley_6430250.pdb
Info: Exclusions will be read from PARM file!
Info: SCNB (VDW SCALING)     2
Info: USING ARITHMETIC MEAN TO COMBINE L-J SIGMA PARAMETERS
Info: BINARY COORDINATES     mobley_6430250_equil.coor
Info: SUMMARY OF PARAMETERS:
Info: 7 BONDS
Info: 8 ANGLES
Info:   8 HARMONIC
Info:   0 COSINE-BASED
Info: 6 DIHEDRAL
Info: 0 IMPROPER
Info: 0 CROSSTERM
Info: 0 VDW
Info: 21 VDW_PAIRS
Info: 0 NBTHOLE_PAIRS
Info: To read alchdata from file: mobley_6430250.pdb
Info: To read alchflag data from column: 5
Info: STRUCTURE SUMMARY:
Info: 2940 ATOMS
Info: 2940 BONDS
Info: 36 ANGLES
Info: 54 DIHEDRALS
Info: 0 IMPROPERS
Info: 0 CROSSTERMS
Info: 3021 EXCLUSIONS
Info: 2931 RIGID BONDS
Info: ALCH: 0 ATOMS TO DISAPPEAR IN FINAL STATE
Info: ALCH: 21 ATOMS TO APPEAR IN FINAL STATE
Info: 5889 DEGREES OF FREEDOM
Info: 982 HYDROGEN GROUPS
Info: 4 ATOMS IN LARGEST HYDROGEN GROUP
Info: 982 MIGRATION GROUPS
Info: 4 ATOMS IN LARGEST MIGRATION GROUP
Info: TOTAL MASS = 17649.8 amu
Info: TOTAL CHARGE = -0.000200003 e
Info: MASS DENSITY = 0.967763 g/cm^3
Info: ATOM DENSITY = 0.0970775 atoms/A^3
Info: ADDED 0 IMPLICIT EXCLUSIONS
Info: NONBONDED TABLE R-SQUARED SPACING: 0.0625
Info: NONBONDED TABLE SIZE: 705 POINTS
Info: REMOVING COM VELOCITY 0.0892048 0.112144 0.314022
Info: Use 3D box decompostion in PME FFT.
Info: Updated CUDA force table with 4096 elements.
Info: Updated CUDA LJ table with 6 x 6 elements.
Info: Found 20 unique exclusion lists needing 60 bytes
TCL: Running for 1500000 steps
ETITLE: TS BOND ANGLE DIHED IMPRP ELECT VDW BOUNDARY MISC KINETIC TOTAL TEMP POTENTIAL TOTALAVG TEMPAVG PRESSURE GPRESSURE VOLUME PRESSAVG GPRESSAVG
ENERGY: 0 1.0426 7.5372 1.4923 0.0000 -10577.7068 1421.6023 0.0000 0.0000 1762.7700 -7383.2624 301.2621 -9146.0324 -7383.2624 301.2621 -56.7545 23.5419 30285.0796 -56.7545 23.5419
ENERGY: 300000 5.5219 8.1942 3.2488 0.0000 -10612.2847 1484.9515 0.0000 0.0000 1786.8538 -7323.5144 305.3781 -9110.3682 -7356.1980 302.0765 537.0985 578.1838 30285.8662 54.7353 107.7183
ENERGY: 600000 5.2426 5.4969 2.6082 0.0000 -10605.3229 1414.9356 0.0000 0.0000 1759.7837 -7417.2559 300.7517 -9177.0396 -7392.3775 301.8972 -311.2226 -198.2100 29870.9781 -15.1015 53.4779
ENERGY: 900000 2.4358 8.7688 4.5429 0.0000 -10709.0258 1458.2007 0.0000 0.0000 1762.2107 -7472.8670 301.1665 -9235.0776 -7396.9308 302.3277 51.3236 92.4361 29951.7124 -5.2307 61.2603
ENERGY: 1200000 5.3279 9.7850 6.1205 0.0000 -10543.5499 1421.1921 0.0000 0.0000 1732.0909 -7369.0336 296.0189 -9101.1245 -7394.8470 301.2917 -154.3367 -38.2866 30414.1893 -36.9991 25.7140
ENERGY: 1500000 3.0705 8.4053 1.2744 0.0000 -10754.4901 1471.4212 0.0000 0.0000 1698.7988 -7571.5198 290.3292 -9270.3186 -7413.6102 299.8094 -20.5606 75.0799 30190.2903 20.6854 81.5375
TCL: Running FEP window   2: Lambda1 0.05   Lambda2 0.1    [dLambda 0.05  ]
TCL: Setting parameter firsttimestep to 0
TCL: Setting parameter alchLambda to 0.05
Info: NONBONDED TABLE R-SQUARED SPACING: 0.0625
Info: NONBONDED TABLE SIZE: 705 POINTS
TCL: Setting parameter alchLambda2 to 0.1
Info: NONBONDED TABLE R-SQUARED SPACING: 0.0625
Info: NONBONDED TABLE SIZE: 705 POINTS
TCL: Running for 1500000 steps
ETITLE: TS BOND ANGLE DIHED IMPRP ELECT VDW BOUNDARY MISC KINETIC TOTAL TEMP POTENTIAL TOTALAVG TEMPAVG PRESSURE GPRESSURE VOLUME PRESSAVG GPRESSAVG
ENERGY: 0 3.0705 8.4053 1.2744 0.0000 -10754.4903 1475.0431 0.0000 0.0000 1697.9369 -7568.7600 290.1819 -9266.6969 -7568.7600 290.1819 10.2197 83.2309 30190.2903 10.2197 83.2309
ENERGY: 300000 3.7008 6.1314 4.4809 0.0000 -10633.2506 1423.6040 0.0000 0.0000 1794.2752 -7401.0583 306.6464 -9195.3335 -7472.3645 296.9774 15.2307 82.1679 30029.4620 -191.6258 -156.8621
ENERGY: 600000 2.6181 11.2100 2.1897 0.0000 -10645.3547 1467.3667 0.0000 0.0000 1743.3471 -7418.6230 297.9427 -9161.9701 -7448.6815 297.9738 185.9453 285.5799 30049.2445 -113.8174 -57.8897
ENERGY: 900000 3.4533 7.9844 1.9993 0.0000 -10652.6444 1380.4225 0.0000 0.0000 1766.8538 -7491.9311 301.9600 -9258.7850 -7452.6190 299.6006 -852.4302 -736.4231 30259.8223 -176.5210 -112.0580
ENERGY: 1200000 2.6871 5.0483 1.6249 0.0000 -10639.3152 1443.1397 0.0000 0.0000 1773.2927 -7413.5225 303.0605 -9186.8152 -7440.2077 300.3437 299.5850 324.5471 29707.2320 -83.9137 -22.8223
ENERGY: 1500000 1.9025 9.8052 2.2369 0.0000 -10710.8984 1451.2387 0.0000 0.0000 1809.7885 -7435.9266 309.2977 -9245.7150 -7435.5535 300.6228 -122.4823 -63.0495 30059.2969 -58.7048 4.1203
TCL: Running FEP window   3: Lambda1 0.1    Lambda2 0.15000000000000002 [dLambda 0.05000000000000002]
TCL: Setting parameter firsttimestep to 0
TCL: Setting parameter alchLambda to 0.1
Info: NONBONDED TABLE R-SQUARED SPACING: 0.0625
Info: NONBONDED TABLE SIZE: 705 POINTS
TCL: Setting parameter alchLambda2 to 0.15000000000000002
Info: NONBONDED TABLE R-SQUARED SPACING: 0.0625
Info: NONBONDED TABLE SIZE: 705 POINTS
TCL: Running for 1500000 steps
ETITLE: TS BOND ANGLE DIHED IMPRP ELECT VDW BOUNDARY MISC KINETIC TOTAL TEMP POTENTIAL TOTALAVG TEMPAVG PRESSURE GPRESSURE VOLUME PRESSAVG GPRESSAVG
ENERGY: 0 1.9025 9.8052 2.2369 0.0000 -10710.8976 1453.3308 0.0000 0.0000 1808.8894 -7434.7328 309.1440 -9243.6221 -7434.7328 309.1440 -137.4299 -54.9756 30059.2969 -137.4299 -54.9756
ENERGY: 300000 2.0505 7.3475 3.0676 0.0000 -10536.2611 1378.4760 0.0000 0.0000 1766.7854 -7378.5341 301.9483 -9145.3195 -7411.6346 303.2438 -192.7666 -51.3520 29510.7088 -116.4208 4.6596
ENERGY: 600000 4.5858 8.9834 2.1481 0.0000 -10608.3364 1386.0935 0.0000 0.0000 1765.5606 -7440.9651 301.7390 -9206.5257 -7424.2202 301.0927 -434.2596 -354.8098 29885.8209 -109.7168 -13.4539
ENERGY: 900000 2.5056 7.3997 2.2490 0.0000 -10746.7196 1545.8034 0.0000 0.0000 1752.5633 -7436.1986 299.5177 -9188.7619 -7431.2468 301.0824 968.6858 979.0257 30281.4059 15.7498 100.9720
ENERGY: 1200000 4.4717 7.5933 4.3963 0.0000 -10578.4789 1387.8900 0.0000 0.0000 1751.4871 -7422.6405 299.3338 -9174.1276 -7438.9130 299.9558 -547.2479 -436.2193 30004.6878 -67.0053 8.2595
ENERGY: 1500000 3.4097 5.2337 2.6600 0.0000 -10622.2414 1452.3576 0.0000 0.0000 1748.9161 -7409.6644 298.8944 -9158.5805 -7432.4866 300.2344 109.4952 135.5142 30278.0613 -56.0421 14.0062
TCL: Running FEP window   4: Lambda1 0.15000000000000002 Lambda2 0.2    [dLambda 0.04999999999999999]
TCL: Setting parameter firsttimestep to 0
TCL: Setting parameter alchLambda to 0.15000000000000002
Info: NONBONDED TABLE R-SQUARED SPACING: 0.0625
Info: NONBONDED TABLE SIZE: 705 POINTS
TCL: Setting parameter alchLambda2 to 0.2
Info: NONBONDED TABLE R-SQUARED SPACING: 0.0625
Info: NONBONDED TABLE SIZE: 705 POINTS
TCL: Running for 1500000 steps
ETITLE: TS BOND ANGLE DIHED IMPRP ELECT VDW BOUNDARY MISC KINETIC TOTAL TEMP POTENTIAL TOTALAVG TEMPAVG PRESSURE GPRESSURE VOLUME PRESSAVG GPRESSAVG
ENERGY: 0 3.4097 5.2337 2.6600 0.0000 -10622.2410 1453.5800 0.0000 0.0000 1748.0643 -7409.2933 298.7489 -9157.3576 -7409.2933 298.7489 65.6903 145.1720 30278.0613 65.6903 145.1720
ENERGY: 300000 4.1100 6.0323 3.5139 0.0000 -10716.0888 1499.7814 0.0000 0.0000 1829.1263 -7373.5250 312.6026 -9202.6512 -7380.0834 302.1070 628.7560 624.3936 29826.1547 242.9802 284.1162
ENERGY: 600000 0.8370 4.6655 2.9244 0.0000 -10654.1751 1475.1070 0.0000 0.0000 1737.3412 -7433.3000 296.9162 -9170.6412 -7385.3825 300.3060 365.8907 420.8704 30123.3487 183.1310 229.1302
ENERGY: 900000 3.3406 7.4760 5.3846 0.0000 -10589.5238 1372.1326 0.0000 0.0000 1794.7635 -7406.4265 306.7299 -9201.1899 -7392.7473 300.6423 -379.9353 -379.3293 29903.7175 40.3171 88.2423
ENERGY: 1200000 6.1136 8.7716 3.4096 0.0000 -10779.6351 1493.9115 0.0000 0.0000 1707.2123 -7560.2165 291.7671 -9267.4288 -7409.9842 300.3445 297.8537 290.0008 29623.2039 29.3620 73.5977
ENERGY: 1500000 1.7016 7.1533 2.6496 0.0000 -10518.5136 1377.8760 0.0000 0.0000 1758.3404 -7370.7927 300.5051 -9129.1331 -7400.3193 301.0785 -610.0839 -592.1412 30704.8528 7.3994 50.2987
TCL: Running FEP window   5: Lambda1 0.2    Lambda2 0.25   [dLambda 0.04999999999999999]
TCL: Setting parameter firsttimestep to 0
TCL: Setting parameter alchLambda to 0.2
Info: NONBONDED TABLE R-SQUARED SPACING: 0.0625
Info: NONBONDED TABLE SIZE: 705 POINTS
TCL: Setting parameter alchLambda2 to 0.25
Info: NONBONDED TABLE R-SQUARED SPACING: 0.0625
Info: NONBONDED TABLE SIZE: 705 POINTS
TCL: Running for 1500000 steps
ETITLE: TS BOND ANGLE DIHED IMPRP ELECT VDW BOUNDARY MISC KINETIC TOTAL TEMP POTENTIAL TOTALAVG TEMPAVG PRESSURE GPRESSURE VOLUME PRESSAVG GPRESSAVG
ENERGY: 0 1.7016 7.1533 2.6496 0.0000 -10518.5149 1378.2276 0.0000 0.0000 1757.4986 -7371.2842 300.3612 -9128.7828 -7371.2842 300.3612 -662.0272 -587.1240 30704.8528 -662.0272 -587.1240
ENERGY: 300000 1.4187 7.8252 2.7771 0.0000 -10639.7745 1422.9822 0.0000 0.0000 1804.9383 -7399.8330 308.4688 -9204.7713 -7395.5990 303.1473 -126.2360 32.9928 30397.7603 -436.9932 -368.1784
ENERGY: 600000 2.4817 5.8595 4.5080 0.0000 -10572.9558 1443.4583 0.0000 0.0000 1734.6734 -7381.9749 296.4603 -9116.6483 -7382.9912 304.2024 -98.3976 -45.1137 30585.9209 -380.6286 -304.2291
ENERGY: 900000 1.8144 7.1144 1.0269 0.0000 -10666.2461 1486.1393 0.0000 0.0000 1757.8525 -7412.2985 300.4217 -9170.1510 -7391.6726 303.1698 624.8543 662.3366 29871.5819 -241.8218 -169.1623
ENERGY: 1200000 5.3153 9.1440 1.7726 0.0000 -10720.7050 1474.7739 0.0000 0.0000 1747.3068 -7482.3925 298.6194 -9229.6993 -7403.0943 302.6469 211.0276 393.9251 29855.0560 -121.1139 -42.5223
ENERGY: 1500000 4.1680 4.3228 3.3314 0.0000 -10715.9401 1521.1582 0.0000 0.0000 1765.5285 -7417.4313 301.7335 -9182.9597 -7406.7300 301.7499 942.4633 945.7711 29567.7480 -64.7710 5.1649
TCL: Running FEP window   6: Lambda1 0.25   Lambda2 0.3    [dLambda 0.04999999999999999]
TCL: Setting parameter firsttimestep to 0
TCL: Setting parameter alchLambda to 0.25
Info: NONBONDED TABLE R-SQUARED SPACING: 0.0625
Info: NONBONDED TABLE SIZE: 705 POINTS
TCL: Setting parameter alchLambda2 to 0.3
Info: NONBONDED TABLE R-SQUARED SPACING: 0.0625
Info: NONBONDED TABLE SIZE: 705 POINTS
TCL: Running for 1500000 steps
ETITLE: TS BOND ANGLE DIHED IMPRP ELECT VDW BOUNDARY MISC KINETIC TOTAL TEMP POTENTIAL TOTALAVG TEMPAVG PRESSURE GPRESSURE VOLUME PRESSAVG GPRESSAVG
ENERGY: 0 4.1680 4.3228 3.3314 0.0000 -10715.9408 1521.8145 0.0000 0.0000 1764.6727 -7417.6315 301.5873 -9182.3041 -7417.6315 301.5873 881.8111 955.2950 29567.7480 881.8111 955.2950
ENERGY: 300000 2.7718 9.0045 1.4962 0.0000 -10630.6377 1456.9760 0.0000 0.0000 1817.5270 -7342.8622 310.6202 -9160.3892 -7408.3061 303.9137 466.3232 442.4062 30014.5048 192.3918 229.0188
ENERGY: 600000 5.0232 8.3401 3.0609 0.0000 -10742.3296 1485.2082 0.0000 0.0000 1784.5119 -7456.1853 304.9778 -9240.6971 -7423.0476 301.8677 155.8385 240.3140 29818.9405 217.7277 249.4671
ENERGY: 900000 2.8286 12.0897 3.5877 0.0000 -10435.0022 1351.7009 0.0000 0.0000 1779.4692 -7285.3263 304.1160 -9064.7955 -7407.5726 301.3975 -148.0760 -148.4506 29747.4457 118.8915 159.9864
ENERGY: 1200000 4.2483 7.7800 3.3164 0.0000 -10652.6804 1424.8543 0.0000 0.0000 1757.1062 -7455.3751 300.2941 -9212.4814 -7405.3804 301.5833 84.0059 159.0658 29835.5933 63.4457 112.6173
ENERGY: 1500000 2.6372 6.6369 3.1060 0.0000 -10707.6799 1496.6240 0.0000 0.0000 1733.4245 -7465.2513 296.2469 -9198.6758 -7415.7348 300.3921 391.0505 433.5154 30320.8966 159.9056 211.1070
TCL: Running FEP window   7: Lambda1 0.3    Lambda2 0.35   [dLambda 0.04999999999999999]
TCL: Setting parameter firsttimestep to 0
TCL: Setting parameter alchLambda to 0.3
Info: NONBONDED TABLE R-SQUARED SPACING: 0.0625
Info: NONBONDED TABLE SIZE: 705 POINTS
TCL: Setting parameter alchLambda2 to 0.35
Info: NONBONDED TABLE R-SQUARED SPACING: 0.0625
Info: NONBONDED TABLE SIZE: 705 POINTS
TCL: Running for 1500000 steps
ETITLE: TS BOND ANGLE DIHED IMPRP ELECT VDW BOUNDARY MISC KINETIC TOTAL TEMP POTENTIAL TOTALAVG TEMPAVG PRESSURE GPRESSURE VOLUME PRESSAVG GPRESSAVG
ENERGY: 0 2.6372 6.6369 3.1060 0.0000 -10707.6805 1496.6640 0.0000 0.0000 1732.5535 -7466.0829 296.0980 -9198.6364 -7466.0829 296.0980 373.8776 439.6046 30320.8966 373.8776 439.6046
ENERGY: 300000 4.2137 9.2000 5.0359 0.0000 -10593.4848 1409.9716 0.0000 0.0000 1753.9696 -7411.0940 299.7581 -9165.0636 -7413.7026 302.7191 -332.7869 -312.9657 30449.1183 -79.4996 -29.8127
ENERGY: 600000 3.1405 4.3377 2.7834 0.0000 -10616.1377 1438.3585 0.0000 0.0000 1767.4582 -7400.0594 302.0633 -9167.5176 -7431.7537 302.1546 -204.0089 -103.1150 30616.4515 -59.3026 -0.0625
ENERGY: 900000 3.2869 10.6186 4.1798 0.0000 -10686.6623 1472.8714 0.0000 0.0000 1724.9349 -7470.7707 294.7960 -9195.7056 -7443.4076 300.2123 355.3220 402.6622 29774.6859 -80.4851 -28.5964
ENERGY: 1200000 5.7497 6.1776 2.6291 0.0000 -10679.5495 1479.8087 0.0000 0.0000 1778.5653 -7406.6191 303.9616 -9185.1844 -7434.3641 300.7970 -45.3420 -1.2831 30463.2925 -156.7368 -109.0100
ENERGY: 1500000 2.7369 7.4475 3.8945 0.0000 -10644.7621 1469.9391 0.0000 0.0000 1716.6566 -7444.0874 293.3812 -9160.7440 -7439.6321 300.0889 342.1803 384.5756 30219.5378 -124.7353 -77.2758
TCL: Running FEP window   8: Lambda1 0.35   Lambda2 0.39999999999999997 [dLambda 0.04999999999999999]
TCL: Setting parameter firsttimestep to 0
TCL: Setting parameter alchLambda to 0.35
Info: NONBONDED TABLE R-SQUARED SPACING: 0.0625
Info: NONBONDED TABLE SIZE: 705 POINTS
TCL: Setting parameter alchLambda2 to 0.39999999999999997
Info: NONBONDED TABLE R-SQUARED SPACING: 0.0625
Info: NONBONDED TABLE SIZE: 705 POINTS
TCL: Running for 1500000 steps
ETITLE: TS BOND ANGLE DIHED IMPRP ELECT VDW BOUNDARY MISC KINETIC TOTAL TEMP POTENTIAL TOTALAVG TEMPAVG PRESSURE GPRESSURE VOLUME PRESSAVG GPRESSAVG
ENERGY: 0 2.7369 7.4475 3.8945 0.0000 -10644.7623 1469.6747 0.0000 0.0000 1715.7946 -7445.2140 293.2339 -9161.0086 -7445.2140 293.2339 317.2900 389.4578 30219.5378 317.2900 389.4578
ENERGY: 300000 3.0505 4.0288 2.5899 0.0000 -10697.9663 1498.8094 0.0000 0.0000 1772.3368 -7417.1510 302.8971 -9189.4878 -7421.7531 298.8703 434.3855 532.5646 30065.7513 142.2324 219.4208
ENERGY: 600000 3.6113 4.5466 5.0516 0.0000 -10672.0027 1445.8980 0.0000 0.0000 1743.6066 -7469.2885 297.9870 -9212.8951 -7424.4271 300.6779 -109.9430 -74.7549 30292.1705 101.5931 165.7625
ENERGY: 900000 2.6955 11.4723 1.8350 0.0000 -10654.2660 1461.6299 0.0000 0.0000 1753.8929 -7422.7404 299.7450 -9176.6333 -7428.8118 300.2432 221.2059 328.2677 29980.2231 179.1683 243.3797
ENERGY: 1200000 2.3568 6.8005 4.1149 0.0000 -10674.0211 1503.0385 0.0000 0.0000 1746.6461 -7411.0642 298.5065 -9157.7103 -7436.0700 299.0840 633.1314 704.6523 30003.5801 224.3721 289.5172
ENERGY: 1500000 2.9354 7.2398 2.4804 0.0000 -10677.4566 1483.9550 0.0000 0.0000 1777.0601 -7403.7860 303.7043 -9180.8461 -7426.6268 299.5675 547.5306 721.5259 29546.0839 193.6517 257.9985
TCL: Running FEP window   9: Lambda1 0.39999999999999997 Lambda2 0.44999999999999996 [dLambda 0.04999999999999999]
TCL: Setting parameter firsttimestep to 0
TCL: Setting parameter alchLambda to 0.39999999999999997
Info: NONBONDED TABLE R-SQUARED SPACING: 0.0625
Info: NONBONDED TABLE SIZE: 705 POINTS
TCL: Setting parameter alchLambda2 to 0.44999999999999996
Info: NONBONDED TABLE R-SQUARED SPACING: 0.0625
Info: NONBONDED TABLE SIZE: 705 POINTS
TCL: Running for 1500000 steps
ETITLE: TS BOND ANGLE DIHED IMPRP ELECT VDW BOUNDARY MISC KINETIC TOTAL TEMP POTENTIAL TOTALAVG TEMPAVG PRESSURE GPRESSURE VOLUME PRESSAVG GPRESSAVG
ENERGY: 0 2.9354 7.2398 2.4804 0.0000 -10677.4574 1483.6445 0.0000 0.0000 1776.1966 -7404.9607 303.5567 -9181.1574 -7404.9607 303.5567 628.5511 728.4272 29546.0839 628.5511 728.4272
ENERGY: 300000 2.2056 5.3179 3.0168 0.0000 -10710.7351 1519.1371 0.0000 0.0000 1696.4969 -7484.5608 289.9358 -9181.0577 -7463.5766 299.1944 630.4494 733.1031 30297.6942 343.2143 443.2393
ENERGY: 600000 3.7991 5.6413 3.4661 0.0000 -10532.3502 1410.1097 0.0000 0.0000 1717.2060 -7392.1279 293.4751 -9109.3340 -7422.5899 298.9972 -17.1851 20.1775 30185.2925 224.8542 306.0885
ENERGY: 900000 0.7104 6.7849 4.1079 0.0000 -10603.3524 1411.8685 0.0000 0.0000 1754.7573 -7425.1234 299.8927 -9179.8808 -7417.1892 300.2517 -98.3572 -30.7227 29997.5417 93.4321 175.0834
ENERGY: 1200000 2.5163 10.9041 1.5877 0.0000 -10556.4157 1355.7503 0.0000 0.0000 1724.8814 -7460.7759 294.7868 -9185.6573 -7414.2512 299.8379 -696.5619 -610.0611 30233.1402 61.0918 134.9546
ENERGY: 1500000 2.0939 6.1566 6.2598 0.0000 -10629.9272 1417.3905 0.0000 0.0000 1722.0906 -7475.9357 294.3099 -9198.0263 -7433.9137 298.3211 -224.2124 -209.3864 30290.0197 6.5877 79.7637
TCL: Running FEP window  10: Lambda1 0.44999999999999996 Lambda2 0.49999999999999994 [dLambda 0.04999999999999999]
TCL: Setting parameter firsttimestep to 0
TCL: Setting parameter alchLambda to 0.44999999999999996
Info: NONBONDED TABLE R-SQUARED SPACING: 0.0625
Info: NONBONDED TABLE SIZE: 705 POINTS
TCL: Setting parameter alchLambda2 to 0.49999999999999994
Info: NONBONDED TABLE R-SQUARED SPACING: 0.0625
Info: NONBONDED TABLE SIZE: 705 POINTS
TCL: Running for 1500000 steps
ETITLE: TS BOND ANGLE DIHED IMPRP ELECT VDW BOUNDARY MISC KINETIC TOTAL TEMP POTENTIAL TOTALAVG TEMPAVG PRESSURE GPRESSURE VOLUME PRESSAVG GPRESSAVG
ENERGY: 0 2.0939 6.1566 6.2598 0.0000 -10629.9270 1417.7750 0.0000 0.0000 1721.2184 -7476.4233 294.1608 -9197.6416 -7476.4233 294.1608 -275.5756 -199.6704 30290.0197 -275.5756 -199.6704
ENERGY: 300000 2.8694 4.4465 4.9237 0.0000 -10451.4606 1367.8856 0.0000 0.0000 1767.5905 -7303.7450 302.0859 -9071.3355 -7418.4250 298.2393 -331.4834 -222.6503 30510.7220 -264.6209 -215.9036
ENERGY: 600000 1.4215 9.4033 4.0416 0.0000 -10652.7656 1430.2050 0.0000 0.0000 1786.6391 -7421.0551 305.3414 -9207.6942 -7428.9774 299.5490 -57.8580 46.1036 30005.5895 -31.4395 28.4618
ENERGY: 900000 5.1128 6.8455 2.0466 0.0000 -10580.0864 1349.4564 0.0000 0.0000 1779.5875 -7437.0377 304.1362 -9216.6252 -7430.8992 299.4548 -833.5130 -727.0256 30149.6840 -91.8139 -27.1735
ENERGY: 1200000 1.7626 9.4463 5.0491 0.0000 -10585.6181 1479.3968 0.0000 0.0000 1786.4784 -7303.4849 305.3139 -9089.9633 -7419.2724 300.3346 653.4612 713.9998 30271.4601 14.4573 78.6136
ENERGY: 1500000 2.6865 6.4654 2.8018 0.0000 -10767.7374 1490.8808 0.0000 0.0000 1797.4744 -7467.4285 307.1932 -9264.9029 -7417.6958 301.2551 493.2864 557.0783 29752.7923 63.3694 123.3197
TCL: Running FEP window  11: Lambda1 0.49999999999999994 Lambda2 0.5499999999999999 [dLambda 0.04999999999999999]
TCL: Setting parameter firsttimestep to 0
TCL: Setting parameter alchLambda to 0.49999999999999994
Info: NONBONDED TABLE R-SQUARED SPACING: 0.0625
Info: NONBONDED TABLE SIZE: 705 POINTS
TCL: Setting parameter alchLambda2 to 0.5499999999999999
Info: NONBONDED TABLE R-SQUARED SPACING: 0.0625
Info: NONBONDED TABLE SIZE: 705 POINTS
TCL: Running for 1500000 steps
ETITLE: TS BOND ANGLE DIHED IMPRP ELECT VDW BOUNDARY MISC KINETIC TOTAL TEMP POTENTIAL TOTALAVG TEMPAVG PRESSURE GPRESSURE VOLUME PRESSAVG GPRESSAVG
ENERGY: 0 2.6865 6.4654 2.8018 0.0000 -10767.7375 1491.3531 0.0000 0.0000 1796.5722 -7467.8584 307.0390 -9264.4306 -7467.8584 307.0390 504.8647 571.6373 29752.7923 504.8647 571.6373
ENERGY: 300000 5.0462 7.1528 4.4952 0.0000 -10577.0724 1410.0416 0.0000 0.0000 1781.9795 -7368.3570 304.5450 -9150.3365 -7455.5480 301.4446 215.9895 190.2869 29957.5194 -1.6896 59.2927
ENERGY: 600000 4.1960 6.4834 3.7157 0.0000 -10466.0507 1343.8178 0.0000 0.0000 1793.6293 -7314.2086 306.5360 -9107.8378 -7421.2751 301.5572 -529.8148 -450.4407 30480.1504 23.2039 95.4628
ENERGY: 900000 4.5192 10.1559 1.9417 0.0000 -10647.5738 1405.4905 0.0000 0.0000 1799.8439 -7425.6226 307.5981 -9225.4665 -7430.0517 300.8513 -477.5044 -409.4114 30025.5372 15.3688 84.2103
ENERGY: 1200000 3.0801 5.4578 3.3215 0.0000 -10672.9352 1464.3077 0.0000 0.0000 1696.6259 -7500.1422 289.9579 -9196.7681 -7443.1272 298.9326 277.0128 371.4014 29959.7112 127.5183 200.6876
ENERGY: 1500000 1.9093 5.7913 3.3258 0.0000 -10772.8671 1580.3164 0.0000 0.0000 1813.7556 -7367.7687 309.9757 -9181.5243 -7435.2324 300.8297 1561.3658 1704.1454 29725.1098 216.0158 294.0476
TCL: Running FEP window  12: Lambda1 0.5499999999999999 Lambda2 0.6    [dLambda 0.050000000000000044]
TCL: Setting parameter firsttimestep to 0
TCL: Setting parameter alchLambda to 0.5499999999999999
Info: NONBONDED TABLE R-SQUARED SPACING: 0.0625
Info: NONBONDED TABLE SIZE: 705 POINTS
TCL: Setting parameter alchLambda2 to 0.6
Info: NONBONDED TABLE R-SQUARED SPACING: 0.0625
Info: NONBONDED TABLE SIZE: 705 POINTS
TCL: Running for 1500000 steps
ETITLE: TS BOND ANGLE DIHED IMPRP ELECT VDW BOUNDARY MISC KINETIC TOTAL TEMP POTENTIAL TOTALAVG TEMPAVG PRESSURE GPRESSURE VOLUME PRESSAVG GPRESSAVG
ENERGY: 0 1.9094 5.7913 3.3258 0.0000 -10772.6620 1580.3203 0.0000 0.0000 1812.8655 -7368.4498 309.8235 -9181.3153 -7368.4498 309.8235 1636.6568 1710.0026 29725.1098 1636.6568 1710.0026
ENERGY: 300000 3.2990 7.6080 3.3623 0.0000 -10687.2962 1447.0503 0.0000 0.0000 1723.1961 -7502.7806 294.4988 -9225.9766 -7428.9589 303.3527 25.8620 11.7777 30044.2158 291.3356 349.1717
ENERGY: 600000 2.2866 4.3710 1.8799 0.0000 -10531.9751 1386.9475 0.0000 0.0000 1817.3721 -7319.1181 310.5937 -9136.4902 -7386.7990 304.0355 -179.3803 -119.9322 30335.5331 -38.4116 17.7213
ENERGY: 900000 3.6659 4.9851 3.6613 0.0000 -10548.9355 1377.3225 0.0000 0.0000 1680.3437 -7478.9569 287.1752 -9159.3007 -7400.0945 301.8402 -640.6167 -525.8267 30593.3817 -65.9188 -6.2599
ENERGY: 1200000 2.5461 6.7611 6.0455 0.0000 -10719.6025 1483.8286 0.0000 0.0000 1756.7986 -7463.6227 300.2416 -9220.4213 -7404.1687 301.7584 682.7380 749.1476 29585.3031 50.2402 112.0411
ENERGY: 1500000 2.0728 6.0157 6.9201 0.0000 -10693.5982 1459.7798 0.0000 0.0000 1758.8231 -7459.9867 300.5875 -9218.8098 -7401.9525 301.8286 233.2656 230.8679 29961.2767 120.7918 181.0239
TCL: Running FEP window  13: Lambda1 0.6    Lambda2 0.65   [dLambda 0.050000000000000044]
TCL: Setting parameter firsttimestep to 0
TCL: Setting parameter alchLambda to 0.6
Info: NONBONDED TABLE R-SQUARED SPACING: 0.0625
Info: NONBONDED TABLE SIZE: 705 POINTS
TCL: Setting parameter alchLambda2 to 0.65
Info: NONBONDED TABLE R-SQUARED SPACING: 0.0625
Info: NONBONDED TABLE SIZE: 705 POINTS
TCL: Running for 1500000 steps
ETITLE: TS BOND ANGLE DIHED IMPRP ELECT VDW BOUNDARY MISC KINETIC TOTAL TEMP POTENTIAL TOTALAVG TEMPAVG PRESSURE GPRESSURE VOLUME PRESSAVG GPRESSAVG
ENERGY: 0 2.0728 6.0157 6.9201 0.0000 -10693.8990 1459.4172 0.0000 0.0000 1757.9346 -7461.5387 300.4357 -9219.4733 -7461.5387 300.4357 147.2848 234.7962 29961.2767 147.2848 234.7962
ENERGY: 300000 3.0698 6.9091 3.9740 0.0000 -10671.2153 1447.4332 0.0000 0.0000 1783.4348 -7426.3944 304.7938 -9209.8292 -7473.3775 295.8913 98.7061 189.2937 30181.5084 -168.0468 -98.3628
ENERGY: 600000 3.2751 6.2036 3.9174 0.0000 -10643.1430 1415.6299 0.0000 0.0000 1757.7550 -7456.3620 300.4050 -9214.1170 -7448.4059 295.2616 265.4967 308.1040 29368.7019 31.4781 100.5266
ENERGY: 900000 2.0734 9.1656 6.5421 0.0000 -10473.6373 1370.8220 0.0000 0.0000 1790.8456 -7294.1885 306.0603 -9085.0341 -7431.5524 296.5537 -143.6267 -88.4660 30475.5745 -32.6520 31.3886
ENERGY: 1200000 2.9310 7.3458 1.7859 0.0000 -10576.5261 1405.3083 0.0000 0.0000 1762.8305 -7396.3247 301.2724 -9159.1552 -7431.5676 297.4012 -245.3933 -197.3188 30292.7441 -101.8524 -38.9278
ENERGY: 1500000 4.2564 5.7440 4.5781 0.0000 -10627.5380 1442.6781 0.0000 0.0000 1741.1070 -7429.1743 297.5598 -9170.2813 -7426.1762 297.3500 35.7444 187.3553 30312.7888 -136.7876 -64.1334
TCL: Running FEP window  14: Lambda1 0.65   Lambda2 0.7000000000000001 [dLambda 0.050000000000000044]
TCL: Setting parameter firsttimestep to 0
TCL: Setting parameter alchLambda to 0.65
Info: NONBONDED TABLE R-SQUARED SPACING: 0.0625
Info: NONBONDED TABLE SIZE: 705 POINTS
TCL: Setting parameter alchLambda2 to 0.7000000000000001
Info: NONBONDED TABLE R-SQUARED SPACING: 0.0625
Info: NONBONDED TABLE SIZE: 705 POINTS
TCL: Running for 1500000 steps
ETITLE: TS BOND ANGLE DIHED IMPRP ELECT VDW BOUNDARY MISC KINETIC TOTAL TEMP POTENTIAL TOTALAVG TEMPAVG PRESSURE GPRESSURE VOLUME PRESSAVG GPRESSAVG
ENERGY: 0 4.2564 5.7440 4.5781 0.0000 -10627.7977 1442.1293 0.0000 0.0000 1740.2440 -7430.8460 297.4123 -9171.0899 -7430.8460 297.4123 94.2083 190.4053 30312.7888 94.2083 190.4053
ENERGY: 300000 4.9891 6.7690 7.2983 0.0000 -10514.8463 1409.7715 0.0000 0.0000 1772.3677 -7313.6507 302.9024 -9086.0183 -7448.1983 296.3715 135.3296 177.7737 30214.0244 -346.1213 -281.9331
ENERGY: 600000 2.8538 8.8049 3.7955 0.0000 -10749.2850 1524.5552 0.0000 0.0000 1817.1904 -7392.0852 310.5627 -9209.2756 -7407.0752 300.3047 787.8961 828.4821 30181.0181 -63.6692 -8.2925
ENERGY: 900000 4.6299 6.6507 4.5450 0.0000 -10635.7485 1410.4240 0.0000 0.0000 1719.8626 -7489.6363 293.9291 -9209.4989 -7411.7155 300.1155 -397.1174 -329.8975 30357.5492 -142.5395 -88.5363
ENERGY: 1200000 1.6867 9.7661 2.6936 0.0000 -10601.0654 1432.5386 0.0000 0.0000 1758.9890 -7395.3914 300.6159 -9154.3805 -7411.7313 300.1098 229.9122 286.9148 30333.9180 -128.5054 -70.6028
ENERGY: 1500000 2.4941 10.4527 3.2042 0.0000 -10625.8860 1462.4578 0.0000 0.0000 1788.9451 -7358.3321 305.7355 -9147.2772 -7416.0088 300.1495 299.4652 345.1680 30367.7554 -130.1788 -72.4011
TCL: Running FEP window  15: Lambda1 0.7000000000000001 Lambda2 0.7500000000000001 [dLambda 0.050000000000000044]
TCL: Setting parameter firsttimestep to 0
TCL: Setting parameter alchLambda to 0.7000000000000001
Info: NONBONDED TABLE R-SQUARED SPACING: 0.0625
Info: NONBONDED TABLE SIZE: 705 POINTS
TCL: Setting parameter alchLambda2 to 0.7500000000000001
Info: NONBONDED TABLE R-SQUARED SPACING: 0.0625
Info: NONBONDED TABLE SIZE: 705 POINTS
TCL: Running for 1500000 steps
ETITLE: TS BOND ANGLE DIHED IMPRP ELECT VDW BOUNDARY MISC KINETIC TOTAL TEMP POTENTIAL TOTALAVG TEMPAVG PRESSURE GPRESSURE VOLUME PRESSAVG GPRESSAVG
ENERGY: 0 2.4941 10.4527 3.2042 0.0000 -10626.5841 1463.0034 0.0000 0.0000 1788.0376 -7359.3922 305.5804 -9147.4297 -7359.3922 305.5804 284.5079 357.1826 30367.7554 284.5079 357.1826
ENERGY: 300000 2.9756 7.8364 4.6422 0.0000 -10623.7053 1484.3945 0.0000 0.0000 1761.1603 -7362.6962 300.9870 -9123.8565 -7379.5681 304.2540 491.5280 579.3498 30587.3914 104.8581 164.7903
ENERGY: 600000 2.3017 4.9061 4.6828 0.0000 -10731.9599 1500.8300 0.0000 0.0000 1772.2549 -7446.9845 302.8831 -9219.2394 -7389.2138 304.9709 494.3925 567.1517 29887.1287 13.4549 71.0270
ENERGY: 900000 1.5187 6.9097 6.1291 0.0000 -10575.9828 1397.9042 0.0000 0.0000 1746.9996 -7416.5216 298.5669 -9163.5212 -7399.1358 303.3774 -99.9747 -46.8620 30035.6494 -81.6914 -28.8502
ENERGY: 1200000 4.2072 9.5937 2.8493 0.0000 -10621.6423 1415.5907 0.0000 0.0000 1808.0352 -7381.3662 308.9980 -9189.4014 -7394.0122 303.3843 -309.1563 -197.7923 30484.8655 -98.1880 -40.0035
ENERGY: 1500000 4.6286 7.7693 3.4466 0.0000 -10658.4824 1419.1824 0.0000 0.0000 1778.2710 -7445.1847 303.9112 -9223.4557 -7411.0167 302.5755 9.4706 48.1698 29789.7913 -90.5739 -37.1993
TCL: Running FEP window  16: Lambda1 0.7500000000000001 Lambda2 0.8000000000000002 [dLambda 0.050000000000000044]
TCL: Setting parameter firsttimestep to 0
TCL: Setting parameter alchLambda to 0.7500000000000001
Info: NONBONDED TABLE R-SQUARED SPACING: 0.0625
Info: NONBONDED TABLE SIZE: 705 POINTS
TCL: Setting parameter alchLambda2 to 0.8000000000000002
Info: NONBONDED TABLE R-SQUARED SPACING: 0.0625
Info: NONBONDED TABLE SIZE: 705 POINTS
TCL: Running for 1500000 steps
ETITLE: TS BOND ANGLE DIHED IMPRP ELECT VDW BOUNDARY MISC KINETIC TOTAL TEMP POTENTIAL TOTALAVG TEMPAVG PRESSURE GPRESSURE VOLUME PRESSAVG GPRESSAVG
ENERGY: 0 4.6286 7.7693 3.4466 0.0000 -10659.5410 1420.2834 0.0000 0.0000 1777.4484 -7445.9648 303.7707 -9223.4132 -7445.9648 303.7707 -30.2505 68.5903 29789.7913 -30.2505 68.5903
ENERGY: 300000 2.0437 5.1158 2.4898 0.0000 -10621.2700 1488.8528 0.0000 0.0000 1792.0209 -7330.7471 306.2611 -9122.7680 -7384.5216 304.2810 629.1236 653.8350 30548.3205 116.8209 176.0072
ENERGY: 600000 1.3109 10.8832 2.3947 0.0000 -10624.6997 1461.4431 0.0000 0.0000 1702.2949 -7446.3729 290.9267 -9148.6678 -7420.6124 300.3790 255.1042 299.8791 30464.5517 121.6876 175.8373
ENERGY: 900000 1.7802 5.3691 3.3800 0.0000 -10504.8499 1359.1892 0.0000 0.0000 1732.4659 -7402.6655 296.0830 -9135.1314 -7417.2237 299.6977 -655.7100 -589.0057 30767.5259 -77.8677 -11.2767
ENERGY: 1200000 3.7137 5.1923 1.2912 0.0000 -10643.5576 1442.0119 0.0000 0.0000 1813.6255 -7377.7229 309.9534 -9191.3484 -7418.2365 300.8277 -137.2424 -87.7189 30674.2847 -139.6173 -73.2668
ENERGY: 1500000 1.7942 4.9382 6.8100 0.0000 -10660.1161 1432.9971 0.0000 0.0000 1757.3115 -7456.2652 300.3292 -9213.5767 -7419.4544 301.2604 75.6095 125.7435 29977.5635 -189.6734 -130.0782
TCL: Running FEP window  17: Lambda1 0.8000000000000002 Lambda2 0.8500000000000002 [dLambda 0.050000000000000044]
TCL: Setting parameter firsttimestep to 0
TCL: Setting parameter alchLambda to 0.8000000000000002
Info: NONBONDED TABLE R-SQUARED SPACING: 0.0625
Info: NONBONDED TABLE SIZE: 705 POINTS
TCL: Setting parameter alchLambda2 to 0.8500000000000002
Info: NONBONDED TABLE R-SQUARED SPACING: 0.0625
Info: NONBONDED TABLE SIZE: 705 POINTS
TCL: Running for 1500000 steps
ETITLE: TS BOND ANGLE DIHED IMPRP ELECT VDW BOUNDARY MISC KINETIC TOTAL TEMP POTENTIAL TOTALAVG TEMPAVG PRESSURE GPRESSURE VOLUME PRESSAVG GPRESSAVG
ENERGY: 0 1.7942 4.9382 6.8100 0.0000 -10660.2503 1432.6003 0.0000 0.0000 1756.4541 -7457.6535 300.1827 -9214.1076 -7457.6535 300.1827 38.6554 128.9051 29977.5635 38.6554 128.9051
ENERGY: 300000 7.3787 9.6392 4.5870 0.0000 -10530.0032 1361.4280 0.0000 0.0000 1712.7090 -7434.2613 292.7065 -9146.9703 -7439.1327 295.5312 -617.8225 -572.9084 30225.5038 -453.5030 -393.6711
ENERGY: 600000 4.5532 9.1972 4.6274 0.0000 -10670.2484 1460.7104 0.0000 0.0000 1766.1533 -7425.0070 301.8403 -9191.1602 -7447.0815 296.3835 335.1702 444.8749 29904.2718 -327.1090 -260.1812
ENERGY: 900000 4.7677 4.5854 2.1481 0.0000 -10606.0954 1403.2419 0.0000 0.0000 1742.3735 -7448.9788 297.7763 -9191.3522 -7433.7522 298.0575 -381.7696 -320.3349 30390.9134 -276.1425 -215.1980
ENERGY: 1200000 1.6686 6.5738 5.5656 0.0000 -10581.4969 1405.9263 0.0000 0.0000 1756.8583 -7404.9044 300.2518 -9161.7626 -7439.2603 297.5472 -54.0171 -21.8371 30087.5340 -171.9441 -107.0950
ENERGY: 1500000 1.6620 7.6880 4.1981 0.0000 -10731.3281 1464.3578 0.0000 0.0000 1794.9140 -7458.5083 306.7556 -9253.4223 -7438.2428 298.0357 7.7950 38.4010 30619.1266 -100.9808 -36.9465
TCL: Running FEP window  18: Lambda1 0.8500000000000002 Lambda2 0.9000000000000002 [dLambda 0.050000000000000044]
TCL: Setting parameter firsttimestep to 0
TCL: Setting parameter alchLambda to 0.8500000000000002
Info: NONBONDED TABLE R-SQUARED SPACING: 0.0625
Info: NONBONDED TABLE SIZE: 705 POINTS
TCL: Setting parameter alchLambda2 to 0.9000000000000002
Info: NONBONDED TABLE R-SQUARED SPACING: 0.0625
Info: NONBONDED TABLE SIZE: 705 POINTS
TCL: Running for 1500000 steps
ETITLE: TS BOND ANGLE DIHED IMPRP ELECT VDW BOUNDARY MISC KINETIC TOTAL TEMP POTENTIAL TOTALAVG TEMPAVG PRESSURE GPRESSURE VOLUME PRESSAVG GPRESSAVG
ENERGY: 0 1.6620 7.6880 4.1981 0.0000 -10731.9025 1464.3527 0.0000 0.0000 1794.0479 -7459.9539 306.6076 -9254.0018 -7459.9539 306.6076 -17.7558 45.9376 30619.1266 -17.7558 45.9376
ENERGY: 300000 3.6137 7.5761 4.2106 0.0000 -10637.7510 1442.1005 0.0000 0.0000 1807.6007 -7372.6494 308.9238 -9180.2501 -7455.1860 302.9275 163.9152 178.6136 30232.6460 105.3833 179.5431
ENERGY: 600000 3.3032 6.5066 3.2810 0.0000 -10663.0388 1528.1565 0.0000 0.0000 1769.8796 -7351.9119 302.4771 -9121.7915 -7451.4762 301.4291 1305.3801 1382.7528 29875.2743 198.0920 268.0967
ENERGY: 900000 2.9364 9.5628 3.4009 0.0000 -10684.7543 1444.7886 0.0000 0.0000 1745.1797 -7478.8859 298.2559 -9224.0656 -7457.0357 300.8457 260.2199 328.6833 29985.2591 133.6816 202.7719
ENERGY: 1200000 3.2490 6.5606 5.3190 0.0000 -10684.0375 1486.8269 0.0000 0.0000 1766.1285 -7415.9536 301.8361 -9182.0821 -7450.3799 301.2488 510.6968 576.6435 30006.3060 84.3975 156.9850
ENERGY: 1500000 4.2552 6.6310 4.0124 0.0000 -10404.1580 1321.5382 0.0000 0.0000 1790.9791 -7276.7421 306.0831 -9067.7212 -7434.0327 300.8699 -507.4924 -437.8688 30336.6659 21.6004 93.6616
TCL: Running FEP window  19: Lambda1 0.9000000000000002 Lambda2 0.9500000000000003 [dLambda 0.050000000000000044]
TCL: Setting parameter firsttimestep to 0
TCL: Setting parameter alchLambda to 0.9000000000000002
Info: NONBONDED TABLE R-SQUARED SPACING: 0.0625
Info: NONBONDED TABLE SIZE: 705 POINTS
TCL: Setting parameter alchLambda2 to 0.9500000000000003
Info: NONBONDED TABLE R-SQUARED SPACING: 0.0625
Info: NONBONDED TABLE SIZE: 705 POINTS
TCL: Running for 1500000 steps
ETITLE: TS BOND ANGLE DIHED IMPRP ELECT VDW BOUNDARY MISC KINETIC TOTAL TEMP POTENTIAL TOTALAVG TEMPAVG PRESSURE GPRESSURE VOLUME PRESSAVG GPRESSAVG
ENERGY: 0 4.2552 6.6310 4.0124 0.0000 -10404.6275 1321.2683 0.0000 0.0000 1790.1182 -7278.3424 305.9360 -9068.4606 -7278.3424 305.9360 -510.0056 -428.1776 30336.6659 -510.0056 -428.1776
ENERGY: 300000 3.5917 4.4775 2.7245 0.0000 -10510.8473 1387.8045 0.0000 0.0000 1764.6300 -7347.6191 301.5800 -9112.2491 -7365.4449 303.9741 11.7125 89.8817 29945.9053 -262.3949 -205.7317
ENERGY: 600000 2.0284 8.4923 3.1630 0.0000 -10676.6825 1447.3360 0.0000 0.0000 1734.1668 -7481.4960 296.3737 -9215.6628 -7403.0810 302.2424 100.5687 94.4699 29981.2097 -126.1427 -77.0837
ENERGY: 900000 4.1267 5.8378 2.7667 0.0000 -10712.7556 1437.0326 0.0000 0.0000 1737.5165 -7525.4753 296.9462 -9262.9918 -7420.2329 302.2793 -20.1130 -1.3171 29972.4266 -110.4444 -54.1342
ENERGY: 1200000 1.9130 4.6412 1.3974 0.0000 -10682.5996 1439.3666 0.0000 0.0000 1734.2878 -7500.9937 296.3944 -9235.2815 -7427.0595 300.8966 60.6811 97.8290 30282.9345 -90.9206 -38.0352
ENERGY: 1500000 1.8021 4.2959 2.5104 0.0000 -10612.1152 1383.6963 0.0000 0.0000 1769.9029 -7449.9076 302.4811 -9219.8104 -7424.4619 300.8569 -256.4373 -201.6085 29789.6580 -107.1764 -60.0082
TCL: Running FEP window  20: Lambda1 0.9500000000000003 Lambda2 1.0    [dLambda 0.04999999999999971]
TCL: Setting parameter firsttimestep to 0
TCL: Setting parameter alchLambda to 0.9500000000000003
Info: NONBONDED TABLE R-SQUARED SPACING: 0.0625
Info: NONBONDED TABLE SIZE: 705 POINTS
TCL: Setting parameter alchLambda2 to 1.0
Info: NONBONDED TABLE R-SQUARED SPACING: 0.0625
Info: NONBONDED TABLE SIZE: 705 POINTS
TCL: Running for 1500000 steps
ETITLE: TS BOND ANGLE DIHED IMPRP ELECT VDW BOUNDARY MISC KINETIC TOTAL TEMP POTENTIAL TOTALAVG TEMPAVG PRESSURE GPRESSURE VOLUME PRESSAVG GPRESSAVG
ENERGY: 0 1.8021 4.2960 2.5104 0.0000 -10612.5917 1384.0635 0.0000 0.0000 1769.0445 -7450.8752 302.3344 -9219.9197 -7450.8752 302.3344 -268.2540 -180.6913 29789.6580 -268.2540 -180.6913
ENERGY: 300000 1.8318 5.9816 2.5027 0.0000 -10453.6078 1306.8273 0.0000 0.0000 1779.4712 -7356.9931 304.1164 -9136.4644 -7431.5380 302.9727 -514.6195 -428.8342 30233.9573 -121.3144 -56.8650
ENERGY: 600000 2.8581 12.2341 1.7967 0.0000 -10548.5443 1406.7603 0.0000 0.0000 1731.3029 -7393.5922 295.8843 -9124.8951 -7419.7390 301.6195 231.6984 274.1585 30300.7916 -122.8260 -69.9387
ENERGY: 900000 2.5407 8.0415 8.6390 0.0000 -10526.0794 1367.8520 0.0000 0.0000 1732.6464 -7406.3598 296.1139 -9139.0062 -7418.0068 300.4661 -516.1708 -387.2150 30386.8017 -84.3553 -20.1616
ENERGY: 1200000 4.2201 7.2349 2.3890 0.0000 -10565.2347 1370.8232 0.0000 0.0000 1702.7730 -7477.7944 291.0084 -9180.5675 -7409.7978 300.6020 -735.9393 -637.1654 30340.2543 -201.5509 -134.3022
ENERGY: 1500000 3.1441 9.2230 3.2799 0.0000 -10695.8473 1498.9711 0.0000 0.0000 1810.7015 -7370.5276 309.4537 -9181.2291 -7403.0754 301.3143 710.5473 760.4932 29845.2695 -138.5955 -71.2307
TCL: Exiting due to exit command.
