Info: SIMULATION PARAMETERS:
Info: TIMESTEP               2
Info: NUMBER OF STEPS        0
Info: STEPS PER CYCLE        10
Info: PERIODIC CELL BASIS 1  32.3656 0 0
Info: PERIODIC CELL BASIS 2  0 30.6886 0
Info: PERIODIC CELL BASIS 3  0 0 30.9168
Info: PERIODIC CELL CENTER   0 0 0
Info: WRAPPING WATERS AROUND PERIODIC BOUNDARIES ON OUTPUT.
Info: WRAPPING ALL CLUSTERS AROUND PERIODIC BOUNDARIES ON OUTPUT.
Info: FIRST LDB TIMESTEP     50
Info: LAST LDB TIMESTEP     -1
Info: HOM BACKGROUND SCALING 1
Info: PME BACKGROUND SCALING 1
Info: MIN ATOMS PER PATCH    40
Info: EMPTY PATCH LOAD       40 ATOMS
Info: VELOCITY FILE          mobley_8311303_equil.vel
Info: CENTER OF MASS MOVING INITIALLY? NO
Info: DIELECTRIC             1
Info: EXCLUDE                SCALED ONE-FOUR
Info: 1-4 ELECTROSTATICS SCALED BY 0.833333
Info: MODIFIED 1-4 VDW PARAMETERS WILL BE USED
Info: DCD FILENAME           mobley_8311303_prod.dcd
Info: DCD FREQUENCY          100000
Info: DCD FIRST STEP         100000
Info: DCD FILE WILL CONTAIN UNIT CELL DATA
Info: XST FILENAME           mobley_8311303_prod.xst
Info: XST FREQUENCY          100000
Info: NO VELOCITY DCD OUTPUT
Info: NO FORCE DCD OUTPUT
Info: OUTPUT FILENAME        mobley_8311303_prod
Info: BINARY OUTPUT FILES WILL BE USED
Info: RESTART FILENAME       mobley_8311303_prod.restart
Info: RESTART FREQUENCY      100000
Info: BINARY RESTART FILES WILL BE USED
Info: CUTOFF                 9
Info: PAIRLIST DISTANCE      11
Info: PAIRLIST SHRINK RATE   0.01
Info: PAIRLIST GROW RATE     0.01
Info: PAIRLIST TRIGGER       0.3
Info: PAIRLISTS PER CYCLE    2
Info: PAIRLISTS ENABLED
Info: MARGIN                 2
Info: HYDROGEN GROUP CUTOFF  2.5
Info: PATCH DIMENSION        15.5
Info: ENERGY OUTPUT STEPS    100000
Info: ENERGY EVALUATION STEPS    100000
Info: OUTPUT ENERGY PRECISION 4
Info: CROSSTERM ENERGY INCLUDED IN DIHEDRAL
Info: TIMING OUTPUT STEPS    1000000
Info: PRESSURE OUTPUT STEPS  100000
Info: ALCHEMICAL FEP ON
Info: FEP CURRENT LAMBDA VALUE     0
Info: FEP COMPARISON LAMBDA VALUE  0.05
Info: FEP INTRA-ALCHEMICAL NON-BONDED INTERACTIONS WILL BE RETAINED
Info: FEP INTRA-ALCHEMICAL BONDED INTERACTIONS WILL BE RETAINED
Info: FEP VDW SHIFTING COEFFICIENT 5
Info: FEP ELEC. ACTIVE FOR ANNIHILATED PARTICLES BETWEEN LAMBDA = 0 AND LAMBDA = 0.5
Info: FEP ELEC. ACTIVE FOR EXNIHILATED PARTICLES BETWEEN LAMBDA = 0.5 AND LAMBDA = 1
Info: FEP VDW ACTIVE FOR ANNIHILATED PARTICLES BETWEEN LAMBDA = 0 AND LAMBDA = 1
Info: FEP VDW ACTIVE FOR EXNIHILATED PARTICLES BETWEEN LAMBDA = 0 AND LAMBDA = 1
Info: FEP BOND ACTIVE FOR ANNIHILATED PARTICLES BETWEEN LAMBDA = 1 AND LAMBDA = 1
Info: FEP BOND ACTIVE FOR EXNIHILATED PARTICLES BETWEEN LAMBDA = 0 AND LAMBDA = 0
Info: LANGEVIN DYNAMICS ACTIVE
Info: LANGEVIN TEMPERATURE   300
Info: LANGEVIN USING BBK INTEGRATOR
Info: LANGEVIN DAMPING COEFFICIENT IS 1 INVERSE PS
Info: LANGEVIN DYNAMICS APPLIED TO HYDROGENS
Info: LANGEVIN PISTON PRESSURE CONTROL ACTIVE
Info:        TARGET PRESSURE IS 1.01325 BAR
Info:     OSCILLATION PERIOD IS 50 FS
Info:             DECAY TIME IS 25 FS
Info:     PISTON TEMPERATURE IS 300 K
Info:       PRESSURE CONTROL IS GROUP-BASED
Info:    INITIAL STRAIN RATE IS 0.000244155 0.000244155 0.000244155
Info:       CELL FLUCTUATION IS ISOTROPIC
Info: PARTICLE MESH EWALD (PME) ACTIVE
Info: PME TOLERANCE               1e-06
Info: PME EWALD COEFFICIENT       0.348832
Info: PME INTERPOLATION ORDER     4
Info: PME GRID DIMENSIONS         36 32 32
Info: PME MAXIMUM GRID SPACING    1
Info: PME CALCULATION WILL BE PERFORMED ON GPU
Info: FULL ELECTROSTATIC EVALUATION FREQUENCY      2
Info: USING VERLET I (r-RESPA) MTS SCHEME.
Info: C1 SPLITTING OF LONG RANGE ELECTROSTATICS
Info: PLACING ATOMS IN PATCHES BY HYDROGEN GROUPS
Info: RIGID BONDS TO HYDROGEN : ALL
Info:         ERROR TOLERANCE : 1e-08
Info:          MAX ITERATIONS : 100
Info: RIGID WATER USING SETTLE ALGORITHM
Info: RANDOM NUMBER SEED     1743803780
Info: USE HYDROGEN BONDS?    NO
Info: Using AMBER format force field!
Info: AMBER PARM FILE        mobley_8311303.prmtop
Info: COORDINATE PDB         mobley_8311303.pdb
Info: Exclusions will be read from PARM file!
Info: SCNB (VDW SCALING)     2
Info: USING ARITHMETIC MEAN TO COMBINE L-J SIGMA PARAMETERS
Info: BINARY COORDINATES     mobley_8311303_equil.coor
Info: SUMMARY OF PARAMETERS:
Info: 7 BONDS
Info: 8 ANGLES
Info:   8 HARMONIC
Info:   0 COSINE-BASED
Info: 3 DIHEDRAL
Info: 0 IMPROPER
Info: 0 CROSSTERM
Info: 0 VDW
Info: 15 VDW_PAIRS
Info: 0 NBTHOLE_PAIRS
Info: To read alchdata from file: mobley_8311303.pdb
Info: To read alchflag data from column: 5
Info: STRUCTURE SUMMARY:
Info: 2938 ATOMS
Info: 2939 BONDS
Info: 36 ANGLES
Info: 64 DIHEDRALS
Info: 0 IMPROPERS
Info: 0 CROSSTERMS
Info: 3021 EXCLUSIONS
Info: 2920 RIGID BONDS
Info: ALCH: 0 ATOMS TO DISAPPEAR IN FINAL STATE
Info: ALCH: 22 ATOMS TO APPEAR IN FINAL STATE
Info: 5894 DEGREES OF FREEDOM
Info: 990 HYDROGEN GROUPS
Info: 3 ATOMS IN LARGEST HYDROGEN GROUP
Info: 990 MIGRATION GROUPS
Info: 3 ATOMS IN LARGEST MIGRATION GROUP
Info: TOTAL MASS = 17872.4 amu
Info: TOTAL CHARGE = 0.000100008 e
Info: MASS DENSITY = 0.96647 g/cm^3
Info: ATOM DENSITY = 0.0956749 atoms/A^3
Info: ADDED 0 IMPLICIT EXCLUSIONS
Info: NONBONDED TABLE R-SQUARED SPACING: 0.0625
Info: NONBONDED TABLE SIZE: 705 POINTS
Info: REMOVING COM VELOCITY -0.132765 0.0252332 -0.0523298
Info: Use 3D box decompostion in PME FFT.
Info: Updated CUDA force table with 4096 elements.
Info: Updated CUDA LJ table with 5 x 5 elements.
Info: Found 25 unique exclusion lists needing 76 bytes
TCL: Running for 1500000 steps
ETITLE: TS BOND ANGLE DIHED IMPRP ELECT VDW BOUNDARY MISC KINETIC TOTAL TEMP POTENTIAL TOTALAVG TEMPAVG PRESSURE GPRESSURE VOLUME PRESSAVG GPRESSAVG
ENERGY: 0 9.1646 6.7451 13.5840 0.0000 -10435.3644 1358.3219 0.0000 0.0000 1724.8219 -7322.7269 294.5266 -9047.5488 -7322.7269 294.5266 -709.2895 -617.4538 30708.1694 -709.2895 -617.4538
ENERGY: 300000 9.7114 4.5985 13.1905 0.0000 -10695.2469 1518.5953 0.0000 0.0000 1785.1948 -7363.9564 304.8357 -9149.1512 -7394.9601 297.9828 941.1354 952.1955 30062.9319 -20.6530 27.5149
ENERGY: 600000 8.4011 3.6045 12.5369 0.0000 -10677.5522 1484.0841 0.0000 0.0000 1760.2044 -7408.7212 300.5684 -9168.9256 -7397.8845 300.3680 411.3980 465.8546 29778.4207 2.7202 50.6497
ENERGY: 900000 5.5749 4.8547 11.5799 0.0000 -10660.6749 1489.7771 0.0000 0.0000 1717.9479 -7430.9403 293.3528 -9148.8883 -7395.7205 299.9415 204.5563 308.7153 30285.3118 -31.9150 22.8172
ENERGY: 1200000 8.3345 6.9230 11.8546 0.0000 -10601.8776 1420.9713 0.0000 0.0000 1735.2358 -7418.5584 296.3048 -9153.7942 -7396.8604 299.7724 -14.7985 73.1035 29814.9167 39.1524 100.8759
ENERGY: 1500000 7.4733 5.0060 8.5819 0.0000 -10506.7010 1369.4346 0.0000 0.0000 1778.9873 -7337.2178 303.7757 -9116.2051 -7400.4301 299.3634 -415.3455 -318.9090 30196.2199 -39.5759 26.5089
TCL: Running FEP window   2: Lambda1 0.05   Lambda2 0.1    [dLambda 0.05  ]
TCL: Setting parameter firsttimestep to 0
TCL: Setting parameter alchLambda to 0.05
Info: NONBONDED TABLE R-SQUARED SPACING: 0.0625
Info: NONBONDED TABLE SIZE: 705 POINTS
TCL: Setting parameter alchLambda2 to 0.1
Info: NONBONDED TABLE R-SQUARED SPACING: 0.0625
Info: NONBONDED TABLE SIZE: 705 POINTS
TCL: Running for 1500000 steps
ETITLE: TS BOND ANGLE DIHED IMPRP ELECT VDW BOUNDARY MISC KINETIC TOTAL TEMP POTENTIAL TOTALAVG TEMPAVG PRESSURE GPRESSURE VOLUME PRESSAVG GPRESSAVG
ENERGY: 0 7.4733 5.0060 8.5819 0.0000 -10506.7010 1374.7120 0.0000 0.0000 1778.1221 -7332.8056 303.6280 -9110.9277 -7332.8056 303.6280 -381.1879 -305.1410 30196.2199 -381.1879 -305.1410
ENERGY: 300000 7.7536 5.2919 11.5270 0.0000 -10603.5061 1427.4124 0.0000 0.0000 1743.4452 -7408.0761 297.7067 -9151.5213 -7386.9958 298.3813 -303.9393 -213.9735 30232.9270 44.6460 129.1868
ENERGY: 600000 5.4357 5.1101 11.2580 0.0000 -10684.5580 1519.5058 0.0000 0.0000 1763.4325 -7379.8159 301.1196 -9143.2484 -7405.9260 297.0334 604.2239 651.0436 29986.4204 75.4255 147.5839
ENERGY: 900000 9.2820 5.7263 11.0095 0.0000 -10503.3933 1384.6517 0.0000 0.0000 1808.2661 -7284.4577 308.7753 -9092.7238 -7391.9071 298.9858 -370.7151 -337.1755 30322.6619 -22.3067 48.0917
ENERGY: 1200000 5.1252 4.5537 15.4549 0.0000 -10648.7278 1493.5987 0.0000 0.0000 1732.2567 -7397.7385 295.7961 -9129.9952 -7399.1830 297.9736 607.2487 641.4885 29845.0382 85.4250 156.4892
ENERGY: 1500000 4.4784 5.0755 12.1461 0.0000 -10596.3529 1415.8561 0.0000 0.0000 1792.7454 -7366.0514 306.1251 -9158.7968 -7402.2155 298.7160 -167.5915 -49.1446 30127.5438 65.8291 141.1250
TCL: Running FEP window   3: Lambda1 0.1    Lambda2 0.15000000000000002 [dLambda 0.05000000000000002]
TCL: Setting parameter firsttimestep to 0
TCL: Setting parameter alchLambda to 0.1
Info: NONBONDED TABLE R-SQUARED SPACING: 0.0625
Info: NONBONDED TABLE SIZE: 705 POINTS
TCL: Setting parameter alchLambda2 to 0.15000000000000002
Info: NONBONDED TABLE R-SQUARED SPACING: 0.0625
Info: NONBONDED TABLE SIZE: 705 POINTS
TCL: Running for 1500000 steps
ETITLE: TS BOND ANGLE DIHED IMPRP ELECT VDW BOUNDARY MISC KINETIC TOTAL TEMP POTENTIAL TOTALAVG TEMPAVG PRESSURE GPRESSURE VOLUME PRESSAVG GPRESSAVG
ENERGY: 0 4.4784 5.0755 12.1461 0.0000 -10596.3525 1419.7402 0.0000 0.0000 1791.8699 -7363.0423 305.9756 -9154.9122 -7363.0423 305.9756 -126.6494 -28.2367 30127.5438 -126.6494 -28.2367
ENERGY: 300000 7.1249 5.8934 11.6669 0.0000 -10711.8249 1507.8562 0.0000 0.0000 1721.8639 -7457.4196 294.0215 -9179.2834 -7407.0333 298.9464 397.3843 424.5550 29696.7315 -608.6655 -561.0411
ENERGY: 600000 6.6055 3.7659 14.9303 0.0000 -10611.7260 1498.0961 0.0000 0.0000 1702.8962 -7385.4320 290.7826 -9088.3283 -7405.3434 298.0042 581.8477 674.1089 29955.1654 -381.2139 -324.1913
ENERGY: 900000 6.2196 4.3442 11.1108 0.0000 -10514.6302 1403.4259 0.0000 0.0000 1725.4355 -7364.0942 294.6314 -9089.5297 -7405.8461 298.1958 -341.7139 -272.1780 30786.1355 -354.4532 -294.1366
ENERGY: 1200000 5.7166 4.6278 12.6357 0.0000 -10555.8740 1417.5907 0.0000 0.0000 1765.0770 -7350.2262 301.4005 -9115.3032 -7401.4618 298.3703 -97.5047 -42.3940 30058.3407 -225.3630 -163.8677
ENERGY: 1500000 5.5479 4.7507 16.7139 0.0000 -10552.5788 1399.5469 0.0000 0.0000 1758.7549 -7367.2646 300.3209 -9126.0195 -7394.8154 299.7578 -223.5200 -190.6994 30474.4261 -139.6997 -80.3153
TCL: Running FEP window   4: Lambda1 0.15000000000000002 Lambda2 0.2    [dLambda 0.04999999999999999]
TCL: Setting parameter firsttimestep to 0
TCL: Setting parameter alchLambda to 0.15000000000000002
Info: NONBONDED TABLE R-SQUARED SPACING: 0.0625
Info: NONBONDED TABLE SIZE: 705 POINTS
TCL: Setting parameter alchLambda2 to 0.2
Info: NONBONDED TABLE R-SQUARED SPACING: 0.0625
Info: NONBONDED TABLE SIZE: 705 POINTS
TCL: Running for 1500000 steps
ETITLE: TS BOND ANGLE DIHED IMPRP ELECT VDW BOUNDARY MISC KINETIC TOTAL TEMP POTENTIAL TOTALAVG TEMPAVG PRESSURE GPRESSURE VOLUME PRESSAVG GPRESSAVG
ENERGY: 0 5.5479 4.7507 16.7139 0.0000 -10552.5793 1398.8194 0.0000 0.0000 1757.8781 -7368.8692 300.1712 -9126.7474 -7368.8692 300.1712 -265.7620 -190.1016 30474.4261 -265.7620 -190.1016
ENERGY: 300000 4.4404 4.3306 11.5149 0.0000 -10605.2228 1418.1470 0.0000 0.0000 1757.2756 -7409.5143 300.0683 -9166.7899 -7360.3987 299.7820 145.7979 244.4739 29694.8397 207.7937 282.2000
ENERGY: 600000 6.2522 3.0848 14.5008 0.0000 -10561.9311 1330.0347 0.0000 0.0000 1757.2095 -7450.8491 300.0570 -9208.0586 -7365.6072 301.3531 -806.5413 -807.2664 29908.3384 4.5712 65.7021
ENERGY: 900000 3.9646 2.6048 13.3539 0.0000 -10544.1038 1370.9480 0.0000 0.0000 1724.0696 -7429.1628 294.3981 -9153.2324 -7372.1243 301.3222 -416.4621 -346.9419 30150.6045 -35.5956 28.8553
ENERGY: 1200000 6.7127 5.0245 9.6289 0.0000 -10634.4089 1385.0761 0.0000 0.0000 1738.7696 -7489.1970 296.9083 -9227.9667 -7385.2921 300.6945 -833.1833 -750.7119 30223.4028 -63.9669 -1.2714
ENERGY: 1500000 7.3105 9.8758 17.1636 0.0000 -10615.0436 1452.6208 0.0000 0.0000 1769.4934 -7358.5795 302.1546 -9128.0729 -7395.8335 300.1303 -295.6830 -216.8026 30222.8419 -133.8343 -68.9744
TCL: Running FEP window   5: Lambda1 0.2    Lambda2 0.25   [dLambda 0.04999999999999999]
TCL: Setting parameter firsttimestep to 0
TCL: Setting parameter alchLambda to 0.2
Info: NONBONDED TABLE R-SQUARED SPACING: 0.0625
Info: NONBONDED TABLE SIZE: 705 POINTS
TCL: Setting parameter alchLambda2 to 0.25
Info: NONBONDED TABLE R-SQUARED SPACING: 0.0625
Info: NONBONDED TABLE SIZE: 705 POINTS
TCL: Running for 1500000 steps
ETITLE: TS BOND ANGLE DIHED IMPRP ELECT VDW BOUNDARY MISC KINETIC TOTAL TEMP POTENTIAL TOTALAVG TEMPAVG PRESSURE GPRESSURE VOLUME PRESSAVG GPRESSAVG
ENERGY: 0 7.3105 9.8758 17.1635 0.0000 -10615.0428 1453.2731 0.0000 0.0000 1768.6264 -7358.7934 302.0066 -9127.4199 -7358.7934 302.0066 -293.8897 -207.7105 30222.8419 -293.8897 -207.7105
ENERGY: 300000 4.6838 6.2872 16.0132 0.0000 -10806.4430 1546.9326 0.0000 0.0000 1718.5164 -7514.0099 293.4499 -9232.5263 -7404.8030 297.7240 916.0519 977.7572 29596.3601 -106.4960 -36.0635
ENERGY: 600000 7.7557 6.9727 13.4683 0.0000 -10499.1715 1362.4005 0.0000 0.0000 1788.2722 -7320.3022 305.3612 -9108.5743 -7403.2087 300.0291 -528.2196 -524.9479 30851.6800 -176.3754 -115.2685
ENERGY: 900000 4.2811 2.1986 10.7825 0.0000 -10820.2942 1541.8342 0.0000 0.0000 1832.2038 -7428.9940 312.8629 -9261.1978 -7394.9462 301.3499 697.6007 678.4052 30288.5442 -138.3652 -78.6124
ENERGY: 1200000 6.5935 5.2967 14.3789 0.0000 -10612.7919 1473.6045 0.0000 0.0000 1750.9982 -7361.9202 298.9964 -9112.9184 -7386.7523 301.6555 592.8421 660.5367 29789.7941 -94.7390 -36.7177
ENERGY: 1500000 9.2555 7.8707 12.0897 0.0000 -10658.0023 1456.2057 0.0000 0.0000 1797.6818 -7374.8988 306.9680 -9172.5806 -7385.0792 301.4652 85.9196 211.6140 29827.2088 -3.2988 58.2536
TCL: Running FEP window   6: Lambda1 0.25   Lambda2 0.3    [dLambda 0.04999999999999999]
TCL: Setting parameter firsttimestep to 0
TCL: Setting parameter alchLambda to 0.25
Info: NONBONDED TABLE R-SQUARED SPACING: 0.0625
Info: NONBONDED TABLE SIZE: 705 POINTS
TCL: Setting parameter alchLambda2 to 0.3
Info: NONBONDED TABLE R-SQUARED SPACING: 0.0625
Info: NONBONDED TABLE SIZE: 705 POINTS
TCL: Running for 1500000 steps
ETITLE: TS BOND ANGLE DIHED IMPRP ELECT VDW BOUNDARY MISC KINETIC TOTAL TEMP POTENTIAL TOTALAVG TEMPAVG PRESSURE GPRESSURE VOLUME PRESSAVG GPRESSAVG
ENERGY: 0 9.2555 7.8707 12.0897 0.0000 -10658.0030 1458.2220 0.0000 0.0000 1796.8032 -7373.7618 306.8180 -9170.5650 -7373.7618 306.8180 139.4888 232.8614 29827.2088 139.4888 232.8614
ENERGY: 300000 5.7072 6.8438 12.3417 0.0000 -10656.5468 1468.6946 0.0000 0.0000 1765.4263 -7397.5333 301.4601 -9162.9595 -7415.6305 299.2187 278.3366 393.2244 30271.6721 118.3857 204.8609
ENERGY: 600000 5.4146 1.9367 10.8978 0.0000 -10540.3703 1410.2556 0.0000 0.0000 1732.4680 -7379.3975 295.8322 -9111.8655 -7374.3842 300.0746 -386.9995 -292.2878 30427.2257 -32.1397 52.2390
ENERGY: 900000 6.3069 3.9905 15.1683 0.0000 -10585.7754 1381.3027 0.0000 0.0000 1755.2926 -7423.7144 299.7297 -9179.0070 -7376.8646 301.0885 -607.5313 -504.2104 30552.2459 -77.2020 10.8770
ENERGY: 1200000 1.6900 2.7124 11.1956 0.0000 -10614.8965 1438.7674 0.0000 0.0000 1732.1465 -7428.3845 295.7773 -9160.5310 -7368.4793 301.1910 -110.5148 53.1106 30452.9870 -53.3594 35.4216
ENERGY: 1500000 5.0627 4.5467 10.0663 0.0000 -10443.8505 1274.9052 0.0000 0.0000 1801.1737 -7348.0958 307.5643 -9149.2696 -7366.5613 301.6236 -1289.8063 -1280.0862 30753.2977 -34.0217 44.9552
TCL: Running FEP window   7: Lambda1 0.3    Lambda2 0.35   [dLambda 0.04999999999999999]
TCL: Setting parameter firsttimestep to 0
TCL: Setting parameter alchLambda to 0.3
Info: NONBONDED TABLE R-SQUARED SPACING: 0.0625
Info: NONBONDED TABLE SIZE: 705 POINTS
TCL: Setting parameter alchLambda2 to 0.35
Info: NONBONDED TABLE R-SQUARED SPACING: 0.0625
Info: NONBONDED TABLE SIZE: 705 POINTS
TCL: Running for 1500000 steps
ETITLE: TS BOND ANGLE DIHED IMPRP ELECT VDW BOUNDARY MISC KINETIC TOTAL TEMP POTENTIAL TOTALAVG TEMPAVG PRESSURE GPRESSURE VOLUME PRESSAVG GPRESSAVG
ENERGY: 0 5.0627 4.5467 10.0663 0.0000 -10443.8507 1275.0542 0.0000 0.0000 1800.3016 -7348.8191 307.4153 -9149.1207 -7348.8191 307.4153 -1357.0299 -1273.3993 30753.2977 -1357.0299 -1273.3993
ENERGY: 300000 8.1716 5.3314 11.7601 0.0000 -10594.0937 1405.0521 0.0000 0.0000 1746.6741 -7417.1044 298.2580 -9163.7785 -7348.1501 306.1151 -209.1856 -124.3411 30280.7417 -572.2127 -527.2016
ENERGY: 600000 4.8929 7.3245 11.5492 0.0000 -10597.3714 1435.1388 0.0000 0.0000 1716.6620 -7421.8040 293.1332 -9138.4659 -7367.8995 302.0380 277.7244 283.9007 30327.0393 -366.1443 -326.0472
ENERGY: 900000 6.7313 5.8779 10.9195 0.0000 -10646.9587 1463.9429 0.0000 0.0000 1771.9251 -7387.5621 302.5698 -9159.4871 -7377.6570 302.0250 187.4122 281.4095 30236.8507 -173.3908 -128.2565
ENERGY: 1200000 6.4723 6.1052 9.9817 0.0000 -10603.5765 1436.4941 0.0000 0.0000 1766.5327 -7377.9904 301.6490 -9144.5231 -7371.3050 302.0948 -219.2520 -178.2370 30442.7914 -178.7918 -133.8774
ENERGY: 1500000 9.5593 3.7914 9.5256 0.0000 -10613.0412 1391.7344 0.0000 0.0000 1730.6382 -7467.7923 295.5198 -9198.4305 -7384.1892 302.1713 -462.7540 -473.6083 30178.2084 -200.7348 -160.0911
TCL: Running FEP window   8: Lambda1 0.35   Lambda2 0.39999999999999997 [dLambda 0.04999999999999999]
TCL: Setting parameter firsttimestep to 0
TCL: Setting parameter alchLambda to 0.35
Info: NONBONDED TABLE R-SQUARED SPACING: 0.0625
Info: NONBONDED TABLE SIZE: 705 POINTS
TCL: Setting parameter alchLambda2 to 0.39999999999999997
Info: NONBONDED TABLE R-SQUARED SPACING: 0.0625
Info: NONBONDED TABLE SIZE: 705 POINTS
TCL: Running for 1500000 steps
ETITLE: TS BOND ANGLE DIHED IMPRP ELECT VDW BOUNDARY MISC KINETIC TOTAL TEMP POTENTIAL TOTALAVG TEMPAVG PRESSURE GPRESSURE VOLUME PRESSAVG GPRESSAVG
ENERGY: 0 9.5593 3.7914 9.5256 0.0000 -10613.0420 1391.2644 0.0000 0.0000 1729.7908 -7469.1105 295.3751 -9198.9013 -7469.1105 295.3751 -546.9365 -465.7018 30178.2084 -546.9365 -465.7018
ENERGY: 300000 5.5461 3.6906 13.2692 0.0000 -10515.0836 1335.5865 0.0000 0.0000 1723.1212 -7433.8700 294.2362 -9156.9912 -7454.2760 295.9331 -988.0648 -886.8477 30725.4599 -390.1456 -305.1775
ENERGY: 600000 7.9161 3.4549 11.4693 0.0000 -10588.1954 1401.0930 0.0000 0.0000 1695.2074 -7469.0547 289.4697 -9164.2621 -7436.3117 296.7500 -456.8270 -363.6412 30235.4147 -133.3482 -43.0453
ENERGY: 900000 5.2747 7.9121 14.5987 0.0000 -10620.5726 1457.0387 0.0000 0.0000 1756.3422 -7379.4061 299.9089 -9135.7483 -7418.7418 297.8986 26.0911 70.0639 30655.5507 -24.0264 54.5153
ENERGY: 1200000 2.5751 6.4288 12.9784 0.0000 -10570.9954 1427.0209 0.0000 0.0000 1781.5976 -7340.3945 304.2215 -9121.9921 -7414.2914 299.1188 272.3936 362.6214 29751.2312 -38.1854 41.7913
ENERGY: 1500000 6.5683 4.7464 11.6225 0.0000 -10843.4276 1525.7889 0.0000 0.0000 1739.5379 -7555.1637 297.0395 -9294.7016 -7422.1841 299.5426 350.1126 451.8951 29969.5294 6.3768 82.8474
TCL: Running FEP window   9: Lambda1 0.39999999999999997 Lambda2 0.44999999999999996 [dLambda 0.04999999999999999]
TCL: Setting parameter firsttimestep to 0
TCL: Setting parameter alchLambda to 0.39999999999999997
Info: NONBONDED TABLE R-SQUARED SPACING: 0.0625
Info: NONBONDED TABLE SIZE: 705 POINTS
TCL: Setting parameter alchLambda2 to 0.44999999999999996
Info: NONBONDED TABLE R-SQUARED SPACING: 0.0625
Info: NONBONDED TABLE SIZE: 705 POINTS
TCL: Running for 1500000 steps
ETITLE: TS BOND ANGLE DIHED IMPRP ELECT VDW BOUNDARY MISC KINETIC TOTAL TEMP POTENTIAL TOTALAVG TEMPAVG PRESSURE GPRESSURE VOLUME PRESSAVG GPRESSAVG
ENERGY: 0 6.5683 4.7464 11.6225 0.0000 -10843.4279 1526.4760 0.0000 0.0000 1738.6614 -7555.3532 296.8898 -9294.0146 -7555.3532 296.8898 386.1025 467.2945 29969.5294 386.1025 467.2945
ENERGY: 300000 5.9766 6.3945 8.4457 0.0000 -10486.4159 1340.0561 0.0000 0.0000 1768.2417 -7357.3012 301.9409 -9125.5430 -7439.8409 298.6164 -755.5481 -697.5276 30504.7733 -31.1885 41.6618
ENERGY: 600000 7.8737 8.9014 10.9453 0.0000 -10458.4373 1334.8743 0.0000 0.0000 1757.6211 -7338.2215 300.1273 -9095.8426 -7411.6893 298.4960 -694.2320 -712.1989 30768.1339 -62.6847 -6.7939
ENERGY: 900000 2.7655 5.7809 11.5691 0.0000 -10553.1260 1397.7145 0.0000 0.0000 1787.0446 -7348.2514 305.1516 -9135.2960 -7401.3121 299.9527 -288.5276 -298.8378 30549.4624 -85.0585 -36.6340
ENERGY: 1200000 4.8322 5.6212 11.3757 0.0000 -10681.7267 1517.3202 0.0000 0.0000 1720.5441 -7422.0333 293.7961 -9142.5773 -7401.9034 299.3001 1085.8822 1111.1382 29900.6090 23.8286 75.9388
ENERGY: 1500000 5.8215 4.4661 14.8634 0.0000 -10595.4071 1448.0881 0.0000 0.0000 1695.4289 -7426.7391 289.5075 -9122.1680 -7397.2448 299.1706 29.1528 101.4330 30369.1113 -40.5164 12.4455
TCL: Running FEP window  10: Lambda1 0.44999999999999996 Lambda2 0.49999999999999994 [dLambda 0.04999999999999999]
TCL: Setting parameter firsttimestep to 0
TCL: Setting parameter alchLambda to 0.44999999999999996
Info: NONBONDED TABLE R-SQUARED SPACING: 0.0625
Info: NONBONDED TABLE SIZE: 705 POINTS
TCL: Setting parameter alchLambda2 to 0.49999999999999994
Info: NONBONDED TABLE R-SQUARED SPACING: 0.0625
Info: NONBONDED TABLE SIZE: 705 POINTS
TCL: Running for 1500000 steps
ETITLE: TS BOND ANGLE DIHED IMPRP ELECT VDW BOUNDARY MISC KINETIC TOTAL TEMP POTENTIAL TOTALAVG TEMPAVG PRESSURE GPRESSURE VOLUME PRESSAVG GPRESSAVG
ENERGY: 0 5.8215 4.4661 14.8634 0.0000 -10595.4069 1447.8198 0.0000 0.0000 1694.5580 -7427.8781 289.3588 -9122.4361 -7427.8781 289.3588 34.4975 113.6433 30369.1113 34.4975 113.6433
ENERGY: 300000 11.2622 7.0216 11.8649 0.0000 -10580.0667 1418.0785 0.0000 0.0000 1795.5362 -7336.3032 306.6016 -9131.8394 -7405.4999 300.2804 -61.2418 11.8191 30352.5303 -265.1395 -183.4870
ENERGY: 600000 2.1875 7.0707 14.3981 0.0000 -10732.1394 1479.3459 0.0000 0.0000 1755.0411 -7474.0961 299.6867 -9229.1372 -7408.2928 300.5321 472.4101 585.0787 29435.1927 -105.5315 -13.0642
ENERGY: 900000 4.2269 8.7184 14.9724 0.0000 -10453.4558 1324.3335 0.0000 0.0000 1769.1702 -7332.0343 302.0994 -9101.2045 -7394.4747 301.0541 -546.6204 -528.6540 30419.4379 -153.5418 -82.2724
ENERGY: 1200000 7.5218 2.4312 12.5343 0.0000 -10448.8646 1355.6954 0.0000 0.0000 1744.1760 -7326.5059 297.8315 -9070.6819 -7392.2501 301.0882 -415.3513 -350.5986 30506.8770 -163.8345 -90.5364
ENERGY: 1500000 5.0201 3.3393 12.9037 0.0000 -10599.6140 1439.7968 0.0000 0.0000 1764.8890 -7373.6651 301.3684 -9138.5541 -7392.5719 300.5578 146.6882 214.0667 30459.5009 -129.5829 -61.0399
TCL: Running FEP window  11: Lambda1 0.49999999999999994 Lambda2 0.5499999999999999 [dLambda 0.04999999999999999]
TCL: Setting parameter firsttimestep to 0
TCL: Setting parameter alchLambda to 0.49999999999999994
Info: NONBONDED TABLE R-SQUARED SPACING: 0.0625
Info: NONBONDED TABLE SIZE: 705 POINTS
TCL: Setting parameter alchLambda2 to 0.5499999999999999
Info: NONBONDED TABLE R-SQUARED SPACING: 0.0625
Info: NONBONDED TABLE SIZE: 705 POINTS
TCL: Running for 1500000 steps
ETITLE: TS BOND ANGLE DIHED IMPRP ELECT VDW BOUNDARY MISC KINETIC TOTAL TEMP POTENTIAL TOTALAVG TEMPAVG PRESSURE GPRESSURE VOLUME PRESSAVG GPRESSAVG
ENERGY: 0 5.0201 3.3393 12.9037 0.0000 -10599.6132 1440.1787 0.0000 0.0000 1764.0021 -7374.1694 301.2169 -9138.1714 -7374.1694 301.2169 141.1056 226.3772 30459.5009 141.1056 226.3772
ENERGY: 300000 3.8703 3.6724 11.2112 0.0000 -10645.9954 1420.9184 0.0000 0.0000 1745.7270 -7460.5961 298.0963 -9206.3231 -7439.9329 301.0464 -188.4228 -99.0879 30159.1433 24.5335 121.4721
ENERGY: 600000 5.1650 5.5852 10.3511 0.0000 -10564.0849 1371.9589 0.0000 0.0000 1749.4205 -7421.6041 298.7270 -9171.0246 -7429.5091 300.0165 -779.8377 -637.5406 30963.2352 -135.4866 -48.8093
ENERGY: 900000 6.9141 6.1271 16.4550 0.0000 -10685.4480 1420.4326 0.0000 0.0000 1718.5591 -7516.9601 293.4572 -9235.5192 -7429.1247 299.4952 20.5944 27.2350 29659.8299 -135.8347 -59.5867
ENERGY: 1200000 8.3918 6.2633 15.0861 0.0000 -10639.8998 1472.0998 0.0000 0.0000 1767.3964 -7370.6624 301.7965 -9138.0588 -7417.2852 299.7437 284.3451 394.5292 30392.9320 -94.5411 -15.1625
ENERGY: 1500000 7.5285 4.3618 11.7153 0.0000 -10596.4336 1405.7044 0.0000 0.0000 1803.1202 -7364.0034 307.8966 -9167.1236 -7413.4145 300.6519 160.4724 219.9942 29909.6409 39.7193 113.2124
TCL: Running FEP window  12: Lambda1 0.5499999999999999 Lambda2 0.6    [dLambda 0.050000000000000044]
TCL: Setting parameter firsttimestep to 0
TCL: Setting parameter alchLambda to 0.5499999999999999
Info: NONBONDED TABLE R-SQUARED SPACING: 0.0625
Info: NONBONDED TABLE SIZE: 705 POINTS
TCL: Setting parameter alchLambda2 to 0.6
Info: NONBONDED TABLE R-SQUARED SPACING: 0.0625
Info: NONBONDED TABLE SIZE: 705 POINTS
TCL: Running for 1500000 steps
ETITLE: TS BOND ANGLE DIHED IMPRP ELECT VDW BOUNDARY MISC KINETIC TOTAL TEMP POTENTIAL TOTALAVG TEMPAVG PRESSURE GPRESSURE VOLUME PRESSAVG GPRESSAVG
ENERGY: 0 7.5285 4.3618 11.7153 0.0000 -10596.8514 1404.8513 0.0000 0.0000 1802.2895 -7366.1049 307.7548 -9168.3944 -7366.1049 307.7548 145.2144 222.5696 29909.6409 145.2144 222.5696
ENERGY: 300000 5.0688 3.4587 11.2289 0.0000 -10513.9046 1345.2292 0.0000 0.0000 1815.6984 -7333.2207 310.0444 -9148.9191 -7386.6995 304.1803 -314.0727 -237.0748 30171.2931 -47.4039 17.8949
ENERGY: 600000 3.8667 5.7801 12.5867 0.0000 -10681.0695 1433.3827 0.0000 0.0000 1721.9854 -7503.4680 294.0422 -9225.4534 -7426.0806 300.2943 -388.8610 -377.4468 30628.4487 -123.5622 -70.0875
ENERGY: 900000 6.9175 6.0495 11.9891 0.0000 -10491.6271 1346.1668 0.0000 0.0000 1800.7248 -7319.7795 307.4876 -9120.5043 -7402.3593 300.8152 -541.0427 -451.0119 30140.1266 -294.9512 -241.7395
ENERGY: 1200000 4.9459 3.5624 13.4162 0.0000 -10651.7468 1458.7697 0.0000 0.0000 1736.7359 -7434.3167 296.5610 -9171.0527 -7392.8728 300.4386 180.1371 262.2669 30221.1157 -238.3021 -186.9274
ENERGY: 1500000 6.3982 3.3360 11.6620 0.0000 -10526.5694 1356.2407 0.0000 0.0000 1844.0999 -7304.8327 314.8942 -9148.9326 -7381.9283 301.3448 -713.8847 -626.2205 30453.7954 -321.9714 -260.6862
TCL: Running FEP window  13: Lambda1 0.6    Lambda2 0.65   [dLambda 0.050000000000000044]
TCL: Setting parameter firsttimestep to 0
TCL: Setting parameter alchLambda to 0.6
Info: NONBONDED TABLE R-SQUARED SPACING: 0.0625
Info: NONBONDED TABLE SIZE: 705 POINTS
TCL: Setting parameter alchLambda2 to 0.65
Info: NONBONDED TABLE R-SQUARED SPACING: 0.0625
Info: NONBONDED TABLE SIZE: 705 POINTS
TCL: Running for 1500000 steps
ETITLE: TS BOND ANGLE DIHED IMPRP ELECT VDW BOUNDARY MISC KINETIC TOTAL TEMP POTENTIAL TOTALAVG TEMPAVG PRESSURE GPRESSURE VOLUME PRESSAVG GPRESSAVG
ENERGY: 0 6.3982 3.3360 11.6619 0.0000 -10526.9689 1355.5581 0.0000 0.0000 1843.2293 -7306.7854 314.7456 -9150.0146 -7306.7854 314.7456 -706.2102 -620.6397 30453.7954 -706.2102 -620.6397
ENERGY: 300000 5.6319 6.5529 11.6129 0.0000 -10692.1379 1503.0353 0.0000 0.0000 1739.9736 -7425.3313 297.1139 -9165.3049 -7387.4597 300.9236 329.7974 421.2647 30428.8483 -84.2203 -11.5292
ENERGY: 600000 2.9829 3.0710 11.9835 0.0000 -10654.1451 1468.9027 0.0000 0.0000 1738.3046 -7428.9003 296.8289 -9167.2050 -7399.5313 300.4341 189.6572 187.4603 30494.9306 23.3037 77.7714
ENERGY: 900000 5.8269 6.2902 13.1577 0.0000 -10806.4568 1522.0484 0.0000 0.0000 1758.9100 -7500.2235 300.3474 -9259.1336 -7420.6959 300.3462 309.7502 413.5327 30260.4048 -19.5770 38.7181
ENERGY: 1200000 3.6888 3.8503 17.3792 0.0000 -10706.3396 1446.1771 0.0000 0.0000 1778.8978 -7456.3464 303.7605 -9235.2442 -7417.7528 301.4634 -23.1008 -23.6315 30669.4382 -71.9632 -13.0937
ENERGY: 1500000 3.6466 3.2130 9.9025 0.0000 -10695.1889 1469.3426 0.0000 0.0000 1742.3750 -7466.7092 297.5239 -9209.0842 -7416.7767 301.1104 -11.7424 75.1512 30737.9874 -21.2440 38.6923
TCL: Running FEP window  14: Lambda1 0.65   Lambda2 0.7000000000000001 [dLambda 0.050000000000000044]
TCL: Setting parameter firsttimestep to 0
TCL: Setting parameter alchLambda to 0.65
Info: NONBONDED TABLE R-SQUARED SPACING: 0.0625
Info: NONBONDED TABLE SIZE: 705 POINTS
TCL: Setting parameter alchLambda2 to 0.7000000000000001
Info: NONBONDED TABLE R-SQUARED SPACING: 0.0625
Info: NONBONDED TABLE SIZE: 705 POINTS
TCL: Running for 1500000 steps
ETITLE: TS BOND ANGLE DIHED IMPRP ELECT VDW BOUNDARY MISC KINETIC TOTAL TEMP POTENTIAL TOTALAVG TEMPAVG PRESSURE GPRESSURE VOLUME PRESSAVG GPRESSAVG
ENERGY: 0 3.6466 3.2130 9.9025 0.0000 -10695.4060 1468.3039 0.0000 0.0000 1741.4831 -7468.8569 297.3716 -9210.3400 -7468.8569 297.3716 4.9530 79.5363 30737.9874 4.9530 79.5363
ENERGY: 300000 4.6877 5.6864 12.4400 0.0000 -10467.6273 1351.2929 0.0000 0.0000 1766.3725 -7327.1477 301.6217 -9093.5202 -7387.6999 299.8094 -378.6646 -314.3155 30509.4587 -138.5672 -58.7983
ENERGY: 600000 5.0776 3.2754 12.2864 0.0000 -10689.4958 1436.8901 0.0000 0.0000 1760.3409 -7471.6255 300.5917 -9231.9663 -7404.1359 300.3582 2.3345 85.8398 30105.2535 -37.8179 30.8505
ENERGY: 900000 6.0647 6.7888 14.1060 0.0000 -10669.9216 1446.4677 0.0000 0.0000 1757.4453 -7439.0491 300.0973 -9196.4944 -7408.4091 301.1781 8.5642 27.7423 30321.3674 -9.0042 53.4128
ENERGY: 1200000 5.5679 4.8404 18.5553 0.0000 -10427.4180 1265.7010 0.0000 0.0000 1740.5546 -7392.1989 297.2131 -9132.7535 -7407.1696 300.5653 -858.8494 -806.9171 30040.1303 -168.4384 -101.1147
ENERGY: 1500000 3.4672 4.7305 14.5713 0.0000 -10755.5172 1506.0235 0.0000 0.0000 1780.0914 -7446.6333 303.9643 -9226.7247 -7408.8286 300.5214 551.7864 607.0874 30085.0788 -79.7714 -18.5568
TCL: Running FEP window  15: Lambda1 0.7000000000000001 Lambda2 0.7500000000000001 [dLambda 0.050000000000000044]
TCL: Setting parameter firsttimestep to 0
TCL: Setting parameter alchLambda to 0.7000000000000001
Info: NONBONDED TABLE R-SQUARED SPACING: 0.0625
Info: NONBONDED TABLE SIZE: 705 POINTS
TCL: Setting parameter alchLambda2 to 0.7500000000000001
Info: NONBONDED TABLE R-SQUARED SPACING: 0.0625
Info: NONBONDED TABLE SIZE: 705 POINTS
TCL: Running for 1500000 steps
ETITLE: TS BOND ANGLE DIHED IMPRP ELECT VDW BOUNDARY MISC KINETIC TOTAL TEMP POTENTIAL TOTALAVG TEMPAVG PRESSURE GPRESSURE VOLUME PRESSAVG GPRESSAVG
ENERGY: 0 3.4672 4.7305 14.5713 0.0000 -10755.8206 1505.7647 0.0000 0.0000 1779.2245 -7448.0624 303.8163 -9227.2869 -7448.0624 303.8163 531.9075 622.6239 30085.0788 531.9075 622.6239
ENERGY: 300000 4.5467 5.8485 11.7177 0.0000 -10550.7955 1392.3777 0.0000 0.0000 1728.5070 -7407.7981 295.1558 -9136.3050 -7401.5766 300.2938 -321.4008 -254.9477 30431.2150 -111.9714 -39.8294
ENERGY: 600000 4.2091 3.7362 12.1956 0.0000 -10445.1761 1361.0168 0.0000 0.0000 1759.6461 -7304.3723 300.4731 -9064.0184 -7390.0769 298.9235 -367.3980 -270.1975 31027.4286 -297.8184 -211.9671
ENERGY: 900000 10.6634 6.5473 10.0982 0.0000 -10691.0117 1478.0682 0.0000 0.0000 1743.0812 -7442.5535 297.6445 -9185.6347 -7403.3142 298.8667 394.8341 511.1373 29706.6795 -255.0890 -173.4762
ENERGY: 1200000 6.6895 2.9288 14.2657 0.0000 -10614.7518 1454.6752 0.0000 0.0000 1781.0886 -7355.1040 304.1346 -9136.1927 -7391.4015 299.8617 159.3626 315.1894 30794.9670 -229.5266 -144.0945
ENERGY: 1500000 6.2157 6.0803 10.0871 0.0000 -10624.6548 1416.8996 0.0000 0.0000 1682.2119 -7503.1602 287.2506 -9185.3721 -7398.2515 299.4001 -307.5654 -173.2878 30442.0880 -168.7807 -79.3817
TCL: Running FEP window  16: Lambda1 0.7500000000000001 Lambda2 0.8000000000000002 [dLambda 0.050000000000000044]
TCL: Setting parameter firsttimestep to 0
TCL: Setting parameter alchLambda to 0.7500000000000001
Info: NONBONDED TABLE R-SQUARED SPACING: 0.0625
Info: NONBONDED TABLE SIZE: 705 POINTS
TCL: Setting parameter alchLambda2 to 0.8000000000000002
Info: NONBONDED TABLE R-SQUARED SPACING: 0.0625
Info: NONBONDED TABLE SIZE: 705 POINTS
TCL: Running for 1500000 steps
ETITLE: TS BOND ANGLE DIHED IMPRP ELECT VDW BOUNDARY MISC KINETIC TOTAL TEMP POTENTIAL TOTALAVG TEMPAVG PRESSURE GPRESSURE VOLUME PRESSAVG GPRESSAVG
ENERGY: 0 6.2157 6.0803 10.0871 0.0000 -10624.8748 1416.8055 0.0000 0.0000 1681.3149 -7504.3713 287.0974 -9185.6862 -7504.3713 287.0974 -252.6491 -159.4390 30442.0880 -252.6491 -159.4390
ENERGY: 300000 4.6959 2.9110 11.5783 0.0000 -10719.5617 1523.6366 0.0000 0.0000 1721.9202 -7454.8196 294.0311 -9176.7398 -7443.7863 296.4867 892.9671 945.8075 29992.3913 327.6395 384.6438
ENERGY: 600000 10.2287 3.6747 14.9921 0.0000 -10553.3107 1367.6451 0.0000 0.0000 1759.1124 -7397.6577 300.3820 -9156.7701 -7449.7359 298.2732 -532.9809 -474.6102 30691.3527 160.2954 212.6045
ENERGY: 900000 7.2039 3.7481 15.8327 0.0000 -10537.8853 1356.6484 0.0000 0.0000 1771.6493 -7382.8029 302.5227 -9154.4522 -7434.5653 298.1671 -674.0388 -664.4233 30839.6499 52.6625 102.2239
ENERGY: 1200000 8.1315 4.7823 10.7592 0.0000 -10521.1368 1392.9676 0.0000 0.0000 1711.2071 -7393.2892 292.2018 -9104.4963 -7424.4797 298.3151 -173.9913 -159.3731 30662.7775 128.3482 177.2873
ENERGY: 1500000 4.2816 5.9502 9.6977 0.0000 -10626.1656 1385.6106 0.0000 0.0000 1750.8993 -7469.7262 298.9795 -9220.6255 -7423.6649 298.2775 -82.0817 -18.1065 29979.0498 45.1637 96.9259
TCL: Running FEP window  17: Lambda1 0.8000000000000002 Lambda2 0.8500000000000002 [dLambda 0.050000000000000044]
TCL: Setting parameter firsttimestep to 0
TCL: Setting parameter alchLambda to 0.8000000000000002
Info: NONBONDED TABLE R-SQUARED SPACING: 0.0625
Info: NONBONDED TABLE SIZE: 705 POINTS
TCL: Setting parameter alchLambda2 to 0.8500000000000002
Info: NONBONDED TABLE R-SQUARED SPACING: 0.0625
Info: NONBONDED TABLE SIZE: 705 POINTS
TCL: Running for 1500000 steps
ETITLE: TS BOND ANGLE DIHED IMPRP ELECT VDW BOUNDARY MISC KINETIC TOTAL TEMP POTENTIAL TOTALAVG TEMPAVG PRESSURE GPRESSURE VOLUME PRESSAVG GPRESSAVG
ENERGY: 0 4.2816 5.9502 9.6977 0.0000 -10626.4472 1386.0988 0.0000 0.0000 1750.0233 -7470.3956 298.8299 -9220.4189 -7470.3956 298.8299 -80.4399 7.3524 29979.0498 -80.4399 7.3524
ENERGY: 300000 6.4359 4.8074 10.2484 0.0000 -10653.2504 1475.5988 0.0000 0.0000 1732.3903 -7423.7696 295.8189 -9156.1599 -7408.4164 300.2601 454.4921 496.9732 30610.7330 202.6401 266.0842
ENERGY: 600000 5.5716 2.2359 11.5952 0.0000 -10551.1519 1390.4146 0.0000 0.0000 1764.6166 -7376.7179 301.3218 -9141.3346 -7412.3995 298.9084 -342.6481 -275.1639 30506.5528 -21.5952 26.4153
ENERGY: 900000 6.0597 4.4224 10.3417 0.0000 -10678.3174 1544.9821 0.0000 0.0000 1788.9044 -7323.6071 305.4692 -9112.5115 -7407.1810 298.3561 1010.7223 1136.3756 30256.8969 30.5935 88.4890
ENERGY: 1200000 4.8818 4.6236 13.2324 0.0000 -10644.8350 1477.6650 0.0000 0.0000 1753.1732 -7391.2591 299.3678 -9144.4323 -7409.4823 299.2484 308.4033 364.6340 30623.5723 86.1324 152.7581
ENERGY: 1500000 4.2587 3.5895 13.2238 0.0000 -10483.8691 1304.5198 0.0000 0.0000 1812.1140 -7346.1633 309.4324 -9158.2773 -7397.7720 300.5754 -1038.7211 -956.4543 30529.5025 20.0217 85.1623
TCL: Running FEP window  18: Lambda1 0.8500000000000002 Lambda2 0.9000000000000002 [dLambda 0.050000000000000044]
TCL: Setting parameter firsttimestep to 0
TCL: Setting parameter alchLambda to 0.8500000000000002
Info: NONBONDED TABLE R-SQUARED SPACING: 0.0625
Info: NONBONDED TABLE SIZE: 705 POINTS
TCL: Setting parameter alchLambda2 to 0.9000000000000002
Info: NONBONDED TABLE R-SQUARED SPACING: 0.0625
Info: NONBONDED TABLE SIZE: 705 POINTS
TCL: Running for 1500000 steps
ETITLE: TS BOND ANGLE DIHED IMPRP ELECT VDW BOUNDARY MISC KINETIC TOTAL TEMP POTENTIAL TOTALAVG TEMPAVG PRESSURE GPRESSURE VOLUME PRESSAVG GPRESSAVG
ENERGY: 0 4.2587 3.5895 13.2238 0.0000 -10484.5528 1305.1500 0.0000 0.0000 1811.2271 -7347.1037 309.2809 -9158.3308 -7347.1037 309.2809 -1043.3012 -934.2909 30529.5025 -1043.3012 -934.2909
ENERGY: 300000 4.7287 5.3741 11.9046 0.0000 -10595.0334 1401.0156 0.0000 0.0000 1814.8372 -7357.1731 309.8974 -9172.0103 -7317.4355 306.3958 81.4289 121.2864 30335.9973 -245.0151 -178.4610
ENERGY: 600000 3.6567 3.5717 11.1666 0.0000 -10506.2647 1399.0129 0.0000 0.0000 1752.5057 -7336.3512 299.2538 -9088.8569 -7353.4902 303.0373 298.1921 321.7384 30566.1056 -183.5972 -117.0885
ENERGY: 900000 5.4922 4.4105 11.5953 0.0000 -10574.5006 1404.1321 0.0000 0.0000 1728.4481 -7420.4224 295.1458 -9148.8705 -7369.5210 301.7481 -260.9011 -188.7368 30389.2027 -209.1485 -149.4989
ENERGY: 1200000 8.5408 5.9241 13.3080 0.0000 -10711.8666 1524.2935 0.0000 0.0000 1752.1543 -7407.6459 299.1938 -9159.8002 -7377.2479 301.3197 628.9015 667.4932 30550.1339 -157.2762 -97.0859
ENERGY: 1500000 5.5634 7.0113 12.5234 0.0000 -10671.6376 1378.6149 0.0000 0.0000 1835.9750 -7431.9497 313.5068 -9267.9247 -7379.7358 302.2420 -464.6717 -471.7276 30691.9739 -194.9377 -135.6186
TCL: Running FEP window  19: Lambda1 0.9000000000000002 Lambda2 0.9500000000000003 [dLambda 0.050000000000000044]
TCL: Setting parameter firsttimestep to 0
TCL: Setting parameter alchLambda to 0.9000000000000002
Info: NONBONDED TABLE R-SQUARED SPACING: 0.0625
Info: NONBONDED TABLE SIZE: 705 POINTS
TCL: Setting parameter alchLambda2 to 0.9500000000000003
Info: NONBONDED TABLE R-SQUARED SPACING: 0.0625
Info: NONBONDED TABLE SIZE: 705 POINTS
TCL: Running for 1500000 steps
ETITLE: TS BOND ANGLE DIHED IMPRP ELECT VDW BOUNDARY MISC KINETIC TOTAL TEMP POTENTIAL TOTALAVG TEMPAVG PRESSURE GPRESSURE VOLUME PRESSAVG GPRESSAVG
ENERGY: 0 5.5634 7.0113 12.5234 0.0000 -10672.1534 1378.3986 0.0000 0.0000 1835.1254 -7433.5313 313.3618 -9268.6567 -7433.5313 313.3618 -535.2932 -457.9789 30691.9739 -535.2932 -457.9789
ENERGY: 300000 6.0990 6.3475 8.1276 0.0000 -10570.3524 1440.9249 0.0000 0.0000 1788.2454 -7320.6081 305.3566 -9108.8534 -7403.1284 302.7289 464.2112 561.9894 29909.0481 46.0997 100.8944
ENERGY: 600000 7.9323 9.3544 7.8605 0.0000 -10587.3576 1358.2674 0.0000 0.0000 1816.7587 -7387.1843 310.2255 -9203.9430 -7397.3260 303.0520 -708.6402 -662.4999 30424.4429 -131.7062 -66.4986
ENERGY: 900000 6.5101 6.4518 8.1990 0.0000 -10630.6805 1379.4728 0.0000 0.0000 1723.4450 -7506.6018 294.2915 -9230.0468 -7408.3468 302.5035 -616.0780 -477.3342 30405.4688 -238.3104 -165.4355
ENERGY: 1200000 10.6265 2.3085 10.9298 0.0000 -10647.4897 1438.6098 0.0000 0.0000 1725.7260 -7459.2892 294.6810 -9185.0152 -7405.5528 302.1452 120.9159 187.0287 30153.1715 -217.5312 -148.6819
ENERGY: 1500000 4.8944 6.1414 10.4219 0.0000 -10490.6593 1368.7080 0.0000 0.0000 1700.0662 -7400.4274 290.2994 -9100.4936 -7396.8929 301.4146 -572.1185 -510.0536 30780.7705 -213.8543 -145.3423
TCL: Running FEP window  20: Lambda1 0.9500000000000003 Lambda2 1.0    [dLambda 0.04999999999999971]
TCL: Setting parameter firsttimestep to 0
TCL: Setting parameter alchLambda to 0.9500000000000003
Info: NONBONDED TABLE R-SQUARED SPACING: 0.0625
Info: NONBONDED TABLE SIZE: 705 POINTS
TCL: Setting parameter alchLambda2 to 1.0
Info: NONBONDED TABLE R-SQUARED SPACING: 0.0625
Info: NONBONDED TABLE SIZE: 705 POINTS
TCL: Running for 1500000 steps
ETITLE: TS BOND ANGLE DIHED IMPRP ELECT VDW BOUNDARY MISC KINETIC TOTAL TEMP POTENTIAL TOTALAVG TEMPAVG PRESSURE GPRESSURE VOLUME PRESSAVG GPRESSAVG
ENERGY: 0 4.8944 6.1414 10.4219 0.0000 -10490.9364 1368.5004 0.0000 0.0000 1699.1722 -7401.8061 290.1467 -9100.9784 -7401.8061 290.1467 -571.8555 -491.6340 30780.7705 -571.8555 -491.6340
ENERGY: 300000 3.5784 5.0300 13.1746 0.0000 -10597.5243 1385.5734 0.0000 0.0000 1733.0162 -7457.1515 295.9258 -9190.1677 -7381.9123 298.0082 -436.3069 -352.8793 30371.7044 -281.6437 -203.2091
ENERGY: 600000 8.0177 5.8163 12.3243 0.0000 -10596.7085 1391.6093 0.0000 0.0000 1783.2497 -7395.6912 304.5036 -9178.9409 -7365.8787 299.4503 49.7259 145.5673 29959.2168 -249.5654 -171.4985
ENERGY: 900000 4.2554 1.9917 8.9955 0.0000 -10710.3897 1477.9189 0.0000 0.0000 1682.5656 -7534.6627 287.3110 -9217.2283 -7387.5355 298.0862 248.3497 286.7759 30470.5978 -183.3362 -119.2597
ENERGY: 1200000 7.1613 2.6683 10.9260 0.0000 -10595.3286 1400.8618 0.0000 0.0000 1797.8896 -7375.8216 307.0035 -9173.7112 -7383.9510 298.8575 -237.2861 -209.7610 30787.4638 -146.8898 -85.5083
ENERGY: 1500000 6.8213 6.8528 12.7240 0.0000 -10659.9985 1462.8031 0.0000 0.0000 1792.1345 -7378.6629 306.0207 -9170.7974 -7389.6961 299.8087 474.8084 492.0565 30255.9991 -76.0461 -15.9156
TCL: Exiting due to exit command.
