Info: SIMULATION PARAMETERS:
Info: TIMESTEP               2
Info: NUMBER OF STEPS        0
Info: STEPS PER CYCLE        10
Info: PERIODIC CELL BASIS 1  31.6486 0 0
Info: PERIODIC CELL BASIS 2  0 29.9741 0
Info: PERIODIC CELL BASIS 3  0 0 31.5536
Info: PERIODIC CELL CENTER   0 0 0
Info: WRAPPING WATERS AROUND PERIODIC BOUNDARIES ON OUTPUT.
Info: WRAPPING ALL CLUSTERS AROUND PERIODIC BOUNDARIES ON OUTPUT.
Info: FIRST LDB TIMESTEP     50
Info: LAST LDB TIMESTEP     -1
Info: HOM BACKGROUND SCALING 1
Info: PME BACKGROUND SCALING 1
Info: MIN ATOMS PER PATCH    40
Info: EMPTY PATCH LOAD       40 ATOMS
Info: VELOCITY FILE          mobley_5063386_equil.vel
Info: CENTER OF MASS MOVING INITIALLY? NO
Info: DIELECTRIC             1
Info: EXCLUDE                SCALED ONE-FOUR
Info: 1-4 ELECTROSTATICS SCALED BY 0.833333
Info: MODIFIED 1-4 VDW PARAMETERS WILL BE USED
Info: DCD FILENAME           mobley_5063386_prod.dcd
Info: DCD FREQUENCY          100000
Info: DCD FIRST STEP         100000
Info: DCD FILE WILL CONTAIN UNIT CELL DATA
Info: XST FILENAME           mobley_5063386_prod.xst
Info: XST FREQUENCY          100000
Info: NO VELOCITY DCD OUTPUT
Info: NO FORCE DCD OUTPUT
Info: OUTPUT FILENAME        mobley_5063386_prod
Info: BINARY OUTPUT FILES WILL BE USED
Info: RESTART FILENAME       mobley_5063386_prod.restart
Info: RESTART FREQUENCY      100000
Info: BINARY RESTART FILES WILL BE USED
Info: CUTOFF                 9
Info: PAIRLIST DISTANCE      11
Info: PAIRLIST SHRINK RATE   0.01
Info: PAIRLIST GROW RATE     0.01
Info: PAIRLIST TRIGGER       0.3
Info: PAIRLISTS PER CYCLE    2
Info: PAIRLISTS ENABLED
Info: MARGIN                 2
Info: HYDROGEN GROUP CUTOFF  2.5
Info: PATCH DIMENSION        15.5
Info: ENERGY OUTPUT STEPS    100000
Info: ENERGY EVALUATION STEPS    100000
Info: OUTPUT ENERGY PRECISION 4
Info: CROSSTERM ENERGY INCLUDED IN DIHEDRAL
Info: TIMING OUTPUT STEPS    1000000
Info: PRESSURE OUTPUT STEPS  100000
Info: ALCHEMICAL FEP ON
Info: FEP CURRENT LAMBDA VALUE     0
Info: FEP COMPARISON LAMBDA VALUE  0.05
Info: FEP INTRA-ALCHEMICAL NON-BONDED INTERACTIONS WILL BE RETAINED
Info: FEP INTRA-ALCHEMICAL BONDED INTERACTIONS WILL BE RETAINED
Info: FEP VDW SHIFTING COEFFICIENT 5
Info: FEP ELEC. ACTIVE FOR ANNIHILATED PARTICLES BETWEEN LAMBDA = 0 AND LAMBDA = 0.5
Info: FEP ELEC. ACTIVE FOR EXNIHILATED PARTICLES BETWEEN LAMBDA = 0.5 AND LAMBDA = 1
Info: FEP VDW ACTIVE FOR ANNIHILATED PARTICLES BETWEEN LAMBDA = 0 AND LAMBDA = 1
Info: FEP VDW ACTIVE FOR EXNIHILATED PARTICLES BETWEEN LAMBDA = 0 AND LAMBDA = 1
Info: FEP BOND ACTIVE FOR ANNIHILATED PARTICLES BETWEEN LAMBDA = 1 AND LAMBDA = 1
Info: FEP BOND ACTIVE FOR EXNIHILATED PARTICLES BETWEEN LAMBDA = 0 AND LAMBDA = 0
Info: LANGEVIN DYNAMICS ACTIVE
Info: LANGEVIN TEMPERATURE   300
Info: LANGEVIN USING BBK INTEGRATOR
Info: LANGEVIN DAMPING COEFFICIENT IS 1 INVERSE PS
Info: LANGEVIN DYNAMICS APPLIED TO HYDROGENS
Info: LANGEVIN PISTON PRESSURE CONTROL ACTIVE
Info:        TARGET PRESSURE IS 1.01325 BAR
Info:     OSCILLATION PERIOD IS 50 FS
Info:             DECAY TIME IS 25 FS
Info:     PISTON TEMPERATURE IS 300 K
Info:       PRESSURE CONTROL IS GROUP-BASED
Info:    INITIAL STRAIN RATE IS -0.000306609 -0.000306609 -0.000306609
Info:       CELL FLUCTUATION IS ISOTROPIC
Info: PARTICLE MESH EWALD (PME) ACTIVE
Info: PME TOLERANCE               1e-06
Info: PME EWALD COEFFICIENT       0.348832
Info: PME INTERPOLATION ORDER     4
Info: PME GRID DIMENSIONS         32 32 32
Info: PME MAXIMUM GRID SPACING    1
Info: PME CALCULATION WILL BE PERFORMED ON GPU
Info: FULL ELECTROSTATIC EVALUATION FREQUENCY      2
Info: USING VERLET I (r-RESPA) MTS SCHEME.
Info: C1 SPLITTING OF LONG RANGE ELECTROSTATICS
Info: PLACING ATOMS IN PATCHES BY HYDROGEN GROUPS
Info: RIGID BONDS TO HYDROGEN : ALL
Info:         ERROR TOLERANCE : 1e-08
Info:          MAX ITERATIONS : 100
Info: RIGID WATER USING SETTLE ALGORITHM
Info: RANDOM NUMBER SEED     1743749519
Info: USE HYDROGEN BONDS?    NO
Info: Using AMBER format force field!
Info: AMBER PARM FILE        mobley_5063386.prmtop
Info: COORDINATE PDB         mobley_5063386.pdb
Info: Exclusions will be read from PARM file!
Info: SCNB (VDW SCALING)     2
Info: USING ARITHMETIC MEAN TO COMBINE L-J SIGMA PARAMETERS
Info: BINARY COORDINATES     mobley_5063386_equil.coor
Info: SUMMARY OF PARAMETERS:
Info: 8 BONDS
Info: 7 ANGLES
Info:   7 HARMONIC
Info:   0 COSINE-BASED
Info: 4 DIHEDRAL
Info: 0 IMPROPER
Info: 0 CROSSTERM
Info: 0 VDW
Info: 28 VDW_PAIRS
Info: 0 NBTHOLE_PAIRS
Info: To read alchdata from file: mobley_5063386.pdb
Info: To read alchflag data from column: 5
Info: STRUCTURE SUMMARY:
Info: 2919 ATOMS
Info: 2919 BONDS
Info: 22 ANGLES
Info: 36 DIHEDRALS
Info: 0 IMPROPERS
Info: 0 CROSSTERMS
Info: 2968 EXCLUSIONS
Info: 2909 RIGID BONDS
Info: ALCH: 0 ATOMS TO DISAPPEAR IN FINAL STATE
Info: ALCH: 15 ATOMS TO APPEAR IN FINAL STATE
Info: 5848 DEGREES OF FREEDOM
Info: 978 HYDROGEN GROUPS
Info: 3 ATOMS IN LARGEST HYDROGEN GROUP
Info: 978 MIGRATION GROUPS
Info: 3 ATOMS IN LARGEST MIGRATION GROUP
Info: TOTAL MASS = 17578.6 amu
Info: TOTAL CHARGE = -9.99495e-05 e
Info: MASS DENSITY = 0.975201 g/cm^3
Info: ATOM DENSITY = 0.097518 atoms/A^3
Info: ADDED 0 IMPLICIT EXCLUSIONS
Info: NONBONDED TABLE R-SQUARED SPACING: 0.0625
Info: NONBONDED TABLE SIZE: 705 POINTS
Info: REMOVING COM VELOCITY -0.00266326 -0.0489168 0.109105
Info: Use 3D box decompostion in PME FFT.
Info: Updated CUDA force table with 4096 elements.
Info: Updated CUDA LJ table with 7 x 7 elements.
Info: Found 17 unique exclusion lists needing 36 bytes
TCL: Running for 1500000 steps
ETITLE: TS BOND ANGLE DIHED IMPRP ELECT VDW BOUNDARY MISC KINETIC TOTAL TEMP POTENTIAL TOTALAVG TEMPAVG PRESSURE GPRESSURE VOLUME PRESSAVG GPRESSAVG
ENERGY: 0 3.8275 2.0176 5.4577 0.0000 -10692.8927 1478.2231 0.0000 0.0000 1745.0389 -7458.3279 300.3227 -9203.3668 -7458.3279 300.3227 171.6118 246.9657 29932.9406 171.6118 246.9657
ENERGY: 300000 2.3045 4.5948 2.6526 0.0000 -10583.2758 1430.6515 0.0000 0.0000 1756.5294 -7386.5430 302.3002 -9143.0724 -7412.7773 300.7987 -291.5749 -244.8244 30540.6670 -111.3644 -69.6115
ENERGY: 600000 3.5126 6.2786 6.3875 0.0000 -10653.0438 1525.9644 0.0000 0.0000 1726.7332 -7384.1675 297.1723 -9110.9007 -7427.3293 299.0533 818.7086 886.1620 29849.4173 21.4317 71.7533
ENERGY: 900000 3.8507 2.6853 1.7954 0.0000 -10682.8773 1512.2596 0.0000 0.0000 1668.9542 -7493.3321 287.2284 -9162.2863 -7425.6485 299.3771 571.7431 641.0995 29950.2154 68.8900 130.8931
ENERGY: 1200000 0.8757 3.0435 4.5607 0.0000 -10764.3147 1510.1926 0.0000 0.0000 1737.1889 -7508.4533 298.9717 -9245.6422 -7430.0453 299.2798 394.5982 444.3275 29782.9577 114.3671 181.2963
ENERGY: 1500000 5.5792 4.4242 7.1341 0.0000 -10618.6028 1434.1158 0.0000 0.0000 1748.2505 -7419.0990 300.8754 -9167.3495 -7436.3026 299.0287 6.5222 123.1444 29716.0424 70.0924 138.5960
TCL: Running FEP window   2: Lambda1 0.05   Lambda2 0.1    [dLambda 0.05  ]
TCL: Setting parameter firsttimestep to 0
TCL: Setting parameter alchLambda to 0.05
Info: NONBONDED TABLE R-SQUARED SPACING: 0.0625
Info: NONBONDED TABLE SIZE: 705 POINTS
TCL: Setting parameter alchLambda2 to 0.1
Info: NONBONDED TABLE R-SQUARED SPACING: 0.0625
Info: NONBONDED TABLE SIZE: 705 POINTS
TCL: Running for 1500000 steps
ETITLE: TS BOND ANGLE DIHED IMPRP ELECT VDW BOUNDARY MISC KINETIC TOTAL TEMP POTENTIAL TOTALAVG TEMPAVG PRESSURE GPRESSURE VOLUME PRESSAVG GPRESSAVG
ENERGY: 0 5.5792 4.4242 7.1341 0.0000 -10618.6053 1436.4500 0.0000 0.0000 1747.3697 -7417.6481 300.7238 -9165.0178 -7417.6481 300.7238 24.3548 127.1331 29716.0424 24.3548 127.1331
ENERGY: 300000 1.0672 2.5241 4.3756 0.0000 -10647.0845 1494.6888 0.0000 0.0000 1770.8151 -7373.6138 304.7588 -9144.4288 -7372.0315 302.4924 678.6050 759.0123 29730.6989 186.3570 254.6982
ENERGY: 600000 2.4409 1.3098 6.4654 0.0000 -10608.9825 1412.8630 0.0000 0.0000 1750.5109 -7435.3927 301.2644 -9185.9036 -7382.3903 301.2688 -404.7357 -316.9955 30132.0807 304.2225 374.4192
ENERGY: 900000 2.9293 4.1904 4.9004 0.0000 -10791.4746 1536.1344 0.0000 0.0000 1797.4763 -7445.8438 309.3472 -9243.3201 -7391.4001 302.2293 623.0109 724.5199 29725.4298 303.0283 376.2208
ENERGY: 1200000 2.1142 2.4806 4.0284 0.0000 -10611.9890 1412.3324 0.0000 0.0000 1757.8925 -7433.1409 302.5348 -9191.0333 -7401.2525 301.5453 -210.1529 -195.5725 30174.4709 173.6644 241.4443
ENERGY: 1500000 4.4264 6.4389 4.1974 0.0000 -10670.4340 1486.0846 0.0000 0.0000 1682.3845 -7486.9023 289.5398 -9169.2868 -7404.2125 301.7762 465.1046 628.7101 29461.9649 154.8322 224.9143
TCL: Running FEP window   3: Lambda1 0.1    Lambda2 0.15000000000000002 [dLambda 0.05000000000000002]
TCL: Setting parameter firsttimestep to 0
TCL: Setting parameter alchLambda to 0.1
Info: NONBONDED TABLE R-SQUARED SPACING: 0.0625
Info: NONBONDED TABLE SIZE: 705 POINTS
TCL: Setting parameter alchLambda2 to 0.15000000000000002
Info: NONBONDED TABLE R-SQUARED SPACING: 0.0625
Info: NONBONDED TABLE SIZE: 705 POINTS
TCL: Running for 1500000 steps
ETITLE: TS BOND ANGLE DIHED IMPRP ELECT VDW BOUNDARY MISC KINETIC TOTAL TEMP POTENTIAL TOTALAVG TEMPAVG PRESSURE GPRESSURE VOLUME PRESSAVG GPRESSAVG
ENERGY: 0 4.4264 6.4389 4.1974 0.0000 -10670.4349 1487.0462 0.0000 0.0000 1681.5311 -7486.7949 289.3929 -9168.3260 -7486.7949 289.3929 546.4369 636.2078 29461.9649 546.4369 636.2078
ENERGY: 300000 5.6948 3.2785 2.5117 0.0000 -10617.9262 1452.7648 0.0000 0.0000 1700.9320 -7452.7444 292.7319 -9153.6765 -7462.8117 296.2779 221.3109 318.6847 29997.2973 240.9977 316.3873
ENERGY: 600000 3.4615 4.9920 3.7126 0.0000 -10696.9682 1536.0373 0.0000 0.0000 1696.5295 -7452.2353 291.9742 -9148.7649 -7436.3986 298.6711 608.8588 688.5344 30289.0703 188.7652 275.1949
ENERGY: 900000 2.2415 4.5751 1.6590 0.0000 -10592.5659 1412.3671 0.0000 0.0000 1734.7426 -7436.9805 298.5507 -9171.7231 -7428.4953 299.4348 -383.2046 -237.1458 30224.4437 107.5126 197.3367
ENERGY: 1200000 2.4299 2.8028 6.3230 0.0000 -10561.8950 1376.5184 0.0000 0.0000 1721.9492 -7451.8717 296.3489 -9173.8209 -7427.2361 299.6574 -352.7117 -301.8766 29841.3566 45.9041 126.5015
ENERGY: 1500000 5.4818 5.1923 5.2575 0.0000 -10609.5766 1478.7199 0.0000 0.0000 1738.0937 -7376.8314 299.1274 -9114.9251 -7421.9730 299.5048 621.4623 598.0164 29715.2605 -17.3739 52.5447
TCL: Running FEP window   4: Lambda1 0.15000000000000002 Lambda2 0.2    [dLambda 0.04999999999999999]
TCL: Setting parameter firsttimestep to 0
TCL: Setting parameter alchLambda to 0.15000000000000002
Info: NONBONDED TABLE R-SQUARED SPACING: 0.0625
Info: NONBONDED TABLE SIZE: 705 POINTS
TCL: Setting parameter alchLambda2 to 0.2
Info: NONBONDED TABLE R-SQUARED SPACING: 0.0625
Info: NONBONDED TABLE SIZE: 705 POINTS
TCL: Running for 1500000 steps
ETITLE: TS BOND ANGLE DIHED IMPRP ELECT VDW BOUNDARY MISC KINETIC TOTAL TEMP POTENTIAL TOTALAVG TEMPAVG PRESSURE GPRESSURE VOLUME PRESSAVG GPRESSAVG
ENERGY: 0 5.4818 5.1923 5.2575 0.0000 -10609.5759 1478.3168 0.0000 0.0000 1737.2175 -7378.1100 298.9766 -9115.3275 -7378.1100 298.9766 537.5280 601.0395 29715.2605 537.5280 601.0395
ENERGY: 300000 4.6113 3.5068 8.9857 0.0000 -10611.8409 1395.2537 0.0000 0.0000 1791.5112 -7407.9723 308.3206 -9199.4835 -7395.1453 303.8389 -602.7792 -525.0880 29947.8282 -48.2374 10.2511
ENERGY: 600000 4.8618 2.8253 4.0182 0.0000 -10561.6198 1381.8473 0.0000 0.0000 1714.3729 -7453.6942 295.0450 -9168.0671 -7416.8135 300.6624 -373.5775 -369.7936 29955.0515 -250.8793 -201.3840
ENERGY: 900000 2.0486 2.1575 1.0800 0.0000 -10524.3519 1366.7386 0.0000 0.0000 1748.0719 -7404.2553 300.8447 -9152.3272 -7417.8008 299.7402 -589.6843 -558.2912 30229.3599 -169.7991 -116.5961
ENERGY: 1200000 3.0460 3.8198 6.2510 0.0000 -10621.0004 1459.6481 0.0000 0.0000 1719.2597 -7428.9758 295.8861 -9148.2356 -7418.7779 298.7543 451.1813 541.2960 29882.1842 -136.4305 -80.1562
ENERGY: 1500000 1.0922 2.2839 4.7803 0.0000 -10636.8487 1456.4737 0.0000 0.0000 1753.3465 -7418.8722 301.7524 -9172.2187 -7414.7613 298.7965 384.3030 391.5452 29517.7477 -24.1308 30.2884
TCL: Running FEP window   5: Lambda1 0.2    Lambda2 0.25   [dLambda 0.04999999999999999]
TCL: Setting parameter firsttimestep to 0
TCL: Setting parameter alchLambda to 0.2
Info: NONBONDED TABLE R-SQUARED SPACING: 0.0625
Info: NONBONDED TABLE SIZE: 705 POINTS
TCL: Setting parameter alchLambda2 to 0.25
Info: NONBONDED TABLE R-SQUARED SPACING: 0.0625
Info: NONBONDED TABLE SIZE: 705 POINTS
TCL: Running for 1500000 steps
ETITLE: TS BOND ANGLE DIHED IMPRP ELECT VDW BOUNDARY MISC KINETIC TOTAL TEMP POTENTIAL TOTALAVG TEMPAVG PRESSURE GPRESSURE VOLUME PRESSAVG GPRESSAVG
ENERGY: 0 1.0922 2.2839 4.7803 0.0000 -10636.8495 1457.4202 0.0000 0.0000 1752.5322 -7418.7409 301.6123 -9171.2731 -7418.7409 301.6123 313.9554 397.1088 29517.7477 313.9554 397.1088
ENERGY: 300000 3.6132 4.6086 2.6277 0.0000 -10413.5301 1288.7195 0.0000 0.0000 1751.2255 -7362.7354 301.3874 -9113.9610 -7400.1136 298.9688 -1171.4222 -1172.5177 30418.8409 -475.9818 -405.0420
ENERGY: 600000 3.9165 3.9226 7.2624 0.0000 -10614.0449 1509.6250 0.0000 0.0000 1777.6862 -7311.6323 305.9413 -9089.3185 -7385.6182 300.3311 775.4972 886.2028 29892.9962 -36.0369 50.3180
ENERGY: 900000 1.9466 4.1711 2.3656 0.0000 -10704.1347 1524.0550 0.0000 0.0000 1764.5691 -7407.0275 303.6838 -9171.5966 -7390.8871 301.0522 680.6750 739.0874 30016.1165 99.4495 171.1653
ENERGY: 1200000 3.3834 5.9526 4.2400 0.0000 -10274.1457 1263.8951 0.0000 0.0000 1716.4337 -7280.2409 295.3997 -8996.6747 -7372.6620 301.5117 -998.0976 -919.0009 30327.8202 -42.0383 27.6924
ENERGY: 1500000 4.8915 2.1984 3.4999 0.0000 -10635.4245 1428.8460 0.0000 0.0000 1747.5963 -7448.3924 300.7628 -9195.9886 -7386.2662 301.2360 -423.8026 -336.3171 30019.8373 -43.7996 30.9419
TCL: Running FEP window   6: Lambda1 0.25   Lambda2 0.3    [dLambda 0.04999999999999999]
TCL: Setting parameter firsttimestep to 0
TCL: Setting parameter alchLambda to 0.25
Info: NONBONDED TABLE R-SQUARED SPACING: 0.0625
Info: NONBONDED TABLE SIZE: 705 POINTS
TCL: Setting parameter alchLambda2 to 0.3
Info: NONBONDED TABLE R-SQUARED SPACING: 0.0625
Info: NONBONDED TABLE SIZE: 705 POINTS
TCL: Running for 1500000 steps
ETITLE: TS BOND ANGLE DIHED IMPRP ELECT VDW BOUNDARY MISC KINETIC TOTAL TEMP POTENTIAL TOTALAVG TEMPAVG PRESSURE GPRESSURE VOLUME PRESSAVG GPRESSAVG
ENERGY: 0 4.8915 2.1985 3.4999 0.0000 -10635.4253 1429.0699 0.0000 0.0000 1746.7132 -7449.0523 300.6108 -9195.7655 -7449.0523 300.6108 -411.1973 -329.9853 30019.8373 -411.1973 -329.9853
ENERGY: 300000 6.1886 6.8397 2.6960 0.0000 -10513.9104 1293.3105 0.0000 0.0000 1768.2488 -7436.6268 304.3171 -9204.8756 -7411.5198 304.8556 -978.6753 -976.4890 29845.4698 -324.7031 -267.8551
ENERGY: 600000 4.2809 5.7534 4.0389 0.0000 -10565.5212 1401.4272 0.0000 0.0000 1823.2783 -7326.7425 313.7877 -9150.0208 -7405.9823 304.5052 -578.6708 -466.8356 30412.5608 -329.6805 -270.7204
ENERGY: 900000 2.9720 2.8485 5.0145 0.0000 -10488.3930 1334.3828 0.0000 0.0000 1757.9867 -7385.1886 302.5510 -9143.1753 -7404.0029 303.6929 -858.5792 -799.1111 30096.8992 -442.1916 -384.0361
ENERGY: 1200000 3.9401 2.0340 3.7639 0.0000 -10425.7906 1344.5855 0.0000 0.0000 1705.1639 -7366.3032 293.4602 -9071.4670 -7404.9597 302.1861 -401.3849 -390.7017 30308.5014 -391.0858 -341.1674
ENERGY: 1500000 5.3449 3.7712 5.5748 0.0000 -10633.1653 1493.6176 0.0000 0.0000 1736.6662 -7388.1906 298.8817 -9124.8568 -7405.7950 301.1667 693.8647 738.4873 29658.9694 -252.6605 -201.8638
TCL: Running FEP window   7: Lambda1 0.3    Lambda2 0.35   [dLambda 0.04999999999999999]
TCL: Setting parameter firsttimestep to 0
TCL: Setting parameter alchLambda to 0.3
Info: NONBONDED TABLE R-SQUARED SPACING: 0.0625
Info: NONBONDED TABLE SIZE: 705 POINTS
TCL: Setting parameter alchLambda2 to 0.35
Info: NONBONDED TABLE R-SQUARED SPACING: 0.0625
Info: NONBONDED TABLE SIZE: 705 POINTS
TCL: Running for 1500000 steps
ETITLE: TS BOND ANGLE DIHED IMPRP ELECT VDW BOUNDARY MISC KINETIC TOTAL TEMP POTENTIAL TOTALAVG TEMPAVG PRESSURE GPRESSURE VOLUME PRESSAVG GPRESSAVG
ENERGY: 0 5.3449 3.7712 5.5748 0.0000 -10633.1645 1494.5313 0.0000 0.0000 1735.8437 -7388.0987 298.7402 -9123.9424 -7388.0987 298.7402 660.2881 751.1707 29658.9694 660.2881 751.1707
ENERGY: 300000 1.2960 3.6330 3.5169 0.0000 -10649.6879 1460.2386 0.0000 0.0000 1743.2662 -7437.7372 300.0176 -9181.0034 -7406.4617 300.4203 29.0323 154.8442 30351.1426 -82.7510 10.3315
ENERGY: 600000 2.5379 4.2465 3.9003 0.0000 -10500.6587 1386.0793 0.0000 0.0000 1729.0547 -7374.8401 297.5718 -9103.8948 -7411.4711 299.7889 -501.8298 -435.2711 30325.1086 -200.6210 -117.1184
ENERGY: 900000 3.4778 5.2624 2.4255 0.0000 -10503.3204 1301.0467 0.0000 0.0000 1758.4490 -7432.6591 302.6306 -9191.1080 -7402.8607 300.5192 -1268.3058 -1182.0799 30144.7768 -348.5873 -263.3096
ENERGY: 1200000 2.2643 4.2967 6.2870 0.0000 -10610.4793 1407.6852 0.0000 0.0000 1739.3657 -7450.5803 299.3463 -9189.9461 -7406.5119 301.7272 -76.7377 -93.3093 29591.5597 -240.9077 -169.2105
ENERGY: 1500000 5.9616 3.0947 5.4069 0.0000 -10553.1588 1414.8749 0.0000 0.0000 1748.7483 -7375.0724 300.9611 -9123.8208 -7398.1464 302.2104 312.9067 329.1414 29862.1473 -187.8101 -120.1167
TCL: Running FEP window   8: Lambda1 0.35   Lambda2 0.39999999999999997 [dLambda 0.04999999999999999]
TCL: Setting parameter firsttimestep to 0
TCL: Setting parameter alchLambda to 0.35
Info: NONBONDED TABLE R-SQUARED SPACING: 0.0625
Info: NONBONDED TABLE SIZE: 705 POINTS
TCL: Setting parameter alchLambda2 to 0.39999999999999997
Info: NONBONDED TABLE R-SQUARED SPACING: 0.0625
Info: NONBONDED TABLE SIZE: 705 POINTS
TCL: Running for 1500000 steps
ETITLE: TS BOND ANGLE DIHED IMPRP ELECT VDW BOUNDARY MISC KINETIC TOTAL TEMP POTENTIAL TOTALAVG TEMPAVG PRESSURE GPRESSURE VOLUME PRESSAVG GPRESSAVG
ENERGY: 0 5.9616 3.0947 5.4069 0.0000 -10553.1575 1414.6468 0.0000 0.0000 1747.8791 -7376.1685 300.8115 -9124.0476 -7376.1685 300.8115 259.7853 334.3568 29862.1473 259.7853 334.3568
ENERGY: 300000 4.9556 6.9905 4.3154 0.0000 -10486.9675 1340.8192 0.0000 0.0000 1727.2860 -7402.6008 297.2674 -9129.8868 -7390.5312 298.2988 -865.5234 -758.8230 30182.8835 -232.2477 -179.5767
ENERGY: 600000 2.7877 3.2009 3.9629 0.0000 -10518.5308 1334.2575 0.0000 0.0000 1726.4971 -7447.8246 297.1316 -9174.3218 -7390.3749 299.5126 -883.7585 -828.8620 29973.2037 -316.0644 -263.5689
ENERGY: 900000 2.4555 5.6181 2.2203 0.0000 -10683.0842 1499.1864 0.0000 0.0000 1718.8409 -7454.7631 295.8140 -9173.6040 -7398.7136 299.3010 819.3870 877.1682 29515.1506 -231.7123 -171.1141
ENERGY: 1200000 3.0491 5.8101 4.5686 0.0000 -10651.1748 1502.9319 0.0000 0.0000 1739.3221 -7395.4930 299.3388 -9134.8151 -7406.3648 298.7668 581.1280 683.7279 29828.1393 -142.8522 -78.1784
ENERGY: 1500000 1.7337 2.7848 4.5121 0.0000 -10686.5702 1454.9280 0.0000 0.0000 1751.9577 -7470.6538 301.5134 -9222.6115 -7405.4357 299.9362 389.4976 453.6679 29598.3187 -142.6359 -81.8053
TCL: Running FEP window   9: Lambda1 0.39999999999999997 Lambda2 0.44999999999999996 [dLambda 0.04999999999999999]
TCL: Setting parameter firsttimestep to 0
TCL: Setting parameter alchLambda to 0.39999999999999997
Info: NONBONDED TABLE R-SQUARED SPACING: 0.0625
Info: NONBONDED TABLE SIZE: 705 POINTS
TCL: Setting parameter alchLambda2 to 0.44999999999999996
Info: NONBONDED TABLE R-SQUARED SPACING: 0.0625
Info: NONBONDED TABLE SIZE: 705 POINTS
TCL: Running for 1500000 steps
ETITLE: TS BOND ANGLE DIHED IMPRP ELECT VDW BOUNDARY MISC KINETIC TOTAL TEMP POTENTIAL TOTALAVG TEMPAVG PRESSURE GPRESSURE VOLUME PRESSAVG GPRESSAVG
ENERGY: 0 1.7337 2.7848 4.5121 0.0000 -10686.5698 1454.3606 0.0000 0.0000 1751.0973 -7472.0812 301.3653 -9223.1785 -7472.0812 301.3653 358.6071 453.7867 29598.3187 358.6071 453.7867
ENERGY: 300000 3.9853 5.7825 3.7081 0.0000 -10551.0435 1365.9480 0.0000 0.0000 1746.9606 -7424.6590 300.6534 -9171.6195 -7429.1033 299.6281 -387.2276 -392.4557 29734.5698 -16.1276 50.1076
ENERGY: 600000 2.8934 3.4992 7.4414 0.0000 -10458.5998 1330.5956 0.0000 0.0000 1729.9897 -7384.1806 297.7327 -9114.1702 -7404.2814 299.2728 -823.7815 -770.8985 30429.4068 -182.4675 -114.6416
ENERGY: 900000 2.9830 5.1640 3.5085 0.0000 -10579.7860 1441.2389 0.0000 0.0000 1756.8144 -7370.0773 302.3492 -9126.8916 -7402.1015 300.3253 303.7291 331.2308 29790.0691 -118.1254 -50.6554
ENERGY: 1200000 2.5653 2.5215 5.4257 0.0000 -10448.5455 1340.1746 0.0000 0.0000 1725.7460 -7372.1123 297.0024 -9097.8584 -7404.3836 299.5971 -702.5223 -610.1459 30302.4269 -104.0146 -39.3699
ENERGY: 1500000 6.6919 5.7392 7.0920 0.0000 -10584.2429 1421.3658 0.0000 0.0000 1737.2314 -7406.1225 298.9790 -9143.3540 -7399.5729 300.0565 -36.2253 31.3790 30121.1003 -120.3393 -53.7983
TCL: Running FEP window  10: Lambda1 0.44999999999999996 Lambda2 0.49999999999999994 [dLambda 0.04999999999999999]
TCL: Setting parameter firsttimestep to 0
TCL: Setting parameter alchLambda to 0.44999999999999996
Info: NONBONDED TABLE R-SQUARED SPACING: 0.0625
Info: NONBONDED TABLE SIZE: 705 POINTS
TCL: Setting parameter alchLambda2 to 0.49999999999999994
Info: NONBONDED TABLE R-SQUARED SPACING: 0.0625
Info: NONBONDED TABLE SIZE: 705 POINTS
TCL: Running for 1500000 steps
ETITLE: TS BOND ANGLE DIHED IMPRP ELECT VDW BOUNDARY MISC KINETIC TOTAL TEMP POTENTIAL TOTALAVG TEMPAVG PRESSURE GPRESSURE VOLUME PRESSAVG GPRESSAVG
ENERGY: 0 6.6919 5.7392 7.0920 0.0000 -10584.2421 1421.2430 0.0000 0.0000 1736.3540 -7407.1220 298.8280 -9143.4760 -7407.1220 298.8280 -39.9446 35.7134 30121.1003 -39.9446 35.7134
ENERGY: 300000 3.7265 6.1569 6.5103 0.0000 -10548.1776 1394.1118 0.0000 0.0000 1648.5185 -7489.1537 283.7114 -9137.6722 -7439.3220 294.3652 -409.5881 -370.0370 30314.2606 -802.9912 -721.6926
ENERGY: 600000 3.4354 5.4307 4.9581 0.0000 -10599.5923 1451.6807 0.0000 0.0000 1772.9927 -7361.0946 305.1336 -9134.0873 -7420.5712 296.6142 215.5706 262.4926 30259.3009 -229.9645 -167.9739
ENERGY: 900000 4.6170 4.9391 3.6558 0.0000 -10557.7442 1389.7531 0.0000 0.0000 1759.3552 -7395.4241 302.7865 -9154.7793 -7414.1193 297.6309 -239.6563 -138.2310 29830.4087 -193.5219 -126.3951
ENERGY: 1200000 2.0533 3.1940 3.9454 0.0000 -10491.2641 1321.8837 0.0000 0.0000 1747.3939 -7412.7938 300.7280 -9160.1877 -7408.9927 298.2310 -801.6136 -722.8566 30140.5358 -134.2075 -64.6375
ENERGY: 1500000 4.4861 4.7439 3.1223 0.0000 -10635.0133 1409.1299 0.0000 0.0000 1748.4220 -7465.1092 300.9049 -9213.5312 -7417.5463 298.4437 -151.6793 -49.6930 29478.8408 -109.3496 -40.9630
TCL: Running FEP window  11: Lambda1 0.49999999999999994 Lambda2 0.5499999999999999 [dLambda 0.04999999999999999]
TCL: Setting parameter firsttimestep to 0
TCL: Setting parameter alchLambda to 0.49999999999999994
Info: NONBONDED TABLE R-SQUARED SPACING: 0.0625
Info: NONBONDED TABLE SIZE: 705 POINTS
TCL: Setting parameter alchLambda2 to 0.5499999999999999
Info: NONBONDED TABLE R-SQUARED SPACING: 0.0625
Info: NONBONDED TABLE SIZE: 705 POINTS
TCL: Running for 1500000 steps
ETITLE: TS BOND ANGLE DIHED IMPRP ELECT VDW BOUNDARY MISC KINETIC TOTAL TEMP POTENTIAL TOTALAVG TEMPAVG PRESSURE GPRESSURE VOLUME PRESSAVG GPRESSAVG
ENERGY: 0 4.4861 4.7439 3.1223 0.0000 -10635.0141 1408.9291 0.0000 0.0000 1747.5557 -7466.1770 300.7558 -9213.7328 -7466.1770 300.7558 -125.5072 -43.1123 29478.8408 -125.5072 -43.1123
ENERGY: 300000 5.2939 1.9267 6.0933 0.0000 -10500.9272 1320.5559 0.0000 0.0000 1748.4227 -7418.6347 300.9050 -9167.0574 -7388.5425 300.7040 -839.4718 -853.8302 29748.6919 -147.3347 -117.8280
ENERGY: 600000 5.7544 5.2382 7.7566 0.0000 -10678.6786 1454.0190 0.0000 0.0000 1749.5328 -7456.3775 301.0961 -9205.9103 -7397.4201 300.8004 28.3145 103.8921 29691.1420 20.6038 71.9792
ENERGY: 900000 7.2067 6.2728 6.3834 0.0000 -10767.8091 1552.0370 0.0000 0.0000 1744.1659 -7451.7432 300.1724 -9195.9091 -7405.4117 300.1347 655.0368 716.0009 29906.8795 130.3710 188.1670
ENERGY: 1200000 2.9577 4.0020 5.0581 0.0000 -10585.2399 1348.6877 0.0000 0.0000 1692.7697 -7531.7646 291.3271 -9224.5343 -7422.4135 298.8796 -755.8751 -738.9728 29789.8658 102.4493 160.5153
ENERGY: 1500000 0.7716 6.2308 3.1109 0.0000 -10595.8198 1429.7464 0.0000 0.0000 1685.6821 -7470.2780 290.1073 -9155.9601 -7430.0651 297.7345 -73.6060 -50.8501 30202.0682 3.5316 66.1258
TCL: Running FEP window  12: Lambda1 0.5499999999999999 Lambda2 0.6    [dLambda 0.050000000000000044]
TCL: Setting parameter firsttimestep to 0
TCL: Setting parameter alchLambda to 0.5499999999999999
Info: NONBONDED TABLE R-SQUARED SPACING: 0.0625
Info: NONBONDED TABLE SIZE: 705 POINTS
TCL: Setting parameter alchLambda2 to 0.6
Info: NONBONDED TABLE R-SQUARED SPACING: 0.0625
Info: NONBONDED TABLE SIZE: 705 POINTS
TCL: Running for 1500000 steps
ETITLE: TS BOND ANGLE DIHED IMPRP ELECT VDW BOUNDARY MISC KINETIC TOTAL TEMP POTENTIAL TOTALAVG TEMPAVG PRESSURE GPRESSURE VOLUME PRESSAVG GPRESSAVG
ENERGY: 0 0.7716 6.2308 3.1109 0.0000 -10595.6317 1429.5931 0.0000 0.0000 1684.8454 -7471.0798 289.9633 -9155.9252 -7471.0798 289.9633 -128.3665 -45.2347 30202.0682 -128.3665 -45.2347
ENERGY: 300000 3.4156 5.9164 3.3532 0.0000 -10474.7835 1373.7564 0.0000 0.0000 1718.1455 -7370.1965 295.6943 -9088.3419 -7406.9441 300.9575 -187.4043 -162.7895 29947.4367 -160.5222 -99.0771
ENERGY: 600000 2.6906 6.4781 4.0007 0.0000 -10636.3809 1451.9354 0.0000 0.0000 1700.8518 -7470.4244 292.7180 -9171.2761 -7444.8100 299.2494 241.0932 243.6201 30023.5062 -91.7488 -50.6839
ENERGY: 900000 4.6308 1.8935 2.7901 0.0000 -10476.1590 1337.2795 0.0000 0.0000 1746.1956 -7383.3695 300.5217 -9129.5651 -7434.9577 299.2067 -880.6425 -871.8904 30375.2914 -160.0057 -114.1241
ENERGY: 1200000 1.8996 3.2805 4.8771 0.0000 -10620.5166 1402.1976 0.0000 0.0000 1726.8237 -7481.4381 297.1878 -9208.2618 -7436.7966 299.5408 -204.7526 -127.6425 29902.4775 -33.6352 10.7798
ENERGY: 1500000 2.7165 3.9272 3.7324 0.0000 -10508.4864 1397.2903 0.0000 0.0000 1774.9474 -7325.8727 305.4700 -9100.8201 -7424.5533 299.6665 -229.5181 -166.3976 30287.5255 -31.1965 16.0858
TCL: Running FEP window  13: Lambda1 0.6    Lambda2 0.65   [dLambda 0.050000000000000044]
TCL: Setting parameter firsttimestep to 0
TCL: Setting parameter alchLambda to 0.6
Info: NONBONDED TABLE R-SQUARED SPACING: 0.0625
Info: NONBONDED TABLE SIZE: 705 POINTS
TCL: Setting parameter alchLambda2 to 0.65
Info: NONBONDED TABLE R-SQUARED SPACING: 0.0625
Info: NONBONDED TABLE SIZE: 705 POINTS
TCL: Running for 1500000 steps
ETITLE: TS BOND ANGLE DIHED IMPRP ELECT VDW BOUNDARY MISC KINETIC TOTAL TEMP POTENTIAL TOTALAVG TEMPAVG PRESSURE GPRESSURE VOLUME PRESSAVG GPRESSAVG
ENERGY: 0 2.7165 3.9272 3.7324 0.0000 -10508.9371 1397.2069 0.0000 0.0000 1774.0340 -7327.3201 305.3128 -9101.3541 -7327.3201 305.3128 -248.7719 -159.4883 30287.5255 -248.7719 -159.4883
ENERGY: 300000 2.8632 4.1441 2.8821 0.0000 -10577.6005 1395.6630 0.0000 0.0000 1782.9842 -7389.0640 306.8531 -9172.0482 -7416.4026 300.4107 -473.1613 -419.7180 30379.5487 -201.0658 -128.1729
ENERGY: 600000 2.6574 1.9349 6.8140 0.0000 -10585.2818 1371.0166 0.0000 0.0000 1753.8679 -7448.9910 301.8422 -9202.8589 -7412.7886 301.3221 -477.0367 -440.8424 29993.4994 -424.6220 -351.8039
ENERGY: 900000 2.8745 6.8808 3.1767 0.0000 -10624.5979 1475.4372 0.0000 0.0000 1740.1233 -7396.1055 299.4767 -9136.2287 -7417.5810 301.0593 270.0255 329.5390 30374.6456 -257.6968 -180.9440
ENERGY: 1200000 3.4203 4.6825 7.4142 0.0000 -10609.8463 1417.5343 0.0000 0.0000 1747.3816 -7429.4135 300.7259 -9176.7951 -7405.3631 301.3122 -116.2727 4.7499 30170.5209 -232.9489 -161.7182
ENERGY: 1500000 1.4425 3.9329 1.7972 0.0000 -10562.5674 1439.8698 0.0000 0.0000 1721.5072 -7394.0179 296.2728 -9115.5251 -7393.6501 301.4337 51.8242 117.9888 30380.3306 -174.2241 -107.1734
TCL: Running FEP window  14: Lambda1 0.65   Lambda2 0.7000000000000001 [dLambda 0.050000000000000044]
TCL: Setting parameter firsttimestep to 0
TCL: Setting parameter alchLambda to 0.65
Info: NONBONDED TABLE R-SQUARED SPACING: 0.0625
Info: NONBONDED TABLE SIZE: 705 POINTS
TCL: Setting parameter alchLambda2 to 0.7000000000000001
Info: NONBONDED TABLE R-SQUARED SPACING: 0.0625
Info: NONBONDED TABLE SIZE: 705 POINTS
TCL: Running for 1500000 steps
ETITLE: TS BOND ANGLE DIHED IMPRP ELECT VDW BOUNDARY MISC KINETIC TOTAL TEMP POTENTIAL TOTALAVG TEMPAVG PRESSURE GPRESSURE VOLUME PRESSAVG GPRESSAVG
ENERGY: 0 1.4425 3.9329 1.7972 0.0000 -10563.0861 1439.9300 0.0000 0.0000 1720.6477 -7395.3359 296.1249 -9115.9835 -7395.3359 296.1249 47.1559 124.8127 30380.3306 47.1559 124.8127
ENERGY: 300000 3.0727 4.0235 5.1556 0.0000 -10728.0028 1489.2940 0.0000 0.0000 1762.6504 -7463.8066 303.3536 -9226.4571 -7420.4669 298.5061 373.6201 383.2147 30385.7311 -264.9611 -221.9814
ENERGY: 600000 3.4153 5.7817 6.3766 0.0000 -10694.6269 1433.6200 0.0000 0.0000 1769.5471 -7475.8862 304.5406 -9245.4333 -7407.5827 302.3257 -356.5384 -316.2767 30070.5601 -81.0502 -24.4623
ENERGY: 900000 5.4028 1.8047 7.5882 0.0000 -10758.3647 1458.1549 0.0000 0.0000 1724.0288 -7561.3853 296.7068 -9285.4141 -7411.9038 301.8351 -273.9312 -225.8715 30256.2868 -123.6617 -70.2941
ENERGY: 1200000 3.5378 1.9899 3.9739 0.0000 -10626.5773 1527.1839 0.0000 0.0000 1779.0070 -7310.8849 306.1686 -9089.8918 -7407.8870 302.5906 869.2887 950.8875 30435.4419 -26.4651 29.4570
ENERGY: 1500000 3.8911 4.7180 1.5289 0.0000 -10687.9377 1478.4376 0.0000 0.0000 1730.4088 -7468.9533 297.8048 -9199.3621 -7417.5392 301.8333 206.4627 332.4507 29872.3453 -60.3824 4.2849
TCL: Running FEP window  15: Lambda1 0.7000000000000001 Lambda2 0.7500000000000001 [dLambda 0.050000000000000044]
TCL: Setting parameter firsttimestep to 0
TCL: Setting parameter alchLambda to 0.7000000000000001
Info: NONBONDED TABLE R-SQUARED SPACING: 0.0625
Info: NONBONDED TABLE SIZE: 705 POINTS
TCL: Setting parameter alchLambda2 to 0.7500000000000001
Info: NONBONDED TABLE R-SQUARED SPACING: 0.0625
Info: NONBONDED TABLE SIZE: 705 POINTS
TCL: Running for 1500000 steps
ETITLE: TS BOND ANGLE DIHED IMPRP ELECT VDW BOUNDARY MISC KINETIC TOTAL TEMP POTENTIAL TOTALAVG TEMPAVG PRESSURE GPRESSURE VOLUME PRESSAVG GPRESSAVG
ENERGY: 0 3.8911 4.7180 1.5289 0.0000 -10687.8505 1478.1690 0.0000 0.0000 1729.5416 -7470.0019 297.6556 -9199.5435 -7470.0019 297.6556 230.1211 338.9901 29872.3453 230.1211 338.9901
ENERGY: 300000 3.3885 8.4311 3.7849 0.0000 -10431.2849 1275.0705 0.0000 0.0000 1698.2329 -7442.3770 292.2673 -9140.6098 -7453.7671 295.8926 -1194.5703 -1136.3654 30440.2248 -43.4817 25.2255
ENERGY: 600000 4.0279 3.8408 5.6175 0.0000 -10622.2706 1436.2258 0.0000 0.0000 1776.2143 -7396.3442 305.6880 -9172.5585 -7423.5301 299.4417 205.6781 224.7942 29751.4386 -27.2158 32.3330
ENERGY: 900000 3.1751 6.5251 3.2414 0.0000 -10590.0668 1392.3794 0.0000 0.0000 1765.9273 -7418.8184 303.9176 -9184.7457 -7417.5929 299.7159 -49.3883 -27.8456 29601.5062 -42.5953 10.0304
ENERGY: 1200000 3.9167 3.0272 10.6050 0.0000 -10743.4261 1534.5181 0.0000 0.0000 1744.4585 -7446.9007 300.2228 -9191.3592 -7421.1813 300.3022 833.1857 829.7589 29714.7000 67.1301 111.3283
ENERGY: 1500000 1.6192 5.3409 3.0778 0.0000 -10668.5261 1515.9087 0.0000 0.0000 1769.4944 -7373.0852 304.5315 -9142.5795 -7417.1396 301.4362 817.7212 872.3812 30101.3337 83.6058 129.2612
TCL: Running FEP window  16: Lambda1 0.7500000000000001 Lambda2 0.8000000000000002 [dLambda 0.050000000000000044]
TCL: Setting parameter firsttimestep to 0
TCL: Setting parameter alchLambda to 0.7500000000000001
Info: NONBONDED TABLE R-SQUARED SPACING: 0.0625
Info: NONBONDED TABLE SIZE: 705 POINTS
TCL: Setting parameter alchLambda2 to 0.8000000000000002
Info: NONBONDED TABLE R-SQUARED SPACING: 0.0625
Info: NONBONDED TABLE SIZE: 705 POINTS
TCL: Running for 1500000 steps
ETITLE: TS BOND ANGLE DIHED IMPRP ELECT VDW BOUNDARY MISC KINETIC TOTAL TEMP POTENTIAL TOTALAVG TEMPAVG PRESSURE GPRESSURE VOLUME PRESSAVG GPRESSAVG
ENERGY: 0 1.6192 5.3409 3.0778 0.0000 -10669.2561 1516.3095 0.0000 0.0000 1768.6125 -7374.2962 304.3797 -9142.9088 -7374.2962 304.3797 791.0331 884.1924 30101.3337 791.0331 884.1924
ENERGY: 300000 2.4708 2.7863 3.4621 0.0000 -10581.5626 1465.3687 0.0000 0.0000 1703.8284 -7403.6462 293.2303 -9107.4746 -7392.1728 301.0802 569.8858 614.0116 30047.1970 519.8987 557.9441
ENERGY: 600000 4.8888 3.6315 5.8483 0.0000 -10705.7627 1529.2215 0.0000 0.0000 1761.4696 -7400.7030 303.1504 -9162.1726 -7393.2714 301.2078 997.2723 1125.3210 29574.8949 324.7838 393.3039
ENERGY: 900000 4.1198 3.1799 3.0142 0.0000 -10574.3719 1435.9579 0.0000 0.0000 1710.1221 -7417.9779 294.3135 -9128.1001 -7404.8436 299.1300 -76.2810 41.0714 30511.8864 309.8398 384.1188
ENERGY: 1200000 1.5927 2.5946 6.0647 0.0000 -10498.1654 1333.6427 0.0000 0.0000 1745.6557 -7408.6150 300.4288 -9154.2707 -7413.5024 298.9988 -510.7448 -477.2238 29959.1101 226.1303 293.9211
ENERGY: 1500000 8.9493 2.9737 3.1519 0.0000 -10489.5398 1351.4365 0.0000 0.0000 1751.9147 -7371.1138 301.5060 -9123.0285 -7410.4478 298.1672 -408.6421 -310.6394 29976.4962 83.7335 151.9280
TCL: Running FEP window  17: Lambda1 0.8000000000000002 Lambda2 0.8500000000000002 [dLambda 0.050000000000000044]
TCL: Setting parameter firsttimestep to 0
TCL: Setting parameter alchLambda to 0.8000000000000002
Info: NONBONDED TABLE R-SQUARED SPACING: 0.0625
Info: NONBONDED TABLE SIZE: 705 POINTS
TCL: Setting parameter alchLambda2 to 0.8500000000000002
Info: NONBONDED TABLE R-SQUARED SPACING: 0.0625
Info: NONBONDED TABLE SIZE: 705 POINTS
TCL: Running for 1500000 steps
ETITLE: TS BOND ANGLE DIHED IMPRP ELECT VDW BOUNDARY MISC KINETIC TOTAL TEMP POTENTIAL TOTALAVG TEMPAVG PRESSURE GPRESSURE VOLUME PRESSAVG GPRESSAVG
ENERGY: 0 8.9493 2.9737 3.1519 0.0000 -10490.3639 1351.9098 0.0000 0.0000 1751.0498 -7372.3294 301.3572 -9123.3792 -7372.3294 301.3572 -396.8923 -293.7039 29976.4962 -396.8923 -293.7039
ENERGY: 300000 6.7527 4.4519 4.9929 0.0000 -10554.6004 1324.9080 0.0000 0.0000 1751.5485 -7461.9463 301.4430 -9213.4948 -7418.3369 303.6791 -1204.2315 -1241.8297 30649.5723 -438.9777 -410.0719
ENERGY: 600000 3.3422 4.9359 4.3006 0.0000 -10609.2548 1438.6063 0.0000 0.0000 1778.9333 -7379.1366 306.1559 -9158.0699 -7418.8572 302.2182 -17.4913 55.6820 30153.8054 -386.2214 -339.1291
ENERGY: 900000 5.9473 6.1485 7.8301 0.0000 -10596.6372 1394.1749 0.0000 0.0000 1746.6648 -7435.8716 300.6025 -9182.5364 -7412.7945 302.2931 -285.3653 -232.9242 30076.8514 -345.0918 -297.8472
ENERGY: 1200000 2.5817 3.5894 7.2740 0.0000 -10516.4158 1387.2780 0.0000 0.0000 1698.4683 -7417.2243 292.3078 -9115.6926 -7412.0886 301.6244 -271.8541 -223.9558 30315.4241 -300.7273 -253.2066
ENERGY: 1500000 2.5331 3.8339 5.5525 0.0000 -10683.5676 1472.0090 0.0000 0.0000 1734.2838 -7465.3553 298.4717 -9199.6392 -7409.9023 301.3281 285.0317 400.7349 30197.6158 -266.4093 -213.0428
TCL: Running FEP window  18: Lambda1 0.8500000000000002 Lambda2 0.9000000000000002 [dLambda 0.050000000000000044]
TCL: Setting parameter firsttimestep to 0
TCL: Setting parameter alchLambda to 0.8500000000000002
Info: NONBONDED TABLE R-SQUARED SPACING: 0.0625
Info: NONBONDED TABLE SIZE: 705 POINTS
TCL: Setting parameter alchLambda2 to 0.9000000000000002
Info: NONBONDED TABLE R-SQUARED SPACING: 0.0625
Info: NONBONDED TABLE SIZE: 705 POINTS
TCL: Running for 1500000 steps
ETITLE: TS BOND ANGLE DIHED IMPRP ELECT VDW BOUNDARY MISC KINETIC TOTAL TEMP POTENTIAL TOTALAVG TEMPAVG PRESSURE GPRESSURE VOLUME PRESSAVG GPRESSAVG
ENERGY: 0 2.5331 3.8339 5.5525 0.0000 -10684.5558 1471.7515 0.0000 0.0000 1733.4110 -7467.4738 298.3215 -9200.8848 -7467.4738 298.3215 323.7185 405.5140 30197.6158 323.7185 405.5140
ENERGY: 300000 1.3663 4.6629 6.6858 0.0000 -10563.7969 1405.4036 0.0000 0.0000 1698.0137 -7447.6647 292.2296 -9145.6783 -7426.8775 299.3250 -32.9831 20.5973 30174.2561 437.9764 500.3599
ENERGY: 600000 4.4613 4.0855 2.7416 0.0000 -10638.1082 1462.0020 0.0000 0.0000 1787.2868 -7377.5309 307.5936 -9164.8177 -7440.7276 301.7554 59.8463 152.3675 30386.9157 82.9903 135.8468
ENERGY: 900000 3.3827 2.6936 3.7544 0.0000 -10470.7017 1369.3081 0.0000 0.0000 1766.8151 -7324.7479 304.0704 -9091.5629 -7438.0454 300.6748 -447.1694 -415.4349 30386.6107 -94.5999 -46.9445
ENERGY: 1200000 3.2534 4.5705 9.3327 0.0000 -10643.5426 1394.0459 0.0000 0.0000 1757.9261 -7474.4139 302.5406 -9232.3401 -7436.4944 301.3838 -423.1566 -326.9238 30229.2531 -114.0650 -67.3236
ENERGY: 1500000 3.0160 4.4674 6.2252 0.0000 -10595.5840 1471.3658 0.0000 0.0000 1769.1674 -7341.3422 304.4752 -9110.5096 -7424.5343 301.1887 357.3674 432.6315 30214.7429 -46.1169 6.9744
TCL: Running FEP window  19: Lambda1 0.9000000000000002 Lambda2 0.9500000000000003 [dLambda 0.050000000000000044]
TCL: Setting parameter firsttimestep to 0
TCL: Setting parameter alchLambda to 0.9000000000000002
Info: NONBONDED TABLE R-SQUARED SPACING: 0.0625
Info: NONBONDED TABLE SIZE: 705 POINTS
TCL: Setting parameter alchLambda2 to 0.9500000000000003
Info: NONBONDED TABLE R-SQUARED SPACING: 0.0625
Info: NONBONDED TABLE SIZE: 705 POINTS
TCL: Running for 1500000 steps
ETITLE: TS BOND ANGLE DIHED IMPRP ELECT VDW BOUNDARY MISC KINETIC TOTAL TEMP POTENTIAL TOTALAVG TEMPAVG PRESSURE GPRESSURE VOLUME PRESSAVG GPRESSAVG
ENERGY: 0 3.0160 4.4674 6.2252 0.0000 -10596.4651 1471.5353 0.0000 0.0000 1768.2830 -7342.9381 304.3230 -9111.2212 -7342.9381 304.3230 368.0225 447.7655 30214.7429 368.0225 447.7655
ENERGY: 300000 5.1251 3.1004 8.0318 0.0000 -10594.4254 1366.0931 0.0000 0.0000 1742.5178 -7469.5573 299.8888 -9212.0751 -7417.6065 302.0890 -740.3408 -619.9888 29726.1204 158.8532 239.6495
ENERGY: 600000 1.8917 5.1991 8.5568 0.0000 -10601.6728 1459.6256 0.0000 0.0000 1758.1895 -7368.2101 302.5859 -9126.3995 -7416.5734 300.4888 577.7093 611.6833 29846.1840 148.0282 224.3715
ENERGY: 900000 3.6821 3.6064 3.1317 0.0000 -10581.0149 1421.7799 0.0000 0.0000 1753.4741 -7395.3407 301.7744 -9148.8149 -7412.7910 300.3608 -2.8936 11.6460 30284.8127 84.0782 151.9221
ENERGY: 1200000 4.1571 1.3473 8.1182 0.0000 -10699.5200 1513.9503 0.0000 0.0000 1718.9457 -7453.0014 295.8320 -9171.9470 -7419.9908 300.4505 713.8805 749.7213 29929.2398 39.5050 96.9761
ENERGY: 1500000 1.9560 2.8275 5.5597 0.0000 -10650.1610 1416.8032 0.0000 0.0000 1769.3738 -7453.6407 304.5107 -9223.0146 -7416.3083 300.2946 -67.8712 26.4370 29783.5167 66.1634 130.6617
TCL: Running FEP window  20: Lambda1 0.9500000000000003 Lambda2 1.0    [dLambda 0.04999999999999971]
TCL: Setting parameter firsttimestep to 0
TCL: Setting parameter alchLambda to 0.9500000000000003
Info: NONBONDED TABLE R-SQUARED SPACING: 0.0625
Info: NONBONDED TABLE SIZE: 705 POINTS
TCL: Setting parameter alchLambda2 to 1.0
Info: NONBONDED TABLE R-SQUARED SPACING: 0.0625
Info: NONBONDED TABLE SIZE: 705 POINTS
TCL: Running for 1500000 steps
ETITLE: TS BOND ANGLE DIHED IMPRP ELECT VDW BOUNDARY MISC KINETIC TOTAL TEMP POTENTIAL TOTALAVG TEMPAVG PRESSURE GPRESSURE VOLUME PRESSAVG GPRESSAVG
ENERGY: 0 1.9560 2.8275 5.5597 0.0000 -10651.5054 1416.7679 0.0000 0.0000 1768.5522 -7455.8420 304.3693 -9224.3943 -7455.8420 304.3693 -44.9067 36.9118 29783.5167 -44.9067 36.9118
ENERGY: 300000 3.9270 2.5190 5.8533 0.0000 -10602.8692 1401.8877 0.0000 0.0000 1715.9808 -7472.7014 295.3218 -9188.6822 -7446.2085 300.1812 -51.1368 29.0196 29929.3397 -204.0092 -122.2942
ENERGY: 600000 5.0667 5.9984 3.6452 0.0000 -10592.0646 1433.7126 0.0000 0.0000 1717.4367 -7426.2050 295.5723 -9143.6417 -7424.9278 299.0234 121.8273 230.9504 29677.3431 16.4883 89.1358
ENERGY: 900000 2.2813 3.9452 6.6739 0.0000 -10481.1462 1366.1973 0.0000 0.0000 1739.7552 -7362.2933 299.4133 -9102.0484 -7418.2961 300.3268 -290.8829 -223.8685 30045.3482 113.1621 184.2617
ENERGY: 1200000 4.3138 5.7304 4.8962 0.0000 -10521.8242 1384.5766 0.0000 0.0000 1749.9180 -7372.3893 301.1624 -9122.3073 -7416.9979 300.0228 -294.1190 -191.1267 29954.7934 -20.1688 49.2018
ENERGY: 1500000 5.7948 2.6089 8.6830 0.0000 -10487.9720 1354.8962 0.0000 0.0000 1810.2310 -7305.7580 311.5423 -9115.9890 -7409.1764 301.1911 -193.4252 -174.0691 30362.2888 -56.1566 4.4965
TCL: Exiting due to exit command.
