Info: SIMULATION PARAMETERS:
Info: TIMESTEP               2
Info: NUMBER OF STEPS        0
Info: STEPS PER CYCLE        10
Info: PERIODIC CELL BASIS 1  30.6924 0 0
Info: PERIODIC CELL BASIS 2  0 31.388 0
Info: PERIODIC CELL BASIS 3  0 0 31.2696
Info: PERIODIC CELL CENTER   0 0 0
Info: WRAPPING WATERS AROUND PERIODIC BOUNDARIES ON OUTPUT.
Info: WRAPPING ALL CLUSTERS AROUND PERIODIC BOUNDARIES ON OUTPUT.
Info: FIRST LDB TIMESTEP     50
Info: LAST LDB TIMESTEP     -1
Info: HOM BACKGROUND SCALING 1
Info: PME BACKGROUND SCALING 1
Info: MIN ATOMS PER PATCH    40
Info: EMPTY PATCH LOAD       40 ATOMS
Info: VELOCITY FILE          mobley_9883303_equil.vel
Info: CENTER OF MASS MOVING INITIALLY? NO
Info: DIELECTRIC             1
Info: EXCLUDE                SCALED ONE-FOUR
Info: 1-4 ELECTROSTATICS SCALED BY 0.833333
Info: MODIFIED 1-4 VDW PARAMETERS WILL BE USED
Info: DCD FILENAME           mobley_9883303_prod.dcd
Info: DCD FREQUENCY          100000
Info: DCD FIRST STEP         100000
Info: DCD FILE WILL CONTAIN UNIT CELL DATA
Info: XST FILENAME           mobley_9883303_prod.xst
Info: XST FREQUENCY          100000
Info: NO VELOCITY DCD OUTPUT
Info: NO FORCE DCD OUTPUT
Info: OUTPUT FILENAME        mobley_9883303_prod
Info: BINARY OUTPUT FILES WILL BE USED
Info: RESTART FILENAME       mobley_9883303_prod.restart
Info: RESTART FREQUENCY      100000
Info: BINARY RESTART FILES WILL BE USED
Info: CUTOFF                 9
Info: PAIRLIST DISTANCE      11
Info: PAIRLIST SHRINK RATE   0.01
Info: PAIRLIST GROW RATE     0.01
Info: PAIRLIST TRIGGER       0.3
Info: PAIRLISTS PER CYCLE    2
Info: PAIRLISTS ENABLED
Info: MARGIN                 2
Info: HYDROGEN GROUP CUTOFF  2.5
Info: PATCH DIMENSION        15.5
Info: ENERGY OUTPUT STEPS    100000
Info: ENERGY EVALUATION STEPS    100000
Info: OUTPUT ENERGY PRECISION 4
Info: CROSSTERM ENERGY INCLUDED IN DIHEDRAL
Info: TIMING OUTPUT STEPS    1000000
Info: PRESSURE OUTPUT STEPS  100000
Info: ALCHEMICAL FEP ON
Info: FEP CURRENT LAMBDA VALUE     0
Info: FEP COMPARISON LAMBDA VALUE  0.05
Info: FEP INTRA-ALCHEMICAL NON-BONDED INTERACTIONS WILL BE RETAINED
Info: FEP INTRA-ALCHEMICAL BONDED INTERACTIONS WILL BE RETAINED
Info: FEP VDW SHIFTING COEFFICIENT 5
Info: FEP ELEC. ACTIVE FOR ANNIHILATED PARTICLES BETWEEN LAMBDA = 0 AND LAMBDA = 0.5
Info: FEP ELEC. ACTIVE FOR EXNIHILATED PARTICLES BETWEEN LAMBDA = 0.5 AND LAMBDA = 1
Info: FEP VDW ACTIVE FOR ANNIHILATED PARTICLES BETWEEN LAMBDA = 0 AND LAMBDA = 1
Info: FEP VDW ACTIVE FOR EXNIHILATED PARTICLES BETWEEN LAMBDA = 0 AND LAMBDA = 1
Info: FEP BOND ACTIVE FOR ANNIHILATED PARTICLES BETWEEN LAMBDA = 1 AND LAMBDA = 1
Info: FEP BOND ACTIVE FOR EXNIHILATED PARTICLES BETWEEN LAMBDA = 0 AND LAMBDA = 0
Info: LANGEVIN DYNAMICS ACTIVE
Info: LANGEVIN TEMPERATURE   300
Info: LANGEVIN USING BBK INTEGRATOR
Info: LANGEVIN DAMPING COEFFICIENT IS 1 INVERSE PS
Info: LANGEVIN DYNAMICS APPLIED TO HYDROGENS
Info: LANGEVIN PISTON PRESSURE CONTROL ACTIVE
Info:        TARGET PRESSURE IS 1.01325 BAR
Info:     OSCILLATION PERIOD IS 50 FS
Info:             DECAY TIME IS 25 FS
Info:     PISTON TEMPERATURE IS 300 K
Info:       PRESSURE CONTROL IS GROUP-BASED
Info:    INITIAL STRAIN RATE IS 0.000592894 0.000592894 0.000592894
Info:       CELL FLUCTUATION IS ISOTROPIC
Info: PARTICLE MESH EWALD (PME) ACTIVE
Info: PME TOLERANCE               1e-06
Info: PME EWALD COEFFICIENT       0.348832
Info: PME INTERPOLATION ORDER     4
Info: PME GRID DIMENSIONS         32 32 32
Info: PME MAXIMUM GRID SPACING    1
Info: PME CALCULATION WILL BE PERFORMED ON GPU
Info: FULL ELECTROSTATIC EVALUATION FREQUENCY      2
Info: USING VERLET I (r-RESPA) MTS SCHEME.
Info: C1 SPLITTING OF LONG RANGE ELECTROSTATICS
Info: PLACING ATOMS IN PATCHES BY HYDROGEN GROUPS
Info: RIGID BONDS TO HYDROGEN : ALL
Info:         ERROR TOLERANCE : 1e-08
Info:          MAX ITERATIONS : 100
Info: RIGID WATER USING SETTLE ALGORITHM
Info: RANDOM NUMBER SEED     1743942648
Info: USE HYDROGEN BONDS?    NO
Info: Using AMBER format force field!
Info: AMBER PARM FILE        mobley_9883303.prmtop
Info: COORDINATE PDB         mobley_9883303.pdb
Info: Exclusions will be read from PARM file!
Info: SCNB (VDW SCALING)     2
Info: USING ARITHMETIC MEAN TO COMBINE L-J SIGMA PARAMETERS
Info: BINARY COORDINATES     mobley_9883303_equil.coor
Info: SUMMARY OF PARAMETERS:
Info: 4 BONDS
Info: 3 ANGLES
Info:   3 HARMONIC
Info:   0 COSINE-BASED
Info: 5 DIHEDRAL
Info: 0 IMPROPER
Info: 0 CROSSTERM
Info: 0 VDW
Info: 10 VDW_PAIRS
Info: 0 NBTHOLE_PAIRS
Info: To read alchdata from file: mobley_9883303.pdb
Info: To read alchflag data from column: 5
Info: STRUCTURE SUMMARY:
Info: 2930 ATOMS
Info: 2929 BONDS
Info: 42 ANGLES
Info: 64 DIHEDRALS
Info: 0 IMPROPERS
Info: 0 CROSSTERMS
Info: 3025 EXCLUSIONS
Info: 2923 RIGID BONDS
Info: ALCH: 0 ATOMS TO DISAPPEAR IN FINAL STATE
Info: ALCH: 23 ATOMS TO APPEAR IN FINAL STATE
Info: 5867 DEGREES OF FREEDOM
Info: 976 HYDROGEN GROUPS
Info: 4 ATOMS IN LARGEST HYDROGEN GROUP
Info: 976 MIGRATION GROUPS
Info: 4 ATOMS IN LARGEST MIGRATION GROUP
Info: TOTAL MASS = 17557.7 amu
Info: TOTAL CHARGE = 0.000200007 e
Info: MASS DENSITY = 0.967855 g/cm^3
Info: ATOM DENSITY = 0.0972637 atoms/A^3
Info: ADDED 0 IMPLICIT EXCLUSIONS
Info: NONBONDED TABLE R-SQUARED SPACING: 0.0625
Info: NONBONDED TABLE SIZE: 705 POINTS
Info: REMOVING COM VELOCITY 0.0385957 -0.079927 0.0948439
Info: Use 3D box decompostion in PME FFT.
Info: Updated CUDA force table with 4096 elements.
Info: Updated CUDA LJ table with 4 x 4 elements.
Info: Found 26 unique exclusion lists needing 80 bytes
TCL: Running for 1500000 steps
ETITLE: TS BOND ANGLE DIHED IMPRP ELECT VDW BOUNDARY MISC KINETIC TOTAL TEMP POTENTIAL TOTALAVG TEMPAVG PRESSURE GPRESSURE VOLUME PRESSAVG GPRESSAVG
ENERGY: 0 3.4996 9.0304 3.6551 0.0000 -10547.5495 1357.3729 0.0000 0.0000 1736.2967 -7437.6948 297.8504 -9173.9915 -7437.6948 297.8504 -735.6281 -650.4990 30124.2761 -735.6281 -650.4990
ENERGY: 300000 2.4627 10.5243 4.0443 0.0000 -10652.0749 1514.9231 0.0000 0.0000 1730.2343 -7389.8863 296.8105 -9120.1206 -7371.3717 299.9002 699.3655 815.4608 29698.2996 112.6152 186.5593
ENERGY: 600000 0.8057 12.9262 3.0520 0.0000 -10466.3291 1376.2256 0.0000 0.0000 1840.2004 -7233.1191 315.6744 -9073.3195 -7343.5770 300.3797 -248.3043 -141.7251 29914.7274 -23.9002 41.1649
ENERGY: 900000 6.1067 9.1991 3.1229 0.0000 -10441.9853 1320.5480 0.0000 0.0000 1731.0831 -7371.9255 296.9561 -9103.0086 -7365.1538 299.9182 -971.3820 -949.6892 30144.8898 -59.4273 -12.9217
ENERGY: 1200000 2.1273 9.5524 2.6978 0.0000 -10504.4669 1374.0134 0.0000 0.0000 1805.2428 -7310.8332 309.6777 -9116.0760 -7362.1975 300.7916 -521.1888 -458.5688 30391.3319 -56.1113 -3.7063
ENERGY: 1500000 1.6553 11.6578 4.5144 0.0000 -10669.0665 1460.3803 0.0000 0.0000 1759.5268 -7431.3319 301.8354 -9190.8587 -7368.9674 301.2783 135.6871 187.1150 29580.1143 -70.6337 -20.7874
TCL: Running FEP window   2: Lambda1 0.05   Lambda2 0.1    [dLambda 0.05  ]
TCL: Setting parameter firsttimestep to 0
TCL: Setting parameter alchLambda to 0.05
Info: NONBONDED TABLE R-SQUARED SPACING: 0.0625
Info: NONBONDED TABLE SIZE: 705 POINTS
TCL: Setting parameter alchLambda2 to 0.1
Info: NONBONDED TABLE R-SQUARED SPACING: 0.0625
Info: NONBONDED TABLE SIZE: 705 POINTS
TCL: Running for 1500000 steps
ETITLE: TS BOND ANGLE DIHED IMPRP ELECT VDW BOUNDARY MISC KINETIC TOTAL TEMP POTENTIAL TOTALAVG TEMPAVG PRESSURE GPRESSURE VOLUME PRESSAVG GPRESSAVG
ENERGY: 0 1.6553 11.6578 4.5144 0.0000 -10669.0676 1462.9156 0.0000 0.0000 1758.6329 -7429.6917 301.6821 -9188.3245 -7429.6917 301.6821 114.7373 197.1712 29580.1143 114.7373 197.1712
ENERGY: 300000 3.8554 7.2790 3.6864 0.0000 -10510.4745 1401.5297 0.0000 0.0000 1762.6539 -7331.4701 302.3718 -9094.1240 -7368.3013 302.2953 69.8040 129.5627 29849.3128 51.2058 117.3735
ENERGY: 600000 1.4654 6.6523 2.6317 0.0000 -10608.7586 1417.6303 0.0000 0.0000 1790.0246 -7390.3542 307.0671 -9180.3788 -7375.6278 301.4313 104.1379 175.1175 29444.8527 -18.4413 52.8209
ENERGY: 900000 1.4044 12.5299 6.0280 0.0000 -10739.0131 1505.7222 0.0000 0.0000 1748.3548 -7464.9738 299.9189 -9213.3286 -7392.7704 301.8711 340.1756 409.6077 29751.4068 87.9847 153.2096
ENERGY: 1200000 3.3052 10.8646 3.2670 0.0000 -10606.1312 1351.0620 0.0000 0.0000 1704.8619 -7532.7705 292.4580 -9237.6324 -7406.4562 300.6499 -1019.4566 -947.6541 29945.5572 -12.1331 49.6299
ENERGY: 1500000 0.5242 11.9012 3.4785 0.0000 -10663.1185 1496.8024 0.0000 0.0000 1724.3457 -7426.0666 295.8003 -9150.4123 -7406.3517 300.4767 459.7456 497.4468 30026.8078 58.3733 116.6077
TCL: Running FEP window   3: Lambda1 0.1    Lambda2 0.15000000000000002 [dLambda 0.05000000000000002]
TCL: Setting parameter firsttimestep to 0
TCL: Setting parameter alchLambda to 0.1
Info: NONBONDED TABLE R-SQUARED SPACING: 0.0625
Info: NONBONDED TABLE SIZE: 705 POINTS
TCL: Setting parameter alchLambda2 to 0.15000000000000002
Info: NONBONDED TABLE R-SQUARED SPACING: 0.0625
Info: NONBONDED TABLE SIZE: 705 POINTS
TCL: Running for 1500000 steps
ETITLE: TS BOND ANGLE DIHED IMPRP ELECT VDW BOUNDARY MISC KINETIC TOTAL TEMP POTENTIAL TOTALAVG TEMPAVG PRESSURE GPRESSURE VOLUME PRESSAVG GPRESSAVG
ENERGY: 0 0.5242 11.9012 3.4785 0.0000 -10663.1210 1497.2700 0.0000 0.0000 1723.4758 -7426.4713 295.6511 -9149.9471 -7426.4713 295.6511 410.2399 499.5653 30026.8078 410.2399 499.5653
ENERGY: 300000 0.9291 12.5178 3.5037 0.0000 -10714.0197 1546.8818 0.0000 0.0000 1803.6581 -7346.5293 309.4058 -9150.1874 -7410.3942 296.1043 1033.3055 1112.4436 29845.7620 351.7114 414.2839
ENERGY: 600000 4.2912 13.3517 3.7823 0.0000 -10494.6936 1343.2518 0.0000 0.0000 1733.7188 -7396.2977 297.4082 -9130.0165 -7396.2005 298.6047 -912.5142 -773.4736 30180.4233 128.2629 196.1647
ENERGY: 900000 2.2117 12.3822 4.0039 0.0000 -10403.4601 1348.4221 0.0000 0.0000 1767.7588 -7268.6815 303.2475 -9036.4403 -7374.1774 300.2999 -325.5112 -253.4755 29860.3748 116.1335 180.6814
ENERGY: 1200000 1.7306 13.0605 4.8114 0.0000 -10489.8047 1362.7133 0.0000 0.0000 1777.8402 -7329.6486 304.9770 -9107.4888 -7382.8256 300.3961 -310.5943 -257.6188 29679.9547 138.2701 192.2834
ENERGY: 1500000 2.3334 7.1946 3.1367 0.0000 -10591.2342 1404.2746 0.0000 0.0000 1733.1034 -7441.1915 297.3026 -9174.2949 -7385.6228 300.5432 -326.4161 -236.2234 29787.1558 13.9824 66.0189
TCL: Running FEP window   4: Lambda1 0.15000000000000002 Lambda2 0.2    [dLambda 0.04999999999999999]
TCL: Setting parameter firsttimestep to 0
TCL: Setting parameter alchLambda to 0.15000000000000002
Info: NONBONDED TABLE R-SQUARED SPACING: 0.0625
Info: NONBONDED TABLE SIZE: 705 POINTS
TCL: Setting parameter alchLambda2 to 0.2
Info: NONBONDED TABLE R-SQUARED SPACING: 0.0625
Info: NONBONDED TABLE SIZE: 705 POINTS
TCL: Running for 1500000 steps
ETITLE: TS BOND ANGLE DIHED IMPRP ELECT VDW BOUNDARY MISC KINETIC TOTAL TEMP POTENTIAL TOTALAVG TEMPAVG PRESSURE GPRESSURE VOLUME PRESSAVG GPRESSAVG
ENERGY: 0 2.3334 7.1946 3.1367 0.0000 -10591.2355 1405.3986 0.0000 0.0000 1732.2404 -7440.9318 297.1546 -9173.1722 -7440.9318 297.1546 -305.0824 -226.7162 29787.1558 -305.0824 -226.7162
ENERGY: 300000 2.8129 10.4540 3.7618 0.0000 -10620.7035 1394.6353 0.0000 0.0000 1707.9240 -7501.1155 292.9833 -9209.0395 -7422.2092 298.8642 -664.5554 -558.1502 30063.7798 -15.6480 45.0428
ENERGY: 600000 1.5296 13.8120 3.7309 0.0000 -10558.6643 1410.5542 0.0000 0.0000 1715.4386 -7413.5990 294.2724 -9129.0376 -7403.9523 298.9956 -201.6497 -122.9039 29947.1873 173.4025 238.2692
ENERGY: 900000 3.3169 13.3920 3.1021 0.0000 -10794.2923 1572.2834 0.0000 0.0000 1725.5720 -7476.6258 296.0107 -9202.1979 -7409.3713 299.6814 1040.5247 1101.5137 29706.5327 217.2434 287.9560
ENERGY: 1200000 1.3230 7.2547 2.6309 0.0000 -10540.4882 1382.4804 0.0000 0.0000 1770.2160 -7376.5833 303.6691 -9146.7993 -7405.4657 299.2843 -621.4651 -556.3919 30335.3237 124.6625 192.6362
ENERGY: 1500000 3.8660 8.1149 3.5188 0.0000 -10458.6266 1351.2999 0.0000 0.0000 1803.0569 -7288.7701 309.3027 -9091.8270 -7398.8824 300.6926 -437.3177 -437.3832 30182.2166 17.5942 81.4121
TCL: Running FEP window   5: Lambda1 0.2    Lambda2 0.25   [dLambda 0.04999999999999999]
TCL: Setting parameter firsttimestep to 0
TCL: Setting parameter alchLambda to 0.2
Info: NONBONDED TABLE R-SQUARED SPACING: 0.0625
Info: NONBONDED TABLE SIZE: 705 POINTS
TCL: Setting parameter alchLambda2 to 0.25
Info: NONBONDED TABLE R-SQUARED SPACING: 0.0625
Info: NONBONDED TABLE SIZE: 705 POINTS
TCL: Running for 1500000 steps
ETITLE: TS BOND ANGLE DIHED IMPRP ELECT VDW BOUNDARY MISC KINETIC TOTAL TEMP POTENTIAL TOTALAVG TEMPAVG PRESSURE GPRESSURE VOLUME PRESSAVG GPRESSAVG
ENERGY: 0 3.8660 8.1149 3.5188 0.0000 -10458.6268 1352.3033 0.0000 0.0000 1802.1954 -7288.6284 309.1549 -9090.8238 -7288.6284 309.1549 -515.2824 -427.8461 30182.2166 -515.2824 -427.8461
ENERGY: 300000 1.4807 11.8126 3.7981 0.0000 -10603.6981 1432.0571 0.0000 0.0000 1768.8872 -7385.6624 303.4411 -9154.5496 -7388.6007 299.9021 -65.8116 34.3491 29967.6545 113.7435 167.6982
ENERGY: 600000 1.6142 13.3531 4.0834 0.0000 -10459.7260 1317.6469 0.0000 0.0000 1781.1292 -7341.8993 305.5412 -9123.0284 -7367.7322 301.2384 -978.3804 -918.1470 30131.0879 -68.4275 -2.6393
ENERGY: 900000 1.4839 11.0825 3.2316 0.0000 -10482.8415 1403.2244 0.0000 0.0000 1755.2138 -7308.6052 301.0955 -9063.8190 -7368.1421 300.6306 -148.5522 -82.6377 30321.2371 -133.8744 -68.7315
ENERGY: 1200000 0.6449 8.8117 3.7951 0.0000 -10545.8294 1353.6054 0.0000 0.0000 1723.5443 -7455.4281 295.6628 -9178.9724 -7381.0788 300.7643 -577.5563 -515.6253 29829.6569 -173.1103 -108.9426
ENERGY: 1500000 0.1633 10.1260 4.3296 0.0000 -10564.3730 1446.4224 0.0000 0.0000 1756.2341 -7347.0976 301.2706 -9103.3317 -7382.0822 300.3799 113.4515 213.3237 30277.4070 -157.3581 -104.0911
TCL: Running FEP window   6: Lambda1 0.25   Lambda2 0.3    [dLambda 0.04999999999999999]
TCL: Setting parameter firsttimestep to 0
TCL: Setting parameter alchLambda to 0.25
Info: NONBONDED TABLE R-SQUARED SPACING: 0.0625
Info: NONBONDED TABLE SIZE: 705 POINTS
TCL: Setting parameter alchLambda2 to 0.3
Info: NONBONDED TABLE R-SQUARED SPACING: 0.0625
Info: NONBONDED TABLE SIZE: 705 POINTS
TCL: Running for 1500000 steps
ETITLE: TS BOND ANGLE DIHED IMPRP ELECT VDW BOUNDARY MISC KINETIC TOTAL TEMP POTENTIAL TOTALAVG TEMPAVG PRESSURE GPRESSURE VOLUME PRESSAVG GPRESSAVG
ENERGY: 0 0.1633 10.1260 4.3296 0.0000 -10564.3706 1446.6719 0.0000 0.0000 1755.3672 -7347.7126 301.1219 -9103.0798 -7347.7126 301.1219 134.1358 216.8409 30277.4070 134.1358 216.8409
ENERGY: 300000 2.9214 9.4981 5.2614 0.0000 -10503.9603 1394.9088 0.0000 0.0000 1771.4683 -7319.9023 303.8839 -9091.3706 -7390.5416 301.0180 -244.9336 -246.6756 30309.9416 -93.3682 -45.6430
ENERGY: 600000 1.7572 9.7337 3.9074 0.0000 -10737.0834 1517.6769 0.0000 0.0000 1773.2447 -7430.7635 304.1886 -9204.0081 -7410.8009 300.9968 748.8649 741.2758 29791.8842 255.1047 313.3019
ENERGY: 900000 2.2585 12.4798 5.2064 0.0000 -10664.9609 1488.6197 0.0000 0.0000 1767.5257 -7388.8708 303.2076 -9156.3965 -7394.7489 300.8089 338.0282 359.1350 30042.3660 72.8749 121.7855
ENERGY: 1200000 2.8541 9.2726 3.6077 0.0000 -10475.3564 1323.6240 0.0000 0.0000 1754.6367 -7381.3613 300.9965 -9135.9980 -7387.1371 301.1785 -817.9547 -795.5488 29994.9425 -4.9780 48.0135
ENERGY: 1500000 2.1353 10.1309 3.3805 0.0000 -10543.6527 1410.7085 0.0000 0.0000 1808.2074 -7309.0901 310.1862 -9117.2975 -7375.3623 302.4749 -277.2650 -195.0124 30270.8193 22.0531 71.6083
TCL: Running FEP window   7: Lambda1 0.3    Lambda2 0.35   [dLambda 0.04999999999999999]
TCL: Setting parameter firsttimestep to 0
TCL: Setting parameter alchLambda to 0.3
Info: NONBONDED TABLE R-SQUARED SPACING: 0.0625
Info: NONBONDED TABLE SIZE: 705 POINTS
TCL: Setting parameter alchLambda2 to 0.35
Info: NONBONDED TABLE R-SQUARED SPACING: 0.0625
Info: NONBONDED TABLE SIZE: 705 POINTS
TCL: Running for 1500000 steps
ETITLE: TS BOND ANGLE DIHED IMPRP ELECT VDW BOUNDARY MISC KINETIC TOTAL TEMP POTENTIAL TOTALAVG TEMPAVG PRESSURE GPRESSURE VOLUME PRESSAVG GPRESSAVG
ENERGY: 0 2.1353 10.1309 3.3805 0.0000 -10543.6516 1410.2363 0.0000 0.0000 1807.3579 -7310.4107 310.0405 -9117.7686 -7310.4107 310.0405 -280.2251 -196.2232 30270.8193 -280.2251 -196.2232
ENERGY: 300000 1.4961 10.4071 3.1670 0.0000 -10577.5039 1456.5942 0.0000 0.0000 1797.5084 -7308.3311 308.3509 -9105.8395 -7330.2294 305.3189 164.8665 211.1470 30410.7241 -60.4282 -4.8192
ENERGY: 600000 2.7921 9.2463 3.3928 0.0000 -10553.6206 1400.0489 0.0000 0.0000 1723.4452 -7414.6953 295.6458 -9138.1405 -7357.4694 301.9936 -407.1599 -308.7292 30234.1377 -195.6190 -139.1971
ENERGY: 900000 1.6440 10.0939 3.6233 0.0000 -10653.9749 1462.4240 0.0000 0.0000 1701.2026 -7474.9872 291.8303 -9176.1898 -7372.1879 300.5681 288.8607 352.1493 29839.6848 -58.1554 3.7966
ENERGY: 1200000 0.4711 17.8119 4.7007 0.0000 -10500.5105 1332.9778 0.0000 0.0000 1743.9960 -7400.5530 299.1712 -9144.5490 -7378.9770 299.4271 -1003.0298 -938.5925 30417.8008 -64.7532 -3.8255
ENERGY: 1500000 3.4733 14.4568 4.2312 0.0000 -10631.9846 1471.6201 0.0000 0.0000 1684.1751 -7454.0281 288.9093 -9138.2031 -7384.6719 299.4272 71.5551 170.7034 30054.0509 -113.8242 -45.0450
TCL: Running FEP window   8: Lambda1 0.35   Lambda2 0.39999999999999997 [dLambda 0.04999999999999999]
TCL: Setting parameter firsttimestep to 0
TCL: Setting parameter alchLambda to 0.35
Info: NONBONDED TABLE R-SQUARED SPACING: 0.0625
Info: NONBONDED TABLE SIZE: 705 POINTS
TCL: Setting parameter alchLambda2 to 0.39999999999999997
Info: NONBONDED TABLE R-SQUARED SPACING: 0.0625
Info: NONBONDED TABLE SIZE: 705 POINTS
TCL: Running for 1500000 steps
ETITLE: TS BOND ANGLE DIHED IMPRP ELECT VDW BOUNDARY MISC KINETIC TOTAL TEMP POTENTIAL TOTALAVG TEMPAVG PRESSURE GPRESSURE VOLUME PRESSAVG GPRESSAVG
ENERGY: 0 3.4733 14.4568 4.2312 0.0000 -10631.9821 1471.6709 0.0000 0.0000 1683.2976 -7454.8523 288.7588 -9138.1499 -7454.8523 288.7588 84.6152 177.2341 30054.0509 84.6152 177.2341
ENERGY: 300000 2.0295 9.2186 4.9064 0.0000 -10521.9582 1356.6262 0.0000 0.0000 1759.8990 -7389.2786 301.8992 -9149.1775 -7423.3779 296.4836 -305.2915 -259.2512 29802.3254 -138.0905 -52.2069
ENERGY: 600000 0.8748 13.3003 5.6721 0.0000 -10592.9299 1422.8196 0.0000 0.0000 1764.1320 -7386.1311 302.6254 -9150.2630 -7400.1483 300.5409 -74.2197 34.6227 29986.2361 -222.6648 -135.4163
ENERGY: 900000 0.6489 13.4051 3.7696 0.0000 -10590.1300 1393.9408 0.0000 0.0000 1762.4382 -7415.9275 302.3348 -9178.3657 -7402.8061 299.1214 -475.2128 -394.2646 30175.6861 -252.5414 -167.3058
ENERGY: 1200000 1.6957 12.5060 5.2193 0.0000 -10499.2130 1446.6350 0.0000 0.0000 1804.1714 -7228.9855 309.4939 -9033.1570 -7389.1884 299.6474 503.2679 589.0920 29904.6687 -125.7352 -45.2445
ENERGY: 1500000 1.0842 8.4516 3.5309 0.0000 -10463.4315 1361.5203 0.0000 0.0000 1762.4016 -7326.4430 302.3286 -9088.8446 -7386.8768 300.3890 -400.7493 -383.2170 30136.8541 -255.8998 -177.5314
TCL: Running FEP window   9: Lambda1 0.39999999999999997 Lambda2 0.44999999999999996 [dLambda 0.04999999999999999]
TCL: Setting parameter firsttimestep to 0
TCL: Setting parameter alchLambda to 0.39999999999999997
Info: NONBONDED TABLE R-SQUARED SPACING: 0.0625
Info: NONBONDED TABLE SIZE: 705 POINTS
TCL: Setting parameter alchLambda2 to 0.44999999999999996
Info: NONBONDED TABLE R-SQUARED SPACING: 0.0625
Info: NONBONDED TABLE SIZE: 705 POINTS
TCL: Running for 1500000 steps
ETITLE: TS BOND ANGLE DIHED IMPRP ELECT VDW BOUNDARY MISC KINETIC TOTAL TEMP POTENTIAL TOTALAVG TEMPAVG PRESSURE GPRESSURE VOLUME PRESSAVG GPRESSAVG
ENERGY: 0 1.0842 8.4516 3.5309 0.0000 -10463.4312 1362.6767 0.0000 0.0000 1761.5504 -7326.1374 302.1825 -9087.6878 -7326.1374 302.1825 -456.0548 -368.1761 30136.8541 -456.0548 -368.1761
ENERGY: 300000 4.1748 11.5555 3.6466 0.0000 -10511.7998 1368.7689 0.0000 0.0000 1744.0451 -7379.6090 299.1796 -9123.6541 -7356.7682 301.0193 -411.4540 -341.3807 29919.7326 -260.0944 -191.0911
ENERGY: 600000 1.0605 9.6143 4.9443 0.0000 -10640.8697 1446.7696 0.0000 0.0000 1713.1077 -7465.3733 293.8725 -9178.4810 -7379.4726 299.9876 -72.5357 -5.1671 29967.9206 -200.6598 -119.0591
ENERGY: 900000 3.1466 11.1257 6.5559 0.0000 -10536.1457 1382.3397 0.0000 0.0000 1774.8313 -7358.1466 304.4608 -9132.9779 -7372.6154 300.5477 -394.4155 -364.0736 30198.4229 -135.5072 -63.2100
ENERGY: 1200000 2.0448 12.6320 4.8270 0.0000 -10624.4643 1439.1056 0.0000 0.0000 1721.7787 -7444.0761 295.3600 -9165.8548 -7379.3500 300.0421 241.8521 349.6286 29468.7284 -136.9105 -59.9832
ENERGY: 1500000 2.5068 11.6475 6.1142 0.0000 -10605.5928 1410.6086 0.0000 0.0000 1717.4430 -7457.2727 294.6162 -9174.7157 -7380.1875 299.8084 -317.0314 -145.1629 29702.6580 -164.4318 -79.4554
TCL: Running FEP window  10: Lambda1 0.44999999999999996 Lambda2 0.49999999999999994 [dLambda 0.04999999999999999]
TCL: Setting parameter firsttimestep to 0
TCL: Setting parameter alchLambda to 0.44999999999999996
Info: NONBONDED TABLE R-SQUARED SPACING: 0.0625
Info: NONBONDED TABLE SIZE: 705 POINTS
TCL: Setting parameter alchLambda2 to 0.49999999999999994
Info: NONBONDED TABLE R-SQUARED SPACING: 0.0625
Info: NONBONDED TABLE SIZE: 705 POINTS
TCL: Running for 1500000 steps
ETITLE: TS BOND ANGLE DIHED IMPRP ELECT VDW BOUNDARY MISC KINETIC TOTAL TEMP POTENTIAL TOTALAVG TEMPAVG PRESSURE GPRESSURE VOLUME PRESSAVG GPRESSAVG
ENERGY: 0 2.5068 11.6475 6.1142 0.0000 -10605.5942 1410.1206 0.0000 0.0000 1716.5468 -7458.6582 294.4625 -9175.2050 -7458.6582 294.4625 -222.8292 -141.3167 29702.6580 -222.8292 -141.3167
ENERGY: 300000 2.7525 17.6257 4.4296 0.0000 -10701.2443 1512.0572 0.0000 0.0000 1757.0624 -7407.3168 301.4127 -9164.3793 -7379.8009 300.4002 692.0451 745.6775 29820.0579 59.3751 142.0685
ENERGY: 600000 2.6279 6.2190 4.8615 0.0000 -10788.5031 1594.4028 0.0000 0.0000 1726.3533 -7454.0385 296.1447 -9180.3918 -7394.6497 299.4826 1245.1704 1319.8444 29847.3678 183.5422 250.9519
ENERGY: 900000 3.1691 11.4720 5.3181 0.0000 -10712.0267 1475.4118 0.0000 0.0000 1684.1176 -7532.5381 288.8994 -9216.6557 -7409.4461 297.6014 75.9568 107.3522 30018.8733 273.8351 338.2853
ENERGY: 1200000 2.1781 8.7842 4.2710 0.0000 -10610.3668 1385.3906 0.0000 0.0000 1715.0330 -7494.7099 294.2028 -9209.7429 -7425.3414 296.9860 -272.8466 -240.5071 29805.4256 174.5151 240.9345
ENERGY: 1500000 3.0465 8.5276 4.4741 0.0000 -10643.4583 1391.8968 0.0000 0.0000 1764.9786 -7470.5348 302.7706 -9235.5134 -7420.7345 297.9542 -882.7502 -760.7970 30489.6279 122.8774 193.8185
TCL: Running FEP window  11: Lambda1 0.49999999999999994 Lambda2 0.5499999999999999 [dLambda 0.04999999999999999]
TCL: Setting parameter firsttimestep to 0
TCL: Setting parameter alchLambda to 0.49999999999999994
Info: NONBONDED TABLE R-SQUARED SPACING: 0.0625
Info: NONBONDED TABLE SIZE: 705 POINTS
TCL: Setting parameter alchLambda2 to 0.5499999999999999
Info: NONBONDED TABLE R-SQUARED SPACING: 0.0625
Info: NONBONDED TABLE SIZE: 705 POINTS
TCL: Running for 1500000 steps
ETITLE: TS BOND ANGLE DIHED IMPRP ELECT VDW BOUNDARY MISC KINETIC TOTAL TEMP POTENTIAL TOTALAVG TEMPAVG PRESSURE GPRESSURE VOLUME PRESSAVG GPRESSAVG
ENERGY: 0 3.0465 8.5276 4.4741 0.0000 -10643.4581 1391.8535 0.0000 0.0000 1764.0674 -7471.4890 302.6143 -9235.5564 -7471.4890 302.6143 -840.0500 -753.1194 30489.6279 -840.0500 -753.1194
ENERGY: 300000 1.9078 14.0055 3.9898 0.0000 -10611.2535 1394.8264 0.0000 0.0000 1769.6715 -7426.8525 303.5757 -9196.5240 -7440.8314 300.7516 -368.0189 -318.1861 30046.4169 -596.7532 -515.0231
ENERGY: 600000 1.4104 11.7249 3.0988 0.0000 -10725.6224 1484.7867 0.0000 0.0000 1754.2923 -7470.3093 300.9375 -9224.6016 -7444.6374 299.0559 63.5996 113.5138 30321.1092 -303.4231 -230.8277
ENERGY: 900000 0.8485 16.2225 3.6473 0.0000 -10492.5602 1347.2730 0.0000 0.0000 1762.6465 -7361.9224 302.3706 -9124.5689 -7433.8647 298.7253 -356.4862 -306.6673 29946.3462 -193.4884 -126.9868
ENERGY: 1200000 1.6526 13.2202 6.2398 0.0000 -10779.4782 1594.6589 0.0000 0.0000 1676.7372 -7486.9695 287.6334 -9163.7067 -7427.3119 299.3829 1165.3973 1198.9553 30272.4811 -77.6226 -17.2076
ENERGY: 1500000 2.8458 9.8799 5.5134 0.0000 -10492.9476 1399.8158 0.0000 0.0000 1710.3247 -7364.5679 293.3951 -9074.8926 -7420.4874 299.5067 -150.3413 -49.2094 30049.6030 -16.2155 45.8616
TCL: Running FEP window  12: Lambda1 0.5499999999999999 Lambda2 0.6    [dLambda 0.050000000000000044]
TCL: Setting parameter firsttimestep to 0
TCL: Setting parameter alchLambda to 0.5499999999999999
Info: NONBONDED TABLE R-SQUARED SPACING: 0.0625
Info: NONBONDED TABLE SIZE: 705 POINTS
TCL: Setting parameter alchLambda2 to 0.6
Info: NONBONDED TABLE R-SQUARED SPACING: 0.0625
Info: NONBONDED TABLE SIZE: 705 POINTS
TCL: Running for 1500000 steps
ETITLE: TS BOND ANGLE DIHED IMPRP ELECT VDW BOUNDARY MISC KINETIC TOTAL TEMP POTENTIAL TOTALAVG TEMPAVG PRESSURE GPRESSURE VOLUME PRESSAVG GPRESSAVG
ENERGY: 0 2.8458 9.8799 5.5134 0.0000 -10492.9756 1401.1475 0.0000 0.0000 1709.4434 -7364.1456 293.2439 -9073.5890 -7364.1456 293.2439 -118.0265 -29.5524 30049.6030 -118.0265 -29.5524
ENERGY: 300000 2.7227 12.0367 4.4020 0.0000 -10643.8166 1462.1129 0.0000 0.0000 1754.0226 -7408.5198 300.8912 -9162.5424 -7380.8807 297.3930 19.9496 167.2345 30336.6371 44.3123 141.5944
ENERGY: 600000 4.5724 11.4488 4.5975 0.0000 -10489.5570 1349.8212 0.0000 0.0000 1814.6500 -7304.4670 311.2914 -9119.1170 -7359.8492 300.6497 -336.3888 -277.0601 29715.7588 -124.0168 -46.6579
ENERGY: 900000 3.1478 13.9533 3.6200 0.0000 -10473.4216 1286.0919 0.0000 0.0000 1733.3447 -7433.2638 297.3440 -9166.6085 -7377.1646 299.3245 -1237.1271 -1192.6041 30349.8566 -225.1438 -149.9466
ENERGY: 1200000 2.3734 13.6841 5.9536 0.0000 -10637.9227 1490.4280 0.0000 0.0000 1768.2119 -7357.2717 303.3253 -9125.4836 -7379.6972 299.4016 771.6026 784.8113 29628.6427 -69.0562 -8.9026
ENERGY: 1500000 0.8814 11.8685 3.6295 0.0000 -10422.9711 1354.1417 0.0000 0.0000 1720.7304 -7331.7196 295.1801 -9052.4500 -7380.2178 299.2008 -418.8151 -305.9122 30481.9243 -157.3193 -89.1924
TCL: Running FEP window  13: Lambda1 0.6    Lambda2 0.65   [dLambda 0.050000000000000044]
TCL: Setting parameter firsttimestep to 0
TCL: Setting parameter alchLambda to 0.6
Info: NONBONDED TABLE R-SQUARED SPACING: 0.0625
Info: NONBONDED TABLE SIZE: 705 POINTS
TCL: Setting parameter alchLambda2 to 0.65
Info: NONBONDED TABLE R-SQUARED SPACING: 0.0625
Info: NONBONDED TABLE SIZE: 705 POINTS
TCL: Running for 1500000 steps
ETITLE: TS BOND ANGLE DIHED IMPRP ELECT VDW BOUNDARY MISC KINETIC TOTAL TEMP POTENTIAL TOTALAVG TEMPAVG PRESSURE GPRESSURE VOLUME PRESSAVG GPRESSAVG
ENERGY: 0 0.8814 11.8685 3.6295 0.0000 -10422.9433 1354.5915 0.0000 0.0000 1719.8840 -7332.0884 295.0349 -9051.9724 -7332.0884 295.0349 -381.2145 -292.7766 30481.9243 -381.2145 -292.7766
ENERGY: 300000 1.9171 14.8939 5.0928 0.0000 -10563.7394 1382.1626 0.0000 0.0000 1755.6687 -7404.0044 301.1736 -9159.6731 -7362.8485 301.0954 -123.2184 -46.5181 29747.1507 -44.6623 34.1403
ENERGY: 600000 4.3873 9.8942 3.1790 0.0000 -10628.5815 1424.7086 0.0000 0.0000 1716.4494 -7469.9630 294.4458 -9186.4125 -7390.0068 297.9398 -136.1324 -147.9009 30031.7356 -26.5812 27.3186
ENERGY: 900000 0.5786 14.1888 3.6142 0.0000 -10451.8048 1299.1341 0.0000 0.0000 1794.4299 -7339.8591 307.8228 -9134.2891 -7382.3584 299.4201 -863.3529 -827.8650 30258.8709 -166.1946 -114.3023
ENERGY: 1200000 1.0656 10.8448 3.0737 0.0000 -10600.2573 1409.0894 0.0000 0.0000 1773.6776 -7402.5062 304.2629 -9176.1838 -7382.0592 299.6166 11.1540 54.9300 29665.6926 -115.6691 -58.5555
ENERGY: 1500000 3.9127 10.5836 6.0147 0.0000 -10695.7463 1524.8364 0.0000 0.0000 1717.1096 -7433.2892 294.5590 -9150.3988 -7386.6951 299.4592 579.9737 642.3987 30067.4047 -28.1490 31.2956
TCL: Running FEP window  14: Lambda1 0.65   Lambda2 0.7000000000000001 [dLambda 0.050000000000000044]
TCL: Setting parameter firsttimestep to 0
TCL: Setting parameter alchLambda to 0.65
Info: NONBONDED TABLE R-SQUARED SPACING: 0.0625
Info: NONBONDED TABLE SIZE: 705 POINTS
TCL: Setting parameter alchLambda2 to 0.7000000000000001
Info: NONBONDED TABLE R-SQUARED SPACING: 0.0625
Info: NONBONDED TABLE SIZE: 705 POINTS
TCL: Running for 1500000 steps
ETITLE: TS BOND ANGLE DIHED IMPRP ELECT VDW BOUNDARY MISC KINETIC TOTAL TEMP POTENTIAL TOTALAVG TEMPAVG PRESSURE GPRESSURE VOLUME PRESSAVG GPRESSAVG
ENERGY: 0 3.9127 10.5836 6.0147 0.0000 -10695.7399 1524.3850 0.0000 0.0000 1716.2468 -7434.5971 294.4110 -9150.8439 -7434.5971 294.4110 569.9857 648.4636 30067.4047 569.9857 648.4636
ENERGY: 300000 0.9858 7.6990 4.6195 0.0000 -10630.1821 1460.4970 0.0000 0.0000 1726.1215 -7430.2595 296.1049 -9156.3809 -7384.0473 299.1530 354.7107 399.7754 30027.7446 -5.7723 54.6476
ENERGY: 600000 2.1055 8.6320 3.2087 0.0000 -10611.0752 1449.0071 0.0000 0.0000 1717.5124 -7430.6095 294.6281 -9148.1219 -7371.8349 301.4585 77.4832 184.5373 30051.4449 -82.6139 -6.6912
ENERGY: 900000 1.5258 13.1361 6.0327 0.0000 -10587.7621 1426.8574 0.0000 0.0000 1763.9563 -7376.2537 302.5953 -9140.2101 -7373.2416 303.1239 184.9240 222.8676 30014.4400 -22.0258 48.7710
ENERGY: 1200000 2.5196 12.1142 4.0953 0.0000 -10659.0236 1497.3809 0.0000 0.0000 1746.5686 -7396.3450 299.6125 -9142.9136 -7374.1168 302.3034 597.6340 621.6062 30110.4634 -9.6460 55.8231
ENERGY: 1500000 3.4575 7.8491 3.4862 0.0000 -10658.0627 1461.8706 0.0000 0.0000 1721.5359 -7459.8633 295.3183 -9181.3993 -7385.0218 300.6285 84.6633 169.1749 30245.3501 35.4620 95.9396
TCL: Running FEP window  15: Lambda1 0.7000000000000001 Lambda2 0.7500000000000001 [dLambda 0.050000000000000044]
TCL: Setting parameter firsttimestep to 0
TCL: Setting parameter alchLambda to 0.7000000000000001
Info: NONBONDED TABLE R-SQUARED SPACING: 0.0625
Info: NONBONDED TABLE SIZE: 705 POINTS
TCL: Setting parameter alchLambda2 to 0.7500000000000001
Info: NONBONDED TABLE R-SQUARED SPACING: 0.0625
Info: NONBONDED TABLE SIZE: 705 POINTS
TCL: Running for 1500000 steps
ETITLE: TS BOND ANGLE DIHED IMPRP ELECT VDW BOUNDARY MISC KINETIC TOTAL TEMP POTENTIAL TOTALAVG TEMPAVG PRESSURE GPRESSURE VOLUME PRESSAVG GPRESSAVG
ENERGY: 0 3.4575 7.8491 3.4862 0.0000 -10658.0992 1461.9991 0.0000 0.0000 1720.5973 -7460.7100 295.1573 -9181.3073 -7460.7100 295.1573 79.4001 182.8889 30245.3501 79.4001 182.8889
ENERGY: 300000 2.4326 11.2625 5.0258 0.0000 -10342.3224 1204.3524 0.0000 0.0000 1759.1230 -7360.1262 301.7661 -9119.2492 -7409.4159 297.7455 -1676.8698 -1612.7438 29996.4186 -610.7262 -541.9146
ENERGY: 600000 5.3374 11.7794 4.6655 0.0000 -10384.1235 1247.7945 0.0000 0.0000 1708.6917 -7405.8550 293.1150 -9114.5468 -7416.6701 298.2590 -1269.0342 -1162.7158 30203.8493 -716.8166 -644.5645
ENERGY: 900000 1.4217 12.8690 6.3131 0.0000 -10675.9912 1490.8927 0.0000 0.0000 1719.1391 -7445.3556 294.9072 -9164.4947 -7409.9354 298.1728 441.1442 503.8728 29900.0598 -486.4172 -422.5294
ENERGY: 1200000 3.2413 11.7240 3.7789 0.0000 -10583.4862 1400.7438 0.0000 0.0000 1678.8006 -7485.1975 287.9874 -9163.9981 -7408.3889 298.1359 -303.1552 -237.4072 29788.8752 -328.2997 -262.0272
ENERGY: 1500000 2.0488 11.6573 5.0189 0.0000 -10555.1018 1457.4434 0.0000 0.0000 1751.7016 -7327.2318 300.4930 -9078.9333 -7401.1718 298.5167 209.9889 320.8029 30314.5393 -249.2016 -180.8054
TCL: Running FEP window  16: Lambda1 0.7500000000000001 Lambda2 0.8000000000000002 [dLambda 0.050000000000000044]
TCL: Setting parameter firsttimestep to 0
TCL: Setting parameter alchLambda to 0.7500000000000001
Info: NONBONDED TABLE R-SQUARED SPACING: 0.0625
Info: NONBONDED TABLE SIZE: 705 POINTS
TCL: Setting parameter alchLambda2 to 0.8000000000000002
Info: NONBONDED TABLE R-SQUARED SPACING: 0.0625
Info: NONBONDED TABLE SIZE: 705 POINTS
TCL: Running for 1500000 steps
ETITLE: TS BOND ANGLE DIHED IMPRP ELECT VDW BOUNDARY MISC KINETIC TOTAL TEMP POTENTIAL TOTALAVG TEMPAVG PRESSURE GPRESSURE VOLUME PRESSAVG GPRESSAVG
ENERGY: 0 2.0488 11.6573 5.0189 0.0000 -10555.1393 1456.9895 0.0000 0.0000 1750.8535 -7328.5712 300.3476 -9079.4247 -7328.5712 300.3476 231.9645 323.9716 30314.5393 231.9645 323.9716
ENERGY: 300000 3.6423 8.7372 4.2229 0.0000 -10623.1831 1430.1067 0.0000 0.0000 1774.3574 -7402.1165 304.3795 -9176.4739 -7375.9139 299.2687 -429.0069 -357.6015 30512.6721 -166.6389 -116.5423
ENERGY: 600000 4.6591 6.3438 3.3208 0.0000 -10556.5465 1467.2790 0.0000 0.0000 1784.9386 -7290.0052 306.1946 -9074.9437 -7347.6193 300.1759 235.9374 243.2459 30484.6496 -131.9088 -61.5486
ENERGY: 900000 2.3498 13.5076 3.5746 0.0000 -10646.2242 1400.9062 0.0000 0.0000 1705.1793 -7520.7068 292.5124 -9225.8861 -7367.8985 299.8572 -256.0580 -196.7731 29805.9941 -76.0946 -13.4805
ENERGY: 1200000 3.0497 7.7015 3.0003 0.0000 -10673.2938 1573.5330 0.0000 0.0000 1717.3173 -7368.6920 294.5946 -9086.0094 -7360.7054 299.7727 1099.3849 1184.8222 30189.0069 15.8955 83.0086
ENERGY: 1500000 1.7992 13.7345 3.3235 0.0000 -10584.5509 1428.3731 0.0000 0.0000 1712.7907 -7424.5298 293.8181 -9137.3205 -7367.9381 299.5952 -146.3349 -89.6297 30485.5683 -69.4979 1.9193
TCL: Running FEP window  17: Lambda1 0.8000000000000002 Lambda2 0.8500000000000002 [dLambda 0.050000000000000044]
TCL: Setting parameter firsttimestep to 0
TCL: Setting parameter alchLambda to 0.8000000000000002
Info: NONBONDED TABLE R-SQUARED SPACING: 0.0625
Info: NONBONDED TABLE SIZE: 705 POINTS
TCL: Setting parameter alchLambda2 to 0.8500000000000002
Info: NONBONDED TABLE R-SQUARED SPACING: 0.0625
Info: NONBONDED TABLE SIZE: 705 POINTS
TCL: Running for 1500000 steps
ETITLE: TS BOND ANGLE DIHED IMPRP ELECT VDW BOUNDARY MISC KINETIC TOTAL TEMP POTENTIAL TOTALAVG TEMPAVG PRESSURE GPRESSURE VOLUME PRESSAVG GPRESSAVG
ENERGY: 0 1.7992 13.7345 3.3235 0.0000 -10584.5289 1428.0988 0.0000 0.0000 1711.9241 -7425.6487 293.6695 -9137.5728 -7425.6487 293.6695 -179.5220 -84.5846 30485.5683 -179.5220 -84.5846
ENERGY: 300000 1.3292 13.2883 4.9636 0.0000 -10714.8457 1430.7460 0.0000 0.0000 1746.9593 -7517.5594 299.6795 -9264.5187 -7425.5904 297.5157 -142.3520 -32.5138 29861.5466 -114.0821 -24.8177
ENERGY: 600000 2.2823 7.9860 3.3454 0.0000 -10549.1782 1395.5113 0.0000 0.0000 1742.3003 -7397.7530 298.8803 -9140.0533 -7405.9278 299.1055 -360.1016 -282.7403 30262.8699 -267.4297 -171.6391
ENERGY: 900000 0.5357 14.6715 4.2258 0.0000 -10590.6925 1344.3446 0.0000 0.0000 1736.1155 -7490.7993 297.8193 -9226.9148 -7407.2624 299.0224 -861.7916 -829.0026 30079.0529 -343.5929 -257.0333
ENERGY: 1200000 2.1784 17.4423 5.4049 0.0000 -10481.1458 1325.5433 0.0000 0.0000 1757.1371 -7373.4397 301.4255 -9130.5768 -7393.1574 300.3139 -955.0547 -848.4311 30414.3567 -356.2638 -275.7302
ENERGY: 1500000 1.9998 11.8867 3.0452 0.0000 -10447.7759 1393.0721 0.0000 0.0000 1743.7378 -7294.0342 299.1269 -9037.7720 -7383.7393 300.5190 -54.1490 -26.2324 30288.2720 -284.4255 -208.1701
TCL: Running FEP window  18: Lambda1 0.8500000000000002 Lambda2 0.9000000000000002 [dLambda 0.050000000000000044]
TCL: Setting parameter firsttimestep to 0
TCL: Setting parameter alchLambda to 0.8500000000000002
Info: NONBONDED TABLE R-SQUARED SPACING: 0.0625
Info: NONBONDED TABLE SIZE: 705 POINTS
TCL: Setting parameter alchLambda2 to 0.9000000000000002
Info: NONBONDED TABLE R-SQUARED SPACING: 0.0625
Info: NONBONDED TABLE SIZE: 705 POINTS
TCL: Running for 1500000 steps
ETITLE: TS BOND ANGLE DIHED IMPRP ELECT VDW BOUNDARY MISC KINETIC TOTAL TEMP POTENTIAL TOTALAVG TEMPAVG PRESSURE GPRESSURE VOLUME PRESSAVG GPRESSAVG
ENERGY: 0 1.9998 11.8867 3.0452 0.0000 -10447.8363 1393.1071 0.0000 0.0000 1742.8464 -7294.9510 298.9740 -9037.7975 -7294.9510 298.9740 -85.9448 -15.2153 30288.2720 -85.9448 -15.2153
ENERGY: 300000 1.3660 9.0642 3.5338 0.0000 -10479.4478 1378.3676 0.0000 0.0000 1766.5870 -7320.5292 303.0465 -9087.1162 -7316.9626 302.1864 -221.5670 -148.7918 30262.7789 -366.4056 -314.7714
ENERGY: 600000 2.0882 13.3724 3.7116 0.0000 -10644.3358 1485.1790 0.0000 0.0000 1758.9851 -7380.9994 301.7425 -9139.9846 -7331.2764 301.5823 576.8637 598.0919 30047.6400 -260.5936 -215.7468
ENERGY: 900000 1.9777 14.3618 3.3579 0.0000 -10686.8982 1510.6943 0.0000 0.0000 1732.9944 -7423.5122 297.2839 -9156.5065 -7355.4644 300.3371 501.7508 548.6430 30511.7040 -156.6043 -122.4044
ENERGY: 1200000 2.6595 13.2348 3.4166 0.0000 -10401.8139 1347.6405 0.0000 0.0000 1758.5585 -7276.3040 301.6693 -9034.8626 -7356.7274 300.2316 -440.2766 -359.1858 30163.1636 -173.0369 -131.6401
ENERGY: 1500000 1.0577 9.3889 4.9897 0.0000 -10617.9037 1381.4538 0.0000 0.0000 1758.6453 -7462.3682 301.6842 -9221.0135 -7363.1012 301.1432 -605.5739 -507.7947 30267.3435 -263.7854 -214.5496
TCL: Running FEP window  19: Lambda1 0.9000000000000002 Lambda2 0.9500000000000003 [dLambda 0.050000000000000044]
TCL: Setting parameter firsttimestep to 0
TCL: Setting parameter alchLambda to 0.9000000000000002
Info: NONBONDED TABLE R-SQUARED SPACING: 0.0625
Info: NONBONDED TABLE SIZE: 705 POINTS
TCL: Setting parameter alchLambda2 to 0.9500000000000003
Info: NONBONDED TABLE R-SQUARED SPACING: 0.0625
Info: NONBONDED TABLE SIZE: 705 POINTS
TCL: Running for 1500000 steps
ETITLE: TS BOND ANGLE DIHED IMPRP ELECT VDW BOUNDARY MISC KINETIC TOTAL TEMP POTENTIAL TOTALAVG TEMPAVG PRESSURE GPRESSURE VOLUME PRESSAVG GPRESSAVG
ENERGY: 0 1.0577 9.3889 4.9897 0.0000 -10617.9144 1381.2994 0.0000 0.0000 1757.7743 -7463.4044 301.5348 -9221.1787 -7463.4044 301.5348 -589.6097 -496.9787 30267.3435 -589.6097 -496.9787
ENERGY: 300000 2.8533 9.0940 4.1149 0.0000 -10612.8208 1487.1898 0.0000 0.0000 1758.3949 -7351.1739 301.6412 -9109.5688 -7444.0045 295.9343 652.0626 698.7421 29904.6645 110.6078 194.0468
ENERGY: 600000 2.5035 8.4249 4.3822 0.0000 -10616.9315 1459.3140 0.0000 0.0000 1704.1155 -7438.1915 292.3300 -9142.3069 -7424.7262 296.8653 289.5501 313.9828 30034.6254 142.1295 210.0166
ENERGY: 900000 0.7781 12.3707 7.6863 0.0000 -10577.9822 1444.3138 0.0000 0.0000 1747.1719 -7365.6614 299.7160 -9112.8333 -7411.7124 297.0934 316.2331 363.9027 30143.8002 84.3791 138.9028
ENERGY: 1200000 1.8829 6.1401 4.2325 0.0000 -10474.0145 1349.8331 0.0000 0.0000 1785.4631 -7326.4629 306.2846 -9111.9260 -7402.1244 296.7217 -720.9730 -630.0364 30445.2492 -48.6245 16.9571
ENERGY: 1500000 1.7666 12.8855 3.0211 0.0000 -10662.4874 1482.3236 0.0000 0.0000 1772.5426 -7389.9479 304.0682 -9162.4905 -7405.0431 297.5931 634.3968 659.9423 29734.4802 -43.0958 17.6270
TCL: Running FEP window  20: Lambda1 0.9500000000000003 Lambda2 1.0    [dLambda 0.04999999999999971]
TCL: Setting parameter firsttimestep to 0
TCL: Setting parameter alchLambda to 0.9500000000000003
Info: NONBONDED TABLE R-SQUARED SPACING: 0.0625
Info: NONBONDED TABLE SIZE: 705 POINTS
TCL: Setting parameter alchLambda2 to 1.0
Info: NONBONDED TABLE R-SQUARED SPACING: 0.0625
Info: NONBONDED TABLE SIZE: 705 POINTS
TCL: Running for 1500000 steps
ETITLE: TS BOND ANGLE DIHED IMPRP ELECT VDW BOUNDARY MISC KINETIC TOTAL TEMP POTENTIAL TOTALAVG TEMPAVG PRESSURE GPRESSURE VOLUME PRESSAVG GPRESSAVG
ENERGY: 0 1.7666 12.8855 3.0211 0.0000 -10662.4830 1482.2889 0.0000 0.0000 1771.6523 -7390.8686 303.9155 -9162.5209 -7390.8686 303.9155 590.8200 674.4176 29734.4802 590.8200 674.4176
ENERGY: 300000 1.3132 9.9929 3.6788 0.0000 -10539.8509 1409.9597 0.0000 0.0000 1756.6301 -7358.2763 301.3385 -9114.9064 -7387.0835 299.4058 38.9011 83.8613 30277.1336 404.2391 439.9621
ENERGY: 600000 2.4875 11.8331 3.5907 0.0000 -10690.8372 1462.6533 0.0000 0.0000 1743.0229 -7467.2497 299.0043 -9210.2727 -7391.1475 299.3564 163.2595 248.7918 30215.7442 209.4364 261.3398
ENERGY: 900000 1.5415 16.0001 3.7302 0.0000 -10693.3847 1472.5152 0.0000 0.0000 1783.4033 -7416.1944 305.9313 -9199.5977 -7391.5104 299.6607 669.4628 700.2880 29571.6339 252.0175 304.1779
ENERGY: 1200000 1.3687 12.9222 3.5475 0.0000 -10602.3403 1466.3399 0.0000 0.0000 1729.0604 -7389.1016 296.6091 -9118.1620 -7391.0707 299.7666 452.4079 588.5427 30018.4124 163.2318 222.6940
ENERGY: 1500000 2.2212 9.4883 3.4844 0.0000 -10309.2319 1301.5080 0.0000 0.0000 1789.1677 -7203.3624 306.9201 -8992.5301 -7379.2909 299.8436 -632.0343 -611.1503 30584.1705 -11.0146 56.4881
TCL: Exiting due to exit command.
