Info: SIMULATION PARAMETERS:
Info: TIMESTEP               2
Info: NUMBER OF STEPS        0
Info: STEPS PER CYCLE        10
Info: PERIODIC CELL BASIS 1  30.3131 0 0
Info: PERIODIC CELL BASIS 2  0 29.5218 0
Info: PERIODIC CELL BASIS 3  0 0 34.0102
Info: PERIODIC CELL CENTER   0 0 0
Info: WRAPPING WATERS AROUND PERIODIC BOUNDARIES ON OUTPUT.
Info: WRAPPING ALL CLUSTERS AROUND PERIODIC BOUNDARIES ON OUTPUT.
Info: FIRST LDB TIMESTEP     50
Info: LAST LDB TIMESTEP     -1
Info: HOM BACKGROUND SCALING 1
Info: PME BACKGROUND SCALING 1
Info: MIN ATOMS PER PATCH    40
Info: EMPTY PATCH LOAD       40 ATOMS
Info: VELOCITY FILE          mobley_349850_equil.vel
Info: CENTER OF MASS MOVING INITIALLY? NO
Info: DIELECTRIC             1
Info: EXCLUDE                SCALED ONE-FOUR
Info: 1-4 ELECTROSTATICS SCALED BY 0.833333
Info: MODIFIED 1-4 VDW PARAMETERS WILL BE USED
Info: DCD FILENAME           mobley_349850_prod.dcd
Info: DCD FREQUENCY          100000
Info: DCD FIRST STEP         100000
Info: DCD FILE WILL CONTAIN UNIT CELL DATA
Info: XST FILENAME           mobley_349850_prod.xst
Info: XST FREQUENCY          100000
Info: NO VELOCITY DCD OUTPUT
Info: NO FORCE DCD OUTPUT
Info: OUTPUT FILENAME        mobley_349850_prod
Info: BINARY OUTPUT FILES WILL BE USED
Info: RESTART FILENAME       mobley_349850_prod.restart
Info: RESTART FREQUENCY      100000
Info: BINARY RESTART FILES WILL BE USED
Info: CUTOFF                 9
Info: PAIRLIST DISTANCE      11
Info: PAIRLIST SHRINK RATE   0.01
Info: PAIRLIST GROW RATE     0.01
Info: PAIRLIST TRIGGER       0.3
Info: PAIRLISTS PER CYCLE    2
Info: PAIRLISTS ENABLED
Info: MARGIN                 2
Info: HYDROGEN GROUP CUTOFF  2.5
Info: PATCH DIMENSION        15.5
Info: ENERGY OUTPUT STEPS    100000
Info: ENERGY EVALUATION STEPS    100000
Info: OUTPUT ENERGY PRECISION 4
Info: CROSSTERM ENERGY INCLUDED IN DIHEDRAL
Info: TIMING OUTPUT STEPS    1000000
Info: PRESSURE OUTPUT STEPS  100000
Info: ALCHEMICAL FEP ON
Info: FEP CURRENT LAMBDA VALUE     0
Info: FEP COMPARISON LAMBDA VALUE  0.05
Info: FEP INTRA-ALCHEMICAL NON-BONDED INTERACTIONS WILL BE RETAINED
Info: FEP INTRA-ALCHEMICAL BONDED INTERACTIONS WILL BE RETAINED
Info: FEP VDW SHIFTING COEFFICIENT 5
Info: FEP ELEC. ACTIVE FOR ANNIHILATED PARTICLES BETWEEN LAMBDA = 0 AND LAMBDA = 0.5
Info: FEP ELEC. ACTIVE FOR EXNIHILATED PARTICLES BETWEEN LAMBDA = 0.5 AND LAMBDA = 1
Info: FEP VDW ACTIVE FOR ANNIHILATED PARTICLES BETWEEN LAMBDA = 0 AND LAMBDA = 1
Info: FEP VDW ACTIVE FOR EXNIHILATED PARTICLES BETWEEN LAMBDA = 0 AND LAMBDA = 1
Info: FEP BOND ACTIVE FOR ANNIHILATED PARTICLES BETWEEN LAMBDA = 1 AND LAMBDA = 1
Info: FEP BOND ACTIVE FOR EXNIHILATED PARTICLES BETWEEN LAMBDA = 0 AND LAMBDA = 0
Info: LANGEVIN DYNAMICS ACTIVE
Info: LANGEVIN TEMPERATURE   300
Info: LANGEVIN USING BBK INTEGRATOR
Info: LANGEVIN DAMPING COEFFICIENT IS 1 INVERSE PS
Info: LANGEVIN DYNAMICS APPLIED TO HYDROGENS
Info: LANGEVIN PISTON PRESSURE CONTROL ACTIVE
Info:        TARGET PRESSURE IS 1.01325 BAR
Info:     OSCILLATION PERIOD IS 50 FS
Info:             DECAY TIME IS 25 FS
Info:     PISTON TEMPERATURE IS 300 K
Info:       PRESSURE CONTROL IS GROUP-BASED
Info:    INITIAL STRAIN RATE IS -2.41942e-05 -2.41942e-05 -2.41942e-05
Info:       CELL FLUCTUATION IS ISOTROPIC
Info: PARTICLE MESH EWALD (PME) ACTIVE
Info: PME TOLERANCE               1e-06
Info: PME EWALD COEFFICIENT       0.348832
Info: PME INTERPOLATION ORDER     4
Info: PME GRID DIMENSIONS         32 32 36
Info: PME MAXIMUM GRID SPACING    1
Info: PME CALCULATION WILL BE PERFORMED ON GPU
Info: FULL ELECTROSTATIC EVALUATION FREQUENCY      2
Info: USING VERLET I (r-RESPA) MTS SCHEME.
Info: C1 SPLITTING OF LONG RANGE ELECTROSTATICS
Info: PLACING ATOMS IN PATCHES BY HYDROGEN GROUPS
Info: RIGID BONDS TO HYDROGEN : ALL
Info:         ERROR TOLERANCE : 1e-08
Info:          MAX ITERATIONS : 100
Info: RIGID WATER USING SETTLE ALGORITHM
Info: RANDOM NUMBER SEED     1743784222
Info: USE HYDROGEN BONDS?    NO
Info: Using AMBER format force field!
Info: AMBER PARM FILE        mobley_349850.prmtop
Info: COORDINATE PDB         mobley_349850.pdb
Info: Exclusions will be read from PARM file!
Info: SCNB (VDW SCALING)     2
Info: USING ARITHMETIC MEAN TO COMBINE L-J SIGMA PARAMETERS
Info: BINARY COORDINATES     mobley_349850_equil.coor
Info: SUMMARY OF PARAMETERS:
Info: 9 BONDS
Info: 10 ANGLES
Info:   10 HARMONIC
Info:   0 COSINE-BASED
Info: 8 DIHEDRAL
Info: 0 IMPROPER
Info: 0 CROSSTERM
Info: 0 VDW
Info: 28 VDW_PAIRS
Info: 0 NBTHOLE_PAIRS
Info: To read alchdata from file: mobley_349850.pdb
Info: To read alchflag data from column: 5
Info: STRUCTURE SUMMARY:
Info: 2924 ATOMS
Info: 2924 BONDS
Info: 33 ANGLES
Info: 53 DIHEDRALS
Info: 0 IMPROPERS
Info: 0 CROSSTERMS
Info: 2994 EXCLUSIONS
Info: 2914 RIGID BONDS
Info: ALCH: 0 ATOMS TO DISAPPEAR IN FINAL STATE
Info: ALCH: 20 ATOMS TO APPEAR IN FINAL STATE
Info: 5858 DEGREES OF FREEDOM
Info: 978 HYDROGEN GROUPS
Info: 4 ATOMS IN LARGEST HYDROGEN GROUP
Info: 978 MIGRATION GROUPS
Info: 4 ATOMS IN LARGEST MIGRATION GROUP
Info: TOTAL MASS = 17573.7 amu
Info: TOTAL CHARGE = -0.000100061 e
Info: MASS DENSITY = 0.958825 g/cm^3
Info: ATOM DENSITY = 0.0960717 atoms/A^3
Info: ADDED 0 IMPLICIT EXCLUSIONS
Info: NONBONDED TABLE R-SQUARED SPACING: 0.0625
Info: NONBONDED TABLE SIZE: 705 POINTS
Info: REMOVING COM VELOCITY -0.053036 -0.0396543 0.0150275
Info: Use 3D box decompostion in PME FFT.
Info: Updated CUDA force table with 4096 elements.
Info: Updated CUDA LJ table with 7 x 7 elements.
Info: Found 22 unique exclusion lists needing 60 bytes
TCL: Running for 1500000 steps
ETITLE: TS BOND ANGLE DIHED IMPRP ELECT VDW BOUNDARY MISC KINETIC TOTAL TEMP POTENTIAL TOTALAVG TEMPAVG PRESSURE GPRESSURE VOLUME PRESSAVG GPRESSAVG
ENERGY: 0 2.2011 4.4212 4.3715 0.0000 -10563.9528 1424.0658 0.0000 0.0000 1714.0812 -7414.8119 294.4913 -9128.8932 -7414.8119 294.4913 -170.1949 -87.6350 30435.6044 -170.1949 -87.6350
ENERGY: 300000 6.6963 4.9793 7.1592 0.0000 -10601.5697 1458.2270 0.0000 0.0000 1753.6449 -7370.8629 301.2886 -9124.5079 -7379.7870 300.8846 97.3135 222.4244 29522.3838 175.5915 243.2746
ENERGY: 600000 3.2053 6.8010 6.0142 0.0000 -10590.7998 1391.4844 0.0000 0.0000 1759.2029 -7424.0919 302.2435 -9183.2949 -7394.8460 301.1812 -428.8827 -364.0713 29747.3947 -47.2111 21.2521
ENERGY: 900000 1.9796 8.4094 4.9122 0.0000 -10640.1566 1423.8836 0.0000 0.0000 1766.5726 -7434.3991 303.5097 -9200.9717 -7406.3354 301.3882 -171.2435 -87.7737 29901.5764 -137.9563 -61.9133
ENERGY: 1200000 2.7490 8.3030 3.4942 0.0000 -10476.4730 1374.5377 0.0000 0.0000 1812.1852 -7275.2039 311.3462 -9087.3891 -7400.5678 301.7020 -50.5280 -37.6025 29534.3903 -63.6566 -2.8797
ENERGY: 1500000 5.4163 7.7907 5.3496 0.0000 -10647.7644 1420.8990 0.0000 0.0000 1755.8396 -7452.4691 301.6657 -9208.3087 -7394.2757 301.9676 -270.5329 -223.5230 29656.4984 -14.2444 47.6185
TCL: Running FEP window   2: Lambda1 0.05   Lambda2 0.1    [dLambda 0.05  ]
TCL: Setting parameter firsttimestep to 0
TCL: Setting parameter alchLambda to 0.05
Info: NONBONDED TABLE R-SQUARED SPACING: 0.0625
Info: NONBONDED TABLE SIZE: 705 POINTS
TCL: Setting parameter alchLambda2 to 0.1
Info: NONBONDED TABLE R-SQUARED SPACING: 0.0625
Info: NONBONDED TABLE SIZE: 705 POINTS
TCL: Running for 1500000 steps
ETITLE: TS BOND ANGLE DIHED IMPRP ELECT VDW BOUNDARY MISC KINETIC TOTAL TEMP POTENTIAL TOTALAVG TEMPAVG PRESSURE GPRESSURE VOLUME PRESSAVG GPRESSAVG
ENERGY: 0 5.4163 7.7907 5.3496 0.0000 -10647.7662 1425.5851 0.0000 0.0000 1754.9329 -7448.6916 301.5099 -9203.6245 -7448.6916 301.5099 -304.5141 -218.7944 29656.4984 -304.5141 -218.7944
ENERGY: 300000 3.9990 3.2684 5.0881 0.0000 -10569.6106 1395.6487 0.0000 0.0000 1731.6817 -7429.9247 297.5151 -9161.6063 -7411.0726 299.7333 -357.0913 -298.3465 30294.8942 -80.0261 -16.1068
ENERGY: 600000 2.2282 9.2965 7.5208 0.0000 -10567.5944 1457.7380 0.0000 0.0000 1753.6449 -7337.1660 301.2886 -9090.8109 -7397.1905 298.9108 270.2192 293.5699 30171.7679 40.5912 91.3064
ENERGY: 900000 7.9331 6.2647 4.4562 0.0000 -10668.5233 1491.8444 0.0000 0.0000 1685.2308 -7472.7942 289.5346 -9158.0250 -7391.7458 298.3344 135.3897 169.3848 29860.9972 57.7368 111.8074
ENERGY: 1200000 2.1335 6.8754 7.1882 0.0000 -10582.5021 1419.5732 0.0000 0.0000 1688.8208 -7457.9112 290.1513 -9146.7319 -7402.4182 297.3100 76.0002 116.6981 29601.2206 76.8056 125.9630
ENERGY: 1500000 4.1256 3.1615 5.8677 0.0000 -10646.7443 1457.3545 0.0000 0.0000 1803.3315 -7372.9034 309.8251 -9176.2349 -7399.1666 298.3063 182.5138 217.4394 29753.3197 92.2624 136.4128
TCL: Running FEP window   3: Lambda1 0.1    Lambda2 0.15000000000000002 [dLambda 0.05000000000000002]
TCL: Setting parameter firsttimestep to 0
TCL: Setting parameter alchLambda to 0.1
Info: NONBONDED TABLE R-SQUARED SPACING: 0.0625
Info: NONBONDED TABLE SIZE: 705 POINTS
TCL: Setting parameter alchLambda2 to 0.15000000000000002
Info: NONBONDED TABLE R-SQUARED SPACING: 0.0625
Info: NONBONDED TABLE SIZE: 705 POINTS
TCL: Running for 1500000 steps
ETITLE: TS BOND ANGLE DIHED IMPRP ELECT VDW BOUNDARY MISC KINETIC TOTAL TEMP POTENTIAL TOTALAVG TEMPAVG PRESSURE GPRESSURE VOLUME PRESSAVG GPRESSAVG
ENERGY: 0 4.1257 3.1615 5.8677 0.0000 -10646.7442 1458.9130 0.0000 0.0000 1802.4644 -7372.2120 309.6761 -9174.6763 -7372.2120 309.6761 137.0762 225.0782 29753.3197 137.0762 225.0782
ENERGY: 300000 2.1880 4.5875 7.6595 0.0000 -10465.8519 1336.8355 0.0000 0.0000 1720.4531 -7394.1283 295.5860 -9114.5814 -7390.4194 300.2607 -489.0065 -471.9830 30050.1283 -95.7781 -50.6084
ENERGY: 600000 4.4315 13.6792 6.5036 0.0000 -10526.1973 1473.9943 0.0000 0.0000 1782.5288 -7245.0600 306.2510 -9027.5888 -7363.4365 301.2064 712.5022 738.3009 30089.2226 10.3303 56.7461
ENERGY: 900000 1.9773 5.4874 4.1820 0.0000 -10624.7617 1431.4161 0.0000 0.0000 1761.5999 -7420.0990 302.6553 -9181.6988 -7359.1385 301.7439 -226.3927 -175.9292 29930.4026 -58.9439 -14.3039
ENERGY: 1200000 4.1634 2.7436 6.0864 0.0000 -10591.7337 1474.3313 0.0000 0.0000 1739.8306 -7364.5785 298.9152 -9104.4090 -7360.6632 301.7236 383.9865 457.6809 29684.8094 -12.9214 26.8194
ENERGY: 1500000 2.9077 7.4434 5.5017 0.0000 -10511.0256 1446.4784 0.0000 0.0000 1760.0653 -7288.6290 302.3917 -9048.6944 -7359.0395 300.9561 305.0387 392.1776 30144.5909 33.1268 74.0582
TCL: Running FEP window   4: Lambda1 0.15000000000000002 Lambda2 0.2    [dLambda 0.04999999999999999]
TCL: Setting parameter firsttimestep to 0
TCL: Setting parameter alchLambda to 0.15000000000000002
Info: NONBONDED TABLE R-SQUARED SPACING: 0.0625
Info: NONBONDED TABLE SIZE: 705 POINTS
TCL: Setting parameter alchLambda2 to 0.2
Info: NONBONDED TABLE R-SQUARED SPACING: 0.0625
Info: NONBONDED TABLE SIZE: 705 POINTS
TCL: Running for 1500000 steps
ETITLE: TS BOND ANGLE DIHED IMPRP ELECT VDW BOUNDARY MISC KINETIC TOTAL TEMP POTENTIAL TOTALAVG TEMPAVG PRESSURE GPRESSURE VOLUME PRESSAVG GPRESSAVG
ENERGY: 0 2.9077 7.4434 5.5017 0.0000 -10511.0252 1447.3077 0.0000 0.0000 1759.2036 -7288.6611 302.2436 -9047.8647 -7288.6611 302.2436 304.6065 396.9423 30144.5909 304.6065 396.9423
ENERGY: 300000 5.9377 5.0215 4.7443 0.0000 -10499.7842 1376.6019 0.0000 0.0000 1734.5286 -7372.9503 298.0043 -9107.4789 -7366.8623 299.5112 -445.8101 -442.1618 30131.5442 -29.7307 11.0462
ENERGY: 600000 1.6793 8.7511 8.0713 0.0000 -10518.8377 1390.0453 0.0000 0.0000 1701.1223 -7409.1683 292.2648 -9110.2906 -7390.3479 297.7889 -406.5454 -319.7353 29910.8621 -76.9981 -31.4557
ENERGY: 900000 3.3962 10.6409 7.4015 0.0000 -10601.3727 1400.8431 0.0000 0.0000 1767.0459 -7412.0452 303.5910 -9179.0911 -7394.3349 298.7816 -287.6592 -201.7160 30020.6434 -28.0224 19.4086
ENERGY: 1200000 4.8321 9.4808 7.3041 0.0000 -10608.8050 1394.2447 0.0000 0.0000 1722.1109 -7470.8325 295.8708 -9192.9433 -7394.5122 298.9999 -633.7691 -503.5603 29989.2650 -70.3692 -18.8859
ENERGY: 1500000 3.9929 4.5551 5.0073 0.0000 -10546.6296 1372.7085 0.0000 0.0000 1712.0854 -7448.2805 294.1484 -9160.3659 -7393.0527 298.7553 -553.6768 -495.6596 29901.3866 -178.3860 -124.7470
TCL: Running FEP window   5: Lambda1 0.2    Lambda2 0.25   [dLambda 0.04999999999999999]
TCL: Setting parameter firsttimestep to 0
TCL: Setting parameter alchLambda to 0.2
Info: NONBONDED TABLE R-SQUARED SPACING: 0.0625
Info: NONBONDED TABLE SIZE: 705 POINTS
TCL: Setting parameter alchLambda2 to 0.25
Info: NONBONDED TABLE R-SQUARED SPACING: 0.0625
Info: NONBONDED TABLE SIZE: 705 POINTS
TCL: Running for 1500000 steps
ETITLE: TS BOND ANGLE DIHED IMPRP ELECT VDW BOUNDARY MISC KINETIC TOTAL TEMP POTENTIAL TOTALAVG TEMPAVG PRESSURE GPRESSURE VOLUME PRESSAVG GPRESSAVG
ENERGY: 0 3.9929 4.5551 5.0073 0.0000 -10546.6290 1374.0816 0.0000 0.0000 1711.2346 -7447.7575 294.0022 -9158.9921 -7447.7575 294.0022 -557.8507 -486.3734 29901.3866 -557.8507 -486.3734
ENERGY: 300000 3.8930 5.9421 3.6817 0.0000 -10452.0166 1368.8779 0.0000 0.0000 1686.5806 -7383.0413 289.7665 -9069.6220 -7389.1441 292.4512 -452.7905 -431.0266 30442.0758 -244.8388 -187.6075
ENERGY: 600000 1.8261 4.9998 6.3044 0.0000 -10689.4134 1442.1641 0.0000 0.0000 1702.1838 -7531.9352 292.4472 -9234.1189 -7405.5045 294.9382 -133.5043 -171.3317 29726.1221 -270.4827 -232.5664
ENERGY: 900000 3.5289 8.4828 5.5274 0.0000 -10573.2237 1428.6812 0.0000 0.0000 1715.2541 -7411.7493 294.6928 -9127.0034 -7416.0734 294.6179 11.2428 44.8176 30163.5769 -277.1996 -233.3929
ENERGY: 1200000 1.9203 9.0465 6.1797 0.0000 -10676.8903 1457.6513 0.0000 0.0000 1742.5760 -7459.5166 299.3869 -9202.0925 -7424.1605 295.6981 90.7517 196.7690 29714.1324 -277.8638 -221.1131
ENERGY: 1500000 4.4630 8.3356 3.6904 0.0000 -10617.7832 1417.8989 0.0000 0.0000 1715.3324 -7468.0629 294.7062 -9183.3953 -7420.0189 296.6376 -173.2529 -142.0772 30051.1217 -234.9811 -182.3818
TCL: Running FEP window   6: Lambda1 0.25   Lambda2 0.3    [dLambda 0.04999999999999999]
TCL: Setting parameter firsttimestep to 0
TCL: Setting parameter alchLambda to 0.25
Info: NONBONDED TABLE R-SQUARED SPACING: 0.0625
Info: NONBONDED TABLE SIZE: 705 POINTS
TCL: Setting parameter alchLambda2 to 0.3
Info: NONBONDED TABLE R-SQUARED SPACING: 0.0625
Info: NONBONDED TABLE SIZE: 705 POINTS
TCL: Running for 1500000 steps
ETITLE: TS BOND ANGLE DIHED IMPRP ELECT VDW BOUNDARY MISC KINETIC TOTAL TEMP POTENTIAL TOTALAVG TEMPAVG PRESSURE GPRESSURE VOLUME PRESSAVG GPRESSAVG
ENERGY: 0 4.4630 8.3356 3.6904 0.0000 -10617.7827 1418.9340 0.0000 0.0000 1714.4564 -7467.9033 294.5557 -9182.3597 -7467.9033 294.5557 -200.8631 -133.3986 30051.1217 -200.8631 -133.3986
ENERGY: 300000 1.9368 9.0596 3.9178 0.0000 -10585.1980 1439.5528 0.0000 0.0000 1805.9255 -7324.8055 310.2708 -9130.7310 -7438.7185 298.3664 322.0487 364.6334 29821.4342 163.6258 229.3038
ENERGY: 600000 3.0864 12.3034 8.1357 0.0000 -10399.0628 1267.5826 0.0000 0.0000 1684.1063 -7423.8484 289.3414 -9107.9547 -7420.1064 297.7685 -1069.5559 -1016.5533 29981.3338 -85.7575 -14.9745
ENERGY: 900000 5.9123 5.9352 5.2433 0.0000 -10555.8493 1449.0024 0.0000 0.0000 1750.5298 -7339.2264 300.7534 -9089.7561 -7413.2499 298.3535 -33.0342 21.3530 30496.8521 -105.2632 -39.6784
ENERGY: 1200000 2.7366 6.9863 9.0297 0.0000 -10572.0373 1410.8913 0.0000 0.0000 1767.7040 -7374.6893 303.7040 -9142.3934 -7408.8527 298.8019 248.9036 267.6879 29465.6548 -15.8694 43.2286
ENERGY: 1500000 5.2599 5.4083 7.2838 0.0000 -10514.7573 1456.2952 0.0000 0.0000 1803.8101 -7236.6999 309.9073 -9040.5101 -7398.5336 299.0392 655.0598 709.6185 29966.1162 45.2957 108.8262
TCL: Running FEP window   7: Lambda1 0.3    Lambda2 0.35   [dLambda 0.04999999999999999]
TCL: Setting parameter firsttimestep to 0
TCL: Setting parameter alchLambda to 0.3
Info: NONBONDED TABLE R-SQUARED SPACING: 0.0625
Info: NONBONDED TABLE SIZE: 705 POINTS
TCL: Setting parameter alchLambda2 to 0.35
Info: NONBONDED TABLE R-SQUARED SPACING: 0.0625
Info: NONBONDED TABLE SIZE: 705 POINTS
TCL: Running for 1500000 steps
ETITLE: TS BOND ANGLE DIHED IMPRP ELECT VDW BOUNDARY MISC KINETIC TOTAL TEMP POTENTIAL TOTALAVG TEMPAVG PRESSURE GPRESSURE VOLUME PRESSAVG GPRESSAVG
ENERGY: 0 5.2600 5.4083 7.2838 0.0000 -10514.7568 1455.8072 0.0000 0.0000 1802.9113 -7238.0862 309.7529 -9040.9975 -7238.0862 309.7529 637.8732 707.7266 29966.1162 637.8732 707.7266
ENERGY: 300000 4.3401 5.7169 5.6281 0.0000 -10659.0539 1469.1561 0.0000 0.0000 1827.2027 -7347.0100 313.9263 -9174.2127 -7359.1629 306.2945 368.4490 430.3241 29602.0019 247.7215 295.4650
ENERGY: 600000 3.9496 7.7066 5.9799 0.0000 -10623.4289 1461.8418 0.0000 0.0000 1780.4990 -7363.4521 305.9023 -9143.9510 -7353.6250 304.3590 308.5705 370.8082 29973.7455 84.8859 139.0968
ENERGY: 900000 2.5726 9.1660 6.8251 0.0000 -10583.9409 1350.9498 0.0000 0.0000 1749.8597 -7464.5677 300.6383 -9214.4274 -7370.4210 304.5084 -922.8605 -864.3001 30085.2556 -48.9157 6.6306
ENERGY: 1200000 3.5297 5.3054 5.7561 0.0000 -10548.6494 1421.8949 0.0000 0.0000 1757.3336 -7354.8297 301.9223 -9112.1633 -7371.9003 303.0283 56.2583 163.8446 29818.2552 -14.7190 49.4989
ENERGY: 1500000 5.2004 4.7358 5.3126 0.0000 -10628.6144 1446.0125 0.0000 0.0000 1725.0423 -7442.3107 296.3745 -9167.3530 -7377.2187 302.4805 150.3264 275.7227 29648.3207 95.1680 158.4064
TCL: Running FEP window   8: Lambda1 0.35   Lambda2 0.39999999999999997 [dLambda 0.04999999999999999]
TCL: Setting parameter firsttimestep to 0
TCL: Setting parameter alchLambda to 0.35
Info: NONBONDED TABLE R-SQUARED SPACING: 0.0625
Info: NONBONDED TABLE SIZE: 705 POINTS
TCL: Setting parameter alchLambda2 to 0.39999999999999997
Info: NONBONDED TABLE R-SQUARED SPACING: 0.0625
Info: NONBONDED TABLE SIZE: 705 POINTS
TCL: Running for 1500000 steps
ETITLE: TS BOND ANGLE DIHED IMPRP ELECT VDW BOUNDARY MISC KINETIC TOTAL TEMP POTENTIAL TOTALAVG TEMPAVG PRESSURE GPRESSURE VOLUME PRESSAVG GPRESSAVG
ENERGY: 0 5.2004 4.7358 5.3126 0.0000 -10628.6153 1446.3315 0.0000 0.0000 1724.1581 -7442.8768 296.2225 -9167.0349 -7442.8768 296.2225 191.2225 282.9505 29648.3207 191.2225 282.9505
ENERGY: 300000 2.2548 6.1287 6.2970 0.0000 -10734.9599 1485.7316 0.0000 0.0000 1783.3988 -7451.1489 306.4005 -9234.5477 -7422.8070 302.0188 333.0715 315.7688 29874.6967 131.4323 186.5773
ENERGY: 600000 4.5322 5.8996 7.5421 0.0000 -10651.2513 1464.6036 0.0000 0.0000 1778.6701 -7390.0037 305.5881 -9168.6738 -7413.2798 301.4898 175.4928 285.5793 30227.1892 219.7485 290.9291
ENERGY: 900000 3.6959 6.8739 7.8029 0.0000 -10633.7331 1477.6680 0.0000 0.0000 1743.8532 -7393.8391 299.6063 -9137.6923 -7395.8063 301.1270 448.0905 569.4306 29502.3756 285.8372 359.0399
ENERGY: 1200000 10.8175 7.7530 5.7974 0.0000 -10497.2458 1339.4146 0.0000 0.0000 1722.5388 -7410.9245 295.9443 -9133.4633 -7390.7870 301.0378 -756.8806 -647.6452 30016.7474 26.5500 105.4326
ENERGY: 1500000 3.1903 9.0119 5.7849 0.0000 -10681.2726 1527.3713 0.0000 0.0000 1739.5792 -7396.3349 298.8720 -9135.9141 -7388.4990 300.8300 886.9696 983.9500 29733.7683 53.0542 133.8407
TCL: Running FEP window   9: Lambda1 0.39999999999999997 Lambda2 0.44999999999999996 [dLambda 0.04999999999999999]
TCL: Setting parameter firsttimestep to 0
TCL: Setting parameter alchLambda to 0.39999999999999997
Info: NONBONDED TABLE R-SQUARED SPACING: 0.0625
Info: NONBONDED TABLE SIZE: 705 POINTS
TCL: Setting parameter alchLambda2 to 0.44999999999999996
Info: NONBONDED TABLE R-SQUARED SPACING: 0.0625
Info: NONBONDED TABLE SIZE: 705 POINTS
TCL: Running for 1500000 steps
ETITLE: TS BOND ANGLE DIHED IMPRP ELECT VDW BOUNDARY MISC KINETIC TOTAL TEMP POTENTIAL TOTALAVG TEMPAVG PRESSURE GPRESSURE VOLUME PRESSAVG GPRESSAVG
ENERGY: 0 3.1903 9.0119 5.7849 0.0000 -10681.2729 1527.8922 0.0000 0.0000 1738.7151 -7396.6785 298.7235 -9135.3936 -7396.6785 298.7235 910.4223 994.8564 29733.7683 910.4223 994.8564
ENERGY: 300000 4.0060 7.5304 6.7469 0.0000 -10512.1140 1409.7495 0.0000 0.0000 1697.3943 -7386.6871 291.6243 -9084.0814 -7363.7287 302.4292 98.4163 170.5421 29599.6106 279.6856 343.5791
ENERGY: 600000 3.9320 7.6476 9.9421 0.0000 -10633.3245 1425.0687 0.0000 0.0000 1717.4835 -7469.2505 295.0758 -9186.7340 -7397.9858 299.7661 -360.6621 -331.8133 30077.9666 58.6389 118.8146
ENERGY: 900000 3.8208 8.1671 3.9871 0.0000 -10686.6027 1480.9618 0.0000 0.0000 1757.6690 -7431.9969 301.9800 -9189.6659 -7404.6120 300.0024 60.3119 130.2375 29966.8905 22.1808 82.2061
ENERGY: 1200000 4.6418 4.1741 5.9147 0.0000 -10631.3287 1439.0302 0.0000 0.0000 1707.5522 -7470.0158 293.3695 -9177.5679 -7404.2920 300.1627 206.4663 196.2988 29756.5765 69.3537 128.1944
ENERGY: 1500000 3.1369 6.7449 9.3529 0.0000 -10589.0807 1399.4427 0.0000 0.0000 1714.1059 -7456.2973 294.4955 -9170.4032 -7414.8872 299.8928 -262.7191 -225.5920 29939.5946 -11.8040 47.8932
TCL: Running FEP window  10: Lambda1 0.44999999999999996 Lambda2 0.49999999999999994 [dLambda 0.04999999999999999]
TCL: Setting parameter firsttimestep to 0
TCL: Setting parameter alchLambda to 0.44999999999999996
Info: NONBONDED TABLE R-SQUARED SPACING: 0.0625
Info: NONBONDED TABLE SIZE: 705 POINTS
TCL: Setting parameter alchLambda2 to 0.49999999999999994
Info: NONBONDED TABLE R-SQUARED SPACING: 0.0625
Info: NONBONDED TABLE SIZE: 705 POINTS
TCL: Running for 1500000 steps
ETITLE: TS BOND ANGLE DIHED IMPRP ELECT VDW BOUNDARY MISC KINETIC TOTAL TEMP POTENTIAL TOTALAVG TEMPAVG PRESSURE GPRESSURE VOLUME PRESSAVG GPRESSAVG
ENERGY: 0 3.1369 6.7449 9.3529 0.0000 -10589.0809 1399.7469 0.0000 0.0000 1713.2465 -7456.8529 294.3478 -9170.0993 -7456.8529 294.3478 -298.1725 -218.7720 29939.5946 -298.1725 -218.7720
ENERGY: 300000 2.0962 7.5728 9.8027 0.0000 -10794.6623 1622.8377 0.0000 0.0000 1764.2375 -7388.1153 303.1085 -9152.3528 -7382.3437 298.9063 1674.8749 1731.8777 29609.5009 274.9697 327.5067
ENERGY: 600000 6.6293 5.3342 6.8619 0.0000 -10513.6560 1375.7951 0.0000 0.0000 1728.6021 -7390.4335 296.9861 -9119.0357 -7371.1400 299.3505 -447.8224 -403.6097 30444.1376 -78.4772 -13.1921
ENERGY: 900000 3.0868 7.6520 6.0805 0.0000 -10644.6575 1496.7703 0.0000 0.0000 1682.9205 -7448.1474 289.1376 -9131.0679 -7374.5086 298.4068 850.1986 864.8825 29609.0651 -166.0408 -97.4091
ENERGY: 1200000 1.9826 9.3069 5.3850 0.0000 -10615.9459 1457.5539 0.0000 0.0000 1753.7436 -7387.9738 301.3055 -9141.7174 -7386.2060 298.7133 366.1578 398.5211 30081.6393 -21.0858 39.3278
ENERGY: 1500000 2.7019 4.1171 6.7461 0.0000 -10557.4715 1448.5844 0.0000 0.0000 1708.3637 -7386.9583 293.5090 -9095.3220 -7383.6265 298.5849 256.5790 391.8624 30236.9948 -34.6933 28.5154
TCL: Running FEP window  11: Lambda1 0.49999999999999994 Lambda2 0.5499999999999999 [dLambda 0.04999999999999999]
TCL: Setting parameter firsttimestep to 0
TCL: Setting parameter alchLambda to 0.49999999999999994
Info: NONBONDED TABLE R-SQUARED SPACING: 0.0625
Info: NONBONDED TABLE SIZE: 705 POINTS
TCL: Setting parameter alchLambda2 to 0.5499999999999999
Info: NONBONDED TABLE R-SQUARED SPACING: 0.0625
Info: NONBONDED TABLE SIZE: 705 POINTS
TCL: Running for 1500000 steps
ETITLE: TS BOND ANGLE DIHED IMPRP ELECT VDW BOUNDARY MISC KINETIC TOTAL TEMP POTENTIAL TOTALAVG TEMPAVG PRESSURE GPRESSURE VOLUME PRESSAVG GPRESSAVG
ENERGY: 0 2.7019 4.1171 6.7461 0.0000 -10557.4709 1448.0120 0.0000 0.0000 1707.5202 -7388.3736 293.3640 -9095.8937 -7388.3736 293.3640 295.9948 393.5064 30236.9948 295.9948 393.5064
ENERGY: 300000 0.9407 8.4843 5.8156 0.0000 -10542.8557 1424.2586 0.0000 0.0000 1725.5881 -7377.7683 296.4682 -9103.3564 -7369.5066 295.4537 221.9926 276.1284 29914.5792 95.3811 176.6368
ENERGY: 600000 7.4814 5.4632 4.1979 0.0000 -10706.9475 1469.5619 0.0000 0.0000 1716.1614 -7504.0818 294.8486 -9220.2432 -7408.1160 293.8774 10.1306 72.6526 30080.7211 5.3878 78.9639
ENERGY: 900000 3.1281 7.8630 4.4633 0.0000 -10665.7231 1481.4802 0.0000 0.0000 1752.4438 -7416.3448 301.0822 -9168.7886 -7398.4181 296.7914 311.9552 402.7951 29818.2445 59.7632 134.4148
ENERGY: 1200000 2.5166 8.9758 4.9112 0.0000 -10506.9633 1409.1106 0.0000 0.0000 1713.3436 -7368.1054 294.3645 -9081.4491 -7397.8262 297.2040 -109.6680 34.3049 29950.0088 78.7813 161.4682
ENERGY: 1500000 2.4830 9.8506 5.9991 0.0000 -10830.5041 1569.3029 0.0000 0.0000 1803.2306 -7439.6379 309.8078 -9242.8684 -7404.5385 297.8035 1095.7282 1125.5061 29517.1587 101.6653 181.2943
TCL: Running FEP window  12: Lambda1 0.5499999999999999 Lambda2 0.6    [dLambda 0.050000000000000044]
TCL: Setting parameter firsttimestep to 0
TCL: Setting parameter alchLambda to 0.5499999999999999
Info: NONBONDED TABLE R-SQUARED SPACING: 0.0625
Info: NONBONDED TABLE SIZE: 705 POINTS
TCL: Setting parameter alchLambda2 to 0.6
Info: NONBONDED TABLE R-SQUARED SPACING: 0.0625
Info: NONBONDED TABLE SIZE: 705 POINTS
TCL: Running for 1500000 steps
ETITLE: TS BOND ANGLE DIHED IMPRP ELECT VDW BOUNDARY MISC KINETIC TOTAL TEMP POTENTIAL TOTALAVG TEMPAVG PRESSURE GPRESSURE VOLUME PRESSAVG GPRESSAVG
ENERGY: 0 2.4830 9.8506 5.9991 0.0000 -10830.4019 1568.8220 0.0000 0.0000 1802.3964 -7440.8508 309.6644 -9243.2472 -7440.8508 309.6644 1075.0473 1130.9726 29517.1587 1075.0473 1130.9726
ENERGY: 300000 4.7885 5.7019 6.8599 0.0000 -10604.9111 1424.0102 0.0000 0.0000 1730.5171 -7433.0336 297.3151 -9163.5507 -7425.1976 301.5249 -275.3722 -182.7577 30246.5044 -126.4163 -40.0295
ENERGY: 600000 5.3722 4.8188 9.1375 0.0000 -10510.7989 1364.7404 0.0000 0.0000 1715.4291 -7411.3008 294.7228 -9126.7299 -7401.0172 302.1777 -601.5601 -487.1275 30098.0142 -123.6201 -46.1676
ENERGY: 900000 2.5794 8.3025 6.2060 0.0000 -10554.0402 1394.2833 0.0000 0.0000 1723.8708 -7418.7981 296.1732 -9142.6689 -7405.7126 301.1493 -330.3029 -215.0825 30270.6834 -186.8626 -104.2906
ENERGY: 1200000 4.0668 6.8239 6.6435 0.0000 -10558.6757 1433.8345 0.0000 0.0000 1769.7357 -7337.5712 304.0531 -9107.3069 -7405.1190 300.5273 135.7564 187.5452 29909.0026 -219.5986 -138.5843
ENERGY: 1500000 4.1899 6.2082 5.5222 0.0000 -10611.2278 1434.8439 0.0000 0.0000 1749.6866 -7410.7770 300.6085 -9160.4636 -7397.4956 300.8442 -99.1579 49.5197 30052.6344 -113.9884 -27.9491
TCL: Running FEP window  13: Lambda1 0.6    Lambda2 0.65   [dLambda 0.050000000000000044]
TCL: Setting parameter firsttimestep to 0
TCL: Setting parameter alchLambda to 0.6
Info: NONBONDED TABLE R-SQUARED SPACING: 0.0625
Info: NONBONDED TABLE SIZE: 705 POINTS
TCL: Setting parameter alchLambda2 to 0.65
Info: NONBONDED TABLE R-SQUARED SPACING: 0.0625
Info: NONBONDED TABLE SIZE: 705 POINTS
TCL: Running for 1500000 steps
ETITLE: TS BOND ANGLE DIHED IMPRP ELECT VDW BOUNDARY MISC KINETIC TOTAL TEMP POTENTIAL TOTALAVG TEMPAVG PRESSURE GPRESSURE VOLUME PRESSAVG GPRESSAVG
ENERGY: 0 4.1899 6.2082 5.5222 0.0000 -10611.6172 1435.8086 0.0000 0.0000 1748.8444 -7411.0438 300.4638 -9159.8882 -7411.0438 300.4638 -23.5353 65.6359 30052.6344 -23.5353 65.6359
ENERGY: 300000 2.4464 5.0952 5.3783 0.0000 -10558.8256 1438.3241 0.0000 0.0000 1795.2124 -7312.3693 308.4302 -9107.5816 -7405.6208 300.4347 282.4648 358.2210 29946.7976 -103.6403 -32.0550
ENERGY: 600000 3.0024 4.6542 8.1420 0.0000 -10447.9889 1335.8678 0.0000 0.0000 1731.0022 -7365.3204 297.3984 -9096.3225 -7374.2899 301.3641 -661.8018 -607.1013 30276.6500 -174.6798 -97.9331
ENERGY: 900000 1.6303 5.4561 6.7943 0.0000 -10656.0709 1513.0524 0.0000 0.0000 1777.2060 -7351.9317 305.3366 -9129.1378 -7382.1077 301.4624 623.3373 674.2695 29945.2478 -57.4953 18.8099
ENERGY: 1200000 4.2509 7.6899 6.1889 0.0000 -10775.6511 1629.8843 0.0000 0.0000 1733.4787 -7394.1584 297.8239 -9127.6371 -7391.1474 300.7702 1826.1247 1779.6786 29662.6472 159.1537 218.2618
ENERGY: 1500000 5.4356 7.0530 7.1606 0.0000 -10543.7453 1386.6873 0.0000 0.0000 1733.0477 -7404.3611 297.7498 -9137.4088 -7402.5063 299.9571 -322.1971 -240.4958 29845.2421 135.5609 197.1888
TCL: Running FEP window  14: Lambda1 0.65   Lambda2 0.7000000000000001 [dLambda 0.050000000000000044]
TCL: Setting parameter firsttimestep to 0
TCL: Setting parameter alchLambda to 0.65
Info: NONBONDED TABLE R-SQUARED SPACING: 0.0625
Info: NONBONDED TABLE SIZE: 705 POINTS
TCL: Setting parameter alchLambda2 to 0.7000000000000001
Info: NONBONDED TABLE R-SQUARED SPACING: 0.0625
Info: NONBONDED TABLE SIZE: 705 POINTS
TCL: Running for 1500000 steps
ETITLE: TS BOND ANGLE DIHED IMPRP ELECT VDW BOUNDARY MISC KINETIC TOTAL TEMP POTENTIAL TOTALAVG TEMPAVG PRESSURE GPRESSURE VOLUME PRESSAVG GPRESSAVG
ENERGY: 0 5.4356 7.0530 7.1606 0.0000 -10544.2574 1387.0178 0.0000 0.0000 1732.1765 -7405.4139 297.6002 -9137.5904 -7405.4139 297.6002 -323.3023 -226.5777 29845.2421 -323.3023 -226.5777
ENERGY: 300000 2.6986 7.0662 9.2428 0.0000 -10404.9647 1325.2002 0.0000 0.0000 1779.1677 -7281.5892 305.6736 -9060.7569 -7365.4834 300.7857 -609.4528 -554.1699 30318.0280 -324.9135 -265.2583
ENERGY: 600000 2.2612 8.7817 4.4647 0.0000 -10409.5935 1298.6013 0.0000 0.0000 1763.2595 -7332.2251 302.9404 -9095.4846 -7369.9151 302.7592 -628.3904 -573.2764 29912.4364 -306.9805 -240.7967
ENERGY: 900000 1.5708 7.5092 7.4040 0.0000 -10434.0714 1345.6253 0.0000 0.0000 1743.9963 -7327.9658 299.6309 -9071.9621 -7377.4774 301.6157 -142.2832 0.5004 29750.1697 -191.8095 -112.0713
ENERGY: 1200000 2.5245 6.0653 9.3079 0.0000 -10545.6991 1363.9337 0.0000 0.0000 1726.7308 -7437.1368 296.6646 -9163.8676 -7389.9288 301.8054 -717.1909 -648.1736 30476.2965 -259.8307 -176.9395
ENERGY: 1500000 3.9990 4.9799 5.7766 0.0000 -10430.4991 1363.3242 0.0000 0.0000 1763.6119 -7288.8075 303.0010 -9052.4194 -7382.7333 301.4779 -411.1512 -313.8880 30303.7682 -290.2230 -217.1017
TCL: Running FEP window  15: Lambda1 0.7000000000000001 Lambda2 0.7500000000000001 [dLambda 0.050000000000000044]
TCL: Setting parameter firsttimestep to 0
TCL: Setting parameter alchLambda to 0.7000000000000001
Info: NONBONDED TABLE R-SQUARED SPACING: 0.0625
Info: NONBONDED TABLE SIZE: 705 POINTS
TCL: Setting parameter alchLambda2 to 0.7500000000000001
Info: NONBONDED TABLE R-SQUARED SPACING: 0.0625
Info: NONBONDED TABLE SIZE: 705 POINTS
TCL: Running for 1500000 steps
ETITLE: TS BOND ANGLE DIHED IMPRP ELECT VDW BOUNDARY MISC KINETIC TOTAL TEMP POTENTIAL TOTALAVG TEMPAVG PRESSURE GPRESSURE VOLUME PRESSAVG GPRESSAVG
ENERGY: 0 3.9990 4.9799 5.7766 0.0000 -10430.5719 1363.9715 0.0000 0.0000 1762.7284 -7289.1165 302.8492 -9051.8449 -7289.1165 302.8492 -387.3118 -297.8401 30303.7682 -387.3118 -297.8401
ENERGY: 300000 5.3792 4.1788 4.9756 0.0000 -10535.3667 1329.8699 0.0000 0.0000 1744.6616 -7446.3015 299.7452 -9190.9631 -7329.2369 301.6750 -591.5775 -587.4948 29611.6942 -188.8235 -129.5791
ENERGY: 600000 2.3962 7.3214 4.5898 0.0000 -10632.8697 1438.2808 0.0000 0.0000 1728.0420 -7452.2395 296.8898 -9180.2815 -7355.9736 300.8763 170.2314 169.9503 30079.9865 -53.4203 -14.3441
ENERGY: 900000 3.8888 3.9971 6.8343 0.0000 -10648.2636 1404.7209 0.0000 0.0000 1732.8841 -7495.9384 297.7217 -9228.8225 -7390.2833 299.6744 -280.1513 -206.6153 29855.5521 -184.5115 -139.0886
ENERGY: 1200000 3.4336 9.7384 6.2314 0.0000 -10414.7082 1342.4645 0.0000 0.0000 1733.3975 -7319.4428 297.8099 -9052.8403 -7384.6752 298.9701 -393.6229 -396.3756 30551.6825 -215.3370 -166.9415
ENERGY: 1500000 2.8826 4.9837 9.4599 0.0000 -10624.6145 1492.9437 0.0000 0.0000 1758.8815 -7355.4631 302.1883 -9114.3446 -7377.4069 300.1614 572.7027 663.6329 30151.8496 -167.9482 -119.7491
TCL: Running FEP window  16: Lambda1 0.7500000000000001 Lambda2 0.8000000000000002 [dLambda 0.050000000000000044]
TCL: Setting parameter firsttimestep to 0
TCL: Setting parameter alchLambda to 0.7500000000000001
Info: NONBONDED TABLE R-SQUARED SPACING: 0.0625
Info: NONBONDED TABLE SIZE: 705 POINTS
TCL: Setting parameter alchLambda2 to 0.8000000000000002
Info: NONBONDED TABLE R-SQUARED SPACING: 0.0625
Info: NONBONDED TABLE SIZE: 705 POINTS
TCL: Running for 1500000 steps
ETITLE: TS BOND ANGLE DIHED IMPRP ELECT VDW BOUNDARY MISC KINETIC TOTAL TEMP POTENTIAL TOTALAVG TEMPAVG PRESSURE GPRESSURE VOLUME PRESSAVG GPRESSAVG
ENERGY: 0 2.8826 4.9837 9.4599 0.0000 -10626.4637 1493.6642 0.0000 0.0000 1757.9666 -7357.5068 302.0311 -9115.4733 -7357.5068 302.0311 582.3283 678.3191 30151.8496 582.3283 678.3191
ENERGY: 300000 2.2818 6.9540 4.2895 0.0000 -10601.2801 1457.9841 0.0000 0.0000 1753.3454 -7376.4253 301.2371 -9129.7708 -7389.8450 301.0722 317.6634 320.1938 30202.3066 59.2391 93.1501
ENERGY: 600000 4.1652 5.8114 4.6511 0.0000 -10752.7467 1525.1093 0.0000 0.0000 1758.7781 -7454.2316 302.1705 -9213.0097 -7401.6835 301.6616 518.8034 574.7943 30261.4472 -68.1776 -24.8588
ENERGY: 900000 2.5013 8.5277 6.0313 0.0000 -10428.6148 1364.5045 0.0000 0.0000 1762.3932 -7284.6569 302.7916 -9047.0501 -7375.3665 301.7417 -198.4440 -110.3086 30204.4299 -65.4950 -20.6682
ENERGY: 1200000 7.2031 5.9034 4.4839 0.0000 -10580.9107 1495.4508 0.0000 0.0000 1749.3790 -7318.4906 300.5557 -9067.8696 -7372.4649 301.5445 554.0256 562.5589 30148.8390 3.8183 42.8608
ENERGY: 1500000 2.7959 4.7816 4.4979 0.0000 -10597.0652 1419.8262 0.0000 0.0000 1739.1479 -7426.0158 298.7979 -9165.1636 -7370.0943 301.6099 -87.4115 -16.1008 29956.6805 -48.6981 -8.5987
TCL: Running FEP window  17: Lambda1 0.8000000000000002 Lambda2 0.8500000000000002 [dLambda 0.050000000000000044]
TCL: Setting parameter firsttimestep to 0
TCL: Setting parameter alchLambda to 0.8000000000000002
Info: NONBONDED TABLE R-SQUARED SPACING: 0.0625
Info: NONBONDED TABLE SIZE: 705 POINTS
TCL: Setting parameter alchLambda2 to 0.8500000000000002
Info: NONBONDED TABLE R-SQUARED SPACING: 0.0625
Info: NONBONDED TABLE SIZE: 705 POINTS
TCL: Running for 1500000 steps
ETITLE: TS BOND ANGLE DIHED IMPRP ELECT VDW BOUNDARY MISC KINETIC TOTAL TEMP POTENTIAL TOTALAVG TEMPAVG PRESSURE GPRESSURE VOLUME PRESSAVG GPRESSAVG
ENERGY: 0 2.7959 4.7816 4.4979 0.0000 -10598.2391 1420.7088 0.0000 0.0000 1738.2830 -7427.1721 298.6493 -9165.4550 -7427.1721 298.6493 -80.6115 4.8297 29956.6805 -80.6115 4.8297
ENERGY: 300000 1.8208 5.1541 8.0160 0.0000 -10495.4598 1421.1011 0.0000 0.0000 1780.7112 -7278.6566 305.9388 -9059.3678 -7403.8098 299.0663 460.2505 506.4635 30093.4130 -135.8006 -60.2588
ENERGY: 600000 3.8244 13.0433 11.1294 0.0000 -10580.1997 1483.3203 0.0000 0.0000 1741.6353 -7327.2470 299.2253 -9068.8823 -7392.9520 299.7339 492.0150 620.7526 30183.2517 38.0953 124.0375
ENERGY: 900000 4.3889 5.4250 8.3047 0.0000 -10541.7986 1333.9051 0.0000 0.0000 1748.4520 -7441.3229 300.3964 -9189.7749 -7404.4518 299.5748 -725.9621 -622.3657 29767.1235 -65.0627 15.5719
ENERGY: 1200000 2.4076 11.2965 9.1287 0.0000 -10639.3832 1485.3284 0.0000 0.0000 1729.7086 -7401.5134 297.1762 -9131.2221 -7400.2345 299.2159 401.0967 445.3973 30256.5672 -43.1661 36.7004
ENERGY: 1500000 2.7199 5.9989 5.9453 0.0000 -10576.2990 1477.9611 0.0000 0.0000 1702.9172 -7380.7566 292.5732 -9083.6737 -7396.1703 299.2216 429.9866 468.3654 30440.5146 -43.7905 27.6640
TCL: Running FEP window  18: Lambda1 0.8500000000000002 Lambda2 0.9000000000000002 [dLambda 0.050000000000000044]
TCL: Setting parameter firsttimestep to 0
TCL: Setting parameter alchLambda to 0.8500000000000002
Info: NONBONDED TABLE R-SQUARED SPACING: 0.0625
Info: NONBONDED TABLE SIZE: 705 POINTS
TCL: Setting parameter alchLambda2 to 0.9000000000000002
Info: NONBONDED TABLE R-SQUARED SPACING: 0.0625
Info: NONBONDED TABLE SIZE: 705 POINTS
TCL: Running for 1500000 steps
ETITLE: TS BOND ANGLE DIHED IMPRP ELECT VDW BOUNDARY MISC KINETIC TOTAL TEMP POTENTIAL TOTALAVG TEMPAVG PRESSURE GPRESSURE VOLUME PRESSAVG GPRESSAVG
ENERGY: 0 2.7199 5.9989 5.9453 0.0000 -10577.3193 1477.5170 0.0000 0.0000 1702.0565 -7383.0816 292.4253 -9085.1382 -7383.0816 292.4253 389.9360 473.1204 30440.5146 389.9360 473.1204
ENERGY: 300000 3.1716 6.8621 4.7554 0.0000 -10533.5090 1380.9578 0.0000 0.0000 1710.6530 -7427.1090 293.9023 -9137.7620 -7414.9204 296.2017 -494.5544 -391.0845 30507.0344 -101.0673 -8.9851
ENERGY: 600000 2.0990 10.2422 4.6622 0.0000 -10611.3477 1478.0571 0.0000 0.0000 1723.9879 -7392.2993 296.1933 -9116.2873 -7407.8812 297.5263 423.5244 503.5730 30282.6696 -69.8894 25.8149
ENERGY: 900000 2.8956 8.7255 3.5943 0.0000 -10567.0867 1429.1945 0.0000 0.0000 1723.2108 -7399.4660 296.0598 -9122.6768 -7400.7436 298.6510 286.2350 312.0081 30082.3143 -79.3180 16.1380
ENERGY: 1200000 3.2185 5.9560 4.6288 0.0000 -10640.3822 1415.5095 0.0000 0.0000 1746.4912 -7464.5781 300.0595 -9211.0693 -7405.5158 298.5195 -275.6119 -169.4362 30390.4544 -107.3516 -18.6727
ENERGY: 1500000 2.1693 6.7370 5.1248 0.0000 -10579.0397 1486.5107 0.0000 0.0000 1807.6315 -7270.8664 310.5639 -9078.4979 -7398.1978 298.8169 519.6844 635.6725 30348.6898 -21.6309 68.4796
TCL: Running FEP window  19: Lambda1 0.9000000000000002 Lambda2 0.9500000000000003 [dLambda 0.050000000000000044]
TCL: Setting parameter firsttimestep to 0
TCL: Setting parameter alchLambda to 0.9000000000000002
Info: NONBONDED TABLE R-SQUARED SPACING: 0.0625
Info: NONBONDED TABLE SIZE: 705 POINTS
TCL: Setting parameter alchLambda2 to 0.9500000000000003
Info: NONBONDED TABLE R-SQUARED SPACING: 0.0625
Info: NONBONDED TABLE SIZE: 705 POINTS
TCL: Running for 1500000 steps
ETITLE: TS BOND ANGLE DIHED IMPRP ELECT VDW BOUNDARY MISC KINETIC TOTAL TEMP POTENTIAL TOTALAVG TEMPAVG PRESSURE GPRESSURE VOLUME PRESSAVG GPRESSAVG
ENERGY: 0 2.1693 6.7370 5.1248 0.0000 -10580.2585 1486.9211 0.0000 0.0000 1806.7851 -7272.5212 310.4184 -9079.3063 -7272.5212 310.4184 555.5614 653.8115 30348.6898 555.5614 653.8115
ENERGY: 300000 2.3732 5.6815 3.5158 0.0000 -10736.0940 1520.4637 0.0000 0.0000 1799.8359 -7404.2238 309.2245 -9204.0597 -7391.4230 304.7473 796.9363 815.6565 29842.2719 95.0309 164.6827
ENERGY: 600000 2.7190 6.6914 8.2677 0.0000 -10561.3971 1451.1504 0.0000 0.0000 1784.4549 -7308.1137 306.5820 -9092.5687 -7391.6043 304.2348 67.8416 120.9781 30774.0137 144.0681 204.4165
ENERGY: 900000 1.9655 7.8606 4.4568 0.0000 -10553.7576 1355.8470 0.0000 0.0000 1799.9719 -7383.6559 309.2479 -9183.6277 -7380.7777 303.4278 -466.7922 -428.0637 29893.2735 94.3234 153.3344
ENERGY: 1200000 2.6900 10.3215 5.6042 0.0000 -10507.0578 1364.1854 0.0000 0.0000 1771.3427 -7352.9140 304.3292 -9124.2567 -7375.6933 303.9727 -525.1215 -476.1278 30282.1699 -25.0392 25.8837
ENERGY: 1500000 4.2347 3.6770 5.2539 0.0000 -10679.0703 1498.9777 0.0000 0.0000 1745.1697 -7421.7572 299.8325 -9166.9269 -7382.1849 303.0276 649.1091 668.6335 29965.2551 -32.6534 11.5581
TCL: Running FEP window  20: Lambda1 0.9500000000000003 Lambda2 1.0    [dLambda 0.04999999999999971]
TCL: Setting parameter firsttimestep to 0
TCL: Setting parameter alchLambda to 0.9500000000000003
Info: NONBONDED TABLE R-SQUARED SPACING: 0.0625
Info: NONBONDED TABLE SIZE: 705 POINTS
TCL: Setting parameter alchLambda2 to 1.0
Info: NONBONDED TABLE R-SQUARED SPACING: 0.0625
Info: NONBONDED TABLE SIZE: 705 POINTS
TCL: Running for 1500000 steps
ETITLE: TS BOND ANGLE DIHED IMPRP ELECT VDW BOUNDARY MISC KINETIC TOTAL TEMP POTENTIAL TOTALAVG TEMPAVG PRESSURE GPRESSURE VOLUME PRESSAVG GPRESSAVG
ENERGY: 0 4.2347 3.6770 5.2539 0.0000 -10681.1888 1500.0423 0.0000 0.0000 1744.3328 -7423.6481 299.6887 -9167.9809 -7423.6481 299.6887 613.8327 692.1591 29965.2551 613.8327 692.1591
ENERGY: 300000 4.5268 4.8156 4.5612 0.0000 -10379.0572 1290.4083 0.0000 0.0000 1713.3475 -7361.3978 294.3652 -9074.7453 -7395.7002 301.8125 -1021.1550 -919.7740 30518.7102 -3.9140 32.5249
ENERGY: 600000 3.1141 4.1666 5.2075 0.0000 -10763.7931 1555.2722 0.0000 0.0000 1726.8597 -7469.1731 296.6867 -9196.0328 -7411.7016 300.6920 961.2382 1050.5217 30205.0754 -35.0011 21.6598
ENERGY: 900000 4.5376 8.2429 8.4330 0.0000 -10622.5360 1422.6307 0.0000 0.0000 1812.6785 -7366.0134 311.4310 -9178.6919 -7405.1800 302.8925 162.0629 227.3514 29783.9204 41.5637 99.8668
ENERGY: 1200000 5.5699 6.5283 5.2820 0.0000 -10523.5816 1409.2820 0.0000 0.0000 1749.4855 -7347.4339 300.5740 -9096.9194 -7392.8797 303.1539 -92.6485 -25.6606 30089.9911 81.9708 137.3982
ENERGY: 1500000 4.7024 8.0282 6.9536 0.0000 -10587.3563 1428.1282 0.0000 0.0000 1757.5085 -7382.0355 301.9524 -9139.5439 -7392.8153 303.2133 -141.7496 -98.3550 30934.9915 40.3041 92.3122
TCL: Exiting due to exit command.
