Info: SIMULATION PARAMETERS:
Info: TIMESTEP               2
Info: NUMBER OF STEPS        0
Info: STEPS PER CYCLE        10
Info: PERIODIC CELL BASIS 1  30.3923 0 0
Info: PERIODIC CELL BASIS 2  0 30.6144 0
Info: PERIODIC CELL BASIS 3  0 0 32.1621
Info: PERIODIC CELL CENTER   0 0 0
Info: WRAPPING WATERS AROUND PERIODIC BOUNDARIES ON OUTPUT.
Info: WRAPPING ALL CLUSTERS AROUND PERIODIC BOUNDARIES ON OUTPUT.
Info: FIRST LDB TIMESTEP     50
Info: LAST LDB TIMESTEP     -1
Info: HOM BACKGROUND SCALING 1
Info: PME BACKGROUND SCALING 1
Info: MIN ATOMS PER PATCH    40
Info: EMPTY PATCH LOAD       40 ATOMS
Info: VELOCITY FILE          mobley_6115639_equil.vel
Info: CENTER OF MASS MOVING INITIALLY? NO
Info: DIELECTRIC             1
Info: EXCLUDE                SCALED ONE-FOUR
Info: 1-4 ELECTROSTATICS SCALED BY 0.833333
Info: MODIFIED 1-4 VDW PARAMETERS WILL BE USED
Info: DCD FILENAME           mobley_6115639_prod.dcd
Info: DCD FREQUENCY          100000
Info: DCD FIRST STEP         100000
Info: DCD FILE WILL CONTAIN UNIT CELL DATA
Info: XST FILENAME           mobley_6115639_prod.xst
Info: XST FREQUENCY          100000
Info: NO VELOCITY DCD OUTPUT
Info: NO FORCE DCD OUTPUT
Info: OUTPUT FILENAME        mobley_6115639_prod
Info: BINARY OUTPUT FILES WILL BE USED
Info: RESTART FILENAME       mobley_6115639_prod.restart
Info: RESTART FREQUENCY      100000
Info: BINARY RESTART FILES WILL BE USED
Info: CUTOFF                 9
Info: PAIRLIST DISTANCE      11
Info: PAIRLIST SHRINK RATE   0.01
Info: PAIRLIST GROW RATE     0.01
Info: PAIRLIST TRIGGER       0.3
Info: PAIRLISTS PER CYCLE    2
Info: PAIRLISTS ENABLED
Info: MARGIN                 2
Info: HYDROGEN GROUP CUTOFF  2.5
Info: PATCH DIMENSION        15.5
Info: ENERGY OUTPUT STEPS    100000
Info: ENERGY EVALUATION STEPS    100000
Info: OUTPUT ENERGY PRECISION 4
Info: CROSSTERM ENERGY INCLUDED IN DIHEDRAL
Info: TIMING OUTPUT STEPS    1000000
Info: PRESSURE OUTPUT STEPS  100000
Info: ALCHEMICAL FEP ON
Info: FEP CURRENT LAMBDA VALUE     1
Info: FEP COMPARISON LAMBDA VALUE  0.95
Info: FEP INTRA-ALCHEMICAL NON-BONDED INTERACTIONS WILL BE RETAINED
Info: FEP INTRA-ALCHEMICAL BONDED INTERACTIONS WILL BE RETAINED
Info: FEP VDW SHIFTING COEFFICIENT 5
Info: FEP ELEC. ACTIVE FOR ANNIHILATED PARTICLES BETWEEN LAMBDA = 0 AND LAMBDA = 0.5
Info: FEP ELEC. ACTIVE FOR EXNIHILATED PARTICLES BETWEEN LAMBDA = 0.5 AND LAMBDA = 1
Info: FEP VDW ACTIVE FOR ANNIHILATED PARTICLES BETWEEN LAMBDA = 0 AND LAMBDA = 1
Info: FEP VDW ACTIVE FOR EXNIHILATED PARTICLES BETWEEN LAMBDA = 0 AND LAMBDA = 1
Info: FEP BOND ACTIVE FOR ANNIHILATED PARTICLES BETWEEN LAMBDA = 1 AND LAMBDA = 1
Info: FEP BOND ACTIVE FOR EXNIHILATED PARTICLES BETWEEN LAMBDA = 0 AND LAMBDA = 0
Info: LANGEVIN DYNAMICS ACTIVE
Info: LANGEVIN TEMPERATURE   300
Info: LANGEVIN USING BBK INTEGRATOR
Info: LANGEVIN DAMPING COEFFICIENT IS 1 INVERSE PS
Info: LANGEVIN DYNAMICS APPLIED TO HYDROGENS
Info: LANGEVIN PISTON PRESSURE CONTROL ACTIVE
Info:        TARGET PRESSURE IS 1.01325 BAR
Info:     OSCILLATION PERIOD IS 50 FS
Info:             DECAY TIME IS 25 FS
Info:     PISTON TEMPERATURE IS 300 K
Info:       PRESSURE CONTROL IS GROUP-BASED
Info:    INITIAL STRAIN RATE IS -0.000258339 -0.000258339 -0.000258339
Info:       CELL FLUCTUATION IS ISOTROPIC
Info: PARTICLE MESH EWALD (PME) ACTIVE
Info: PME TOLERANCE               1e-06
Info: PME EWALD COEFFICIENT       0.348832
Info: PME INTERPOLATION ORDER     4
Info: PME GRID DIMENSIONS         32 32 36
Info: PME MAXIMUM GRID SPACING    1
Info: PME CALCULATION WILL BE PERFORMED ON GPU
Info: FULL ELECTROSTATIC EVALUATION FREQUENCY      2
Info: USING VERLET I (r-RESPA) MTS SCHEME.
Info: C1 SPLITTING OF LONG RANGE ELECTROSTATICS
Info: PLACING ATOMS IN PATCHES BY HYDROGEN GROUPS
Info: RIGID BONDS TO HYDROGEN : ALL
Info:         ERROR TOLERANCE : 1e-08
Info:          MAX ITERATIONS : 100
Info: RIGID WATER USING SETTLE ALGORITHM
Info: RANDOM NUMBER SEED     1743914475
Info: USE HYDROGEN BONDS?    NO
Info: Using AMBER format force field!
Info: AMBER PARM FILE        mobley_6115639.prmtop
Info: COORDINATE PDB         mobley_6115639.pdb
Info: Exclusions will be read from PARM file!
Info: SCNB (VDW SCALING)     2
Info: USING ARITHMETIC MEAN TO COMBINE L-J SIGMA PARAMETERS
Info: BINARY COORDINATES     mobley_6115639_equil.coor
Info: SUMMARY OF PARAMETERS:
Info: 6 BONDS
Info: 5 ANGLES
Info:   5 HARMONIC
Info:   0 COSINE-BASED
Info: 5 DIHEDRAL
Info: 0 IMPROPER
Info: 0 CROSSTERM
Info: 0 VDW
Info: 28 VDW_PAIRS
Info: 0 NBTHOLE_PAIRS
Info: To read alchdata from file: mobley_6115639.pdb
Info: To read alchflag data from column: 5
Info: STRUCTURE SUMMARY:
Info: 2918 ATOMS
Info: 2917 BONDS
Info: 27 ANGLES
Info: 27 DIHEDRALS
Info: 0 IMPROPERS
Info: 0 CROSSTERMS
Info: 2962 EXCLUSIONS
Info: 2910 RIGID BONDS
Info: ALCH: 0 ATOMS TO DISAPPEAR IN FINAL STATE
Info: ALCH: 17 ATOMS TO APPEAR IN FINAL STATE
Info: 5844 DEGREES OF FREEDOM
Info: 975 HYDROGEN GROUPS
Info: 4 ATOMS IN LARGEST HYDROGEN GROUP
Info: 975 MIGRATION GROUPS
Info: 4 ATOMS IN LARGEST MIGRATION GROUP
Info: TOTAL MASS = 17561.5 amu
Info: TOTAL CHARGE = 0.000599861 e
Info: MASS DENSITY = 0.974516 g/cm^3
Info: ATOM DENSITY = 0.0975107 atoms/A^3
Info: ADDED 0 IMPLICIT EXCLUSIONS
Info: NONBONDED TABLE R-SQUARED SPACING: 0.0625
Info: NONBONDED TABLE SIZE: 705 POINTS
Info: REMOVING COM VELOCITY -0.210144 0.027512 0.182116
Info: Use 3D box decompostion in PME FFT.
Info: Updated CUDA force table with 4096 elements.
Info: Updated CUDA LJ table with 7 x 7 elements.
Info: Found 17 unique exclusion lists needing 32 bytes
TCL: Running for 1500000 steps
ETITLE: TS BOND ANGLE DIHED IMPRP ELECT VDW BOUNDARY MISC KINETIC TOTAL TEMP POTENTIAL TOTALAVG TEMPAVG PRESSURE GPRESSURE VOLUME PRESSAVG GPRESSAVG
ENERGY: 0 1.7414 4.3802 10.9268 0.0000 -10658.4440 1451.5007 0.0000 0.0000 1635.9176 -7553.9774 281.7355 -9189.8950 -7553.9774 281.7355 198.2340 280.7858 29924.9232 198.2340 280.7858
ENERGY: 300000 1.3636 7.9042 12.6488 0.0000 -10824.4829 1492.2019 0.0000 0.0000 1813.7392 -7496.6250 312.3597 -9310.3643 -7508.4623 298.4214 593.8469 645.1390 29646.2720 -30.5306 31.3163
ENERGY: 600000 5.7245 6.6501 10.1802 0.0000 -10524.9040 1405.5127 0.0000 0.0000 1702.7643 -7394.0721 293.2478 -9096.8364 -7466.4839 299.5209 15.2028 50.9510 30344.0810 -174.6094 -112.2774
ENERGY: 900000 1.7082 6.4482 12.2689 0.0000 -10561.4367 1401.1560 0.0000 0.0000 1737.1631 -7402.6923 299.1719 -9139.8554 -7461.8341 299.0860 -55.7934 -12.1077 30409.3864 -57.3004 -8.9891
ENERGY: 1200000 2.4955 9.0859 11.4294 0.0000 -10587.5186 1381.8152 0.0000 0.0000 1768.4781 -7414.2145 304.5649 -9182.6926 -7445.8644 300.6587 -55.7047 -13.7201 29919.6629 -99.1513 -51.0640
ENERGY: 1500000 3.2913 5.9662 10.8800 0.0000 -10743.6102 1483.7671 0.0000 0.0000 1737.5475 -7502.1581 299.2381 -9239.7056 -7452.9258 301.0595 649.9308 667.4027 30044.7665 -117.6933 -66.1958
TCL: Running FEP window   2: Lambda1 0.95   Lambda2 0.8999999999999999 [dLambda -0.050000000000000044]
TCL: Setting parameter firsttimestep to 0
TCL: Setting parameter alchLambda to 0.95
Info: NONBONDED TABLE R-SQUARED SPACING: 0.0625
Info: NONBONDED TABLE SIZE: 705 POINTS
TCL: Setting parameter alchLambda2 to 0.8999999999999999
Info: NONBONDED TABLE R-SQUARED SPACING: 0.0625
Info: NONBONDED TABLE SIZE: 705 POINTS
TCL: Running for 1500000 steps
ETITLE: TS BOND ANGLE DIHED IMPRP ELECT VDW BOUNDARY MISC KINETIC TOTAL TEMP POTENTIAL TOTALAVG TEMPAVG PRESSURE GPRESSURE VOLUME PRESSAVG GPRESSAVG
ENERGY: 0 3.2913 5.9662 10.8800 0.0000 -10741.1463 1483.0230 0.0000 0.0000 1736.7000 -7501.2858 299.0921 -9237.9858 -7501.2858 299.0921 564.6908 642.6703 30044.7665 564.6908 642.6703
ENERGY: 300000 3.8627 4.5902 11.7498 0.0000 -10725.8353 1463.8009 0.0000 0.0000 1759.7756 -7482.0561 303.0662 -9241.8317 -7516.8065 297.6514 409.3128 477.5343 29600.2055 44.6933 104.4276
ENERGY: 600000 1.2858 10.2942 11.4962 0.0000 -10646.1003 1404.3542 0.0000 0.0000 1736.5108 -7482.1590 299.0595 -9218.6698 -7501.8192 297.9125 76.1294 100.8012 29714.9516 49.4305 107.6080
ENERGY: 900000 1.9340 9.3698 11.2553 0.0000 -10650.1997 1375.4950 0.0000 0.0000 1733.0970 -7519.0486 298.4716 -9252.1455 -7498.2201 297.8304 -680.5848 -613.1688 30424.5494 -122.7156 -66.1288
ENERGY: 1200000 2.4028 8.1377 10.3556 0.0000 -10622.9104 1359.1696 0.0000 0.0000 1738.2121 -7504.6326 299.3525 -9242.8447 -7500.5659 297.1747 -733.3197 -674.6079 30179.4579 -151.3517 -93.2986
ENERGY: 1500000 3.1342 6.3267 10.2452 0.0000 -10639.0128 1348.4294 0.0000 0.0000 1768.4240 -7502.4532 304.5556 -9270.8772 -7499.7691 298.3482 -737.7351 -707.5069 30352.8077 -107.4882 -53.4535
TCL: Running FEP window   3: Lambda1 0.8999999999999999 Lambda2 0.8499999999999999 [dLambda -0.050000000000000044]
TCL: Setting parameter firsttimestep to 0
TCL: Setting parameter alchLambda to 0.8999999999999999
Info: NONBONDED TABLE R-SQUARED SPACING: 0.0625
Info: NONBONDED TABLE SIZE: 705 POINTS
TCL: Setting parameter alchLambda2 to 0.8499999999999999
Info: NONBONDED TABLE R-SQUARED SPACING: 0.0625
Info: NONBONDED TABLE SIZE: 705 POINTS
TCL: Running for 1500000 steps
ETITLE: TS BOND ANGLE DIHED IMPRP ELECT VDW BOUNDARY MISC KINETIC TOTAL TEMP POTENTIAL TOTALAVG TEMPAVG PRESSURE GPRESSURE VOLUME PRESSAVG GPRESSAVG
ENERGY: 0 3.1342 6.3267 10.2452 0.0000 -10636.4264 1348.0785 0.0000 0.0000 1767.5064 -7501.1353 304.3976 -9268.6417 -7501.1353 304.3976 -815.5841 -721.8118 30352.8077 -815.5841 -721.8118
ENERGY: 300000 1.8832 5.9120 10.4517 0.0000 -10577.9574 1422.7548 0.0000 0.0000 1739.3804 -7397.5752 299.5537 -9136.9557 -7448.6901 302.9964 529.1530 526.6264 29642.1654 88.0253 146.4577
ENERGY: 600000 2.2513 7.2599 12.1991 0.0000 -10660.9708 1400.1755 0.0000 0.0000 1766.9487 -7472.1364 304.3015 -9239.0851 -7442.5657 303.4171 -559.8670 -421.6942 30547.4777 46.9208 132.3443
ENERGY: 900000 1.2951 8.1385 10.1332 0.0000 -10579.4377 1371.6519 0.0000 0.0000 1788.5136 -7399.7054 308.0154 -9188.2191 -7448.9239 302.7550 -283.5769 -267.3028 30320.1760 7.0144 94.3060
ENERGY: 1200000 2.4070 4.1039 12.3783 0.0000 -10438.2442 1300.2113 0.0000 0.0000 1759.8084 -7359.3354 303.0718 -9119.1437 -7441.0111 302.6668 -542.7108 -441.8490 29741.0195 -57.0319 23.3694
ENERGY: 1500000 2.4689 4.5709 12.4891 0.0000 -10567.1415 1406.6541 0.0000 0.0000 1751.7889 -7389.1695 301.6907 -9140.9584 -7433.8886 302.7960 227.9453 260.4740 30031.3583 -99.9209 -24.8413
TCL: Running FEP window   4: Lambda1 0.8499999999999999 Lambda2 0.7999999999999998 [dLambda -0.050000000000000044]
TCL: Setting parameter firsttimestep to 0
TCL: Setting parameter alchLambda to 0.8499999999999999
Info: NONBONDED TABLE R-SQUARED SPACING: 0.0625
Info: NONBONDED TABLE SIZE: 705 POINTS
TCL: Setting parameter alchLambda2 to 0.7999999999999998
Info: NONBONDED TABLE R-SQUARED SPACING: 0.0625
Info: NONBONDED TABLE SIZE: 705 POINTS
TCL: Running for 1500000 steps
ETITLE: TS BOND ANGLE DIHED IMPRP ELECT VDW BOUNDARY MISC KINETIC TOTAL TEMP POTENTIAL TOTALAVG TEMPAVG PRESSURE GPRESSURE VOLUME PRESSAVG GPRESSAVG
ENERGY: 0 2.4689 4.5709 12.4891 0.0000 -10564.7521 1406.0763 0.0000 0.0000 1750.9124 -7388.2345 301.5398 -9139.1469 -7388.2345 301.5398 169.9813 245.6729 30031.3583 169.9813 245.6729
ENERGY: 300000 2.2776 4.4265 10.8565 0.0000 -10591.7941 1400.3766 0.0000 0.0000 1774.8927 -7398.9642 305.6696 -9173.8570 -7410.7617 300.7296 -22.0076 71.5243 30046.9056 -102.4808 -6.8226
ENERGY: 600000 1.8385 10.4344 11.9314 0.0000 -10608.8611 1362.1078 0.0000 0.0000 1750.1236 -7472.4253 301.4039 -9222.5489 -7436.7812 300.9811 -514.5509 -387.0036 29791.2115 -60.6253 43.2298
ENERGY: 900000 1.7468 6.2990 13.1816 0.0000 -10672.1642 1422.8487 0.0000 0.0000 1753.3448 -7474.7432 301.9587 -9228.0880 -7443.9766 300.1110 170.7118 185.8794 29496.2878 158.3589 238.8188
ENERGY: 1200000 2.9242 6.9285 12.6819 0.0000 -10552.0081 1414.4284 0.0000 0.0000 1710.3036 -7404.7414 294.5462 -9115.0451 -7432.5067 300.6422 145.8725 138.0738 30158.7315 76.7074 145.8433
ENERGY: 1500000 1.4632 4.8336 10.5183 0.0000 -10632.6520 1381.3313 0.0000 0.0000 1748.6250 -7485.8806 301.1458 -9234.5057 -7436.3197 301.4984 -584.1834 -459.9570 30117.4183 131.7778 195.2221
TCL: Running FEP window   5: Lambda1 0.7999999999999998 Lambda2 0.7499999999999998 [dLambda -0.050000000000000044]
TCL: Setting parameter firsttimestep to 0
TCL: Setting parameter alchLambda to 0.7999999999999998
Info: NONBONDED TABLE R-SQUARED SPACING: 0.0625
Info: NONBONDED TABLE SIZE: 705 POINTS
TCL: Setting parameter alchLambda2 to 0.7499999999999998
Info: NONBONDED TABLE R-SQUARED SPACING: 0.0625
Info: NONBONDED TABLE SIZE: 705 POINTS
TCL: Running for 1500000 steps
ETITLE: TS BOND ANGLE DIHED IMPRP ELECT VDW BOUNDARY MISC KINETIC TOTAL TEMP POTENTIAL TOTALAVG TEMPAVG PRESSURE GPRESSURE VOLUME PRESSAVG GPRESSAVG
ENERGY: 0 1.4632 4.8336 10.5183 0.0000 -10630.3250 1381.2047 0.0000 0.0000 1747.7637 -7484.5416 300.9975 -9232.3053 -7484.5416 300.9975 -551.8613 -467.4273 30117.4183 -551.8613 -467.4273
ENERGY: 300000 0.6337 9.3081 11.4554 0.0000 -10652.3906 1476.4099 0.0000 0.0000 1701.8982 -7452.6852 293.0986 -9154.5834 -7442.2578 298.3077 330.7367 401.6715 30291.4342 137.7333 223.1226
ENERGY: 600000 1.6352 8.7233 12.4439 0.0000 -10613.9290 1448.8416 0.0000 0.0000 1767.1102 -7375.1749 304.3293 -9142.2850 -7442.1982 299.4126 517.8222 553.3279 29924.6404 145.9185 203.5236
ENERGY: 900000 0.7890 6.1470 11.0482 0.0000 -10619.8115 1359.8532 0.0000 0.0000 1755.3394 -7486.6347 302.3022 -9241.9741 -7449.3755 300.8405 -728.9972 -611.1108 30282.4649 76.3030 143.9897
ENERGY: 1200000 1.4730 5.2145 10.7471 0.0000 -10703.8734 1491.7830 0.0000 0.0000 1748.6459 -7446.0098 301.1494 -9194.6557 -7454.7708 300.5367 842.4195 839.4324 29809.2758 68.9006 134.0773
ENERGY: 1500000 0.8724 8.3932 10.8922 0.0000 -10830.6341 1510.4483 0.0000 0.0000 1750.0200 -7550.0080 301.3861 -9300.0280 -7463.0262 300.7338 1024.6552 1052.2088 29345.3556 92.3039 160.6803
TCL: Running FEP window   6: Lambda1 0.7499999999999998 Lambda2 0.6999999999999997 [dLambda -0.050000000000000044]
TCL: Setting parameter firsttimestep to 0
TCL: Setting parameter alchLambda to 0.7499999999999998
Info: NONBONDED TABLE R-SQUARED SPACING: 0.0625
Info: NONBONDED TABLE SIZE: 705 POINTS
TCL: Setting parameter alchLambda2 to 0.6999999999999997
Info: NONBONDED TABLE R-SQUARED SPACING: 0.0625
Info: NONBONDED TABLE SIZE: 705 POINTS
TCL: Running for 1500000 steps
ETITLE: TS BOND ANGLE DIHED IMPRP ELECT VDW BOUNDARY MISC KINETIC TOTAL TEMP POTENTIAL TOTALAVG TEMPAVG PRESSURE GPRESSURE VOLUME PRESSAVG GPRESSAVG
ENERGY: 0 0.8724 8.3932 10.8922 0.0000 -10828.5164 1509.8666 0.0000 0.0000 1749.1354 -7549.3567 301.2337 -9298.4921 -7549.3567 301.2337 963.5689 1037.9421 29345.3556 963.5689 1037.9421
ENERGY: 300000 0.8692 6.8248 11.9807 0.0000 -10685.0672 1457.8839 0.0000 0.0000 1751.2040 -7456.3046 301.5900 -9207.5086 -7507.1545 296.9253 313.0266 358.3878 29524.4868 120.2723 175.8457
ENERGY: 600000 0.8194 8.4109 13.7075 0.0000 -10759.2242 1516.9976 0.0000 0.0000 1753.0190 -7466.2698 301.9026 -9219.2888 -7470.8204 297.5846 912.1294 989.2466 29479.0814 145.5818 217.9717
ENERGY: 900000 4.4262 5.7660 10.1588 0.0000 -10605.6264 1417.7393 0.0000 0.0000 1766.1443 -7401.3918 304.1630 -9167.5362 -7467.9961 298.3519 57.8949 121.4787 29754.4694 144.3005 219.5084
ENERGY: 1200000 2.1600 6.9769 13.1522 0.0000 -10580.4576 1383.4918 0.0000 0.0000 1693.8414 -7480.8353 291.7111 -9174.6767 -7455.9069 298.7451 -365.2182 -240.0954 30187.0822 91.2180 157.9340
ENERGY: 1500000 1.3872 4.7084 12.1588 0.0000 -10708.0044 1432.5401 0.0000 0.0000 1757.4157 -7499.7942 302.6598 -9257.2099 -7466.1943 298.7180 -154.4594 -95.3199 30018.7670 -2.4213 58.8256
TCL: Running FEP window   7: Lambda1 0.6999999999999997 Lambda2 0.6499999999999997 [dLambda -0.050000000000000044]
TCL: Setting parameter firsttimestep to 0
TCL: Setting parameter alchLambda to 0.6999999999999997
Info: NONBONDED TABLE R-SQUARED SPACING: 0.0625
Info: NONBONDED TABLE SIZE: 705 POINTS
TCL: Setting parameter alchLambda2 to 0.6499999999999997
Info: NONBONDED TABLE R-SQUARED SPACING: 0.0625
Info: NONBONDED TABLE SIZE: 705 POINTS
TCL: Running for 1500000 steps
ETITLE: TS BOND ANGLE DIHED IMPRP ELECT VDW BOUNDARY MISC KINETIC TOTAL TEMP POTENTIAL TOTALAVG TEMPAVG PRESSURE GPRESSURE VOLUME PRESSAVG GPRESSAVG
ENERGY: 0 1.3872 4.7084 12.1588 0.0000 -10705.8338 1432.3967 0.0000 0.0000 1756.5653 -7498.6175 302.5133 -9255.1828 -7498.6175 302.5133 -174.7444 -104.4950 30018.7670 -174.7444 -104.4950
ENERGY: 300000 1.6800 6.3786 11.5205 0.0000 -10577.3807 1376.3048 0.0000 0.0000 1722.7159 -7458.7809 296.6838 -9181.4969 -7476.2067 299.6873 -146.3470 -23.9093 29980.4233 -326.8271 -259.5006
ENERGY: 600000 4.0790 6.2589 10.1197 0.0000 -10515.1879 1385.2329 0.0000 0.0000 1737.4231 -7372.0743 299.2167 -9109.4974 -7433.9662 299.5709 32.4318 28.7998 30173.5757 -273.1778 -222.9605
ENERGY: 900000 1.6695 5.4022 9.8319 0.0000 -10636.7123 1389.4634 0.0000 0.0000 1719.7981 -7510.5472 296.1813 -9230.3453 -7447.4938 298.9108 -50.4315 70.7846 29361.9123 -196.8291 -140.3962
ENERGY: 1200000 0.7893 6.6517 9.6406 0.0000 -10739.3569 1436.7097 0.0000 0.0000 1753.6660 -7531.8997 302.0140 -9285.5657 -7459.1021 299.4391 -175.5770 -105.5290 30048.0723 -207.6255 -155.1804
ENERGY: 1500000 2.4843 4.7848 13.0066 0.0000 -10435.3448 1298.3852 0.0000 0.0000 1762.2673 -7354.4167 303.4953 -9116.6840 -7453.2576 299.1404 -717.1781 -670.5884 30192.3650 -198.5800 -145.7214
TCL: Running FEP window   8: Lambda1 0.6499999999999997 Lambda2 0.5999999999999996 [dLambda -0.050000000000000044]
TCL: Setting parameter firsttimestep to 0
TCL: Setting parameter alchLambda to 0.6499999999999997
Info: NONBONDED TABLE R-SQUARED SPACING: 0.0625
Info: NONBONDED TABLE SIZE: 705 POINTS
TCL: Setting parameter alchLambda2 to 0.5999999999999996
Info: NONBONDED TABLE R-SQUARED SPACING: 0.0625
Info: NONBONDED TABLE SIZE: 705 POINTS
TCL: Running for 1500000 steps
ETITLE: TS BOND ANGLE DIHED IMPRP ELECT VDW BOUNDARY MISC KINETIC TOTAL TEMP POTENTIAL TOTALAVG TEMPAVG PRESSURE GPRESSURE VOLUME PRESSAVG GPRESSAVG
ENERGY: 0 2.4842 4.7848 13.0066 0.0000 -10434.3841 1298.5728 0.0000 0.0000 1761.3612 -7354.1745 303.3392 -9115.5357 -7354.1745 303.3392 -771.9390 -677.9388 30192.3650 -771.9390 -677.9388
ENERGY: 300000 2.7183 4.2443 10.9167 0.0000 -10601.8956 1401.5721 0.0000 0.0000 1757.8002 -7424.6440 302.7260 -9182.4442 -7393.4071 301.0684 -226.1400 -194.9728 30404.3294 -603.6007 -521.0486
ENERGY: 600000 3.7647 9.7130 11.5239 0.0000 -10625.2057 1410.8304 0.0000 0.0000 1783.6898 -7405.6839 307.1846 -9189.3737 -7414.2795 301.5021 419.4088 379.7001 29702.1230 -468.5135 -406.8569
ENERGY: 900000 1.5129 7.3682 10.5424 0.0000 -10670.2372 1390.2707 0.0000 0.0000 1817.1727 -7443.3704 312.9510 -9260.5431 -7422.7417 302.4793 -397.8571 -353.9256 30079.5811 -430.1557 -366.4035
ENERGY: 1200000 2.4655 8.9238 11.8058 0.0000 -10666.2470 1440.9673 0.0000 0.0000 1773.3364 -7428.7482 305.4016 -9202.0846 -7430.2227 302.3589 170.9729 247.1479 29980.9794 -239.0515 -167.5751
ENERGY: 1500000 2.9019 5.1845 12.8083 0.0000 -10583.7006 1393.5279 0.0000 0.0000 1745.3752 -7423.9027 300.5862 -9169.2780 -7421.6296 302.6710 -148.8673 -98.8900 30228.9527 -212.7149 -144.6644
TCL: Running FEP window   9: Lambda1 0.5999999999999996 Lambda2 0.5499999999999996 [dLambda -0.050000000000000044]
TCL: Setting parameter firsttimestep to 0
TCL: Setting parameter alchLambda to 0.5999999999999996
Info: NONBONDED TABLE R-SQUARED SPACING: 0.0625
Info: NONBONDED TABLE SIZE: 705 POINTS
TCL: Setting parameter alchLambda2 to 0.5499999999999996
Info: NONBONDED TABLE R-SQUARED SPACING: 0.0625
Info: NONBONDED TABLE SIZE: 705 POINTS
TCL: Running for 1500000 steps
ETITLE: TS BOND ANGLE DIHED IMPRP ELECT VDW BOUNDARY MISC KINETIC TOTAL TEMP POTENTIAL TOTALAVG TEMPAVG PRESSURE GPRESSURE VOLUME PRESSAVG GPRESSAVG
ENERGY: 0 2.9019 5.1845 12.8083 0.0000 -10580.4770 1393.1920 0.0000 0.0000 1744.5061 -7421.8842 300.4365 -9166.3903 -7421.8842 300.4365 -183.6938 -101.2930 30228.9527 -183.6938 -101.2930
ENERGY: 300000 0.9673 5.6989 12.1310 0.0000 -10652.2781 1428.6220 0.0000 0.0000 1701.3269 -7503.5320 293.0002 -9204.8590 -7447.6781 298.8910 -202.0640 -113.3564 30027.9376 -4.4246 60.7950
ENERGY: 600000 0.9651 7.2598 11.0015 0.0000 -10689.0339 1473.6517 0.0000 0.0000 1767.8901 -7428.2657 304.4637 -9196.1559 -7431.2186 299.9444 275.5491 329.8507 30020.3352 -36.6280 15.2427
ENERGY: 900000 2.8264 6.0063 11.3516 0.0000 -10752.9858 1507.4210 0.0000 0.0000 1743.6086 -7481.7720 300.2819 -9225.3805 -7452.4789 299.5306 470.0317 534.7906 30303.6133 -15.2626 39.7159
ENERGY: 1200000 0.8062 3.8675 10.5460 0.0000 -10571.7802 1416.5660 0.0000 0.0000 1723.6890 -7416.3056 296.8514 -9139.9946 -7445.5797 299.1302 -83.0027 -107.2582 30609.9640 2.5158 50.4414
ENERGY: 1500000 0.9086 5.5757 11.3801 0.0000 -10738.3184 1475.6523 0.0000 0.0000 1759.4808 -7485.3210 303.0154 -9244.8018 -7445.6244 299.9897 545.9336 601.0646 29174.2084 11.8003 60.6797
TCL: Running FEP window  10: Lambda1 0.5499999999999996 Lambda2 0.4999999999999996 [dLambda -0.04999999999999999]
TCL: Setting parameter firsttimestep to 0
TCL: Setting parameter alchLambda to 0.5499999999999996
Info: NONBONDED TABLE R-SQUARED SPACING: 0.0625
Info: NONBONDED TABLE SIZE: 705 POINTS
TCL: Setting parameter alchLambda2 to 0.4999999999999996
Info: NONBONDED TABLE R-SQUARED SPACING: 0.0625
Info: NONBONDED TABLE SIZE: 705 POINTS
TCL: Running for 1500000 steps
ETITLE: TS BOND ANGLE DIHED IMPRP ELECT VDW BOUNDARY MISC KINETIC TOTAL TEMP POTENTIAL TOTALAVG TEMPAVG PRESSURE GPRESSURE VOLUME PRESSAVG GPRESSAVG
ENERGY: 0 0.9086 5.5757 11.3801 0.0000 -10737.5296 1476.2091 0.0000 0.0000 1758.6284 -7484.8276 302.8686 -9243.4560 -7484.8276 302.8686 517.0792 602.4588 29174.2084 517.0792 602.4588
ENERGY: 300000 3.8934 7.0314 10.0508 0.0000 -10654.9868 1443.9215 0.0000 0.0000 1753.6426 -7436.4471 302.0100 -9190.0897 -7434.8364 304.3444 150.2144 190.7010 29924.1309 466.0750 542.6160
ENERGY: 600000 2.3725 7.8638 10.9192 0.0000 -10604.7302 1344.6927 0.0000 0.0000 1685.5810 -7553.3011 290.2885 -9238.8821 -7454.2783 301.5281 -521.5604 -436.5675 29439.5427 71.2218 139.8371
ENERGY: 900000 2.6401 8.7252 10.5648 0.0000 -10739.6111 1495.6001 0.0000 0.0000 1778.5429 -7443.5380 306.2983 -9222.0810 -7447.5284 301.2817 769.7313 913.9600 29465.6779 221.8316 300.5677
ENERGY: 1200000 2.8406 5.1864 12.8211 0.0000 -10597.5587 1334.6167 0.0000 0.0000 1812.9905 -7429.1034 312.2308 -9242.0939 -7442.0328 301.8737 -942.3808 -857.6862 29955.4928 94.8849 173.7963
ENERGY: 1500000 2.6022 11.0733 12.4707 0.0000 -10777.0335 1529.9129 0.0000 0.0000 1726.8768 -7494.0974 297.4004 -9220.9742 -7444.6077 301.5966 775.2673 793.3076 29782.1011 148.7037 220.0422
TCL: Running FEP window  11: Lambda1 0.4999999999999996 Lambda2 0.4499999999999996 [dLambda -0.04999999999999999]
TCL: Setting parameter firsttimestep to 0
TCL: Setting parameter alchLambda to 0.4999999999999996
Info: NONBONDED TABLE R-SQUARED SPACING: 0.0625
Info: NONBONDED TABLE SIZE: 705 POINTS
TCL: Setting parameter alchLambda2 to 0.4499999999999996
Info: NONBONDED TABLE R-SQUARED SPACING: 0.0625
Info: NONBONDED TABLE SIZE: 705 POINTS
TCL: Running for 1500000 steps
ETITLE: TS BOND ANGLE DIHED IMPRP ELECT VDW BOUNDARY MISC KINETIC TOTAL TEMP POTENTIAL TOTALAVG TEMPAVG PRESSURE GPRESSURE VOLUME PRESSAVG GPRESSAVG
ENERGY: 0 2.6022 11.0733 12.4707 0.0000 -10776.8521 1530.3982 0.0000 0.0000 1726.0001 -7494.3075 297.2494 -9220.3076 -7494.3075 297.2494 716.0646 789.0195 29782.1011 716.0646 789.0195
ENERGY: 300000 4.5934 12.1353 10.3236 0.0000 -10665.6557 1458.7361 0.0000 0.0000 1720.2345 -7459.6327 296.2565 -9179.8672 -7481.2338 298.2602 371.0507 411.8836 29898.8655 46.4871 99.5529
ENERGY: 600000 3.7206 6.4918 11.6977 0.0000 -10751.5680 1439.6428 0.0000 0.0000 1746.1872 -7543.8278 300.7260 -9290.0151 -7494.9787 297.8216 -48.5086 47.5714 29739.6083 -89.8325 -34.9811
ENERGY: 900000 1.5706 5.1292 10.6375 0.0000 -10652.4469 1468.1888 0.0000 0.0000 1726.2275 -7440.6933 297.2886 -9166.9208 -7487.9037 298.1779 169.1469 236.8490 30464.5113 -26.1536 34.5614
ENERGY: 1200000 0.7485 7.8128 10.3712 0.0000 -10594.2699 1400.8154 0.0000 0.0000 1762.1452 -7412.3768 303.4743 -9174.5220 -7471.9863 299.2354 -320.4720 -269.5109 30344.8331 -115.1227 -48.2099
ENERGY: 1500000 1.5502 5.3173 11.0981 0.0000 -10737.7824 1478.9641 0.0000 0.0000 1760.3762 -7480.4765 303.1696 -9240.8527 -7470.0417 299.8514 555.4194 598.5589 29662.8496 -35.6652 32.4795
TCL: Running FEP window  12: Lambda1 0.4499999999999996 Lambda2 0.39999999999999963 [dLambda -0.04999999999999999]
TCL: Setting parameter firsttimestep to 0
TCL: Setting parameter alchLambda to 0.4499999999999996
Info: NONBONDED TABLE R-SQUARED SPACING: 0.0625
Info: NONBONDED TABLE SIZE: 705 POINTS
TCL: Setting parameter alchLambda2 to 0.39999999999999963
Info: NONBONDED TABLE R-SQUARED SPACING: 0.0625
Info: NONBONDED TABLE SIZE: 705 POINTS
TCL: Running for 1500000 steps
ETITLE: TS BOND ANGLE DIHED IMPRP ELECT VDW BOUNDARY MISC KINETIC TOTAL TEMP POTENTIAL TOTALAVG TEMPAVG PRESSURE GPRESSURE VOLUME PRESSAVG GPRESSAVG
ENERGY: 0 1.5502 5.3173 11.0981 0.0000 -10737.7816 1479.2437 0.0000 0.0000 1759.5024 -7481.0699 303.0191 -9240.5724 -7481.0699 303.0191 506.8427 590.9695 29662.8496 506.8427 590.9695
ENERGY: 300000 3.2272 9.7363 12.3131 0.0000 -10449.6698 1290.8197 0.0000 0.0000 1770.7530 -7362.8205 304.9567 -9133.5735 -7457.8701 301.4813 -990.7892 -942.4956 30668.5050 -156.3360 -95.7185
ENERGY: 600000 1.4154 7.1663 11.0312 0.0000 -10590.1159 1402.4529 0.0000 0.0000 1715.4546 -7452.5955 295.4333 -9168.0501 -7453.6073 299.3201 -200.7398 -120.7123 29920.9889 -176.6673 -115.9050
ENERGY: 900000 1.2569 4.7457 11.8321 0.0000 -10664.2473 1469.2635 0.0000 0.0000 1744.0245 -7433.1245 300.3535 -9177.1490 -7440.4772 298.9944 373.4308 483.5671 29955.5957 -105.4862 -48.7116
ENERGY: 1200000 3.4203 4.5034 10.1827 0.0000 -10416.6316 1305.4285 0.0000 0.0000 1741.3079 -7351.7887 299.8857 -9093.0966 -7433.4915 299.5192 -625.1628 -527.5098 29892.0400 -137.7749 -78.3236
ENERGY: 1500000 2.0216 6.3421 10.5181 0.0000 -10509.9643 1352.6394 0.0000 0.0000 1695.6065 -7442.8366 292.0151 -9138.4432 -7436.9060 298.2200 -465.0680 -458.0728 30205.9409 -148.6713 -95.7023
TCL: Running FEP window  13: Lambda1 0.39999999999999963 Lambda2 0.34999999999999964 [dLambda -0.04999999999999999]
TCL: Setting parameter firsttimestep to 0
TCL: Setting parameter alchLambda to 0.39999999999999963
Info: NONBONDED TABLE R-SQUARED SPACING: 0.0625
Info: NONBONDED TABLE SIZE: 705 POINTS
TCL: Setting parameter alchLambda2 to 0.34999999999999964
Info: NONBONDED TABLE R-SQUARED SPACING: 0.0625
Info: NONBONDED TABLE SIZE: 705 POINTS
TCL: Running for 1500000 steps
ETITLE: TS BOND ANGLE DIHED IMPRP ELECT VDW BOUNDARY MISC KINETIC TOTAL TEMP POTENTIAL TOTALAVG TEMPAVG PRESSURE GPRESSURE VOLUME PRESSAVG GPRESSAVG
ENERGY: 0 2.0216 6.3421 10.5181 0.0000 -10509.9652 1352.3871 0.0000 0.0000 1694.7760 -7443.9203 291.8720 -9138.6963 -7443.9203 291.8720 -556.0318 -466.3601 30205.9409 -556.0318 -466.3601
ENERGY: 300000 1.5048 7.9824 10.6135 0.0000 -10698.9045 1430.8308 0.0000 0.0000 1743.5766 -7504.3965 300.2764 -9247.9730 -7488.1969 294.6100 -129.8206 -9.8494 29625.0243 -587.9077 -492.7831
ENERGY: 600000 1.2370 5.6842 10.4765 0.0000 -10652.3562 1428.1120 0.0000 0.0000 1787.2235 -7419.6229 307.7932 -9206.8464 -7474.8446 296.0937 -99.5024 -2.8499 29884.1286 -420.8268 -349.8189
ENERGY: 900000 1.7434 7.1853 12.4759 0.0000 -10697.4705 1501.8244 0.0000 0.0000 1745.6503 -7428.5913 300.6335 -9174.2415 -7460.5937 298.3600 344.7915 462.7684 30243.0977 -99.0007 -31.5078
ENERGY: 1200000 2.5762 5.9548 12.6572 0.0000 -10737.1906 1418.1858 0.0000 0.0000 1720.2024 -7577.6143 296.2509 -9297.8167 -7467.0832 299.1312 -403.7294 -252.0014 29830.1259 -132.1863 -52.0725
ENERGY: 1500000 0.5041 6.3167 10.4129 0.0000 -10506.2568 1406.2306 0.0000 0.0000 1760.6934 -7322.0990 303.2242 -9082.7924 -7455.1512 299.1642 90.1413 68.4431 30446.9026 -100.0411 -29.2829
TCL: Running FEP window  14: Lambda1 0.34999999999999964 Lambda2 0.29999999999999966 [dLambda -0.04999999999999999]
TCL: Setting parameter firsttimestep to 0
TCL: Setting parameter alchLambda to 0.34999999999999964
Info: NONBONDED TABLE R-SQUARED SPACING: 0.0625
Info: NONBONDED TABLE SIZE: 705 POINTS
TCL: Setting parameter alchLambda2 to 0.29999999999999966
Info: NONBONDED TABLE R-SQUARED SPACING: 0.0625
Info: NONBONDED TABLE SIZE: 705 POINTS
TCL: Running for 1500000 steps
ETITLE: TS BOND ANGLE DIHED IMPRP ELECT VDW BOUNDARY MISC KINETIC TOTAL TEMP POTENTIAL TOTALAVG TEMPAVG PRESSURE GPRESSURE VOLUME PRESSAVG GPRESSAVG
ENERGY: 0 0.5041 6.3167 10.4129 0.0000 -10506.2571 1406.0124 0.0000 0.0000 1759.8581 -7323.1530 303.0804 -9083.0110 -7323.1530 303.0804 -23.3595 64.9343 30446.9026 -23.3595 64.9343
ENERGY: 300000 2.5977 6.3927 12.5238 0.0000 -10650.7282 1396.2791 0.0000 0.0000 1698.7167 -7534.2182 292.5507 -9232.9349 -7419.1103 302.6594 -175.7540 -94.5559 29742.4323 -388.1789 -318.8655
ENERGY: 600000 0.9111 3.8809 11.1720 0.0000 -10695.2356 1474.2754 0.0000 0.0000 1703.5528 -7501.4433 293.3836 -9204.9961 -7421.8431 300.7904 560.2105 648.8707 29574.4736 -126.1235 -42.2131
ENERGY: 900000 1.0601 7.6863 10.7646 0.0000 -10710.6510 1423.1015 0.0000 0.0000 1760.4587 -7507.5798 303.1838 -9268.0385 -7423.8675 300.7231 -111.0975 -62.4376 29552.5484 -110.3243 -31.6353
ENERGY: 1200000 1.5921 9.3019 10.3461 0.0000 -10732.5656 1450.5880 0.0000 0.0000 1817.6228 -7443.1147 313.0285 -9260.7375 -7427.8239 301.3264 166.2813 165.4692 29829.1120 -15.3708 54.6172
ENERGY: 1500000 1.0195 4.0449 10.4197 0.0000 -10615.8599 1449.1569 0.0000 0.0000 1798.0817 -7353.1372 309.6632 -9151.2189 -7420.1374 301.8731 110.2235 252.6949 30270.9985 -53.0682 17.3042
TCL: Running FEP window  15: Lambda1 0.29999999999999966 Lambda2 0.24999999999999967 [dLambda -0.04999999999999999]
TCL: Setting parameter firsttimestep to 0
TCL: Setting parameter alchLambda to 0.29999999999999966
Info: NONBONDED TABLE R-SQUARED SPACING: 0.0625
Info: NONBONDED TABLE SIZE: 705 POINTS
TCL: Setting parameter alchLambda2 to 0.24999999999999967
Info: NONBONDED TABLE R-SQUARED SPACING: 0.0625
Info: NONBONDED TABLE SIZE: 705 POINTS
TCL: Running for 1500000 steps
ETITLE: TS BOND ANGLE DIHED IMPRP ELECT VDW BOUNDARY MISC KINETIC TOTAL TEMP POTENTIAL TOTALAVG TEMPAVG PRESSURE GPRESSURE VOLUME PRESSAVG GPRESSAVG
ENERGY: 0 1.0195 4.0449 10.4197 0.0000 -10615.8601 1449.3874 0.0000 0.0000 1797.2197 -7353.7689 309.5147 -9150.9886 -7353.7689 309.5147 164.0691 249.7949 30270.9985 164.0691 249.7949
ENERGY: 300000 2.0429 6.1539 12.7150 0.0000 -10633.7316 1377.2531 0.0000 0.0000 1759.6590 -7475.9077 303.0461 -9235.5667 -7422.0513 303.9399 -701.2534 -598.5395 30040.8161 -420.0309 -340.4463
ENERGY: 600000 2.1023 7.7759 14.6080 0.0000 -10594.5154 1432.9864 0.0000 0.0000 1756.5425 -7380.5002 302.5094 -9137.0427 -7429.2604 300.6069 322.5521 413.0710 29873.7655 -207.6263 -131.9008
ENERGY: 900000 3.6037 9.4077 10.7690 0.0000 -10526.8049 1347.6972 0.0000 0.0000 1747.6339 -7407.6934 300.9751 -9155.3273 -7436.1409 299.4041 -421.4107 -445.0491 30209.4122 -169.4616 -100.4983
ENERGY: 1200000 4.2371 4.2631 11.5357 0.0000 -10621.0635 1444.5793 0.0000 0.0000 1671.4793 -7484.9689 287.8599 -9156.4482 -7451.4753 298.5725 233.2000 347.8469 29989.5532 -182.1348 -114.6347
ENERGY: 1500000 2.8225 7.5560 10.1287 0.0000 -10650.9783 1476.9834 0.0000 0.0000 1764.2172 -7389.2705 303.8311 -9153.4876 -7439.9714 299.6729 282.5588 293.4375 30287.4690 -188.3609 -122.3599
TCL: Running FEP window  16: Lambda1 0.24999999999999967 Lambda2 0.19999999999999968 [dLambda -0.04999999999999999]
TCL: Setting parameter firsttimestep to 0
TCL: Setting parameter alchLambda to 0.24999999999999967
Info: NONBONDED TABLE R-SQUARED SPACING: 0.0625
Info: NONBONDED TABLE SIZE: 705 POINTS
TCL: Setting parameter alchLambda2 to 0.19999999999999968
Info: NONBONDED TABLE R-SQUARED SPACING: 0.0625
Info: NONBONDED TABLE SIZE: 705 POINTS
TCL: Running for 1500000 steps
ETITLE: TS BOND ANGLE DIHED IMPRP ELECT VDW BOUNDARY MISC KINETIC TOTAL TEMP POTENTIAL TOTALAVG TEMPAVG PRESSURE GPRESSURE VOLUME PRESSAVG GPRESSAVG
ENERGY: 0 2.8225 7.5560 10.1287 0.0000 -10650.9764 1477.3144 0.0000 0.0000 1763.3707 -7389.7842 303.6853 -9153.1549 -7389.7842 303.6853 203.2381 294.2372 30287.4690 203.2381 294.2372
ENERGY: 300000 2.7740 11.9713 10.2712 0.0000 -10708.0921 1466.4722 0.0000 0.0000 1741.0087 -7475.5947 299.8342 -9216.6034 -7415.9548 301.6435 535.9122 540.5877 29431.5460 90.6479 134.3930
ENERGY: 600000 0.8944 9.1435 11.7236 0.0000 -10561.6148 1412.7851 0.0000 0.0000 1742.7727 -7384.2955 300.1380 -9127.0682 -7414.0129 302.3018 -31.9193 34.6102 30132.7428 64.9275 112.5639
ENERGY: 900000 1.8012 10.8722 10.1230 0.0000 -10664.7904 1404.6345 0.0000 0.0000 1790.6352 -7446.7242 308.3808 -9237.3594 -7425.7861 301.9212 -195.0954 -131.4083 29659.2731 -105.7079 -43.7422
ENERGY: 1200000 3.4154 6.8560 12.7334 0.0000 -10729.8585 1498.1888 0.0000 0.0000 1825.1235 -7383.5413 314.3203 -9208.6648 -7423.8022 302.4142 551.9313 602.1283 29846.5473 -26.9149 35.4831
ENERGY: 1500000 3.4111 4.1113 11.2000 0.0000 -10586.3373 1392.6411 0.0000 0.0000 1791.1185 -7383.8552 308.4640 -9174.9737 -7423.2384 303.2777 -443.7808 -351.9381 30217.4312 -110.7337 -43.9230
TCL: Running FEP window  17: Lambda1 0.19999999999999968 Lambda2 0.1499999999999997 [dLambda -0.04999999999999999]
TCL: Setting parameter firsttimestep to 0
TCL: Setting parameter alchLambda to 0.19999999999999968
Info: NONBONDED TABLE R-SQUARED SPACING: 0.0625
Info: NONBONDED TABLE SIZE: 705 POINTS
TCL: Setting parameter alchLambda2 to 0.1499999999999997
Info: NONBONDED TABLE R-SQUARED SPACING: 0.0625
Info: NONBONDED TABLE SIZE: 705 POINTS
TCL: Running for 1500000 steps
ETITLE: TS BOND ANGLE DIHED IMPRP ELECT VDW BOUNDARY MISC KINETIC TOTAL TEMP POTENTIAL TOTALAVG TEMPAVG PRESSURE GPRESSURE VOLUME PRESSAVG GPRESSAVG
ENERGY: 0 3.4111 4.1113 11.2000 0.0000 -10586.3366 1393.1546 0.0000 0.0000 1790.2422 -7384.2174 308.3131 -9174.4595 -7384.2174 308.3131 -429.0138 -351.9855 30217.4312 -429.0138 -351.9855
ENERGY: 300000 2.3441 5.4184 12.0931 0.0000 -10740.9479 1437.8708 0.0000 0.0000 1709.5981 -7573.6234 294.4247 -9283.2215 -7471.5476 299.5858 -99.0640 -29.3472 29763.1854 -356.5213 -284.2028
ENERGY: 600000 2.0897 7.8054 10.8364 0.0000 -10613.7099 1400.6968 0.0000 0.0000 1815.9957 -7376.2857 312.7483 -9192.2815 -7445.5786 300.8105 88.7815 159.0454 29518.0532 -62.9773 19.0958
ENERGY: 900000 1.6229 7.6958 11.8183 0.0000 -10667.7367 1428.3093 0.0000 0.0000 1786.4426 -7431.8477 307.6587 -9218.2903 -7448.8496 300.8475 113.3146 153.6553 29669.3773 -6.8719 70.9765
ENERGY: 1200000 2.6750 7.7400 11.0489 0.0000 -10673.0485 1428.1294 0.0000 0.0000 1697.4798 -7525.9755 292.3377 -9223.4552 -7458.6618 299.5415 -506.8888 -420.8677 30408.6714 -78.8007 3.9381
ENERGY: 1500000 1.3515 6.6563 12.4377 0.0000 -10507.6306 1309.6106 0.0000 0.0000 1732.4999 -7445.0747 298.3688 -9177.5746 -7454.2122 299.5241 -986.8959 -838.4816 29764.7137 -150.3100 -69.0518
TCL: Running FEP window  18: Lambda1 0.1499999999999997 Lambda2 0.09999999999999969 [dLambda -0.05 ]
TCL: Setting parameter firsttimestep to 0
TCL: Setting parameter alchLambda to 0.1499999999999997
Info: NONBONDED TABLE R-SQUARED SPACING: 0.0625
Info: NONBONDED TABLE SIZE: 705 POINTS
TCL: Setting parameter alchLambda2 to 0.09999999999999969
Info: NONBONDED TABLE R-SQUARED SPACING: 0.0625
Info: NONBONDED TABLE SIZE: 705 POINTS
TCL: Running for 1500000 steps
ETITLE: TS BOND ANGLE DIHED IMPRP ELECT VDW BOUNDARY MISC KINETIC TOTAL TEMP POTENTIAL TOTALAVG TEMPAVG PRESSURE GPRESSURE VOLUME PRESSAVG GPRESSAVG
ENERGY: 0 1.3515 6.6563 12.4377 0.0000 -10507.6309 1310.1003 0.0000 0.0000 1731.6368 -7445.4483 298.2202 -9177.0852 -7445.4483 298.2202 -908.3785 -839.9344 29764.7137 -908.3785 -839.9344
ENERGY: 300000 2.0105 5.9298 12.2924 0.0000 -10717.5063 1455.9986 0.0000 0.0000 1716.6966 -7524.5784 295.6472 -9241.2750 -7486.2596 297.0087 618.1952 655.3702 28912.1607 213.2531 261.7818
ENERGY: 600000 3.3369 4.8435 10.2861 0.0000 -10677.0525 1476.2817 0.0000 0.0000 1724.9267 -7457.3777 297.0645 -9182.3044 -7461.7423 298.0594 815.2145 841.1433 29239.0980 287.1407 340.8212
ENERGY: 900000 1.0456 9.4166 10.5828 0.0000 -10639.2666 1480.5453 0.0000 0.0000 1772.9230 -7364.7534 305.3304 -9137.6764 -7452.7277 298.1478 786.2168 803.7757 29553.6120 277.7951 337.7651
ENERGY: 1200000 2.1178 7.5782 11.3894 0.0000 -10651.6025 1401.3575 0.0000 0.0000 1758.8208 -7470.3387 302.9017 -9229.1595 -7464.2238 298.8502 -297.2186 -256.9893 29991.7660 241.5149 301.2977
ENERGY: 1500000 1.5893 6.1522 11.3408 0.0000 -10614.8208 1359.2783 0.0000 0.0000 1707.9708 -7528.4893 294.1444 -9236.4601 -7465.4466 299.0266 -676.6388 -549.1427 29788.3322 162.0568 226.4647
TCL: Running FEP window  19: Lambda1 0.09999999999999969 Lambda2 0.049999999999999684 [dLambda -0.05 ]
TCL: Setting parameter firsttimestep to 0
TCL: Setting parameter alchLambda to 0.09999999999999969
Info: NONBONDED TABLE R-SQUARED SPACING: 0.0625
Info: NONBONDED TABLE SIZE: 705 POINTS
TCL: Setting parameter alchLambda2 to 0.049999999999999684
Info: NONBONDED TABLE R-SQUARED SPACING: 0.0625
Info: NONBONDED TABLE SIZE: 705 POINTS
TCL: Running for 1500000 steps
ETITLE: TS BOND ANGLE DIHED IMPRP ELECT VDW BOUNDARY MISC KINETIC TOTAL TEMP POTENTIAL TOTALAVG TEMPAVG PRESSURE GPRESSURE VOLUME PRESSAVG GPRESSAVG
ENERGY: 0 1.5893 6.1522 11.3408 0.0000 -10614.8220 1358.7064 0.0000 0.0000 1707.0964 -7529.9368 293.9938 -9237.0332 -7529.9368 293.9938 -647.3970 -554.6877 29788.3322 -647.3970 -554.6877
ENERGY: 300000 3.4447 11.8262 11.7708 0.0000 -10578.4170 1372.6055 0.0000 0.0000 1739.7939 -7438.9759 299.6250 -9178.7698 -7470.1375 299.5974 -491.5070 -435.4534 29892.8029 -394.5942 -301.3269
ENERGY: 600000 5.0077 7.6839 10.6093 0.0000 -10668.9408 1434.0795 0.0000 0.0000 1746.1789 -7465.3815 300.7246 -9211.5603 -7460.5816 299.3624 62.4272 128.2795 29715.2200 -295.2445 -205.2255
ENERGY: 900000 2.9063 5.5536 10.3154 0.0000 -10499.0621 1353.2878 0.0000 0.0000 1733.5140 -7393.4850 298.5434 -9126.9990 -7454.6393 298.2893 -366.3220 -315.3576 30163.6790 -312.2074 -234.6123
ENERGY: 1200000 3.8468 6.1476 11.7584 0.0000 -10696.1143 1438.2039 0.0000 0.0000 1758.0951 -7478.0627 302.7768 -9236.1577 -7451.7954 299.7447 -269.0608 -221.1100 30287.7991 -218.9495 -149.2459
ENERGY: 1500000 2.2652 3.7267 12.5713 0.0000 -10611.7080 1446.4535 0.0000 0.0000 1733.1166 -7413.5747 298.4750 -9146.6913 -7450.4531 300.1027 563.1103 599.4176 29554.7359 -82.4825 -18.3487
TCL: Running FEP window  20: Lambda1 0.049999999999999684 Lambda2 0.0    [dLambda -0.049999999999999684]
TCL: Setting parameter firsttimestep to 0
TCL: Setting parameter alchLambda to 0.049999999999999684
Info: NONBONDED TABLE R-SQUARED SPACING: 0.0625
Info: NONBONDED TABLE SIZE: 705 POINTS
TCL: Setting parameter alchLambda2 to 0.0
Info: NONBONDED TABLE R-SQUARED SPACING: 0.0625
Info: NONBONDED TABLE SIZE: 705 POINTS
TCL: Running for 1500000 steps
ETITLE: TS BOND ANGLE DIHED IMPRP ELECT VDW BOUNDARY MISC KINETIC TOTAL TEMP POTENTIAL TOTALAVG TEMPAVG PRESSURE GPRESSURE VOLUME PRESSAVG GPRESSAVG
ENERGY: 0 2.2652 3.7267 12.5713 0.0000 -10611.7076 1446.5738 0.0000 0.0000 1732.2647 -7414.3059 298.3283 -9146.5706 -7414.3059 298.3283 501.3064 597.3565 29554.7359 501.3064 597.3565
ENERGY: 300000 1.4819 4.5758 9.5448 0.0000 -10670.7459 1458.6121 0.0000 0.0000 1732.3621 -7464.1692 298.3451 -9196.5313 -7437.0708 298.1372 211.9892 162.6751 30012.4770 217.8023 222.2955
ENERGY: 600000 1.5778 5.3420 11.6294 0.0000 -10555.4841 1361.8594 0.0000 0.0000 1695.2318 -7479.8436 291.9505 -9175.0754 -7460.4681 297.2262 -656.8455 -598.0416 30086.8817 122.0247 146.5232
ENERGY: 900000 1.8640 5.3430 11.4557 0.0000 -10682.5963 1466.5291 0.0000 0.0000 1763.4974 -7433.9071 303.7071 -9197.4045 -7464.2730 298.7432 117.0979 172.6111 30092.6507 18.3202 64.1714
ENERGY: 1200000 0.7715 10.4728 11.7260 0.0000 -10643.3637 1440.1993 0.0000 0.0000 1795.7762 -7384.4179 309.2661 -9180.1941 -7455.7002 299.8541 238.9041 267.5946 29592.1903 14.8457 55.6775
ENERGY: 1500000 1.9701 10.5496 11.5973 0.0000 -10591.2410 1399.1084 0.0000 0.0000 1760.5319 -7407.4837 303.1964 -9168.0155 -7454.0032 299.4077 -109.5951 45.7233 29755.7370 -43.3700 12.2270
TCL: Exiting due to exit command.
