Info: SIMULATION PARAMETERS:
Info: TIMESTEP               2
Info: NUMBER OF STEPS        0
Info: STEPS PER CYCLE        10
Info: PERIODIC CELL BASIS 1  31.0719 0 0
Info: PERIODIC CELL BASIS 2  0 30.4271 0
Info: PERIODIC CELL BASIS 3  0 0 32.1492
Info: PERIODIC CELL CENTER   0 0 0
Info: WRAPPING WATERS AROUND PERIODIC BOUNDARIES ON OUTPUT.
Info: WRAPPING ALL CLUSTERS AROUND PERIODIC BOUNDARIES ON OUTPUT.
Info: FIRST LDB TIMESTEP     50
Info: LAST LDB TIMESTEP     -1
Info: HOM BACKGROUND SCALING 1
Info: PME BACKGROUND SCALING 1
Info: MIN ATOMS PER PATCH    40
Info: EMPTY PATCH LOAD       40 ATOMS
Info: VELOCITY FILE          mobley_6232400_equil.vel
Info: CENTER OF MASS MOVING INITIALLY? NO
Info: DIELECTRIC             1
Info: EXCLUDE                SCALED ONE-FOUR
Info: 1-4 ELECTROSTATICS SCALED BY 0.833333
Info: MODIFIED 1-4 VDW PARAMETERS WILL BE USED
Info: DCD FILENAME           mobley_6232400_prod.dcd
Info: DCD FREQUENCY          100000
Info: DCD FIRST STEP         100000
Info: DCD FILE WILL CONTAIN UNIT CELL DATA
Info: XST FILENAME           mobley_6232400_prod.xst
Info: XST FREQUENCY          100000
Info: NO VELOCITY DCD OUTPUT
Info: NO FORCE DCD OUTPUT
Info: OUTPUT FILENAME        mobley_6232400_prod
Info: BINARY OUTPUT FILES WILL BE USED
Info: RESTART FILENAME       mobley_6232400_prod.restart
Info: RESTART FREQUENCY      100000
Info: BINARY RESTART FILES WILL BE USED
Info: CUTOFF                 9
Info: PAIRLIST DISTANCE      11
Info: PAIRLIST SHRINK RATE   0.01
Info: PAIRLIST GROW RATE     0.01
Info: PAIRLIST TRIGGER       0.3
Info: PAIRLISTS PER CYCLE    2
Info: PAIRLISTS ENABLED
Info: MARGIN                 2
Info: HYDROGEN GROUP CUTOFF  2.5
Info: PATCH DIMENSION        15.5
Info: ENERGY OUTPUT STEPS    100000
Info: ENERGY EVALUATION STEPS    100000
Info: OUTPUT ENERGY PRECISION 4
Info: CROSSTERM ENERGY INCLUDED IN DIHEDRAL
Info: TIMING OUTPUT STEPS    1000000
Info: PRESSURE OUTPUT STEPS  100000
Info: ALCHEMICAL FEP ON
Info: FEP CURRENT LAMBDA VALUE     1
Info: FEP COMPARISON LAMBDA VALUE  0.95
Info: FEP INTRA-ALCHEMICAL NON-BONDED INTERACTIONS WILL BE RETAINED
Info: FEP INTRA-ALCHEMICAL BONDED INTERACTIONS WILL BE RETAINED
Info: FEP VDW SHIFTING COEFFICIENT 5
Info: FEP ELEC. ACTIVE FOR ANNIHILATED PARTICLES BETWEEN LAMBDA = 0 AND LAMBDA = 0.5
Info: FEP ELEC. ACTIVE FOR EXNIHILATED PARTICLES BETWEEN LAMBDA = 0.5 AND LAMBDA = 1
Info: FEP VDW ACTIVE FOR ANNIHILATED PARTICLES BETWEEN LAMBDA = 0 AND LAMBDA = 1
Info: FEP VDW ACTIVE FOR EXNIHILATED PARTICLES BETWEEN LAMBDA = 0 AND LAMBDA = 1
Info: FEP BOND ACTIVE FOR ANNIHILATED PARTICLES BETWEEN LAMBDA = 1 AND LAMBDA = 1
Info: FEP BOND ACTIVE FOR EXNIHILATED PARTICLES BETWEEN LAMBDA = 0 AND LAMBDA = 0
Info: LANGEVIN DYNAMICS ACTIVE
Info: LANGEVIN TEMPERATURE   300
Info: LANGEVIN USING BBK INTEGRATOR
Info: LANGEVIN DAMPING COEFFICIENT IS 1 INVERSE PS
Info: LANGEVIN DYNAMICS APPLIED TO HYDROGENS
Info: LANGEVIN PISTON PRESSURE CONTROL ACTIVE
Info:        TARGET PRESSURE IS 1.01325 BAR
Info:     OSCILLATION PERIOD IS 50 FS
Info:             DECAY TIME IS 25 FS
Info:     PISTON TEMPERATURE IS 300 K
Info:       PRESSURE CONTROL IS GROUP-BASED
Info:    INITIAL STRAIN RATE IS -0.000733215 -0.000733215 -0.000733215
Info:       CELL FLUCTUATION IS ISOTROPIC
Info: PARTICLE MESH EWALD (PME) ACTIVE
Info: PME TOLERANCE               1e-06
Info: PME EWALD COEFFICIENT       0.348832
Info: PME INTERPOLATION ORDER     4
Info: PME GRID DIMENSIONS         32 32 36
Info: PME MAXIMUM GRID SPACING    1
Info: PME CALCULATION WILL BE PERFORMED ON GPU
Info: FULL ELECTROSTATIC EVALUATION FREQUENCY      2
Info: USING VERLET I (r-RESPA) MTS SCHEME.
Info: C1 SPLITTING OF LONG RANGE ELECTROSTATICS
Info: PLACING ATOMS IN PATCHES BY HYDROGEN GROUPS
Info: RIGID BONDS TO HYDROGEN : ALL
Info:         ERROR TOLERANCE : 1e-08
Info:          MAX ITERATIONS : 100
Info: RIGID WATER USING SETTLE ALGORITHM
Info: RANDOM NUMBER SEED     1743732647
Info: USE HYDROGEN BONDS?    NO
Info: Using AMBER format force field!
Info: AMBER PARM FILE        mobley_6232400.prmtop
Info: COORDINATE PDB         mobley_6232400.pdb
Info: Exclusions will be read from PARM file!
Info: SCNB (VDW SCALING)     2
Info: USING ARITHMETIC MEAN TO COMBINE L-J SIGMA PARAMETERS
Info: BINARY COORDINATES     mobley_6232400_equil.coor
Info: SUMMARY OF PARAMETERS:
Info: 9 BONDS
Info: 10 ANGLES
Info:   10 HARMONIC
Info:   0 COSINE-BASED
Info: 5 DIHEDRAL
Info: 0 IMPROPER
Info: 0 CROSSTERM
Info: 0 VDW
Info: 28 VDW_PAIRS
Info: 0 NBTHOLE_PAIRS
Info: To read alchdata from file: mobley_6232400.pdb
Info: To read alchflag data from column: 5
Info: STRUCTURE SUMMARY:
Info: 2956 ATOMS
Info: 2956 BONDS
Info: 19 ANGLES
Info: 30 DIHEDRALS
Info: 0 IMPROPERS
Info: 0 CROSSTERMS
Info: 2996 EXCLUSIONS
Info: 2948 RIGID BONDS
Info: ALCH: 0 ATOMS TO DISAPPEAR IN FINAL STATE
Info: ALCH: 13 ATOMS TO APPEAR IN FINAL STATE
Info: 5920 DEGREES OF FREEDOM
Info: 989 HYDROGEN GROUPS
Info: 3 ATOMS IN LARGEST HYDROGEN GROUP
Info: 989 MIGRATION GROUPS
Info: 3 ATOMS IN LARGEST MIGRATION GROUP
Info: TOTAL MASS = 17780.8 amu
Info: TOTAL CHARGE = -0.000100096 e
Info: MASS DENSITY = 0.971435 g/cm^3
Info: ATOM DENSITY = 0.097254 atoms/A^3
Info: ADDED 0 IMPLICIT EXCLUSIONS
Info: NONBONDED TABLE R-SQUARED SPACING: 0.0625
Info: NONBONDED TABLE SIZE: 705 POINTS
Info: REMOVING COM VELOCITY -0.0139214 -0.0522181 -0.0975383
Info: Use 3D box decompostion in PME FFT.
Info: Updated CUDA force table with 4096 elements.
Info: Updated CUDA LJ table with 7 x 7 elements.
Info: Found 16 unique exclusion lists needing 32 bytes
TCL: Running for 1500000 steps
ETITLE: TS BOND ANGLE DIHED IMPRP ELECT VDW BOUNDARY MISC KINETIC TOTAL TEMP POTENTIAL TOTALAVG TEMPAVG PRESSURE GPRESSURE VOLUME PRESSAVG GPRESSAVG
ENERGY: 0 3.0091 2.2986 5.0089 0.0000 -10794.7448 1533.1985 0.0000 0.0000 1754.4370 -7496.7927 298.2679 -9251.2297 -7496.7927 298.2679 784.2813 864.1582 30394.6465 784.2813 864.1582
ENERGY: 300000 4.0813 2.2691 2.0628 0.0000 -10676.9821 1340.0293 0.0000 0.0000 1785.4741 -7543.0655 303.5444 -9328.5396 -7544.9909 297.6796 -903.7567 -832.4298 30337.5963 -2.9817 78.8111
ENERGY: 600000 3.0895 3.6475 3.6080 0.0000 -10825.2558 1489.8012 0.0000 0.0000 1749.1126 -7575.9971 297.3627 -9325.1097 -7535.6972 299.6215 402.7620 438.0007 30130.1295 58.5011 132.3102
ENERGY: 900000 3.4604 2.9934 3.6113 0.0000 -10850.4499 1492.9454 0.0000 0.0000 1786.9020 -7560.5374 303.7872 -9347.4394 -7540.7788 299.6266 444.6423 480.7453 30242.7394 64.8625 139.5857
ENERGY: 1200000 3.3992 4.5215 4.1394 0.0000 -10849.7654 1412.7468 0.0000 0.0000 1801.9194 -7623.0391 306.3402 -9424.9584 -7546.1881 301.2404 -354.4965 -341.6654 29998.8505 -40.5904 27.6271
ENERGY: 1500000 2.0295 3.1715 1.7961 0.0000 -10829.1818 1470.6616 0.0000 0.0000 1809.6378 -7541.8853 307.6524 -9351.5231 -7545.4275 302.1433 189.5834 200.3957 30220.1849 -19.6610 41.9488
TCL: Running FEP window   2: Lambda1 0.95   Lambda2 0.8999999999999999 [dLambda -0.050000000000000044]
TCL: Setting parameter firsttimestep to 0
TCL: Setting parameter alchLambda to 0.95
Info: NONBONDED TABLE R-SQUARED SPACING: 0.0625
Info: NONBONDED TABLE SIZE: 705 POINTS
TCL: Setting parameter alchLambda2 to 0.8999999999999999
Info: NONBONDED TABLE R-SQUARED SPACING: 0.0625
Info: NONBONDED TABLE SIZE: 705 POINTS
TCL: Running for 1500000 steps
ETITLE: TS BOND ANGLE DIHED IMPRP ELECT VDW BOUNDARY MISC KINETIC TOTAL TEMP POTENTIAL TOTALAVG TEMPAVG PRESSURE GPRESSURE VOLUME PRESSAVG GPRESSAVG
ENERGY: 0 2.0295 3.1715 1.7961 0.0000 -10826.7804 1469.7441 0.0000 0.0000 1808.7375 -7541.3018 307.4994 -9350.0393 -7541.3018 307.4994 107.0068 184.1151 30220.1849 107.0068 184.1151
ENERGY: 300000 2.6241 1.6111 1.6066 0.0000 -10723.9354 1405.5332 0.0000 0.0000 1742.1431 -7570.4174 296.1778 -9312.5605 -7594.9847 300.7248 -248.3903 -159.7595 30050.4743 -216.5862 -147.5563
ENERGY: 600000 1.9268 3.8715 2.7687 0.0000 -10811.5739 1485.5359 0.0000 0.0000 1660.0869 -7657.3840 282.2276 -9317.4709 -7577.9529 298.9887 -42.2516 76.7181 30652.3958 -95.2738 -19.7225
ENERGY: 900000 2.4027 3.1568 1.7115 0.0000 -10794.7374 1499.6533 0.0000 0.0000 1788.2715 -7499.5416 304.0200 -9287.8131 -7549.7687 299.8405 817.4115 859.6945 29959.7701 -77.2619 -1.7737
ENERGY: 1200000 4.1378 1.7092 4.1882 0.0000 -10738.5897 1405.2813 0.0000 0.0000 1803.1004 -7520.1727 306.5410 -9323.2731 -7545.8075 299.9638 -59.8026 -36.2487 30117.7685 -37.2974 42.1145
ENERGY: 1500000 3.0362 2.2241 4.6129 0.0000 -10585.0182 1334.1881 0.0000 0.0000 1790.7377 -7450.2192 304.4393 -9240.9569 -7538.6756 301.3938 -881.3145 -778.2280 30909.4583 -97.9579 -19.2396
TCL: Running FEP window   3: Lambda1 0.8999999999999999 Lambda2 0.8499999999999999 [dLambda -0.050000000000000044]
TCL: Setting parameter firsttimestep to 0
TCL: Setting parameter alchLambda to 0.8999999999999999
Info: NONBONDED TABLE R-SQUARED SPACING: 0.0625
Info: NONBONDED TABLE SIZE: 705 POINTS
TCL: Setting parameter alchLambda2 to 0.8499999999999999
Info: NONBONDED TABLE R-SQUARED SPACING: 0.0625
Info: NONBONDED TABLE SIZE: 705 POINTS
TCL: Running for 1500000 steps
ETITLE: TS BOND ANGLE DIHED IMPRP ELECT VDW BOUNDARY MISC KINETIC TOTAL TEMP POTENTIAL TOTALAVG TEMPAVG PRESSURE GPRESSURE VOLUME PRESSAVG GPRESSAVG
ENERGY: 0 3.0362 2.2241 4.6129 0.0000 -10583.0304 1334.1315 0.0000 0.0000 1789.8766 -7449.1491 304.2929 -9239.0257 -7449.1491 304.2929 -873.1941 -785.9970 30909.4583 -873.1941 -785.9970
ENERGY: 300000 1.9343 3.7153 2.0447 0.0000 -10846.7726 1492.0633 0.0000 0.0000 1798.1751 -7548.8398 305.7037 -9347.0150 -7508.2363 304.3525 220.7258 207.2198 30226.2218 -84.9974 -48.6008
ENERGY: 600000 2.3006 2.1487 2.5068 0.0000 -10776.4496 1394.9453 0.0000 0.0000 1795.4929 -7579.0553 305.2477 -9374.5482 -7529.3220 304.1696 -611.7164 -531.8684 30366.6054 -219.7121 -173.1363
ENERGY: 900000 1.3473 2.4374 1.3948 0.0000 -10817.1203 1468.8199 0.0000 0.0000 1779.3151 -7563.8059 302.4973 -9343.1209 -7536.8283 304.2951 66.5409 164.6247 30283.2178 -140.4448 -83.8589
ENERGY: 1200000 0.8061 3.8302 2.2400 0.0000 -10779.4967 1442.6026 0.0000 0.0000 1775.2615 -7554.7563 301.8082 -9330.0178 -7537.7212 303.3216 94.9128 166.0631 30446.1404 -55.9749 0.3873
ENERGY: 1500000 3.2516 2.2334 2.7865 0.0000 -10682.5296 1373.7925 0.0000 0.0000 1757.0881 -7543.3776 298.7186 -9300.4657 -7544.5668 302.8567 -463.9535 -402.8465 30421.9141 -57.9326 -7.2522
TCL: Running FEP window   4: Lambda1 0.8499999999999999 Lambda2 0.7999999999999998 [dLambda -0.050000000000000044]
TCL: Setting parameter firsttimestep to 0
TCL: Setting parameter alchLambda to 0.8499999999999999
Info: NONBONDED TABLE R-SQUARED SPACING: 0.0625
Info: NONBONDED TABLE SIZE: 705 POINTS
TCL: Setting parameter alchLambda2 to 0.7999999999999998
Info: NONBONDED TABLE R-SQUARED SPACING: 0.0625
Info: NONBONDED TABLE SIZE: 705 POINTS
TCL: Running for 1500000 steps
ETITLE: TS BOND ANGLE DIHED IMPRP ELECT VDW BOUNDARY MISC KINETIC TOTAL TEMP POTENTIAL TOTALAVG TEMPAVG PRESSURE GPRESSURE VOLUME PRESSAVG GPRESSAVG
ENERGY: 0 3.2516 2.2334 2.7865 0.0000 -10681.1497 1373.6262 0.0000 0.0000 1756.1910 -7543.0611 298.5661 -9299.2521 -7543.0611 298.5661 -495.5141 -413.2937 30421.9141 -495.5141 -413.2937
ENERGY: 300000 2.2837 5.0310 3.5065 0.0000 -10703.6281 1420.7449 0.0000 0.0000 1855.6863 -7416.3757 315.4810 -9272.0620 -7496.0264 306.7620 -28.0739 28.7134 30517.4444 -240.6506 -129.5547
ENERGY: 600000 2.7096 5.8428 6.4276 0.0000 -10687.1949 1374.4831 0.0000 0.0000 1785.3887 -7512.3431 303.5299 -9297.7318 -7501.3518 304.8882 -700.9464 -609.9750 30722.3498 -307.6964 -214.5678
ENERGY: 900000 2.4516 6.0667 1.4240 0.0000 -10820.9167 1449.1868 0.0000 0.0000 1778.7763 -7583.0112 302.4057 -9361.7876 -7509.9241 304.1271 -100.9388 -81.0155 30388.4723 -217.7778 -140.4749
ENERGY: 1200000 2.7121 3.8882 1.7855 0.0000 -10757.8246 1485.4240 0.0000 0.0000 1716.4385 -7547.5761 291.8078 -9264.0147 -7510.0371 303.1071 463.7391 548.0499 30426.2049 -169.1942 -92.3401
ENERGY: 1500000 1.7251 4.9648 5.5455 0.0000 -10766.1450 1434.0458 0.0000 0.0000 1741.4434 -7578.4204 296.0588 -9319.8638 -7518.8787 302.7841 -89.7155 -29.4937 30173.4652 -217.8081 -139.9050
TCL: Running FEP window   5: Lambda1 0.7999999999999998 Lambda2 0.7499999999999998 [dLambda -0.050000000000000044]
TCL: Setting parameter firsttimestep to 0
TCL: Setting parameter alchLambda to 0.7999999999999998
Info: NONBONDED TABLE R-SQUARED SPACING: 0.0625
Info: NONBONDED TABLE SIZE: 705 POINTS
TCL: Setting parameter alchLambda2 to 0.7499999999999998
Info: NONBONDED TABLE R-SQUARED SPACING: 0.0625
Info: NONBONDED TABLE SIZE: 705 POINTS
TCL: Running for 1500000 steps
ETITLE: TS BOND ANGLE DIHED IMPRP ELECT VDW BOUNDARY MISC KINETIC TOTAL TEMP POTENTIAL TOTALAVG TEMPAVG PRESSURE GPRESSURE VOLUME PRESSAVG GPRESSAVG
ENERGY: 0 1.7251 4.9648 5.5455 0.0000 -10764.7313 1433.8944 0.0000 0.0000 1740.5547 -7578.0467 295.9078 -9318.6014 -7578.0467 295.9078 -112.4907 -39.9391 30173.4652 -112.4907 -39.9391
ENERGY: 300000 3.2741 2.3238 2.5908 0.0000 -10704.7810 1390.1497 0.0000 0.0000 1787.8454 -7518.5972 303.9476 -9306.4426 -7539.4077 302.1158 -542.5349 -450.3736 30440.9674 -9.1471 64.1959
ENERGY: 600000 2.6349 4.0744 1.8083 0.0000 -10827.0695 1567.2662 0.0000 0.0000 1764.9519 -7486.3339 300.0555 -9251.2858 -7539.6219 299.2040 1004.6300 1031.5958 30385.5792 -73.1166 -3.5003
ENERGY: 900000 1.9290 4.6023 1.3202 0.0000 -10731.0378 1480.4434 0.0000 0.0000 1808.1461 -7434.5968 307.3988 -9242.7429 -7531.0655 300.1535 632.0070 629.2320 30303.9252 19.4982 73.2656
ENERGY: 1200000 4.0740 2.3472 2.6159 0.0000 -10748.9249 1413.1208 0.0000 0.0000 1703.1222 -7623.6448 289.5439 -9326.7670 -7543.1058 298.9038 3.3060 48.2648 30100.1225 128.4921 178.8879
ENERGY: 1500000 2.2074 4.9588 1.7848 0.0000 -10550.6782 1322.8219 0.0000 0.0000 1825.8599 -7393.0454 310.4103 -9218.9053 -7537.9430 299.8432 -968.7426 -939.4171 31288.1813 12.2781 66.3629
TCL: Running FEP window   6: Lambda1 0.7499999999999998 Lambda2 0.6999999999999997 [dLambda -0.050000000000000044]
TCL: Setting parameter firsttimestep to 0
TCL: Setting parameter alchLambda to 0.7499999999999998
Info: NONBONDED TABLE R-SQUARED SPACING: 0.0625
Info: NONBONDED TABLE SIZE: 705 POINTS
TCL: Setting parameter alchLambda2 to 0.6999999999999997
Info: NONBONDED TABLE R-SQUARED SPACING: 0.0625
Info: NONBONDED TABLE SIZE: 705 POINTS
TCL: Running for 1500000 steps
ETITLE: TS BOND ANGLE DIHED IMPRP ELECT VDW BOUNDARY MISC KINETIC TOTAL TEMP POTENTIAL TOTALAVG TEMPAVG PRESSURE GPRESSURE VOLUME PRESSAVG GPRESSAVG
ENERGY: 0 2.2074 4.9588 1.7848 0.0000 -10549.2356 1322.8193 0.0000 0.0000 1824.9637 -7392.5016 310.2579 -9217.4653 -7392.5016 310.2579 -1020.1537 -946.1584 31288.1813 -1020.1537 -946.1584
ENERGY: 300000 2.5631 1.2350 2.1291 0.0000 -10690.2995 1392.7454 0.0000 0.0000 1796.5466 -7495.0803 305.4268 -9291.6269 -7446.2439 308.5736 -484.2948 -404.4981 30616.3460 -718.7575 -630.2207
ENERGY: 600000 1.8207 5.0418 1.5947 0.0000 -10936.9501 1558.9816 0.0000 0.0000 1757.4466 -7612.0646 298.7795 -9369.5112 -7498.3296 303.8691 485.2722 530.3432 30407.9887 -580.7824 -510.3313
ENERGY: 900000 2.5412 2.2786 2.0460 0.0000 -10713.5909 1440.4255 0.0000 0.0000 1797.8007 -7468.4989 305.6400 -9266.2996 -7503.7281 303.4389 10.5342 76.6039 30796.6495 -453.3666 -380.7133
ENERGY: 1200000 1.4612 2.8649 4.1242 0.0000 -10647.8769 1399.5237 0.0000 0.0000 1773.5138 -7466.3891 301.5111 -9239.9029 -7500.2541 302.9763 -200.7431 -116.9315 30208.4168 -381.8317 -311.1802
ENERGY: 1500000 2.7499 3.7826 1.1065 0.0000 -10752.2139 1437.7601 0.0000 0.0000 1789.5495 -7517.2653 304.2372 -9306.8147 -7504.6630 302.2990 -216.3460 -175.4701 30674.7665 -345.7765 -278.6960
TCL: Running FEP window   7: Lambda1 0.6999999999999997 Lambda2 0.6499999999999997 [dLambda -0.050000000000000044]
TCL: Setting parameter firsttimestep to 0
TCL: Setting parameter alchLambda to 0.6999999999999997
Info: NONBONDED TABLE R-SQUARED SPACING: 0.0625
Info: NONBONDED TABLE SIZE: 705 POINTS
TCL: Setting parameter alchLambda2 to 0.6499999999999997
Info: NONBONDED TABLE R-SQUARED SPACING: 0.0625
Info: NONBONDED TABLE SIZE: 705 POINTS
TCL: Running for 1500000 steps
ETITLE: TS BOND ANGLE DIHED IMPRP ELECT VDW BOUNDARY MISC KINETIC TOTAL TEMP POTENTIAL TOTALAVG TEMPAVG PRESSURE GPRESSURE VOLUME PRESSAVG GPRESSAVG
ENERGY: 0 2.7500 3.7826 1.1065 0.0000 -10750.4637 1437.5427 0.0000 0.0000 1788.6498 -7516.6322 304.0843 -9305.2819 -7516.6322 304.0843 -254.7038 -183.2886 30674.7665 -254.7038 -183.2886
ENERGY: 300000 2.9710 3.1942 0.7524 0.0000 -10696.1612 1440.2664 0.0000 0.0000 1646.6415 -7602.3356 279.9418 -9248.9771 -7543.1800 295.0651 -138.6955 -100.8183 30615.3041 -65.1515 -14.2548
ENERGY: 600000 4.4295 4.0386 3.9032 0.0000 -10637.9719 1387.1406 0.0000 0.0000 1781.0071 -7457.4530 302.7850 -9238.4601 -7530.8263 296.5024 -529.4178 -473.6599 30775.9236 -265.7915 -197.8188
ENERGY: 900000 4.0209 2.6890 1.2995 0.0000 -10605.3523 1451.4223 0.0000 0.0000 1781.6720 -7364.2486 302.8980 -9145.9206 -7521.1140 297.0199 447.4246 530.6494 30631.2908 -111.0349 -37.6205
ENERGY: 1200000 0.9755 1.9685 3.3985 0.0000 -10758.7459 1515.5235 0.0000 0.0000 1777.2549 -7459.6249 302.1471 -9236.8798 -7526.3657 296.8349 944.2912 933.2051 30448.1200 -50.0362 16.1588
ENERGY: 1500000 2.4771 2.6426 3.0565 0.0000 -10712.1088 1429.5863 0.0000 0.0000 1750.9102 -7523.4361 297.6683 -9274.3463 -7527.3936 297.0719 -246.5798 -135.7394 30643.6138 -62.7978 8.9267
TCL: Running FEP window   8: Lambda1 0.6499999999999997 Lambda2 0.5999999999999996 [dLambda -0.050000000000000044]
TCL: Setting parameter firsttimestep to 0
TCL: Setting parameter alchLambda to 0.6499999999999997
Info: NONBONDED TABLE R-SQUARED SPACING: 0.0625
Info: NONBONDED TABLE SIZE: 705 POINTS
TCL: Setting parameter alchLambda2 to 0.5999999999999996
Info: NONBONDED TABLE R-SQUARED SPACING: 0.0625
Info: NONBONDED TABLE SIZE: 705 POINTS
TCL: Running for 1500000 steps
ETITLE: TS BOND ANGLE DIHED IMPRP ELECT VDW BOUNDARY MISC KINETIC TOTAL TEMP POTENTIAL TOTALAVG TEMPAVG PRESSURE GPRESSURE VOLUME PRESSAVG GPRESSAVG
ENERGY: 0 2.4771 2.6426 3.0565 0.0000 -10710.5505 1429.4694 0.0000 0.0000 1750.0414 -7522.8635 297.5206 -9272.9049 -7522.8635 297.5206 -234.6105 -141.4437 30643.6138 -234.6105 -141.4437
ENERGY: 300000 3.9869 2.3916 3.4098 0.0000 -10749.2529 1471.7613 0.0000 0.0000 1774.2409 -7493.4623 301.6347 -9267.7033 -7537.2674 298.5683 192.8192 294.4865 30597.6854 74.7896 168.8930
ENERGY: 600000 4.7579 2.8806 1.9975 0.0000 -10703.4281 1374.2550 0.0000 0.0000 1736.8290 -7582.7081 295.2744 -9319.5371 -7544.3161 297.7341 -606.9705 -613.7111 30383.3324 -230.4010 -150.7989
ENERGY: 900000 1.4213 1.9731 2.3916 0.0000 -10783.2052 1467.2182 0.0000 0.0000 1800.9392 -7509.2619 306.1736 -9310.2011 -7551.3013 297.5348 224.1577 350.2078 29987.4585 16.6925 104.1508
ENERGY: 1200000 2.2965 1.8943 3.5332 0.0000 -10692.9893 1397.1028 0.0000 0.0000 1744.1515 -7544.0110 296.5192 -9288.1625 -7554.2784 297.2858 -213.9997 -168.6838 30333.2612 101.2383 179.7645
ENERGY: 1500000 1.1209 2.6053 2.4191 0.0000 -10694.9824 1391.7395 0.0000 0.0000 1820.0975 -7477.0001 309.4306 -9297.0975 -7545.8742 297.8615 -491.9629 -388.8532 30860.2582 57.4036 137.4970
TCL: Running FEP window   9: Lambda1 0.5999999999999996 Lambda2 0.5499999999999996 [dLambda -0.050000000000000044]
TCL: Setting parameter firsttimestep to 0
TCL: Setting parameter alchLambda to 0.5999999999999996
Info: NONBONDED TABLE R-SQUARED SPACING: 0.0625
Info: NONBONDED TABLE SIZE: 705 POINTS
TCL: Setting parameter alchLambda2 to 0.5499999999999996
Info: NONBONDED TABLE R-SQUARED SPACING: 0.0625
Info: NONBONDED TABLE SIZE: 705 POINTS
TCL: Running for 1500000 steps
ETITLE: TS BOND ANGLE DIHED IMPRP ELECT VDW BOUNDARY MISC KINETIC TOTAL TEMP POTENTIAL TOTALAVG TEMPAVG PRESSURE GPRESSURE VOLUME PRESSAVG GPRESSAVG
ENERGY: 0 1.1209 2.6053 2.4191 0.0000 -10693.6660 1391.8762 0.0000 0.0000 1819.2318 -7476.4127 309.2835 -9295.6445 -7476.4127 309.2835 -484.2126 -395.3669 30860.2582 -484.2126 -395.3669
ENERGY: 300000 2.6945 3.0946 4.7432 0.0000 -10692.0661 1402.9548 0.0000 0.0000 1736.5873 -7541.9917 295.2333 -9278.5790 -7509.8091 301.9235 -440.7649 -334.8541 30675.8496 -455.0394 -370.5386
ENERGY: 600000 1.5681 3.7076 4.7511 0.0000 -10700.7424 1395.7856 0.0000 0.0000 1840.8913 -7454.0388 312.9658 -9294.9301 -7498.6785 303.5640 -488.0272 -413.2769 30793.1797 -322.6573 -239.1906
ENERGY: 900000 2.1457 5.2238 2.7512 0.0000 -10792.9525 1455.2635 0.0000 0.0000 1729.9447 -7597.6237 294.1040 -9327.5684 -7514.7653 302.7071 115.0584 98.2002 30571.9028 -186.0226 -117.3781
ENERGY: 1200000 1.5497 1.6551 2.3670 0.0000 -10633.9177 1418.3691 0.0000 0.0000 1751.1567 -7458.8201 297.7102 -9209.9768 -7509.3645 301.7571 101.2976 90.6970 30368.6751 -256.9313 -194.5995
ENERGY: 1500000 2.8369 2.4878 4.6907 0.0000 -10862.3175 1535.5807 0.0000 0.0000 1784.0789 -7532.6425 303.3072 -9316.7214 -7507.4593 302.6861 564.9038 571.6831 30482.5356 -193.1855 -135.9009
TCL: Running FEP window  10: Lambda1 0.5499999999999996 Lambda2 0.4999999999999996 [dLambda -0.04999999999999999]
TCL: Setting parameter firsttimestep to 0
TCL: Setting parameter alchLambda to 0.5499999999999996
Info: NONBONDED TABLE R-SQUARED SPACING: 0.0625
Info: NONBONDED TABLE SIZE: 705 POINTS
TCL: Setting parameter alchLambda2 to 0.4999999999999996
Info: NONBONDED TABLE R-SQUARED SPACING: 0.0625
Info: NONBONDED TABLE SIZE: 705 POINTS
TCL: Running for 1500000 steps
ETITLE: TS BOND ANGLE DIHED IMPRP ELECT VDW BOUNDARY MISC KINETIC TOTAL TEMP POTENTIAL TOTALAVG TEMPAVG PRESSURE GPRESSURE VOLUME PRESSAVG GPRESSAVG
ENERGY: 0 2.8369 2.4878 4.6907 0.0000 -10862.5652 1535.8357 0.0000 0.0000 1783.2429 -7533.4712 303.1651 -9316.7141 -7533.4712 303.1651 494.4840 567.8943 30482.5356 494.4840 567.8943
ENERGY: 300000 5.0638 3.0213 4.2777 0.0000 -10707.5641 1460.0696 0.0000 0.0000 1722.0903 -7513.0415 292.7687 -9235.1318 -7560.7351 298.5679 -105.2803 -40.7468 30806.4811 360.8358 402.0570
ENERGY: 600000 1.4987 3.5054 4.0170 0.0000 -10724.4198 1399.2642 0.0000 0.0000 1779.5332 -7536.6014 302.5344 -9316.1345 -7543.2403 299.8217 -574.6013 -490.3705 30443.9702 158.6455 211.8162
ENERGY: 900000 1.5976 4.2756 2.2809 0.0000 -10887.1410 1547.4917 0.0000 0.0000 1773.8627 -7557.6324 301.5704 -9331.4951 -7554.0204 299.7565 964.5124 1018.3012 29964.9057 254.2361 306.3747
ENERGY: 1200000 4.3572 1.6355 1.8806 0.0000 -10754.6536 1408.6156 0.0000 0.0000 1777.0648 -7561.0999 302.1148 -9338.1647 -7549.0403 299.1163 -354.7008 -266.3419 30493.3310 189.7070 253.8851
ENERGY: 1500000 0.6305 2.0607 1.0765 0.0000 -10877.7380 1538.9008 0.0000 0.0000 1790.0562 -7545.0134 304.3234 -9335.0695 -7541.2262 299.5751 938.4569 965.5739 30016.7918 167.9526 230.0606
TCL: Running FEP window  11: Lambda1 0.4999999999999996 Lambda2 0.4499999999999996 [dLambda -0.04999999999999999]
TCL: Setting parameter firsttimestep to 0
TCL: Setting parameter alchLambda to 0.4999999999999996
Info: NONBONDED TABLE R-SQUARED SPACING: 0.0625
Info: NONBONDED TABLE SIZE: 705 POINTS
TCL: Setting parameter alchLambda2 to 0.4499999999999996
Info: NONBONDED TABLE R-SQUARED SPACING: 0.0625
Info: NONBONDED TABLE SIZE: 705 POINTS
TCL: Running for 1500000 steps
ETITLE: TS BOND ANGLE DIHED IMPRP ELECT VDW BOUNDARY MISC KINETIC TOTAL TEMP POTENTIAL TOTALAVG TEMPAVG PRESSURE GPRESSURE VOLUME PRESSAVG GPRESSAVG
ENERGY: 0 0.6305 2.0607 1.0765 0.0000 -10878.0012 1539.3327 0.0000 0.0000 1789.1565 -7545.7443 304.1704 -9334.9008 -7545.7443 304.1704 898.6934 964.4326 30016.7918 898.6934 964.4326
ENERGY: 300000 1.4587 3.4045 3.2158 0.0000 -10732.2604 1424.5373 0.0000 0.0000 1756.3313 -7543.3128 298.5899 -9299.6441 -7541.2934 299.7596 -271.1050 -155.5618 30464.7292 187.0022 282.5072
ENERGY: 600000 3.1029 1.9601 3.7147 0.0000 -10797.2539 1442.0459 0.0000 0.0000 1711.5184 -7634.9119 290.9714 -9346.4303 -7546.7285 298.3291 -231.8408 -80.3532 30265.0455 -9.9585 92.3156
ENERGY: 900000 3.0727 3.0046 2.2605 0.0000 -10763.7546 1522.0660 0.0000 0.0000 1728.5412 -7504.8096 293.8654 -9233.3508 -7551.2281 297.2680 615.7060 615.8454 30557.6378 61.5001 148.7007
ENERGY: 1200000 5.1428 2.6025 5.1368 0.0000 -10739.1541 1404.2019 0.0000 0.0000 1743.2119 -7578.8583 296.3595 -9322.0702 -7547.0217 297.4956 -842.3986 -672.5436 30672.1711 61.0768 146.7601
ENERGY: 1500000 1.2753 2.4973 3.8579 0.0000 -10639.7110 1422.5996 0.0000 0.0000 1782.7640 -7426.7168 303.0837 -9209.4808 -7538.5786 298.5289 -174.0830 -70.3632 30872.0564 67.6664 156.3107
TCL: Running FEP window  12: Lambda1 0.4499999999999996 Lambda2 0.39999999999999963 [dLambda -0.04999999999999999]
TCL: Setting parameter firsttimestep to 0
TCL: Setting parameter alchLambda to 0.4499999999999996
Info: NONBONDED TABLE R-SQUARED SPACING: 0.0625
Info: NONBONDED TABLE SIZE: 705 POINTS
TCL: Setting parameter alchLambda2 to 0.39999999999999963
Info: NONBONDED TABLE R-SQUARED SPACING: 0.0625
Info: NONBONDED TABLE SIZE: 705 POINTS
TCL: Running for 1500000 steps
ETITLE: TS BOND ANGLE DIHED IMPRP ELECT VDW BOUNDARY MISC KINETIC TOTAL TEMP POTENTIAL TOTALAVG TEMPAVG PRESSURE GPRESSURE VOLUME PRESSAVG GPRESSAVG
ENERGY: 0 1.2753 2.4973 3.8579 0.0000 -10639.7106 1422.9359 0.0000 0.0000 1781.9058 -7427.2384 302.9378 -9209.1442 -7427.2384 302.9378 -151.3993 -73.8353 30872.0564 -151.3993 -73.8353
ENERGY: 300000 3.9427 2.0276 0.9540 0.0000 -10760.0720 1474.5596 0.0000 0.0000 1782.9858 -7495.6023 303.1214 -9278.5882 -7469.8229 304.3677 153.8135 249.9917 30502.8906 85.8894 177.0803
ENERGY: 600000 1.6623 2.6978 2.2840 0.0000 -10872.1980 1514.5733 0.0000 0.0000 1703.6363 -7647.3444 289.6313 -9350.9807 -7502.0776 300.5835 342.0990 387.1988 30476.9066 89.9700 171.7566
ENERGY: 900000 4.0450 1.7145 5.3729 0.0000 -10750.1702 1402.4771 0.0000 0.0000 1759.7918 -7576.7688 299.1782 -9336.5606 -7521.5224 299.1236 -497.3464 -393.7169 30640.6638 83.7366 170.2558
ENERGY: 1200000 3.4106 4.2666 2.7894 0.0000 -10739.3171 1442.8132 0.0000 0.0000 1817.1491 -7468.8883 308.9294 -9286.0374 -7510.7115 300.0818 -48.9512 9.2638 30718.6786 125.6113 207.1491
ENERGY: 1500000 1.7323 4.0902 2.7631 0.0000 -10657.6832 1359.3904 0.0000 0.0000 1735.6192 -7554.0879 295.0687 -9289.7071 -7510.8176 299.8667 -871.6281 -785.0034 30452.0752 98.6159 172.0170
TCL: Running FEP window  13: Lambda1 0.39999999999999963 Lambda2 0.34999999999999964 [dLambda -0.04999999999999999]
TCL: Setting parameter firsttimestep to 0
TCL: Setting parameter alchLambda to 0.39999999999999963
Info: NONBONDED TABLE R-SQUARED SPACING: 0.0625
Info: NONBONDED TABLE SIZE: 705 POINTS
TCL: Setting parameter alchLambda2 to 0.34999999999999964
Info: NONBONDED TABLE R-SQUARED SPACING: 0.0625
Info: NONBONDED TABLE SIZE: 705 POINTS
TCL: Running for 1500000 steps
ETITLE: TS BOND ANGLE DIHED IMPRP ELECT VDW BOUNDARY MISC KINETIC TOTAL TEMP POTENTIAL TOTALAVG TEMPAVG PRESSURE GPRESSURE VOLUME PRESSAVG GPRESSAVG
ENERGY: 0 1.7323 4.0902 2.7631 0.0000 -10657.6837 1359.9745 0.0000 0.0000 1734.7208 -7554.4027 294.9159 -9289.1235 -7554.4027 294.9159 -874.1002 -786.1943 30452.0752 -874.1002 -786.1943
ENERGY: 300000 2.7145 2.7336 1.5946 0.0000 -10667.3261 1370.9072 0.0000 0.0000 1846.2215 -7443.1547 313.8719 -9289.3762 -7527.6130 297.9184 -556.2905 -515.8475 30624.2898 -356.9891 -273.5704
ENERGY: 600000 0.9940 3.8789 1.5426 0.0000 -10850.7477 1520.7377 0.0000 0.0000 1757.6847 -7565.9098 298.8200 -9323.5944 -7537.9907 297.9953 352.7196 413.3016 30514.1227 -119.7998 -56.0729
ENERGY: 900000 0.9169 3.0565 1.8202 0.0000 -10751.0371 1447.8388 0.0000 0.0000 1781.8122 -7515.5926 302.9219 -9297.4047 -7525.5889 299.4446 -124.4118 -16.9217 30789.2027 -37.3873 26.2970
ENERGY: 1200000 1.6490 1.6229 5.4033 0.0000 -10745.9679 1460.6382 0.0000 0.0000 1761.8987 -7514.7557 299.5364 -9276.6544 -7531.3771 298.4374 289.4871 320.2398 30194.4368 -23.3927 34.5058
ENERGY: 1500000 2.6286 3.3769 3.3872 0.0000 -10800.7220 1407.6742 0.0000 0.0000 1760.0238 -7623.6312 299.2177 -9383.6551 -7527.5542 299.9068 -907.2392 -809.1504 30988.2074 -114.6597 -48.9414
TCL: Running FEP window  14: Lambda1 0.34999999999999964 Lambda2 0.29999999999999966 [dLambda -0.04999999999999999]
TCL: Setting parameter firsttimestep to 0
TCL: Setting parameter alchLambda to 0.34999999999999964
Info: NONBONDED TABLE R-SQUARED SPACING: 0.0625
Info: NONBONDED TABLE SIZE: 705 POINTS
TCL: Setting parameter alchLambda2 to 0.29999999999999966
Info: NONBONDED TABLE R-SQUARED SPACING: 0.0625
Info: NONBONDED TABLE SIZE: 705 POINTS
TCL: Running for 1500000 steps
ETITLE: TS BOND ANGLE DIHED IMPRP ELECT VDW BOUNDARY MISC KINETIC TOTAL TEMP POTENTIAL TOTALAVG TEMPAVG PRESSURE GPRESSURE VOLUME PRESSAVG GPRESSAVG
ENERGY: 0 2.6286 3.3769 3.3872 0.0000 -10800.7219 1407.8227 0.0000 0.0000 1759.1334 -7624.3731 299.0663 -9383.5065 -7624.3731 299.0663 -876.4624 -810.5096 30988.2074 -876.4624 -810.5096
ENERGY: 300000 2.8464 6.0714 2.6318 0.0000 -10731.8062 1426.7646 0.0000 0.0000 1788.5314 -7504.9607 304.0642 -9293.4920 -7508.3917 305.5431 -380.2002 -304.0538 30730.6722 -671.8069 -613.0345
ENERGY: 600000 0.9643 2.1010 3.1044 0.0000 -10808.1947 1475.7805 0.0000 0.0000 1756.4710 -7569.7734 298.6137 -9326.2444 -7521.7226 304.0158 276.0594 357.5269 30372.9374 -439.5637 -378.4666
ENERGY: 900000 0.9120 2.3938 2.4295 0.0000 -10848.7890 1495.3819 0.0000 0.0000 1782.2085 -7565.4633 302.9892 -9347.6718 -7525.1338 303.0383 -162.7817 -109.4778 30941.5740 -392.5920 -327.4305
ENERGY: 1200000 0.8474 2.3353 5.5246 0.0000 -10702.7421 1391.2894 0.0000 0.0000 1740.8811 -7561.8643 295.9632 -9302.7454 -7528.0684 301.7545 -457.5909 -443.8843 30222.3093 -400.3736 -332.0192
ENERGY: 1500000 3.8788 4.5801 3.9894 0.0000 -10703.7333 1428.6433 0.0000 0.0000 1780.6127 -7482.0290 302.7179 -9262.6417 -7519.8974 301.7723 -70.4485 -16.5349 30349.2554 -339.1955 -270.2978
TCL: Running FEP window  15: Lambda1 0.29999999999999966 Lambda2 0.24999999999999967 [dLambda -0.04999999999999999]
TCL: Setting parameter firsttimestep to 0
TCL: Setting parameter alchLambda to 0.29999999999999966
Info: NONBONDED TABLE R-SQUARED SPACING: 0.0625
Info: NONBONDED TABLE SIZE: 705 POINTS
TCL: Setting parameter alchLambda2 to 0.24999999999999967
Info: NONBONDED TABLE R-SQUARED SPACING: 0.0625
Info: NONBONDED TABLE SIZE: 705 POINTS
TCL: Running for 1500000 steps
ETITLE: TS BOND ANGLE DIHED IMPRP ELECT VDW BOUNDARY MISC KINETIC TOTAL TEMP POTENTIAL TOTALAVG TEMPAVG PRESSURE GPRESSURE VOLUME PRESSAVG GPRESSAVG
ENERGY: 0 3.8788 4.5801 3.9894 0.0000 -10703.7333 1428.5161 0.0000 0.0000 1779.7276 -7483.0413 302.5675 -9262.7689 -7483.0413 302.5675 -111.3457 -23.3491 30349.2554 -111.3457 -23.3491
ENERGY: 300000 2.4834 5.7838 3.0672 0.0000 -10660.8481 1413.4326 0.0000 0.0000 1763.8110 -7472.2700 299.8615 -9236.0810 -7517.8957 297.3567 94.1895 139.6858 30279.3300 -100.0426 -36.1965
ENERGY: 600000 1.6763 4.9531 2.1141 0.0000 -10737.7359 1462.5374 0.0000 0.0000 1726.7999 -7539.6551 293.5693 -9266.4550 -7523.5917 297.0777 215.2383 314.9475 30333.3725 -18.3869 47.4400
ENERGY: 900000 2.7818 3.9660 4.1054 0.0000 -10728.6410 1412.7600 0.0000 0.0000 1777.4939 -7527.5338 302.1877 -9305.0277 -7529.5127 297.5561 -528.9119 -471.0843 30502.1680 -46.7597 7.5426
ENERGY: 1200000 2.3142 2.9977 3.7479 0.0000 -10618.1524 1368.8915 0.0000 0.0000 1778.5993 -7461.6018 302.3756 -9240.2011 -7528.0145 298.3441 -609.4452 -503.6707 30715.5602 -33.2874 20.6382
ENERGY: 1500000 1.6992 2.0228 7.4738 0.0000 -10832.7039 1537.3020 0.0000 0.0000 1758.3149 -7525.8911 298.9271 -9284.2060 -7534.9464 297.9447 912.2499 949.9621 30086.1997 33.2077 85.5260
TCL: Running FEP window  16: Lambda1 0.24999999999999967 Lambda2 0.19999999999999968 [dLambda -0.04999999999999999]
TCL: Setting parameter firsttimestep to 0
TCL: Setting parameter alchLambda to 0.24999999999999967
Info: NONBONDED TABLE R-SQUARED SPACING: 0.0625
Info: NONBONDED TABLE SIZE: 705 POINTS
TCL: Setting parameter alchLambda2 to 0.19999999999999968
Info: NONBONDED TABLE R-SQUARED SPACING: 0.0625
Info: NONBONDED TABLE SIZE: 705 POINTS
TCL: Running for 1500000 steps
ETITLE: TS BOND ANGLE DIHED IMPRP ELECT VDW BOUNDARY MISC KINETIC TOTAL TEMP POTENTIAL TOTALAVG TEMPAVG PRESSURE GPRESSURE VOLUME PRESSAVG GPRESSAVG
ENERGY: 0 1.6992 2.0228 7.4738 0.0000 -10832.7037 1536.6302 0.0000 0.0000 1757.3979 -7527.4797 298.7712 -9284.8777 -7527.4797 298.7712 865.6383 939.2325 30086.1997 865.6383 939.2325
ENERGY: 300000 3.6595 4.3309 3.3323 0.0000 -10790.3577 1434.5927 0.0000 0.0000 1739.0720 -7605.3703 295.6557 -9344.4423 -7509.1683 301.8186 -409.8797 -356.4868 30510.5375 64.0183 135.0880
ENERGY: 600000 2.5250 1.4274 3.9024 0.0000 -10809.3369 1522.2196 0.0000 0.0000 1747.8122 -7531.4503 297.1416 -9279.2625 -7513.2583 299.2617 971.9666 1006.2409 29729.8835 176.4889 233.6231
ENERGY: 900000 2.9778 2.2205 1.9966 0.0000 -10819.1380 1511.5089 0.0000 0.0000 1683.3688 -7617.0655 286.1857 -9300.4342 -7520.2816 299.2206 492.6350 549.3893 30195.7563 75.4679 131.7572
ENERGY: 1200000 3.9358 2.6669 3.1250 0.0000 -10702.1941 1471.1618 0.0000 0.0000 1738.9206 -7482.3840 295.6300 -9221.3046 -7523.9272 298.8223 255.7239 333.1150 30552.9490 -5.5317 49.0199
ENERGY: 1500000 3.5747 3.7700 1.0405 0.0000 -10747.9561 1448.0105 0.0000 0.0000 1792.3923 -7499.1682 304.7205 -9291.5604 -7513.1502 300.5650 -76.6553 26.9977 30564.2601 9.5485 69.1280
TCL: Running FEP window  17: Lambda1 0.19999999999999968 Lambda2 0.1499999999999997 [dLambda -0.04999999999999999]
TCL: Setting parameter firsttimestep to 0
TCL: Setting parameter alchLambda to 0.19999999999999968
Info: NONBONDED TABLE R-SQUARED SPACING: 0.0625
Info: NONBONDED TABLE SIZE: 705 POINTS
TCL: Setting parameter alchLambda2 to 0.1499999999999997
Info: NONBONDED TABLE R-SQUARED SPACING: 0.0625
Info: NONBONDED TABLE SIZE: 705 POINTS
TCL: Running for 1500000 steps
ETITLE: TS BOND ANGLE DIHED IMPRP ELECT VDW BOUNDARY MISC KINETIC TOTAL TEMP POTENTIAL TOTALAVG TEMPAVG PRESSURE GPRESSURE VOLUME PRESSAVG GPRESSAVG
ENERGY: 0 3.5747 3.7700 1.0405 0.0000 -10747.9565 1448.1091 0.0000 0.0000 1791.4732 -7499.9889 304.5643 -9291.4621 -7499.9889 304.5643 -58.4571 23.9616 30564.2601 -58.4571 23.9616
ENERGY: 300000 2.2346 1.0373 2.9348 0.0000 -10754.1206 1467.3055 0.0000 0.0000 1814.1680 -7466.4404 308.4226 -9280.6084 -7522.1752 301.3997 345.9838 415.6887 30160.2465 -66.6303 6.7954
ENERGY: 600000 2.2832 3.2711 1.8286 0.0000 -10863.4059 1522.0803 0.0000 0.0000 1764.9656 -7568.9770 300.0578 -9333.9426 -7541.7730 300.0384 667.6543 693.4440 29967.7529 42.9845 108.9631
ENERGY: 900000 3.8848 2.3086 2.6161 0.0000 -10642.6152 1355.4288 0.0000 0.0000 1789.0089 -7489.3681 304.1454 -9278.3770 -7535.5457 299.6417 -475.7518 -424.7211 30693.5100 3.3868 71.7064
ENERGY: 1200000 0.6021 2.4687 2.1860 0.0000 -10874.8899 1492.0795 0.0000 0.0000 1803.5778 -7573.9758 306.6222 -9377.5536 -7528.1378 301.1154 86.8267 146.2422 30257.3038 99.1108 170.4273
ENERGY: 1500000 2.6676 1.9625 7.7373 0.0000 -10758.8178 1436.6256 0.0000 0.0000 1755.2020 -7554.6227 298.3979 -9309.8247 -7529.3150 300.6517 -395.9339 -357.1438 30829.3839 36.2938 105.0657
TCL: Running FEP window  18: Lambda1 0.1499999999999997 Lambda2 0.09999999999999969 [dLambda -0.05 ]
TCL: Setting parameter firsttimestep to 0
TCL: Setting parameter alchLambda to 0.1499999999999997
Info: NONBONDED TABLE R-SQUARED SPACING: 0.0625
Info: NONBONDED TABLE SIZE: 705 POINTS
TCL: Setting parameter alchLambda2 to 0.09999999999999969
Info: NONBONDED TABLE R-SQUARED SPACING: 0.0625
Info: NONBONDED TABLE SIZE: 705 POINTS
TCL: Running for 1500000 steps
ETITLE: TS BOND ANGLE DIHED IMPRP ELECT VDW BOUNDARY MISC KINETIC TOTAL TEMP POTENTIAL TOTALAVG TEMPAVG PRESSURE GPRESSURE VOLUME PRESSAVG GPRESSAVG
ENERGY: 0 2.6676 1.9625 7.7373 0.0000 -10758.8159 1436.1555 0.0000 0.0000 1754.3651 -7555.9278 298.2556 -9310.2929 -7555.9278 298.2556 -458.4888 -361.5361 30829.3839 -458.4888 -361.5361
ENERGY: 300000 2.1811 2.5808 2.6106 0.0000 -10772.7459 1437.9125 0.0000 0.0000 1714.8924 -7612.5685 291.5450 -9327.4609 -7543.8862 295.8463 -255.2124 -175.4066 30382.7515 -288.4741 -203.9702
ENERGY: 600000 0.8290 2.1265 2.6176 0.0000 -10660.9877 1427.0692 0.0000 0.0000 1794.6416 -7433.7038 305.1030 -9228.3455 -7524.7897 298.5556 32.5037 80.5385 30521.5409 -267.3915 -191.2091
ENERGY: 900000 0.9616 1.6566 3.0285 0.0000 -10710.7737 1426.6329 0.0000 0.0000 1765.3549 -7513.1390 300.1240 -9278.4940 -7524.1935 298.7508 26.6707 44.4635 30267.5406 -288.1815 -222.4669
ENERGY: 1200000 0.2626 4.1296 2.6828 0.0000 -10701.7452 1385.0206 0.0000 0.0000 1809.2455 -7500.4041 307.5857 -9309.6496 -7512.7132 299.6189 -506.9804 -416.5802 30627.3273 -283.3026 -215.9526
ENERGY: 1500000 1.9775 3.6062 3.7309 0.0000 -10793.7022 1459.0694 0.0000 0.0000 1739.6456 -7585.6725 295.7532 -9325.3182 -7521.3071 298.8061 77.0236 117.6588 29849.1909 -266.6728 -201.4869
TCL: Running FEP window  19: Lambda1 0.09999999999999969 Lambda2 0.049999999999999684 [dLambda -0.05 ]
TCL: Setting parameter firsttimestep to 0
TCL: Setting parameter alchLambda to 0.09999999999999969
Info: NONBONDED TABLE R-SQUARED SPACING: 0.0625
Info: NONBONDED TABLE SIZE: 705 POINTS
TCL: Setting parameter alchLambda2 to 0.049999999999999684
Info: NONBONDED TABLE R-SQUARED SPACING: 0.0625
Info: NONBONDED TABLE SIZE: 705 POINTS
TCL: Running for 1500000 steps
ETITLE: TS BOND ANGLE DIHED IMPRP ELECT VDW BOUNDARY MISC KINETIC TOTAL TEMP POTENTIAL TOTALAVG TEMPAVG PRESSURE GPRESSURE VOLUME PRESSAVG GPRESSAVG
ENERGY: 0 1.9775 3.6062 3.7309 0.0000 -10793.7019 1459.4301 0.0000 0.0000 1738.7634 -7586.1939 295.6032 -9324.9573 -7586.1939 295.6032 30.3704 117.7699 29849.1909 30.3704 117.7699
ENERGY: 300000 1.4661 7.2500 3.2598 0.0000 -10797.1297 1465.5794 0.0000 0.0000 1781.7310 -7537.8433 302.9080 -9319.5743 -7533.0373 298.8036 -54.9697 -28.6066 30508.9947 -38.1382 29.5661
ENERGY: 600000 2.6980 2.3233 4.8341 0.0000 -10761.2872 1431.3902 0.0000 0.0000 1841.2662 -7478.7753 313.0295 -9320.0415 -7537.5444 301.4330 -65.1667 -11.4317 30179.4404 33.0473 105.0862
ENERGY: 900000 1.1609 1.3215 1.9145 0.0000 -10748.1382 1447.0830 0.0000 0.0000 1794.3408 -7502.3175 305.0518 -9296.6583 -7543.4380 300.6542 73.7165 100.7111 30245.0572 62.5739 118.9201
ENERGY: 1200000 1.9591 5.6603 3.2741 0.0000 -10813.1983 1528.1221 0.0000 0.0000 1751.0574 -7523.1252 297.6933 -9274.1827 -7544.9302 300.2301 533.5999 596.5057 30491.1843 146.9157 201.8414
ENERGY: 1500000 2.8345 5.6060 1.4105 0.0000 -10785.5171 1405.1068 0.0000 0.0000 1692.3652 -7678.1941 287.7152 -9370.5593 -7546.2341 299.7908 -457.4151 -420.1648 29850.3289 38.1654 89.4207
TCL: Running FEP window  20: Lambda1 0.049999999999999684 Lambda2 0.0    [dLambda -0.049999999999999684]
TCL: Setting parameter firsttimestep to 0
TCL: Setting parameter alchLambda to 0.049999999999999684
Info: NONBONDED TABLE R-SQUARED SPACING: 0.0625
Info: NONBONDED TABLE SIZE: 705 POINTS
TCL: Setting parameter alchLambda2 to 0.0
Info: NONBONDED TABLE R-SQUARED SPACING: 0.0625
Info: NONBONDED TABLE SIZE: 705 POINTS
TCL: Running for 1500000 steps
ETITLE: TS BOND ANGLE DIHED IMPRP ELECT VDW BOUNDARY MISC KINETIC TOTAL TEMP POTENTIAL TOTALAVG TEMPAVG PRESSURE GPRESSURE VOLUME PRESSAVG GPRESSAVG
ENERGY: 0 2.8345 5.6060 1.4105 0.0000 -10785.5163 1404.1388 0.0000 0.0000 1691.4849 -7680.0416 287.5655 -9371.5264 -7680.0416 287.5655 -514.2041 -429.0905 29850.3289 -514.2041 -429.0905
ENERGY: 300000 2.7521 3.1177 2.7887 0.0000 -10799.3227 1466.6341 0.0000 0.0000 1753.7493 -7570.2808 298.1510 -9324.0301 -7551.5847 297.9270 -12.8393 -9.1780 30343.4464 20.5009 84.8662
ENERGY: 600000 2.0844 4.4726 4.9414 0.0000 -10553.2946 1366.5643 0.0000 0.0000 1739.8352 -7435.3967 295.7854 -9175.2319 -7540.4143 298.3306 -214.6617 -112.4803 30018.9919 62.4968 139.1494
ENERGY: 900000 3.1253 2.9640 2.0194 0.0000 -10723.4823 1441.9257 0.0000 0.0000 1712.7140 -7560.7338 291.1746 -9273.4479 -7536.7879 298.8670 -209.4194 -130.3013 30200.0252 116.2020 192.1358
ENERGY: 1200000 3.8377 4.2792 1.8967 0.0000 -10604.9813 1370.5458 0.0000 0.0000 1779.6653 -7444.7566 302.5569 -9224.4219 -7533.5154 299.0109 -448.5553 -390.9987 30537.7276 -11.2349 62.3212
ENERGY: 1500000 2.3148 2.4969 4.7368 0.0000 -10697.4746 1422.7323 0.0000 0.0000 1801.0040 -7464.1898 306.1846 -9265.1938 -7518.5005 299.8012 -112.9617 -22.5274 30383.2933 -73.5074 -6.0990
TCL: Exiting due to exit command.
