Info: SIMULATION PARAMETERS:
Info: TIMESTEP               2
Info: NUMBER OF STEPS        0
Info: STEPS PER CYCLE        10
Info: PERIODIC CELL BASIS 1  33.1137 0 0
Info: PERIODIC CELL BASIS 2  0 29.7138 0
Info: PERIODIC CELL BASIS 3  0 0 30.7219
Info: PERIODIC CELL CENTER   0 0 0
Info: WRAPPING WATERS AROUND PERIODIC BOUNDARIES ON OUTPUT.
Info: WRAPPING ALL CLUSTERS AROUND PERIODIC BOUNDARIES ON OUTPUT.
Info: FIRST LDB TIMESTEP     50
Info: LAST LDB TIMESTEP     -1
Info: HOM BACKGROUND SCALING 1
Info: PME BACKGROUND SCALING 1
Info: MIN ATOMS PER PATCH    40
Info: EMPTY PATCH LOAD       40 ATOMS
Info: VELOCITY FILE          mobley_4983965_equil.vel
Info: CENTER OF MASS MOVING INITIALLY? NO
Info: DIELECTRIC             1
Info: EXCLUDE                SCALED ONE-FOUR
Info: 1-4 ELECTROSTATICS SCALED BY 0.833333
Info: MODIFIED 1-4 VDW PARAMETERS WILL BE USED
Info: DCD FILENAME           mobley_4983965_prod.dcd
Info: DCD FREQUENCY          100000
Info: DCD FIRST STEP         100000
Info: DCD FILE WILL CONTAIN UNIT CELL DATA
Info: XST FILENAME           mobley_4983965_prod.xst
Info: XST FREQUENCY          100000
Info: NO VELOCITY DCD OUTPUT
Info: NO FORCE DCD OUTPUT
Info: OUTPUT FILENAME        mobley_4983965_prod
Info: BINARY OUTPUT FILES WILL BE USED
Info: RESTART FILENAME       mobley_4983965_prod.restart
Info: RESTART FREQUENCY      100000
Info: BINARY RESTART FILES WILL BE USED
Info: CUTOFF                 9
Info: PAIRLIST DISTANCE      11
Info: PAIRLIST SHRINK RATE   0.01
Info: PAIRLIST GROW RATE     0.01
Info: PAIRLIST TRIGGER       0.3
Info: PAIRLISTS PER CYCLE    2
Info: PAIRLISTS ENABLED
Info: MARGIN                 2
Info: HYDROGEN GROUP CUTOFF  2.5
Info: PATCH DIMENSION        15.5
Info: ENERGY OUTPUT STEPS    100000
Info: ENERGY EVALUATION STEPS    100000
Info: OUTPUT ENERGY PRECISION 4
Info: CROSSTERM ENERGY INCLUDED IN DIHEDRAL
Info: TIMING OUTPUT STEPS    1000000
Info: PRESSURE OUTPUT STEPS  100000
Info: ALCHEMICAL FEP ON
Info: FEP CURRENT LAMBDA VALUE     0
Info: FEP COMPARISON LAMBDA VALUE  0.05
Info: FEP INTRA-ALCHEMICAL NON-BONDED INTERACTIONS WILL BE RETAINED
Info: FEP INTRA-ALCHEMICAL BONDED INTERACTIONS WILL BE RETAINED
Info: FEP VDW SHIFTING COEFFICIENT 5
Info: FEP ELEC. ACTIVE FOR ANNIHILATED PARTICLES BETWEEN LAMBDA = 0 AND LAMBDA = 0.5
Info: FEP ELEC. ACTIVE FOR EXNIHILATED PARTICLES BETWEEN LAMBDA = 0.5 AND LAMBDA = 1
Info: FEP VDW ACTIVE FOR ANNIHILATED PARTICLES BETWEEN LAMBDA = 0 AND LAMBDA = 1
Info: FEP VDW ACTIVE FOR EXNIHILATED PARTICLES BETWEEN LAMBDA = 0 AND LAMBDA = 1
Info: FEP BOND ACTIVE FOR ANNIHILATED PARTICLES BETWEEN LAMBDA = 1 AND LAMBDA = 1
Info: FEP BOND ACTIVE FOR EXNIHILATED PARTICLES BETWEEN LAMBDA = 0 AND LAMBDA = 0
Info: LANGEVIN DYNAMICS ACTIVE
Info: LANGEVIN TEMPERATURE   300
Info: LANGEVIN USING BBK INTEGRATOR
Info: LANGEVIN DAMPING COEFFICIENT IS 1 INVERSE PS
Info: LANGEVIN DYNAMICS APPLIED TO HYDROGENS
Info: LANGEVIN PISTON PRESSURE CONTROL ACTIVE
Info:        TARGET PRESSURE IS 1.01325 BAR
Info:     OSCILLATION PERIOD IS 50 FS
Info:             DECAY TIME IS 25 FS
Info:     PISTON TEMPERATURE IS 300 K
Info:       PRESSURE CONTROL IS GROUP-BASED
Info:    INITIAL STRAIN RATE IS -5.63644e-05 -5.63644e-05 -5.63644e-05
Info:       CELL FLUCTUATION IS ISOTROPIC
Info: PARTICLE MESH EWALD (PME) ACTIVE
Info: PME TOLERANCE               1e-06
Info: PME EWALD COEFFICIENT       0.348832
Info: PME INTERPOLATION ORDER     4
Info: PME GRID DIMENSIONS         36 32 32
Info: PME MAXIMUM GRID SPACING    1
Info: PME CALCULATION WILL BE PERFORMED ON GPU
Info: FULL ELECTROSTATIC EVALUATION FREQUENCY      2
Info: USING VERLET I (r-RESPA) MTS SCHEME.
Info: C1 SPLITTING OF LONG RANGE ELECTROSTATICS
Info: PLACING ATOMS IN PATCHES BY HYDROGEN GROUPS
Info: RIGID BONDS TO HYDROGEN : ALL
Info:         ERROR TOLERANCE : 1e-08
Info:          MAX ITERATIONS : 100
Info: RIGID WATER USING SETTLE ALGORITHM
Info: RANDOM NUMBER SEED     1743840460
Info: USE HYDROGEN BONDS?    NO
Info: Using AMBER format force field!
Info: AMBER PARM FILE        mobley_4983965.prmtop
Info: COORDINATE PDB         mobley_4983965.pdb
Info: Exclusions will be read from PARM file!
Info: SCNB (VDW SCALING)     2
Info: USING ARITHMETIC MEAN TO COMBINE L-J SIGMA PARAMETERS
Info: BINARY COORDINATES     mobley_4983965_equil.coor
Info: SUMMARY OF PARAMETERS:
Info: 6 BONDS
Info: 7 ANGLES
Info:   7 HARMONIC
Info:   0 COSINE-BASED
Info: 2 DIHEDRAL
Info: 0 IMPROPER
Info: 0 CROSSTERM
Info: 0 VDW
Info: 21 VDW_PAIRS
Info: 0 NBTHOLE_PAIRS
Info: To read alchdata from file: mobley_4983965.pdb
Info: To read alchflag data from column: 5
Info: STRUCTURE SUMMARY:
Info: 2940 ATOMS
Info: 2939 BONDS
Info: 25 ANGLES
Info: 24 DIHEDRALS
Info: 0 IMPROPERS
Info: 0 CROSSTERMS
Info: 2988 EXCLUSIONS
Info: 2935 RIGID BONDS
Info: ALCH: 0 ATOMS TO DISAPPEAR IN FINAL STATE
Info: ALCH: 15 ATOMS TO APPEAR IN FINAL STATE
Info: 5885 DEGREES OF FREEDOM
Info: 980 HYDROGEN GROUPS
Info: 4 ATOMS IN LARGEST HYDROGEN GROUP
Info: 980 MIGRATION GROUPS
Info: 4 ATOMS IN LARGEST MIGRATION GROUP
Info: TOTAL MASS = 17655.8 amu
Info: TOTAL CHARGE = -2.8871e-08 e
Info: MASS DENSITY = 0.969914 g/cm^3
Info: ATOM DENSITY = 0.09726 atoms/A^3
Info: ADDED 0 IMPLICIT EXCLUSIONS
Info: NONBONDED TABLE R-SQUARED SPACING: 0.0625
Info: NONBONDED TABLE SIZE: 705 POINTS
Info: REMOVING COM VELOCITY -0.196917 -0.0298075 0.184874
Info: Use 3D box decompostion in PME FFT.
Info: Updated CUDA force table with 4096 elements.
Info: Updated CUDA LJ table with 6 x 6 elements.
Info: Found 16 unique exclusion lists needing 32 bytes
TCL: Running for 1500000 steps
ETITLE: TS BOND ANGLE DIHED IMPRP ELECT VDW BOUNDARY MISC KINETIC TOTAL TEMP POTENTIAL TOTALAVG TEMPAVG PRESSURE GPRESSURE VOLUME PRESSAVG GPRESSAVG
ENERGY: 0 1.7824 7.8754 3.6468 0.0000 -10646.8280 1391.0709 0.0000 0.0000 1769.1747 -7473.2778 302.5622 -9242.4526 -7473.2778 302.5622 -378.3513 -286.7461 30228.2551 -378.3513 -286.7461
ENERGY: 300000 1.2766 5.6696 2.7274 0.0000 -10712.8513 1473.0080 0.0000 0.0000 1732.8928 -7497.2769 296.3573 -9230.1697 -7471.9970 299.0161 242.3258 330.2773 29966.7659 -88.7612 -10.3046
ENERGY: 600000 0.7945 6.1881 0.7043 0.0000 -10577.0308 1395.3493 0.0000 0.0000 1753.6010 -7420.3936 299.8988 -9173.9946 -7438.5330 301.4613 -115.3975 11.7152 29995.0935 -49.8706 34.1180
ENERGY: 900000 2.5963 5.4865 0.4980 0.0000 -10804.6877 1559.1702 0.0000 0.0000 1784.8351 -7452.1016 305.2404 -9236.9368 -7451.6872 301.2006 1201.6342 1225.5077 29722.8451 39.9531 121.0503
ENERGY: 1200000 0.2117 5.4458 0.9589 0.0000 -10641.0567 1419.1590 0.0000 0.0000 1756.5109 -7458.7703 300.3964 -9215.2812 -7456.8081 300.2463 -252.2027 -199.1544 30426.1112 70.6528 148.0079
ENERGY: 1500000 1.5625 7.8417 0.8186 0.0000 -10663.7035 1429.8633 0.0000 0.0000 1739.2732 -7484.3443 297.4485 -9223.6175 -7460.4606 300.0619 -78.6301 14.2536 30047.4215 44.5482 123.3490
TCL: Running FEP window   2: Lambda1 0.05   Lambda2 0.1    [dLambda 0.05  ]
TCL: Setting parameter firsttimestep to 0
TCL: Setting parameter alchLambda to 0.05
Info: NONBONDED TABLE R-SQUARED SPACING: 0.0625
Info: NONBONDED TABLE SIZE: 705 POINTS
TCL: Setting parameter alchLambda2 to 0.1
Info: NONBONDED TABLE R-SQUARED SPACING: 0.0625
Info: NONBONDED TABLE SIZE: 705 POINTS
TCL: Running for 1500000 steps
ETITLE: TS BOND ANGLE DIHED IMPRP ELECT VDW BOUNDARY MISC KINETIC TOTAL TEMP POTENTIAL TOTALAVG TEMPAVG PRESSURE GPRESSURE VOLUME PRESSAVG GPRESSAVG
ENERGY: 0 1.5624 7.8417 0.8186 0.0000 -10663.7038 1430.7132 0.0000 0.0000 1738.4064 -7484.3615 297.3002 -9222.7679 -7484.3615 297.3002 -59.1316 17.3417 30047.4215 -59.1316 17.3417
ENERGY: 300000 0.5898 7.6600 0.4509 0.0000 -10584.1070 1402.5773 0.0000 0.0000 1731.5300 -7441.2989 296.1242 -9172.8290 -7500.7276 296.0149 -60.5717 -5.2065 30037.5594 -209.2763 -151.4314
ENERGY: 600000 0.9034 7.3464 2.7768 0.0000 -10624.8866 1413.2899 0.0000 0.0000 1814.6125 -7385.9577 310.3329 -9200.5702 -7479.3979 298.9358 1.8664 44.5783 29851.0538 -18.6027 45.9198
ENERGY: 900000 0.5690 8.0312 0.9016 0.0000 -10654.7827 1397.3923 0.0000 0.0000 1728.1508 -7519.7379 295.5463 -9247.8886 -7470.5858 299.0946 -282.4750 -246.2344 29794.8150 -98.2496 -35.1812
ENERGY: 1200000 0.6508 4.4120 0.4534 0.0000 -10570.1618 1321.0250 0.0000 0.0000 1809.7720 -7433.8486 309.5051 -9243.6206 -7451.7305 300.3782 -906.8871 -850.0966 30195.7858 -112.6668 -51.1291
ENERGY: 1500000 1.0598 6.8540 0.9490 0.0000 -10755.2835 1526.3872 0.0000 0.0000 1772.0034 -7448.0302 303.0459 -9220.0336 -7458.5539 300.6509 580.9220 674.2152 30154.8315 -45.9987 17.7082
TCL: Running FEP window   3: Lambda1 0.1    Lambda2 0.15000000000000002 [dLambda 0.05000000000000002]
TCL: Setting parameter firsttimestep to 0
TCL: Setting parameter alchLambda to 0.1
Info: NONBONDED TABLE R-SQUARED SPACING: 0.0625
Info: NONBONDED TABLE SIZE: 705 POINTS
TCL: Setting parameter alchLambda2 to 0.15000000000000002
Info: NONBONDED TABLE R-SQUARED SPACING: 0.0625
Info: NONBONDED TABLE SIZE: 705 POINTS
TCL: Running for 1500000 steps
ETITLE: TS BOND ANGLE DIHED IMPRP ELECT VDW BOUNDARY MISC KINETIC TOTAL TEMP POTENTIAL TOTALAVG TEMPAVG PRESSURE GPRESSURE VOLUME PRESSAVG GPRESSAVG
ENERGY: 0 1.0598 6.8540 0.9490 0.0000 -10755.2828 1532.0368 0.0000 0.0000 1771.1143 -7443.2690 302.8939 -9214.3833 -7443.2690 302.8939 595.6825 681.2386 30154.8315 595.6825 681.2386
ENERGY: 300000 0.1335 4.5986 0.9702 0.0000 -10784.7007 1514.3263 0.0000 0.0000 1726.7985 -7537.8737 295.3150 -9264.6722 -7514.2918 297.7708 343.7038 422.7900 30173.4253 137.0420 225.4675
ENERGY: 600000 1.0265 6.4582 3.2519 0.0000 -10606.1461 1428.7634 0.0000 0.0000 1741.0885 -7425.5575 297.7589 -9166.6460 -7489.1535 300.2706 -147.2239 -94.0878 30472.7724 110.0963 176.8580
ENERGY: 900000 0.7243 5.3915 0.8577 0.0000 -10616.0130 1396.4583 0.0000 0.0000 1764.7846 -7447.7966 301.8114 -9212.5812 -7479.4320 299.7234 -498.8526 -468.4864 30699.2194 -87.6199 -20.5345
ENERGY: 1200000 0.5399 6.8484 2.2920 0.0000 -10527.4419 1423.1356 0.0000 0.0000 1755.3721 -7339.2538 300.2017 -9094.6260 -7460.1307 299.1301 30.1005 78.2570 30453.9857 -50.5602 18.2051
ENERGY: 1500000 0.7340 5.7302 2.6019 0.0000 -10762.8270 1527.2406 0.0000 0.0000 1748.1929 -7478.3273 298.9739 -9226.5202 -7456.3798 299.9889 504.8381 554.6707 30321.5702 -1.6569 61.9345
TCL: Running FEP window   4: Lambda1 0.15000000000000002 Lambda2 0.2    [dLambda 0.04999999999999999]
TCL: Setting parameter firsttimestep to 0
TCL: Setting parameter alchLambda to 0.15000000000000002
Info: NONBONDED TABLE R-SQUARED SPACING: 0.0625
Info: NONBONDED TABLE SIZE: 705 POINTS
TCL: Setting parameter alchLambda2 to 0.2
Info: NONBONDED TABLE R-SQUARED SPACING: 0.0625
Info: NONBONDED TABLE SIZE: 705 POINTS
TCL: Running for 1500000 steps
ETITLE: TS BOND ANGLE DIHED IMPRP ELECT VDW BOUNDARY MISC KINETIC TOTAL TEMP POTENTIAL TOTALAVG TEMPAVG PRESSURE GPRESSURE VOLUME PRESSAVG GPRESSAVG
ENERGY: 0 0.7340 5.7302 2.6019 0.0000 -10762.8266 1527.4992 0.0000 0.0000 1747.3277 -7478.9334 298.8259 -9226.2612 -7478.9334 298.8259 467.1631 558.0475 30321.5702 467.1631 558.0475
ENERGY: 300000 0.7560 6.3286 0.1689 0.0000 -10655.6797 1435.1689 0.0000 0.0000 1778.3312 -7434.9261 304.1281 -9213.2574 -7475.5730 297.9959 -223.7544 -123.5273 30445.8963 29.7125 111.0134
ENERGY: 600000 1.7932 4.6710 2.7452 0.0000 -10639.4670 1435.4616 0.0000 0.0000 1669.6059 -7525.1901 285.5340 -9194.7960 -7471.5367 296.7465 84.2649 109.9011 29977.6843 34.6904 93.5075
ENERGY: 900000 1.0998 7.0645 2.8569 0.0000 -10603.5338 1384.3813 0.0000 0.0000 1779.0244 -7429.1068 304.2467 -9208.1312 -7452.0596 297.9045 -611.2563 -527.9510 30631.6039 6.0959 68.6045
ENERGY: 1200000 0.9217 6.2946 2.1354 0.0000 -10641.9867 1475.6888 0.0000 0.0000 1732.1182 -7424.8279 296.2248 -9156.9462 -7447.7974 297.2390 276.2643 395.1825 30380.1758 -104.0944 -33.4883
ENERGY: 1500000 0.7974 4.1596 3.3057 0.0000 -10676.4076 1475.6882 0.0000 0.0000 1738.3284 -7454.1283 297.2869 -9192.4567 -7446.3047 298.2521 422.7646 503.7830 30110.2161 -93.4242 -25.7741
TCL: Running FEP window   5: Lambda1 0.2    Lambda2 0.25   [dLambda 0.04999999999999999]
TCL: Setting parameter firsttimestep to 0
TCL: Setting parameter alchLambda to 0.2
Info: NONBONDED TABLE R-SQUARED SPACING: 0.0625
Info: NONBONDED TABLE SIZE: 705 POINTS
TCL: Setting parameter alchLambda2 to 0.25
Info: NONBONDED TABLE R-SQUARED SPACING: 0.0625
Info: NONBONDED TABLE SIZE: 705 POINTS
TCL: Running for 1500000 steps
ETITLE: TS BOND ANGLE DIHED IMPRP ELECT VDW BOUNDARY MISC KINETIC TOTAL TEMP POTENTIAL TOTALAVG TEMPAVG PRESSURE GPRESSURE VOLUME PRESSAVG GPRESSAVG
ENERGY: 0 0.7974 4.1596 3.3057 0.0000 -10676.4071 1476.1511 0.0000 0.0000 1737.4322 -7454.5611 297.1336 -9191.9933 -7454.5611 297.1336 416.2338 505.4225 30110.2161 416.2338 505.4225
ENERGY: 300000 0.2063 7.7305 3.5218 0.0000 -10667.9682 1456.4365 0.0000 0.0000 1767.1371 -7432.9360 302.2137 -9200.0731 -7460.4747 300.2442 123.2380 192.3982 30378.7644 284.8846 331.8078
ENERGY: 600000 0.6507 7.8015 1.0619 0.0000 -10596.3879 1407.3751 0.0000 0.0000 1784.2078 -7395.2910 305.1331 -9179.4988 -7436.8295 303.0251 -242.8276 -220.1188 30606.4446 102.3926 145.6277
ENERGY: 900000 2.7096 6.0634 1.4006 0.0000 -10720.7620 1420.2928 0.0000 0.0000 1698.1787 -7592.1169 290.4205 -9290.2956 -7441.3783 301.5335 -540.2349 -510.0556 30325.4492 -133.0140 -88.9814
ENERGY: 1200000 1.6012 3.3128 0.9740 0.0000 -10563.2155 1413.1617 0.0000 0.0000 1784.0916 -7360.0742 305.1132 -9144.1657 -7435.3097 301.4592 -171.1033 -93.0712 30430.1118 -134.0308 -87.3711
ENERGY: 1500000 0.4982 7.7713 2.4619 0.0000 -10603.0775 1429.2073 0.0000 0.0000 1762.1488 -7400.9899 301.3606 -9163.1388 -7429.9965 301.7431 64.3720 106.2476 30248.7134 -36.1507 6.1884
TCL: Running FEP window   6: Lambda1 0.25   Lambda2 0.3    [dLambda 0.04999999999999999]
TCL: Setting parameter firsttimestep to 0
TCL: Setting parameter alchLambda to 0.25
Info: NONBONDED TABLE R-SQUARED SPACING: 0.0625
Info: NONBONDED TABLE SIZE: 705 POINTS
TCL: Setting parameter alchLambda2 to 0.3
Info: NONBONDED TABLE R-SQUARED SPACING: 0.0625
Info: NONBONDED TABLE SIZE: 705 POINTS
TCL: Running for 1500000 steps
ETITLE: TS BOND ANGLE DIHED IMPRP ELECT VDW BOUNDARY MISC KINETIC TOTAL TEMP POTENTIAL TOTALAVG TEMPAVG PRESSURE GPRESSURE VOLUME PRESSAVG GPRESSAVG
ENERGY: 0 0.4982 7.7713 2.4619 0.0000 -10603.0780 1429.9879 0.0000 0.0000 1761.2456 -7401.1131 301.2062 -9162.3587 -7401.1131 301.2062 35.2286 113.3340 30248.7134 35.2286 113.3340
ENERGY: 300000 0.5884 6.1668 0.4948 0.0000 -10798.2398 1506.9642 0.0000 0.0000 1769.5507 -7514.4751 302.6265 -9284.0258 -7408.3818 302.9097 546.0987 611.0336 29904.2079 -29.8390 42.7056
ENERGY: 600000 0.9061 4.9312 2.6914 0.0000 -10634.7607 1413.0210 0.0000 0.0000 1758.9204 -7454.2906 300.8085 -9213.2110 -7439.2762 300.4714 -287.3149 -231.9704 30379.1560 -76.5023 -21.9027
ENERGY: 900000 0.1993 4.2308 3.0256 0.0000 -10778.8284 1492.7859 0.0000 0.0000 1761.5278 -7517.0591 301.2544 -9278.5869 -7451.8129 300.4032 69.6645 130.3298 30464.8007 52.5025 110.6921
ENERGY: 1200000 3.3377 4.5452 3.0466 0.0000 -10652.0332 1372.9618 0.0000 0.0000 1740.0300 -7528.1119 297.5779 -9268.1419 -7468.5884 299.2941 -594.4350 -524.6399 29894.3883 -5.7366 59.4715
ENERGY: 1500000 0.2112 4.6957 1.2441 0.0000 -10600.5295 1409.2383 0.0000 0.0000 1831.6089 -7353.5313 313.2396 -9185.1402 -7463.6085 300.2786 -283.3088 -203.5366 30565.8690 -36.5700 30.3236
TCL: Running FEP window   7: Lambda1 0.3    Lambda2 0.35   [dLambda 0.04999999999999999]
TCL: Setting parameter firsttimestep to 0
TCL: Setting parameter alchLambda to 0.3
Info: NONBONDED TABLE R-SQUARED SPACING: 0.0625
Info: NONBONDED TABLE SIZE: 705 POINTS
TCL: Setting parameter alchLambda2 to 0.35
Info: NONBONDED TABLE R-SQUARED SPACING: 0.0625
Info: NONBONDED TABLE SIZE: 705 POINTS
TCL: Running for 1500000 steps
ETITLE: TS BOND ANGLE DIHED IMPRP ELECT VDW BOUNDARY MISC KINETIC TOTAL TEMP POTENTIAL TOTALAVG TEMPAVG PRESSURE GPRESSURE VOLUME PRESSAVG GPRESSAVG
ENERGY: 0 0.2112 4.6957 1.2441 0.0000 -10600.5273 1409.2439 0.0000 0.0000 1830.7146 -7354.4179 313.0867 -9185.1325 -7354.4179 313.0867 -275.6331 -199.9377 30565.8690 -275.6331 -199.9377
ENERGY: 300000 1.2207 5.5456 0.5200 0.0000 -10508.2886 1395.4443 0.0000 0.0000 1786.8070 -7318.7510 305.5776 -9105.5581 -7401.0984 305.7620 -147.8699 -75.5315 30436.4674 -482.1460 -413.7082
ENERGY: 600000 2.9204 6.3103 1.7916 0.0000 -10620.4150 1403.8720 0.0000 0.0000 1762.7123 -7442.8084 301.4570 -9205.5207 -7423.8951 302.5874 -404.3203 -272.1428 30142.7665 -356.2260 -264.0414
ENERGY: 900000 1.3629 3.6829 2.7850 0.0000 -10812.9463 1482.5014 0.0000 0.0000 1781.5484 -7541.0658 304.6783 -9322.6141 -7441.8127 302.1259 -221.9855 -161.4835 30410.2652 -214.2264 -131.3763
ENERGY: 1200000 0.6606 3.6367 0.7349 0.0000 -10698.2676 1435.7950 0.0000 0.0000 1739.8016 -7517.6387 297.5388 -9257.4403 -7442.1770 302.4001 -114.5834 -26.0962 30044.1114 -96.1923 -12.3912
ENERGY: 1500000 1.0768 4.7367 0.8833 0.0000 -10663.2535 1445.5863 0.0000 0.0000 1753.6635 -7457.3068 299.9095 -9210.9704 -7451.8679 301.7983 -85.4718 35.2065 30152.7279 -109.4960 -22.0247
TCL: Running FEP window   8: Lambda1 0.35   Lambda2 0.39999999999999997 [dLambda 0.04999999999999999]
TCL: Setting parameter firsttimestep to 0
TCL: Setting parameter alchLambda to 0.35
Info: NONBONDED TABLE R-SQUARED SPACING: 0.0625
Info: NONBONDED TABLE SIZE: 705 POINTS
TCL: Setting parameter alchLambda2 to 0.39999999999999997
Info: NONBONDED TABLE R-SQUARED SPACING: 0.0625
Info: NONBONDED TABLE SIZE: 705 POINTS
TCL: Running for 1500000 steps
ETITLE: TS BOND ANGLE DIHED IMPRP ELECT VDW BOUNDARY MISC KINETIC TOTAL TEMP POTENTIAL TOTALAVG TEMPAVG PRESSURE GPRESSURE VOLUME PRESSAVG GPRESSAVG
ENERGY: 0 1.0768 4.7367 0.8833 0.0000 -10663.2540 1445.1830 0.0000 0.0000 1752.7353 -7458.6388 299.7507 -9211.3741 -7458.6388 299.7507 -44.5477 34.3811 30152.7279 -44.5477 34.3811
ENERGY: 300000 1.7375 6.0616 1.8988 0.0000 -10567.3880 1378.6305 0.0000 0.0000 1722.5541 -7456.5055 294.5892 -9179.0596 -7467.5283 299.9210 -688.0041 -604.2228 30681.5964 -281.6620 -210.2665
ENERGY: 600000 0.6114 5.2181 1.4326 0.0000 -10779.9930 1479.1341 0.0000 0.0000 1763.7168 -7529.8799 301.6288 -9293.5967 -7478.1641 299.1569 0.6247 75.8914 30356.3825 -15.8748 38.0802
ENERGY: 900000 1.0603 4.6979 0.7585 0.0000 -10757.2347 1498.5645 0.0000 0.0000 1776.9482 -7475.2052 303.8916 -9252.1534 -7476.6239 298.6087 180.3856 276.7465 30260.2095 -82.5932 -20.8703
ENERGY: 1200000 0.3238 10.1702 0.4708 0.0000 -10746.7718 1492.1565 0.0000 0.0000 1740.8472 -7502.8032 297.7176 -9243.6504 -7470.9198 298.8130 149.2451 226.3647 30486.6850 -178.5903 -115.9487
ENERGY: 1500000 0.7936 4.8817 1.3282 0.0000 -10518.7515 1347.2343 0.0000 0.0000 1684.7258 -7479.7880 288.1198 -9164.5137 -7470.7330 297.8300 -747.8143 -621.4898 30201.4487 -135.7029 -64.1713
TCL: Running FEP window   9: Lambda1 0.39999999999999997 Lambda2 0.44999999999999996 [dLambda 0.04999999999999999]
TCL: Setting parameter firsttimestep to 0
TCL: Setting parameter alchLambda to 0.39999999999999997
Info: NONBONDED TABLE R-SQUARED SPACING: 0.0625
Info: NONBONDED TABLE SIZE: 705 POINTS
TCL: Setting parameter alchLambda2 to 0.44999999999999996
Info: NONBONDED TABLE R-SQUARED SPACING: 0.0625
Info: NONBONDED TABLE SIZE: 705 POINTS
TCL: Running for 1500000 steps
ETITLE: TS BOND ANGLE DIHED IMPRP ELECT VDW BOUNDARY MISC KINETIC TOTAL TEMP POTENTIAL TOTALAVG TEMPAVG PRESSURE GPRESSURE VOLUME PRESSAVG GPRESSAVG
ENERGY: 0 0.7936 4.8817 1.3282 0.0000 -10518.7514 1347.6057 0.0000 0.0000 1683.8483 -7480.2939 287.9698 -9164.1422 -7480.2939 287.9698 -724.2012 -616.4988 30201.4487 -724.2012 -616.4988
ENERGY: 300000 0.7244 6.6289 1.7751 0.0000 -10481.4442 1317.0058 0.0000 0.0000 1782.4485 -7372.8614 304.8322 -9155.3100 -7436.9154 298.6801 -1097.6608 -1051.8311 30877.3881 -596.3968 -522.9306
ENERGY: 600000 1.4125 9.8957 0.5380 0.0000 -10590.7589 1338.9079 0.0000 0.0000 1728.7034 -7511.3013 295.6408 -9240.0047 -7438.4204 299.5721 -1121.9426 -954.4530 30485.7599 -475.5205 -397.3101
ENERGY: 900000 1.2672 7.2377 1.5031 0.0000 -10659.6865 1451.8167 0.0000 0.0000 1739.9055 -7457.9563 297.5566 -9197.8618 -7461.8717 297.8869 193.4771 264.0804 30015.6034 -384.2180 -306.5965
ENERGY: 1200000 0.6774 4.3978 1.2717 0.0000 -10618.1984 1406.8746 0.0000 0.0000 1766.0348 -7438.9421 302.0252 -9204.9770 -7463.3617 297.3046 -40.5342 14.4487 29716.1616 -251.2531 -183.1116
ENERGY: 1500000 0.4527 5.1156 1.0273 0.0000 -10754.9071 1464.7762 0.0000 0.0000 1717.4687 -7566.0667 293.7195 -9283.5354 -7464.7884 297.2189 -73.6823 -23.1820 30386.5657 -248.4703 -182.1662
TCL: Running FEP window  10: Lambda1 0.44999999999999996 Lambda2 0.49999999999999994 [dLambda 0.04999999999999999]
TCL: Setting parameter firsttimestep to 0
TCL: Setting parameter alchLambda to 0.44999999999999996
Info: NONBONDED TABLE R-SQUARED SPACING: 0.0625
Info: NONBONDED TABLE SIZE: 705 POINTS
TCL: Setting parameter alchLambda2 to 0.49999999999999994
Info: NONBONDED TABLE R-SQUARED SPACING: 0.0625
Info: NONBONDED TABLE SIZE: 705 POINTS
TCL: Running for 1500000 steps
ETITLE: TS BOND ANGLE DIHED IMPRP ELECT VDW BOUNDARY MISC KINETIC TOTAL TEMP POTENTIAL TOTALAVG TEMPAVG PRESSURE GPRESSURE VOLUME PRESSAVG GPRESSAVG
ENERGY: 0 0.4527 5.1156 1.0273 0.0000 -10754.9082 1464.7919 0.0000 0.0000 1716.6245 -7566.8963 293.5751 -9283.5208 -7566.8963 293.5751 -87.4541 -14.8144 30386.5657 -87.4541 -14.8144
ENERGY: 300000 0.8927 6.3722 0.7273 0.0000 -10786.7982 1471.0779 0.0000 0.0000 1689.9408 -7617.7873 289.0117 -9307.7281 -7505.5294 297.2805 -124.1828 -33.9822 30383.6393 -26.9120 64.6156
ENERGY: 600000 2.8296 5.7326 2.1406 0.0000 -10614.7928 1434.7702 0.0000 0.0000 1729.0473 -7440.2724 295.6996 -9169.3197 -7456.7879 299.2137 -48.0905 2.1627 30423.3502 -45.8522 32.7286
ENERGY: 900000 1.3223 6.1414 1.8829 0.0000 -10706.5117 1490.7870 0.0000 0.0000 1753.7851 -7452.5930 299.9303 -9206.3782 -7458.8571 298.5345 602.8047 661.5652 30073.4244 31.8402 108.0852
ENERGY: 1200000 0.4056 7.8878 7.2254 0.0000 -10577.7393 1449.9390 0.0000 0.0000 1727.7118 -7384.5697 295.4712 -9112.2815 -7456.2305 298.2112 442.0244 532.0331 30130.0267 104.8485 172.9724
ENERGY: 1500000 3.1850 4.7822 1.4345 0.0000 -10665.4926 1443.7524 0.0000 0.0000 1718.1549 -7494.1837 293.8368 -9212.3386 -7460.0377 297.9308 -17.5639 115.6950 30282.4194 35.5731 106.3213
TCL: Running FEP window  11: Lambda1 0.49999999999999994 Lambda2 0.5499999999999999 [dLambda 0.04999999999999999]
TCL: Setting parameter firsttimestep to 0
TCL: Setting parameter alchLambda to 0.49999999999999994
Info: NONBONDED TABLE R-SQUARED SPACING: 0.0625
Info: NONBONDED TABLE SIZE: 705 POINTS
TCL: Setting parameter alchLambda2 to 0.5499999999999999
Info: NONBONDED TABLE R-SQUARED SPACING: 0.0625
Info: NONBONDED TABLE SIZE: 705 POINTS
TCL: Running for 1500000 steps
ETITLE: TS BOND ANGLE DIHED IMPRP ELECT VDW BOUNDARY MISC KINETIC TOTAL TEMP POTENTIAL TOTALAVG TEMPAVG PRESSURE GPRESSURE VOLUME PRESSAVG GPRESSAVG
ENERGY: 0 3.1850 4.7822 1.4345 0.0000 -10665.4929 1443.5314 0.0000 0.0000 1717.2638 -7495.2960 293.6844 -9212.5598 -7495.2960 293.6844 45.6161 117.8379 30282.4194 45.6161 117.8379
ENERGY: 300000 0.3063 7.5619 1.9995 0.0000 -10511.4334 1350.7739 0.0000 0.0000 1762.9351 -7387.8567 301.4951 -9150.7918 -7411.4379 299.3368 -695.2696 -631.6886 30520.1349 163.6393 236.6051
ENERGY: 600000 2.2405 6.3194 0.9507 0.0000 -10676.0002 1496.7135 0.0000 0.0000 1768.0313 -7401.7448 302.3666 -9169.7761 -7418.9710 299.8230 711.8975 829.1367 30122.6503 232.1702 317.7897
ENERGY: 900000 0.7233 9.7092 1.9591 0.0000 -10812.0322 1518.3647 0.0000 0.0000 1768.8032 -7512.4727 302.4986 -9281.2759 -7427.8902 300.5871 380.8464 437.7392 30240.6608 100.0290 182.9258
ENERGY: 1200000 0.8310 7.6012 0.3345 0.0000 -10630.4065 1374.2308 0.0000 0.0000 1709.6535 -7537.7554 292.3829 -9247.4090 -7432.3205 300.1332 -596.1158 -573.6106 30492.9007 -25.7753 50.9939
ENERGY: 1500000 2.3530 6.6021 0.7309 0.0000 -10610.5828 1437.2994 0.0000 0.0000 1754.8354 -7408.7620 300.1099 -9163.5974 -7433.9873 300.3774 95.1890 119.3403 30311.6017 -13.4870 52.7777
TCL: Running FEP window  12: Lambda1 0.5499999999999999 Lambda2 0.6    [dLambda 0.050000000000000044]
TCL: Setting parameter firsttimestep to 0
TCL: Setting parameter alchLambda to 0.5499999999999999
Info: NONBONDED TABLE R-SQUARED SPACING: 0.0625
Info: NONBONDED TABLE SIZE: 705 POINTS
TCL: Setting parameter alchLambda2 to 0.6
Info: NONBONDED TABLE R-SQUARED SPACING: 0.0625
Info: NONBONDED TABLE SIZE: 705 POINTS
TCL: Running for 1500000 steps
ETITLE: TS BOND ANGLE DIHED IMPRP ELECT VDW BOUNDARY MISC KINETIC TOTAL TEMP POTENTIAL TOTALAVG TEMPAVG PRESSURE GPRESSURE VOLUME PRESSAVG GPRESSAVG
ENERGY: 0 2.3530 6.6021 0.7309 0.0000 -10610.6110 1438.2078 0.0000 0.0000 1753.9584 -7408.7588 299.9599 -9162.7172 -7408.7588 299.9599 51.3317 131.2425 30311.6017 51.3317 131.2425
ENERGY: 300000 0.2959 4.0103 0.7434 0.0000 -10579.7565 1377.9492 0.0000 0.0000 1755.2463 -7441.5113 300.1802 -9196.7576 -7435.2394 301.5333 -619.5411 -594.4236 30692.0308 -102.4082 -45.5139
ENERGY: 600000 0.4185 5.3223 0.7113 0.0000 -10709.8047 1456.2083 0.0000 0.0000 1772.9970 -7474.1472 303.2159 -9247.1442 -7466.4509 299.8818 428.8233 549.8780 29715.4118 95.4065 161.3702
ENERGY: 900000 2.5291 6.7938 1.2508 0.0000 -10810.7150 1503.1949 0.0000 0.0000 1750.7694 -7546.1771 299.4145 -9296.9465 -7473.8761 300.9639 215.8863 269.9912 30362.4182 -24.9617 25.4490
ENERGY: 1200000 0.7010 6.0850 0.8836 0.0000 -10551.9580 1362.5892 0.0000 0.0000 1725.7903 -7455.9088 295.1426 -9181.6991 -7476.1056 300.8705 -431.8869 -391.8027 30284.4790 -75.2240 -29.0793
ENERGY: 1500000 1.4403 6.8708 2.1777 0.0000 -10694.3866 1438.8319 0.0000 0.0000 1798.7929 -7446.2730 307.6275 -9245.0659 -7481.4573 300.8815 -25.7429 54.4267 30074.3642 -83.9284 -35.0857
TCL: Running FEP window  13: Lambda1 0.6    Lambda2 0.65   [dLambda 0.050000000000000044]
TCL: Setting parameter firsttimestep to 0
TCL: Setting parameter alchLambda to 0.6
Info: NONBONDED TABLE R-SQUARED SPACING: 0.0625
Info: NONBONDED TABLE SIZE: 705 POINTS
TCL: Setting parameter alchLambda2 to 0.65
Info: NONBONDED TABLE R-SQUARED SPACING: 0.0625
Info: NONBONDED TABLE SIZE: 705 POINTS
TCL: Running for 1500000 steps
ETITLE: TS BOND ANGLE DIHED IMPRP ELECT VDW BOUNDARY MISC KINETIC TOTAL TEMP POTENTIAL TOTALAVG TEMPAVG PRESSURE GPRESSURE VOLUME PRESSAVG GPRESSAVG
ENERGY: 0 1.4403 6.8708 2.1777 0.0000 -10694.2979 1438.7481 0.0000 0.0000 1797.9398 -7447.1212 307.4815 -9245.0610 -7447.1212 307.4815 -23.5656 61.3933 30074.3642 -23.5656 61.3933
ENERGY: 300000 2.5869 3.0923 2.6593 0.0000 -10718.8787 1480.4198 0.0000 0.0000 1747.5691 -7482.5513 298.8672 -9230.1204 -7462.5414 301.1335 394.9135 510.8407 29940.8431 144.3963 215.3351
ENERGY: 600000 0.6752 7.8012 1.2604 0.0000 -10697.1976 1441.4111 0.0000 0.0000 1715.4058 -7530.6440 293.3667 -9246.0498 -7463.9769 300.5316 4.3458 23.0293 30015.5348 130.3205 197.7624
ENERGY: 900000 1.4561 3.8912 0.7929 0.0000 -10934.9750 1632.5226 0.0000 0.0000 1779.9155 -7516.3967 304.3991 -9296.3122 -7459.0773 301.1503 1491.0198 1541.9234 29778.8709 246.2231 310.0037
ENERGY: 1200000 0.6240 6.4114 2.5333 0.0000 -10634.6754 1408.3940 0.0000 0.0000 1778.4023 -7438.3104 304.1403 -9216.7126 -7450.8675 301.5717 -349.1196 -321.4490 30694.1521 98.4072 155.1179
ENERGY: 1500000 0.6272 3.7657 0.4884 0.0000 -10672.9879 1419.7732 0.0000 0.0000 1761.6715 -7486.6620 301.2790 -9248.3334 -7451.7578 301.4668 -0.4827 56.4904 29896.2723 96.6330 155.7871
TCL: Running FEP window  14: Lambda1 0.65   Lambda2 0.7000000000000001 [dLambda 0.050000000000000044]
TCL: Setting parameter firsttimestep to 0
TCL: Setting parameter alchLambda to 0.65
Info: NONBONDED TABLE R-SQUARED SPACING: 0.0625
Info: NONBONDED TABLE SIZE: 705 POINTS
TCL: Setting parameter alchLambda2 to 0.7000000000000001
Info: NONBONDED TABLE R-SQUARED SPACING: 0.0625
Info: NONBONDED TABLE SIZE: 705 POINTS
TCL: Running for 1500000 steps
ETITLE: TS BOND ANGLE DIHED IMPRP ELECT VDW BOUNDARY MISC KINETIC TOTAL TEMP POTENTIAL TOTALAVG TEMPAVG PRESSURE GPRESSURE VOLUME PRESSAVG GPRESSAVG
ENERGY: 0 0.6272 3.7657 0.4884 0.0000 -10673.4295 1420.2723 0.0000 0.0000 1760.8072 -7487.4687 301.1312 -9248.2759 -7487.4687 301.1312 -6.3511 71.1737 29896.2723 -6.3511 71.1737
ENERGY: 300000 2.2914 8.8453 1.0935 0.0000 -10810.6453 1517.0978 0.0000 0.0000 1757.0696 -7524.2477 300.4920 -9281.3173 -7495.6058 302.1883 648.4724 708.0743 29840.5320 295.4141 344.7628
ENERGY: 600000 1.2802 5.2889 0.6941 0.0000 -10602.3138 1373.8847 0.0000 0.0000 1749.9922 -7471.1737 299.2816 -9221.1659 -7498.4764 299.6015 -209.7365 -138.9055 29998.2559 -5.5960 33.5406
ENERGY: 900000 1.5608 5.8283 1.1440 0.0000 -10773.0144 1430.9568 0.0000 0.0000 1753.7977 -7579.7269 299.9324 -9333.5246 -7500.7202 299.1735 -184.0005 -175.7768 29939.9037 -89.9927 -47.2342
ENERGY: 1200000 0.1554 5.7765 2.1793 0.0000 -10693.5280 1472.4724 0.0000 0.0000 1780.2768 -7432.6675 304.4609 -9212.9443 -7490.3068 299.7516 510.5009 610.0892 29732.8686 -44.0113 4.1996
ENERGY: 1500000 0.4150 8.3951 2.4583 0.0000 -10757.3680 1495.3615 0.0000 0.0000 1713.1243 -7537.6139 292.9765 -9250.7382 -7486.7430 299.1472 664.5031 701.2344 29641.5069 6.2510 56.1315
TCL: Running FEP window  15: Lambda1 0.7000000000000001 Lambda2 0.7500000000000001 [dLambda 0.050000000000000044]
TCL: Setting parameter firsttimestep to 0
TCL: Setting parameter alchLambda to 0.7000000000000001
Info: NONBONDED TABLE R-SQUARED SPACING: 0.0625
Info: NONBONDED TABLE SIZE: 705 POINTS
TCL: Setting parameter alchLambda2 to 0.7500000000000001
Info: NONBONDED TABLE R-SQUARED SPACING: 0.0625
Info: NONBONDED TABLE SIZE: 705 POINTS
TCL: Running for 1500000 steps
ETITLE: TS BOND ANGLE DIHED IMPRP ELECT VDW BOUNDARY MISC KINETIC TOTAL TEMP POTENTIAL TOTALAVG TEMPAVG PRESSURE GPRESSURE VOLUME PRESSAVG GPRESSAVG
ENERGY: 0 0.4150 8.3951 2.4583 0.0000 -10757.3638 1495.3051 0.0000 0.0000 1712.2360 -7538.5543 292.8246 -9250.7903 -7538.5543 292.8246 634.9918 707.9641 29641.5069 634.9918 707.9641
ENERGY: 300000 1.8136 4.1769 1.7494 0.0000 -10633.7869 1449.7997 0.0000 0.0000 1744.8270 -7431.4202 298.3983 -9176.2472 -7447.4577 297.9266 0.6141 89.3715 30594.1511 -181.7296 -117.9403
ENERGY: 600000 0.8041 8.5479 2.8726 0.0000 -10725.6280 1489.9110 0.0000 0.0000 1754.4517 -7469.0408 300.0443 -9223.4925 -7459.5790 298.9563 513.0992 562.1006 30089.7759 9.2200 78.9617
ENERGY: 900000 0.8558 4.1870 1.1657 0.0000 -10574.2180 1391.8694 0.0000 0.0000 1784.2149 -7391.9252 305.1343 -9176.1401 -7440.3362 299.9325 -200.7605 -140.7421 30582.3904 31.8433 98.3187
ENERGY: 1200000 0.4301 3.6586 0.8507 0.0000 -10636.7218 1488.2907 0.0000 0.0000 1724.4131 -7419.0786 294.9071 -9143.4917 -7447.6722 299.4421 494.8696 558.2828 30448.5980 39.0743 98.4872
ENERGY: 1500000 0.3346 6.8844 0.5097 0.0000 -10603.4067 1425.3895 0.0000 0.0000 1758.8033 -7411.4852 300.7885 -9170.2885 -7437.3458 300.1932 -155.3977 -139.6514 30600.2292 69.1978 127.2942
TCL: Running FEP window  16: Lambda1 0.7500000000000001 Lambda2 0.8000000000000002 [dLambda 0.050000000000000044]
TCL: Setting parameter firsttimestep to 0
TCL: Setting parameter alchLambda to 0.7500000000000001
Info: NONBONDED TABLE R-SQUARED SPACING: 0.0625
Info: NONBONDED TABLE SIZE: 705 POINTS
TCL: Setting parameter alchLambda2 to 0.8000000000000002
Info: NONBONDED TABLE R-SQUARED SPACING: 0.0625
Info: NONBONDED TABLE SIZE: 705 POINTS
TCL: Running for 1500000 steps
ETITLE: TS BOND ANGLE DIHED IMPRP ELECT VDW BOUNDARY MISC KINETIC TOTAL TEMP POTENTIAL TOTALAVG TEMPAVG PRESSURE GPRESSURE VOLUME PRESSAVG GPRESSAVG
ENERGY: 0 0.3346 6.8844 0.5097 0.0000 -10603.5972 1425.0831 0.0000 0.0000 1757.9316 -7412.8539 300.6394 -9170.7855 -7412.8539 300.6394 -228.9024 -135.9415 30600.2292 -228.9024 -135.9415
ENERGY: 300000 1.0587 6.6383 0.3374 0.0000 -10588.1174 1366.8148 0.0000 0.0000 1709.4439 -7503.8243 292.3471 -9213.2682 -7441.2679 298.9189 -458.2793 -424.2290 30217.8839 25.7047 94.9510
ENERGY: 600000 2.7120 6.4512 1.4569 0.0000 -10712.5261 1450.9376 0.0000 0.0000 1694.7314 -7556.2370 289.8310 -9250.9685 -7456.2106 297.6165 130.1583 184.5021 30221.6096 -23.7751 33.1698
ENERGY: 900000 1.2117 9.6725 1.9430 0.0000 -10638.7751 1420.0808 0.0000 0.0000 1748.4992 -7457.3679 299.0263 -9205.8671 -7471.4565 297.2227 -22.9351 -17.2623 30378.5587 -8.6026 48.3078
ENERGY: 1200000 0.3696 4.0396 0.5430 0.0000 -10654.4984 1490.2470 0.0000 0.0000 1775.4844 -7383.8148 303.6412 -9159.2991 -7462.2034 297.9053 943.0904 972.7337 29901.6930 68.9053 123.7687
ENERGY: 1500000 0.3044 5.1844 2.0850 0.0000 -10743.1880 1532.6211 0.0000 0.0000 1742.8069 -7460.1861 298.0528 -9202.9931 -7465.7378 297.4392 1079.8984 1110.3580 29925.3858 158.1755 209.6539
TCL: Running FEP window  17: Lambda1 0.8000000000000002 Lambda2 0.8500000000000002 [dLambda 0.050000000000000044]
TCL: Setting parameter firsttimestep to 0
TCL: Setting parameter alchLambda to 0.8000000000000002
Info: NONBONDED TABLE R-SQUARED SPACING: 0.0625
Info: NONBONDED TABLE SIZE: 705 POINTS
TCL: Setting parameter alchLambda2 to 0.8500000000000002
Info: NONBONDED TABLE R-SQUARED SPACING: 0.0625
Info: NONBONDED TABLE SIZE: 705 POINTS
TCL: Running for 1500000 steps
ETITLE: TS BOND ANGLE DIHED IMPRP ELECT VDW BOUNDARY MISC KINETIC TOTAL TEMP POTENTIAL TOTALAVG TEMPAVG PRESSURE GPRESSURE VOLUME PRESSAVG GPRESSAVG
ENERGY: 0 0.3044 5.1844 2.0850 0.0000 -10743.2435 1532.4771 0.0000 0.0000 1741.9375 -7461.2551 297.9041 -9203.1926 -7461.2551 297.9041 1030.5361 1116.7697 29925.3858 1030.5361 1116.7697
ENERGY: 300000 0.8375 11.5479 0.9202 0.0000 -10684.3099 1452.3408 0.0000 0.0000 1750.3415 -7468.3219 299.3414 -9218.6634 -7485.5589 295.5186 430.4876 513.5018 29496.5474 309.8905 367.1588
ENERGY: 600000 0.9130 7.9424 0.8866 0.0000 -10757.7750 1509.4627 0.0000 0.0000 1773.1316 -7465.4387 303.2389 -9238.5703 -7496.9186 296.4957 566.4650 640.0572 30061.7702 105.6756 167.8491
ENERGY: 900000 0.7951 7.4608 1.4205 0.0000 -10489.8701 1304.9058 0.0000 0.0000 1770.2360 -7405.0520 302.7437 -9175.2880 -7492.4848 296.1331 -975.2483 -896.2411 30531.7994 25.0264 80.4374
ENERGY: 1200000 4.1950 6.9880 2.9820 0.0000 -10566.8417 1373.1883 0.0000 0.0000 1757.1143 -7422.3740 300.4996 -9179.4883 -7490.3230 295.9212 -343.7809 -263.9629 30089.5178 -29.3133 21.9134
ENERGY: 1500000 2.1854 8.6352 1.5152 0.0000 -10566.2195 1346.1537 0.0000 0.0000 1709.0393 -7498.6906 292.2779 -9207.7300 -7483.4919 296.2462 -616.9159 -668.2729 30249.7520 -28.1500 15.5246
TCL: Running FEP window  18: Lambda1 0.8500000000000002 Lambda2 0.9000000000000002 [dLambda 0.050000000000000044]
TCL: Setting parameter firsttimestep to 0
TCL: Setting parameter alchLambda to 0.8500000000000002
Info: NONBONDED TABLE R-SQUARED SPACING: 0.0625
Info: NONBONDED TABLE SIZE: 705 POINTS
TCL: Setting parameter alchLambda2 to 0.9000000000000002
Info: NONBONDED TABLE R-SQUARED SPACING: 0.0625
Info: NONBONDED TABLE SIZE: 705 POINTS
TCL: Running for 1500000 steps
ETITLE: TS BOND ANGLE DIHED IMPRP ELECT VDW BOUNDARY MISC KINETIC TOTAL TEMP POTENTIAL TOTALAVG TEMPAVG PRESSURE GPRESSURE VOLUME PRESSAVG GPRESSAVG
ENERGY: 0 2.1854 8.6352 1.5152 0.0000 -10566.8569 1346.2156 0.0000 0.0000 1708.1608 -7500.1447 292.1277 -9208.3055 -7500.1447 292.1277 -732.5105 -656.8086 30249.7520 -732.5105 -656.8086
ENERGY: 300000 1.1462 5.4076 0.7673 0.0000 -10651.3520 1416.8385 0.0000 0.0000 1768.9015 -7458.2909 302.5155 -9227.1923 -7417.9809 299.1797 -68.6245 -7.8900 30113.7100 -145.2106 -85.4656
ENERGY: 600000 1.0862 6.3436 0.3015 0.0000 -10677.7521 1423.6479 0.0000 0.0000 1704.0717 -7542.3012 291.4283 -9246.3729 -7458.4987 297.4687 -136.9842 -56.2131 30227.1642 -153.7439 -102.3363
ENERGY: 900000 0.3566 5.4717 1.4054 0.0000 -10579.9800 1414.6097 0.0000 0.0000 1700.2411 -7457.8955 290.7732 -9158.1366 -7454.8251 297.5801 26.2312 166.7662 30098.4141 -26.8343 27.6258
ENERGY: 1200000 2.3289 7.6391 2.0147 0.0000 -10849.2632 1553.3158 0.0000 0.0000 1754.0434 -7529.9213 299.9744 -9283.9647 -7464.0205 297.5853 792.9279 804.1729 30058.4731 106.2466 160.4203
ENERGY: 1500000 2.2947 7.0749 1.3856 0.0000 -10583.1561 1380.7976 0.0000 0.0000 1768.0555 -7423.5477 302.3708 -9191.6032 -7464.6019 297.6562 -379.5442 -278.2619 30248.4389 70.7522 125.8989
TCL: Running FEP window  19: Lambda1 0.9000000000000002 Lambda2 0.9500000000000003 [dLambda 0.050000000000000044]
TCL: Setting parameter firsttimestep to 0
TCL: Setting parameter alchLambda to 0.9000000000000002
Info: NONBONDED TABLE R-SQUARED SPACING: 0.0625
Info: NONBONDED TABLE SIZE: 705 POINTS
TCL: Setting parameter alchLambda2 to 0.9500000000000003
Info: NONBONDED TABLE R-SQUARED SPACING: 0.0625
Info: NONBONDED TABLE SIZE: 705 POINTS
TCL: Running for 1500000 steps
ETITLE: TS BOND ANGLE DIHED IMPRP ELECT VDW BOUNDARY MISC KINETIC TOTAL TEMP POTENTIAL TOTALAVG TEMPAVG PRESSURE GPRESSURE VOLUME PRESSAVG GPRESSAVG
ENERGY: 0 2.2947 7.0749 1.3856 0.0000 -10583.2638 1380.4735 0.0000 0.0000 1767.1956 -7424.8394 302.2237 -9192.0350 -7424.8394 302.2237 -371.0594 -273.1077 30248.4389 -371.0594 -273.1077
ENERGY: 300000 0.3925 5.9108 0.9612 0.0000 -10509.8446 1420.7006 0.0000 0.0000 1741.5642 -7340.3152 297.8403 -9081.8794 -7387.4424 304.4826 91.4500 184.7658 30417.2795 -255.6356 -174.9897
ENERGY: 600000 0.2493 6.5405 1.9898 0.0000 -10624.1015 1483.6807 0.0000 0.0000 1715.9734 -7415.6679 293.4637 -9131.6412 -7409.9738 303.0982 463.3336 549.6087 30572.3899 -128.0933 -47.1475
ENERGY: 900000 1.8417 12.4570 1.9901 0.0000 -10695.2607 1435.9571 0.0000 0.0000 1777.4080 -7465.6068 303.9702 -9243.0148 -7426.6043 304.2642 -8.9157 73.3176 30242.0764 -187.1144 -110.2153
ENERGY: 1200000 1.5557 8.8135 0.7952 0.0000 -10576.7157 1369.8448 0.0000 0.0000 1710.2046 -7485.5018 292.4772 -9195.7064 -7442.6604 301.6160 -372.7945 -284.3827 30026.6687 -246.3837 -172.0430
ENERGY: 1500000 0.9079 9.5920 0.6504 0.0000 -10682.5838 1428.2979 0.0000 0.0000 1790.8677 -7452.2679 306.2721 -9243.1357 -7442.1394 302.2502 -187.4697 -60.4239 30289.2144 -180.4640 -103.1354
TCL: Running FEP window  20: Lambda1 0.9500000000000003 Lambda2 1.0    [dLambda 0.04999999999999971]
TCL: Setting parameter firsttimestep to 0
TCL: Setting parameter alchLambda to 0.9500000000000003
Info: NONBONDED TABLE R-SQUARED SPACING: 0.0625
Info: NONBONDED TABLE SIZE: 705 POINTS
TCL: Setting parameter alchLambda2 to 1.0
Info: NONBONDED TABLE R-SQUARED SPACING: 0.0625
Info: NONBONDED TABLE SIZE: 705 POINTS
TCL: Running for 1500000 steps
ETITLE: TS BOND ANGLE DIHED IMPRP ELECT VDW BOUNDARY MISC KINETIC TOTAL TEMP POTENTIAL TOTALAVG TEMPAVG PRESSURE GPRESSURE VOLUME PRESSAVG GPRESSAVG
ENERGY: 0 0.9079 9.5920 0.6504 0.0000 -10683.1919 1427.8438 0.0000 0.0000 1789.9787 -7454.2192 306.1201 -9244.1979 -7454.2192 306.1201 -139.6924 -57.3178 30289.2144 -139.6924 -57.3178
ENERGY: 300000 6.2553 7.2599 1.6888 0.0000 -10610.8111 1391.1954 0.0000 0.0000 1755.4103 -7449.0013 300.2082 -9204.4117 -7474.7444 301.8162 -270.4863 -219.6240 30440.6877 2.5164 65.4732
ENERGY: 600000 2.0309 7.2999 0.7195 0.0000 -10626.5885 1351.0798 0.0000 0.0000 1778.1176 -7487.3408 304.0916 -9265.4584 -7471.6805 301.7931 -974.8925 -951.8290 30786.9005 -212.0053 -161.0438
ENERGY: 900000 0.7605 4.9949 3.1703 0.0000 -10601.4379 1377.5321 0.0000 0.0000 1738.6081 -7476.3721 297.3347 -9214.9802 -7468.4260 301.6174 -380.3515 -276.8783 30303.8952 -215.3258 -150.3588
ENERGY: 1200000 0.6691 10.7558 1.3694 0.0000 -10621.2875 1423.3650 0.0000 0.0000 1735.1015 -7450.0266 296.7350 -9185.1281 -7477.5941 300.4999 62.2589 125.2451 30224.3418 -177.2867 -102.2129
ENERGY: 1500000 1.2073 3.4167 1.5748 0.0000 -10676.2739 1471.6293 0.0000 0.0000 1763.8304 -7434.6153 301.6482 -9198.4457 -7472.2809 300.2668 351.1414 484.7271 30272.8018 -133.7874 -54.9097
TCL: Exiting due to exit command.
