Info: SIMULATION PARAMETERS:
Info: TIMESTEP               2
Info: NUMBER OF STEPS        0
Info: STEPS PER CYCLE        10
Info: PERIODIC CELL BASIS 1  30.6915 0 0
Info: PERIODIC CELL BASIS 2  0 31.9548 0
Info: PERIODIC CELL BASIS 3  0 0 30.6424
Info: PERIODIC CELL CENTER   0 0 0
Info: WRAPPING WATERS AROUND PERIODIC BOUNDARIES ON OUTPUT.
Info: WRAPPING ALL CLUSTERS AROUND PERIODIC BOUNDARIES ON OUTPUT.
Info: FIRST LDB TIMESTEP     50
Info: LAST LDB TIMESTEP     -1
Info: HOM BACKGROUND SCALING 1
Info: PME BACKGROUND SCALING 1
Info: MIN ATOMS PER PATCH    40
Info: EMPTY PATCH LOAD       40 ATOMS
Info: VELOCITY FILE          mobley_4463913_equil.vel
Info: CENTER OF MASS MOVING INITIALLY? NO
Info: DIELECTRIC             1
Info: EXCLUDE                SCALED ONE-FOUR
Info: 1-4 ELECTROSTATICS SCALED BY 0.833333
Info: MODIFIED 1-4 VDW PARAMETERS WILL BE USED
Info: DCD FILENAME           mobley_4463913_prod.dcd
Info: DCD FREQUENCY          100000
Info: DCD FIRST STEP         100000
Info: DCD FILE WILL CONTAIN UNIT CELL DATA
Info: XST FILENAME           mobley_4463913_prod.xst
Info: XST FREQUENCY          100000
Info: NO VELOCITY DCD OUTPUT
Info: NO FORCE DCD OUTPUT
Info: OUTPUT FILENAME        mobley_4463913_prod
Info: BINARY OUTPUT FILES WILL BE USED
Info: RESTART FILENAME       mobley_4463913_prod.restart
Info: RESTART FREQUENCY      100000
Info: BINARY RESTART FILES WILL BE USED
Info: CUTOFF                 9
Info: PAIRLIST DISTANCE      11
Info: PAIRLIST SHRINK RATE   0.01
Info: PAIRLIST GROW RATE     0.01
Info: PAIRLIST TRIGGER       0.3
Info: PAIRLISTS PER CYCLE    2
Info: PAIRLISTS ENABLED
Info: MARGIN                 2
Info: HYDROGEN GROUP CUTOFF  2.5
Info: PATCH DIMENSION        15.5
Info: ENERGY OUTPUT STEPS    100000
Info: ENERGY EVALUATION STEPS    100000
Info: OUTPUT ENERGY PRECISION 4
Info: CROSSTERM ENERGY INCLUDED IN DIHEDRAL
Info: TIMING OUTPUT STEPS    1000000
Info: PRESSURE OUTPUT STEPS  100000
Info: ALCHEMICAL FEP ON
Info: FEP CURRENT LAMBDA VALUE     1
Info: FEP COMPARISON LAMBDA VALUE  0.95
Info: FEP INTRA-ALCHEMICAL NON-BONDED INTERACTIONS WILL BE RETAINED
Info: FEP INTRA-ALCHEMICAL BONDED INTERACTIONS WILL BE RETAINED
Info: FEP VDW SHIFTING COEFFICIENT 5
Info: FEP ELEC. ACTIVE FOR ANNIHILATED PARTICLES BETWEEN LAMBDA = 0 AND LAMBDA = 0.5
Info: FEP ELEC. ACTIVE FOR EXNIHILATED PARTICLES BETWEEN LAMBDA = 0.5 AND LAMBDA = 1
Info: FEP VDW ACTIVE FOR ANNIHILATED PARTICLES BETWEEN LAMBDA = 0 AND LAMBDA = 1
Info: FEP VDW ACTIVE FOR EXNIHILATED PARTICLES BETWEEN LAMBDA = 0 AND LAMBDA = 1
Info: FEP BOND ACTIVE FOR ANNIHILATED PARTICLES BETWEEN LAMBDA = 1 AND LAMBDA = 1
Info: FEP BOND ACTIVE FOR EXNIHILATED PARTICLES BETWEEN LAMBDA = 0 AND LAMBDA = 0
Info: LANGEVIN DYNAMICS ACTIVE
Info: LANGEVIN TEMPERATURE   300
Info: LANGEVIN USING BBK INTEGRATOR
Info: LANGEVIN DAMPING COEFFICIENT IS 1 INVERSE PS
Info: LANGEVIN DYNAMICS APPLIED TO HYDROGENS
Info: LANGEVIN PISTON PRESSURE CONTROL ACTIVE
Info:        TARGET PRESSURE IS 1.01325 BAR
Info:     OSCILLATION PERIOD IS 50 FS
Info:             DECAY TIME IS 25 FS
Info:     PISTON TEMPERATURE IS 300 K
Info:       PRESSURE CONTROL IS GROUP-BASED
Info:    INITIAL STRAIN RATE IS 0.000515251 0.000515251 0.000515251
Info:       CELL FLUCTUATION IS ISOTROPIC
Info: PARTICLE MESH EWALD (PME) ACTIVE
Info: PME TOLERANCE               1e-06
Info: PME EWALD COEFFICIENT       0.348832
Info: PME INTERPOLATION ORDER     4
Info: PME GRID DIMENSIONS         32 32 32
Info: PME MAXIMUM GRID SPACING    1
Info: PME CALCULATION WILL BE PERFORMED ON GPU
Info: FULL ELECTROSTATIC EVALUATION FREQUENCY      2
Info: USING VERLET I (r-RESPA) MTS SCHEME.
Info: C1 SPLITTING OF LONG RANGE ELECTROSTATICS
Info: PLACING ATOMS IN PATCHES BY HYDROGEN GROUPS
Info: RIGID BONDS TO HYDROGEN : ALL
Info:         ERROR TOLERANCE : 1e-08
Info:          MAX ITERATIONS : 100
Info: RIGID WATER USING SETTLE ALGORITHM
Info: RANDOM NUMBER SEED     1743867379
Info: USE HYDROGEN BONDS?    NO
Info: Using AMBER format force field!
Info: AMBER PARM FILE        mobley_4463913.prmtop
Info: COORDINATE PDB         mobley_4463913.pdb
Info: Exclusions will be read from PARM file!
Info: SCNB (VDW SCALING)     2
Info: USING ARITHMETIC MEAN TO COMBINE L-J SIGMA PARAMETERS
Info: BINARY COORDINATES     mobley_4463913_equil.coor
Info: SUMMARY OF PARAMETERS:
Info: 9 BONDS
Info: 11 ANGLES
Info:   11 HARMONIC
Info:   0 COSINE-BASED
Info: 15 DIHEDRAL
Info: 0 IMPROPER
Info: 0 CROSSTERM
Info: 0 VDW
Info: 36 VDW_PAIRS
Info: 0 NBTHOLE_PAIRS
Info: To read alchdata from file: mobley_4463913.pdb
Info: To read alchflag data from column: 5
Info: STRUCTURE SUMMARY:
Info: 2927 ATOMS
Info: 2926 BONDS
Info: 32 ANGLES
Info: 59 DIHEDRALS
Info: 0 IMPROPERS
Info: 0 CROSSTERMS
Info: 2989 EXCLUSIONS
Info: 2917 RIGID BONDS
Info: ALCH: 0 ATOMS TO DISAPPEAR IN FINAL STATE
Info: ALCH: 20 ATOMS TO APPEAR IN FINAL STATE
Info: 5864 DEGREES OF FREEDOM
Info: 979 HYDROGEN GROUPS
Info: 4 ATOMS IN LARGEST HYDROGEN GROUP
Info: 979 MIGRATION GROUPS
Info: 4 ATOMS IN LARGEST MIGRATION GROUP
Info: TOTAL MASS = 17603.6 amu
Info: TOTAL CHARGE = 0.000100084 e
Info: MASS DENSITY = 0.972714 g/cm^3
Info: ATOM DENSITY = 0.0973971 atoms/A^3
Info: ADDED 0 IMPLICIT EXCLUSIONS
Info: NONBONDED TABLE R-SQUARED SPACING: 0.0625
Info: NONBONDED TABLE SIZE: 705 POINTS
Info: REMOVING COM VELOCITY -0.0824051 0.0177426 -0.266505
Info: Use 3D box decompostion in PME FFT.
Info: Updated CUDA force table with 4096 elements.
Info: Updated CUDA LJ table with 8 x 8 elements.
Info: Found 22 unique exclusion lists needing 56 bytes
TCL: Running for 1500000 steps
ETITLE: TS BOND ANGLE DIHED IMPRP ELECT VDW BOUNDARY MISC KINETIC TOTAL TEMP POTENTIAL TOTALAVG TEMPAVG PRESSURE GPRESSURE VOLUME PRESSAVG GPRESSAVG
ENERGY: 0 2.1552 8.4639 9.0174 0.0000 -10588.7967 1308.4505 0.0000 0.0000 1713.3716 -7547.3382 294.0681 -9260.7097 -7547.3382 294.0681 -781.1800 -697.9661 30052.2194 -781.1800 -697.9661
ENERGY: 300000 3.6295 10.2769 9.6617 0.0000 -10727.1242 1467.8113 0.0000 0.0000 1773.1237 -7462.6212 304.3235 -9235.7448 -7519.9264 295.8577 299.4306 353.5942 30153.8374 -332.4521 -263.9196
ENERGY: 600000 4.2983 10.4589 10.9663 0.0000 -10687.6817 1468.3147 0.0000 0.0000 1753.7857 -7439.8578 301.0045 -9193.6435 -7489.3287 298.4944 439.2483 446.7469 30473.9380 -57.9129 1.2635
ENERGY: 900000 1.0863 7.0701 9.9331 0.0000 -10753.6275 1442.0013 0.0000 0.0000 1706.9527 -7586.5841 292.9665 -9293.5368 -7492.0293 297.7798 -34.7123 -28.3608 30150.4272 14.7035 67.3533
ENERGY: 1200000 1.6903 11.3310 10.6909 0.0000 -10808.0069 1475.6008 0.0000 0.0000 1723.3292 -7585.3646 295.7772 -9308.6939 -7505.3389 297.7730 222.0872 300.9989 30177.9675 -45.8722 8.9205
ENERGY: 1500000 1.4327 5.3952 12.6531 0.0000 -10672.8619 1431.6292 0.0000 0.0000 1771.7734 -7449.9783 304.0917 -9221.7517 -7500.3892 298.7433 14.2670 91.1921 30623.7511 -56.5336 2.8893
TCL: Running FEP window   2: Lambda1 0.95   Lambda2 0.8999999999999999 [dLambda -0.050000000000000044]
TCL: Setting parameter firsttimestep to 0
TCL: Setting parameter alchLambda to 0.95
Info: NONBONDED TABLE R-SQUARED SPACING: 0.0625
Info: NONBONDED TABLE SIZE: 705 POINTS
TCL: Setting parameter alchLambda2 to 0.8999999999999999
Info: NONBONDED TABLE R-SQUARED SPACING: 0.0625
Info: NONBONDED TABLE SIZE: 705 POINTS
TCL: Running for 1500000 steps
ETITLE: TS BOND ANGLE DIHED IMPRP ELECT VDW BOUNDARY MISC KINETIC TOTAL TEMP POTENTIAL TOTALAVG TEMPAVG PRESSURE GPRESSURE VOLUME PRESSAVG GPRESSAVG
ENERGY: 0 1.4327 5.3952 12.6531 0.0000 -10670.9639 1432.1016 0.0000 0.0000 1770.8950 -7448.4863 303.9410 -9219.3812 -7448.4863 303.9410 3.3666 90.3098 30623.7511 3.3666 90.3098
ENERGY: 300000 2.3687 7.7904 10.2953 0.0000 -10562.7474 1382.8238 0.0000 0.0000 1735.2392 -7424.2301 297.8213 -9159.4692 -7438.8236 303.0338 -39.8046 37.8214 30301.7435 17.8500 91.9412
ENERGY: 600000 1.9315 8.5703 10.9547 0.0000 -10694.4929 1381.7187 0.0000 0.0000 1753.1200 -7538.1977 300.8902 -9291.3177 -7459.1493 303.1543 -450.0433 -423.7669 30162.2514 -159.4648 -94.8086
ENERGY: 900000 2.3022 5.7649 9.3987 0.0000 -10739.9885 1442.1688 0.0000 0.0000 1788.0789 -7492.2749 306.8903 -9280.3538 -7471.5088 303.4349 67.5617 175.2251 29963.7864 -48.3608 11.6562
ENERGY: 1200000 0.8841 8.5112 10.0478 0.0000 -10705.1200 1391.7081 0.0000 0.0000 1745.8277 -7548.1411 299.6386 -9293.9688 -7477.3170 302.9968 -489.2821 -407.2502 30225.3306 -111.4227 -48.1113
ENERGY: 1500000 1.9363 10.7542 15.5589 0.0000 -10662.2195 1466.3094 0.0000 0.0000 1731.7527 -7435.9080 297.2229 -9167.6607 -7476.4636 302.2701 714.1819 751.7180 30172.2320 -52.0478 7.4309
TCL: Running FEP window   3: Lambda1 0.8999999999999999 Lambda2 0.8499999999999999 [dLambda -0.050000000000000044]
TCL: Setting parameter firsttimestep to 0
TCL: Setting parameter alchLambda to 0.8999999999999999
Info: NONBONDED TABLE R-SQUARED SPACING: 0.0625
Info: NONBONDED TABLE SIZE: 705 POINTS
TCL: Setting parameter alchLambda2 to 0.8499999999999999
Info: NONBONDED TABLE R-SQUARED SPACING: 0.0625
Info: NONBONDED TABLE SIZE: 705 POINTS
TCL: Running for 1500000 steps
ETITLE: TS BOND ANGLE DIHED IMPRP ELECT VDW BOUNDARY MISC KINETIC TOTAL TEMP POTENTIAL TOTALAVG TEMPAVG PRESSURE GPRESSURE VOLUME PRESSAVG GPRESSAVG
ENERGY: 0 1.9363 10.7542 15.5589 0.0000 -10660.1625 1465.4575 0.0000 0.0000 1730.9206 -7435.5350 297.0801 -9166.4556 -7435.5350 297.0801 651.6997 734.7723 30172.2320 651.6997 734.7723
ENERGY: 300000 2.0892 7.6366 11.1602 0.0000 -10712.6573 1449.9973 0.0000 0.0000 1795.9377 -7445.8364 308.2391 -9241.7740 -7489.2785 300.9986 418.6099 444.4742 30047.6488 209.1883 301.3333
ENERGY: 600000 5.1641 5.4222 9.5896 0.0000 -10732.9396 1481.5890 0.0000 0.0000 1731.4864 -7499.6883 297.1772 -9231.1747 -7486.4465 301.1136 274.4155 358.5119 30811.4180 125.1341 200.1917
ENERGY: 900000 2.2217 4.8825 10.3526 0.0000 -10693.5304 1429.2451 0.0000 0.0000 1768.8138 -7478.0148 303.5838 -9246.8285 -7471.7068 301.0867 180.7967 221.1458 30149.1481 117.5586 181.8057
ENERGY: 1200000 3.4716 6.4925 12.1948 0.0000 -10664.1334 1403.0380 0.0000 0.0000 1720.0416 -7518.8950 295.2129 -9238.9365 -7488.4674 299.8025 -147.3818 -127.4308 29975.6591 -9.4912 51.5660
ENERGY: 1500000 6.2206 14.2834 10.1371 0.0000 -10632.7753 1404.0391 0.0000 0.0000 1815.5512 -7382.5440 311.6054 -9198.0952 -7484.0656 300.8212 58.5248 174.1046 30030.4130 -23.6128 40.9874
TCL: Running FEP window   4: Lambda1 0.8499999999999999 Lambda2 0.7999999999999998 [dLambda -0.050000000000000044]
TCL: Setting parameter firsttimestep to 0
TCL: Setting parameter alchLambda to 0.8499999999999999
Info: NONBONDED TABLE R-SQUARED SPACING: 0.0625
Info: NONBONDED TABLE SIZE: 705 POINTS
TCL: Setting parameter alchLambda2 to 0.7999999999999998
Info: NONBONDED TABLE R-SQUARED SPACING: 0.0625
Info: NONBONDED TABLE SIZE: 705 POINTS
TCL: Running for 1500000 steps
ETITLE: TS BOND ANGLE DIHED IMPRP ELECT VDW BOUNDARY MISC KINETIC TOTAL TEMP POTENTIAL TOTALAVG TEMPAVG PRESSURE GPRESSURE VOLUME PRESSAVG GPRESSAVG
ENERGY: 0 6.2206 14.2834 10.1371 0.0000 -10630.2994 1403.7425 0.0000 0.0000 1814.7041 -7381.2118 311.4600 -9195.9159 -7381.2118 311.4600 75.2226 157.6718 30030.4130 75.2226 157.6718
ENERGY: 300000 2.2143 10.3408 10.0928 0.0000 -10691.0483 1449.0926 0.0000 0.0000 1738.0007 -7481.3071 298.2953 -9219.3078 -7465.8074 303.3556 43.3858 111.6127 30494.7788 172.4249 252.3323
ENERGY: 600000 9.0522 7.0922 12.6313 0.0000 -10567.9675 1320.6687 0.0000 0.0000 1781.9123 -7436.6109 305.8319 -9218.5232 -7465.7150 303.6301 -744.2852 -701.1963 30354.7122 -83.0365 -24.1668
ENERGY: 900000 4.4089 9.6938 10.6553 0.0000 -10606.2144 1364.3793 0.0000 0.0000 1747.6076 -7469.4695 299.9441 -9217.0772 -7481.1264 301.4533 -271.4902 -189.1856 30189.5613 -56.1582 10.1896
ENERGY: 1200000 2.8278 10.6268 11.6842 0.0000 -10558.5037 1373.2742 0.0000 0.0000 1712.4829 -7447.6077 293.9156 -9160.0907 -7479.9843 301.3885 -128.9386 -96.0454 30189.5415 -106.7387 -39.6933
ENERGY: 1500000 5.2183 10.0373 11.1951 0.0000 -10592.8683 1351.3802 0.0000 0.0000 1734.8618 -7480.1755 297.7565 -9215.0373 -7474.5014 301.5915 -278.9414 -172.5639 30132.3670 -101.9363 -29.1741
TCL: Running FEP window   5: Lambda1 0.7999999999999998 Lambda2 0.7499999999999998 [dLambda -0.050000000000000044]
TCL: Setting parameter firsttimestep to 0
TCL: Setting parameter alchLambda to 0.7999999999999998
Info: NONBONDED TABLE R-SQUARED SPACING: 0.0625
Info: NONBONDED TABLE SIZE: 705 POINTS
TCL: Setting parameter alchLambda2 to 0.7499999999999998
Info: NONBONDED TABLE R-SQUARED SPACING: 0.0625
Info: NONBONDED TABLE SIZE: 705 POINTS
TCL: Running for 1500000 steps
ETITLE: TS BOND ANGLE DIHED IMPRP ELECT VDW BOUNDARY MISC KINETIC TOTAL TEMP POTENTIAL TOTALAVG TEMPAVG PRESSURE GPRESSURE VOLUME PRESSAVG GPRESSAVG
ENERGY: 0 5.2183 10.0373 11.1951 0.0000 -10591.7601 1351.3392 0.0000 0.0000 1734.0208 -7479.9493 297.6122 -9213.9701 -7479.9493 297.6122 -277.5411 -181.6385 30132.3670 -277.5411 -181.6385
ENERGY: 300000 0.9245 11.3121 10.4616 0.0000 -10532.6530 1400.1801 0.0000 0.0000 1759.5789 -7350.1959 301.9988 -9109.7748 -7445.1122 301.2180 103.8303 158.4127 30623.6272 84.5765 172.9915
ENERGY: 600000 2.5676 8.8620 12.2095 0.0000 -10641.3822 1410.2722 0.0000 0.0000 1723.1292 -7484.3417 295.7429 -9207.4709 -7468.8767 299.3354 98.3175 143.5196 29965.0890 135.0488 203.6931
ENERGY: 900000 4.0828 4.6841 10.3254 0.0000 -10753.1728 1512.8987 0.0000 0.0000 1712.1919 -7508.9899 293.8657 -9221.1818 -7490.5520 298.2146 908.2769 952.3408 29948.0749 255.8845 314.4805
ENERGY: 1200000 1.5691 7.7000 11.9643 0.0000 -10708.8071 1441.0921 0.0000 0.0000 1698.1737 -7548.3079 291.4597 -9246.4816 -7486.6022 298.9947 240.8743 308.1345 29925.9027 237.9210 300.6855
ENERGY: 1500000 1.5152 9.0387 9.8952 0.0000 -10589.1469 1340.4126 0.0000 0.0000 1764.5412 -7463.7441 302.8505 -9228.2853 -7479.8307 299.9515 -643.0219 -576.4306 30050.5143 129.7582 188.0584
TCL: Running FEP window   6: Lambda1 0.7499999999999998 Lambda2 0.6999999999999997 [dLambda -0.050000000000000044]
TCL: Setting parameter firsttimestep to 0
TCL: Setting parameter alchLambda to 0.7499999999999998
Info: NONBONDED TABLE R-SQUARED SPACING: 0.0625
Info: NONBONDED TABLE SIZE: 705 POINTS
TCL: Setting parameter alchLambda2 to 0.6999999999999997
Info: NONBONDED TABLE R-SQUARED SPACING: 0.0625
Info: NONBONDED TABLE SIZE: 705 POINTS
TCL: Running for 1500000 steps
ETITLE: TS BOND ANGLE DIHED IMPRP ELECT VDW BOUNDARY MISC KINETIC TOTAL TEMP POTENTIAL TOTALAVG TEMPAVG PRESSURE GPRESSURE VOLUME PRESSAVG GPRESSAVG
ENERGY: 0 1.5152 9.0387 9.8952 0.0000 -10587.5965 1341.2289 0.0000 0.0000 1763.6716 -7462.2470 302.7012 -9225.9186 -7462.2470 302.7012 -669.5920 -579.0429 30050.5143 -669.5920 -579.0429
ENERGY: 300000 2.3063 9.1058 9.3299 0.0000 -10692.1241 1409.9489 0.0000 0.0000 1743.1441 -7518.2891 299.1780 -9261.4331 -7489.0124 299.2094 -119.3747 -62.2456 30103.5049 -248.3657 -182.9288
ENERGY: 600000 2.2718 6.9152 15.7976 0.0000 -10760.0771 1438.7599 0.0000 0.0000 1752.6931 -7543.6395 300.8170 -9296.3326 -7513.3990 298.1876 215.1040 270.7468 29629.1369 -151.8781 -71.8168
ENERGY: 900000 3.1098 6.0555 13.0556 0.0000 -10726.7696 1462.7737 0.0000 0.0000 1771.8923 -7469.8828 304.1121 -9241.7751 -7513.7515 298.7229 685.0886 678.8396 29601.3986 -94.4151 -28.5414
ENERGY: 1200000 3.6016 9.5914 10.9328 0.0000 -10624.6052 1382.2556 0.0000 0.0000 1738.0471 -7480.1767 298.3032 -9218.2239 -7503.3234 299.2823 -98.3372 -31.6621 29790.9744 17.3717 79.3564
ENERGY: 1500000 2.6975 11.8208 12.7475 0.0000 -10588.6933 1348.3295 0.0000 0.0000 1788.7952 -7424.3029 307.0132 -9213.0980 -7495.8357 299.2898 -370.5164 -291.3332 29823.9044 -82.0845 -16.0478
TCL: Running FEP window   7: Lambda1 0.6999999999999997 Lambda2 0.6499999999999997 [dLambda -0.050000000000000044]
TCL: Setting parameter firsttimestep to 0
TCL: Setting parameter alchLambda to 0.6999999999999997
Info: NONBONDED TABLE R-SQUARED SPACING: 0.0625
Info: NONBONDED TABLE SIZE: 705 POINTS
TCL: Setting parameter alchLambda2 to 0.6499999999999997
Info: NONBONDED TABLE R-SQUARED SPACING: 0.0625
Info: NONBONDED TABLE SIZE: 705 POINTS
TCL: Running for 1500000 steps
ETITLE: TS BOND ANGLE DIHED IMPRP ELECT VDW BOUNDARY MISC KINETIC TOTAL TEMP POTENTIAL TOTALAVG TEMPAVG PRESSURE GPRESSURE VOLUME PRESSAVG GPRESSAVG
ENERGY: 0 2.6975 11.8208 12.7475 0.0000 -10586.2300 1348.2100 0.0000 0.0000 1787.9112 -7422.8431 306.8615 -9210.7543 -7422.8431 306.8615 -387.6369 -302.4041 29823.9044 -387.6369 -302.4041
ENERGY: 300000 1.0511 7.8508 12.3011 0.0000 -10721.0339 1478.2391 0.0000 0.0000 1749.9730 -7471.6188 300.3501 -9221.5918 -7481.0366 303.1119 384.5748 443.4841 30133.9879 148.1653 198.1075
ENERGY: 600000 1.9107 12.0769 11.2531 0.0000 -10536.4264 1287.0261 0.0000 0.0000 1798.3335 -7425.8260 308.6503 -9224.1596 -7489.6369 302.9295 -844.2587 -792.9842 30015.2355 88.2524 139.9463
ENERGY: 900000 1.4017 9.9630 10.4187 0.0000 -10592.4886 1328.9161 0.0000 0.0000 1712.3243 -7529.4648 293.8884 -9241.7891 -7488.4267 301.3066 -812.0678 -747.6628 30230.7072 -82.7720 -32.4758
ENERGY: 1200000 3.1306 7.8201 12.2454 0.0000 -10605.6351 1415.9949 0.0000 0.0000 1750.8012 -7415.6428 300.4922 -9166.4440 -7493.7068 300.5233 -5.9736 23.5885 30343.7588 -127.6063 -75.1176
ENERGY: 1500000 2.7656 11.2064 8.5899 0.0000 -10573.7899 1391.8289 0.0000 0.0000 1736.1660 -7423.2332 297.9804 -9159.3992 -7492.4973 300.3041 -133.0966 -37.2497 30276.9303 -88.7275 -30.5311
TCL: Running FEP window   8: Lambda1 0.6499999999999997 Lambda2 0.5999999999999996 [dLambda -0.050000000000000044]
TCL: Setting parameter firsttimestep to 0
TCL: Setting parameter alchLambda to 0.6499999999999997
Info: NONBONDED TABLE R-SQUARED SPACING: 0.0625
Info: NONBONDED TABLE SIZE: 705 POINTS
TCL: Setting parameter alchLambda2 to 0.5999999999999996
Info: NONBONDED TABLE R-SQUARED SPACING: 0.0625
Info: NONBONDED TABLE SIZE: 705 POINTS
TCL: Running for 1500000 steps
ETITLE: TS BOND ANGLE DIHED IMPRP ELECT VDW BOUNDARY MISC KINETIC TOTAL TEMP POTENTIAL TOTALAVG TEMPAVG PRESSURE GPRESSURE VOLUME PRESSAVG GPRESSAVG
ENERGY: 0 2.7656 11.2064 8.5899 0.0000 -10571.8515 1391.6929 0.0000 0.0000 1735.2925 -7422.3042 297.8305 -9157.5967 -7422.3042 297.8305 -119.2630 -43.1762 30276.9303 -119.2630 -43.1762
ENERGY: 300000 2.1491 7.6184 10.5898 0.0000 -10562.7305 1370.8994 0.0000 0.0000 1714.1587 -7457.3152 294.2032 -9171.4739 -7457.7007 296.4079 -316.5053 -246.2593 30315.0849 -310.6564 -247.6018
ENERGY: 600000 1.0766 5.7635 9.5776 0.0000 -10755.1321 1447.0339 0.0000 0.0000 1755.4549 -7536.2255 301.2910 -9291.6804 -7445.3331 300.1840 -91.0896 -64.9355 30457.5294 -51.8902 -10.1158
ENERGY: 900000 3.0857 6.6585 10.1423 0.0000 -10585.5569 1353.8802 0.0000 0.0000 1779.2180 -7432.5722 305.3695 -9211.7902 -7461.6204 300.4486 -316.1304 -243.6512 30033.0866 -132.9665 -78.8711
ENERGY: 1200000 2.4223 10.2796 10.1250 0.0000 -10701.7903 1362.5226 0.0000 0.0000 1747.7214 -7568.7193 299.9637 -9316.4408 -7472.1837 300.5607 -716.4375 -702.0886 30004.4864 -201.1872 -153.3170
ENERGY: 1500000 2.8094 7.2556 11.2958 0.0000 -10621.5089 1342.2243 0.0000 0.0000 1726.0518 -7531.8720 296.2445 -9257.9238 -7488.8877 299.3995 -749.8762 -702.8066 30335.5291 -152.2372 -103.8246
TCL: Running FEP window   9: Lambda1 0.5999999999999996 Lambda2 0.5499999999999996 [dLambda -0.050000000000000044]
TCL: Setting parameter firsttimestep to 0
TCL: Setting parameter alchLambda to 0.5999999999999996
Info: NONBONDED TABLE R-SQUARED SPACING: 0.0625
Info: NONBONDED TABLE SIZE: 705 POINTS
TCL: Setting parameter alchLambda2 to 0.5499999999999996
Info: NONBONDED TABLE R-SQUARED SPACING: 0.0625
Info: NONBONDED TABLE SIZE: 705 POINTS
TCL: Running for 1500000 steps
ETITLE: TS BOND ANGLE DIHED IMPRP ELECT VDW BOUNDARY MISC KINETIC TOTAL TEMP POTENTIAL TOTALAVG TEMPAVG PRESSURE GPRESSURE VOLUME PRESSAVG GPRESSAVG
ENERGY: 0 2.8095 7.2556 11.2958 0.0000 -10620.8080 1340.6784 0.0000 0.0000 1725.1495 -7533.6193 296.0896 -9258.7688 -7533.6193 296.0896 -805.7057 -728.7279 30335.5291 -805.7057 -728.7279
ENERGY: 300000 1.0842 9.2331 8.7114 0.0000 -10491.7309 1363.3767 0.0000 0.0000 1708.4559 -7400.8696 293.2245 -9109.3255 -7470.6779 296.6449 -485.5168 -415.4360 30771.2089 -50.5633 17.3248
ENERGY: 600000 3.7391 7.6329 10.1164 0.0000 -10641.2253 1402.3838 0.0000 0.0000 1741.0592 -7476.2939 298.8202 -9217.3532 -7483.8415 296.2364 -215.1281 -120.6232 30196.4937 -191.6230 -106.7810
ENERGY: 900000 0.5757 11.5447 11.4281 0.0000 -10582.1319 1384.0469 0.0000 0.0000 1712.9701 -7461.5664 293.9992 -9174.5365 -7475.8740 296.5168 -447.7301 -313.9369 30256.7442 -447.5691 -362.3028
ENERGY: 1200000 5.7117 11.3934 12.7790 0.0000 -10709.6156 1406.2087 0.0000 0.0000 1696.3939 -7577.1288 291.1543 -9273.5227 -7488.9352 296.6081 -78.4183 -81.1327 29962.4296 -334.3182 -261.6318
ENERGY: 1500000 3.4270 8.0596 13.8754 0.0000 -10687.7584 1467.2270 0.0000 0.0000 1735.8979 -7459.2715 297.9344 -9195.1694 -7479.7759 297.3264 524.7794 557.2306 30091.4847 -288.2505 -223.4338
TCL: Running FEP window  10: Lambda1 0.5499999999999996 Lambda2 0.4999999999999996 [dLambda -0.04999999999999999]
TCL: Setting parameter firsttimestep to 0
TCL: Setting parameter alchLambda to 0.5499999999999996
Info: NONBONDED TABLE R-SQUARED SPACING: 0.0625
Info: NONBONDED TABLE SIZE: 705 POINTS
TCL: Setting parameter alchLambda2 to 0.4999999999999996
Info: NONBONDED TABLE R-SQUARED SPACING: 0.0625
Info: NONBONDED TABLE SIZE: 705 POINTS
TCL: Running for 1500000 steps
ETITLE: TS BOND ANGLE DIHED IMPRP ELECT VDW BOUNDARY MISC KINETIC TOTAL TEMP POTENTIAL TOTALAVG TEMPAVG PRESSURE GPRESSURE VOLUME PRESSAVG GPRESSAVG
ENERGY: 0 3.4270 8.0596 13.8754 0.0000 -10687.4571 1467.6165 0.0000 0.0000 1735.0503 -7459.4284 297.7889 -9194.4786 -7459.4284 297.7889 464.3339 555.5001 30091.4847 464.3339 555.5001
ENERGY: 300000 1.0718 7.6942 10.6783 0.0000 -10583.3435 1334.2575 0.0000 0.0000 1732.0275 -7497.6142 297.2701 -9229.6417 -7470.6439 299.2336 -684.5931 -588.2541 29941.5120 -222.1193 -148.9648
ENERGY: 600000 4.7044 5.6380 9.8778 0.0000 -10585.8459 1375.4288 0.0000 0.0000 1731.2438 -7458.9532 297.1356 -9190.1970 -7477.3787 299.3088 -513.4304 -459.4884 30746.0343 -176.0371 -105.6007
ENERGY: 900000 2.3114 9.8696 11.8453 0.0000 -10642.2259 1431.4817 0.0000 0.0000 1729.1509 -7457.5670 296.7764 -9186.7179 -7478.5218 299.9239 413.8510 478.7950 29636.9076 -114.4442 -44.8601
ENERGY: 1200000 2.5434 7.9512 9.3298 0.0000 -10563.3199 1376.2954 0.0000 0.0000 1728.4495 -7438.7505 296.6560 -9167.2001 -7471.1519 299.2989 -511.7347 -388.0393 30346.8481 -126.7206 -52.1387
ENERGY: 1500000 2.1441 10.6183 12.5498 0.0000 -10810.4081 1497.2543 0.0000 0.0000 1738.7227 -7549.1190 298.4192 -9287.8416 -7471.0661 299.4580 504.5002 552.7217 29644.3249 -84.7672 -16.2886
TCL: Running FEP window  11: Lambda1 0.4999999999999996 Lambda2 0.4499999999999996 [dLambda -0.04999999999999999]
TCL: Setting parameter firsttimestep to 0
TCL: Setting parameter alchLambda to 0.4999999999999996
Info: NONBONDED TABLE R-SQUARED SPACING: 0.0625
Info: NONBONDED TABLE SIZE: 705 POINTS
TCL: Setting parameter alchLambda2 to 0.4499999999999996
Info: NONBONDED TABLE R-SQUARED SPACING: 0.0625
Info: NONBONDED TABLE SIZE: 705 POINTS
TCL: Running for 1500000 steps
ETITLE: TS BOND ANGLE DIHED IMPRP ELECT VDW BOUNDARY MISC KINETIC TOTAL TEMP POTENTIAL TOTALAVG TEMPAVG PRESSURE GPRESSURE VOLUME PRESSAVG GPRESSAVG
ENERGY: 0 2.1441 10.6183 12.5498 0.0000 -10810.5325 1497.8555 0.0000 0.0000 1737.8853 -7549.4795 298.2755 -9287.3648 -7549.4795 298.2755 479.5197 548.7862 29644.3249 479.5197 548.7862
ENERGY: 300000 2.1590 11.6376 11.3174 0.0000 -10722.1856 1461.4035 0.0000 0.0000 1765.9808 -7469.6873 303.0975 -9235.6681 -7508.1297 296.7836 197.7166 285.5699 30094.1474 411.2936 489.6946
ENERGY: 600000 4.6643 9.8850 10.7958 0.0000 -10455.6837 1357.0742 0.0000 0.0000 1729.5427 -7343.7217 296.8436 -9073.2644 -7499.8906 295.7186 -328.4019 -248.2846 30588.6039 82.1427 138.8932
ENERGY: 900000 1.5022 11.3738 8.8641 0.0000 -10785.5897 1500.1529 0.0000 0.0000 1721.8405 -7541.8562 295.5217 -9263.6967 -7492.5276 297.7610 624.7899 680.6320 29667.3287 240.1218 293.7818
ENERGY: 1200000 1.8443 9.5499 12.2043 0.0000 -10688.0623 1397.0887 0.0000 0.0000 1720.3159 -7547.0592 295.2600 -9267.3751 -7508.0695 296.5671 -245.0672 -201.4501 29778.2264 200.3449 254.0108
ENERGY: 1500000 2.2834 8.0518 12.7567 0.0000 -10781.5024 1479.0916 0.0000 0.0000 1776.8647 -7502.4543 304.9656 -9279.3190 -7504.6419 297.1170 146.5503 231.5069 30128.8780 134.8660 196.7300
TCL: Running FEP window  12: Lambda1 0.4499999999999996 Lambda2 0.39999999999999963 [dLambda -0.04999999999999999]
TCL: Setting parameter firsttimestep to 0
TCL: Setting parameter alchLambda to 0.4499999999999996
Info: NONBONDED TABLE R-SQUARED SPACING: 0.0625
Info: NONBONDED TABLE SIZE: 705 POINTS
TCL: Setting parameter alchLambda2 to 0.39999999999999963
Info: NONBONDED TABLE R-SQUARED SPACING: 0.0625
Info: NONBONDED TABLE SIZE: 705 POINTS
TCL: Running for 1500000 steps
ETITLE: TS BOND ANGLE DIHED IMPRP ELECT VDW BOUNDARY MISC KINETIC TOTAL TEMP POTENTIAL TOTALAVG TEMPAVG PRESSURE GPRESSURE VOLUME PRESSAVG GPRESSAVG
ENERGY: 0 2.2834 8.0518 12.7567 0.0000 -10781.5024 1479.8003 0.0000 0.0000 1775.9999 -7502.6104 304.8171 -9278.6102 -7502.6104 304.8171 156.4798 229.5206 30128.8780 156.4798 229.5206
ENERGY: 300000 2.7867 9.9374 9.5292 0.0000 -10527.7272 1302.3067 0.0000 0.0000 1708.7101 -7494.4570 293.2681 -9203.1672 -7449.2711 302.0073 -1131.8417 -1061.0445 30801.5204 -586.2323 -541.6685
ENERGY: 600000 4.2830 7.3260 9.9926 0.0000 -10703.4813 1406.8065 0.0000 0.0000 1729.4011 -7545.6721 296.8193 -9275.0732 -7474.7858 298.5628 -201.1455 -185.2141 29878.2177 -480.8086 -433.4811
ENERGY: 900000 2.0977 7.3525 10.4015 0.0000 -10549.5203 1333.2635 0.0000 0.0000 1696.8180 -7499.5872 291.2270 -9196.4051 -7488.1101 298.0975 -748.7336 -731.5713 30367.1215 -334.4087 -288.9615
ENERGY: 1200000 6.8433 8.5463 9.3677 0.0000 -10889.6253 1580.5012 0.0000 0.0000 1790.5596 -7493.8072 307.3160 -9284.3669 -7488.4732 298.4489 626.8026 684.3365 30392.8527 -192.6994 -142.3258
ENERGY: 1500000 1.2916 10.0609 8.8914 0.0000 -10751.0998 1423.3045 0.0000 0.0000 1790.1681 -7517.3834 307.2488 -9307.5514 -7487.0154 299.0035 -108.7615 -58.9624 29967.1645 -192.1259 -141.4751
TCL: Running FEP window  13: Lambda1 0.39999999999999963 Lambda2 0.34999999999999964 [dLambda -0.04999999999999999]
TCL: Setting parameter firsttimestep to 0
TCL: Setting parameter alchLambda to 0.39999999999999963
Info: NONBONDED TABLE R-SQUARED SPACING: 0.0625
Info: NONBONDED TABLE SIZE: 705 POINTS
TCL: Setting parameter alchLambda2 to 0.34999999999999964
Info: NONBONDED TABLE R-SQUARED SPACING: 0.0625
Info: NONBONDED TABLE SIZE: 705 POINTS
TCL: Running for 1500000 steps
ETITLE: TS BOND ANGLE DIHED IMPRP ELECT VDW BOUNDARY MISC KINETIC TOTAL TEMP POTENTIAL TOTALAVG TEMPAVG PRESSURE GPRESSURE VOLUME PRESSAVG GPRESSAVG
ENERGY: 0 1.2916 10.0609 8.8914 0.0000 -10751.0993 1423.5385 0.0000 0.0000 1789.2634 -7518.0535 307.0936 -9307.3169 -7518.0535 307.0936 -152.7886 -61.1572 29967.1645 -152.7886 -61.1572
ENERGY: 300000 1.5194 8.9427 10.3640 0.0000 -10660.0532 1415.7118 0.0000 0.0000 1753.4500 -7470.0653 300.9469 -9223.5153 -7463.2407 303.6573 -24.9863 21.3668 30042.9285 -102.0914 -48.7164
ENERGY: 600000 4.2376 10.2862 12.2427 0.0000 -10702.4099 1429.6028 0.0000 0.0000 1780.3910 -7465.6495 305.5708 -9246.0406 -7457.5024 303.2565 -244.4537 -129.8079 30228.8527 -116.8136 -48.5474
ENERGY: 900000 1.3149 8.0678 11.8480 0.0000 -10625.8094 1400.5466 0.0000 0.0000 1750.8998 -7453.1323 300.5092 -9204.0321 -7461.8922 302.7864 -236.5688 -170.7046 30343.9996 -199.4292 -130.0606
ENERGY: 1200000 3.9469 6.5383 10.5197 0.0000 -10665.9229 1400.8262 0.0000 0.0000 1723.3212 -7520.7707 295.7758 -9244.0919 -7463.7699 302.8312 -129.6231 -93.0389 29428.3160 -218.7962 -149.7235
ENERGY: 1500000 3.4998 8.8217 11.3075 0.0000 -10677.2962 1395.0015 0.0000 0.0000 1728.9661 -7529.6997 296.7446 -9258.6658 -7471.4763 302.0263 -385.5017 -351.7833 30085.3243 -178.2413 -107.5501
TCL: Running FEP window  14: Lambda1 0.34999999999999964 Lambda2 0.29999999999999966 [dLambda -0.04999999999999999]
TCL: Setting parameter firsttimestep to 0
TCL: Setting parameter alchLambda to 0.34999999999999964
Info: NONBONDED TABLE R-SQUARED SPACING: 0.0625
Info: NONBONDED TABLE SIZE: 705 POINTS
TCL: Setting parameter alchLambda2 to 0.29999999999999966
Info: NONBONDED TABLE R-SQUARED SPACING: 0.0625
Info: NONBONDED TABLE SIZE: 705 POINTS
TCL: Running for 1500000 steps
ETITLE: TS BOND ANGLE DIHED IMPRP ELECT VDW BOUNDARY MISC KINETIC TOTAL TEMP POTENTIAL TOTALAVG TEMPAVG PRESSURE GPRESSURE VOLUME PRESSAVG GPRESSAVG
ENERGY: 0 3.4998 8.8217 11.3075 0.0000 -10677.2971 1395.3548 0.0000 0.0000 1728.1250 -7530.1882 296.6003 -9258.3133 -7530.1882 296.6003 -440.8222 -354.4801 30085.3243 -440.8222 -354.4801
ENERGY: 300000 3.4324 7.7412 11.7402 0.0000 -10570.0196 1360.4613 0.0000 0.0000 1741.2806 -7445.3639 298.8582 -9186.6445 -7514.2165 301.8615 -764.6386 -651.4085 30427.5772 -296.9531 -213.1962
ENERGY: 600000 2.4992 10.2978 11.2734 0.0000 -10608.5934 1360.4706 0.0000 0.0000 1722.1668 -7501.8856 295.5777 -9224.0524 -7493.7223 300.4640 -594.1633 -576.1599 30358.8362 -322.8186 -266.8364
ENERGY: 900000 1.2866 9.0250 10.0824 0.0000 -10695.1894 1340.6230 0.0000 0.0000 1763.4245 -7570.7479 302.6588 -9334.1725 -7492.5960 300.9246 -662.2126 -662.8699 29698.7229 -240.5746 -183.4640
ENERGY: 1200000 2.4377 5.9214 9.3683 0.0000 -10673.2454 1440.7147 0.0000 0.0000 1715.1880 -7499.6152 294.3799 -9214.8032 -7477.6007 300.8408 85.5866 190.8945 30162.1481 -150.9123 -89.1975
ENERGY: 1500000 2.4238 6.6595 9.0638 0.0000 -10701.5470 1433.3651 0.0000 0.0000 1730.4101 -7519.6248 296.9925 -9250.0349 -7478.3400 299.8951 70.8535 135.4434 29965.7418 -133.5275 -73.1145
TCL: Running FEP window  15: Lambda1 0.29999999999999966 Lambda2 0.24999999999999967 [dLambda -0.04999999999999999]
TCL: Setting parameter firsttimestep to 0
TCL: Setting parameter alchLambda to 0.29999999999999966
Info: NONBONDED TABLE R-SQUARED SPACING: 0.0625
Info: NONBONDED TABLE SIZE: 705 POINTS
TCL: Setting parameter alchLambda2 to 0.24999999999999967
Info: NONBONDED TABLE R-SQUARED SPACING: 0.0625
Info: NONBONDED TABLE SIZE: 705 POINTS
TCL: Running for 1500000 steps
ETITLE: TS BOND ANGLE DIHED IMPRP ELECT VDW BOUNDARY MISC KINETIC TOTAL TEMP POTENTIAL TOTALAVG TEMPAVG PRESSURE GPRESSURE VOLUME PRESSAVG GPRESSAVG
ENERGY: 0 2.4238 6.6595 9.0638 0.0000 -10701.5456 1433.3388 0.0000 0.0000 1729.5594 -7520.5004 296.8465 -9250.0598 -7520.5004 296.8465 37.5893 126.9501 29965.7418 37.5893 126.9501
ENERGY: 300000 1.6008 10.2411 10.7532 0.0000 -10686.9501 1418.8683 0.0000 0.0000 1731.4317 -7514.0550 297.1678 -9245.4867 -7515.7885 297.3717 -174.2029 -63.2572 30156.4040 -193.1854 -111.4829
ENERGY: 600000 3.5658 8.3836 8.6877 0.0000 -10775.2050 1511.9133 0.0000 0.0000 1782.6573 -7459.9973 305.9597 -9242.6546 -7497.1976 301.0713 898.8848 913.9935 29649.0281 -90.2321 -17.7763
ENERGY: 900000 2.2952 7.2395 12.2446 0.0000 -10716.7588 1407.4106 0.0000 0.0000 1744.1278 -7543.4412 299.3469 -9287.5689 -7497.9871 302.1810 -49.8162 -27.1847 29464.0419 -46.6437 14.9867
ENERGY: 1200000 2.2078 6.6724 11.1721 0.0000 -10686.9960 1474.2637 0.0000 0.0000 1747.2697 -7445.4102 299.8861 -9192.6800 -7485.0516 301.5492 761.1567 808.9787 29578.7849 57.2914 113.2638
ENERGY: 1500000 6.7980 8.8946 13.4814 0.0000 -10552.5079 1288.0103 0.0000 0.0000 1692.3154 -7543.0082 290.4542 -9235.3236 -7491.8056 300.0335 -1206.9291 -1185.0641 30398.7596 66.6354 114.7508
TCL: Running FEP window  16: Lambda1 0.24999999999999967 Lambda2 0.19999999999999968 [dLambda -0.04999999999999999]
TCL: Setting parameter firsttimestep to 0
TCL: Setting parameter alchLambda to 0.24999999999999967
Info: NONBONDED TABLE R-SQUARED SPACING: 0.0625
Info: NONBONDED TABLE SIZE: 705 POINTS
TCL: Setting parameter alchLambda2 to 0.19999999999999968
Info: NONBONDED TABLE R-SQUARED SPACING: 0.0625
Info: NONBONDED TABLE SIZE: 705 POINTS
TCL: Running for 1500000 steps
ETITLE: TS BOND ANGLE DIHED IMPRP ELECT VDW BOUNDARY MISC KINETIC TOTAL TEMP POTENTIAL TOTALAVG TEMPAVG PRESSURE GPRESSURE VOLUME PRESSAVG GPRESSAVG
ENERGY: 0 6.7980 8.8946 13.4814 0.0000 -10552.5073 1288.4913 0.0000 0.0000 1691.4483 -7543.3937 290.3054 -9234.8420 -7543.3937 290.3054 -1258.0873 -1186.7378 30398.7596 -1258.0873 -1186.7378
ENERGY: 300000 2.3883 10.5262 9.0893 0.0000 -10701.0606 1435.2625 0.0000 0.0000 1762.1961 -7481.5981 302.4480 -9243.7942 -7472.2508 299.3966 79.4636 194.3581 29888.2207 -421.3157 -346.6550
ENERGY: 600000 4.0715 9.6732 9.9132 0.0000 -10654.7335 1406.3061 0.0000 0.0000 1766.8168 -7457.9528 303.2410 -9224.7696 -7459.5705 302.2977 -263.0999 -211.7761 30043.1800 -185.0717 -114.0468
ENERGY: 900000 1.0112 7.2334 10.1219 0.0000 -10773.3740 1455.0954 0.0000 0.0000 1766.0020 -7533.9102 303.1012 -9299.9121 -7479.2962 301.0992 103.4163 110.7537 29882.3674 -3.6908 53.9948
ENERGY: 1200000 4.7368 12.5541 10.5493 0.0000 -10733.1265 1474.8743 0.0000 0.0000 1778.0002 -7452.4118 305.1604 -9230.4120 -7486.5484 300.4816 247.7389 305.7708 29774.3657 76.0041 131.5617
ENERGY: 1500000 2.3601 7.0389 11.7178 0.0000 -10629.8833 1402.4605 0.0000 0.0000 1774.8363 -7431.4697 304.6174 -9206.3059 -7481.7389 300.6531 -141.1457 -122.5109 29903.4110 5.5557 60.5999
TCL: Running FEP window  17: Lambda1 0.19999999999999968 Lambda2 0.1499999999999997 [dLambda -0.04999999999999999]
TCL: Setting parameter firsttimestep to 0
TCL: Setting parameter alchLambda to 0.19999999999999968
Info: NONBONDED TABLE R-SQUARED SPACING: 0.0625
Info: NONBONDED TABLE SIZE: 705 POINTS
TCL: Setting parameter alchLambda2 to 0.1499999999999997
Info: NONBONDED TABLE R-SQUARED SPACING: 0.0625
Info: NONBONDED TABLE SIZE: 705 POINTS
TCL: Running for 1500000 steps
ETITLE: TS BOND ANGLE DIHED IMPRP ELECT VDW BOUNDARY MISC KINETIC TOTAL TEMP POTENTIAL TOTALAVG TEMPAVG PRESSURE GPRESSURE VOLUME PRESSAVG GPRESSAVG
ENERGY: 0 2.3601 7.0389 11.7178 0.0000 -10629.8828 1401.9192 0.0000 0.0000 1774.0018 -7432.8450 304.4742 -9206.8467 -7432.8450 304.4742 -209.3317 -133.2979 29903.4110 -209.3317 -133.2979
ENERGY: 300000 1.5131 5.4462 10.0576 0.0000 -10658.1891 1467.5898 0.0000 0.0000 1747.3834 -7426.1990 299.9056 -9173.5824 -7444.8378 300.4262 371.0098 404.9428 30099.3832 -236.8336 -159.9957
ENERGY: 600000 3.9118 12.9857 10.3977 0.0000 -10611.7788 1397.1814 0.0000 0.0000 1776.3042 -7410.9980 304.8694 -9187.3022 -7464.4715 298.8269 -305.4583 -248.3127 30138.9082 -151.7670 -95.7852
ENERGY: 900000 3.0667 6.1494 9.4818 0.0000 -10656.2157 1406.8411 0.0000 0.0000 1743.4818 -7487.1950 299.2360 -9230.6768 -7473.6082 300.6164 -575.7962 -486.3533 30412.2239 -230.0841 -179.4604
ENERGY: 1200000 3.2596 8.4807 10.1233 0.0000 -10620.6833 1402.4809 0.0000 0.0000 1770.8727 -7425.4663 303.9371 -9196.3389 -7462.8209 301.9131 -280.4328 -215.8347 30191.8277 -319.0538 -258.6537
ENERGY: 1500000 3.0527 9.0370 10.9885 0.0000 -10729.3074 1467.7485 0.0000 0.0000 1798.6816 -7439.7990 308.7100 -9238.4806 -7463.3278 302.3535 72.8621 151.7217 29999.6742 -246.8423 -178.0156
TCL: Running FEP window  18: Lambda1 0.1499999999999997 Lambda2 0.09999999999999969 [dLambda -0.05 ]
TCL: Setting parameter firsttimestep to 0
TCL: Setting parameter alchLambda to 0.1499999999999997
Info: NONBONDED TABLE R-SQUARED SPACING: 0.0625
Info: NONBONDED TABLE SIZE: 705 POINTS
TCL: Setting parameter alchLambda2 to 0.09999999999999969
Info: NONBONDED TABLE R-SQUARED SPACING: 0.0625
Info: NONBONDED TABLE SIZE: 705 POINTS
TCL: Running for 1500000 steps
ETITLE: TS BOND ANGLE DIHED IMPRP ELECT VDW BOUNDARY MISC KINETIC TOTAL TEMP POTENTIAL TOTALAVG TEMPAVG PRESSURE GPRESSURE VOLUME PRESSAVG GPRESSAVG
ENERGY: 0 3.0527 9.0370 10.9885 0.0000 -10729.3070 1467.8010 0.0000 0.0000 1797.8218 -7440.6059 308.5624 -9238.4277 -7440.6059 308.5624 56.6304 148.0154 29999.6742 56.6304 148.0154
ENERGY: 300000 2.6479 10.6184 11.2548 0.0000 -10767.6647 1429.3794 0.0000 0.0000 1787.0255 -7526.7387 306.7095 -9313.7642 -7497.0697 302.7292 -65.3074 -23.4134 29681.1936 97.0849 154.1428
ENERGY: 600000 1.4313 9.1975 13.6586 0.0000 -10699.3468 1424.2284 0.0000 0.0000 1707.2031 -7543.6280 293.0094 -9250.8310 -7488.8881 301.0353 7.5091 77.9368 29743.4342 75.6953 134.5802
ENERGY: 900000 4.0005 3.8269 10.0063 0.0000 -10665.4411 1407.9253 0.0000 0.0000 1732.7947 -7506.8875 297.4018 -9239.6821 -7489.1562 299.4440 -85.5000 -11.4933 29663.0794 62.4743 119.1444
ENERGY: 1200000 3.0651 9.8449 9.9669 0.0000 -10735.2142 1421.0626 0.0000 0.0000 1720.2188 -7571.0558 295.2433 -9291.2746 -7497.0631 299.7396 1.7485 47.9426 29672.3882 77.0416 136.3252
ENERGY: 1500000 3.4483 7.4556 10.4746 0.0000 -10744.2690 1461.2231 0.0000 0.0000 1710.3662 -7551.3012 293.5523 -9261.6674 -7495.5517 299.0139 352.9849 491.0682 29661.9315 94.5500 162.1362
TCL: Running FEP window  19: Lambda1 0.09999999999999969 Lambda2 0.049999999999999684 [dLambda -0.05 ]
TCL: Setting parameter firsttimestep to 0
TCL: Setting parameter alchLambda to 0.09999999999999969
Info: NONBONDED TABLE R-SQUARED SPACING: 0.0625
Info: NONBONDED TABLE SIZE: 705 POINTS
TCL: Setting parameter alchLambda2 to 0.049999999999999684
Info: NONBONDED TABLE R-SQUARED SPACING: 0.0625
Info: NONBONDED TABLE SIZE: 705 POINTS
TCL: Running for 1500000 steps
ETITLE: TS BOND ANGLE DIHED IMPRP ELECT VDW BOUNDARY MISC KINETIC TOTAL TEMP POTENTIAL TOTALAVG TEMPAVG PRESSURE GPRESSURE VOLUME PRESSAVG GPRESSAVG
ENERGY: 0 3.4483 7.4556 10.4746 0.0000 -10744.2673 1460.5772 0.0000 0.0000 1709.4786 -7552.8331 293.4000 -9262.3116 -7552.8331 293.4000 406.9181 485.6829 29661.9315 406.9181 485.6829
ENERGY: 300000 4.7335 10.1332 9.9597 0.0000 -10689.2404 1458.5729 0.0000 0.0000 1788.6303 -7417.2108 306.9849 -9205.8411 -7475.9226 299.9724 403.0997 442.6992 29446.4901 245.2071 305.7918
ENERGY: 600000 6.9561 7.6406 11.1969 0.0000 -10619.9339 1370.4654 0.0000 0.0000 1810.6033 -7413.0715 310.7561 -9223.6748 -7477.2701 302.5312 -610.6255 -525.5779 30423.5376 52.2062 126.7297
ENERGY: 900000 2.7551 10.8425 10.5366 0.0000 -10519.1706 1302.5136 0.0000 0.0000 1755.1909 -7437.3319 301.2457 -9192.5228 -7463.8436 303.1324 -1194.4772 -1084.6294 30464.7996 28.4465 96.8751
ENERGY: 1200000 2.2323 9.6831 11.2391 0.0000 -10513.0306 1390.0405 0.0000 0.0000 1781.6871 -7318.1486 305.7932 -9099.8357 -7453.7130 302.9922 -167.6118 -22.0931 30301.2434 -80.3890 -3.3849
ENERGY: 1500000 2.8472 11.1344 14.5037 0.0000 -10768.0650 1457.1950 0.0000 0.0000 1761.7985 -7520.5863 302.3797 -9282.3847 -7457.6064 302.8863 367.3373 357.9117 29416.0220 -114.8420 -43.2199
TCL: Running FEP window  20: Lambda1 0.049999999999999684 Lambda2 0.0    [dLambda -0.049999999999999684]
TCL: Setting parameter firsttimestep to 0
TCL: Setting parameter alchLambda to 0.049999999999999684
Info: NONBONDED TABLE R-SQUARED SPACING: 0.0625
Info: NONBONDED TABLE SIZE: 705 POINTS
TCL: Setting parameter alchLambda2 to 0.0
Info: NONBONDED TABLE R-SQUARED SPACING: 0.0625
Info: NONBONDED TABLE SIZE: 705 POINTS
TCL: Running for 1500000 steps
ETITLE: TS BOND ANGLE DIHED IMPRP ELECT VDW BOUNDARY MISC KINETIC TOTAL TEMP POTENTIAL TOTALAVG TEMPAVG PRESSURE GPRESSURE VOLUME PRESSAVG GPRESSAVG
ENERGY: 0 2.8472 11.1345 14.5037 0.0000 -10768.0639 1457.4449 0.0000 0.0000 1760.9206 -7521.2130 302.2290 -9282.1336 -7521.2130 302.2290 268.0296 356.7238 29416.0220 268.0296 356.7238
ENERGY: 300000 1.4844 6.8625 17.7896 0.0000 -10581.5903 1317.0136 0.0000 0.0000 1728.6218 -7509.8183 296.6856 -9238.4401 -7462.9655 302.1992 -757.0159 -598.0998 29299.3422 -332.9159 -232.3847
ENERGY: 600000 3.5396 6.0678 10.3394 0.0000 -10662.9641 1413.0584 0.0000 0.0000 1727.8595 -7502.0994 296.5547 -9229.9589 -7460.9053 299.6415 -10.0098 57.2875 29879.4107 -188.2715 -100.5205
ENERGY: 900000 3.1810 9.5175 9.6453 0.0000 -10779.2953 1577.0305 0.0000 0.0000 1774.5671 -7405.3539 304.5712 -9179.9210 -7454.0296 301.1109 1504.9005 1507.9907 29873.0802 -56.4088 23.7184
ENERGY: 1200000 2.1860 8.4392 11.2298 0.0000 -10721.4203 1387.3989 0.0000 0.0000 1836.5449 -7475.6216 315.2085 -9312.1665 -7456.0058 302.1308 -531.7059 -452.7379 29964.6677 -90.4107 -14.1830
ENERGY: 1500000 1.5795 9.2159 9.9691 0.0000 -10658.6182 1405.4452 0.0000 0.0000 1760.9311 -7471.4774 302.2308 -9232.4085 -7460.6010 302.6027 -185.2402 -148.4748 29908.4518 -31.7293 34.5212
TCL: Exiting due to exit command.
