Info: SIMULATION PARAMETERS:
Info: TIMESTEP               2
Info: NUMBER OF STEPS        0
Info: STEPS PER CYCLE        10
Info: PERIODIC CELL BASIS 1  31.4899 0 0
Info: PERIODIC CELL BASIS 2  0 29.9193 0
Info: PERIODIC CELL BASIS 3  0 0 31.761
Info: PERIODIC CELL CENTER   0 0 0
Info: WRAPPING WATERS AROUND PERIODIC BOUNDARIES ON OUTPUT.
Info: WRAPPING ALL CLUSTERS AROUND PERIODIC BOUNDARIES ON OUTPUT.
Info: FIRST LDB TIMESTEP     50
Info: LAST LDB TIMESTEP     -1
Info: HOM BACKGROUND SCALING 1
Info: PME BACKGROUND SCALING 1
Info: MIN ATOMS PER PATCH    40
Info: EMPTY PATCH LOAD       40 ATOMS
Info: VELOCITY FILE          mobley_5747188_equil.vel
Info: CENTER OF MASS MOVING INITIALLY? NO
Info: DIELECTRIC             1
Info: EXCLUDE                SCALED ONE-FOUR
Info: 1-4 ELECTROSTATICS SCALED BY 0.833333
Info: MODIFIED 1-4 VDW PARAMETERS WILL BE USED
Info: DCD FILENAME           mobley_5747188_prod.dcd
Info: DCD FREQUENCY          100000
Info: DCD FIRST STEP         100000
Info: DCD FILE WILL CONTAIN UNIT CELL DATA
Info: XST FILENAME           mobley_5747188_prod.xst
Info: XST FREQUENCY          100000
Info: NO VELOCITY DCD OUTPUT
Info: NO FORCE DCD OUTPUT
Info: OUTPUT FILENAME        mobley_5747188_prod
Info: BINARY OUTPUT FILES WILL BE USED
Info: RESTART FILENAME       mobley_5747188_prod.restart
Info: RESTART FREQUENCY      100000
Info: BINARY RESTART FILES WILL BE USED
Info: CUTOFF                 9
Info: PAIRLIST DISTANCE      11
Info: PAIRLIST SHRINK RATE   0.01
Info: PAIRLIST GROW RATE     0.01
Info: PAIRLIST TRIGGER       0.3
Info: PAIRLISTS PER CYCLE    2
Info: PAIRLISTS ENABLED
Info: MARGIN                 2
Info: HYDROGEN GROUP CUTOFF  2.5
Info: PATCH DIMENSION        15.5
Info: ENERGY OUTPUT STEPS    100000
Info: ENERGY EVALUATION STEPS    100000
Info: OUTPUT ENERGY PRECISION 4
Info: CROSSTERM ENERGY INCLUDED IN DIHEDRAL
Info: TIMING OUTPUT STEPS    1000000
Info: PRESSURE OUTPUT STEPS  100000
Info: ALCHEMICAL FEP ON
Info: FEP CURRENT LAMBDA VALUE     1
Info: FEP COMPARISON LAMBDA VALUE  0.95
Info: FEP INTRA-ALCHEMICAL NON-BONDED INTERACTIONS WILL BE RETAINED
Info: FEP INTRA-ALCHEMICAL BONDED INTERACTIONS WILL BE RETAINED
Info: FEP VDW SHIFTING COEFFICIENT 5
Info: FEP ELEC. ACTIVE FOR ANNIHILATED PARTICLES BETWEEN LAMBDA = 0 AND LAMBDA = 0.5
Info: FEP ELEC. ACTIVE FOR EXNIHILATED PARTICLES BETWEEN LAMBDA = 0.5 AND LAMBDA = 1
Info: FEP VDW ACTIVE FOR ANNIHILATED PARTICLES BETWEEN LAMBDA = 0 AND LAMBDA = 1
Info: FEP VDW ACTIVE FOR EXNIHILATED PARTICLES BETWEEN LAMBDA = 0 AND LAMBDA = 1
Info: FEP BOND ACTIVE FOR ANNIHILATED PARTICLES BETWEEN LAMBDA = 1 AND LAMBDA = 1
Info: FEP BOND ACTIVE FOR EXNIHILATED PARTICLES BETWEEN LAMBDA = 0 AND LAMBDA = 0
Info: LANGEVIN DYNAMICS ACTIVE
Info: LANGEVIN TEMPERATURE   300
Info: LANGEVIN USING BBK INTEGRATOR
Info: LANGEVIN DAMPING COEFFICIENT IS 1 INVERSE PS
Info: LANGEVIN DYNAMICS APPLIED TO HYDROGENS
Info: LANGEVIN PISTON PRESSURE CONTROL ACTIVE
Info:        TARGET PRESSURE IS 1.01325 BAR
Info:     OSCILLATION PERIOD IS 50 FS
Info:             DECAY TIME IS 25 FS
Info:     PISTON TEMPERATURE IS 300 K
Info:       PRESSURE CONTROL IS GROUP-BASED
Info:    INITIAL STRAIN RATE IS 0.000400276 0.000400276 0.000400276
Info:       CELL FLUCTUATION IS ISOTROPIC
Info: PARTICLE MESH EWALD (PME) ACTIVE
Info: PME TOLERANCE               1e-06
Info: PME EWALD COEFFICIENT       0.348832
Info: PME INTERPOLATION ORDER     4
Info: PME GRID DIMENSIONS         32 32 32
Info: PME MAXIMUM GRID SPACING    1
Info: PME CALCULATION WILL BE PERFORMED ON GPU
Info: FULL ELECTROSTATIC EVALUATION FREQUENCY      2
Info: USING VERLET I (r-RESPA) MTS SCHEME.
Info: C1 SPLITTING OF LONG RANGE ELECTROSTATICS
Info: PLACING ATOMS IN PATCHES BY HYDROGEN GROUPS
Info: RIGID BONDS TO HYDROGEN : ALL
Info:         ERROR TOLERANCE : 1e-08
Info:          MAX ITERATIONS : 100
Info: RIGID WATER USING SETTLE ALGORITHM
Info: RANDOM NUMBER SEED     1743766570
Info: USE HYDROGEN BONDS?    NO
Info: Using AMBER format force field!
Info: AMBER PARM FILE        mobley_5747188.prmtop
Info: COORDINATE PDB         mobley_5747188.pdb
Info: Exclusions will be read from PARM file!
Info: SCNB (VDW SCALING)     2
Info: USING ARITHMETIC MEAN TO COMBINE L-J SIGMA PARAMETERS
Info: BINARY COORDINATES     mobley_5747188_equil.coor
Info: SUMMARY OF PARAMETERS:
Info: 8 BONDS
Info: 8 ANGLES
Info:   8 HARMONIC
Info:   0 COSINE-BASED
Info: 4 DIHEDRAL
Info: 0 IMPROPER
Info: 0 CROSSTERM
Info: 0 VDW
Info: 36 VDW_PAIRS
Info: 0 NBTHOLE_PAIRS
Info: To read alchdata from file: mobley_5747188.pdb
Info: To read alchflag data from column: 5
Info: STRUCTURE SUMMARY:
Info: 2921 ATOMS
Info: 2921 BONDS
Info: 27 ANGLES
Info: 40 DIHEDRALS
Info: 0 IMPROPERS
Info: 0 CROSSTERMS
Info: 2979 EXCLUSIONS
Info: 2911 RIGID BONDS
Info: ALCH: 0 ATOMS TO DISAPPEAR IN FINAL STATE
Info: ALCH: 17 ATOMS TO APPEAR IN FINAL STATE
Info: 5852 DEGREES OF FREEDOM
Info: 978 HYDROGEN GROUPS
Info: 4 ATOMS IN LARGEST HYDROGEN GROUP
Info: 978 MIGRATION GROUPS
Info: 4 ATOMS IN LARGEST MIGRATION GROUP
Info: TOTAL MASS = 17576.6 amu
Info: TOTAL CHARGE = 0.000100022 e
Info: MASS DENSITY = 0.975388 g/cm^3
Info: ATOM DENSITY = 0.0976144 atoms/A^3
Info: ADDED 0 IMPLICIT EXCLUSIONS
Info: NONBONDED TABLE R-SQUARED SPACING: 0.0625
Info: NONBONDED TABLE SIZE: 705 POINTS
Info: REMOVING COM VELOCITY -0.0454443 0.051164 0.0189578
Info: Use 3D box decompostion in PME FFT.
Info: Updated CUDA force table with 4096 elements.
Info: Updated CUDA LJ table with 8 x 8 elements.
Info: Found 16 unique exclusion lists needing 36 bytes
TCL: Running for 1500000 steps
ETITLE: TS BOND ANGLE DIHED IMPRP ELECT VDW BOUNDARY MISC KINETIC TOTAL TEMP POTENTIAL TOTALAVG TEMPAVG PRESSURE GPRESSURE VOLUME PRESSAVG GPRESSAVG
ENERGY: 0 0.6300 3.4938 6.3907 0.0000 -10511.2333 1323.0266 0.0000 0.0000 1741.2730 -7436.4191 299.4697 -9177.6921 -7436.4191 299.4697 -569.9673 -478.5430 29923.8523 -569.9673 -478.5430
ENERGY: 300000 4.1487 5.5116 2.9363 0.0000 -10517.6039 1417.0748 0.0000 0.0000 1710.7256 -7377.2069 294.2161 -9087.9325 -7384.7408 298.5074 108.1251 192.9771 29971.8425 88.3006 153.0880
ENERGY: 600000 1.9674 5.6120 7.4104 0.0000 -10476.4717 1367.7614 0.0000 0.0000 1759.6400 -7334.0805 302.6286 -9093.7205 -7355.0835 299.8708 -424.8341 -315.5638 30404.3188 94.0974 156.5416
ENERGY: 900000 1.4742 4.9634 3.9367 0.0000 -10557.8257 1462.6366 0.0000 0.0000 1793.2056 -7291.6093 308.4013 -9084.8149 -7358.5017 301.0587 365.6680 450.3665 30475.0692 51.9390 123.0451
ENERGY: 1200000 4.2015 10.0118 5.2115 0.0000 -10737.5361 1506.8352 0.0000 0.0000 1753.5049 -7457.7712 301.5734 -9211.2762 -7367.8145 301.0645 778.0513 869.7901 29404.6932 140.7675 205.3917
ENERGY: 1500000 4.1316 4.2421 6.0203 0.0000 -10720.0998 1476.4831 0.0000 0.0000 1769.2775 -7459.9452 304.2860 -9229.2227 -7377.6349 300.5732 265.8089 238.2061 29650.9719 101.1386 161.2865
TCL: Running FEP window   2: Lambda1 0.95   Lambda2 0.8999999999999999 [dLambda -0.050000000000000044]
TCL: Setting parameter firsttimestep to 0
TCL: Setting parameter alchLambda to 0.95
Info: NONBONDED TABLE R-SQUARED SPACING: 0.0625
Info: NONBONDED TABLE SIZE: 705 POINTS
TCL: Setting parameter alchLambda2 to 0.8999999999999999
Info: NONBONDED TABLE R-SQUARED SPACING: 0.0625
Info: NONBONDED TABLE SIZE: 705 POINTS
TCL: Running for 1500000 steps
ETITLE: TS BOND ANGLE DIHED IMPRP ELECT VDW BOUNDARY MISC KINETIC TOTAL TEMP POTENTIAL TOTALAVG TEMPAVG PRESSURE GPRESSURE VOLUME PRESSAVG GPRESSAVG
ENERGY: 0 4.1316 4.2421 6.0203 0.0000 -10719.2033 1476.2039 0.0000 0.0000 1768.3731 -7460.2324 304.1305 -9228.6054 -7460.2324 304.1305 141.2434 223.7991 29650.9719 141.2434 223.7991
ENERGY: 300000 4.3388 5.7644 3.4397 0.0000 -10510.2927 1373.4731 0.0000 0.0000 1748.7824 -7374.4943 300.7612 -9123.2767 -7436.5475 298.5139 -229.2582 -138.5761 29959.8309 114.1159 191.8461
ENERGY: 600000 3.8198 5.7931 4.9862 0.0000 -10411.3242 1314.9710 0.0000 0.0000 1720.0304 -7361.7236 295.8164 -9081.7540 -7389.2040 298.4403 -939.1852 -903.0559 30623.1504 -86.3913 -8.4070
ENERGY: 900000 4.9071 4.2169 6.7985 0.0000 -10614.8346 1459.3476 0.0000 0.0000 1730.5756 -7408.9888 297.6300 -9139.5644 -7396.9914 298.8125 -11.1569 26.8823 30193.9856 -29.8385 37.0834
ENERGY: 1200000 3.2897 6.3068 7.1924 0.0000 -10642.8211 1487.7045 0.0000 0.0000 1730.4295 -7407.8982 297.6048 -9138.3277 -7402.0901 299.2306 356.9742 423.3003 30305.6839 30.9621 93.4306
ENERGY: 1500000 3.5365 4.5399 7.2161 0.0000 -10478.6787 1404.9844 0.0000 0.0000 1752.0189 -7306.3829 301.3178 -9058.4018 -7401.4518 299.1038 193.8151 246.0512 30303.1400 42.7435 102.1177
TCL: Running FEP window   3: Lambda1 0.8999999999999999 Lambda2 0.8499999999999999 [dLambda -0.050000000000000044]
TCL: Setting parameter firsttimestep to 0
TCL: Setting parameter alchLambda to 0.8999999999999999
Info: NONBONDED TABLE R-SQUARED SPACING: 0.0625
Info: NONBONDED TABLE SIZE: 705 POINTS
TCL: Setting parameter alchLambda2 to 0.8499999999999999
Info: NONBONDED TABLE R-SQUARED SPACING: 0.0625
Info: NONBONDED TABLE SIZE: 705 POINTS
TCL: Running for 1500000 steps
ETITLE: TS BOND ANGLE DIHED IMPRP ELECT VDW BOUNDARY MISC KINETIC TOTAL TEMP POTENTIAL TOTALAVG TEMPAVG PRESSURE GPRESSURE VOLUME PRESSAVG GPRESSAVG
ENERGY: 0 3.5365 4.5399 7.2161 0.0000 -10477.8216 1405.2512 0.0000 0.0000 1751.1566 -7306.1213 301.1695 -9057.2779 -7306.1213 301.1695 134.7264 230.9992 30303.1400 134.7264 230.9992
ENERGY: 300000 2.9607 4.1477 2.9269 0.0000 -10484.8812 1323.9335 0.0000 0.0000 1730.8632 -7420.0493 297.6794 -9150.9125 -7358.2144 303.3275 -673.3071 -617.3219 30098.7320 -142.6536 -71.2011
ENERGY: 600000 1.4604 3.8466 5.1972 0.0000 -10664.9888 1552.9004 0.0000 0.0000 1762.4749 -7339.1093 303.1161 -9101.5842 -7343.3267 304.4474 1230.4554 1283.2255 30150.9113 38.9817 106.9999
ENERGY: 900000 1.9090 5.0723 9.1949 0.0000 -10574.9258 1465.0550 0.0000 0.0000 1765.0802 -7328.6144 303.5642 -9093.6946 -7353.0418 303.7722 431.2049 492.8281 30264.4854 137.0427 212.8436
ENERGY: 1200000 4.4811 8.1251 4.5755 0.0000 -10570.6949 1473.8904 0.0000 0.0000 1711.5887 -7368.0341 294.3645 -9079.6227 -7363.0296 302.3160 546.5254 596.5696 29865.0115 140.0935 203.9554
ENERGY: 1500000 1.8261 8.8992 5.2412 0.0000 -10514.2273 1397.8565 0.0000 0.0000 1761.4191 -7338.9853 302.9345 -9100.4043 -7365.6412 301.6588 148.4222 201.5570 29926.0556 207.3853 265.4055
TCL: Running FEP window   4: Lambda1 0.8499999999999999 Lambda2 0.7999999999999998 [dLambda -0.050000000000000044]
TCL: Setting parameter firsttimestep to 0
TCL: Setting parameter alchLambda to 0.8499999999999999
Info: NONBONDED TABLE R-SQUARED SPACING: 0.0625
Info: NONBONDED TABLE SIZE: 705 POINTS
TCL: Setting parameter alchLambda2 to 0.7999999999999998
Info: NONBONDED TABLE R-SQUARED SPACING: 0.0625
Info: NONBONDED TABLE SIZE: 705 POINTS
TCL: Running for 1500000 steps
ETITLE: TS BOND ANGLE DIHED IMPRP ELECT VDW BOUNDARY MISC KINETIC TOTAL TEMP POTENTIAL TOTALAVG TEMPAVG PRESSURE GPRESSURE VOLUME PRESSAVG GPRESSAVG
ENERGY: 0 1.8261 8.8991 5.2412 0.0000 -10513.4854 1398.1546 0.0000 0.0000 1760.5575 -7338.8068 302.7863 -9099.3643 -7338.8068 302.7863 109.7157 195.1462 29926.0556 109.7157 195.1462
ENERGY: 300000 4.7037 6.9453 4.8267 0.0000 -10525.7416 1428.2621 0.0000 0.0000 1746.4676 -7334.5362 300.3631 -9081.0038 -7315.3406 305.1146 545.1216 577.3031 29871.6651 166.6908 225.2212
ENERGY: 600000 4.3353 4.3642 5.4152 0.0000 -10681.0083 1438.5075 0.0000 0.0000 1722.3970 -7505.9892 296.2234 -9228.3862 -7359.6654 301.7900 -29.0723 81.8937 29664.6603 226.2704 305.9585
ENERGY: 900000 3.2616 4.9865 5.6135 0.0000 -10419.1333 1321.0001 0.0000 0.0000 1722.1401 -7362.1316 296.1792 -9084.2716 -7354.3005 302.6240 -602.9455 -531.1180 30001.8672 69.0693 140.9724
ENERGY: 1200000 2.8358 5.2707 8.5758 0.0000 -10351.5067 1331.2880 0.0000 0.0000 1762.8891 -7240.6473 303.1873 -9003.5364 -7357.5552 301.4458 -254.6367 -181.6790 30393.9716 -32.9167 39.1596
ENERGY: 1500000 1.3383 8.1801 5.6763 0.0000 -10563.0891 1433.5225 0.0000 0.0000 1769.2033 -7345.1686 304.2733 -9114.3719 -7366.3807 300.8876 197.0680 294.3025 29978.1460 -18.0864 61.1100
TCL: Running FEP window   5: Lambda1 0.7999999999999998 Lambda2 0.7499999999999998 [dLambda -0.050000000000000044]
TCL: Setting parameter firsttimestep to 0
TCL: Setting parameter alchLambda to 0.7999999999999998
Info: NONBONDED TABLE R-SQUARED SPACING: 0.0625
Info: NONBONDED TABLE SIZE: 705 POINTS
TCL: Setting parameter alchLambda2 to 0.7499999999999998
Info: NONBONDED TABLE R-SQUARED SPACING: 0.0625
Info: NONBONDED TABLE SIZE: 705 POINTS
TCL: Running for 1500000 steps
ETITLE: TS BOND ANGLE DIHED IMPRP ELECT VDW BOUNDARY MISC KINETIC TOTAL TEMP POTENTIAL TOTALAVG TEMPAVG PRESSURE GPRESSURE VOLUME PRESSAVG GPRESSAVG
ENERGY: 0 1.3383 8.1801 5.6763 0.0000 -10562.8813 1433.9790 0.0000 0.0000 1768.3353 -7345.3724 304.1240 -9113.7077 -7345.3724 304.1240 209.4906 289.5849 29978.1460 209.4906 289.5849
ENERGY: 300000 7.7949 7.6397 6.5176 0.0000 -10482.4855 1370.5184 0.0000 0.0000 1812.7953 -7277.2196 311.7704 -9090.0149 -7369.2032 299.9857 -627.0269 -526.1390 30394.5042 -143.4310 -70.8857
ENERGY: 600000 2.4637 3.6523 5.3059 0.0000 -10453.0945 1403.0770 0.0000 0.0000 1692.0032 -7346.5925 290.9962 -9038.5957 -7382.6188 298.7457 102.0380 164.6089 30356.0500 -59.0563 2.1278
ENERGY: 900000 4.9548 6.7384 7.5163 0.0000 -10623.6590 1450.6443 0.0000 0.0000 1770.5165 -7383.2887 304.4991 -9153.8052 -7374.3577 301.3115 -42.9754 60.6867 30303.3954 -30.6429 29.0688
ENERGY: 1200000 2.1396 3.1663 6.2211 0.0000 -10619.7279 1432.3849 0.0000 0.0000 1736.6597 -7439.1564 298.6763 -9175.8161 -7401.5557 299.5416 -340.3802 -246.7039 30458.9808 -75.7800 -14.1009
ENERGY: 1500000 3.8201 6.2454 7.2230 0.0000 -10616.5462 1442.4281 0.0000 0.0000 1696.1223 -7460.7073 291.7046 -9156.8296 -7404.6673 298.4470 99.9568 173.1793 29878.5350 -77.4446 -9.9961
TCL: Running FEP window   6: Lambda1 0.7499999999999998 Lambda2 0.6999999999999997 [dLambda -0.050000000000000044]
TCL: Setting parameter firsttimestep to 0
TCL: Setting parameter alchLambda to 0.7499999999999998
Info: NONBONDED TABLE R-SQUARED SPACING: 0.0625
Info: NONBONDED TABLE SIZE: 705 POINTS
TCL: Setting parameter alchLambda2 to 0.6999999999999997
Info: NONBONDED TABLE R-SQUARED SPACING: 0.0625
Info: NONBONDED TABLE SIZE: 705 POINTS
TCL: Running for 1500000 steps
ETITLE: TS BOND ANGLE DIHED IMPRP ELECT VDW BOUNDARY MISC KINETIC TOTAL TEMP POTENTIAL TOTALAVG TEMPAVG PRESSURE GPRESSURE VOLUME PRESSAVG GPRESSAVG
ENERGY: 0 3.8201 6.2454 7.2230 0.0000 -10615.8624 1441.6159 0.0000 0.0000 1695.2513 -7461.7068 291.5548 -9156.9580 -7461.7068 291.5548 75.7019 153.1812 29878.5350 75.7019 153.1812
ENERGY: 300000 9.0322 4.2010 6.2229 0.0000 -10435.4645 1329.0259 0.0000 0.0000 1747.0167 -7339.9658 300.4575 -9086.9824 -7394.6798 297.3490 -1262.0600 -1096.2061 30560.9431 -279.8067 -186.2662
ENERGY: 600000 2.5435 4.3879 8.4337 0.0000 -10504.7561 1338.4350 0.0000 0.0000 1730.8967 -7420.0593 297.6852 -9150.9560 -7390.2885 298.7506 -517.7957 -486.1114 29682.2657 -8.9810 86.2341
ENERGY: 900000 2.1072 6.9929 7.0960 0.0000 -10524.0765 1381.0424 0.0000 0.0000 1775.7578 -7351.0803 305.4005 -9126.8381 -7371.8153 299.1275 -456.9386 -323.6117 30038.6765 -144.2096 -59.7677
ENERGY: 1200000 4.6267 5.4295 6.9344 0.0000 -10614.7721 1426.8971 0.0000 0.0000 1738.8953 -7431.9892 299.0608 -9170.8845 -7374.7831 299.2761 -366.0966 -274.0392 30126.5471 -109.3361 -33.5968
ENERGY: 1500000 1.4557 6.5841 6.2600 0.0000 -10664.6460 1404.6039 0.0000 0.0000 1826.7265 -7419.0158 314.1663 -9245.7423 -7378.2604 300.4255 -422.2672 -368.5871 30437.6265 -171.2542 -93.4197
TCL: Running FEP window   7: Lambda1 0.6999999999999997 Lambda2 0.6499999999999997 [dLambda -0.050000000000000044]
TCL: Setting parameter firsttimestep to 0
TCL: Setting parameter alchLambda to 0.6999999999999997
Info: NONBONDED TABLE R-SQUARED SPACING: 0.0625
Info: NONBONDED TABLE SIZE: 705 POINTS
TCL: Setting parameter alchLambda2 to 0.6499999999999997
Info: NONBONDED TABLE R-SQUARED SPACING: 0.0625
Info: NONBONDED TABLE SIZE: 705 POINTS
TCL: Running for 1500000 steps
ETITLE: TS BOND ANGLE DIHED IMPRP ELECT VDW BOUNDARY MISC KINETIC TOTAL TEMP POTENTIAL TOTALAVG TEMPAVG PRESSURE GPRESSURE VOLUME PRESSAVG GPRESSAVG
ENERGY: 0 1.4557 6.5841 6.2600 0.0000 -10664.0748 1404.7937 0.0000 0.0000 1825.8347 -7419.1466 314.0129 -9244.9813 -7419.1466 314.0129 -466.2731 -376.1683 30437.6265 -466.2731 -376.1683
ENERGY: 300000 5.4727 7.1650 3.5310 0.0000 -10632.5672 1433.9456 0.0000 0.0000 1782.2955 -7400.1573 306.5249 -9182.4528 -7367.4190 305.4170 48.7154 144.7913 29776.2373 -204.1225 -120.9146
ENERGY: 600000 3.2428 5.0861 3.5418 0.0000 -10665.8713 1447.5128 0.0000 0.0000 1718.3661 -7488.1217 295.5301 -9206.4878 -7387.2738 302.1082 -70.7405 -27.4902 29998.8205 -219.0904 -153.8307
ENERGY: 900000 3.5744 7.2578 4.5949 0.0000 -10539.0578 1441.4981 0.0000 0.0000 1712.6861 -7369.4466 294.5533 -9082.1326 -7388.2598 301.3179 591.5684 672.9756 29757.8280 -130.4272 -68.7854
ENERGY: 1200000 3.2083 4.8900 7.2441 0.0000 -10552.7920 1404.4974 0.0000 0.0000 1720.7266 -7412.2256 295.9361 -9132.9522 -7393.3014 300.5353 -276.6750 -199.8778 30082.2416 -153.8733 -90.4032
ENERGY: 1500000 2.3837 7.0043 6.2606 0.0000 -10477.9275 1337.7546 0.0000 0.0000 1726.3993 -7398.1250 296.9117 -9124.5243 -7384.7315 300.5431 -577.5128 -492.2999 30048.5195 -204.3805 -137.2039
TCL: Running FEP window   8: Lambda1 0.6499999999999997 Lambda2 0.5999999999999996 [dLambda -0.050000000000000044]
TCL: Setting parameter firsttimestep to 0
TCL: Setting parameter alchLambda to 0.6499999999999997
Info: NONBONDED TABLE R-SQUARED SPACING: 0.0625
Info: NONBONDED TABLE SIZE: 705 POINTS
TCL: Setting parameter alchLambda2 to 0.5999999999999996
Info: NONBONDED TABLE R-SQUARED SPACING: 0.0625
Info: NONBONDED TABLE SIZE: 705 POINTS
TCL: Running for 1500000 steps
ETITLE: TS BOND ANGLE DIHED IMPRP ELECT VDW BOUNDARY MISC KINETIC TOTAL TEMP POTENTIAL TOTALAVG TEMPAVG PRESSURE GPRESSURE VOLUME PRESSAVG GPRESSAVG
ENERGY: 0 2.3837 7.0043 6.2606 0.0000 -10477.4353 1337.7839 0.0000 0.0000 1725.5390 -7398.4638 296.7638 -9124.0028 -7398.4638 296.7638 -587.1844 -500.7314 30048.5195 -587.1844 -500.7314
ENERGY: 300000 4.5984 4.0949 4.7476 0.0000 -10660.5293 1481.2026 0.0000 0.0000 1714.8815 -7451.0043 294.9308 -9165.8858 -7390.0087 298.5850 501.2370 535.4497 29899.5958 59.0409 96.2813
ENERGY: 600000 4.0027 5.8960 7.3297 0.0000 -10474.2764 1356.6233 0.0000 0.0000 1648.7135 -7451.7113 283.5510 -9100.4248 -7386.1433 298.3645 -526.9814 -551.8678 30289.7072 -156.0255 -101.3155
ENERGY: 900000 3.4722 4.5051 8.4264 0.0000 -10533.4452 1364.4509 0.0000 0.0000 1714.3088 -7438.2818 294.8323 -9152.5906 -7390.3435 298.6689 -560.0701 -510.8679 30081.2423 -129.7038 -62.6124
ENERGY: 1200000 4.8405 8.0071 5.9928 0.0000 -10610.5886 1466.2048 0.0000 0.0000 1770.2139 -7355.3296 304.4471 -9125.5435 -7380.7905 299.7456 405.0985 424.3401 29905.5735 -144.1621 -79.3900
ENERGY: 1500000 4.8392 4.6055 6.7172 0.0000 -10550.3877 1413.3468 0.0000 0.0000 1755.1980 -7365.6810 301.8646 -9120.8790 -7375.5806 299.7228 -240.4649 -174.8183 30290.7688 -215.9314 -157.5762
TCL: Running FEP window   9: Lambda1 0.5999999999999996 Lambda2 0.5499999999999996 [dLambda -0.050000000000000044]
TCL: Setting parameter firsttimestep to 0
TCL: Setting parameter alchLambda to 0.5999999999999996
Info: NONBONDED TABLE R-SQUARED SPACING: 0.0625
Info: NONBONDED TABLE SIZE: 705 POINTS
TCL: Setting parameter alchLambda2 to 0.5499999999999996
Info: NONBONDED TABLE R-SQUARED SPACING: 0.0625
Info: NONBONDED TABLE SIZE: 705 POINTS
TCL: Running for 1500000 steps
ETITLE: TS BOND ANGLE DIHED IMPRP ELECT VDW BOUNDARY MISC KINETIC TOTAL TEMP POTENTIAL TOTALAVG TEMPAVG PRESSURE GPRESSURE VOLUME PRESSAVG GPRESSAVG
ENERGY: 0 4.8392 4.6055 6.7172 0.0000 -10550.8374 1413.2239 0.0000 0.0000 1754.3544 -7367.0973 301.7195 -9121.4517 -7367.0973 301.7195 -284.2276 -188.1129 30290.7688 -284.2276 -188.1129
ENERGY: 300000 1.1026 9.7965 4.2560 0.0000 -10574.3725 1385.4608 0.0000 0.0000 1755.1724 -7418.5842 301.8602 -9173.7566 -7368.6437 304.1121 -268.3687 -246.7178 30282.5337 -149.0377 -67.8874
ENERGY: 600000 0.6923 4.7649 6.0102 0.0000 -10604.2070 1486.6303 0.0000 0.0000 1726.3361 -7379.7733 296.9008 -9106.1094 -7387.6582 302.8824 579.6108 625.2485 30112.8411 255.5423 332.8579
ENERGY: 900000 3.8556 4.9009 4.6822 0.0000 -10634.0881 1438.9547 0.0000 0.0000 1683.1522 -7498.5425 289.4739 -9181.6947 -7382.9507 300.9641 -36.5839 28.3376 30122.4004 197.0534 265.2415
ENERGY: 1200000 2.6635 5.4048 3.9380 0.0000 -10642.8454 1479.6940 0.0000 0.0000 1781.4834 -7369.6618 306.3852 -9151.1451 -7383.8711 300.9992 992.2548 1003.4593 29212.0099 246.5931 305.0660
ENERGY: 1500000 6.0913 5.1175 5.1641 0.0000 -10564.6059 1431.9978 0.0000 0.0000 1725.2526 -7390.9827 296.7145 -9116.2353 -7378.5674 301.7650 -14.8961 76.6063 29999.7847 180.3642 241.9858
TCL: Running FEP window  10: Lambda1 0.5499999999999996 Lambda2 0.4999999999999996 [dLambda -0.04999999999999999]
TCL: Setting parameter firsttimestep to 0
TCL: Setting parameter alchLambda to 0.5499999999999996
Info: NONBONDED TABLE R-SQUARED SPACING: 0.0625
Info: NONBONDED TABLE SIZE: 705 POINTS
TCL: Setting parameter alchLambda2 to 0.4999999999999996
Info: NONBONDED TABLE R-SQUARED SPACING: 0.0625
Info: NONBONDED TABLE SIZE: 705 POINTS
TCL: Running for 1500000 steps
ETITLE: TS BOND ANGLE DIHED IMPRP ELECT VDW BOUNDARY MISC KINETIC TOTAL TEMP POTENTIAL TOTALAVG TEMPAVG PRESSURE GPRESSURE VOLUME PRESSAVG GPRESSAVG
ENERGY: 0 6.0912 5.1175 5.1641 0.0000 -10564.4137 1432.5855 0.0000 0.0000 1724.3919 -7391.0634 296.5665 -9115.4554 -7391.0634 296.5665 6.8532 76.6083 29999.7847 6.8532 76.6083
ENERGY: 300000 3.5082 6.2419 7.1726 0.0000 -10506.7046 1373.0725 0.0000 0.0000 1691.9405 -7424.7689 290.9854 -9116.7094 -7362.9384 299.3667 -377.2006 -284.5532 30030.1326 -208.3066 -145.1787
ENERGY: 600000 4.1527 4.2924 4.1769 0.0000 -10535.0186 1396.2666 0.0000 0.0000 1703.8310 -7422.2991 293.0303 -9126.1300 -7400.5463 297.9347 -386.0775 -313.6795 29897.0559 -188.4941 -123.0420
ENERGY: 900000 2.3941 4.8003 4.8804 0.0000 -10587.1028 1442.4723 0.0000 0.0000 1706.1165 -7426.4392 293.4234 -9132.5557 -7403.8599 298.5470 -133.3016 -48.6155 30429.4137 -159.1564 -95.6571
ENERGY: 1200000 2.9303 8.1393 4.4687 0.0000 -10668.9052 1468.9276 0.0000 0.0000 1805.4837 -7378.9556 310.5129 -9184.4392 -7403.3392 299.3796 471.1058 499.3050 29982.7105 -62.2407 -2.4052
ENERGY: 1500000 5.9543 4.0598 5.9123 0.0000 -10636.1308 1452.2541 0.0000 0.0000 1734.9155 -7433.0349 298.3763 -9167.9504 -7398.8439 300.1521 115.3248 213.0758 29748.2455 -80.4514 -15.3583
TCL: Running FEP window  11: Lambda1 0.4999999999999996 Lambda2 0.4499999999999996 [dLambda -0.04999999999999999]
TCL: Setting parameter firsttimestep to 0
TCL: Setting parameter alchLambda to 0.4999999999999996
Info: NONBONDED TABLE R-SQUARED SPACING: 0.0625
Info: NONBONDED TABLE SIZE: 705 POINTS
TCL: Setting parameter alchLambda2 to 0.4499999999999996
Info: NONBONDED TABLE R-SQUARED SPACING: 0.0625
Info: NONBONDED TABLE SIZE: 705 POINTS
TCL: Running for 1500000 steps
ETITLE: TS BOND ANGLE DIHED IMPRP ELECT VDW BOUNDARY MISC KINETIC TOTAL TEMP POTENTIAL TOTALAVG TEMPAVG PRESSURE GPRESSURE VOLUME PRESSAVG GPRESSAVG
ENERGY: 0 5.9543 4.0598 5.9123 0.0000 -10635.9233 1452.9338 0.0000 0.0000 1734.0836 -7432.9795 298.2333 -9167.0631 -7432.9795 298.2333 116.2735 212.6679 29748.2455 116.2735 212.6679
ENERGY: 300000 1.7625 3.8913 5.5811 0.0000 -10499.3481 1411.6353 0.0000 0.0000 1717.9870 -7358.4909 295.4649 -9076.4779 -7421.2070 293.8964 -47.2168 26.7058 30255.6824 34.3549 109.8036
ENERGY: 600000 2.7244 3.6284 6.5300 0.0000 -10432.5380 1378.4997 0.0000 0.0000 1745.4615 -7295.6941 300.1901 -9041.1556 -7385.3344 297.2009 -234.9733 -128.7690 30205.9586 -171.4876 -114.1290
ENERGY: 900000 1.9005 6.1994 3.5296 0.0000 -10610.2674 1485.9468 0.0000 0.0000 1811.2925 -7301.3985 311.5119 -9112.6910 -7359.9308 300.1988 409.4798 432.3026 30415.2565 -71.0843 -29.4061
ENERGY: 1200000 1.5123 5.1154 5.5389 0.0000 -10652.7591 1471.0702 0.0000 0.0000 1785.6962 -7383.8260 307.1098 -9169.5222 -7361.8371 300.4046 540.4444 596.0527 29361.3424 21.6632 66.8257
ENERGY: 1500000 2.2035 4.8795 5.3149 0.0000 -10382.4829 1316.2330 0.0000 0.0000 1707.4628 -7346.3894 293.6549 -9053.8521 -7365.3343 300.5878 -897.8600 -793.1419 30423.2744 -68.9444 -16.8442
TCL: Running FEP window  12: Lambda1 0.4499999999999996 Lambda2 0.39999999999999963 [dLambda -0.04999999999999999]
TCL: Setting parameter firsttimestep to 0
TCL: Setting parameter alchLambda to 0.4499999999999996
Info: NONBONDED TABLE R-SQUARED SPACING: 0.0625
Info: NONBONDED TABLE SIZE: 705 POINTS
TCL: Setting parameter alchLambda2 to 0.39999999999999963
Info: NONBONDED TABLE R-SQUARED SPACING: 0.0625
Info: NONBONDED TABLE SIZE: 705 POINTS
TCL: Running for 1500000 steps
ETITLE: TS BOND ANGLE DIHED IMPRP ELECT VDW BOUNDARY MISC KINETIC TOTAL TEMP POTENTIAL TOTALAVG TEMPAVG PRESSURE GPRESSURE VOLUME PRESSAVG GPRESSAVG
ENERGY: 0 2.2035 4.8795 5.3149 0.0000 -10382.4833 1316.5200 0.0000 0.0000 1706.5658 -7346.9996 293.5007 -9053.5654 -7346.9996 293.5007 -875.8090 -795.9422 30423.2744 -875.8090 -795.9422
ENERGY: 300000 4.1767 4.5894 6.0707 0.0000 -10556.1773 1475.8087 0.0000 0.0000 1775.5347 -7289.9971 305.3622 -9065.5318 -7357.2848 299.3042 197.4512 343.9846 30265.3330 -18.8307 54.3392
ENERGY: 600000 3.0464 4.0482 2.9501 0.0000 -10656.4182 1527.7209 0.0000 0.0000 1745.4174 -7373.2352 300.1825 -9118.6525 -7371.4738 298.1572 646.3199 702.2473 30121.7821 -77.9119 -15.0482
ENERGY: 900000 8.4093 5.0737 5.7916 0.0000 -10581.9103 1393.4256 0.0000 0.0000 1706.3912 -7462.8190 293.4706 -9169.2102 -7398.8305 297.3159 -704.5735 -565.6226 29949.1040 -165.5018 -98.4723
ENERGY: 1200000 4.0167 5.7028 3.6055 0.0000 -10592.7544 1455.9140 0.0000 0.0000 1755.0836 -7368.4319 301.8449 -9123.5155 -7407.5242 296.1962 281.4950 393.9697 29587.4476 -196.1943 -129.7033
ENERGY: 1500000 1.8941 5.3850 7.1706 0.0000 -10630.2916 1450.4485 0.0000 0.0000 1760.0029 -7405.3906 302.6910 -9165.3935 -7414.5257 296.5262 46.9350 111.2354 30140.7061 -215.7482 -145.7564
TCL: Running FEP window  13: Lambda1 0.39999999999999963 Lambda2 0.34999999999999964 [dLambda -0.04999999999999999]
TCL: Setting parameter firsttimestep to 0
TCL: Setting parameter alchLambda to 0.39999999999999963
Info: NONBONDED TABLE R-SQUARED SPACING: 0.0625
Info: NONBONDED TABLE SIZE: 705 POINTS
TCL: Setting parameter alchLambda2 to 0.34999999999999964
Info: NONBONDED TABLE R-SQUARED SPACING: 0.0625
Info: NONBONDED TABLE SIZE: 705 POINTS
TCL: Running for 1500000 steps
ETITLE: TS BOND ANGLE DIHED IMPRP ELECT VDW BOUNDARY MISC KINETIC TOTAL TEMP POTENTIAL TOTALAVG TEMPAVG PRESSURE GPRESSURE VOLUME PRESSAVG GPRESSAVG
ENERGY: 0 1.8940 5.3850 7.1706 0.0000 -10630.2909 1450.5696 0.0000 0.0000 1759.1178 -7406.1538 302.5387 -9165.2716 -7406.1538 302.5387 30.0977 105.6745 30140.7061 30.0977 105.6745
ENERGY: 300000 3.3148 3.7444 5.4312 0.0000 -10474.9776 1424.3779 0.0000 0.0000 1736.4669 -7301.6424 298.6432 -9038.1093 -7372.5951 300.7223 213.3726 314.9889 30089.9876 247.4889 306.5310
ENERGY: 600000 2.1175 3.9323 6.6552 0.0000 -10379.0425 1303.5050 0.0000 0.0000 1788.5940 -7274.2385 307.6081 -9062.8325 -7358.1563 299.9967 -929.1914 -839.7599 30616.0607 -47.5025 17.5203
ENERGY: 900000 2.9069 5.2028 7.1088 0.0000 -10498.4330 1340.5398 0.0000 0.0000 1731.9679 -7410.7068 297.8694 -9142.6747 -7360.2099 300.1566 -587.8687 -547.8207 29782.3108 -91.0977 -30.0442
ENERGY: 1200000 3.6479 3.9173 5.6471 0.0000 -10557.6171 1406.4866 0.0000 0.0000 1757.8861 -7380.0320 302.3269 -9137.9181 -7355.3962 301.4787 -105.3015 -72.0474 29774.9498 -192.1377 -134.6215
ENERGY: 1500000 1.8202 6.9794 6.4640 0.0000 -10383.2278 1307.2733 0.0000 0.0000 1765.8331 -7294.8578 303.6936 -9060.6909 -7354.6126 301.5138 -989.6469 -934.1577 30635.2103 -174.7377 -124.5932
TCL: Running FEP window  14: Lambda1 0.34999999999999964 Lambda2 0.29999999999999966 [dLambda -0.04999999999999999]
TCL: Setting parameter firsttimestep to 0
TCL: Setting parameter alchLambda to 0.34999999999999964
Info: NONBONDED TABLE R-SQUARED SPACING: 0.0625
Info: NONBONDED TABLE SIZE: 705 POINTS
TCL: Setting parameter alchLambda2 to 0.29999999999999966
Info: NONBONDED TABLE R-SQUARED SPACING: 0.0625
Info: NONBONDED TABLE SIZE: 705 POINTS
TCL: Running for 1500000 steps
ETITLE: TS BOND ANGLE DIHED IMPRP ELECT VDW BOUNDARY MISC KINETIC TOTAL TEMP POTENTIAL TOTALAVG TEMPAVG PRESSURE GPRESSURE VOLUME PRESSAVG GPRESSAVG
ENERGY: 0 1.8202 6.9794 6.4640 0.0000 -10383.2283 1307.2838 0.0000 0.0000 1764.9711 -7295.7098 303.5454 -9060.6809 -7295.7098 303.5454 -1020.9694 -941.0349 30635.2103 -1020.9694 -941.0349
ENERGY: 300000 3.2855 6.7826 7.4736 0.0000 -10649.5962 1509.5076 0.0000 0.0000 1790.1118 -7332.4352 307.8692 -9122.5470 -7348.5693 303.7772 944.4098 1033.0554 29877.5758 140.3388 220.4044
ENERGY: 600000 5.0440 4.5320 6.5359 0.0000 -10632.4369 1480.3192 0.0000 0.0000 1739.5245 -7396.4812 299.1690 -9136.0057 -7351.9010 302.1162 257.1178 332.6745 29972.5886 148.9049 221.1399
ENERGY: 900000 2.4308 6.6251 5.7517 0.0000 -10519.4622 1409.2160 0.0000 0.0000 1805.2989 -7290.1396 310.4811 -9095.4385 -7368.3009 301.5762 187.3694 287.6495 30025.1686 155.1264 227.7414
ENERGY: 1200000 3.4685 3.0057 6.4208 0.0000 -10666.3010 1432.4063 0.0000 0.0000 1732.4584 -7488.5413 297.9538 -9220.9997 -7367.5843 301.9283 -70.6686 -42.8930 29664.0615 101.8080 172.1872
ENERGY: 1500000 1.2481 4.6078 5.3620 0.0000 -10661.5744 1454.8685 0.0000 0.0000 1715.4013 -7480.0868 295.0202 -9195.4881 -7372.4769 301.8639 24.2408 34.8724 30046.9178 142.9463 205.5402
TCL: Running FEP window  15: Lambda1 0.29999999999999966 Lambda2 0.24999999999999967 [dLambda -0.04999999999999999]
TCL: Setting parameter firsttimestep to 0
TCL: Setting parameter alchLambda to 0.29999999999999966
Info: NONBONDED TABLE R-SQUARED SPACING: 0.0625
Info: NONBONDED TABLE SIZE: 705 POINTS
TCL: Setting parameter alchLambda2 to 0.24999999999999967
Info: NONBONDED TABLE R-SQUARED SPACING: 0.0625
Info: NONBONDED TABLE SIZE: 705 POINTS
TCL: Running for 1500000 steps
ETITLE: TS BOND ANGLE DIHED IMPRP ELECT VDW BOUNDARY MISC KINETIC TOTAL TEMP POTENTIAL TOTALAVG TEMPAVG PRESSURE GPRESSURE VOLUME PRESSAVG GPRESSAVG
ENERGY: 0 1.2481 4.6078 5.3620 0.0000 -10661.5745 1455.3044 0.0000 0.0000 1714.5789 -7480.4733 294.8788 -9195.0522 -7480.4733 294.8788 -39.7780 32.8630 30046.9178 -39.7780 32.8630
ENERGY: 300000 4.2163 8.9087 6.5654 0.0000 -10521.0493 1420.7230 0.0000 0.0000 1724.8939 -7355.7420 296.6528 -9080.6359 -7391.7545 296.9120 299.0833 329.2532 29526.2082 -203.2847 -172.1334
ENERGY: 600000 3.1788 7.1743 8.8003 0.0000 -10589.8233 1495.7535 0.0000 0.0000 1720.5184 -7354.3981 295.9003 -9074.9164 -7400.3528 298.5981 395.0489 491.6449 30178.6220 64.2061 106.5319
ENERGY: 900000 2.1219 6.3085 7.3871 0.0000 -10503.2963 1364.6405 0.0000 0.0000 1738.5480 -7384.2903 299.0011 -9122.8383 -7395.4878 299.4184 -841.4468 -825.0353 30381.9907 -48.7700 -10.1846
ENERGY: 1200000 7.3656 8.0612 4.4330 0.0000 -10652.2072 1457.1995 0.0000 0.0000 1743.6752 -7431.4728 299.8829 -9175.1480 -7393.8379 299.3192 7.7393 71.7345 29595.5411 -27.8519 13.3916
ENERGY: 1500000 2.5255 5.3147 5.4162 0.0000 -10444.2048 1365.3358 0.0000 0.0000 1753.6797 -7311.9329 301.6035 -9065.6126 -7389.1939 299.7103 -143.7499 -86.1669 30020.0353 -82.6177 -32.9118
TCL: Running FEP window  16: Lambda1 0.24999999999999967 Lambda2 0.19999999999999968 [dLambda -0.04999999999999999]
TCL: Setting parameter firsttimestep to 0
TCL: Setting parameter alchLambda to 0.24999999999999967
Info: NONBONDED TABLE R-SQUARED SPACING: 0.0625
Info: NONBONDED TABLE SIZE: 705 POINTS
TCL: Setting parameter alchLambda2 to 0.19999999999999968
Info: NONBONDED TABLE R-SQUARED SPACING: 0.0625
Info: NONBONDED TABLE SIZE: 705 POINTS
TCL: Running for 1500000 steps
ETITLE: TS BOND ANGLE DIHED IMPRP ELECT VDW BOUNDARY MISC KINETIC TOTAL TEMP POTENTIAL TOTALAVG TEMPAVG PRESSURE GPRESSURE VOLUME PRESSAVG GPRESSAVG
ENERGY: 0 2.5255 5.3147 5.4162 0.0000 -10444.2050 1366.0375 0.0000 0.0000 1752.8122 -7312.0989 301.4543 -9064.9111 -7312.0989 301.4543 -169.1875 -86.4571 30020.0353 -169.1875 -86.4571
ENERGY: 300000 4.7281 5.0452 9.5813 0.0000 -10555.1588 1389.5901 0.0000 0.0000 1727.4328 -7418.7812 297.0895 -9146.2140 -7356.5576 302.8678 -243.3226 -229.5384 29932.1310 -46.6115 24.4281
ENERGY: 600000 8.4591 8.1428 4.7360 0.0000 -10543.6175 1451.2445 0.0000 0.0000 1717.9835 -7353.0516 295.4643 -9071.0352 -7368.0571 299.5028 -131.4696 -32.7667 30204.8567 -29.9560 43.5660
ENERGY: 900000 1.3446 4.9770 5.2645 0.0000 -10477.7370 1397.0667 0.0000 0.0000 1742.2752 -7326.8089 299.6421 -9069.0842 -7367.2864 299.5123 91.6255 200.1441 29773.2717 -80.6403 -3.6767
ENERGY: 1200000 3.7157 5.6897 5.1282 0.0000 -10576.2019 1459.4356 0.0000 0.0000 1704.2336 -7397.9992 293.0996 -9102.2328 -7368.8420 300.0832 401.9175 445.6624 29649.3321 51.2658 121.9585
ENERGY: 1500000 1.8585 2.7000 7.6844 0.0000 -10760.5760 1549.2923 0.0000 0.0000 1711.0716 -7487.9693 294.2756 -9199.0408 -7372.7653 300.3218 501.2854 594.0132 29988.4151 53.9868 123.9305
TCL: Running FEP window  17: Lambda1 0.19999999999999968 Lambda2 0.1499999999999997 [dLambda -0.04999999999999999]
TCL: Setting parameter firsttimestep to 0
TCL: Setting parameter alchLambda to 0.19999999999999968
Info: NONBONDED TABLE R-SQUARED SPACING: 0.0625
Info: NONBONDED TABLE SIZE: 705 POINTS
TCL: Setting parameter alchLambda2 to 0.1499999999999997
Info: NONBONDED TABLE R-SQUARED SPACING: 0.0625
Info: NONBONDED TABLE SIZE: 705 POINTS
TCL: Running for 1500000 steps
ETITLE: TS BOND ANGLE DIHED IMPRP ELECT VDW BOUNDARY MISC KINETIC TOTAL TEMP POTENTIAL TOTALAVG TEMPAVG PRESSURE GPRESSURE VOLUME PRESSAVG GPRESSAVG
ENERGY: 0 1.8585 2.7000 7.6844 0.0000 -10760.5770 1549.4137 0.0000 0.0000 1710.2202 -7488.7002 294.1292 -9198.9204 -7488.7002 294.1292 499.3714 592.2239 29988.4151 499.3714 592.2239
ENERGY: 300000 3.7992 4.9174 3.2062 0.0000 -10606.2069 1401.7235 0.0000 0.0000 1771.3133 -7421.2473 304.6362 -9192.5606 -7390.5385 299.3311 -665.3749 -655.3181 30407.5817 -356.4831 -303.9299
ENERGY: 600000 3.4316 3.5231 4.3861 0.0000 -10512.5111 1402.2340 0.0000 0.0000 1800.3613 -7298.5750 309.6319 -9098.9363 -7390.9362 298.1355 -153.0516 -155.9127 30379.8578 -108.8492 -63.2072
ENERGY: 900000 2.7423 8.0181 5.7479 0.0000 -10689.4960 1492.6282 0.0000 0.0000 1699.2447 -7481.1148 292.2416 -9180.3595 -7401.5732 298.2408 420.0433 511.0929 29708.8262 -7.1516 38.0597
ENERGY: 1200000 2.5854 5.4878 8.3471 0.0000 -10467.2790 1417.9124 0.0000 0.0000 1752.9314 -7280.0150 301.4748 -9032.9463 -7391.9087 298.1844 16.9824 105.2046 30178.5700 -72.8425 -21.1284
ENERGY: 1500000 4.6126 8.4754 5.3099 0.0000 -10690.3259 1454.3869 0.0000 0.0000 1763.2890 -7454.2522 303.2561 -9217.5412 -7390.8215 299.5140 -51.9184 115.8818 29911.8074 -102.2117 -39.8259
TCL: Running FEP window  18: Lambda1 0.1499999999999997 Lambda2 0.09999999999999969 [dLambda -0.05 ]
TCL: Setting parameter firsttimestep to 0
TCL: Setting parameter alchLambda to 0.1499999999999997
Info: NONBONDED TABLE R-SQUARED SPACING: 0.0625
Info: NONBONDED TABLE SIZE: 705 POINTS
TCL: Setting parameter alchLambda2 to 0.09999999999999969
Info: NONBONDED TABLE R-SQUARED SPACING: 0.0625
Info: NONBONDED TABLE SIZE: 705 POINTS
TCL: Running for 1500000 steps
ETITLE: TS BOND ANGLE DIHED IMPRP ELECT VDW BOUNDARY MISC KINETIC TOTAL TEMP POTENTIAL TOTALAVG TEMPAVG PRESSURE GPRESSURE VOLUME PRESSAVG GPRESSAVG
ENERGY: 0 4.6126 8.4754 5.3099 0.0000 -10690.3260 1454.7649 0.0000 0.0000 1762.4013 -7454.7620 303.1034 -9217.1633 -7454.7620 303.1034 38.6652 114.3394 29911.8074 38.6652 114.3394
ENERGY: 300000 1.3040 6.1996 3.7897 0.0000 -10547.9100 1489.6334 0.0000 0.0000 1734.5213 -7312.4619 298.3086 -9046.9833 -7403.7838 298.1943 561.6257 655.3005 30181.3702 164.3515 260.5010
ENERGY: 600000 2.0863 6.1115 4.4399 0.0000 -10526.2876 1417.4313 0.0000 0.0000 1790.8678 -7305.3507 307.9992 -9096.2185 -7373.1066 302.4546 -175.9350 -140.0217 30588.8839 130.3194 223.1810
ENERGY: 900000 6.8348 5.1021 9.3057 0.0000 -10533.9316 1428.0101 0.0000 0.0000 1754.2009 -7330.4781 301.6931 -9084.6790 -7365.4115 301.8733 -150.7589 -66.5358 30160.8587 100.5808 192.7383
ENERGY: 1200000 3.2297 3.2802 5.3970 0.0000 -10523.8467 1424.6916 0.0000 0.0000 1708.0620 -7379.1863 293.7580 -9087.2483 -7360.9813 301.4523 -2.7528 66.1976 29952.3216 147.4636 230.3083
ENERGY: 1500000 3.1598 4.1525 6.2245 0.0000 -10464.3904 1343.1475 0.0000 0.0000 1788.2146 -7319.4914 307.5429 -9107.7060 -7352.5182 301.5852 -643.5337 -562.5943 30228.9790 49.9247 132.9634
TCL: Running FEP window  19: Lambda1 0.09999999999999969 Lambda2 0.049999999999999684 [dLambda -0.05 ]
TCL: Setting parameter firsttimestep to 0
TCL: Setting parameter alchLambda to 0.09999999999999969
Info: NONBONDED TABLE R-SQUARED SPACING: 0.0625
Info: NONBONDED TABLE SIZE: 705 POINTS
TCL: Setting parameter alchLambda2 to 0.049999999999999684
Info: NONBONDED TABLE R-SQUARED SPACING: 0.0625
Info: NONBONDED TABLE SIZE: 705 POINTS
TCL: Running for 1500000 steps
ETITLE: TS BOND ANGLE DIHED IMPRP ELECT VDW BOUNDARY MISC KINETIC TOTAL TEMP POTENTIAL TOTALAVG TEMPAVG PRESSURE GPRESSURE VOLUME PRESSAVG GPRESSAVG
ENERGY: 0 3.1598 4.1525 6.2245 0.0000 -10464.3909 1343.1011 0.0000 0.0000 1787.3509 -7320.4020 307.3944 -9107.7529 -7320.4020 307.3944 -658.4525 -568.4738 30228.9790 -658.4525 -568.4738
ENERGY: 300000 2.9405 6.9643 5.7544 0.0000 -10592.7509 1434.6251 0.0000 0.0000 1794.3765 -7348.0900 308.6026 -9142.4666 -7368.1558 303.4799 -162.1789 -165.0499 30328.3446 -33.9129 16.1619
ENERGY: 600000 3.1372 4.2491 6.7590 0.0000 -10566.3544 1410.9031 0.0000 0.0000 1746.9863 -7394.3197 300.4523 -9141.3060 -7382.3172 303.5946 -42.2752 55.4102 29793.6202 19.2709 71.5576
ENERGY: 900000 4.4062 4.2306 6.2555 0.0000 -10551.2801 1458.9070 0.0000 0.0000 1783.8811 -7293.5997 306.7976 -9077.4808 -7392.7383 302.4529 469.1636 571.5443 29968.7600 26.9315 84.8375
ENERGY: 1200000 2.4794 6.9212 7.4005 0.0000 -10613.3096 1461.8645 0.0000 0.0000 1699.1328 -7435.5111 292.2223 -9134.6439 -7398.7367 301.5019 115.3377 195.1361 29980.0653 54.4217 119.7533
ENERGY: 1500000 2.7945 4.6263 9.2739 0.0000 -10634.7383 1440.4705 0.0000 0.0000 1729.9256 -7447.6474 297.5182 -9177.5731 -7399.5614 301.8578 362.7134 426.0557 29235.3711 43.4073 108.6587
TCL: Running FEP window  20: Lambda1 0.049999999999999684 Lambda2 0.0    [dLambda -0.049999999999999684]
TCL: Setting parameter firsttimestep to 0
TCL: Setting parameter alchLambda to 0.049999999999999684
Info: NONBONDED TABLE R-SQUARED SPACING: 0.0625
Info: NONBONDED TABLE SIZE: 705 POINTS
TCL: Setting parameter alchLambda2 to 0.0
Info: NONBONDED TABLE R-SQUARED SPACING: 0.0625
Info: NONBONDED TABLE SIZE: 705 POINTS
TCL: Running for 1500000 steps
ETITLE: TS BOND ANGLE DIHED IMPRP ELECT VDW BOUNDARY MISC KINETIC TOTAL TEMP POTENTIAL TOTALAVG TEMPAVG PRESSURE GPRESSURE VOLUME PRESSAVG GPRESSAVG
ENERGY: 0 2.7945 4.6263 9.2739 0.0000 -10634.7381 1440.1406 0.0000 0.0000 1729.0663 -7448.8365 297.3704 -9177.9028 -7448.8365 297.3704 323.8659 422.8109 29235.3711 323.8659 422.8109
ENERGY: 300000 5.2434 3.7119 7.3002 0.0000 -10717.1599 1463.1754 0.0000 0.0000 1722.4497 -7515.2793 296.2324 -9237.7291 -7435.4271 299.0376 -71.3871 -37.2158 29754.8963 -105.0758 -14.1284
ENERGY: 600000 4.9959 8.2874 8.0002 0.0000 -10636.2245 1492.1118 0.0000 0.0000 1713.1997 -7409.6295 294.6416 -9122.8292 -7400.4496 299.2819 178.5223 271.1020 30336.9393 -203.5906 -109.8388
ENERGY: 900000 4.2402 5.7654 4.7570 0.0000 -10633.8585 1568.1922 0.0000 0.0000 1768.4538 -7282.4499 304.1444 -9050.9038 -7389.5314 299.8983 1446.4552 1431.2694 29936.7736 -65.7105 -1.5475
ENERGY: 1200000 3.5676 4.7257 7.4761 0.0000 -10597.2555 1437.8939 0.0000 0.0000 1776.6220 -7366.9702 305.5492 -9143.5922 -7378.0024 300.7343 -173.5625 -62.7947 30031.1934 -117.6349 -53.0862
ENERGY: 1500000 3.3741 4.9785 5.0208 0.0000 -10452.0198 1320.0218 0.0000 0.0000 1779.3287 -7339.2959 306.0147 -9118.6246 -7380.8628 300.9209 -847.2526 -771.4371 29857.4068 -168.0370 -102.8931
TCL: Exiting due to exit command.
