Info: SIMULATION PARAMETERS:
Info: TIMESTEP               2
Info: NUMBER OF STEPS        0
Info: STEPS PER CYCLE        10
Info: PERIODIC CELL BASIS 1  30.1303 0 0
Info: PERIODIC CELL BASIS 2  0 31.515 0
Info: PERIODIC CELL BASIS 3  0 0 31.4657
Info: PERIODIC CELL CENTER   0 0 0
Info: WRAPPING WATERS AROUND PERIODIC BOUNDARIES ON OUTPUT.
Info: WRAPPING ALL CLUSTERS AROUND PERIODIC BOUNDARIES ON OUTPUT.
Info: FIRST LDB TIMESTEP     50
Info: LAST LDB TIMESTEP     -1
Info: HOM BACKGROUND SCALING 1
Info: PME BACKGROUND SCALING 1
Info: MIN ATOMS PER PATCH    40
Info: EMPTY PATCH LOAD       40 ATOMS
Info: VELOCITY FILE          mobley_9112978_equil.vel
Info: CENTER OF MASS MOVING INITIALLY? NO
Info: DIELECTRIC             1
Info: EXCLUDE                SCALED ONE-FOUR
Info: 1-4 ELECTROSTATICS SCALED BY 0.833333
Info: MODIFIED 1-4 VDW PARAMETERS WILL BE USED
Info: DCD FILENAME           mobley_9112978_prod.dcd
Info: DCD FREQUENCY          100000
Info: DCD FIRST STEP         100000
Info: DCD FILE WILL CONTAIN UNIT CELL DATA
Info: XST FILENAME           mobley_9112978_prod.xst
Info: XST FREQUENCY          100000
Info: NO VELOCITY DCD OUTPUT
Info: NO FORCE DCD OUTPUT
Info: OUTPUT FILENAME        mobley_9112978_prod
Info: BINARY OUTPUT FILES WILL BE USED
Info: RESTART FILENAME       mobley_9112978_prod.restart
Info: RESTART FREQUENCY      100000
Info: BINARY RESTART FILES WILL BE USED
Info: CUTOFF                 9
Info: PAIRLIST DISTANCE      11
Info: PAIRLIST SHRINK RATE   0.01
Info: PAIRLIST GROW RATE     0.01
Info: PAIRLIST TRIGGER       0.3
Info: PAIRLISTS PER CYCLE    2
Info: PAIRLISTS ENABLED
Info: MARGIN                 2
Info: HYDROGEN GROUP CUTOFF  2.5
Info: PATCH DIMENSION        15.5
Info: ENERGY OUTPUT STEPS    100000
Info: ENERGY EVALUATION STEPS    100000
Info: OUTPUT ENERGY PRECISION 4
Info: CROSSTERM ENERGY INCLUDED IN DIHEDRAL
Info: TIMING OUTPUT STEPS    1000000
Info: PRESSURE OUTPUT STEPS  100000
Info: ALCHEMICAL FEP ON
Info: FEP CURRENT LAMBDA VALUE     0
Info: FEP COMPARISON LAMBDA VALUE  0.05
Info: FEP INTRA-ALCHEMICAL NON-BONDED INTERACTIONS WILL BE RETAINED
Info: FEP INTRA-ALCHEMICAL BONDED INTERACTIONS WILL BE RETAINED
Info: FEP VDW SHIFTING COEFFICIENT 5
Info: FEP ELEC. ACTIVE FOR ANNIHILATED PARTICLES BETWEEN LAMBDA = 0 AND LAMBDA = 0.5
Info: FEP ELEC. ACTIVE FOR EXNIHILATED PARTICLES BETWEEN LAMBDA = 0.5 AND LAMBDA = 1
Info: FEP VDW ACTIVE FOR ANNIHILATED PARTICLES BETWEEN LAMBDA = 0 AND LAMBDA = 1
Info: FEP VDW ACTIVE FOR EXNIHILATED PARTICLES BETWEEN LAMBDA = 0 AND LAMBDA = 1
Info: FEP BOND ACTIVE FOR ANNIHILATED PARTICLES BETWEEN LAMBDA = 1 AND LAMBDA = 1
Info: FEP BOND ACTIVE FOR EXNIHILATED PARTICLES BETWEEN LAMBDA = 0 AND LAMBDA = 0
Info: LANGEVIN DYNAMICS ACTIVE
Info: LANGEVIN TEMPERATURE   300
Info: LANGEVIN USING BBK INTEGRATOR
Info: LANGEVIN DAMPING COEFFICIENT IS 1 INVERSE PS
Info: LANGEVIN DYNAMICS APPLIED TO HYDROGENS
Info: LANGEVIN PISTON PRESSURE CONTROL ACTIVE
Info:        TARGET PRESSURE IS 1.01325 BAR
Info:     OSCILLATION PERIOD IS 50 FS
Info:             DECAY TIME IS 25 FS
Info:     PISTON TEMPERATURE IS 300 K
Info:       PRESSURE CONTROL IS GROUP-BASED
Info:    INITIAL STRAIN RATE IS -0.00028945 -0.00028945 -0.00028945
Info:       CELL FLUCTUATION IS ISOTROPIC
Info: PARTICLE MESH EWALD (PME) ACTIVE
Info: PME TOLERANCE               1e-06
Info: PME EWALD COEFFICIENT       0.348832
Info: PME INTERPOLATION ORDER     4
Info: PME GRID DIMENSIONS         32 32 32
Info: PME MAXIMUM GRID SPACING    1
Info: PME CALCULATION WILL BE PERFORMED ON GPU
Info: FULL ELECTROSTATIC EVALUATION FREQUENCY      2
Info: USING VERLET I (r-RESPA) MTS SCHEME.
Info: C1 SPLITTING OF LONG RANGE ELECTROSTATICS
Info: PLACING ATOMS IN PATCHES BY HYDROGEN GROUPS
Info: RIGID BONDS TO HYDROGEN : ALL
Info:         ERROR TOLERANCE : 1e-08
Info:          MAX ITERATIONS : 100
Info: RIGID WATER USING SETTLE ALGORITHM
Info: RANDOM NUMBER SEED     1743751864
Info: USE HYDROGEN BONDS?    NO
Info: Using AMBER format force field!
Info: AMBER PARM FILE        mobley_9112978.prmtop
Info: COORDINATE PDB         mobley_9112978.pdb
Info: Exclusions will be read from PARM file!
Info: SCNB (VDW SCALING)     2
Info: USING ARITHMETIC MEAN TO COMBINE L-J SIGMA PARAMETERS
Info: BINARY COORDINATES     mobley_9112978_equil.coor
Info: SUMMARY OF PARAMETERS:
Info: 7 BONDS
Info: 7 ANGLES
Info:   7 HARMONIC
Info:   0 COSINE-BASED
Info: 8 DIHEDRAL
Info: 0 IMPROPER
Info: 0 CROSSTERM
Info: 0 VDW
Info: 21 VDW_PAIRS
Info: 0 NBTHOLE_PAIRS
Info: To read alchdata from file: mobley_9112978.pdb
Info: To read alchflag data from column: 5
Info: STRUCTURE SUMMARY:
Info: 2931 ATOMS
Info: 2930 BONDS
Info: 24 ANGLES
Info: 38 DIHEDRALS
Info: 0 IMPROPERS
Info: 0 CROSSTERMS
Info: 2979 EXCLUSIONS
Info: 2926 RIGID BONDS
Info: ALCH: 0 ATOMS TO DISAPPEAR IN FINAL STATE
Info: ALCH: 15 ATOMS TO APPEAR IN FINAL STATE
Info: 5867 DEGREES OF FREEDOM
Info: 977 HYDROGEN GROUPS
Info: 4 ATOMS IN LARGEST HYDROGEN GROUP
Info: 977 MIGRATION GROUPS
Info: 4 ATOMS IN LARGEST MIGRATION GROUP
Info: TOTAL MASS = 17581.7 amu
Info: TOTAL CHARGE = 0.000100017 e
Info: MASS DENSITY = 0.977151 g/cm^3
Info: ATOM DENSITY = 0.0980974 atoms/A^3
Info: ADDED 0 IMPLICIT EXCLUSIONS
Info: NONBONDED TABLE R-SQUARED SPACING: 0.0625
Info: NONBONDED TABLE SIZE: 705 POINTS
Info: REMOVING COM VELOCITY -0.135975 0.0624406 0.290759
Info: Use 3D box decompostion in PME FFT.
Info: Updated CUDA force table with 4096 elements.
Info: Updated CUDA LJ table with 6 x 6 elements.
Info: Found 17 unique exclusion lists needing 36 bytes
TCL: Running for 1500000 steps
ETITLE: TS BOND ANGLE DIHED IMPRP ELECT VDW BOUNDARY MISC KINETIC TOTAL TEMP POTENTIAL TOTALAVG TEMPAVG PRESSURE GPRESSURE VOLUME PRESSAVG GPRESSAVG
ENERGY: 0 0.5229 4.3407 8.7534 0.0000 -10738.9476 1489.0242 0.0000 0.0000 1758.7311 -7477.5754 301.6989 -9236.3065 -7477.5754 301.6989 314.8807 398.9826 29878.4558 314.8807 398.9826
ENERGY: 300000 3.6853 9.2116 8.3834 0.0000 -10660.7399 1465.1549 0.0000 0.0000 1705.0524 -7469.2522 292.4907 -9174.3047 -7450.7624 297.2632 48.5260 108.4213 29923.8465 266.7031 331.9013
ENERGY: 600000 1.1341 8.7100 7.7218 0.0000 -10522.3662 1378.6426 0.0000 0.0000 1810.0614 -7316.0962 310.5043 -9126.1577 -7437.1282 299.0649 -241.6898 -241.3631 29989.7559 263.2135 306.9486
ENERGY: 900000 0.6951 3.8893 7.9758 0.0000 -10569.5964 1394.4370 0.0000 0.0000 1797.8518 -7364.7473 308.4098 -9162.5991 -7421.4058 300.3478 -232.3759 -194.5804 30199.9132 76.9896 119.3395
ENERGY: 1200000 0.4565 4.8680 8.8482 0.0000 -10660.4620 1484.2351 0.0000 0.0000 1758.7575 -7403.2967 301.7034 -9162.0542 -7428.8073 299.6673 332.3775 421.4931 30063.4203 88.7803 137.3432
ENERGY: 1500000 2.4766 9.1762 7.4365 0.0000 -10538.2858 1387.4210 0.0000 0.0000 1748.5692 -7383.2062 299.9557 -9131.7754 -7432.6588 299.5765 -216.2039 -125.9466 29824.0572 22.7235 73.3401
TCL: Running FEP window   2: Lambda1 0.05   Lambda2 0.1    [dLambda 0.05  ]
TCL: Setting parameter firsttimestep to 0
TCL: Setting parameter alchLambda to 0.05
Info: NONBONDED TABLE R-SQUARED SPACING: 0.0625
Info: NONBONDED TABLE SIZE: 705 POINTS
TCL: Setting parameter alchLambda2 to 0.1
Info: NONBONDED TABLE R-SQUARED SPACING: 0.0625
Info: NONBONDED TABLE SIZE: 705 POINTS
TCL: Running for 1500000 steps
ETITLE: TS BOND ANGLE DIHED IMPRP ELECT VDW BOUNDARY MISC KINETIC TOTAL TEMP POTENTIAL TOTALAVG TEMPAVG PRESSURE GPRESSURE VOLUME PRESSAVG GPRESSAVG
ENERGY: 0 2.4766 9.1762 7.4365 0.0000 -10538.2869 1388.7055 0.0000 0.0000 1747.7026 -7382.7896 299.8070 -9130.4922 -7382.7896 299.8070 -204.3270 -122.3725 29824.0572 -204.3270 -122.3725
ENERGY: 300000 1.5655 8.0547 6.9035 0.0000 -10576.4664 1386.4241 0.0000 0.0000 1745.6841 -7427.8346 299.4608 -9173.5186 -7419.4139 298.7004 -146.3893 -74.1481 29934.8170 125.0649 214.0741
ENERGY: 600000 1.3944 8.1269 7.4083 0.0000 -10505.5986 1316.9665 0.0000 0.0000 1696.5497 -7475.1527 291.0321 -9171.7025 -7417.9255 298.1755 -1259.1731 -1161.3049 30828.0716 -74.0561 5.1310
ENERGY: 900000 0.4349 8.7760 9.0534 0.0000 -10575.9455 1434.5008 0.0000 0.0000 1728.4209 -7394.7595 296.4994 -9123.1804 -7410.1329 300.6271 189.6971 214.8572 30060.8853 -82.9346 -8.5314
ENERGY: 1200000 0.9574 7.0593 9.5850 0.0000 -10605.4477 1484.5638 0.0000 0.0000 1738.3514 -7364.9308 298.2029 -9103.2822 -7412.2342 299.4064 719.5413 762.8482 30083.0279 -6.0561 63.2759
ENERGY: 1500000 0.1601 9.4272 8.0040 0.0000 -10750.2010 1498.1666 0.0000 0.0000 1763.0616 -7471.3814 302.4418 -9234.4430 -7410.4889 299.8200 541.6433 600.8046 29443.3670 -15.8898 44.0405
TCL: Running FEP window   3: Lambda1 0.1    Lambda2 0.15000000000000002 [dLambda 0.05000000000000002]
TCL: Setting parameter firsttimestep to 0
TCL: Setting parameter alchLambda to 0.1
Info: NONBONDED TABLE R-SQUARED SPACING: 0.0625
Info: NONBONDED TABLE SIZE: 705 POINTS
TCL: Setting parameter alchLambda2 to 0.15000000000000002
Info: NONBONDED TABLE R-SQUARED SPACING: 0.0625
Info: NONBONDED TABLE SIZE: 705 POINTS
TCL: Running for 1500000 steps
ETITLE: TS BOND ANGLE DIHED IMPRP ELECT VDW BOUNDARY MISC KINETIC TOTAL TEMP POTENTIAL TOTALAVG TEMPAVG PRESSURE GPRESSURE VOLUME PRESSAVG GPRESSAVG
ENERGY: 0 0.1601 9.4272 8.0040 0.0000 -10750.2001 1497.9150 0.0000 0.0000 1762.1631 -7472.5306 302.2877 -9234.6938 -7472.5306 302.2877 514.6276 601.8797 29443.3670 514.6276 601.8797
ENERGY: 300000 1.4875 4.7031 6.4863 0.0000 -10541.1849 1393.0092 0.0000 0.0000 1749.4118 -7386.0870 300.1002 -9135.4988 -7447.8004 299.4458 -203.6259 -237.0378 30219.1704 71.2986 99.0068
ENERGY: 600000 1.4195 3.6324 8.8908 0.0000 -10705.4781 1419.3389 0.0000 0.0000 1731.7146 -7540.4819 297.0644 -9272.1964 -7442.6357 298.4631 -208.5080 -173.0858 29615.3217 -5.3009 28.6273
ENERGY: 900000 2.0132 3.6349 10.8969 0.0000 -10583.0714 1406.1992 0.0000 0.0000 1731.0380 -7429.2891 296.9483 -9160.3271 -7427.5703 299.2075 -395.4008 -333.6629 30130.7079 -94.1445 -50.3720
ENERGY: 1200000 0.7541 4.2811 7.6138 0.0000 -10488.4804 1353.3937 0.0000 0.0000 1771.4387 -7350.9989 303.8788 -9122.4376 -7435.2907 297.9505 -368.7745 -315.9204 29857.9929 -144.7267 -104.0492
ENERGY: 1500000 0.8287 5.4833 10.5568 0.0000 -10575.5554 1417.7222 0.0000 0.0000 1763.8108 -7377.1536 302.5703 -9140.9644 -7422.3361 298.8851 -462.1046 -386.5636 31116.0703 -161.5324 -115.0910
TCL: Running FEP window   4: Lambda1 0.15000000000000002 Lambda2 0.2    [dLambda 0.04999999999999999]
TCL: Setting parameter firsttimestep to 0
TCL: Setting parameter alchLambda to 0.15000000000000002
Info: NONBONDED TABLE R-SQUARED SPACING: 0.0625
Info: NONBONDED TABLE SIZE: 705 POINTS
TCL: Setting parameter alchLambda2 to 0.2
Info: NONBONDED TABLE R-SQUARED SPACING: 0.0625
Info: NONBONDED TABLE SIZE: 705 POINTS
TCL: Running for 1500000 steps
ETITLE: TS BOND ANGLE DIHED IMPRP ELECT VDW BOUNDARY MISC KINETIC TOTAL TEMP POTENTIAL TOTALAVG TEMPAVG PRESSURE GPRESSURE VOLUME PRESSAVG GPRESSAVG
ENERGY: 0 0.8287 5.4833 10.5568 0.0000 -10575.5557 1418.4615 0.0000 0.0000 1762.9472 -7377.2782 302.4222 -9140.2254 -7377.2782 302.4222 -470.7616 -380.6343 31116.0703 -470.7616 -380.6343
ENERGY: 300000 1.0705 6.9312 7.1594 0.0000 -10667.5438 1497.1863 0.0000 0.0000 1760.1985 -7394.9979 301.9506 -9155.1963 -7383.4173 303.7443 487.7541 533.0126 30132.5875 -155.6265 -82.6566
ENERGY: 600000 3.4190 4.2187 8.2843 0.0000 -10634.2661 1424.5691 0.0000 0.0000 1728.5181 -7465.2569 296.5161 -9193.7750 -7411.2343 300.9489 -522.9381 -429.8799 30497.1239 29.0302 99.8182
ENERGY: 900000 1.2079 4.1363 9.0983 0.0000 -10727.7834 1471.3540 0.0000 0.0000 1738.9362 -7503.0508 298.3032 -9241.9869 -7414.6349 301.3919 223.2667 286.6698 29905.1640 6.4774 73.9511
ENERGY: 1200000 0.5111 7.2439 7.2118 0.0000 -10475.9029 1339.0568 0.0000 0.0000 1767.4898 -7354.3895 303.2014 -9121.8793 -7402.0865 300.3869 -566.2391 -527.8144 30211.8479 -56.0162 9.8091
ENERGY: 1500000 1.5501 7.0335 11.1957 0.0000 -10703.1003 1454.6108 0.0000 0.0000 1749.6469 -7479.0633 300.1406 -9228.7102 -7413.2710 300.1356 -74.1678 11.0430 30190.1418 -77.9994 -11.4900
TCL: Running FEP window   5: Lambda1 0.2    Lambda2 0.25   [dLambda 0.04999999999999999]
TCL: Setting parameter firsttimestep to 0
TCL: Setting parameter alchLambda to 0.2
Info: NONBONDED TABLE R-SQUARED SPACING: 0.0625
Info: NONBONDED TABLE SIZE: 705 POINTS
TCL: Setting parameter alchLambda2 to 0.25
Info: NONBONDED TABLE R-SQUARED SPACING: 0.0625
Info: NONBONDED TABLE SIZE: 705 POINTS
TCL: Running for 1500000 steps
ETITLE: TS BOND ANGLE DIHED IMPRP ELECT VDW BOUNDARY MISC KINETIC TOTAL TEMP POTENTIAL TOTALAVG TEMPAVG PRESSURE GPRESSURE VOLUME PRESSAVG GPRESSAVG
ENERGY: 0 1.5501 7.0335 11.1957 0.0000 -10703.1009 1455.3131 0.0000 0.0000 1748.7492 -7479.2593 299.9866 -9228.0085 -7479.2593 299.9866 -79.1137 18.6332 30190.1418 -79.1137 18.6332
ENERGY: 300000 1.0501 9.0712 7.4433 0.0000 -10668.4637 1394.0398 0.0000 0.0000 1769.0283 -7487.8309 303.4653 -9256.8592 -7464.7213 300.3718 -524.2613 -501.0498 29872.4751 -27.0805 45.4287
ENERGY: 600000 0.4229 3.4805 8.6089 0.0000 -10573.0716 1448.9200 0.0000 0.0000 1772.3413 -7339.2979 304.0337 -9111.6393 -7435.3706 300.7237 56.1387 88.9924 30548.0010 -55.8414 17.8521
ENERGY: 900000 1.3554 8.3757 8.4461 0.0000 -10582.7009 1461.6561 0.0000 0.0000 1766.4457 -7336.4219 303.0223 -9102.8676 -7435.6269 300.8937 414.8960 535.8795 29967.3704 -55.3366 28.5369
ENERGY: 1200000 1.3754 6.7091 9.7964 0.0000 -10600.1595 1373.5877 0.0000 0.0000 1769.5848 -7439.1061 303.5608 -9208.6909 -7433.5562 301.3019 -626.0135 -440.6760 29918.3912 -91.3159 0.0394
ENERGY: 1500000 0.6000 7.7665 8.0495 0.0000 -10591.4300 1445.9071 0.0000 0.0000 1736.2896 -7392.8173 297.8492 -9129.1069 -7424.3006 301.3893 358.9648 398.1987 29899.5970 -42.1158 37.8499
TCL: Running FEP window   6: Lambda1 0.25   Lambda2 0.3    [dLambda 0.04999999999999999]
TCL: Setting parameter firsttimestep to 0
TCL: Setting parameter alchLambda to 0.25
Info: NONBONDED TABLE R-SQUARED SPACING: 0.0625
Info: NONBONDED TABLE SIZE: 705 POINTS
TCL: Setting parameter alchLambda2 to 0.3
Info: NONBONDED TABLE R-SQUARED SPACING: 0.0625
Info: NONBONDED TABLE SIZE: 705 POINTS
TCL: Running for 1500000 steps
ETITLE: TS BOND ANGLE DIHED IMPRP ELECT VDW BOUNDARY MISC KINETIC TOTAL TEMP POTENTIAL TOTALAVG TEMPAVG PRESSURE GPRESSURE VOLUME PRESSAVG GPRESSAVG
ENERGY: 0 0.6000 7.7665 8.0495 0.0000 -10591.4305 1446.4333 0.0000 0.0000 1735.4026 -7393.1785 297.6971 -9128.5812 -7393.1785 297.6971 312.2782 402.0512 29899.5970 312.2782 402.0512
ENERGY: 300000 0.3735 7.4373 7.5185 0.0000 -10582.7198 1389.3081 0.0000 0.0000 1772.5390 -7405.5435 304.0676 -9178.0825 -7404.7211 298.9659 -408.7258 -311.4532 29995.6356 -89.3715 8.8655
ENERGY: 600000 1.5825 7.9269 9.0898 0.0000 -10642.4973 1496.5583 0.0000 0.0000 1797.2808 -7330.0590 308.3119 -9127.3398 -7398.0159 301.2820 482.7699 567.6037 30103.5653 59.3795 145.5831
ENERGY: 900000 0.8914 3.9243 7.0111 0.0000 -10537.0570 1374.9978 0.0000 0.0000 1749.4899 -7400.7424 300.1136 -9150.2323 -7399.0127 300.9844 -308.4696 -163.2848 29936.3013 -171.1392 -84.2967
ENERGY: 1200000 1.4098 6.0728 9.5800 0.0000 -10579.1183 1408.6884 0.0000 0.0000 1751.2514 -7402.1160 300.4158 -9153.3674 -7390.7964 301.6333 -286.0617 -254.0451 30335.2120 -178.2709 -98.6361
ENERGY: 1500000 2.5297 6.6956 8.2057 0.0000 -10705.0279 1518.9299 0.0000 0.0000 1735.4671 -7433.1999 297.7081 -9168.6670 -7394.6730 301.2209 879.7188 954.4010 29631.1328 -88.1281 -14.4017
TCL: Running FEP window   7: Lambda1 0.3    Lambda2 0.35   [dLambda 0.04999999999999999]
TCL: Setting parameter firsttimestep to 0
TCL: Setting parameter alchLambda to 0.3
Info: NONBONDED TABLE R-SQUARED SPACING: 0.0625
Info: NONBONDED TABLE SIZE: 705 POINTS
TCL: Setting parameter alchLambda2 to 0.35
Info: NONBONDED TABLE R-SQUARED SPACING: 0.0625
Info: NONBONDED TABLE SIZE: 705 POINTS
TCL: Running for 1500000 steps
ETITLE: TS BOND ANGLE DIHED IMPRP ELECT VDW BOUNDARY MISC KINETIC TOTAL TEMP POTENTIAL TOTALAVG TEMPAVG PRESSURE GPRESSURE VOLUME PRESSAVG GPRESSAVG
ENERGY: 0 2.5297 6.6956 8.2057 0.0000 -10705.0278 1519.9512 0.0000 0.0000 1734.5701 -7433.0754 297.5543 -9167.6456 -7433.0754 297.5543 880.1408 963.2866 29631.1328 880.1408 963.2866
ENERGY: 300000 2.1092 10.2243 12.2054 0.0000 -10601.3357 1405.9618 0.0000 0.0000 1730.6810 -7440.1540 296.8871 -9170.8349 -7434.4895 297.5949 -86.0478 -74.4948 29985.1565 388.2935 436.5817
ENERGY: 600000 2.3041 7.4401 8.2612 0.0000 -10501.3823 1330.3218 0.0000 0.0000 1765.1271 -7387.9280 302.7961 -9153.0551 -7443.7559 297.2792 -642.4025 -608.4929 30185.2921 249.0349 292.4023
ENERGY: 900000 0.9393 5.5513 8.7749 0.0000 -10625.5233 1401.7282 0.0000 0.0000 1780.8522 -7427.6774 305.4936 -9208.5296 -7442.0355 299.4787 -417.2614 -349.1145 30253.9613 161.6037 207.0215
ENERGY: 1200000 0.6778 8.2612 8.2283 0.0000 -10661.6375 1500.9654 0.0000 0.0000 1788.9348 -7354.5701 306.8801 -9143.5048 -7435.8441 299.3930 614.4781 688.2972 30182.2157 233.8562 280.6158
ENERGY: 1500000 1.3377 8.7711 8.6312 0.0000 -10574.1498 1434.8227 0.0000 0.0000 1716.9986 -7403.5885 294.5400 -9120.5871 -7434.1438 298.6775 65.7872 116.9138 30437.7485 202.2464 246.0851
TCL: Running FEP window   8: Lambda1 0.35   Lambda2 0.39999999999999997 [dLambda 0.04999999999999999]
TCL: Setting parameter firsttimestep to 0
TCL: Setting parameter alchLambda to 0.35
Info: NONBONDED TABLE R-SQUARED SPACING: 0.0625
Info: NONBONDED TABLE SIZE: 705 POINTS
TCL: Setting parameter alchLambda2 to 0.39999999999999997
Info: NONBONDED TABLE R-SQUARED SPACING: 0.0625
Info: NONBONDED TABLE SIZE: 705 POINTS
TCL: Running for 1500000 steps
ETITLE: TS BOND ANGLE DIHED IMPRP ELECT VDW BOUNDARY MISC KINETIC TOTAL TEMP POTENTIAL TOTALAVG TEMPAVG PRESSURE GPRESSURE VOLUME PRESSAVG GPRESSAVG
ENERGY: 0 1.3377 8.7711 8.6312 0.0000 -10574.1518 1434.3877 0.0000 0.0000 1716.1494 -7404.8747 294.3943 -9121.0241 -7404.8747 294.3943 32.4373 117.9310 30437.7485 32.4373 117.9310
ENERGY: 300000 1.1127 5.6956 8.5645 0.0000 -10546.1868 1375.7108 0.0000 0.0000 1790.8489 -7364.2543 307.2085 -9155.1033 -7400.4303 299.5428 -448.6134 -377.5219 30085.1183 -242.0074 -169.5742
ENERGY: 600000 1.4797 4.9508 7.5045 0.0000 -10549.8232 1362.8799 0.0000 0.0000 1703.9575 -7469.0508 292.3029 -9173.0083 -7407.6283 298.5366 -587.8564 -520.7999 30055.5787 -196.7992 -124.6741
ENERGY: 900000 1.3692 10.7781 7.6583 0.0000 -10603.9813 1411.8194 0.0000 0.0000 1795.8159 -7376.5404 308.0606 -9172.3563 -7409.9429 300.0464 -12.6364 44.1904 29827.0314 -196.5011 -130.5841
ENERGY: 1200000 0.5504 5.6400 9.6447 0.0000 -10709.9732 1462.7444 0.0000 0.0000 1728.7834 -7502.6103 296.5616 -9231.3937 -7429.7712 299.3337 109.1931 200.6751 29846.8777 -142.8849 -75.8661
ENERGY: 1500000 0.6936 6.0276 6.9224 0.0000 -10610.4008 1468.2574 0.0000 0.0000 1734.1944 -7394.3054 297.4898 -9128.4998 -7422.0364 299.5772 661.8881 720.5331 29597.3073 -110.8015 -46.7615
TCL: Running FEP window   9: Lambda1 0.39999999999999997 Lambda2 0.44999999999999996 [dLambda 0.04999999999999999]
TCL: Setting parameter firsttimestep to 0
TCL: Setting parameter alchLambda to 0.39999999999999997
Info: NONBONDED TABLE R-SQUARED SPACING: 0.0625
Info: NONBONDED TABLE SIZE: 705 POINTS
TCL: Setting parameter alchLambda2 to 0.44999999999999996
Info: NONBONDED TABLE R-SQUARED SPACING: 0.0625
Info: NONBONDED TABLE SIZE: 705 POINTS
TCL: Running for 1500000 steps
ETITLE: TS BOND ANGLE DIHED IMPRP ELECT VDW BOUNDARY MISC KINETIC TOTAL TEMP POTENTIAL TOTALAVG TEMPAVG PRESSURE GPRESSURE VOLUME PRESSAVG GPRESSAVG
ENERGY: 0 0.6936 6.0276 6.9224 0.0000 -10610.4005 1469.6224 0.0000 0.0000 1733.3015 -7393.8330 297.3366 -9127.1345 -7393.8330 297.3366 649.3291 735.0557 29597.3073 649.3291 735.0557
ENERGY: 300000 1.4318 5.8379 7.3431 0.0000 -10495.1657 1333.6094 0.0000 0.0000 1743.5380 -7403.4056 299.0926 -9146.9436 -7374.7824 299.2944 -743.1983 -692.2042 30730.7643 -198.3214 -122.2738
ENERGY: 600000 4.0559 7.4692 12.4799 0.0000 -10645.6160 1467.2472 0.0000 0.0000 1764.0668 -7390.2971 302.6142 -9154.3638 -7418.8256 299.4539 565.2704 593.5435 29699.6619 -25.5004 38.8981
ENERGY: 900000 1.7071 5.8165 7.2115 0.0000 -10692.0808 1371.0314 0.0000 0.0000 1820.9484 -7485.3659 312.3719 -9306.3143 -7414.5109 301.4295 -684.4449 -590.0278 29797.2265 -105.9158 -35.6011
ENERGY: 1200000 0.6389 6.2962 8.6885 0.0000 -10639.9441 1525.2115 0.0000 0.0000 1703.0492 -7396.0599 292.1470 -9099.1091 -7404.5568 300.7791 1003.3605 1118.5074 29817.5317 -23.6392 50.5566
ENERGY: 1500000 1.8886 8.4920 9.2843 0.0000 -10579.3156 1409.3773 0.0000 0.0000 1807.3065 -7342.9668 310.0317 -9150.2733 -7407.4624 301.2890 -257.1797 -213.5033 30348.5250 -119.1035 -44.4054
TCL: Running FEP window  10: Lambda1 0.44999999999999996 Lambda2 0.49999999999999994 [dLambda 0.04999999999999999]
TCL: Setting parameter firsttimestep to 0
TCL: Setting parameter alchLambda to 0.44999999999999996
Info: NONBONDED TABLE R-SQUARED SPACING: 0.0625
Info: NONBONDED TABLE SIZE: 705 POINTS
TCL: Setting parameter alchLambda2 to 0.49999999999999994
Info: NONBONDED TABLE R-SQUARED SPACING: 0.0625
Info: NONBONDED TABLE SIZE: 705 POINTS
TCL: Running for 1500000 steps
ETITLE: TS BOND ANGLE DIHED IMPRP ELECT VDW BOUNDARY MISC KINETIC TOTAL TEMP POTENTIAL TOTALAVG TEMPAVG PRESSURE GPRESSURE VOLUME PRESSAVG GPRESSAVG
ENERGY: 0 1.8886 8.4920 9.2843 0.0000 -10579.3164 1409.2062 0.0000 0.0000 1806.4489 -7343.9963 309.8846 -9150.4452 -7343.9963 309.8846 -306.5021 -212.2919 30348.5250 -306.5021 -212.2919
ENERGY: 300000 1.9930 8.2363 7.3740 0.0000 -10529.7898 1355.0476 0.0000 0.0000 1704.7342 -7452.4047 292.4361 -9157.1388 -7408.4935 298.0321 -464.9421 -525.0866 29832.6451 -73.9430 -50.1860
ENERGY: 600000 1.5968 7.0614 7.9626 0.0000 -10462.4182 1316.0607 0.0000 0.0000 1760.2920 -7369.4446 301.9667 -9129.7366 -7412.5643 299.4654 -715.0957 -643.8762 30269.4700 -104.3854 -67.2722
ENERGY: 900000 0.5322 5.8514 8.2724 0.0000 -10827.1335 1568.5013 0.0000 0.0000 1749.8799 -7494.0963 300.1805 -9243.9763 -7422.3285 299.6791 923.7131 1044.4255 29908.0656 121.9797 168.6245
ENERGY: 1200000 0.4699 4.7943 11.9560 0.0000 -10491.9486 1383.6844 0.0000 0.0000 1774.2469 -7316.7971 304.3605 -9091.0440 -7412.7257 300.4163 -159.5115 -66.6597 29927.8778 -1.7440 57.1554
ENERGY: 1500000 0.2039 4.2793 7.7821 0.0000 -10516.8258 1325.0227 0.0000 0.0000 1686.0774 -7493.4605 289.2356 -9179.5378 -7423.5607 298.6846 -814.0116 -670.6028 30043.5715 -68.0878 -7.6809
TCL: Running FEP window  11: Lambda1 0.49999999999999994 Lambda2 0.5499999999999999 [dLambda 0.04999999999999999]
TCL: Setting parameter firsttimestep to 0
TCL: Setting parameter alchLambda to 0.49999999999999994
Info: NONBONDED TABLE R-SQUARED SPACING: 0.0625
Info: NONBONDED TABLE SIZE: 705 POINTS
TCL: Setting parameter alchLambda2 to 0.5499999999999999
Info: NONBONDED TABLE R-SQUARED SPACING: 0.0625
Info: NONBONDED TABLE SIZE: 705 POINTS
TCL: Running for 1500000 steps
ETITLE: TS BOND ANGLE DIHED IMPRP ELECT VDW BOUNDARY MISC KINETIC TOTAL TEMP POTENTIAL TOTALAVG TEMPAVG PRESSURE GPRESSURE VOLUME PRESSAVG GPRESSAVG
ENERGY: 0 0.2039 4.2793 7.7821 0.0000 -10516.8257 1325.0551 0.0000 0.0000 1685.2157 -7494.2897 289.0878 -9179.5054 -7494.2897 289.0878 -748.3157 -664.5543 30043.5715 -748.3157 -664.5543
ENERGY: 300000 2.1590 6.6672 8.1293 0.0000 -10589.7102 1366.8270 0.0000 0.0000 1743.2621 -7462.6657 299.0453 -9205.9278 -7421.9999 297.2002 -667.5733 -566.2657 30053.9751 -568.9279 -486.8732
ENERGY: 600000 2.2680 7.7692 9.1561 0.0000 -10629.7390 1463.0193 0.0000 0.0000 1718.6567 -7428.8698 294.8244 -9147.5265 -7438.9011 297.8621 472.5393 513.1423 29779.8918 -332.1542 -257.8482
ENERGY: 900000 0.5568 7.1396 10.1101 0.0000 -10592.7679 1385.1053 0.0000 0.0000 1725.6518 -7464.2043 296.0244 -9189.8561 -7442.1661 297.7573 -470.1375 -319.0446 30314.2293 -282.7298 -201.7302
ENERGY: 1200000 2.0080 6.6746 7.9793 0.0000 -10598.5533 1434.5583 0.0000 0.0000 1786.7355 -7360.5976 306.5029 -9147.3331 -7424.6615 298.5842 -37.4583 -5.8318 30581.3865 -251.4167 -173.4877
ENERGY: 1500000 0.2349 6.7779 7.9741 0.0000 -10630.7604 1423.3076 0.0000 0.0000 1802.8154 -7389.6506 309.2613 -9192.4660 -7417.8036 299.3715 -372.5641 -253.4581 30510.1796 -216.2449 -140.9556
TCL: Running FEP window  12: Lambda1 0.5499999999999999 Lambda2 0.6    [dLambda 0.050000000000000044]
TCL: Setting parameter firsttimestep to 0
TCL: Setting parameter alchLambda to 0.5499999999999999
Info: NONBONDED TABLE R-SQUARED SPACING: 0.0625
Info: NONBONDED TABLE SIZE: 705 POINTS
TCL: Setting parameter alchLambda2 to 0.6
Info: NONBONDED TABLE R-SQUARED SPACING: 0.0625
Info: NONBONDED TABLE SIZE: 705 POINTS
TCL: Running for 1500000 steps
ETITLE: TS BOND ANGLE DIHED IMPRP ELECT VDW BOUNDARY MISC KINETIC TOTAL TEMP POTENTIAL TOTALAVG TEMPAVG PRESSURE GPRESSURE VOLUME PRESSAVG GPRESSAVG
ENERGY: 0 0.2349 6.7779 7.9741 0.0000 -10630.6779 1423.5562 0.0000 0.0000 1801.9499 -7390.1849 309.1128 -9192.1348 -7390.1849 309.1128 -345.8813 -241.6680 30510.1796 -345.8813 -241.6680
ENERGY: 300000 0.5167 5.8631 8.0289 0.0000 -10605.9248 1425.2526 0.0000 0.0000 1737.8778 -7428.3857 298.1217 -9166.2635 -7409.2316 302.6075 -95.2308 -81.1910 30084.8070 -55.1872 -1.7683
ENERGY: 600000 0.9634 6.3048 9.4983 0.0000 -10659.8656 1430.5166 0.0000 0.0000 1729.0683 -7483.5142 296.6104 -9212.5825 -7413.5163 299.8309 113.4921 152.8486 29987.2246 -39.3210 19.9478
ENERGY: 900000 1.3350 5.7805 7.5817 0.0000 -10627.5198 1470.8390 0.0000 0.0000 1805.1881 -7336.7954 309.6683 -9141.9835 -7398.3705 300.7722 470.7584 498.3018 30375.4253 60.4590 125.7632
ENERGY: 1200000 0.9739 5.1984 7.3563 0.0000 -10585.9784 1376.6891 0.0000 0.0000 1739.6299 -7456.1307 298.4222 -9195.7606 -7412.6609 300.8356 -329.3838 -275.9297 29935.2205 39.4277 102.8897
ENERGY: 1500000 1.7207 5.7555 7.8009 0.0000 -10633.2063 1442.4925 0.0000 0.0000 1738.9865 -7436.4502 298.3118 -9175.4367 -7404.7154 301.4887 199.9072 235.3505 30187.3935 43.2862 106.3922
TCL: Running FEP window  13: Lambda1 0.6    Lambda2 0.65   [dLambda 0.050000000000000044]
TCL: Setting parameter firsttimestep to 0
TCL: Setting parameter alchLambda to 0.6
Info: NONBONDED TABLE R-SQUARED SPACING: 0.0625
Info: NONBONDED TABLE SIZE: 705 POINTS
TCL: Setting parameter alchLambda2 to 0.65
Info: NONBONDED TABLE R-SQUARED SPACING: 0.0625
Info: NONBONDED TABLE SIZE: 705 POINTS
TCL: Running for 1500000 steps
ETITLE: TS BOND ANGLE DIHED IMPRP ELECT VDW BOUNDARY MISC KINETIC TOTAL TEMP POTENTIAL TOTALAVG TEMPAVG PRESSURE GPRESSURE VOLUME PRESSAVG GPRESSAVG
ENERGY: 0 1.7207 5.7556 7.8009 0.0000 -10633.2123 1442.7940 0.0000 0.0000 1738.1284 -7437.0128 298.1646 -9175.1411 -7437.0128 298.1646 179.6317 244.3347 30187.3935 179.6317 244.3347
ENERGY: 300000 1.8603 8.7190 7.6238 0.0000 -10515.9929 1378.3618 0.0000 0.0000 1718.5234 -7400.9046 294.8015 -9119.4280 -7401.6950 300.1904 -526.4871 -407.7449 30443.4847 -207.2993 -125.4410
ENERGY: 600000 1.6060 6.6393 9.6631 0.0000 -10541.2819 1400.7776 0.0000 0.0000 1733.3526 -7389.2432 297.3454 -9122.5958 -7400.6305 299.8138 -163.6890 -162.0083 30480.0583 -85.1260 -25.9654
ENERGY: 900000 1.1098 5.9807 7.0200 0.0000 -10548.1107 1333.9078 0.0000 0.0000 1748.6408 -7451.4516 299.9680 -9200.0924 -7401.6409 301.1743 -983.8131 -842.4629 30411.2856 -204.9607 -140.7890
ENERGY: 1200000 0.3985 4.9025 8.6744 0.0000 -10849.7537 1558.5903 0.0000 0.0000 1771.7144 -7505.4737 303.9261 -9277.1881 -7408.0899 300.6904 793.9073 817.5084 30016.6085 -147.8253 -77.0035
ENERGY: 1500000 2.6499 7.1667 9.5398 0.0000 -10692.4584 1508.5461 0.0000 0.0000 1716.6428 -7447.9131 294.4789 -9164.5559 -7406.9514 300.9523 618.9707 620.2757 30238.4175 -78.3361 -14.6305
TCL: Running FEP window  14: Lambda1 0.65   Lambda2 0.7000000000000001 [dLambda 0.050000000000000044]
TCL: Setting parameter firsttimestep to 0
TCL: Setting parameter alchLambda to 0.65
Info: NONBONDED TABLE R-SQUARED SPACING: 0.0625
Info: NONBONDED TABLE SIZE: 705 POINTS
TCL: Setting parameter alchLambda2 to 0.7000000000000001
Info: NONBONDED TABLE R-SQUARED SPACING: 0.0625
Info: NONBONDED TABLE SIZE: 705 POINTS
TCL: Running for 1500000 steps
ETITLE: TS BOND ANGLE DIHED IMPRP ELECT VDW BOUNDARY MISC KINETIC TOTAL TEMP POTENTIAL TOTALAVG TEMPAVG PRESSURE GPRESSURE VOLUME PRESSAVG GPRESSAVG
ENERGY: 0 2.6499 7.1667 9.5398 0.0000 -10692.3680 1508.7353 0.0000 0.0000 1715.8053 -7448.4710 294.3353 -9164.2764 -7448.4710 294.3353 558.1144 630.5998 30238.4175 558.1144 630.5998
ENERGY: 300000 2.3720 7.1040 8.3399 0.0000 -10760.5430 1500.2129 0.0000 0.0000 1775.2102 -7467.3039 304.5258 -9242.5141 -7428.2613 304.9553 340.7217 405.3670 29984.2246 -69.2479 -25.9261
ENERGY: 600000 1.4236 5.1143 10.3017 0.0000 -10567.3026 1384.3120 0.0000 0.0000 1727.9356 -7438.2154 296.4161 -9166.1510 -7419.2124 301.6229 -273.5571 -243.8817 30145.4249 -63.7515 -21.4928
ENERGY: 900000 1.4603 3.1402 6.7612 0.0000 -10552.1419 1374.9337 0.0000 0.0000 1745.9487 -7419.8979 299.5062 -9165.8465 -7417.2919 300.5896 -458.1158 -367.6771 30178.1148 -115.5015 -68.4078
ENERGY: 1200000 4.0938 4.2408 8.7690 0.0000 -10592.2166 1447.1264 0.0000 0.0000 1720.9220 -7407.0646 295.2130 -9127.9866 -7410.7851 300.2268 38.2404 132.3673 30434.3731 -12.7096 41.9048
ENERGY: 1500000 1.1442 7.6989 7.2601 0.0000 -10603.4730 1440.1760 0.0000 0.0000 1760.8251 -7386.3687 302.0581 -9147.1938 -7414.3598 300.6465 106.6305 135.5012 30301.3715 23.8164 79.6715
TCL: Running FEP window  15: Lambda1 0.7000000000000001 Lambda2 0.7500000000000001 [dLambda 0.050000000000000044]
TCL: Setting parameter firsttimestep to 0
TCL: Setting parameter alchLambda to 0.7000000000000001
Info: NONBONDED TABLE R-SQUARED SPACING: 0.0625
Info: NONBONDED TABLE SIZE: 705 POINTS
TCL: Setting parameter alchLambda2 to 0.7500000000000001
Info: NONBONDED TABLE R-SQUARED SPACING: 0.0625
Info: NONBONDED TABLE SIZE: 705 POINTS
TCL: Running for 1500000 steps
ETITLE: TS BOND ANGLE DIHED IMPRP ELECT VDW BOUNDARY MISC KINETIC TOTAL TEMP POTENTIAL TOTALAVG TEMPAVG PRESSURE GPRESSURE VOLUME PRESSAVG GPRESSAVG
ENERGY: 0 1.1442 7.6989 7.2601 0.0000 -10603.7771 1440.5322 0.0000 0.0000 1759.9730 -7387.1688 301.9119 -9147.1418 -7387.1688 301.9119 57.9685 145.7448 30301.3715 57.9685 145.7448
ENERGY: 300000 2.0881 5.5327 8.0292 0.0000 -10613.9513 1475.4205 0.0000 0.0000 1769.6537 -7353.2270 303.5726 -9122.8807 -7409.6426 298.0892 429.6771 545.3593 30466.7315 24.3268 117.7355
ENERGY: 600000 1.4655 7.0569 6.5452 0.0000 -10681.1565 1431.3266 0.0000 0.0000 1738.6929 -7496.0694 298.2615 -9234.7622 -7444.9120 297.6774 -452.4123 -328.1814 30544.7045 80.5357 167.7631
ENERGY: 900000 1.1405 7.3121 7.0612 0.0000 -10509.0813 1366.9613 0.0000 0.0000 1788.3381 -7338.2682 306.7778 -9126.6063 -7428.6470 300.3741 -222.7792 -230.7155 29952.5211 -36.1411 34.8704
ENERGY: 1200000 5.0043 4.7681 8.9969 0.0000 -10643.9436 1408.2269 0.0000 0.0000 1783.6563 -7433.2912 305.9747 -9216.9475 -7422.0099 301.1956 -458.6657 -392.7953 30337.0285 12.9640 79.3882
ENERGY: 1500000 0.6216 5.4038 8.4904 0.0000 -10525.2773 1410.8242 0.0000 0.0000 1760.8253 -7339.1120 302.0581 -9099.9373 -7416.4063 300.7733 -10.3141 37.8040 30407.3163 -28.1503 38.1015
TCL: Running FEP window  16: Lambda1 0.7500000000000001 Lambda2 0.8000000000000002 [dLambda 0.050000000000000044]
TCL: Setting parameter firsttimestep to 0
TCL: Setting parameter alchLambda to 0.7500000000000001
Info: NONBONDED TABLE R-SQUARED SPACING: 0.0625
Info: NONBONDED TABLE SIZE: 705 POINTS
TCL: Setting parameter alchLambda2 to 0.8000000000000002
Info: NONBONDED TABLE R-SQUARED SPACING: 0.0625
Info: NONBONDED TABLE SIZE: 705 POINTS
TCL: Running for 1500000 steps
ETITLE: TS BOND ANGLE DIHED IMPRP ELECT VDW BOUNDARY MISC KINETIC TOTAL TEMP POTENTIAL TOTALAVG TEMPAVG PRESSURE GPRESSURE VOLUME PRESSAVG GPRESSAVG
ENERGY: 0 0.6216 5.4038 8.4904 0.0000 -10525.3497 1410.7122 0.0000 0.0000 1759.9489 -7340.1728 301.9078 -9100.1217 -7340.1728 301.9078 -43.3651 43.3745 30407.3163 -43.3651 43.3745
ENERGY: 300000 3.8190 3.0573 10.0053 0.0000 -10600.2460 1483.5953 0.0000 0.0000 1799.4321 -7300.3370 308.6809 -9099.7691 -7406.1464 300.3744 507.3218 544.2860 30297.3889 389.2079 455.9630
ENERGY: 600000 0.6582 4.7422 7.7167 0.0000 -10619.7976 1439.8554 0.0000 0.0000 1754.0953 -7412.7297 300.9037 -9166.8251 -7408.7851 300.6777 110.5214 182.1507 30226.9882 229.3854 293.6072
ENERGY: 900000 5.5212 5.2390 8.8906 0.0000 -10615.2728 1375.1781 0.0000 0.0000 1801.7970 -7418.6469 309.0866 -9220.4439 -7425.3892 302.0157 -557.0517 -538.6835 29979.3110 59.5806 125.6694
ENERGY: 1200000 0.7495 4.3690 7.1559 0.0000 -10585.2873 1458.9366 0.0000 0.0000 1729.8840 -7384.1923 296.7504 -9114.0763 -7425.1466 301.5064 -5.1205 97.6151 30713.7754 100.1201 163.9853
ENERGY: 1500000 1.7459 7.0138 12.5434 0.0000 -10603.0480 1410.6185 0.0000 0.0000 1717.2219 -7453.9045 294.5783 -9171.1264 -7419.4913 301.4316 -332.5305 -223.5088 30173.1341 24.0536 88.5983
TCL: Running FEP window  17: Lambda1 0.8000000000000002 Lambda2 0.8500000000000002 [dLambda 0.050000000000000044]
TCL: Setting parameter firsttimestep to 0
TCL: Setting parameter alchLambda to 0.8000000000000002
Info: NONBONDED TABLE R-SQUARED SPACING: 0.0625
Info: NONBONDED TABLE SIZE: 705 POINTS
TCL: Setting parameter alchLambda2 to 0.8500000000000002
Info: NONBONDED TABLE R-SQUARED SPACING: 0.0625
Info: NONBONDED TABLE SIZE: 705 POINTS
TCL: Running for 1500000 steps
ETITLE: TS BOND ANGLE DIHED IMPRP ELECT VDW BOUNDARY MISC KINETIC TOTAL TEMP POTENTIAL TOTALAVG TEMPAVG PRESSURE GPRESSURE VOLUME PRESSAVG GPRESSAVG
ENERGY: 0 1.7459 7.0138 12.5434 0.0000 -10603.1327 1410.4649 0.0000 0.0000 1716.3341 -7455.0307 294.4260 -9171.3647 -7455.0307 294.4260 -307.1673 -216.7852 30173.1341 -307.1673 -216.7852
ENERGY: 300000 1.6789 9.6110 9.2496 0.0000 -10633.0363 1417.2093 0.0000 0.0000 1748.2696 -7447.0179 299.9043 -9195.2875 -7432.7687 299.4584 -19.1060 55.9946 29786.2453 384.6337 459.0625
ENERGY: 600000 3.0303 4.8481 7.6101 0.0000 -10550.1334 1386.1093 0.0000 0.0000 1710.1221 -7438.4135 293.3604 -9148.5356 -7433.6247 298.9551 -459.7292 -379.4159 30363.6856 36.6819 100.8410
ENERGY: 900000 1.0202 3.8795 9.7767 0.0000 -10685.6480 1488.4194 0.0000 0.0000 1764.7756 -7417.7766 302.7358 -9182.5521 -7425.7763 299.7429 387.1339 464.7632 30131.2171 -56.5039 16.5225
ENERGY: 1200000 1.4233 3.1693 9.2207 0.0000 -10599.5621 1414.2904 0.0000 0.0000 1741.4049 -7430.0535 298.7267 -9171.4585 -7430.3741 299.5279 -210.6271 -150.8241 30307.3781 -71.5696 -3.1512
ENERGY: 1500000 0.4748 6.7369 8.6302 0.0000 -10589.8994 1431.8440 0.0000 0.0000 1781.6230 -7360.5905 305.6259 -9142.2134 -7426.2359 299.8348 87.1328 115.8155 30349.8832 -96.9901 -33.9448
TCL: Running FEP window  18: Lambda1 0.8500000000000002 Lambda2 0.9000000000000002 [dLambda 0.050000000000000044]
TCL: Setting parameter firsttimestep to 0
TCL: Setting parameter alchLambda to 0.8500000000000002
Info: NONBONDED TABLE R-SQUARED SPACING: 0.0625
Info: NONBONDED TABLE SIZE: 705 POINTS
TCL: Setting parameter alchLambda2 to 0.9000000000000002
Info: NONBONDED TABLE R-SQUARED SPACING: 0.0625
Info: NONBONDED TABLE SIZE: 705 POINTS
TCL: Running for 1500000 steps
ETITLE: TS BOND ANGLE DIHED IMPRP ELECT VDW BOUNDARY MISC KINETIC TOTAL TEMP POTENTIAL TOTALAVG TEMPAVG PRESSURE GPRESSURE VOLUME PRESSAVG GPRESSAVG
ENERGY: 0 0.4748 6.7369 8.6302 0.0000 -10589.8985 1432.0310 0.0000 0.0000 1780.7770 -7361.2486 305.4807 -9142.0256 -7361.2486 305.4807 51.9590 127.6155 30349.8832 51.9590 127.6155
ENERGY: 300000 0.2386 4.6901 8.5692 0.0000 -10816.4745 1550.0732 0.0000 0.0000 1748.3290 -7504.5743 299.9145 -9252.9033 -7466.6575 298.7853 854.3466 975.3632 29716.6925 346.1980 412.1619
ENERGY: 600000 1.2486 7.0487 8.6055 0.0000 -10678.0658 1475.3932 0.0000 0.0000 1766.9540 -7418.8157 303.1095 -9185.7698 -7470.8146 299.1184 373.0737 408.8636 30126.8121 95.4995 164.6447
ENERGY: 900000 1.0947 6.8263 8.2479 0.0000 -10615.0212 1377.8287 0.0000 0.0000 1674.6927 -7546.3308 287.2827 -9221.0235 -7465.6157 298.0717 -599.2310 -538.3189 30178.5540 157.0068 224.4273
ENERGY: 1200000 0.9890 7.3646 7.1534 0.0000 -10601.9693 1467.2133 0.0000 0.0000 1807.4369 -7311.8121 310.0541 -9119.2491 -7449.4927 299.0776 685.6146 719.6752 29859.0590 133.9157 193.9183
ENERGY: 1500000 2.0676 8.2894 7.3237 0.0000 -10665.9342 1489.6403 0.0000 0.0000 1725.4796 -7433.1336 295.9948 -9158.6132 -7449.8094 298.1038 401.3696 572.2291 29794.2275 122.7281 191.3906
TCL: Running FEP window  19: Lambda1 0.9000000000000002 Lambda2 0.9500000000000003 [dLambda 0.050000000000000044]
TCL: Setting parameter firsttimestep to 0
TCL: Setting parameter alchLambda to 0.9000000000000002
Info: NONBONDED TABLE R-SQUARED SPACING: 0.0625
Info: NONBONDED TABLE SIZE: 705 POINTS
TCL: Setting parameter alchLambda2 to 0.9500000000000003
Info: NONBONDED TABLE R-SQUARED SPACING: 0.0625
Info: NONBONDED TABLE SIZE: 705 POINTS
TCL: Running for 1500000 steps
ETITLE: TS BOND ANGLE DIHED IMPRP ELECT VDW BOUNDARY MISC KINETIC TOTAL TEMP POTENTIAL TOTALAVG TEMPAVG PRESSURE GPRESSURE VOLUME PRESSAVG GPRESSAVG
ENERGY: 0 2.0676 8.2894 7.3237 0.0000 -10665.8731 1489.2819 0.0000 0.0000 1724.5756 -7434.3348 295.8398 -9158.9104 -7434.3348 295.8398 492.9210 578.3436 29794.2275 492.9210 578.3436
ENERGY: 300000 1.2763 6.9112 8.1407 0.0000 -10579.7593 1428.8481 0.0000 0.0000 1820.1972 -7314.3857 312.2430 -9134.5829 -7389.8257 303.7094 356.0960 348.3932 29838.5715 290.3832 333.8038
ENERGY: 600000 0.2898 8.2108 7.2830 0.0000 -10567.5811 1457.3727 0.0000 0.0000 1756.2307 -7338.1941 301.2700 -9094.4248 -7377.5038 303.2162 597.4824 626.2830 30196.7732 288.3630 340.6163
ENERGY: 900000 1.5364 6.6412 9.0507 0.0000 -10668.0701 1459.4663 0.0000 0.0000 1828.0945 -7363.2810 313.5978 -9191.3755 -7395.6739 302.5943 341.9294 422.7896 29779.5593 198.2084 260.4731
ENERGY: 1200000 1.3674 4.4104 8.7122 0.0000 -10592.9214 1356.7227 0.0000 0.0000 1695.7577 -7525.9510 290.8962 -9221.7087 -7414.3183 300.7407 -751.9189 -762.0920 30415.2981 70.4247 124.6491
ENERGY: 1500000 1.3898 8.1201 7.2189 0.0000 -10421.8392 1298.8408 0.0000 0.0000 1693.6706 -7412.5991 290.5382 -9106.2697 -7423.1279 299.6070 -744.1704 -757.5036 30072.6036 -21.7108 25.6785
TCL: Running FEP window  20: Lambda1 0.9500000000000003 Lambda2 1.0    [dLambda 0.04999999999999971]
TCL: Setting parameter firsttimestep to 0
TCL: Setting parameter alchLambda to 0.9500000000000003
Info: NONBONDED TABLE R-SQUARED SPACING: 0.0625
Info: NONBONDED TABLE SIZE: 705 POINTS
TCL: Setting parameter alchLambda2 to 1.0
Info: NONBONDED TABLE R-SQUARED SPACING: 0.0625
Info: NONBONDED TABLE SIZE: 705 POINTS
TCL: Running for 1500000 steps
ETITLE: TS BOND ANGLE DIHED IMPRP ELECT VDW BOUNDARY MISC KINETIC TOTAL TEMP POTENTIAL TOTALAVG TEMPAVG PRESSURE GPRESSURE VOLUME PRESSAVG GPRESSAVG
ENERGY: 0 1.3898 8.1201 7.2189 0.0000 -10421.9392 1298.4067 0.0000 0.0000 1692.8002 -7414.0035 290.3889 -9106.8037 -7414.0035 290.3889 -822.0845 -753.8941 30072.6036 -822.0845 -753.8941
ENERGY: 300000 0.6473 10.2110 8.4970 0.0000 -10458.3207 1328.7688 0.0000 0.0000 1761.4882 -7348.7083 302.1719 -9110.1965 -7405.6272 299.1635 -377.7874 -329.9809 30003.2592 -358.7249 -301.9851
ENERGY: 600000 1.0095 4.5718 7.6200 0.0000 -10633.8611 1420.0759 0.0000 0.0000 1785.7452 -7414.8387 306.3330 -9200.5840 -7425.0190 300.4058 -87.8755 -115.7219 30356.3967 -124.1994 -73.4150
ENERGY: 900000 2.5705 6.4359 9.2147 0.0000 -10617.4675 1474.8868 0.0000 0.0000 1656.7408 -7467.6187 284.2031 -9124.3595 -7431.5202 299.4175 186.2749 195.9583 30500.6897 -18.2898 25.4512
ENERGY: 1200000 0.3233 5.1195 7.8055 0.0000 -10568.3963 1431.8416 0.0000 0.0000 1798.9971 -7324.3093 308.6063 -9123.3064 -7427.8984 298.9212 184.3289 275.1613 30147.0648 -40.5292 7.8261
ENERGY: 1500000 0.7573 3.1885 7.3622 0.0000 -10617.5408 1422.2262 0.0000 0.0000 1737.5292 -7446.4774 298.0619 -9184.0066 -7427.8678 299.5157 -29.6366 48.8833 29981.0300 -1.8687 48.3226
TCL: Exiting due to exit command.
