Info: SIMULATION PARAMETERS:
Info: TIMESTEP               2
Info: NUMBER OF STEPS        0
Info: STEPS PER CYCLE        10
Info: PERIODIC CELL BASIS 1  31.6207 0 0
Info: PERIODIC CELL BASIS 2  0 31.4222 0
Info: PERIODIC CELL BASIS 3  0 0 30.457
Info: PERIODIC CELL CENTER   0 0 0
Info: WRAPPING WATERS AROUND PERIODIC BOUNDARIES ON OUTPUT.
Info: WRAPPING ALL CLUSTERS AROUND PERIODIC BOUNDARIES ON OUTPUT.
Info: FIRST LDB TIMESTEP     50
Info: LAST LDB TIMESTEP     -1
Info: HOM BACKGROUND SCALING 1
Info: PME BACKGROUND SCALING 1
Info: MIN ATOMS PER PATCH    40
Info: EMPTY PATCH LOAD       40 ATOMS
Info: VELOCITY FILE          mobley_2609604_equil.vel
Info: CENTER OF MASS MOVING INITIALLY? NO
Info: DIELECTRIC             1
Info: EXCLUDE                SCALED ONE-FOUR
Info: 1-4 ELECTROSTATICS SCALED BY 0.833333
Info: MODIFIED 1-4 VDW PARAMETERS WILL BE USED
Info: DCD FILENAME           mobley_2609604_prod.dcd
Info: DCD FREQUENCY          100000
Info: DCD FIRST STEP         100000
Info: DCD FILE WILL CONTAIN UNIT CELL DATA
Info: XST FILENAME           mobley_2609604_prod.xst
Info: XST FREQUENCY          100000
Info: NO VELOCITY DCD OUTPUT
Info: NO FORCE DCD OUTPUT
Info: OUTPUT FILENAME        mobley_2609604_prod
Info: BINARY OUTPUT FILES WILL BE USED
Info: RESTART FILENAME       mobley_2609604_prod.restart
Info: RESTART FREQUENCY      100000
Info: BINARY RESTART FILES WILL BE USED
Info: CUTOFF                 9
Info: PAIRLIST DISTANCE      11
Info: PAIRLIST SHRINK RATE   0.01
Info: PAIRLIST GROW RATE     0.01
Info: PAIRLIST TRIGGER       0.3
Info: PAIRLISTS PER CYCLE    2
Info: PAIRLISTS ENABLED
Info: MARGIN                 2
Info: HYDROGEN GROUP CUTOFF  2.5
Info: PATCH DIMENSION        15.5
Info: ENERGY OUTPUT STEPS    100000
Info: ENERGY EVALUATION STEPS    100000
Info: OUTPUT ENERGY PRECISION 4
Info: CROSSTERM ENERGY INCLUDED IN DIHEDRAL
Info: TIMING OUTPUT STEPS    1000000
Info: PRESSURE OUTPUT STEPS  100000
Info: ALCHEMICAL FEP ON
Info: FEP CURRENT LAMBDA VALUE     0
Info: FEP COMPARISON LAMBDA VALUE  0.05
Info: FEP INTRA-ALCHEMICAL NON-BONDED INTERACTIONS WILL BE RETAINED
Info: FEP INTRA-ALCHEMICAL BONDED INTERACTIONS WILL BE RETAINED
Info: FEP VDW SHIFTING COEFFICIENT 5
Info: FEP ELEC. ACTIVE FOR ANNIHILATED PARTICLES BETWEEN LAMBDA = 0 AND LAMBDA = 0.5
Info: FEP ELEC. ACTIVE FOR EXNIHILATED PARTICLES BETWEEN LAMBDA = 0.5 AND LAMBDA = 1
Info: FEP VDW ACTIVE FOR ANNIHILATED PARTICLES BETWEEN LAMBDA = 0 AND LAMBDA = 1
Info: FEP VDW ACTIVE FOR EXNIHILATED PARTICLES BETWEEN LAMBDA = 0 AND LAMBDA = 1
Info: FEP BOND ACTIVE FOR ANNIHILATED PARTICLES BETWEEN LAMBDA = 1 AND LAMBDA = 1
Info: FEP BOND ACTIVE FOR EXNIHILATED PARTICLES BETWEEN LAMBDA = 0 AND LAMBDA = 0
Info: LANGEVIN DYNAMICS ACTIVE
Info: LANGEVIN TEMPERATURE   300
Info: LANGEVIN USING BBK INTEGRATOR
Info: LANGEVIN DAMPING COEFFICIENT IS 1 INVERSE PS
Info: LANGEVIN DYNAMICS APPLIED TO HYDROGENS
Info: LANGEVIN PISTON PRESSURE CONTROL ACTIVE
Info:        TARGET PRESSURE IS 1.01325 BAR
Info:     OSCILLATION PERIOD IS 50 FS
Info:             DECAY TIME IS 25 FS
Info:     PISTON TEMPERATURE IS 300 K
Info:       PRESSURE CONTROL IS GROUP-BASED
Info:    INITIAL STRAIN RATE IS 0.000259319 0.000259319 0.000259319
Info:       CELL FLUCTUATION IS ISOTROPIC
Info: PARTICLE MESH EWALD (PME) ACTIVE
Info: PME TOLERANCE               1e-06
Info: PME EWALD COEFFICIENT       0.348832
Info: PME INTERPOLATION ORDER     4
Info: PME GRID DIMENSIONS         32 32 32
Info: PME MAXIMUM GRID SPACING    1
Info: PME CALCULATION WILL BE PERFORMED ON GPU
Info: FULL ELECTROSTATIC EVALUATION FREQUENCY      2
Info: USING VERLET I (r-RESPA) MTS SCHEME.
Info: C1 SPLITTING OF LONG RANGE ELECTROSTATICS
Info: PLACING ATOMS IN PATCHES BY HYDROGEN GROUPS
Info: RIGID BONDS TO HYDROGEN : ALL
Info:         ERROR TOLERANCE : 1e-08
Info:          MAX ITERATIONS : 100
Info: RIGID WATER USING SETTLE ALGORITHM
Info: RANDOM NUMBER SEED     1743894267
Info: USE HYDROGEN BONDS?    NO
Info: Using AMBER format force field!
Info: AMBER PARM FILE        mobley_2609604.prmtop
Info: COORDINATE PDB         mobley_2609604.pdb
Info: Exclusions will be read from PARM file!
Info: SCNB (VDW SCALING)     2
Info: USING ARITHMETIC MEAN TO COMBINE L-J SIGMA PARAMETERS
Info: BINARY COORDINATES     mobley_2609604_equil.coor
Info: SUMMARY OF PARAMETERS:
Info: 4 BONDS
Info: 3 ANGLES
Info:   3 HARMONIC
Info:   0 COSINE-BASED
Info: 5 DIHEDRAL
Info: 0 IMPROPER
Info: 0 CROSSTERM
Info: 0 VDW
Info: 10 VDW_PAIRS
Info: 0 NBTHOLE_PAIRS
Info: To read alchdata from file: mobley_2609604.pdb
Info: To read alchflag data from column: 5
Info: STRUCTURE SUMMARY:
Info: 2936 ATOMS
Info: 2935 BONDS
Info: 42 ANGLES
Info: 66 DIHEDRALS
Info: 0 IMPROPERS
Info: 0 CROSSTERMS
Info: 3031 EXCLUSIONS
Info: 2929 RIGID BONDS
Info: ALCH: 0 ATOMS TO DISAPPEAR IN FINAL STATE
Info: ALCH: 23 ATOMS TO APPEAR IN FINAL STATE
Info: 5879 DEGREES OF FREEDOM
Info: 978 HYDROGEN GROUPS
Info: 4 ATOMS IN LARGEST HYDROGEN GROUP
Info: 978 MIGRATION GROUPS
Info: 4 ATOMS IN LARGEST MIGRATION GROUP
Info: TOTAL MASS = 17593.7 amu
Info: TOTAL CHARGE = 0.000299998 e
Info: MASS DENSITY = 0.965433 g/cm^3
Info: ATOM DENSITY = 0.0970199 atoms/A^3
Info: ADDED 0 IMPLICIT EXCLUSIONS
Info: NONBONDED TABLE R-SQUARED SPACING: 0.0625
Info: NONBONDED TABLE SIZE: 705 POINTS
Info: REDUCING NUMBER OF PATCHES TO IMPROVE LOAD BALANCE
Info: REMOVING COM VELOCITY -0.00847542 0.0405026 0.0156122
Info: Use 3D box decompostion in PME FFT.
Info: Updated CUDA force table with 4096 elements.
Info: Updated CUDA LJ table with 4 x 4 elements.
Info: Found 26 unique exclusion lists needing 80 bytes
TCL: Running for 1500000 steps
ETITLE: TS BOND ANGLE DIHED IMPRP ELECT VDW BOUNDARY MISC KINETIC TOTAL TEMP POTENTIAL TOTALAVG TEMPAVG PRESSURE GPRESSURE VOLUME PRESSAVG GPRESSAVG
ENERGY: 0 2.3930 9.0768 5.6605 0.0000 -10470.6366 1376.8442 0.0000 0.0000 1747.7034 -7328.9587 299.1952 -9076.6621 -7328.9587 299.1952 -256.8250 -180.9921 30261.8185 -256.8250 -180.9921
ENERGY: 300000 1.1072 15.1622 4.5570 0.0000 -10776.0829 1540.4981 0.0000 0.0000 1749.8146 -7464.9439 299.5566 -9214.7584 -7388.9004 302.9639 841.0369 894.2255 29485.6986 -28.1482 32.7475
ENERGY: 600000 0.5770 15.4887 3.6177 0.0000 -10711.3440 1447.2952 0.0000 0.0000 1711.3214 -7533.0441 292.9669 -9244.3655 -7436.9108 297.9329 -342.6833 -325.1238 30124.7398 -68.8609 -8.0589
ENERGY: 900000 1.7520 12.4883 4.2299 0.0000 -10745.9555 1468.8058 0.0000 0.0000 1757.8284 -7500.8510 300.9286 -9258.6795 -7442.4488 298.2836 245.1916 377.9826 29345.1315 17.5226 83.4311
ENERGY: 1200000 3.2231 10.7152 3.4999 0.0000 -10415.7085 1296.1819 0.0000 0.0000 1773.9572 -7328.1312 303.6897 -9102.0884 -7421.0666 299.4921 -1033.1853 -967.1547 30250.1883 -205.8697 -143.3135
ENERGY: 1500000 2.6031 16.2371 3.1592 0.0000 -10588.5352 1438.8539 0.0000 0.0000 1757.7788 -7369.9030 300.9201 -9127.6818 -7416.7766 299.7974 184.2269 243.6883 29850.4677 -159.1861 -104.1178
TCL: Running FEP window   2: Lambda1 0.05   Lambda2 0.1    [dLambda 0.05  ]
TCL: Setting parameter firsttimestep to 0
TCL: Setting parameter alchLambda to 0.05
Info: NONBONDED TABLE R-SQUARED SPACING: 0.0625
Info: NONBONDED TABLE SIZE: 705 POINTS
TCL: Setting parameter alchLambda2 to 0.1
Info: NONBONDED TABLE R-SQUARED SPACING: 0.0625
Info: NONBONDED TABLE SIZE: 705 POINTS
TCL: Running for 1500000 steps
ETITLE: TS BOND ANGLE DIHED IMPRP ELECT VDW BOUNDARY MISC KINETIC TOTAL TEMP POTENTIAL TOTALAVG TEMPAVG PRESSURE GPRESSURE VOLUME PRESSAVG GPRESSAVG
ENERGY: 0 2.6031 16.2372 3.1592 0.0000 -10588.5345 1441.8628 0.0000 0.0000 1756.9072 -7367.7651 300.7709 -9124.6723 -7367.7651 300.7709 162.9213 252.3420 29850.4677 162.9213 252.3420
ENERGY: 300000 0.9052 8.5782 4.6812 0.0000 -10639.4690 1472.9613 0.0000 0.0000 1751.7463 -7400.5968 299.8873 -9152.3431 -7385.9595 300.0011 287.8746 367.3444 29994.7571 331.1100 406.9055
ENERGY: 600000 1.6096 16.3830 4.3244 0.0000 -10573.8304 1389.5465 0.0000 0.0000 1721.7139 -7440.2529 294.7460 -9161.9669 -7399.4999 298.8701 -516.2528 -351.2768 29773.4614 51.9389 141.2175
ENERGY: 900000 2.9112 13.5498 4.5996 0.0000 -10642.5719 1437.8095 0.0000 0.0000 1773.5957 -7410.1061 303.6278 -9183.7018 -7393.0894 300.6563 -179.5608 -207.2555 30337.0169 98.5840 168.3624
ENERGY: 1200000 1.7341 10.1368 4.3517 0.0000 -10508.0486 1421.0784 0.0000 0.0000 1775.4684 -7295.2791 303.9484 -9070.7476 -7395.8312 299.4766 115.4056 133.7567 30375.3163 198.4072 265.6792
ENERGY: 1500000 3.0106 17.1276 3.8991 0.0000 -10693.5722 1425.9600 0.0000 0.0000 1743.9612 -7499.6137 298.5546 -9243.5749 -7415.4728 298.7008 -290.3419 -280.5638 29674.1002 196.5703 250.8616
TCL: Running FEP window   3: Lambda1 0.1    Lambda2 0.15000000000000002 [dLambda 0.05000000000000002]
TCL: Setting parameter firsttimestep to 0
TCL: Setting parameter alchLambda to 0.1
Info: NONBONDED TABLE R-SQUARED SPACING: 0.0625
Info: NONBONDED TABLE SIZE: 705 POINTS
TCL: Setting parameter alchLambda2 to 0.15000000000000002
Info: NONBONDED TABLE R-SQUARED SPACING: 0.0625
Info: NONBONDED TABLE SIZE: 705 POINTS
TCL: Running for 1500000 steps
ETITLE: TS BOND ANGLE DIHED IMPRP ELECT VDW BOUNDARY MISC KINETIC TOTAL TEMP POTENTIAL TOTALAVG TEMPAVG PRESSURE GPRESSURE VOLUME PRESSAVG GPRESSAVG
ENERGY: 0 3.0106 17.1276 3.8991 0.0000 -10693.5719 1427.9269 0.0000 0.0000 1743.1100 -7498.4978 298.4089 -9241.6078 -7498.4978 298.4089 -361.8244 -271.3530 29674.1002 -361.8244 -271.3530
ENERGY: 300000 6.7609 11.0889 5.2398 0.0000 -10457.4407 1391.3790 0.0000 0.0000 1774.0899 -7268.8822 303.7124 -9042.9721 -7404.7944 300.8989 -100.4266 -39.1823 30291.6000 -26.7355 48.4860
ENERGY: 600000 4.9730 8.9852 5.6289 0.0000 -10658.3800 1456.1518 0.0000 0.0000 1772.1134 -7410.5277 303.3740 -9182.6410 -7413.1660 301.2007 291.5495 349.6873 29752.0327 17.5122 86.7026
ENERGY: 900000 0.5065 9.7950 3.8241 0.0000 -10670.3613 1402.7517 0.0000 0.0000 1707.6592 -7545.8248 292.3399 -9253.4840 -7409.2339 300.7795 -456.5274 -412.6308 29885.4180 10.5847 71.9050
ENERGY: 1200000 3.6350 12.9688 3.8901 0.0000 -10627.7991 1435.9263 0.0000 0.0000 1738.4802 -7432.8986 297.6163 -9171.3788 -7404.8032 300.4229 16.1430 115.6297 29779.4303 10.6182 71.6067
ENERGY: 1500000 6.0511 9.1621 4.7495 0.0000 -10602.4144 1412.4426 0.0000 0.0000 1722.6568 -7447.3523 294.9074 -9170.0092 -7407.5640 300.4161 -332.5608 -237.3406 29803.3376 33.5195 94.6545
TCL: Running FEP window   4: Lambda1 0.15000000000000002 Lambda2 0.2    [dLambda 0.04999999999999999]
TCL: Setting parameter firsttimestep to 0
TCL: Setting parameter alchLambda to 0.15000000000000002
Info: NONBONDED TABLE R-SQUARED SPACING: 0.0625
Info: NONBONDED TABLE SIZE: 705 POINTS
TCL: Setting parameter alchLambda2 to 0.2
Info: NONBONDED TABLE R-SQUARED SPACING: 0.0625
Info: NONBONDED TABLE SIZE: 705 POINTS
TCL: Running for 1500000 steps
ETITLE: TS BOND ANGLE DIHED IMPRP ELECT VDW BOUNDARY MISC KINETIC TOTAL TEMP POTENTIAL TOTALAVG TEMPAVG PRESSURE GPRESSURE VOLUME PRESSAVG GPRESSAVG
ENERGY: 0 6.0511 9.1621 4.7495 0.0000 -10602.4140 1414.7329 0.0000 0.0000 1721.7818 -7445.9366 294.7576 -9167.7184 -7445.9366 294.7576 -311.9816 -226.8606 29803.3376 -311.9816 -226.8606
ENERGY: 300000 2.7823 19.8657 4.2185 0.0000 -10583.9677 1430.0309 0.0000 0.0000 1700.3752 -7426.6951 291.0929 -9127.0703 -7429.3120 294.7879 -107.8534 -49.2085 30073.5086 6.9698 60.0689
ENERGY: 600000 0.7613 12.2508 4.0112 0.0000 -10643.7500 1377.7796 0.0000 0.0000 1786.3817 -7462.5653 305.8167 -9248.9470 -7393.4330 299.9338 -387.1062 -329.4674 29744.9690 37.3943 81.2083
ENERGY: 900000 3.5083 15.2836 3.2178 0.0000 -10633.5788 1379.5520 0.0000 0.0000 1771.0051 -7461.0121 303.1843 -9232.0171 -7396.1134 300.3713 -707.6663 -665.9578 30158.4218 1.2580 49.8101
ENERGY: 1200000 1.3185 16.1134 4.3741 0.0000 -10720.2154 1502.1718 0.0000 0.0000 1756.1248 -7440.1127 300.6369 -9196.2375 -7405.1294 299.3911 520.3938 509.0467 30089.6811 9.8012 56.2264
ENERGY: 1500000 0.7021 12.4529 3.8712 0.0000 -10702.4026 1510.9425 0.0000 0.0000 1729.8806 -7444.5534 296.1441 -9174.4340 -7410.7871 299.2260 591.2853 684.2119 29845.2521 23.1206 68.6526
TCL: Running FEP window   5: Lambda1 0.2    Lambda2 0.25   [dLambda 0.04999999999999999]
TCL: Setting parameter firsttimestep to 0
TCL: Setting parameter alchLambda to 0.2
Info: NONBONDED TABLE R-SQUARED SPACING: 0.0625
Info: NONBONDED TABLE SIZE: 705 POINTS
TCL: Setting parameter alchLambda2 to 0.25
Info: NONBONDED TABLE R-SQUARED SPACING: 0.0625
Info: NONBONDED TABLE SIZE: 705 POINTS
TCL: Running for 1500000 steps
ETITLE: TS BOND ANGLE DIHED IMPRP ELECT VDW BOUNDARY MISC KINETIC TOTAL TEMP POTENTIAL TOTALAVG TEMPAVG PRESSURE GPRESSURE VOLUME PRESSAVG GPRESSAVG
ENERGY: 0 0.7021 12.4529 3.8712 0.0000 -10702.4040 1510.7844 0.0000 0.0000 1729.0017 -7445.5917 295.9936 -9174.5934 -7445.5917 295.9936 605.0405 684.9461 29845.2521 605.0405 684.9461
ENERGY: 300000 2.8114 13.0755 3.8105 0.0000 -10770.0716 1534.4762 0.0000 0.0000 1794.7094 -7421.1886 307.2423 -9215.8980 -7411.5295 302.9862 568.9864 645.1835 30356.1299 407.5804 494.4462
ENERGY: 600000 3.9214 9.0976 3.7547 0.0000 -10459.9234 1354.9693 0.0000 0.0000 1776.3351 -7311.8452 304.0968 -9088.1803 -7389.5564 302.3821 -635.8102 -532.1027 30569.5154 267.7299 353.4701
ENERGY: 900000 3.9138 11.7825 3.2434 0.0000 -10429.2224 1273.2000 0.0000 0.0000 1740.5410 -7396.5417 297.9691 -9137.0827 -7395.1522 301.2922 -1043.5042 -991.8114 29824.3729 -3.1276 71.2155
ENERGY: 1200000 2.9762 12.4700 3.8799 0.0000 -10567.3493 1361.2537 0.0000 0.0000 1735.4895 -7451.2800 297.1043 -9186.7695 -7402.1555 300.6785 -861.0588 -822.4510 30366.1513 -89.3312 -21.2908
ENERGY: 1500000 2.7483 23.2753 3.6055 0.0000 -10572.6580 1380.9478 0.0000 0.0000 1725.0441 -7437.0370 295.3161 -9162.0810 -7406.8308 299.6128 -221.9743 -199.3213 29471.4660 -68.4606 -3.5157
TCL: Running FEP window   6: Lambda1 0.25   Lambda2 0.3    [dLambda 0.04999999999999999]
TCL: Setting parameter firsttimestep to 0
TCL: Setting parameter alchLambda to 0.25
Info: NONBONDED TABLE R-SQUARED SPACING: 0.0625
Info: NONBONDED TABLE SIZE: 705 POINTS
TCL: Setting parameter alchLambda2 to 0.3
Info: NONBONDED TABLE R-SQUARED SPACING: 0.0625
Info: NONBONDED TABLE SIZE: 705 POINTS
TCL: Running for 1500000 steps
ETITLE: TS BOND ANGLE DIHED IMPRP ELECT VDW BOUNDARY MISC KINETIC TOTAL TEMP POTENTIAL TOTALAVG TEMPAVG PRESSURE GPRESSURE VOLUME PRESSAVG GPRESSAVG
ENERGY: 0 2.7483 23.2753 3.6055 0.0000 -10572.6572 1382.2962 0.0000 0.0000 1724.1292 -7436.6027 295.1595 -9160.7319 -7436.6027 295.1595 -274.3332 -189.0705 29471.4660 -274.3332 -189.0705
ENERGY: 300000 2.0508 11.6403 4.9983 0.0000 -10499.3725 1376.3333 0.0000 0.0000 1775.3621 -7328.9877 303.9302 -9104.3499 -7392.1669 299.3660 -507.5244 -402.7416 30415.2500 -338.8488 -253.1215
ENERGY: 600000 2.7951 8.8961 4.6705 0.0000 -10581.1260 1401.8968 0.0000 0.0000 1725.2297 -7437.6379 295.3479 -9162.8676 -7383.3478 300.9967 -337.7091 -338.3787 30290.9337 -176.2197 -120.3253
ENERGY: 900000 1.8349 10.1185 4.4995 0.0000 -10751.1780 1514.4856 0.0000 0.0000 1689.9809 -7530.2586 289.3135 -9220.2395 -7389.5704 300.5940 232.5730 341.6042 30047.9127 -76.5103 -9.0453
ENERGY: 1200000 5.2559 12.2328 5.2717 0.0000 -10604.1018 1463.8069 0.0000 0.0000 1762.8682 -7354.6662 301.7913 -9117.5344 -7395.0450 300.5592 412.7738 462.4935 29837.2475 -67.6487 2.6795
ENERGY: 1500000 1.2064 14.4875 3.7006 0.0000 -10718.6813 1528.5000 0.0000 0.0000 1771.4966 -7399.2903 303.2685 -9170.7869 -7396.8800 301.0785 791.8903 778.3619 29976.9259 -11.2444 48.6870
TCL: Running FEP window   7: Lambda1 0.3    Lambda2 0.35   [dLambda 0.04999999999999999]
TCL: Setting parameter firsttimestep to 0
TCL: Setting parameter alchLambda to 0.3
Info: NONBONDED TABLE R-SQUARED SPACING: 0.0625
Info: NONBONDED TABLE SIZE: 705 POINTS
TCL: Setting parameter alchLambda2 to 0.35
Info: NONBONDED TABLE R-SQUARED SPACING: 0.0625
Info: NONBONDED TABLE SIZE: 705 POINTS
TCL: Running for 1500000 steps
ETITLE: TS BOND ANGLE DIHED IMPRP ELECT VDW BOUNDARY MISC KINETIC TOTAL TEMP POTENTIAL TOTALAVG TEMPAVG PRESSURE GPRESSURE VOLUME PRESSAVG GPRESSAVG
ENERGY: 0 1.2064 14.4875 3.7006 0.0000 -10718.6819 1528.9358 0.0000 0.0000 1770.6394 -7399.7123 303.1217 -9170.3517 -7399.7123 303.1217 714.4022 786.7395 29976.9259 714.4022 786.7395
ENERGY: 300000 5.3921 11.2489 4.8086 0.0000 -10666.8048 1470.0961 0.0000 0.0000 1708.1625 -7467.0965 292.4261 -9175.2590 -7361.0230 299.8514 156.0193 210.2344 29891.0139 -24.5786 37.0221
ENERGY: 600000 5.1337 12.1903 3.7309 0.0000 -10656.5111 1477.1747 0.0000 0.0000 1737.7313 -7420.5502 297.4881 -9158.2814 -7384.8305 299.0154 124.9808 201.3245 30194.3763 35.8770 92.9993
ENERGY: 900000 1.5692 13.7266 3.8664 0.0000 -10525.4207 1369.4502 0.0000 0.0000 1767.1340 -7369.6743 302.5216 -9136.8083 -7372.7779 300.9607 -160.8648 -87.6680 29682.9459 75.6853 130.2096
ENERGY: 1200000 3.0579 10.1083 3.7794 0.0000 -10755.6214 1574.1704 0.0000 0.0000 1712.6529 -7451.8525 293.1948 -9164.5055 -7384.5749 300.0100 941.2835 988.8888 30364.4658 163.7636 215.6254
ENERGY: 1500000 2.1727 12.9972 5.8030 0.0000 -10671.8578 1456.4214 0.0000 0.0000 1798.5940 -7395.8695 307.9074 -9194.4635 -7390.0718 300.4211 320.7004 356.7576 29725.4562 127.9077 182.7704
TCL: Running FEP window   8: Lambda1 0.35   Lambda2 0.39999999999999997 [dLambda 0.04999999999999999]
TCL: Setting parameter firsttimestep to 0
TCL: Setting parameter alchLambda to 0.35
Info: NONBONDED TABLE R-SQUARED SPACING: 0.0625
Info: NONBONDED TABLE SIZE: 705 POINTS
TCL: Setting parameter alchLambda2 to 0.39999999999999997
Info: NONBONDED TABLE R-SQUARED SPACING: 0.0625
Info: NONBONDED TABLE SIZE: 705 POINTS
TCL: Running for 1500000 steps
ETITLE: TS BOND ANGLE DIHED IMPRP ELECT VDW BOUNDARY MISC KINETIC TOTAL TEMP POTENTIAL TOTALAVG TEMPAVG PRESSURE GPRESSURE VOLUME PRESSAVG GPRESSAVG
ENERGY: 0 2.1727 12.9972 5.8030 0.0000 -10671.8571 1455.8845 0.0000 0.0000 1797.7381 -7397.2616 307.7608 -9194.9997 -7397.2616 307.7608 271.6692 357.2092 29725.4562 271.6692 357.2092
ENERGY: 300000 4.4792 18.3431 4.9648 0.0000 -10639.7640 1459.5675 0.0000 0.0000 1754.5898 -7397.8197 300.3741 -9152.4095 -7372.6390 303.8478 20.5197 75.7270 30309.7744 -205.2284 -126.8030
ENERGY: 600000 4.4713 8.3120 4.0916 0.0000 -10490.5272 1356.3095 0.0000 0.0000 1703.8490 -7413.4937 291.6876 -9117.3427 -7405.1419 301.3013 -691.3667 -556.2778 30308.6480 -125.0296 -40.9176
ENERGY: 900000 2.8867 16.4209 3.5888 0.0000 -10641.6869 1462.5688 0.0000 0.0000 1733.5482 -7422.6736 296.7719 -9156.2218 -7415.5779 300.0137 81.0207 181.4525 30364.4095 48.0569 133.7123
ENERGY: 1200000 1.8515 11.4128 4.7162 0.0000 -10514.5038 1362.5912 0.0000 0.0000 1742.5154 -7391.4168 298.3071 -9133.9322 -7414.1537 300.1226 -483.3353 -341.2158 30100.8690 -120.8106 -34.5513
ENERGY: 1500000 0.8544 11.1510 5.7377 0.0000 -10814.9977 1534.3864 0.0000 0.0000 1761.0809 -7501.7873 301.4854 -9262.8682 -7411.4459 300.1162 705.1268 780.8085 29766.2119 -36.8865 42.6481
TCL: Running FEP window   9: Lambda1 0.39999999999999997 Lambda2 0.44999999999999996 [dLambda 0.04999999999999999]
TCL: Setting parameter firsttimestep to 0
TCL: Setting parameter alchLambda to 0.39999999999999997
Info: NONBONDED TABLE R-SQUARED SPACING: 0.0625
Info: NONBONDED TABLE SIZE: 705 POINTS
TCL: Setting parameter alchLambda2 to 0.44999999999999996
Info: NONBONDED TABLE R-SQUARED SPACING: 0.0625
Info: NONBONDED TABLE SIZE: 705 POINTS
TCL: Running for 1500000 steps
ETITLE: TS BOND ANGLE DIHED IMPRP ELECT VDW BOUNDARY MISC KINETIC TOTAL TEMP POTENTIAL TOTALAVG TEMPAVG PRESSURE GPRESSURE VOLUME PRESSAVG GPRESSAVG
ENERGY: 0 0.8544 11.1510 5.7377 0.0000 -10814.9958 1534.5483 0.0000 0.0000 1760.2643 -7502.4401 301.3456 -9262.7044 -7502.4401 301.3456 704.8746 788.5930 29766.2119 704.8746 788.5930
ENERGY: 300000 2.2879 17.0230 3.6525 0.0000 -10804.4646 1520.1682 0.0000 0.0000 1768.6537 -7492.6793 302.7818 -9261.3330 -7434.4989 303.4803 497.8498 625.0608 29831.7334 -122.8442 -13.9130
ENERGY: 600000 2.0072 20.4824 4.8295 0.0000 -10483.8979 1369.9966 0.0000 0.0000 1766.0543 -7320.5280 302.3368 -9086.5823 -7409.2745 301.6438 -235.3744 -192.0030 30282.8758 -187.2230 -112.7836
ENERGY: 900000 2.6626 11.9719 4.8437 0.0000 -10575.2639 1414.9933 0.0000 0.0000 1775.1378 -7365.6545 303.8918 -9140.7924 -7410.6414 301.7357 -106.1258 -28.8088 30190.9806 -41.1883 19.6502
ENERGY: 1200000 1.2031 10.9488 3.0547 0.0000 -10601.6951 1375.7579 0.0000 0.0000 1813.4146 -7397.3160 310.4445 -9210.7306 -7402.5860 302.3636 -595.8608 -482.2736 30143.9938 -35.6122 34.0499
ENERGY: 1500000 3.4291 11.8787 4.5878 0.0000 -10701.1059 1508.4769 0.0000 0.0000 1730.9130 -7441.8202 296.3208 -9172.7332 -7396.9177 302.2501 431.7787 512.6173 30048.8007 26.3982 92.4048
TCL: Running FEP window  10: Lambda1 0.44999999999999996 Lambda2 0.49999999999999994 [dLambda 0.04999999999999999]
TCL: Setting parameter firsttimestep to 0
TCL: Setting parameter alchLambda to 0.44999999999999996
Info: NONBONDED TABLE R-SQUARED SPACING: 0.0625
Info: NONBONDED TABLE SIZE: 705 POINTS
TCL: Setting parameter alchLambda2 to 0.49999999999999994
Info: NONBONDED TABLE R-SQUARED SPACING: 0.0625
Info: NONBONDED TABLE SIZE: 705 POINTS
TCL: Running for 1500000 steps
ETITLE: TS BOND ANGLE DIHED IMPRP ELECT VDW BOUNDARY MISC KINETIC TOTAL TEMP POTENTIAL TOTALAVG TEMPAVG PRESSURE GPRESSURE VOLUME PRESSAVG GPRESSAVG
ENERGY: 0 3.4291 11.8787 4.5878 0.0000 -10701.1051 1508.3645 0.0000 0.0000 1730.0408 -7442.8041 296.1715 -9172.8449 -7442.8041 296.1715 440.6266 519.0926 30048.8007 440.6266 519.0926
ENERGY: 300000 2.6514 11.0408 3.3666 0.0000 -10452.8524 1317.3963 0.0000 0.0000 1805.5980 -7312.7994 309.1064 -9118.3973 -7362.8775 301.6087 -766.6384 -775.7449 30012.1948 -128.8818 -61.8637
ENERGY: 600000 7.7328 9.4958 3.8485 0.0000 -10616.8033 1422.9008 0.0000 0.0000 1831.8509 -7340.9745 313.6007 -9172.8254 -7370.9833 302.4160 -39.8413 53.3342 29746.6456 -142.8398 -75.5197
ENERGY: 900000 0.4714 8.8631 3.6401 0.0000 -10669.8563 1476.6188 0.0000 0.0000 1790.7253 -7389.5376 306.5603 -9180.2629 -7366.7383 303.2076 412.2069 428.0323 30177.2740 -43.1130 18.6930
ENERGY: 1200000 1.6999 12.3938 4.4621 0.0000 -10601.4835 1454.9062 0.0000 0.0000 1777.4376 -7350.5840 304.2855 -9128.0216 -7375.5800 303.5013 414.7889 416.3332 29855.8404 137.3364 194.1981
ENERGY: 1500000 3.5971 16.6402 4.8844 0.0000 -10636.4879 1480.0979 0.0000 0.0000 1823.0946 -7308.1737 312.1017 -9131.2683 -7378.4526 302.8501 150.2033 225.1169 30776.6745 87.2478 150.9175
TCL: Running FEP window  11: Lambda1 0.49999999999999994 Lambda2 0.5499999999999999 [dLambda 0.04999999999999999]
TCL: Setting parameter firsttimestep to 0
TCL: Setting parameter alchLambda to 0.49999999999999994
Info: NONBONDED TABLE R-SQUARED SPACING: 0.0625
Info: NONBONDED TABLE SIZE: 705 POINTS
TCL: Setting parameter alchLambda2 to 0.5499999999999999
Info: NONBONDED TABLE R-SQUARED SPACING: 0.0625
Info: NONBONDED TABLE SIZE: 705 POINTS
TCL: Running for 1500000 steps
ETITLE: TS BOND ANGLE DIHED IMPRP ELECT VDW BOUNDARY MISC KINETIC TOTAL TEMP POTENTIAL TOTALAVG TEMPAVG PRESSURE GPRESSURE VOLUME PRESSAVG GPRESSAVG
ENERGY: 0 3.5971 16.6402 4.8844 0.0000 -10636.4880 1481.1520 0.0000 0.0000 1822.2096 -7308.0047 311.9502 -9130.2144 -7308.0047 311.9502 157.1888 242.5775 30776.6745 157.1888 242.5775
ENERGY: 300000 1.8076 13.2581 4.3841 0.0000 -10533.7247 1374.8886 0.0000 0.0000 1709.4335 -7429.9527 292.6437 -9139.3863 -7366.0651 304.2071 -469.4730 -408.7546 30167.2164 -1.6359 77.7107
ENERGY: 600000 3.7207 9.8900 4.8163 0.0000 -10542.5377 1406.1626 0.0000 0.0000 1748.2711 -7369.6770 299.2924 -9117.9481 -7372.0507 303.4623 -108.6048 -86.5208 30306.7168 -243.3950 -178.5636
ENERGY: 900000 3.8770 11.1725 4.8424 0.0000 -10679.6156 1492.3076 0.0000 0.0000 1788.7500 -7378.6661 306.2221 -9167.4161 -7372.6625 303.8749 263.7435 326.2519 30361.5206 -83.6854 -25.4457
ENERGY: 1200000 2.5023 10.8867 3.3088 0.0000 -10660.4935 1438.8585 0.0000 0.0000 1783.4913 -7421.4459 305.3219 -9204.9372 -7378.7438 302.5562 0.0062 46.9132 30122.3872 -61.6206 -0.9395
ENERGY: 1500000 3.9262 11.4648 4.0454 0.0000 -10674.2323 1432.5021 0.0000 0.0000 1742.0554 -7480.2383 298.2283 -9222.2937 -7384.1184 302.0115 -258.0349 -217.0141 30233.8791 -95.9767 -35.9326
TCL: Running FEP window  12: Lambda1 0.5499999999999999 Lambda2 0.6    [dLambda 0.050000000000000044]
TCL: Setting parameter firsttimestep to 0
TCL: Setting parameter alchLambda to 0.5499999999999999
Info: NONBONDED TABLE R-SQUARED SPACING: 0.0625
Info: NONBONDED TABLE SIZE: 705 POINTS
TCL: Setting parameter alchLambda2 to 0.6
Info: NONBONDED TABLE R-SQUARED SPACING: 0.0625
Info: NONBONDED TABLE SIZE: 705 POINTS
TCL: Running for 1500000 steps
ETITLE: TS BOND ANGLE DIHED IMPRP ELECT VDW BOUNDARY MISC KINETIC TOTAL TEMP POTENTIAL TOTALAVG TEMPAVG PRESSURE GPRESSURE VOLUME PRESSAVG GPRESSAVG
ENERGY: 0 3.9262 11.4648 4.0454 0.0000 -10674.1938 1432.9983 0.0000 0.0000 1741.2015 -7480.5574 298.0821 -9221.7590 -7480.5574 298.0821 -302.0309 -204.6807 30233.8791 -302.0309 -204.6807
ENERGY: 300000 1.1810 12.8083 5.8879 0.0000 -10490.9522 1364.7384 0.0000 0.0000 1794.2431 -7312.0935 307.1625 -9106.3366 -7388.7474 301.0596 -391.6517 -379.1232 30140.7348 -745.5267 -676.2316
ENERGY: 600000 2.4708 15.8998 4.0394 0.0000 -10772.8451 1528.3761 0.0000 0.0000 1785.0012 -7437.0578 305.5804 -9222.0590 -7421.1221 302.9194 579.0271 670.5015 29973.5021 -142.5446 -73.3468
ENERGY: 900000 3.6839 11.1126 3.6880 0.0000 -10503.2412 1326.1077 0.0000 0.0000 1774.7997 -7383.8494 303.8339 -9158.6491 -7414.2866 302.4399 -1038.0550 -866.4195 30239.7239 -195.1079 -120.8159
ENERGY: 1200000 1.0650 14.6216 3.9121 0.0000 -10565.1939 1398.3853 0.0000 0.0000 1735.6957 -7411.5142 297.1396 -9147.2098 -7406.4479 301.0966 -289.1886 -262.2336 30469.8876 -191.7953 -127.8599
ENERGY: 1500000 1.0609 10.8901 3.5366 0.0000 -10596.7302 1398.4983 0.0000 0.0000 1762.1604 -7420.5839 301.6702 -9182.7443 -7402.8692 301.2235 -163.6385 -110.7306 29883.8710 -179.3504 -114.4954
TCL: Running FEP window  13: Lambda1 0.6    Lambda2 0.65   [dLambda 0.050000000000000044]
TCL: Setting parameter firsttimestep to 0
TCL: Setting parameter alchLambda to 0.6
Info: NONBONDED TABLE R-SQUARED SPACING: 0.0625
Info: NONBONDED TABLE SIZE: 705 POINTS
TCL: Setting parameter alchLambda2 to 0.65
Info: NONBONDED TABLE R-SQUARED SPACING: 0.0625
Info: NONBONDED TABLE SIZE: 705 POINTS
TCL: Running for 1500000 steps
ETITLE: TS BOND ANGLE DIHED IMPRP ELECT VDW BOUNDARY MISC KINETIC TOTAL TEMP POTENTIAL TOTALAVG TEMPAVG PRESSURE GPRESSURE VOLUME PRESSAVG GPRESSAVG
ENERGY: 0 1.0609 10.8901 3.5366 0.0000 -10596.7167 1397.9470 0.0000 0.0000 1761.3250 -7421.9572 301.5271 -9183.2822 -7421.9572 301.5271 -191.9957 -111.4933 29883.8710 -191.9957 -111.4933
ENERGY: 300000 4.2605 10.9177 5.2708 0.0000 -10692.5974 1517.7928 0.0000 0.0000 1770.7038 -7383.6518 303.1327 -9154.3557 -7396.8280 306.4015 781.6877 859.8565 29829.9029 55.5562 114.9372
ENERGY: 600000 0.7437 15.3086 4.1693 0.0000 -10546.3220 1374.1839 0.0000 0.0000 1732.7134 -7419.2031 296.6290 -9151.9165 -7418.8614 302.7835 -439.6371 -392.4889 30320.0088 -107.4772 -60.3676
ENERGY: 900000 3.9138 11.7884 5.6477 0.0000 -10553.7976 1397.7229 0.0000 0.0000 1814.3435 -7320.3812 310.6036 -9134.7247 -7409.4984 302.2718 -510.1368 -427.4340 30780.5058 -206.8163 -158.3739
ENERGY: 1200000 3.0360 12.8914 5.4059 0.0000 -10583.4159 1379.7988 0.0000 0.0000 1760.0122 -7422.2715 301.3024 -9182.2837 -7405.1604 303.0096 -733.5404 -703.1904 30646.3474 -181.4351 -132.2565
ENERGY: 1500000 0.4857 11.3314 5.2580 0.0000 -10602.1531 1418.6201 0.0000 0.0000 1763.4908 -7402.9670 301.8979 -9166.4578 -7411.0962 302.2926 -54.2913 34.1039 30131.4099 -190.6211 -133.4411
TCL: Running FEP window  14: Lambda1 0.65   Lambda2 0.7000000000000001 [dLambda 0.050000000000000044]
TCL: Setting parameter firsttimestep to 0
TCL: Setting parameter alchLambda to 0.65
Info: NONBONDED TABLE R-SQUARED SPACING: 0.0625
Info: NONBONDED TABLE SIZE: 705 POINTS
TCL: Setting parameter alchLambda2 to 0.7000000000000001
Info: NONBONDED TABLE R-SQUARED SPACING: 0.0625
Info: NONBONDED TABLE SIZE: 705 POINTS
TCL: Running for 1500000 steps
ETITLE: TS BOND ANGLE DIHED IMPRP ELECT VDW BOUNDARY MISC KINETIC TOTAL TEMP POTENTIAL TOTALAVG TEMPAVG PRESSURE GPRESSURE VOLUME PRESSAVG GPRESSAVG
ENERGY: 0 0.4857 11.3314 5.2580 0.0000 -10602.1490 1418.0298 0.0000 0.0000 1762.6009 -7404.4433 301.7456 -9167.0441 -7404.4433 301.7456 -64.5226 33.6980 30131.4099 -64.5226 33.6980
ENERGY: 300000 2.2749 14.9593 4.4766 0.0000 -10657.1469 1461.6118 0.0000 0.0000 1777.1198 -7396.7045 304.2311 -9173.8242 -7424.9419 302.2169 228.9881 307.4545 30278.6161 -123.4522 -77.6066
ENERGY: 600000 3.2845 10.9727 3.8377 0.0000 -10627.0073 1439.5784 0.0000 0.0000 1699.2933 -7470.0405 290.9077 -9169.3339 -7407.4724 300.6868 -30.3809 11.2113 30272.4647 -125.4515 -77.9837
ENERGY: 900000 1.1212 16.4217 4.8663 0.0000 -10713.8687 1462.6781 0.0000 0.0000 1755.0141 -7473.7674 300.4468 -9228.7815 -7413.1077 301.4708 153.9496 217.1228 29881.3572 -104.0334 -50.0715
ENERGY: 1200000 3.5503 11.8058 5.2737 0.0000 -10637.6209 1474.7873 0.0000 0.0000 1747.3620 -7394.8418 299.1368 -9142.2038 -7400.0493 301.0386 410.4411 497.5387 29884.0581 -63.3536 -0.4818
ENERGY: 1500000 0.4441 13.0675 4.9236 0.0000 -10576.4369 1375.7699 0.0000 0.0000 1747.2115 -7435.0202 299.1110 -9182.2317 -7397.8382 301.0238 -445.6065 -406.1205 30245.3903 -167.4986 -99.6524
TCL: Running FEP window  15: Lambda1 0.7000000000000001 Lambda2 0.7500000000000001 [dLambda 0.050000000000000044]
TCL: Setting parameter firsttimestep to 0
TCL: Setting parameter alchLambda to 0.7000000000000001
Info: NONBONDED TABLE R-SQUARED SPACING: 0.0625
Info: NONBONDED TABLE SIZE: 705 POINTS
TCL: Setting parameter alchLambda2 to 0.7500000000000001
Info: NONBONDED TABLE R-SQUARED SPACING: 0.0625
Info: NONBONDED TABLE SIZE: 705 POINTS
TCL: Running for 1500000 steps
ETITLE: TS BOND ANGLE DIHED IMPRP ELECT VDW BOUNDARY MISC KINETIC TOTAL TEMP POTENTIAL TOTALAVG TEMPAVG PRESSURE GPRESSURE VOLUME PRESSAVG GPRESSAVG
ENERGY: 0 0.4441 13.0675 4.9236 0.0000 -10576.5176 1376.2339 0.0000 0.0000 1746.3378 -7435.5107 298.9614 -9181.8485 -7435.5107 298.9614 -465.9818 -391.8231 30245.3903 -465.9818 -391.8231
ENERGY: 300000 2.0462 16.0411 4.8531 0.0000 -10620.5589 1410.8364 0.0000 0.0000 1716.5711 -7470.2110 293.8656 -9186.7821 -7433.6315 297.0414 -420.3852 -354.9884 30327.3623 -418.3835 -354.1109
ENERGY: 600000 2.5805 10.6245 4.1956 0.0000 -10516.1307 1421.5708 0.0000 0.0000 1791.6260 -7285.5333 306.7145 -9077.1593 -7394.0487 299.9394 153.5379 196.9443 30152.3332 -305.2875 -255.9285
ENERGY: 900000 1.0844 12.1124 3.5153 0.0000 -10441.0034 1283.0908 0.0000 0.0000 1746.3820 -7394.8185 298.9690 -9141.2005 -7405.0176 298.2636 -982.7045 -947.8287 30284.7947 -415.4599 -374.3457
ENERGY: 1200000 3.7745 11.5629 3.5913 0.0000 -10662.2937 1506.3218 0.0000 0.0000 1677.6436 -7459.3997 287.2015 -9137.0433 -7410.2012 297.2145 380.1787 491.7620 30303.6161 -377.9541 -322.4322
ENERGY: 1500000 2.3915 10.2773 3.5950 0.0000 -10654.9128 1500.0771 0.0000 0.0000 1801.2096 -7337.3622 308.3551 -9138.5718 -7399.4558 298.5592 701.7465 741.0925 30042.1093 -353.2916 -291.1591
TCL: Running FEP window  16: Lambda1 0.7500000000000001 Lambda2 0.8000000000000002 [dLambda 0.050000000000000044]
TCL: Setting parameter firsttimestep to 0
TCL: Setting parameter alchLambda to 0.7500000000000001
Info: NONBONDED TABLE R-SQUARED SPACING: 0.0625
Info: NONBONDED TABLE SIZE: 705 POINTS
TCL: Setting parameter alchLambda2 to 0.8000000000000002
Info: NONBONDED TABLE R-SQUARED SPACING: 0.0625
Info: NONBONDED TABLE SIZE: 705 POINTS
TCL: Running for 1500000 steps
ETITLE: TS BOND ANGLE DIHED IMPRP ELECT VDW BOUNDARY MISC KINETIC TOTAL TEMP POTENTIAL TOTALAVG TEMPAVG PRESSURE GPRESSURE VOLUME PRESSAVG GPRESSAVG
ENERGY: 0 2.3915 10.2773 3.5950 0.0000 -10654.9405 1501.7498 0.0000 0.0000 1800.3691 -7336.5578 308.2112 -9136.9269 -7336.5578 308.2112 667.1103 769.8267 30042.1093 667.1103 769.8267
ENERGY: 300000 3.8819 10.1751 3.7911 0.0000 -10601.7166 1387.1233 0.0000 0.0000 1708.9250 -7487.8201 292.5566 -9196.7451 -7359.9502 303.5741 -729.2384 -694.4115 30826.0879 -31.9910 27.9720
ENERGY: 600000 2.4317 16.1574 3.2505 0.0000 -10653.6286 1458.1483 0.0000 0.0000 1723.8468 -7449.7940 295.1111 -9173.6408 -7382.8732 301.1937 -105.2293 -21.5856 30508.0373 -66.5255 9.6804
ENERGY: 900000 5.1181 10.4858 3.8123 0.0000 -10619.9437 1449.0772 0.0000 0.0000 1732.9326 -7418.5178 296.6666 -9151.4504 -7388.5815 300.9872 276.6873 247.0445 30238.4688 -59.5660 11.8516
ENERGY: 1200000 3.7021 10.9889 3.3869 0.0000 -10599.2463 1441.4218 0.0000 0.0000 1721.9561 -7417.7905 294.7875 -9139.7466 -7398.1637 300.5838 156.6334 188.9243 30393.5405 -84.9029 -16.3246
ENERGY: 1500000 2.3842 19.5992 4.2274 0.0000 -10729.2850 1530.9917 0.0000 0.0000 1772.1456 -7399.9370 303.3796 -9172.0826 -7405.1977 299.9756 985.6846 993.9420 29982.7228 -69.9285 -1.1302
TCL: Running FEP window  17: Lambda1 0.8000000000000002 Lambda2 0.8500000000000002 [dLambda 0.050000000000000044]
TCL: Setting parameter firsttimestep to 0
TCL: Setting parameter alchLambda to 0.8000000000000002
Info: NONBONDED TABLE R-SQUARED SPACING: 0.0625
Info: NONBONDED TABLE SIZE: 705 POINTS
TCL: Setting parameter alchLambda2 to 0.8500000000000002
Info: NONBONDED TABLE R-SQUARED SPACING: 0.0625
Info: NONBONDED TABLE SIZE: 705 POINTS
TCL: Running for 1500000 steps
ETITLE: TS BOND ANGLE DIHED IMPRP ELECT VDW BOUNDARY MISC KINETIC TOTAL TEMP POTENTIAL TOTALAVG TEMPAVG PRESSURE GPRESSURE VOLUME PRESSAVG GPRESSAVG
ENERGY: 0 2.3842 19.5992 4.2274 0.0000 -10729.2928 1530.7333 0.0000 0.0000 1771.2504 -7401.0984 303.2263 -9172.3488 -7401.0984 303.2263 919.7675 1000.0331 29982.7228 919.7675 1000.0331
ENERGY: 300000 0.7973 16.6552 5.1210 0.0000 -10664.7380 1424.7426 0.0000 0.0000 1769.0375 -7448.3845 302.8475 -9217.4220 -7405.8276 301.6670 171.0802 229.5770 29899.8495 229.2847 270.5887
ENERGY: 600000 2.5288 13.4929 4.4970 0.0000 -10484.3919 1329.6316 0.0000 0.0000 1742.6741 -7391.5675 298.3342 -9134.2416 -7410.8465 299.4891 -610.3486 -597.9592 30179.5401 89.8206 140.1115
ENERGY: 900000 4.6681 9.3115 4.2373 0.0000 -10650.2760 1450.5911 0.0000 0.0000 1704.1881 -7477.2798 291.7457 -9181.4679 -7415.9980 298.4172 71.5971 152.1221 30130.1589 80.9815 133.0491
ENERGY: 1200000 1.6851 10.6226 5.5007 0.0000 -10623.1645 1442.5395 0.0000 0.0000 1814.4671 -7348.3495 310.6247 -9162.8167 -7407.7090 298.9153 105.8414 215.3190 30293.4256 62.0391 121.0932
ENERGY: 1500000 0.9698 13.4317 4.2001 0.0000 -10567.8202 1475.5636 0.0000 0.0000 1736.2412 -7337.4139 297.2330 -9073.6551 -7397.3589 299.4011 749.4436 808.0841 30036.9538 130.8890 189.5631
TCL: Running FEP window  18: Lambda1 0.8500000000000002 Lambda2 0.9000000000000002 [dLambda 0.050000000000000044]
TCL: Setting parameter firsttimestep to 0
TCL: Setting parameter alchLambda to 0.8500000000000002
Info: NONBONDED TABLE R-SQUARED SPACING: 0.0625
Info: NONBONDED TABLE SIZE: 705 POINTS
TCL: Setting parameter alchLambda2 to 0.9000000000000002
Info: NONBONDED TABLE R-SQUARED SPACING: 0.0625
Info: NONBONDED TABLE SIZE: 705 POINTS
TCL: Running for 1500000 steps
ETITLE: TS BOND ANGLE DIHED IMPRP ELECT VDW BOUNDARY MISC KINETIC TOTAL TEMP POTENTIAL TOTALAVG TEMPAVG PRESSURE GPRESSURE VOLUME PRESSAVG GPRESSAVG
ENERGY: 0 0.9698 13.4317 4.2001 0.0000 -10567.7579 1475.5912 0.0000 0.0000 1735.3983 -7338.1668 297.0887 -9073.5651 -7338.1668 297.0887 722.5660 823.8619 30036.9538 722.5660 823.8619
ENERGY: 300000 2.3712 11.7319 5.4956 0.0000 -10475.6446 1348.2626 0.0000 0.0000 1726.0902 -7381.6930 295.4952 -9107.7832 -7388.9568 297.2612 -670.8945 -613.7513 30372.0705 -183.0739 -110.7339
ENERGY: 600000 4.3002 7.2469 4.6511 0.0000 -10514.6773 1376.7358 0.0000 0.0000 1750.4817 -7371.2616 299.6708 -9121.7433 -7394.5626 300.3326 -589.0450 -544.5202 30389.7386 -177.3187 -99.2155
ENERGY: 900000 1.2450 13.5033 5.2286 0.0000 -10665.9920 1440.4172 0.0000 0.0000 1764.2876 -7441.3104 302.0343 -9205.5980 -7407.8589 299.4772 -128.3010 -20.5382 30257.8958 -163.6826 -80.9541
ENERGY: 1200000 0.4387 11.9188 3.5354 0.0000 -10563.8344 1443.3219 0.0000 0.0000 1744.6993 -7359.9204 298.6809 -9104.6197 -7404.4747 299.4710 177.0931 284.1363 30604.5128 -83.6345 -7.5895
ENERGY: 1500000 3.0283 7.9791 5.2666 0.0000 -10587.1620 1398.4281 0.0000 0.0000 1797.0640 -7375.3959 307.6454 -9172.4599 -7411.0341 299.7935 -180.0226 -87.6256 30248.5861 -131.7434 -59.9683
TCL: Running FEP window  19: Lambda1 0.9000000000000002 Lambda2 0.9500000000000003 [dLambda 0.050000000000000044]
TCL: Setting parameter firsttimestep to 0
TCL: Setting parameter alchLambda to 0.9000000000000002
Info: NONBONDED TABLE R-SQUARED SPACING: 0.0625
Info: NONBONDED TABLE SIZE: 705 POINTS
TCL: Setting parameter alchLambda2 to 0.9500000000000003
Info: NONBONDED TABLE R-SQUARED SPACING: 0.0625
Info: NONBONDED TABLE SIZE: 705 POINTS
TCL: Running for 1500000 steps
ETITLE: TS BOND ANGLE DIHED IMPRP ELECT VDW BOUNDARY MISC KINETIC TOTAL TEMP POTENTIAL TOTALAVG TEMPAVG PRESSURE GPRESSURE VOLUME PRESSAVG GPRESSAVG
ENERGY: 0 3.0283 7.9791 5.2666 0.0000 -10587.1691 1398.1992 0.0000 0.0000 1796.1707 -7376.5252 307.4925 -9172.6959 -7376.5252 307.4925 -161.7612 -82.3884 30248.5861 -161.7612 -82.3884
ENERGY: 300000 1.1158 13.0421 5.9302 0.0000 -10735.3195 1506.4364 0.0000 0.0000 1700.0053 -7508.7898 291.0296 -9208.7951 -7435.4972 298.4597 510.5065 553.3607 30108.8465 82.9673 165.1728
ENERGY: 600000 4.5410 13.5227 4.2305 0.0000 -10580.9634 1391.1431 0.0000 0.0000 1746.9956 -7420.5305 299.0741 -9167.5261 -7427.8107 299.9225 -295.5008 -279.3561 30093.6992 210.5893 266.0911
ENERGY: 900000 1.2716 8.5393 3.3932 0.0000 -10655.3437 1478.2519 0.0000 0.0000 1759.9171 -7403.9706 301.2861 -9163.8877 -7426.4716 300.4799 181.4373 242.0603 30532.8075 188.1144 254.9322
ENERGY: 1200000 1.4531 11.4051 3.5463 0.0000 -10654.7163 1414.8811 0.0000 0.0000 1747.1001 -7476.3306 299.0919 -9223.4306 -7423.3562 300.0802 -230.2604 -196.3034 30240.3045 62.0415 128.7178
ENERGY: 1500000 3.2346 8.4507 4.6171 0.0000 -10481.8556 1266.1191 0.0000 0.0000 1800.1920 -7399.2422 308.1809 -9199.4341 -7416.4956 300.5247 -1265.7904 -1246.5041 30163.8870 8.7110 69.2351
TCL: Running FEP window  20: Lambda1 0.9500000000000003 Lambda2 1.0    [dLambda 0.04999999999999971]
TCL: Setting parameter firsttimestep to 0
TCL: Setting parameter alchLambda to 0.9500000000000003
Info: NONBONDED TABLE R-SQUARED SPACING: 0.0625
Info: NONBONDED TABLE SIZE: 705 POINTS
TCL: Setting parameter alchLambda2 to 1.0
Info: NONBONDED TABLE R-SQUARED SPACING: 0.0625
Info: NONBONDED TABLE SIZE: 705 POINTS
TCL: Running for 1500000 steps
ETITLE: TS BOND ANGLE DIHED IMPRP ELECT VDW BOUNDARY MISC KINETIC TOTAL TEMP POTENTIAL TOTALAVG TEMPAVG PRESSURE GPRESSURE VOLUME PRESSAVG GPRESSAVG
ENERGY: 0 3.2346 8.4507 4.6171 0.0000 -10481.8542 1265.7868 0.0000 0.0000 1799.3190 -7400.4461 308.0315 -9199.7651 -7400.4461 308.0315 -1325.3254 -1237.0896 30163.8870 -1325.3254 -1237.0896
ENERGY: 300000 3.8962 12.0169 4.5891 0.0000 -10740.0100 1512.3792 0.0000 0.0000 1729.7481 -7477.3805 296.1214 -9207.1286 -7443.3399 302.2613 600.0115 700.4476 29907.2607 -271.1883 -190.0663
ENERGY: 600000 1.0829 12.4386 4.2667 0.0000 -10341.2485 1292.1274 0.0000 0.0000 1750.6669 -7280.6660 299.7026 -9031.3329 -7405.9367 299.3625 -652.7886 -650.3195 30689.7944 -329.8172 -266.5754
ENERGY: 900000 2.2500 8.8644 4.5096 0.0000 -10506.7019 1414.6752 0.0000 0.0000 1765.3456 -7311.0571 302.2154 -9076.4027 -7404.2786 299.1907 217.3296 301.4723 30349.5558 -320.7770 -255.8534
ENERGY: 1200000 0.7641 14.8467 4.8981 0.0000 -10647.7075 1425.6536 0.0000 0.0000 1712.2922 -7489.2526 293.1331 -9201.5448 -7408.2497 298.5907 -243.3968 -154.5201 30464.0847 -343.8928 -283.2065
ENERGY: 1500000 2.9325 14.3975 3.6307 0.0000 -10561.0472 1395.7695 0.0000 0.0000 1730.3460 -7413.9710 296.2238 -9144.3170 -7409.2085 298.5168 -126.9427 -20.7728 30365.0518 -337.1734 -275.7828
TCL: Exiting due to exit command.
