Info: SIMULATION PARAMETERS:
Info: TIMESTEP               2
Info: NUMBER OF STEPS        0
Info: STEPS PER CYCLE        10
Info: PERIODIC CELL BASIS 1  30.9379 0 0
Info: PERIODIC CELL BASIS 2  0 31.2923 0
Info: PERIODIC CELL BASIS 3  0 0 31.568
Info: PERIODIC CELL CENTER   0 0 0
Info: WRAPPING WATERS AROUND PERIODIC BOUNDARIES ON OUTPUT.
Info: WRAPPING ALL CLUSTERS AROUND PERIODIC BOUNDARIES ON OUTPUT.
Info: FIRST LDB TIMESTEP     50
Info: LAST LDB TIMESTEP     -1
Info: HOM BACKGROUND SCALING 1
Info: PME BACKGROUND SCALING 1
Info: MIN ATOMS PER PATCH    40
Info: EMPTY PATCH LOAD       40 ATOMS
Info: VELOCITY FILE          mobley_1563176_equil.vel
Info: CENTER OF MASS MOVING INITIALLY? NO
Info: DIELECTRIC             1
Info: EXCLUDE                SCALED ONE-FOUR
Info: 1-4 ELECTROSTATICS SCALED BY 0.833333
Info: MODIFIED 1-4 VDW PARAMETERS WILL BE USED
Info: DCD FILENAME           mobley_1563176_prod.dcd
Info: DCD FREQUENCY          100000
Info: DCD FIRST STEP         100000
Info: DCD FILE WILL CONTAIN UNIT CELL DATA
Info: XST FILENAME           mobley_1563176_prod.xst
Info: XST FREQUENCY          100000
Info: NO VELOCITY DCD OUTPUT
Info: NO FORCE DCD OUTPUT
Info: OUTPUT FILENAME        mobley_1563176_prod
Info: BINARY OUTPUT FILES WILL BE USED
Info: RESTART FILENAME       mobley_1563176_prod.restart
Info: RESTART FREQUENCY      100000
Info: BINARY RESTART FILES WILL BE USED
Info: CUTOFF                 9
Info: PAIRLIST DISTANCE      11
Info: PAIRLIST SHRINK RATE   0.01
Info: PAIRLIST GROW RATE     0.01
Info: PAIRLIST TRIGGER       0.3
Info: PAIRLISTS PER CYCLE    2
Info: PAIRLISTS ENABLED
Info: MARGIN                 2
Info: HYDROGEN GROUP CUTOFF  2.5
Info: PATCH DIMENSION        15.5
Info: ENERGY OUTPUT STEPS    100000
Info: ENERGY EVALUATION STEPS    100000
Info: OUTPUT ENERGY PRECISION 4
Info: CROSSTERM ENERGY INCLUDED IN DIHEDRAL
Info: TIMING OUTPUT STEPS    1000000
Info: PRESSURE OUTPUT STEPS  100000
Info: ALCHEMICAL FEP ON
Info: FEP CURRENT LAMBDA VALUE     1
Info: FEP COMPARISON LAMBDA VALUE  0.95
Info: FEP INTRA-ALCHEMICAL NON-BONDED INTERACTIONS WILL BE RETAINED
Info: FEP INTRA-ALCHEMICAL BONDED INTERACTIONS WILL BE RETAINED
Info: FEP VDW SHIFTING COEFFICIENT 5
Info: FEP ELEC. ACTIVE FOR ANNIHILATED PARTICLES BETWEEN LAMBDA = 0 AND LAMBDA = 0.5
Info: FEP ELEC. ACTIVE FOR EXNIHILATED PARTICLES BETWEEN LAMBDA = 0.5 AND LAMBDA = 1
Info: FEP VDW ACTIVE FOR ANNIHILATED PARTICLES BETWEEN LAMBDA = 0 AND LAMBDA = 1
Info: FEP VDW ACTIVE FOR EXNIHILATED PARTICLES BETWEEN LAMBDA = 0 AND LAMBDA = 1
Info: FEP BOND ACTIVE FOR ANNIHILATED PARTICLES BETWEEN LAMBDA = 1 AND LAMBDA = 1
Info: FEP BOND ACTIVE FOR EXNIHILATED PARTICLES BETWEEN LAMBDA = 0 AND LAMBDA = 0
Info: LANGEVIN DYNAMICS ACTIVE
Info: LANGEVIN TEMPERATURE   300
Info: LANGEVIN USING BBK INTEGRATOR
Info: LANGEVIN DAMPING COEFFICIENT IS 1 INVERSE PS
Info: LANGEVIN DYNAMICS APPLIED TO HYDROGENS
Info: LANGEVIN PISTON PRESSURE CONTROL ACTIVE
Info:        TARGET PRESSURE IS 1.01325 BAR
Info:     OSCILLATION PERIOD IS 50 FS
Info:             DECAY TIME IS 25 FS
Info:     PISTON TEMPERATURE IS 300 K
Info:       PRESSURE CONTROL IS GROUP-BASED
Info:    INITIAL STRAIN RATE IS 8.40272e-05 8.40272e-05 8.40272e-05
Info:       CELL FLUCTUATION IS ISOTROPIC
Info: PARTICLE MESH EWALD (PME) ACTIVE
Info: PME TOLERANCE               1e-06
Info: PME EWALD COEFFICIENT       0.348832
Info: PME INTERPOLATION ORDER     4
Info: PME GRID DIMENSIONS         32 32 32
Info: PME MAXIMUM GRID SPACING    1
Info: PME CALCULATION WILL BE PERFORMED ON GPU
Info: FULL ELECTROSTATIC EVALUATION FREQUENCY      2
Info: USING VERLET I (r-RESPA) MTS SCHEME.
Info: C1 SPLITTING OF LONG RANGE ELECTROSTATICS
Info: PLACING ATOMS IN PATCHES BY HYDROGEN GROUPS
Info: RIGID BONDS TO HYDROGEN : ALL
Info:         ERROR TOLERANCE : 1e-08
Info:          MAX ITERATIONS : 100
Info: RIGID WATER USING SETTLE ALGORITHM
Info: RANDOM NUMBER SEED     1743837645
Info: USE HYDROGEN BONDS?    NO
Info: Using AMBER format force field!
Info: AMBER PARM FILE        mobley_1563176.prmtop
Info: COORDINATE PDB         mobley_1563176.pdb
Info: Exclusions will be read from PARM file!
Info: SCNB (VDW SCALING)     2
Info: USING ARITHMETIC MEAN TO COMBINE L-J SIGMA PARAMETERS
Info: BINARY COORDINATES     mobley_1563176_equil.coor
Info: SUMMARY OF PARAMETERS:
Info: 7 BONDS
Info: 8 ANGLES
Info:   8 HARMONIC
Info:   0 COSINE-BASED
Info: 7 DIHEDRAL
Info: 0 IMPROPER
Info: 0 CROSSTERM
Info: 0 VDW
Info: 28 VDW_PAIRS
Info: 0 NBTHOLE_PAIRS
Info: To read alchdata from file: mobley_1563176.pdb
Info: To read alchflag data from column: 5
Info: STRUCTURE SUMMARY:
Info: 2973 ATOMS
Info: 2972 BONDS
Info: 25 ANGLES
Info: 32 DIHEDRALS
Info: 0 IMPROPERS
Info: 0 CROSSTERMS
Info: 3027 EXCLUSIONS
Info: 2968 RIGID BONDS
Info: ALCH: 0 ATOMS TO DISAPPEAR IN FINAL STATE
Info: ALCH: 15 ATOMS TO APPEAR IN FINAL STATE
Info: 5951 DEGREES OF FREEDOM
Info: 991 HYDROGEN GROUPS
Info: 4 ATOMS IN LARGEST HYDROGEN GROUP
Info: 991 MIGRATION GROUPS
Info: 4 ATOMS IN LARGEST MIGRATION GROUP
Info: TOTAL MASS = 17854 amu
Info: TOTAL CHARGE = 6.98492e-09 e
Info: MASS DENSITY = 0.970105 g/cm^3
Info: ATOM DENSITY = 0.0972792 atoms/A^3
Info: ADDED 0 IMPLICIT EXCLUSIONS
Info: NONBONDED TABLE R-SQUARED SPACING: 0.0625
Info: NONBONDED TABLE SIZE: 705 POINTS
Info: REMOVING COM VELOCITY -0.0436246 -0.177797 -0.0970353
Info: Use 3D box decompostion in PME FFT.
Info: Updated CUDA force table with 4096 elements.
Info: Updated CUDA LJ table with 7 x 7 elements.
Info: Found 18 unique exclusion lists needing 40 bytes
TCL: Running for 1500000 steps
ETITLE: TS BOND ANGLE DIHED IMPRP ELECT VDW BOUNDARY MISC KINETIC TOTAL TEMP POTENTIAL TOTALAVG TEMPAVG PRESSURE GPRESSURE VOLUME PRESSAVG GPRESSAVG
ENERGY: 0 1.6321 6.6586 2.7982 0.0000 -10822.9952 1409.7433 0.0000 0.0000 1760.3346 -7641.8285 297.7115 -9402.1630 -7641.8285 297.7115 -426.8054 -363.6196 30561.5184 -426.8054 -363.6196
ENERGY: 300000 0.2133 5.2286 0.8488 0.0000 -10698.8511 1427.1643 0.0000 0.0000 1793.4394 -7471.9568 303.3103 -9265.3962 -7564.1943 297.9595 -65.4816 38.2813 30621.3901 -243.4978 -197.2080
ENERGY: 600000 1.1560 3.9025 1.7055 0.0000 -10907.6881 1551.7978 0.0000 0.0000 1729.1334 -7619.9928 292.4347 -9349.1261 -7543.7348 297.1660 829.2066 910.6541 30322.3745 -8.9015 49.6141
ENERGY: 900000 0.7659 6.9755 1.2326 0.0000 -10731.2195 1368.2140 0.0000 0.0000 1729.1057 -7624.9259 292.4300 -9354.0316 -7548.2361 296.8980 -643.7966 -615.6062 30391.5776 -50.4002 9.5147
ENERGY: 1200000 0.8896 4.5385 3.0345 0.0000 -10595.3241 1332.3743 0.0000 0.0000 1723.9264 -7530.5608 291.5541 -9254.4872 -7553.6673 296.5703 -889.5464 -836.2181 31086.2835 -34.5752 22.7304
ENERGY: 1500000 1.6852 7.4289 0.9235 0.0000 -10766.8312 1448.5925 0.0000 0.0000 1806.8749 -7501.3262 305.5825 -9308.2011 -7551.6145 297.0017 -14.0809 58.4951 30849.6586 -22.8747 32.6144
TCL: Running FEP window   2: Lambda1 0.95   Lambda2 0.8999999999999999 [dLambda -0.050000000000000044]
TCL: Setting parameter firsttimestep to 0
TCL: Setting parameter alchLambda to 0.95
Info: NONBONDED TABLE R-SQUARED SPACING: 0.0625
Info: NONBONDED TABLE SIZE: 705 POINTS
TCL: Setting parameter alchLambda2 to 0.8999999999999999
Info: NONBONDED TABLE R-SQUARED SPACING: 0.0625
Info: NONBONDED TABLE SIZE: 705 POINTS
TCL: Running for 1500000 steps
ETITLE: TS BOND ANGLE DIHED IMPRP ELECT VDW BOUNDARY MISC KINETIC TOTAL TEMP POTENTIAL TOTALAVG TEMPAVG PRESSURE GPRESSURE VOLUME PRESSAVG GPRESSAVG
ENERGY: 0 1.6852 7.4289 0.9235 0.0000 -10766.2203 1449.0084 0.0000 0.0000 1805.9807 -7501.1936 305.4313 -9307.1743 -7501.1936 305.4313 -36.0405 52.3526 30849.6586 -36.0405 52.3526
ENERGY: 300000 0.3673 3.3964 1.9431 0.0000 -10720.9679 1398.6732 0.0000 0.0000 1773.8669 -7542.7211 300.0001 -9316.5880 -7525.2936 304.8042 -391.7818 -328.8107 30855.5452 -158.6091 -64.4207
ENERGY: 600000 0.9427 4.1359 0.6598 0.0000 -10723.3475 1384.8333 0.0000 0.0000 1802.3756 -7530.4003 304.8216 -9332.7759 -7517.3996 303.4769 -552.6496 -447.3692 30539.1916 -320.8458 -224.0311
ENERGY: 900000 1.7304 5.7843 2.4806 0.0000 -10680.2199 1427.5162 0.0000 0.0000 1769.7405 -7472.9679 299.3023 -9242.7084 -7513.9240 303.1884 131.1235 145.4744 30458.1091 -341.8781 -262.3296
ENERGY: 1200000 0.1656 4.1714 1.3547 0.0000 -10704.1585 1416.9670 0.0000 0.0000 1770.0107 -7511.4890 299.3480 -9281.4997 -7515.5904 302.5407 -369.7209 -277.2646 31086.3785 -260.0581 -186.1527
ENERGY: 1500000 0.3254 8.2898 1.8042 0.0000 -10847.1321 1472.3136 0.0000 0.0000 1763.9141 -7600.4850 298.3169 -9364.3991 -7526.1172 301.6370 102.6545 187.4065 30457.5997 -307.1675 -236.0392
TCL: Running FEP window   3: Lambda1 0.8999999999999999 Lambda2 0.8499999999999999 [dLambda -0.050000000000000044]
TCL: Setting parameter firsttimestep to 0
TCL: Setting parameter alchLambda to 0.8999999999999999
Info: NONBONDED TABLE R-SQUARED SPACING: 0.0625
Info: NONBONDED TABLE SIZE: 705 POINTS
TCL: Setting parameter alchLambda2 to 0.8499999999999999
Info: NONBONDED TABLE R-SQUARED SPACING: 0.0625
Info: NONBONDED TABLE SIZE: 705 POINTS
TCL: Running for 1500000 steps
ETITLE: TS BOND ANGLE DIHED IMPRP ELECT VDW BOUNDARY MISC KINETIC TOTAL TEMP POTENTIAL TOTALAVG TEMPAVG PRESSURE GPRESSURE VOLUME PRESSAVG GPRESSAVG
ENERGY: 0 0.3254 8.2898 1.8042 0.0000 -10846.2983 1472.7045 0.0000 0.0000 1763.0524 -7600.1219 298.1712 -9363.1743 -7600.1219 298.1712 94.1114 187.6711 30457.5997 94.1114 187.6711
ENERGY: 300000 1.5366 3.4477 1.5457 0.0000 -10736.7076 1437.4410 0.0000 0.0000 1735.9160 -7556.8207 293.5818 -9292.7366 -7534.1871 300.8475 -153.1187 -65.4044 30970.8816 190.8702 278.8474
ENERGY: 600000 1.6288 6.4218 1.8381 0.0000 -10796.6007 1528.3080 0.0000 0.0000 1765.2448 -7493.1592 298.5420 -9258.4040 -7519.3362 301.7469 1024.1690 1101.8933 30370.7321 288.3377 376.8826
ENERGY: 900000 1.7115 7.7963 1.4332 0.0000 -10704.3252 1420.7008 0.0000 0.0000 1860.2370 -7412.4464 314.6072 -9272.6834 -7516.0597 302.4663 108.5789 185.5944 30262.5487 329.0338 413.4148
ENERGY: 1200000 1.3239 3.3629 0.6433 0.0000 -10723.8221 1456.7583 0.0000 0.0000 1736.4583 -7525.2753 293.6735 -9261.7336 -7533.8914 301.6989 57.9182 211.3690 30637.1428 298.2200 386.3864
ENERGY: 1500000 1.9060 7.6425 1.4536 0.0000 -10848.1666 1498.9726 0.0000 0.0000 1756.5539 -7581.6380 297.0721 -9338.1919 -7534.3669 301.5098 78.5422 222.5462 30691.0994 192.1113 283.3536
TCL: Running FEP window   4: Lambda1 0.8499999999999999 Lambda2 0.7999999999999998 [dLambda -0.050000000000000044]
TCL: Setting parameter firsttimestep to 0
TCL: Setting parameter alchLambda to 0.8499999999999999
Info: NONBONDED TABLE R-SQUARED SPACING: 0.0625
Info: NONBONDED TABLE SIZE: 705 POINTS
TCL: Setting parameter alchLambda2 to 0.7999999999999998
Info: NONBONDED TABLE R-SQUARED SPACING: 0.0625
Info: NONBONDED TABLE SIZE: 705 POINTS
TCL: Running for 1500000 steps
ETITLE: TS BOND ANGLE DIHED IMPRP ELECT VDW BOUNDARY MISC KINETIC TOTAL TEMP POTENTIAL TOTALAVG TEMPAVG PRESSURE GPRESSURE VOLUME PRESSAVG GPRESSAVG
ENERGY: 0 1.9060 7.6425 1.4536 0.0000 -10847.3814 1498.9092 0.0000 0.0000 1755.6381 -7581.8320 296.9172 -9337.4700 -7581.8320 296.9172 123.1810 217.5500 30691.0994 123.1810 217.5500
ENERGY: 300000 1.2304 3.0391 1.5527 0.0000 -10769.9578 1456.9124 0.0000 0.0000 1843.3159 -7463.9072 311.7455 -9307.2231 -7542.3213 302.5945 -11.5738 105.9178 30858.1728 269.4635 346.1099
ENERGY: 600000 5.1806 7.4188 1.2794 0.0000 -10755.7176 1468.3958 0.0000 0.0000 1800.1145 -7473.3285 304.4392 -9273.4430 -7530.8820 300.6781 480.1776 445.2624 30725.8758 50.0122 105.1199
ENERGY: 900000 2.3890 5.8516 2.5670 0.0000 -10906.6062 1548.6786 0.0000 0.0000 1740.1720 -7606.9480 294.3016 -9347.1200 -7537.6806 300.9400 1109.6784 1184.6751 29899.2004 84.0759 138.5278
ENERGY: 1200000 3.8618 3.5719 2.2782 0.0000 -10850.0401 1477.2400 0.0000 0.0000 1786.5561 -7576.5322 302.1462 -9363.0882 -7549.7997 300.0243 10.0777 67.0663 30697.7496 -8.9276 52.6521
ENERGY: 1500000 2.3432 5.5814 0.6459 0.0000 -10622.0299 1391.4506 0.0000 0.0000 1741.5051 -7480.5036 294.5271 -9222.0087 -7550.9205 300.0076 -153.3343 -138.5383 30470.9964 0.8720 63.3275
TCL: Running FEP window   5: Lambda1 0.7999999999999998 Lambda2 0.7499999999999998 [dLambda -0.050000000000000044]
TCL: Setting parameter firsttimestep to 0
TCL: Setting parameter alchLambda to 0.7999999999999998
Info: NONBONDED TABLE R-SQUARED SPACING: 0.0625
Info: NONBONDED TABLE SIZE: 705 POINTS
TCL: Setting parameter alchLambda2 to 0.7499999999999998
Info: NONBONDED TABLE R-SQUARED SPACING: 0.0625
Info: NONBONDED TABLE SIZE: 705 POINTS
TCL: Running for 1500000 steps
ETITLE: TS BOND ANGLE DIHED IMPRP ELECT VDW BOUNDARY MISC KINETIC TOTAL TEMP POTENTIAL TOTALAVG TEMPAVG PRESSURE GPRESSURE VOLUME PRESSAVG GPRESSAVG
ENERGY: 0 2.3432 5.5814 0.6459 0.0000 -10621.7751 1391.4480 0.0000 0.0000 1740.5816 -7481.1750 294.3709 -9221.7566 -7481.1750 294.3709 -234.5214 -148.5288 30470.9964 -234.5214 -148.5288
ENERGY: 300000 1.0529 8.3800 2.1304 0.0000 -10749.5330 1441.5285 0.0000 0.0000 1808.6109 -7487.8303 305.8761 -9296.4412 -7500.1604 302.6909 7.4998 43.9215 30621.0550 -138.6490 -66.1394
ENERGY: 600000 1.2069 4.1069 1.5952 0.0000 -10763.9378 1416.0475 0.0000 0.0000 1719.1062 -7621.8751 290.7389 -9340.9812 -7549.9732 299.3036 -406.2229 -297.3938 30446.4771 -162.9472 -93.6533
ENERGY: 900000 1.6599 6.3312 1.8749 0.0000 -10722.0959 1453.2119 0.0000 0.0000 1795.6515 -7463.3664 303.6844 -9259.0180 -7542.0602 299.1909 21.5162 11.4434 31101.0593 -212.4401 -157.0846
ENERGY: 1200000 1.3343 5.7855 2.7672 0.0000 -10654.7259 1420.1189 0.0000 0.0000 1780.0809 -7444.6391 301.0511 -9224.7199 -7525.7438 299.3996 -167.0896 -63.1498 31064.3427 -105.3139 -48.8399
ENERGY: 1500000 1.5601 5.7385 4.4071 0.0000 -10716.3964 1421.5077 0.0000 0.0000 1768.8630 -7514.3199 299.1539 -9283.1829 -7537.5065 298.9135 -189.7187 -154.5706 30663.0850 -95.4677 -37.2059
TCL: Running FEP window   6: Lambda1 0.7499999999999998 Lambda2 0.6999999999999997 [dLambda -0.050000000000000044]
TCL: Setting parameter firsttimestep to 0
TCL: Setting parameter alchLambda to 0.7499999999999998
Info: NONBONDED TABLE R-SQUARED SPACING: 0.0625
Info: NONBONDED TABLE SIZE: 705 POINTS
TCL: Setting parameter alchLambda2 to 0.6999999999999997
Info: NONBONDED TABLE R-SQUARED SPACING: 0.0625
Info: NONBONDED TABLE SIZE: 705 POINTS
TCL: Running for 1500000 steps
ETITLE: TS BOND ANGLE DIHED IMPRP ELECT VDW BOUNDARY MISC KINETIC TOTAL TEMP POTENTIAL TOTALAVG TEMPAVG PRESSURE GPRESSURE VOLUME PRESSAVG GPRESSAVG
ENERGY: 0 1.5601 5.7385 4.4071 0.0000 -10716.1367 1421.5498 0.0000 0.0000 1767.9769 -7514.9043 299.0040 -9282.8811 -7514.9043 299.0040 -237.4922 -161.5853 30663.0850 -237.4922 -161.5853
ENERGY: 300000 0.7530 7.6829 0.9852 0.0000 -10520.0609 1345.5158 0.0000 0.0000 1761.3082 -7403.8159 297.8762 -9165.1241 -7492.1377 299.4761 -400.9375 -363.6907 30803.3541 93.3707 171.3847
ENERGY: 600000 0.6354 5.1033 0.8630 0.0000 -10919.9538 1540.0211 0.0000 0.0000 1743.9265 -7629.4046 294.9366 -9373.3311 -7519.4089 298.7618 753.0677 786.9253 30274.6385 123.9902 194.2554
ENERGY: 900000 0.7067 5.3340 0.8705 0.0000 -10891.3162 1548.9028 0.0000 0.0000 1773.5671 -7561.9350 299.9494 -9335.5021 -7532.5694 299.1177 740.4150 823.4509 30479.1738 96.7332 151.9630
ENERGY: 1200000 0.5776 6.4214 1.6568 0.0000 -10654.6290 1430.1244 0.0000 0.0000 1743.5605 -7472.2883 294.8747 -9215.8488 -7524.1575 299.4068 98.8955 151.5518 30788.9904 37.5049 93.3865
ENERGY: 1500000 0.5493 5.5093 1.5919 0.0000 -10712.7339 1438.5717 0.0000 0.0000 1796.3772 -7470.1346 303.8071 -9266.5118 -7515.9955 299.4628 -25.0047 59.4991 30686.6539 26.7722 87.1767
TCL: Running FEP window   7: Lambda1 0.6999999999999997 Lambda2 0.6499999999999997 [dLambda -0.050000000000000044]
TCL: Setting parameter firsttimestep to 0
TCL: Setting parameter alchLambda to 0.6999999999999997
Info: NONBONDED TABLE R-SQUARED SPACING: 0.0625
Info: NONBONDED TABLE SIZE: 705 POINTS
TCL: Setting parameter alchLambda2 to 0.6499999999999997
Info: NONBONDED TABLE R-SQUARED SPACING: 0.0625
Info: NONBONDED TABLE SIZE: 705 POINTS
TCL: Running for 1500000 steps
ETITLE: TS BOND ANGLE DIHED IMPRP ELECT VDW BOUNDARY MISC KINETIC TOTAL TEMP POTENTIAL TOTALAVG TEMPAVG PRESSURE GPRESSURE VOLUME PRESSAVG GPRESSAVG
ENERGY: 0 0.5493 5.5093 1.5919 0.0000 -10711.9105 1438.2408 0.0000 0.0000 1795.4609 -7470.5583 303.6522 -9266.0192 -7470.5583 303.6522 -17.9633 49.4467 30686.6539 -17.9633 49.4467
ENERGY: 300000 1.1013 6.0704 2.3474 0.0000 -10917.7884 1554.6716 0.0000 0.0000 1748.8102 -7604.7875 295.7625 -9353.5977 -7553.2969 298.8488 515.4651 623.1983 30555.8407 33.2288 103.0259
ENERGY: 600000 1.5380 6.9270 0.7095 0.0000 -10671.5202 1366.2820 0.0000 0.0000 1715.1233 -7580.9404 290.0653 -9296.0637 -7543.8827 297.8550 -673.7362 -634.1665 30581.0707 -77.2933 -14.9496
ENERGY: 900000 0.8128 3.0768 1.2872 0.0000 -10828.0410 1484.3830 0.0000 0.0000 1734.9797 -7603.5016 293.4235 -9338.4813 -7550.9929 298.1212 317.0651 339.8623 30301.8184 -53.0317 1.6174
ENERGY: 1200000 0.5231 6.1571 3.0036 0.0000 -10858.2404 1530.5931 0.0000 0.0000 1787.3810 -7530.5824 302.2857 -9317.9634 -7550.8429 298.9144 602.1286 612.2402 30721.8916 -31.1415 21.0976
ENERGY: 1500000 0.5994 3.7896 2.5299 0.0000 -10783.0879 1493.3178 0.0000 0.0000 1798.7724 -7484.0787 304.2122 -9282.8511 -7546.5203 299.8972 368.3173 388.2497 30641.9933 -47.9675 3.1649
TCL: Running FEP window   8: Lambda1 0.6499999999999997 Lambda2 0.5999999999999996 [dLambda -0.050000000000000044]
TCL: Setting parameter firsttimestep to 0
TCL: Setting parameter alchLambda to 0.6499999999999997
Info: NONBONDED TABLE R-SQUARED SPACING: 0.0625
Info: NONBONDED TABLE SIZE: 705 POINTS
TCL: Setting parameter alchLambda2 to 0.5999999999999996
Info: NONBONDED TABLE R-SQUARED SPACING: 0.0625
Info: NONBONDED TABLE SIZE: 705 POINTS
TCL: Running for 1500000 steps
ETITLE: TS BOND ANGLE DIHED IMPRP ELECT VDW BOUNDARY MISC KINETIC TOTAL TEMP POTENTIAL TOTALAVG TEMPAVG PRESSURE GPRESSURE VOLUME PRESSAVG GPRESSAVG
ENERGY: 0 0.5994 3.7896 2.5299 0.0000 -10783.1789 1493.7451 0.0000 0.0000 1797.8760 -7484.6389 304.0606 -9282.5149 -7484.6389 304.0606 296.1627 386.2840 30641.9933 296.1627 386.2840
ENERGY: 300000 2.4142 6.7943 1.5620 0.0000 -10795.7162 1423.2526 0.0000 0.0000 1841.1477 -7520.5456 311.3788 -9361.6933 -7524.1297 302.9908 -307.9176 -206.1914 30585.8225 213.5124 297.3149
ENERGY: 600000 1.8493 9.9806 0.9944 0.0000 -10673.5379 1424.0829 0.0000 0.0000 1830.5875 -7406.0432 309.5929 -9236.6307 -7529.7897 301.5574 -186.6774 -109.4283 30963.4937 262.9694 334.9369
ENERGY: 900000 0.2953 6.9195 2.8385 0.0000 -10765.6439 1449.8770 0.0000 0.0000 1790.7194 -7514.9942 302.8503 -9305.7136 -7519.0882 302.5096 -27.1510 77.8185 30433.0430 230.1005 308.7605
ENERGY: 1200000 0.5971 6.6764 0.7980 0.0000 -10779.2892 1418.4476 0.0000 0.0000 1801.6013 -7551.1689 304.6906 -9352.7702 -7529.8473 301.7297 -374.0017 -281.9934 30668.5793 87.6901 164.0046
ENERGY: 1500000 1.5062 6.6530 1.7012 0.0000 -10589.1936 1366.6477 0.0000 0.0000 1795.8573 -7416.8282 303.7192 -9212.6855 -7524.4433 301.2062 -557.0117 -494.9845 31053.9576 -12.2406 61.9230
TCL: Running FEP window   9: Lambda1 0.5999999999999996 Lambda2 0.5499999999999996 [dLambda -0.050000000000000044]
TCL: Setting parameter firsttimestep to 0
TCL: Setting parameter alchLambda to 0.5999999999999996
Info: NONBONDED TABLE R-SQUARED SPACING: 0.0625
Info: NONBONDED TABLE SIZE: 705 POINTS
TCL: Setting parameter alchLambda2 to 0.5499999999999996
Info: NONBONDED TABLE R-SQUARED SPACING: 0.0625
Info: NONBONDED TABLE SIZE: 705 POINTS
TCL: Running for 1500000 steps
ETITLE: TS BOND ANGLE DIHED IMPRP ELECT VDW BOUNDARY MISC KINETIC TOTAL TEMP POTENTIAL TOTALAVG TEMPAVG PRESSURE GPRESSURE VOLUME PRESSAVG GPRESSAVG
ENERGY: 0 1.5062 6.6530 1.7012 0.0000 -10588.5422 1366.5406 0.0000 0.0000 1794.9115 -7417.2296 303.5593 -9212.1411 -7417.2296 303.5593 -596.5901 -502.1189 31053.9576 -596.5901 -502.1189
ENERGY: 300000 1.0994 7.2621 1.6374 0.0000 -10845.4561 1468.9256 0.0000 0.0000 1766.8253 -7599.7063 298.8092 -9366.5315 -7519.1521 300.9948 2.4262 62.8336 30428.5318 123.3653 219.9666
ENERGY: 600000 0.1789 7.9815 3.3757 0.0000 -10711.4491 1459.0326 0.0000 0.0000 1818.2193 -7422.6610 307.5011 -9240.8804 -7518.0985 301.7221 364.5890 439.5847 30607.4311 95.4065 173.4793
ENERGY: 900000 2.6687 3.6256 0.7556 0.0000 -10833.7041 1491.1712 0.0000 0.0000 1793.5992 -7541.8838 303.3373 -9335.4830 -7511.6847 302.5434 216.8445 255.7713 30497.9590 11.8425 85.2531
ENERGY: 1200000 0.9521 5.9779 2.7511 0.0000 -10910.3421 1561.4647 0.0000 0.0000 1738.5848 -7600.6116 294.0332 -9339.1964 -7518.4061 301.2698 828.5360 831.1741 30362.0559 16.1285 88.0901
ENERGY: 1500000 0.2843 3.9993 0.8572 0.0000 -10834.5826 1480.2379 0.0000 0.0000 1751.4313 -7597.7726 296.2058 -9349.2039 -7527.7180 300.6165 96.5301 154.6978 30500.7846 -41.0990 24.3452
TCL: Running FEP window  10: Lambda1 0.5499999999999996 Lambda2 0.4999999999999996 [dLambda -0.04999999999999999]
TCL: Setting parameter firsttimestep to 0
TCL: Setting parameter alchLambda to 0.5499999999999996
Info: NONBONDED TABLE R-SQUARED SPACING: 0.0625
Info: NONBONDED TABLE SIZE: 705 POINTS
TCL: Setting parameter alchLambda2 to 0.4999999999999996
Info: NONBONDED TABLE R-SQUARED SPACING: 0.0625
Info: NONBONDED TABLE SIZE: 705 POINTS
TCL: Running for 1500000 steps
ETITLE: TS BOND ANGLE DIHED IMPRP ELECT VDW BOUNDARY MISC KINETIC TOTAL TEMP POTENTIAL TOTALAVG TEMPAVG PRESSURE GPRESSURE VOLUME PRESSAVG GPRESSAVG
ENERGY: 0 0.2843 3.9993 0.8572 0.0000 -10834.5748 1480.2924 0.0000 0.0000 1750.5500 -7598.5916 296.0567 -9349.1416 -7598.5916 296.0567 56.9880 147.7628 30500.7846 56.9880 147.7628
ENERGY: 300000 1.8660 3.9954 1.5006 0.0000 -10756.8716 1427.9949 0.0000 0.0000 1800.6548 -7520.8599 304.5306 -9321.5147 -7554.9647 299.4321 43.5020 144.8493 30048.4116 -22.8490 51.8427
ENERGY: 600000 0.4544 8.0162 0.8113 0.0000 -10784.2487 1441.1882 0.0000 0.0000 1744.9226 -7588.8559 295.1050 -9333.7785 -7554.6086 299.3348 -211.9769 -167.1476 30926.6240 -67.5351 -0.1978
ENERGY: 900000 1.1429 6.2054 2.4374 0.0000 -10762.3876 1459.7420 0.0000 0.0000 1858.0321 -7434.8278 314.2343 -9292.8599 -7534.6632 300.7633 235.3142 243.6306 30598.9025 11.6758 64.9945
ENERGY: 1200000 1.9095 3.5025 2.8424 0.0000 -10660.3170 1408.3816 0.0000 0.0000 1823.4341 -7420.2469 308.3831 -9243.6810 -7529.8946 300.5964 -203.3321 -162.5891 31022.6446 -106.3434 -56.3679
ENERGY: 1500000 0.7347 8.2143 1.8154 0.0000 -10635.2989 1340.8840 0.0000 0.0000 1656.6265 -7627.0241 280.1722 -9283.6505 -7536.5164 299.2955 -806.5325 -807.3970 30854.2403 -143.6765 -94.6289
TCL: Running FEP window  11: Lambda1 0.4999999999999996 Lambda2 0.4499999999999996 [dLambda -0.04999999999999999]
TCL: Setting parameter firsttimestep to 0
TCL: Setting parameter alchLambda to 0.4999999999999996
Info: NONBONDED TABLE R-SQUARED SPACING: 0.0625
Info: NONBONDED TABLE SIZE: 705 POINTS
TCL: Setting parameter alchLambda2 to 0.4499999999999996
Info: NONBONDED TABLE R-SQUARED SPACING: 0.0625
Info: NONBONDED TABLE SIZE: 705 POINTS
TCL: Running for 1500000 steps
ETITLE: TS BOND ANGLE DIHED IMPRP ELECT VDW BOUNDARY MISC KINETIC TOTAL TEMP POTENTIAL TOTALAVG TEMPAVG PRESSURE GPRESSURE VOLUME PRESSAVG GPRESSAVG
ENERGY: 0 0.7347 8.2143 1.8154 0.0000 -10635.2539 1340.6197 0.0000 0.0000 1655.7527 -7628.1171 280.0244 -9283.8699 -7628.1171 280.0244 -897.1972 -817.3586 30854.2403 -897.1972 -817.3586
ENERGY: 300000 1.9610 5.7339 1.3690 0.0000 -10827.8919 1500.9130 0.0000 0.0000 1789.0692 -7528.8458 302.5712 -9317.9150 -7523.8296 296.3595 486.2017 565.9007 30396.5948 -336.5246 -256.6760
ENERGY: 600000 2.1584 6.6340 1.1229 0.0000 -10759.5951 1433.3404 0.0000 0.0000 1807.7408 -7508.5986 305.7290 -9316.3394 -7539.9220 297.9534 -207.7762 -155.0630 30727.8867 -171.1278 -96.9288
ENERGY: 900000 0.5282 3.1081 1.4256 0.0000 -10657.0306 1417.2522 0.0000 0.0000 1799.4958 -7435.2207 304.3346 -9234.7165 -7527.2277 300.1335 55.9507 129.0605 30348.6057 -98.9486 -24.5281
ENERGY: 1200000 1.4697 6.8422 2.1935 0.0000 -10715.8661 1431.4370 0.0000 0.0000 1796.0690 -7477.8546 303.7550 -9273.9236 -7535.0730 299.8491 -29.7450 77.8974 30577.0678 -89.1099 -6.8394
ENERGY: 1500000 2.7012 5.0439 2.3530 0.0000 -10752.0329 1433.0155 0.0000 0.0000 1766.7412 -7542.1782 298.7950 -9308.9193 -7536.7729 299.3854 15.6887 27.5762 30629.0073 -49.6222 21.8462
TCL: Running FEP window  12: Lambda1 0.4499999999999996 Lambda2 0.39999999999999963 [dLambda -0.04999999999999999]
TCL: Setting parameter firsttimestep to 0
TCL: Setting parameter alchLambda to 0.4499999999999996
Info: NONBONDED TABLE R-SQUARED SPACING: 0.0625
Info: NONBONDED TABLE SIZE: 705 POINTS
TCL: Setting parameter alchLambda2 to 0.39999999999999963
Info: NONBONDED TABLE R-SQUARED SPACING: 0.0625
Info: NONBONDED TABLE SIZE: 705 POINTS
TCL: Running for 1500000 steps
ETITLE: TS BOND ANGLE DIHED IMPRP ELECT VDW BOUNDARY MISC KINETIC TOTAL TEMP POTENTIAL TOTALAVG TEMPAVG PRESSURE GPRESSURE VOLUME PRESSAVG GPRESSAVG
ENERGY: 0 2.7012 5.0439 2.3530 0.0000 -10752.0322 1433.0894 0.0000 0.0000 1765.8866 -7542.9581 298.6505 -9308.8447 -7542.9581 298.6505 -52.4978 24.3265 30629.0073 -52.4978 24.3265
ENERGY: 300000 1.1170 5.7705 2.7932 0.0000 -10793.8832 1508.9118 0.0000 0.0000 1787.0263 -7488.2644 302.2257 -9275.2906 -7523.7994 299.3394 503.3699 625.0768 30646.4714 53.9626 129.1325
ENERGY: 600000 0.3150 5.2096 1.7120 0.0000 -10872.6281 1530.1776 0.0000 0.0000 1779.9632 -7555.2507 301.0312 -9335.2139 -7526.1167 299.9119 557.2574 586.9931 30584.1813 42.5579 90.7542
ENERGY: 900000 1.6549 7.2601 1.0314 0.0000 -10901.3307 1539.5981 0.0000 0.0000 1791.6088 -7560.1775 303.0007 -9351.7863 -7527.1682 300.2414 592.2848 589.2303 30585.2473 163.1335 205.0640
ENERGY: 1200000 2.9932 4.8951 1.9222 0.0000 -10714.8068 1437.1092 0.0000 0.0000 1863.3892 -7404.4980 315.1403 -9267.8871 -7523.6999 301.1937 -125.4693 -43.4941 30878.9554 148.1896 200.6918
ENERGY: 1500000 1.7406 8.9112 2.1282 0.0000 -10686.7653 1448.4028 0.0000 0.0000 1768.5231 -7457.0595 299.0964 -9225.5825 -7519.1999 300.8752 -136.2450 -78.3205 31248.6218 140.8541 198.3345
TCL: Running FEP window  13: Lambda1 0.39999999999999963 Lambda2 0.34999999999999964 [dLambda -0.04999999999999999]
TCL: Setting parameter firsttimestep to 0
TCL: Setting parameter alchLambda to 0.39999999999999963
Info: NONBONDED TABLE R-SQUARED SPACING: 0.0625
Info: NONBONDED TABLE SIZE: 705 POINTS
TCL: Setting parameter alchLambda2 to 0.34999999999999964
Info: NONBONDED TABLE R-SQUARED SPACING: 0.0625
Info: NONBONDED TABLE SIZE: 705 POINTS
TCL: Running for 1500000 steps
ETITLE: TS BOND ANGLE DIHED IMPRP ELECT VDW BOUNDARY MISC KINETIC TOTAL TEMP POTENTIAL TOTALAVG TEMPAVG PRESSURE GPRESSURE VOLUME PRESSAVG GPRESSAVG
ENERGY: 0 1.7406 8.9112 2.1282 0.0000 -10686.7644 1447.5587 0.0000 0.0000 1767.6239 -7458.8018 298.9443 -9226.4257 -7458.8018 298.9443 -176.3073 -88.2118 31248.6218 -176.3073 -88.2118
ENERGY: 300000 0.8489 4.2203 1.6791 0.0000 -10828.0671 1478.2699 0.0000 0.0000 1758.1332 -7584.9157 297.3392 -9343.0489 -7550.3540 297.8131 180.1893 271.7800 30239.8998 95.5144 150.9145
ENERGY: 600000 0.1040 9.4077 1.8806 0.0000 -10775.7290 1433.4114 0.0000 0.0000 1776.2703 -7554.6550 300.4066 -9330.9253 -7545.1127 298.8719 -141.8432 -152.5316 30606.2772 -128.3022 -77.9794
ENERGY: 900000 1.4490 4.6671 1.3643 0.0000 -10959.6611 1552.8221 0.0000 0.0000 1710.9526 -7688.4059 289.3599 -9399.3585 -7550.7938 298.5850 540.3666 568.5792 30430.0246 -33.8323 25.3359
ENERGY: 1200000 2.7683 5.7378 0.8513 0.0000 -10870.8095 1485.2961 0.0000 0.0000 1846.0610 -7530.0950 312.2098 -9376.1560 -7556.1427 298.5221 9.7707 118.5230 30611.7762 -57.0746 5.4399
ENERGY: 1500000 1.3721 3.5105 1.8322 0.0000 -10844.4752 1504.4930 0.0000 0.0000 1730.0218 -7603.2455 292.5850 -9333.2673 -7560.7625 297.2533 280.7773 314.0930 30353.0411 -38.7277 24.5235
TCL: Running FEP window  14: Lambda1 0.34999999999999964 Lambda2 0.29999999999999966 [dLambda -0.04999999999999999]
TCL: Setting parameter firsttimestep to 0
TCL: Setting parameter alchLambda to 0.34999999999999964
Info: NONBONDED TABLE R-SQUARED SPACING: 0.0625
Info: NONBONDED TABLE SIZE: 705 POINTS
TCL: Setting parameter alchLambda2 to 0.29999999999999966
Info: NONBONDED TABLE R-SQUARED SPACING: 0.0625
Info: NONBONDED TABLE SIZE: 705 POINTS
TCL: Running for 1500000 steps
ETITLE: TS BOND ANGLE DIHED IMPRP ELECT VDW BOUNDARY MISC KINETIC TOTAL TEMP POTENTIAL TOTALAVG TEMPAVG PRESSURE GPRESSURE VOLUME PRESSAVG GPRESSAVG
ENERGY: 0 1.3721 3.5105 1.8322 0.0000 -10844.4760 1504.7987 0.0000 0.0000 1729.1211 -7603.8414 292.4326 -9332.9625 -7603.8414 292.4326 226.4489 311.9405 30353.0411 226.4489 311.9405
ENERGY: 300000 1.9124 6.5308 1.4507 0.0000 -10839.6599 1469.3052 0.0000 0.0000 1726.5455 -7633.9153 291.9970 -9360.4608 -7571.8627 295.8157 41.5948 134.0194 30316.7012 -202.3517 -122.9808
ENERGY: 600000 0.8010 6.8715 1.0651 0.0000 -10659.9557 1424.7695 0.0000 0.0000 1756.7799 -7469.6687 297.1104 -9226.4486 -7524.4974 296.8801 -114.3326 -51.7903 30696.6941 -43.2562 25.8797
ENERGY: 900000 2.0054 7.8428 1.9523 0.0000 -10734.9650 1421.5867 0.0000 0.0000 1754.1269 -7547.4508 296.6617 -9301.5777 -7528.3651 297.3207 -280.8369 -216.2645 30532.1198 -95.7174 -34.7858
ENERGY: 1200000 2.6599 4.4558 1.1898 0.0000 -10716.3391 1416.6171 0.0000 0.0000 1823.1284 -7468.2882 308.3313 -9291.4166 -7529.7884 297.4989 -26.3624 39.8928 30059.8853 5.8711 68.0996
ENERGY: 1500000 1.6330 3.2262 1.8058 0.0000 -10828.4880 1474.4237 0.0000 0.0000 1799.9273 -7547.4720 304.4075 -9347.3994 -7529.2874 298.9895 246.2549 324.3319 30294.2012 40.5672 104.4893
TCL: Running FEP window  15: Lambda1 0.29999999999999966 Lambda2 0.24999999999999967 [dLambda -0.04999999999999999]
TCL: Setting parameter firsttimestep to 0
TCL: Setting parameter alchLambda to 0.29999999999999966
Info: NONBONDED TABLE R-SQUARED SPACING: 0.0625
Info: NONBONDED TABLE SIZE: 705 POINTS
TCL: Setting parameter alchLambda2 to 0.24999999999999967
Info: NONBONDED TABLE R-SQUARED SPACING: 0.0625
Info: NONBONDED TABLE SIZE: 705 POINTS
TCL: Running for 1500000 steps
ETITLE: TS BOND ANGLE DIHED IMPRP ELECT VDW BOUNDARY MISC KINETIC TOTAL TEMP POTENTIAL TOTALAVG TEMPAVG PRESSURE GPRESSURE VOLUME PRESSAVG GPRESSAVG
ENERGY: 0 1.6330 3.2262 1.8058 0.0000 -10828.4874 1474.6617 0.0000 0.0000 1799.0654 -7548.0953 304.2618 -9347.1607 -7548.0953 304.2618 233.4406 320.0994 30294.2012 233.4406 320.0994
ENERGY: 300000 0.5109 7.6351 2.1904 0.0000 -10644.5454 1373.1989 0.0000 0.0000 1763.8061 -7497.2041 298.2986 -9261.0102 -7504.6813 303.0981 -550.6404 -553.8539 31037.9953 -163.9483 -122.3659
ENERGY: 600000 1.5793 8.9434 1.2290 0.0000 -10678.8877 1406.0195 0.0000 0.0000 1757.9070 -7503.2095 297.3010 -9261.1165 -7504.0770 302.5713 -437.4815 -337.4459 30986.5041 -104.2120 -51.7857
ENERGY: 900000 0.4474 4.3942 1.7633 0.0000 -10727.7969 1393.6276 0.0000 0.0000 1796.8556 -7530.7088 303.8880 -9327.5644 -7512.6204 301.9074 -420.4859 -321.5804 30234.3945 -152.4523 -103.5269
ENERGY: 1200000 1.1402 4.8743 2.0284 0.0000 -10552.0625 1378.1973 0.0000 0.0000 1757.1559 -7408.6665 297.1739 -9165.8223 -7504.8559 301.0015 -215.6678 -261.7277 30933.8374 -100.8545 -55.4046
ENERGY: 1500000 1.9747 5.2543 0.8925 0.0000 -10746.3597 1443.5198 0.0000 0.0000 1812.0897 -7482.6289 306.4645 -9294.7185 -7495.0067 301.4634 -243.1261 -180.0497 30831.6541 -52.3894 -10.3226
TCL: Running FEP window  16: Lambda1 0.24999999999999967 Lambda2 0.19999999999999968 [dLambda -0.04999999999999999]
TCL: Setting parameter firsttimestep to 0
TCL: Setting parameter alchLambda to 0.24999999999999967
Info: NONBONDED TABLE R-SQUARED SPACING: 0.0625
Info: NONBONDED TABLE SIZE: 705 POINTS
TCL: Setting parameter alchLambda2 to 0.19999999999999968
Info: NONBONDED TABLE R-SQUARED SPACING: 0.0625
Info: NONBONDED TABLE SIZE: 705 POINTS
TCL: Running for 1500000 steps
ETITLE: TS BOND ANGLE DIHED IMPRP ELECT VDW BOUNDARY MISC KINETIC TOTAL TEMP POTENTIAL TOTALAVG TEMPAVG PRESSURE GPRESSURE VOLUME PRESSAVG GPRESSAVG
ENERGY: 0 1.9747 5.2543 0.8925 0.0000 -10746.3602 1443.7129 0.0000 0.0000 1811.2095 -7483.3164 306.3156 -9294.5259 -7483.3164 306.3156 -266.3106 -182.2551 30831.6541 -266.3106 -182.2551
ENERGY: 300000 0.9517 3.9336 1.4331 0.0000 -10771.5570 1414.0172 0.0000 0.0000 1775.6428 -7575.5786 300.3005 -9351.2214 -7559.5797 299.3933 -455.6801 -405.9049 30770.6931 -203.8232 -127.1022
ENERGY: 600000 1.8492 2.6326 4.2244 0.0000 -10620.9744 1416.3430 0.0000 0.0000 1766.3453 -7429.5798 298.7281 -9195.9251 -7533.4863 300.4432 -381.0991 -284.7265 31181.0657 -92.5040 -23.7554
ENERGY: 900000 2.0405 6.2334 0.9612 0.0000 -10600.3552 1348.9071 0.0000 0.0000 1764.1486 -7478.0643 298.3566 -9242.2129 -7518.1049 300.7665 -574.3384 -496.5938 30192.3898 -233.4978 -155.1977
ENERGY: 1200000 0.4175 8.7577 2.1518 0.0000 -10939.1859 1567.5176 0.0000 0.0000 1832.0834 -7528.2578 309.8458 -9360.3412 -7528.7388 300.8080 988.7841 1013.0865 30056.5052 -104.4101 -30.1857
ENERGY: 1500000 2.1916 9.8917 2.6699 0.0000 -10615.3766 1338.8050 0.0000 0.0000 1734.9965 -7526.8219 293.4263 -9261.8183 -7528.7673 300.8429 -987.0138 -920.2132 30980.0261 -128.7381 -57.9809
TCL: Running FEP window  17: Lambda1 0.19999999999999968 Lambda2 0.1499999999999997 [dLambda -0.04999999999999999]
TCL: Setting parameter firsttimestep to 0
TCL: Setting parameter alchLambda to 0.19999999999999968
Info: NONBONDED TABLE R-SQUARED SPACING: 0.0625
Info: NONBONDED TABLE SIZE: 705 POINTS
TCL: Setting parameter alchLambda2 to 0.1499999999999997
Info: NONBONDED TABLE R-SQUARED SPACING: 0.0625
Info: NONBONDED TABLE SIZE: 705 POINTS
TCL: Running for 1500000 steps
ETITLE: TS BOND ANGLE DIHED IMPRP ELECT VDW BOUNDARY MISC KINETIC TOTAL TEMP POTENTIAL TOTALAVG TEMPAVG PRESSURE GPRESSURE VOLUME PRESSAVG GPRESSAVG
ENERGY: 0 2.1916 9.8917 2.6699 0.0000 -10615.3754 1338.9832 0.0000 0.0000 1734.1175 -7527.5215 293.2776 -9261.6390 -7527.5215 293.2776 -1028.6676 -922.6606 30980.0261 -1028.6676 -922.6606
ENERGY: 300000 0.4359 10.9262 0.8309 0.0000 -10822.3612 1428.6956 0.0000 0.0000 1784.5908 -7596.8818 301.8138 -9381.4726 -7516.4567 300.7993 -300.5743 -283.7685 30265.0235 -176.1355 -115.2314
ENERGY: 600000 1.1615 7.9100 1.2105 0.0000 -10738.1845 1442.9081 0.0000 0.0000 1782.8059 -7502.1885 301.5119 -9284.9944 -7514.6058 300.6861 13.7806 58.5536 30317.3965 -120.3622 -45.3163
ENERGY: 900000 1.8105 4.1569 1.2372 0.0000 -10919.5018 1548.6413 0.0000 0.0000 1791.2332 -7572.4227 302.9372 -9363.6559 -7514.5438 302.8465 729.5743 785.6314 30132.0867 48.5848 125.7981
ENERGY: 1200000 2.7259 5.0237 1.7654 0.0000 -10764.2371 1461.4020 0.0000 0.0000 1778.6918 -7514.6282 300.8161 -9293.3200 -7522.2943 302.3914 206.7050 240.8838 30358.1303 -40.3930 29.4077
ENERGY: 1500000 0.4248 5.4329 0.9935 0.0000 -10771.1126 1456.8823 0.0000 0.0000 1785.8944 -7521.4847 302.0343 -9307.3791 -7523.8301 302.2009 162.6442 285.3664 30348.9641 -29.8475 40.2146
TCL: Running FEP window  18: Lambda1 0.1499999999999997 Lambda2 0.09999999999999969 [dLambda -0.05 ]
TCL: Setting parameter firsttimestep to 0
TCL: Setting parameter alchLambda to 0.1499999999999997
Info: NONBONDED TABLE R-SQUARED SPACING: 0.0625
Info: NONBONDED TABLE SIZE: 705 POINTS
TCL: Setting parameter alchLambda2 to 0.09999999999999969
Info: NONBONDED TABLE R-SQUARED SPACING: 0.0625
Info: NONBONDED TABLE SIZE: 705 POINTS
TCL: Running for 1500000 steps
ETITLE: TS BOND ANGLE DIHED IMPRP ELECT VDW BOUNDARY MISC KINETIC TOTAL TEMP POTENTIAL TOTALAVG TEMPAVG PRESSURE GPRESSURE VOLUME PRESSAVG GPRESSAVG
ENERGY: 0 0.4248 5.4329 0.9935 0.0000 -10771.1121 1455.9542 0.0000 0.0000 1784.9758 -7523.3309 301.8789 -9308.3067 -7523.3309 301.8789 202.3575 278.5028 30348.9641 202.3575 278.5028
ENERGY: 300000 1.8642 7.7079 1.3761 0.0000 -10816.7134 1514.6600 0.0000 0.0000 1735.7195 -7555.3857 293.5486 -9291.1052 -7572.8386 295.9832 453.2396 570.5479 30501.4933 106.9117 195.4808
ENERGY: 600000 1.8262 7.7859 0.6758 0.0000 -10715.4878 1456.5404 0.0000 0.0000 1704.4890 -7544.1706 288.2668 -9248.6596 -7564.6758 295.7816 -15.4024 16.7796 30742.8162 80.9082 153.1020
ENERGY: 900000 0.4531 7.7865 1.5155 0.0000 -10920.9330 1570.8973 0.0000 0.0000 1779.6091 -7560.6715 300.9713 -9340.2806 -7546.8129 297.6843 814.6190 856.5424 30240.1218 154.1048 217.5035
ENERGY: 1200000 0.6055 4.6381 0.6554 0.0000 -10644.9517 1406.3473 0.0000 0.0000 1754.0801 -7478.6253 296.6538 -9232.7055 -7537.4174 297.9018 -334.6431 -276.1448 30865.4348 126.2389 192.6025
ENERGY: 1500000 0.9335 5.8486 1.6405 0.0000 -10682.5519 1428.1232 0.0000 0.0000 1718.1082 -7527.8979 290.5701 -9246.0061 -7535.7580 297.6390 28.1928 88.0147 30210.2354 70.7649 130.5882
TCL: Running FEP window  19: Lambda1 0.09999999999999969 Lambda2 0.049999999999999684 [dLambda -0.05 ]
TCL: Setting parameter firsttimestep to 0
TCL: Setting parameter alchLambda to 0.09999999999999969
Info: NONBONDED TABLE R-SQUARED SPACING: 0.0625
Info: NONBONDED TABLE SIZE: 705 POINTS
TCL: Setting parameter alchLambda2 to 0.049999999999999684
Info: NONBONDED TABLE R-SQUARED SPACING: 0.0625
Info: NONBONDED TABLE SIZE: 705 POINTS
TCL: Running for 1500000 steps
ETITLE: TS BOND ANGLE DIHED IMPRP ELECT VDW BOUNDARY MISC KINETIC TOTAL TEMP POTENTIAL TOTALAVG TEMPAVG PRESSURE GPRESSURE VOLUME PRESSAVG GPRESSAVG
ENERGY: 0 0.9335 5.8486 1.6405 0.0000 -10682.5524 1428.4145 0.0000 0.0000 1717.2069 -7528.5083 290.4177 -9245.7152 -7528.5083 290.4177 0.2992 84.1613 30210.2354 0.2992 84.1613
ENERGY: 300000 4.7036 7.9234 3.2120 0.0000 -10645.4146 1374.3710 0.0000 0.0000 1759.0235 -7496.1810 297.4898 -9255.2045 -7477.7486 298.9581 -598.1454 -457.1396 30518.3886 -159.8120 -76.8085
ENERGY: 600000 1.1257 7.6210 1.4860 0.0000 -10713.2711 1404.5824 0.0000 0.0000 1721.4691 -7576.9869 291.1385 -9298.4560 -7527.6039 295.9729 -611.3264 -575.2018 31015.9448 -159.9116 -90.7956
ENERGY: 900000 0.5575 3.0406 1.3207 0.0000 -10827.5848 1450.0872 0.0000 0.0000 1774.4197 -7598.1590 300.0936 -9372.5787 -7525.3409 297.3013 -308.5703 -198.7982 30427.8553 -298.3118 -227.6875
ENERGY: 1200000 0.9651 6.4794 1.7080 0.0000 -10746.3418 1456.8148 0.0000 0.0000 1756.6134 -7523.7611 297.0822 -9280.3745 -7517.8480 298.7122 192.1409 185.5744 30569.3342 -175.8558 -115.7772
ENERGY: 1500000 1.2611 5.3299 0.8582 0.0000 -10791.4468 1511.4285 0.0000 0.0000 1779.3848 -7493.1844 300.9333 -9272.5692 -7522.5684 298.4543 566.5250 677.8195 30428.4781 -157.9721 -90.6253
TCL: Running FEP window  20: Lambda1 0.049999999999999684 Lambda2 0.0    [dLambda -0.049999999999999684]
TCL: Setting parameter firsttimestep to 0
TCL: Setting parameter alchLambda to 0.049999999999999684
Info: NONBONDED TABLE R-SQUARED SPACING: 0.0625
Info: NONBONDED TABLE SIZE: 705 POINTS
TCL: Setting parameter alchLambda2 to 0.0
Info: NONBONDED TABLE R-SQUARED SPACING: 0.0625
Info: NONBONDED TABLE SIZE: 705 POINTS
TCL: Running for 1500000 steps
ETITLE: TS BOND ANGLE DIHED IMPRP ELECT VDW BOUNDARY MISC KINETIC TOTAL TEMP POTENTIAL TOTALAVG TEMPAVG PRESSURE GPRESSURE VOLUME PRESSAVG GPRESSAVG
ENERGY: 0 1.2611 5.3299 0.8582 0.0000 -10791.4477 1511.0032 0.0000 0.0000 1778.5277 -7494.4676 300.7884 -9272.9953 -7494.4676 300.7884 591.0229 674.5937 30428.4781 591.0229 674.5937
ENERGY: 300000 0.3643 11.3392 0.9747 0.0000 -10737.8493 1382.4597 0.0000 0.0000 1759.1478 -7583.5637 297.5108 -9342.7115 -7523.3928 301.2459 -720.7992 -590.5050 30585.7720 -60.3467 5.0517
ENERGY: 600000 0.9637 4.6064 2.7188 0.0000 -10755.5069 1487.2335 0.0000 0.0000 1775.7449 -7484.2396 300.3178 -9259.9846 -7518.8580 298.7205 428.9600 423.1401 30542.4029 116.3024 164.0339
ENERGY: 900000 1.9067 3.8092 2.6630 0.0000 -10720.5738 1418.2922 0.0000 0.0000 1773.3390 -7520.5636 299.9109 -9293.9026 -7512.4853 300.4975 -259.8806 -208.3500 30537.2632 -12.4056 44.4710
ENERGY: 1200000 0.6127 6.6207 0.9873 0.0000 -10785.0331 1493.1890 0.0000 0.0000 1836.4236 -7447.1998 310.5799 -9283.6234 -7514.6843 301.1236 28.2451 184.8363 30750.7643 8.7181 73.7383
ENERGY: 1500000 0.1664 5.3859 3.4194 0.0000 -10798.4507 1435.9991 0.0000 0.0000 1759.0600 -7594.4199 297.4960 -9353.4800 -7513.2952 300.4602 -347.0106 -340.6024 30518.6451 -74.7661 -13.0895
TCL: Exiting due to exit command.
