Info: SIMULATION PARAMETERS:
Info: TIMESTEP               2
Info: NUMBER OF STEPS        0
Info: STEPS PER CYCLE        10
Info: PERIODIC CELL BASIS 1  30.9514 0 0
Info: PERIODIC CELL BASIS 2  0 30.3091 0
Info: PERIODIC CELL BASIS 3  0 0 32.3642
Info: PERIODIC CELL CENTER   0 0 0
Info: WRAPPING WATERS AROUND PERIODIC BOUNDARIES ON OUTPUT.
Info: WRAPPING ALL CLUSTERS AROUND PERIODIC BOUNDARIES ON OUTPUT.
Info: FIRST LDB TIMESTEP     50
Info: LAST LDB TIMESTEP     -1
Info: HOM BACKGROUND SCALING 1
Info: PME BACKGROUND SCALING 1
Info: MIN ATOMS PER PATCH    40
Info: EMPTY PATCH LOAD       40 ATOMS
Info: VELOCITY FILE          mobley_7227357_equil.vel
Info: CENTER OF MASS MOVING INITIALLY? NO
Info: DIELECTRIC             1
Info: EXCLUDE                SCALED ONE-FOUR
Info: 1-4 ELECTROSTATICS SCALED BY 0.833333
Info: MODIFIED 1-4 VDW PARAMETERS WILL BE USED
Info: DCD FILENAME           mobley_7227357_prod.dcd
Info: DCD FREQUENCY          100000
Info: DCD FIRST STEP         100000
Info: DCD FILE WILL CONTAIN UNIT CELL DATA
Info: XST FILENAME           mobley_7227357_prod.xst
Info: XST FREQUENCY          100000
Info: NO VELOCITY DCD OUTPUT
Info: NO FORCE DCD OUTPUT
Info: OUTPUT FILENAME        mobley_7227357_prod
Info: BINARY OUTPUT FILES WILL BE USED
Info: RESTART FILENAME       mobley_7227357_prod.restart
Info: RESTART FREQUENCY      100000
Info: BINARY RESTART FILES WILL BE USED
Info: CUTOFF                 9
Info: PAIRLIST DISTANCE      11
Info: PAIRLIST SHRINK RATE   0.01
Info: PAIRLIST GROW RATE     0.01
Info: PAIRLIST TRIGGER       0.3
Info: PAIRLISTS PER CYCLE    2
Info: PAIRLISTS ENABLED
Info: MARGIN                 2
Info: HYDROGEN GROUP CUTOFF  2.5
Info: PATCH DIMENSION        15.5
Info: ENERGY OUTPUT STEPS    100000
Info: ENERGY EVALUATION STEPS    100000
Info: OUTPUT ENERGY PRECISION 4
Info: CROSSTERM ENERGY INCLUDED IN DIHEDRAL
Info: TIMING OUTPUT STEPS    1000000
Info: PRESSURE OUTPUT STEPS  100000
Info: ALCHEMICAL FEP ON
Info: FEP CURRENT LAMBDA VALUE     1
Info: FEP COMPARISON LAMBDA VALUE  0.95
Info: FEP INTRA-ALCHEMICAL NON-BONDED INTERACTIONS WILL BE RETAINED
Info: FEP INTRA-ALCHEMICAL BONDED INTERACTIONS WILL BE RETAINED
Info: FEP VDW SHIFTING COEFFICIENT 5
Info: FEP ELEC. ACTIVE FOR ANNIHILATED PARTICLES BETWEEN LAMBDA = 0 AND LAMBDA = 0.5
Info: FEP ELEC. ACTIVE FOR EXNIHILATED PARTICLES BETWEEN LAMBDA = 0.5 AND LAMBDA = 1
Info: FEP VDW ACTIVE FOR ANNIHILATED PARTICLES BETWEEN LAMBDA = 0 AND LAMBDA = 1
Info: FEP VDW ACTIVE FOR EXNIHILATED PARTICLES BETWEEN LAMBDA = 0 AND LAMBDA = 1
Info: FEP BOND ACTIVE FOR ANNIHILATED PARTICLES BETWEEN LAMBDA = 1 AND LAMBDA = 1
Info: FEP BOND ACTIVE FOR EXNIHILATED PARTICLES BETWEEN LAMBDA = 0 AND LAMBDA = 0
Info: LANGEVIN DYNAMICS ACTIVE
Info: LANGEVIN TEMPERATURE   300
Info: LANGEVIN USING BBK INTEGRATOR
Info: LANGEVIN DAMPING COEFFICIENT IS 1 INVERSE PS
Info: LANGEVIN DYNAMICS APPLIED TO HYDROGENS
Info: LANGEVIN PISTON PRESSURE CONTROL ACTIVE
Info:        TARGET PRESSURE IS 1.01325 BAR
Info:     OSCILLATION PERIOD IS 50 FS
Info:             DECAY TIME IS 25 FS
Info:     PISTON TEMPERATURE IS 300 K
Info:       PRESSURE CONTROL IS GROUP-BASED
Info:    INITIAL STRAIN RATE IS -0.00112856 -0.00112856 -0.00112856
Info:       CELL FLUCTUATION IS ISOTROPIC
Info: PARTICLE MESH EWALD (PME) ACTIVE
Info: PME TOLERANCE               1e-06
Info: PME EWALD COEFFICIENT       0.348832
Info: PME INTERPOLATION ORDER     4
Info: PME GRID DIMENSIONS         32 32 36
Info: PME MAXIMUM GRID SPACING    1
Info: PME CALCULATION WILL BE PERFORMED ON GPU
Info: FULL ELECTROSTATIC EVALUATION FREQUENCY      2
Info: USING VERLET I (r-RESPA) MTS SCHEME.
Info: C1 SPLITTING OF LONG RANGE ELECTROSTATICS
Info: PLACING ATOMS IN PATCHES BY HYDROGEN GROUPS
Info: RIGID BONDS TO HYDROGEN : ALL
Info:         ERROR TOLERANCE : 1e-08
Info:          MAX ITERATIONS : 100
Info: RIGID WATER USING SETTLE ALGORITHM
Info: RANDOM NUMBER SEED     1743852015
Info: USE HYDROGEN BONDS?    NO
Info: Using AMBER format force field!
Info: AMBER PARM FILE        mobley_7227357.prmtop
Info: COORDINATE PDB         mobley_7227357.pdb
Info: Exclusions will be read from PARM file!
Info: SCNB (VDW SCALING)     2
Info: USING ARITHMETIC MEAN TO COMBINE L-J SIGMA PARAMETERS
Info: BINARY COORDINATES     mobley_7227357_equil.coor
Info: SUMMARY OF PARAMETERS:
Info: 7 BONDS
Info: 7 ANGLES
Info:   7 HARMONIC
Info:   0 COSINE-BASED
Info: 9 DIHEDRAL
Info: 0 IMPROPER
Info: 0 CROSSTERM
Info: 0 VDW
Info: 21 VDW_PAIRS
Info: 0 NBTHOLE_PAIRS
Info: To read alchdata from file: mobley_7227357.pdb
Info: To read alchflag data from column: 5
Info: STRUCTURE SUMMARY:
Info: 2970 ATOMS
Info: 2969 BONDS
Info: 31 ANGLES
Info: 49 DIHEDRALS
Info: 0 IMPROPERS
Info: 0 CROSSTERMS
Info: 3039 EXCLUSIONS
Info: 2964 RIGID BONDS
Info: ALCH: 0 ATOMS TO DISAPPEAR IN FINAL STATE
Info: ALCH: 18 ATOMS TO APPEAR IN FINAL STATE
Info: 5946 DEGREES OF FREEDOM
Info: 990 HYDROGEN GROUPS
Info: 4 ATOMS IN LARGEST HYDROGEN GROUP
Info: 990 MIGRATION GROUPS
Info: 4 ATOMS IN LARGEST MIGRATION GROUP
Info: TOTAL MASS = 17815.9 amu
Info: TOTAL CHARGE = 0.000399984 e
Info: MASS DENSITY = 0.974425 g/cm^3
Info: ATOM DENSITY = 0.0978224 atoms/A^3
Info: ADDED 0 IMPLICIT EXCLUSIONS
Info: NONBONDED TABLE R-SQUARED SPACING: 0.0625
Info: NONBONDED TABLE SIZE: 705 POINTS
Info: REMOVING COM VELOCITY 0.144586 -0.0744361 0.0139899
Info: Use 3D box decompostion in PME FFT.
Info: Updated CUDA force table with 4096 elements.
Info: Updated CUDA LJ table with 6 x 6 elements.
Info: Found 21 unique exclusion lists needing 56 bytes
TCL: Running for 1500000 steps
ETITLE: TS BOND ANGLE DIHED IMPRP ELECT VDW BOUNDARY MISC KINETIC TOTAL TEMP POTENTIAL TOTALAVG TEMPAVG PRESSURE GPRESSURE VOLUME PRESSAVG GPRESSAVG
ENERGY: 0 1.8643 7.7700 4.2242 0.0000 -10774.6687 1482.2075 0.0000 0.0000 1761.5693 -7517.0333 298.1709 -9278.6026 -7517.0333 298.1709 448.1079 546.1251 30361.1447 448.1079 546.1251
ENERGY: 300000 1.2295 9.4290 3.7346 0.0000 -10819.6472 1503.7057 0.0000 0.0000 1788.0642 -7513.4843 302.6555 -9301.5484 -7527.4382 301.1218 540.4579 610.8798 30534.4322 313.9206 390.4952
ENERGY: 600000 2.4991 10.7516 4.2198 0.0000 -10807.9155 1513.5314 0.0000 0.0000 1718.6568 -7558.2568 290.9073 -9276.9136 -7530.3480 299.4806 814.8823 816.7104 30326.2617 372.0236 430.4159
ENERGY: 900000 2.6768 9.2953 2.4938 0.0000 -10967.5569 1499.4167 0.0000 0.0000 1742.6703 -7711.0040 294.9719 -9453.6743 -7554.3580 298.2926 -118.4820 -76.8547 30456.2988 254.9266 321.2661
ENERGY: 1200000 1.4497 10.2163 3.9044 0.0000 -10899.4400 1465.1821 0.0000 0.0000 1759.0595 -7659.6281 297.7460 -9418.6875 -7557.1264 298.5966 210.7411 226.8422 29765.8653 324.2378 389.0576
ENERGY: 1500000 0.9302 8.2225 3.0728 0.0000 -10744.4343 1411.0481 0.0000 0.0000 1739.9285 -7581.2323 294.5079 -9321.1608 -7550.6395 298.7415 -384.8375 -372.3583 30735.7810 287.6892 344.6033
TCL: Running FEP window   2: Lambda1 0.95   Lambda2 0.8999999999999999 [dLambda -0.050000000000000044]
TCL: Setting parameter firsttimestep to 0
TCL: Setting parameter alchLambda to 0.95
Info: NONBONDED TABLE R-SQUARED SPACING: 0.0625
Info: NONBONDED TABLE SIZE: 705 POINTS
TCL: Setting parameter alchLambda2 to 0.8999999999999999
Info: NONBONDED TABLE R-SQUARED SPACING: 0.0625
Info: NONBONDED TABLE SIZE: 705 POINTS
TCL: Running for 1500000 steps
ETITLE: TS BOND ANGLE DIHED IMPRP ELECT VDW BOUNDARY MISC KINETIC TOTAL TEMP POTENTIAL TOTALAVG TEMPAVG PRESSURE GPRESSURE VOLUME PRESSAVG GPRESSAVG
ENERGY: 0 0.9302 8.2225 3.0728 0.0000 -10743.5466 1411.4924 0.0000 0.0000 1739.0181 -7580.8106 294.3538 -9319.8287 -7580.8106 294.3538 -449.9551 -374.4482 30735.7810 -449.9551 -374.4482
ENERGY: 300000 1.7450 8.8508 3.8359 0.0000 -10774.2042 1431.9331 0.0000 0.0000 1801.3535 -7526.4859 304.9049 -9327.8394 -7559.8723 297.6114 -274.0897 -181.5859 30501.9720 -407.4987 -347.4955
ENERGY: 600000 4.1071 5.7237 2.8500 0.0000 -10825.1552 1497.4033 0.0000 0.0000 1780.9883 -7534.0828 301.4578 -9315.0711 -7553.1455 297.7835 518.0581 553.5259 30435.1091 -289.8076 -240.7148
ENERGY: 900000 3.8146 4.9457 3.4447 0.0000 -10735.7751 1439.8185 0.0000 0.0000 1760.4752 -7523.2765 297.9857 -9283.7516 -7544.1021 298.1682 -160.7732 -35.8833 30827.8770 -203.8137 -142.9237
ENERGY: 1200000 2.2969 7.1269 3.0876 0.0000 -10728.5776 1388.2400 0.0000 0.0000 1799.1361 -7528.6901 304.5296 -9327.8262 -7542.6479 298.7751 -706.0967 -628.0645 31236.5056 -235.2856 -176.4933
ENERGY: 1500000 1.4087 10.3809 2.9298 0.0000 -10772.1247 1413.1244 0.0000 0.0000 1763.5109 -7580.7700 298.4995 -9344.2809 -7543.9892 298.9803 -492.3918 -375.8156 30460.7815 -168.3225 -108.1053
TCL: Running FEP window   3: Lambda1 0.8999999999999999 Lambda2 0.8499999999999999 [dLambda -0.050000000000000044]
TCL: Setting parameter firsttimestep to 0
TCL: Setting parameter alchLambda to 0.8999999999999999
Info: NONBONDED TABLE R-SQUARED SPACING: 0.0625
Info: NONBONDED TABLE SIZE: 705 POINTS
TCL: Setting parameter alchLambda2 to 0.8499999999999999
Info: NONBONDED TABLE R-SQUARED SPACING: 0.0625
Info: NONBONDED TABLE SIZE: 705 POINTS
TCL: Running for 1500000 steps
ETITLE: TS BOND ANGLE DIHED IMPRP ELECT VDW BOUNDARY MISC KINETIC TOTAL TEMP POTENTIAL TOTALAVG TEMPAVG PRESSURE GPRESSURE VOLUME PRESSAVG GPRESSAVG
ENERGY: 0 1.4087 10.3809 2.9298 0.0000 -10770.7867 1413.1332 0.0000 0.0000 1762.5894 -7580.3448 298.3435 -9342.9342 -7580.3448 298.3435 -459.3061 -380.9099 30460.7815 -459.3061 -380.9099
ENERGY: 300000 0.6669 8.6823 3.8406 0.0000 -10557.8287 1405.7544 0.0000 0.0000 1787.0156 -7351.8688 302.4780 -9138.8845 -7501.1459 301.6276 12.0721 36.0119 30906.0821 -363.4184 -301.2200
ENERGY: 600000 0.7473 8.7884 3.3962 0.0000 -10864.6477 1537.5671 0.0000 0.0000 1813.6843 -7500.4644 306.9921 -9314.1488 -7508.0622 303.3397 361.0074 473.3796 31045.2654 -128.7678 -61.1973
ENERGY: 900000 0.5750 9.9201 3.5385 0.0000 -10705.9183 1411.5372 0.0000 0.0000 1792.1978 -7488.1498 303.3552 -9280.3476 -7517.3166 302.4725 -353.0281 -330.9441 30911.2620 -164.3382 -96.5750
ENERGY: 1200000 0.2237 7.6232 3.6462 0.0000 -10597.6817 1332.1316 0.0000 0.0000 1739.4868 -7514.5702 294.4331 -9254.0570 -7513.4714 301.8717 -779.0547 -697.9607 30619.0915 -212.6200 -143.4745
ENERGY: 1500000 1.1698 5.5929 2.8278 0.0000 -10771.9150 1435.2987 0.0000 0.0000 1761.8311 -7565.1947 298.2152 -9327.0258 -7510.4594 300.9158 -340.4390 -254.3321 30581.3486 -157.4185 -87.2612
TCL: Running FEP window   4: Lambda1 0.8499999999999999 Lambda2 0.7999999999999998 [dLambda -0.050000000000000044]
TCL: Setting parameter firsttimestep to 0
TCL: Setting parameter alchLambda to 0.8499999999999999
Info: NONBONDED TABLE R-SQUARED SPACING: 0.0625
Info: NONBONDED TABLE SIZE: 705 POINTS
TCL: Setting parameter alchLambda2 to 0.7999999999999998
Info: NONBONDED TABLE R-SQUARED SPACING: 0.0625
Info: NONBONDED TABLE SIZE: 705 POINTS
TCL: Running for 1500000 steps
ETITLE: TS BOND ANGLE DIHED IMPRP ELECT VDW BOUNDARY MISC KINETIC TOTAL TEMP POTENTIAL TOTALAVG TEMPAVG PRESSURE GPRESSURE VOLUME PRESSAVG GPRESSAVG
ENERGY: 0 1.1698 5.5929 2.8278 0.0000 -10770.7786 1435.1216 0.0000 0.0000 1760.9899 -7565.0765 298.0728 -9326.0665 -7565.0765 298.0728 -341.1356 -266.1307 30581.3486 -341.1356 -266.1307
ENERGY: 300000 0.9384 5.3583 3.5223 0.0000 -10864.8452 1474.5208 0.0000 0.0000 1808.5693 -7571.9361 306.1263 -9380.5054 -7563.9063 300.4259 109.4406 234.7021 30197.2243 104.1040 136.4271
ENERGY: 600000 2.3902 7.3804 2.6519 0.0000 -10759.3408 1454.1826 0.0000 0.0000 1823.9288 -7468.8070 308.7261 -9292.7358 -7537.1947 300.7788 -136.0953 -57.7763 31006.5065 -99.8818 -54.4691
ENERGY: 900000 0.5458 3.2454 2.7322 0.0000 -10819.5691 1481.4896 0.0000 0.0000 1754.1109 -7577.4453 296.9084 -9331.5561 -7533.2867 299.3552 63.6893 92.0748 30691.2515 93.2020 144.5478
ENERGY: 1200000 0.8340 5.5427 2.6893 0.0000 -10853.6790 1529.6309 0.0000 0.0000 1764.3044 -7550.6778 298.6338 -9314.9821 -7527.9984 299.3049 632.7367 709.4567 30581.3904 179.5656 239.5185
ENERGY: 1500000 1.4381 5.9742 3.7848 0.0000 -10627.5677 1361.9487 0.0000 0.0000 1848.6799 -7405.7421 312.9156 -9254.4220 -7522.4860 301.0631 -788.2991 -721.9163 31158.9987 168.2419 225.2120
TCL: Running FEP window   5: Lambda1 0.7999999999999998 Lambda2 0.7499999999999998 [dLambda -0.050000000000000044]
TCL: Setting parameter firsttimestep to 0
TCL: Setting parameter alchLambda to 0.7999999999999998
Info: NONBONDED TABLE R-SQUARED SPACING: 0.0625
Info: NONBONDED TABLE SIZE: 705 POINTS
TCL: Setting parameter alchLambda2 to 0.7499999999999998
Info: NONBONDED TABLE R-SQUARED SPACING: 0.0625
Info: NONBONDED TABLE SIZE: 705 POINTS
TCL: Running for 1500000 steps
ETITLE: TS BOND ANGLE DIHED IMPRP ELECT VDW BOUNDARY MISC KINETIC TOTAL TEMP POTENTIAL TOTALAVG TEMPAVG PRESSURE GPRESSURE VOLUME PRESSAVG GPRESSAVG
ENERGY: 0 1.4381 5.9742 3.7848 0.0000 -10626.6509 1362.2850 0.0000 0.0000 1847.7753 -7405.3935 312.7625 -9253.1688 -7405.3935 312.7625 -804.5906 -728.0603 31158.9987 -804.5906 -728.0603
ENERGY: 300000 1.4169 8.4932 3.2159 0.0000 -10690.4089 1410.5413 0.0000 0.0000 1720.5530 -7546.1887 291.2283 -9266.7417 -7484.1779 302.5617 -230.9453 -111.0211 30486.0524 -219.1616 -135.9574
ENERGY: 600000 0.4120 9.3536 3.0411 0.0000 -10691.9359 1392.2425 0.0000 0.0000 1776.1900 -7510.6967 300.6456 -9286.8867 -7495.3591 301.9382 -325.7790 -305.2535 30549.3537 -306.5446 -223.8416
ENERGY: 900000 1.9326 8.6976 3.6107 0.0000 -10693.4193 1391.0149 0.0000 0.0000 1812.4753 -7475.6882 306.7874 -9288.1635 -7501.1045 301.1468 -486.1812 -437.9669 30688.9029 -365.3418 -285.4442
ENERGY: 1200000 2.2186 8.9796 5.0535 0.0000 -10969.7920 1601.6734 0.0000 0.0000 1761.6716 -7590.1954 298.1882 -9351.8670 -7509.9331 300.8091 887.1696 931.7729 30530.8000 -276.3172 -198.1740
ENERGY: 1500000 2.0426 12.2346 3.0972 0.0000 -10776.1903 1461.6650 0.0000 0.0000 1778.5759 -7518.5751 301.0495 -9297.1509 -7509.2653 301.0710 76.1512 114.0416 30414.5129 -258.1372 -189.5145
TCL: Running FEP window   6: Lambda1 0.7499999999999998 Lambda2 0.6999999999999997 [dLambda -0.050000000000000044]
TCL: Setting parameter firsttimestep to 0
TCL: Setting parameter alchLambda to 0.7499999999999998
Info: NONBONDED TABLE R-SQUARED SPACING: 0.0625
Info: NONBONDED TABLE SIZE: 705 POINTS
TCL: Setting parameter alchLambda2 to 0.6999999999999997
Info: NONBONDED TABLE R-SQUARED SPACING: 0.0625
Info: NONBONDED TABLE SIZE: 705 POINTS
TCL: Running for 1500000 steps
ETITLE: TS BOND ANGLE DIHED IMPRP ELECT VDW BOUNDARY MISC KINETIC TOTAL TEMP POTENTIAL TOTALAVG TEMPAVG PRESSURE GPRESSURE VOLUME PRESSAVG GPRESSAVG
ENERGY: 0 2.0426 12.2347 3.0972 0.0000 -10774.9101 1461.5265 0.0000 0.0000 1777.6702 -7518.3389 300.8962 -9296.0091 -7518.3389 300.8962 15.2785 103.8277 30414.5129 15.2785 103.8277
ENERGY: 300000 1.8665 9.4077 3.0692 0.0000 -10825.0043 1520.1291 0.0000 0.0000 1801.6663 -7488.8656 304.9579 -9290.5319 -7514.9742 300.5895 676.6732 740.2484 30279.4840 264.3046 305.2861
ENERGY: 600000 2.4344 8.4330 3.6383 0.0000 -10661.5717 1306.7272 0.0000 0.0000 1753.2626 -7587.0763 296.7648 -9340.3389 -7548.3638 300.4551 -1483.6227 -1472.5547 31094.9986 -210.5628 -165.1196
ENERGY: 900000 0.8737 8.3770 3.4809 0.0000 -10760.8869 1461.0415 0.0000 0.0000 1741.3664 -7545.7474 294.7512 -9287.1138 -7555.5711 299.3131 37.7043 136.7083 30894.6913 -148.5061 -95.4123
ENERGY: 1200000 0.3258 8.6397 2.9453 0.0000 -10689.4796 1442.0565 0.0000 0.0000 1808.9037 -7426.6086 306.1829 -9235.5123 -7529.7976 301.0399 -11.8981 81.5649 30675.7757 -187.9840 -134.6943
ENERGY: 1500000 0.8334 9.8170 3.1625 0.0000 -10658.6468 1331.0017 0.0000 0.0000 1725.3385 -7588.4936 292.0383 -9313.8321 -7527.9645 301.0262 -871.8187 -845.5322 30452.6622 -221.5648 -171.3155
TCL: Running FEP window   7: Lambda1 0.6999999999999997 Lambda2 0.6499999999999997 [dLambda -0.050000000000000044]
TCL: Setting parameter firsttimestep to 0
TCL: Setting parameter alchLambda to 0.6999999999999997
Info: NONBONDED TABLE R-SQUARED SPACING: 0.0625
Info: NONBONDED TABLE SIZE: 705 POINTS
TCL: Setting parameter alchLambda2 to 0.6499999999999997
Info: NONBONDED TABLE R-SQUARED SPACING: 0.0625
Info: NONBONDED TABLE SIZE: 705 POINTS
TCL: Running for 1500000 steps
ETITLE: TS BOND ANGLE DIHED IMPRP ELECT VDW BOUNDARY MISC KINETIC TOTAL TEMP POTENTIAL TOTALAVG TEMPAVG PRESSURE GPRESSURE VOLUME PRESSAVG GPRESSAVG
ENERGY: 0 0.8334 9.8170 3.1625 0.0000 -10657.7495 1330.8902 0.0000 0.0000 1724.4580 -7588.5884 291.8892 -9313.0464 -7588.5884 291.8892 -918.5036 -853.1047 30452.6622 -918.5036 -853.1047
ENERGY: 300000 2.0994 11.7593 4.5254 0.0000 -10745.1801 1442.8679 0.0000 0.0000 1851.6852 -7432.2429 313.4243 -9283.9281 -7515.2667 300.8828 102.2107 153.1607 30383.8230 -503.0715 -450.5682
ENERGY: 600000 3.9094 4.0560 2.8030 0.0000 -10650.5084 1400.4135 0.0000 0.0000 1783.2775 -7456.0491 301.8453 -9239.3265 -7495.7075 300.3419 -216.6322 -168.7814 30666.4274 -312.0046 -248.6868
ENERGY: 900000 0.5174 6.7703 2.6129 0.0000 -10837.9774 1461.6420 0.0000 0.0000 1787.9812 -7578.4537 302.6415 -9366.4348 -7502.6779 300.4204 94.1127 102.6580 30070.2594 -126.5171 -76.3416
ENERGY: 1200000 1.2365 9.6898 2.0958 0.0000 -10700.6720 1447.1291 0.0000 0.0000 1753.7367 -7486.7842 296.8451 -9240.5208 -7497.6376 300.1313 372.7669 391.4482 30249.7391 -93.7197 -42.2910
ENERGY: 1500000 0.9299 5.6907 3.1527 0.0000 -10758.4928 1460.4700 0.0000 0.0000 1792.9314 -7495.3181 303.4794 -9288.2495 -7505.2513 299.9925 317.5208 450.0228 30251.6585 6.1467 61.2568
TCL: Running FEP window   8: Lambda1 0.6499999999999997 Lambda2 0.5999999999999996 [dLambda -0.050000000000000044]
TCL: Setting parameter firsttimestep to 0
TCL: Setting parameter alchLambda to 0.6499999999999997
Info: NONBONDED TABLE R-SQUARED SPACING: 0.0625
Info: NONBONDED TABLE SIZE: 705 POINTS
TCL: Setting parameter alchLambda2 to 0.5999999999999996
Info: NONBONDED TABLE R-SQUARED SPACING: 0.0625
Info: NONBONDED TABLE SIZE: 705 POINTS
TCL: Running for 1500000 steps
ETITLE: TS BOND ANGLE DIHED IMPRP ELECT VDW BOUNDARY MISC KINETIC TOTAL TEMP POTENTIAL TOTALAVG TEMPAVG PRESSURE GPRESSURE VOLUME PRESSAVG GPRESSAVG
ENERGY: 0 0.9298 5.6907 3.1527 0.0000 -10757.7221 1460.4145 0.0000 0.0000 1792.0494 -7495.4849 303.3301 -9287.5343 -7495.4849 303.3301 356.0264 443.3143 30251.6585 356.0264 443.3143
ENERGY: 300000 4.3520 5.9593 2.4562 0.0000 -10677.1162 1365.9370 0.0000 0.0000 1719.9681 -7578.4437 291.1293 -9298.4117 -7506.3057 298.6491 -850.3814 -848.4914 30624.7138 -565.9634 -502.3595
ENERGY: 600000 1.3816 7.7316 4.6089 0.0000 -10623.2030 1375.5608 0.0000 0.0000 1774.9890 -7458.9312 300.4423 -9233.9201 -7496.5314 300.1682 -447.5772 -402.3281 30634.8400 -362.2444 -307.4294
ENERGY: 900000 1.0240 9.4377 3.2776 0.0000 -10808.9150 1423.2347 0.0000 0.0000 1821.1026 -7550.8383 308.2477 -9371.9409 -7499.6964 300.6616 -137.5894 -136.6619 30344.6739 -244.6586 -193.0700
ENERGY: 1200000 2.0589 10.1720 3.7106 0.0000 -10717.8920 1452.6563 0.0000 0.0000 1745.4300 -7503.8643 295.4391 -9249.2943 -7503.3941 301.0923 221.0853 336.1005 30289.2534 -210.7199 -156.6985
ENERGY: 1500000 1.5372 8.5314 3.4058 0.0000 -10785.1614 1444.7897 0.0000 0.0000 1845.8653 -7481.0320 312.4392 -9326.8973 -7504.5806 301.4364 82.7686 197.9819 30249.5841 -221.5338 -162.8440
TCL: Running FEP window   9: Lambda1 0.5999999999999996 Lambda2 0.5499999999999996 [dLambda -0.050000000000000044]
TCL: Setting parameter firsttimestep to 0
TCL: Setting parameter alchLambda to 0.5999999999999996
Info: NONBONDED TABLE R-SQUARED SPACING: 0.0625
Info: NONBONDED TABLE SIZE: 705 POINTS
TCL: Setting parameter alchLambda2 to 0.5499999999999996
Info: NONBONDED TABLE R-SQUARED SPACING: 0.0625
Info: NONBONDED TABLE SIZE: 705 POINTS
TCL: Running for 1500000 steps
ETITLE: TS BOND ANGLE DIHED IMPRP ELECT VDW BOUNDARY MISC KINETIC TOTAL TEMP POTENTIAL TOTALAVG TEMPAVG PRESSURE GPRESSURE VOLUME PRESSAVG GPRESSAVG
ENERGY: 0 1.5372 8.5314 3.4058 0.0000 -10784.0785 1444.5869 0.0000 0.0000 1844.9565 -7481.0608 312.2853 -9326.0173 -7481.0608 312.2853 107.4311 191.3928 30249.5841 107.4311 191.3928
ENERGY: 300000 0.2824 11.1274 2.7288 0.0000 -10784.1468 1487.2034 0.0000 0.0000 1724.1031 -7558.7018 291.8292 -9282.8049 -7514.1104 303.2383 176.9406 311.5609 30298.9226 -69.1760 21.8381
ENERGY: 600000 1.9900 11.0564 4.1097 0.0000 -10778.2517 1471.1462 0.0000 0.0000 1748.1429 -7541.8065 295.8983 -9289.9494 -7514.8441 300.5220 104.4473 180.4130 30479.1087 -50.1090 20.2711
ENERGY: 900000 2.3884 10.8325 3.5393 0.0000 -10829.1212 1536.5887 0.0000 0.0000 1743.4465 -7532.3258 295.1033 -9275.7722 -7497.6132 300.4235 692.8951 791.8075 30482.1821 -27.8990 46.4372
ENERGY: 1200000 1.7086 8.3114 4.2807 0.0000 -10768.9522 1429.9367 0.0000 0.0000 1780.8291 -7543.8859 301.4309 -9324.7149 -7507.9102 300.9932 -53.4780 -49.3370 30242.1145 -58.2957 0.0178
ENERGY: 1500000 1.9585 8.0439 3.8594 0.0000 -10762.3383 1480.5934 0.0000 0.0000 1795.4197 -7472.4634 303.9005 -9267.8831 -7512.2965 300.7415 175.7650 250.8775 30687.9952 -17.3765 40.5145
TCL: Running FEP window  10: Lambda1 0.5499999999999996 Lambda2 0.4999999999999996 [dLambda -0.04999999999999999]
TCL: Setting parameter firsttimestep to 0
TCL: Setting parameter alchLambda to 0.5499999999999996
Info: NONBONDED TABLE R-SQUARED SPACING: 0.0625
Info: NONBONDED TABLE SIZE: 705 POINTS
TCL: Setting parameter alchLambda2 to 0.4999999999999996
Info: NONBONDED TABLE R-SQUARED SPACING: 0.0625
Info: NONBONDED TABLE SIZE: 705 POINTS
TCL: Running for 1500000 steps
ETITLE: TS BOND ANGLE DIHED IMPRP ELECT VDW BOUNDARY MISC KINETIC TOTAL TEMP POTENTIAL TOTALAVG TEMPAVG PRESSURE GPRESSURE VOLUME PRESSAVG GPRESSAVG
ENERGY: 0 1.9585 8.0439 3.8594 0.0000 -10762.0843 1480.6476 0.0000 0.0000 1794.5316 -7473.0433 303.7502 -9267.5749 -7473.0433 303.7502 166.6335 246.6141 30687.9952 166.6335 246.6141
ENERGY: 300000 1.5562 8.3726 4.9372 0.0000 -10718.7816 1427.8583 0.0000 0.0000 1834.1204 -7441.9370 310.4512 -9276.0573 -7514.7359 298.7585 -41.0645 31.2242 30321.8650 -52.3276 32.6826
ENERGY: 600000 3.3592 4.5575 4.0910 0.0000 -10880.8949 1464.2935 0.0000 0.0000 1724.9170 -7679.6766 291.9669 -9404.5936 -7524.7019 298.8122 -105.6817 62.0079 29937.7007 -12.9720 78.6874
ENERGY: 900000 0.8299 9.9227 3.5741 0.0000 -10817.5437 1491.1345 0.0000 0.0000 1786.8824 -7525.2001 302.4555 -9312.0825 -7525.1486 297.7291 168.2992 199.4604 30662.4324 -9.9106 67.5660
ENERGY: 1200000 1.1057 6.7406 4.5642 0.0000 -10762.0313 1412.5681 0.0000 0.0000 1768.4933 -7568.5594 299.3428 -9337.0527 -7525.8271 298.4994 -422.5604 -334.9634 30362.0849 -48.0866 28.0819
ENERGY: 1500000 0.2936 5.2465 3.2192 0.0000 -10759.7212 1494.0314 0.0000 0.0000 1785.3151 -7471.6155 302.1902 -9256.9306 -7522.1849 298.6056 627.8853 703.7145 30195.2013 46.7760 120.0764
TCL: Running FEP window  11: Lambda1 0.4999999999999996 Lambda2 0.4499999999999996 [dLambda -0.04999999999999999]
TCL: Setting parameter firsttimestep to 0
TCL: Setting parameter alchLambda to 0.4999999999999996
Info: NONBONDED TABLE R-SQUARED SPACING: 0.0625
Info: NONBONDED TABLE SIZE: 705 POINTS
TCL: Setting parameter alchLambda2 to 0.4499999999999996
Info: NONBONDED TABLE R-SQUARED SPACING: 0.0625
Info: NONBONDED TABLE SIZE: 705 POINTS
TCL: Running for 1500000 steps
ETITLE: TS BOND ANGLE DIHED IMPRP ELECT VDW BOUNDARY MISC KINETIC TOTAL TEMP POTENTIAL TOTALAVG TEMPAVG PRESSURE GPRESSURE VOLUME PRESSAVG GPRESSAVG
ENERGY: 0 0.2936 5.2465 3.2192 0.0000 -10759.6976 1494.4374 0.0000 0.0000 1784.4309 -7472.0701 302.0405 -9256.5010 -7472.0701 302.0405 608.3702 701.1476 30195.2013 608.3702 701.1476
ENERGY: 300000 0.8713 6.9549 2.4951 0.0000 -10738.7345 1474.8392 0.0000 0.0000 1793.1804 -7460.3937 303.5215 -9253.5740 -7482.0281 303.4192 421.5006 441.6438 30456.5218 231.4339 290.1287
ENERGY: 600000 0.8824 6.4433 3.6303 0.0000 -10728.6103 1412.7890 0.0000 0.0000 1876.6469 -7428.2184 317.6494 -9304.8653 -7481.8531 306.7492 119.7058 123.0179 30178.1385 82.7771 131.0230
ENERGY: 900000 0.6671 12.2613 3.4007 0.0000 -10615.1518 1365.5753 0.0000 0.0000 1766.1937 -7467.0538 298.9536 -9233.2475 -7481.1754 303.7420 -494.0944 -386.0150 30562.7314 32.5519 98.1945
ENERGY: 1200000 1.6262 5.1888 3.3245 0.0000 -10549.1819 1312.1386 0.0000 0.0000 1766.4572 -7460.4467 298.9982 -9226.9039 -7480.3360 304.1225 -921.2356 -846.5102 30812.8967 5.9363 73.0323
ENERGY: 1500000 0.9804 4.7828 4.2682 0.0000 -10630.5805 1363.3076 0.0000 0.0000 1803.0126 -7454.2289 305.1857 -9257.2415 -7485.2791 303.5736 -352.6934 -293.4144 30113.5358 -58.9120 4.7894
TCL: Running FEP window  12: Lambda1 0.4499999999999996 Lambda2 0.39999999999999963 [dLambda -0.04999999999999999]
TCL: Setting parameter firsttimestep to 0
TCL: Setting parameter alchLambda to 0.4499999999999996
Info: NONBONDED TABLE R-SQUARED SPACING: 0.0625
Info: NONBONDED TABLE SIZE: 705 POINTS
TCL: Setting parameter alchLambda2 to 0.39999999999999963
Info: NONBONDED TABLE R-SQUARED SPACING: 0.0625
Info: NONBONDED TABLE SIZE: 705 POINTS
TCL: Running for 1500000 steps
ETITLE: TS BOND ANGLE DIHED IMPRP ELECT VDW BOUNDARY MISC KINETIC TOTAL TEMP POTENTIAL TOTALAVG TEMPAVG PRESSURE GPRESSURE VOLUME PRESSAVG GPRESSAVG
ENERGY: 0 0.9804 4.7828 4.2682 0.0000 -10630.5802 1363.2252 0.0000 0.0000 1802.1482 -7455.1754 305.0394 -9257.3236 -7455.1754 305.0394 -385.6349 -297.8447 30113.5358 -385.6349 -297.8447
ENERGY: 300000 0.7245 9.7264 3.7327 0.0000 -10773.6060 1461.1649 0.0000 0.0000 1756.3095 -7541.9480 297.2806 -9298.2574 -7509.8061 297.3881 41.0339 91.7149 30684.8952 -166.2523 -101.9057
ENERGY: 600000 1.4020 9.4406 2.9117 0.0000 -10729.9718 1411.7062 0.0000 0.0000 1783.3193 -7521.1920 301.8524 -9304.5112 -7511.0659 299.7266 -344.1326 -294.8995 30528.7792 -268.8858 -213.4644
ENERGY: 900000 2.6092 7.7690 2.6709 0.0000 -10742.9149 1438.6814 0.0000 0.0000 1759.7011 -7531.4833 297.8546 -9291.1844 -7523.2802 299.0934 -624.5111 -550.9248 31476.4561 -252.4141 -192.1473
ENERGY: 1200000 5.5422 11.6372 3.7702 0.0000 -10773.6796 1441.0103 0.0000 0.0000 1772.8212 -7538.8986 300.0754 -9311.7197 -7536.5274 299.2654 -214.1323 -162.9148 30432.9236 -198.1135 -144.2990
ENERGY: 1500000 1.1493 8.8452 3.5493 0.0000 -10860.6316 1542.9436 0.0000 0.0000 1831.3015 -7472.8427 309.9740 -9304.1442 -7533.2096 299.8373 1069.3115 1119.6810 30101.5016 -124.3451 -67.0405
TCL: Running FEP window  13: Lambda1 0.39999999999999963 Lambda2 0.34999999999999964 [dLambda -0.04999999999999999]
TCL: Setting parameter firsttimestep to 0
TCL: Setting parameter alchLambda to 0.39999999999999963
Info: NONBONDED TABLE R-SQUARED SPACING: 0.0625
Info: NONBONDED TABLE SIZE: 705 POINTS
TCL: Setting parameter alchLambda2 to 0.34999999999999964
Info: NONBONDED TABLE R-SQUARED SPACING: 0.0625
Info: NONBONDED TABLE SIZE: 705 POINTS
TCL: Running for 1500000 steps
ETITLE: TS BOND ANGLE DIHED IMPRP ELECT VDW BOUNDARY MISC KINETIC TOTAL TEMP POTENTIAL TOTALAVG TEMPAVG PRESSURE GPRESSURE VOLUME PRESSAVG GPRESSAVG
ENERGY: 0 1.1493 8.8452 3.5493 0.0000 -10860.6309 1543.1996 0.0000 0.0000 1830.4580 -7473.4295 309.8313 -9303.8875 -7473.4295 309.8313 1023.0694 1118.6887 30101.5016 1023.0694 1118.6887
ENERGY: 300000 1.7000 9.4350 3.2223 0.0000 -10745.0073 1449.1085 0.0000 0.0000 1722.9936 -7558.5479 291.6414 -9281.5415 -7535.3494 300.6331 -93.3969 -35.0107 30842.5350 331.0314 397.0091
ENERGY: 600000 2.3827 7.9292 4.0821 0.0000 -10873.2001 1512.8471 0.0000 0.0000 1710.8318 -7635.1272 289.5828 -9345.9590 -7526.3904 300.2266 611.7588 625.5400 29992.1221 116.5413 169.3757
ENERGY: 900000 1.2506 7.9880 4.3362 0.0000 -10740.1560 1416.9293 0.0000 0.0000 1726.4125 -7583.2394 292.2201 -9309.6519 -7536.0144 299.8756 -608.1870 -528.6844 30842.7273 -67.1319 -7.7253
ENERGY: 1200000 1.0890 7.9056 2.5478 0.0000 -10806.9699 1437.4632 0.0000 0.0000 1782.7175 -7575.2467 301.7505 -9357.9642 -7543.7673 299.6179 -208.2761 -153.6753 30574.3817 -132.5008 -72.7937
ENERGY: 1500000 2.2170 12.5043 5.1471 0.0000 -10647.0765 1401.3382 0.0000 0.0000 1776.2436 -7449.6263 300.6547 -9225.8699 -7540.7660 299.0364 -123.3022 -97.0948 30310.6393 -94.3377 -32.0660
TCL: Running FEP window  14: Lambda1 0.34999999999999964 Lambda2 0.29999999999999966 [dLambda -0.04999999999999999]
TCL: Setting parameter firsttimestep to 0
TCL: Setting parameter alchLambda to 0.34999999999999964
Info: NONBONDED TABLE R-SQUARED SPACING: 0.0625
Info: NONBONDED TABLE SIZE: 705 POINTS
TCL: Setting parameter alchLambda2 to 0.29999999999999966
Info: NONBONDED TABLE R-SQUARED SPACING: 0.0625
Info: NONBONDED TABLE SIZE: 705 POINTS
TCL: Running for 1500000 steps
ETITLE: TS BOND ANGLE DIHED IMPRP ELECT VDW BOUNDARY MISC KINETIC TOTAL TEMP POTENTIAL TOTALAVG TEMPAVG PRESSURE GPRESSURE VOLUME PRESSAVG GPRESSAVG
ENERGY: 0 2.2170 12.5043 5.1471 0.0000 -10647.0764 1401.0351 0.0000 0.0000 1775.3699 -7450.8030 300.5068 -9226.1729 -7450.8030 300.5068 -187.2608 -101.7683 30310.6393 -187.2608 -101.7683
ENERGY: 300000 1.0502 5.7672 3.1812 0.0000 -10868.4717 1505.9679 0.0000 0.0000 1819.3680 -7533.1372 307.9541 -9352.5052 -7481.8706 301.0694 281.0148 393.0181 30544.2992 -318.8217 -249.5451
ENERGY: 600000 0.9553 10.3323 6.0562 0.0000 -10826.4389 1478.7264 0.0000 0.0000 1728.4647 -7601.9040 292.5674 -9330.3687 -7530.1275 297.5487 -138.0955 -55.2240 30693.4541 -398.1754 -334.2514
ENERGY: 900000 0.7232 5.3434 3.0794 0.0000 -10878.0128 1505.3407 0.0000 0.0000 1767.1008 -7596.4252 299.1072 -9363.5260 -7540.5401 299.0052 393.3449 463.3892 30089.6213 -149.4362 -91.1330
ENERGY: 1200000 2.4831 10.7359 4.6578 0.0000 -10821.8319 1566.6783 0.0000 0.0000 1772.6798 -7464.5969 300.0515 -9237.2768 -7542.8203 298.8207 965.6829 1051.5764 30602.3280 -24.0447 39.8569
ENERGY: 1500000 0.7257 10.1185 3.8849 0.0000 -10765.4571 1425.6185 0.0000 0.0000 1775.1934 -7549.9161 300.4769 -9325.1095 -7539.6208 299.1666 -204.2872 -180.5872 30329.1847 -30.9757 25.3256
TCL: Running FEP window  15: Lambda1 0.29999999999999966 Lambda2 0.24999999999999967 [dLambda -0.04999999999999999]
TCL: Setting parameter firsttimestep to 0
TCL: Setting parameter alchLambda to 0.29999999999999966
Info: NONBONDED TABLE R-SQUARED SPACING: 0.0625
Info: NONBONDED TABLE SIZE: 705 POINTS
TCL: Setting parameter alchLambda2 to 0.24999999999999967
Info: NONBONDED TABLE R-SQUARED SPACING: 0.0625
Info: NONBONDED TABLE SIZE: 705 POINTS
TCL: Running for 1500000 steps
ETITLE: TS BOND ANGLE DIHED IMPRP ELECT VDW BOUNDARY MISC KINETIC TOTAL TEMP POTENTIAL TOTALAVG TEMPAVG PRESSURE GPRESSURE VOLUME PRESSAVG GPRESSAVG
ENERGY: 0 0.7257 10.1185 3.8849 0.0000 -10765.4574 1425.3187 0.0000 0.0000 1774.3385 -7551.0711 300.3322 -9325.4096 -7551.0711 300.3322 -272.4609 -191.1705 30329.1847 -272.4609 -191.1705
ENERGY: 300000 1.9662 3.9662 5.0240 0.0000 -10768.6018 1493.4589 0.0000 0.0000 1745.6064 -7518.5800 295.4689 -9264.1864 -7553.4787 299.1377 308.2665 346.5105 30729.5004 27.7190 84.6519
ENERGY: 600000 3.1409 11.6148 3.0368 0.0000 -10868.6587 1458.7057 0.0000 0.0000 1734.5572 -7657.6033 293.5987 -9392.1605 -7564.5890 298.3246 -121.3057 -39.9515 30072.9672 -119.5355 -70.2045
ENERGY: 900000 1.0045 9.3829 3.5964 0.0000 -10700.5465 1364.2931 0.0000 0.0000 1774.5830 -7547.6867 300.3736 -9322.2697 -7537.5499 299.4956 -755.5967 -678.0362 30532.3171 -90.3178 -36.1469
ENERGY: 1200000 3.8723 9.0238 4.0984 0.0000 -10621.8882 1328.0834 0.0000 0.0000 1750.0224 -7526.7878 296.2164 -9276.8102 -7541.0720 298.9794 -964.1323 -946.9653 30721.4953 -162.0848 -108.0468
ENERGY: 1500000 3.3263 7.2532 2.6677 0.0000 -10662.8613 1418.2462 0.0000 0.0000 1785.3729 -7445.9950 302.2000 -9231.3679 -7521.6459 299.1322 -209.1831 -90.0038 30401.4907 -130.4275 -72.6514
TCL: Running FEP window  16: Lambda1 0.24999999999999967 Lambda2 0.19999999999999968 [dLambda -0.04999999999999999]
TCL: Setting parameter firsttimestep to 0
TCL: Setting parameter alchLambda to 0.24999999999999967
Info: NONBONDED TABLE R-SQUARED SPACING: 0.0625
Info: NONBONDED TABLE SIZE: 705 POINTS
TCL: Setting parameter alchLambda2 to 0.19999999999999968
Info: NONBONDED TABLE R-SQUARED SPACING: 0.0625
Info: NONBONDED TABLE SIZE: 705 POINTS
TCL: Running for 1500000 steps
ETITLE: TS BOND ANGLE DIHED IMPRP ELECT VDW BOUNDARY MISC KINETIC TOTAL TEMP POTENTIAL TOTALAVG TEMPAVG PRESSURE GPRESSURE VOLUME PRESSAVG GPRESSAVG
ENERGY: 0 3.3263 7.2532 2.6677 0.0000 -10662.8599 1418.2450 0.0000 0.0000 1784.5107 -7446.8570 302.0540 -9231.3677 -7446.8570 302.0540 -184.4838 -94.6759 30401.4907 -184.4838 -94.6759
ENERGY: 300000 2.1354 8.1361 3.5002 0.0000 -10801.8731 1466.0392 0.0000 0.0000 1828.5716 -7493.4907 309.5120 -9322.0623 -7523.4082 300.3579 269.1670 323.4634 30092.4929 103.1787 165.5962
ENERGY: 600000 2.5243 7.3395 3.3110 0.0000 -10697.4616 1390.1922 0.0000 0.0000 1720.3565 -7573.7382 291.1950 -9294.0947 -7548.0860 298.3357 -747.5237 -657.6717 30732.8191 -76.2346 -14.2744
ENERGY: 900000 0.9798 11.9757 4.3106 0.0000 -10581.7558 1375.0578 0.0000 0.0000 1808.5863 -7380.8456 306.1292 -9189.4319 -7518.7472 298.4217 -172.6223 -160.4964 30579.3027 -108.7641 -46.6008
ENERGY: 1200000 1.4716 6.9032 4.9825 0.0000 -10642.8702 1377.4859 0.0000 0.0000 1725.3954 -7526.6317 292.0479 -9252.0271 -7529.3021 297.0491 -667.3173 -607.8150 31192.4956 -211.3221 -155.9037
ENERGY: 1500000 0.7280 6.2887 3.1960 0.0000 -10741.9573 1383.0064 0.0000 0.0000 1800.7479 -7547.9905 304.8024 -9348.7384 -7534.3561 298.1134 -358.5510 -344.2068 30366.4436 -163.9798 -112.9814
TCL: Running FEP window  17: Lambda1 0.19999999999999968 Lambda2 0.1499999999999997 [dLambda -0.04999999999999999]
TCL: Setting parameter firsttimestep to 0
TCL: Setting parameter alchLambda to 0.19999999999999968
Info: NONBONDED TABLE R-SQUARED SPACING: 0.0625
Info: NONBONDED TABLE SIZE: 705 POINTS
TCL: Setting parameter alchLambda2 to 0.1499999999999997
Info: NONBONDED TABLE R-SQUARED SPACING: 0.0625
Info: NONBONDED TABLE SIZE: 705 POINTS
TCL: Running for 1500000 steps
ETITLE: TS BOND ANGLE DIHED IMPRP ELECT VDW BOUNDARY MISC KINETIC TOTAL TEMP POTENTIAL TOTALAVG TEMPAVG PRESSURE GPRESSURE VOLUME PRESSAVG GPRESSAVG
ENERGY: 0 0.7280 6.2887 3.1960 0.0000 -10741.9558 1383.3541 0.0000 0.0000 1799.8646 -7548.5246 304.6529 -9348.3891 -7548.5246 304.6529 -411.5732 -344.4423 30366.4436 -411.5732 -344.4423
ENERGY: 300000 1.0063 7.1159 2.4704 0.0000 -10720.6540 1412.9937 0.0000 0.0000 1788.7461 -7508.3217 302.7709 -9297.0678 -7501.8765 302.7072 -336.2143 -265.8652 30433.4240 -240.9088 -157.4528
ENERGY: 600000 0.2861 9.8938 3.0462 0.0000 -10760.8824 1388.5510 0.0000 0.0000 1757.7858 -7601.3196 297.5305 -9359.1054 -7526.1046 302.8472 -664.4897 -552.5365 30339.2132 -270.6557 -175.3503
ENERGY: 900000 0.4493 6.3238 3.3637 0.0000 -10783.0717 1379.2846 0.0000 0.0000 1817.7016 -7575.9487 307.6721 -9393.6503 -7545.4284 300.9521 -511.9644 -485.8067 29872.1559 -353.1729 -265.3134
ENERGY: 1200000 1.7626 4.2402 2.3598 0.0000 -10733.3244 1453.5843 0.0000 0.0000 1795.2040 -7476.1734 303.8640 -9271.3775 -7537.8796 301.0167 437.7284 414.9472 29946.4728 -368.6708 -300.3264
ENERGY: 1500000 1.2252 8.9036 3.3035 0.0000 -10751.6316 1485.9567 0.0000 0.0000 1752.0766 -7500.1660 296.5641 -9252.2426 -7538.2542 300.4522 320.2664 377.0207 30348.5371 -271.6366 -203.8378
TCL: Running FEP window  18: Lambda1 0.1499999999999997 Lambda2 0.09999999999999969 [dLambda -0.05 ]
TCL: Setting parameter firsttimestep to 0
TCL: Setting parameter alchLambda to 0.1499999999999997
Info: NONBONDED TABLE R-SQUARED SPACING: 0.0625
Info: NONBONDED TABLE SIZE: 705 POINTS
TCL: Setting parameter alchLambda2 to 0.09999999999999969
Info: NONBONDED TABLE R-SQUARED SPACING: 0.0625
Info: NONBONDED TABLE SIZE: 705 POINTS
TCL: Running for 1500000 steps
ETITLE: TS BOND ANGLE DIHED IMPRP ELECT VDW BOUNDARY MISC KINETIC TOTAL TEMP POTENTIAL TOTALAVG TEMPAVG PRESSURE GPRESSURE VOLUME PRESSAVG GPRESSAVG
ENERGY: 0 1.2252 8.9036 3.3035 0.0000 -10751.6309 1486.2768 0.0000 0.0000 1751.1731 -7500.7487 296.4112 -9251.9218 -7500.7487 296.4112 288.6260 377.3671 30348.5371 288.6260 377.3671
ENERGY: 300000 2.5146 6.8544 5.5371 0.0000 -10948.4144 1544.8631 0.0000 0.0000 1736.3603 -7652.2849 293.9039 -9388.6452 -7565.7195 298.2667 486.5017 567.6201 29930.7113 186.1261 267.8051
ENERGY: 600000 1.3281 11.7065 3.4390 0.0000 -10843.1150 1533.6542 0.0000 0.0000 1781.1790 -7511.8082 301.4901 -9292.9872 -7566.6705 298.0898 413.7409 473.8542 30769.4061 32.5209 117.8474
ENERGY: 900000 2.3741 10.3188 3.7594 0.0000 -10813.7788 1454.1189 0.0000 0.0000 1759.8947 -7583.3130 297.8874 -9343.2078 -7566.2550 298.4288 -9.6447 54.3638 30199.2494 15.9006 100.4918
ENERGY: 1200000 3.1271 6.4566 4.1321 0.0000 -10724.9203 1417.9806 0.0000 0.0000 1766.1830 -7527.0408 298.9518 -9293.2238 -7558.7687 298.9882 -174.6109 -140.4909 30144.6008 52.9551 138.3599
ENERGY: 1500000 0.7459 9.4124 3.6585 0.0000 -10725.6554 1403.0030 0.0000 0.0000 1799.4393 -7509.3963 304.5809 -9308.8356 -7553.6296 299.6880 -541.8165 -557.0418 30673.1681 10.9464 83.5464
TCL: Running FEP window  19: Lambda1 0.09999999999999969 Lambda2 0.049999999999999684 [dLambda -0.05 ]
TCL: Setting parameter firsttimestep to 0
TCL: Setting parameter alchLambda to 0.09999999999999969
Info: NONBONDED TABLE R-SQUARED SPACING: 0.0625
Info: NONBONDED TABLE SIZE: 705 POINTS
TCL: Setting parameter alchLambda2 to 0.049999999999999684
Info: NONBONDED TABLE R-SQUARED SPACING: 0.0625
Info: NONBONDED TABLE SIZE: 705 POINTS
TCL: Running for 1500000 steps
ETITLE: TS BOND ANGLE DIHED IMPRP ELECT VDW BOUNDARY MISC KINETIC TOTAL TEMP POTENTIAL TOTALAVG TEMPAVG PRESSURE GPRESSURE VOLUME PRESSAVG GPRESSAVG
ENERGY: 0 0.7459 9.4125 3.6585 0.0000 -10725.6530 1402.9086 0.0000 0.0000 1798.5595 -7510.3680 304.4320 -9308.9275 -7510.3680 304.4320 -610.8094 -558.1477 30673.1681 -610.8094 -558.1477
ENERGY: 300000 1.4960 8.0541 2.3521 0.0000 -10712.1134 1382.6481 0.0000 0.0000 1834.0852 -7483.4780 310.4452 -9317.5633 -7538.5346 301.5455 -435.0764 -365.8288 30142.3023 -0.2661 59.4422
ENERGY: 600000 2.1039 6.1016 3.1095 0.0000 -10694.0630 1443.3916 0.0000 0.0000 1808.0155 -7431.3410 306.0325 -9239.3564 -7509.4209 302.7234 90.1842 151.4575 30323.6553 -21.1187 42.6519
ENERGY: 900000 0.9942 10.1686 2.9215 0.0000 -10826.6469 1529.0859 0.0000 0.0000 1709.7148 -7573.7619 289.3938 -9283.4767 -7529.0874 301.1575 678.1935 798.3580 29988.9259 129.4159 199.9056
ENERGY: 1200000 4.9468 8.2240 2.9330 0.0000 -10837.2346 1500.6008 0.0000 0.0000 1746.9171 -7573.6130 295.6908 -9320.5300 -7538.1702 300.6683 480.4004 548.3050 29861.3339 7.9863 73.4804
ENERGY: 1500000 1.5787 7.9785 4.3545 0.0000 -10866.6428 1521.0852 0.0000 0.0000 1796.1693 -7535.4764 304.0274 -9331.6458 -7540.8009 301.5970 466.9605 442.2632 30373.9302 64.0837 121.9683
TCL: Running FEP window  20: Lambda1 0.049999999999999684 Lambda2 0.0    [dLambda -0.049999999999999684]
TCL: Setting parameter firsttimestep to 0
TCL: Setting parameter alchLambda to 0.049999999999999684
Info: NONBONDED TABLE R-SQUARED SPACING: 0.0625
Info: NONBONDED TABLE SIZE: 705 POINTS
TCL: Setting parameter alchLambda2 to 0.0
Info: NONBONDED TABLE R-SQUARED SPACING: 0.0625
Info: NONBONDED TABLE SIZE: 705 POINTS
TCL: Running for 1500000 steps
ETITLE: TS BOND ANGLE DIHED IMPRP ELECT VDW BOUNDARY MISC KINETIC TOTAL TEMP POTENTIAL TOTALAVG TEMPAVG PRESSURE GPRESSURE VOLUME PRESSAVG GPRESSAVG
ENERGY: 0 1.5787 7.9785 4.3545 0.0000 -10866.6424 1521.4705 0.0000 0.0000 1795.3193 -7535.9408 303.8835 -9331.2602 -7535.9408 303.8835 349.9661 444.2721 30373.9302 349.9661 444.2721
ENERGY: 300000 2.1518 7.4653 3.3212 0.0000 -10802.8545 1448.7940 0.0000 0.0000 1751.8557 -7589.2664 296.5267 -9341.1221 -7530.0931 299.2078 66.8311 51.5894 30249.1574 398.4560 455.9458
ENERGY: 600000 1.0787 10.3866 3.0638 0.0000 -10726.6425 1426.5683 0.0000 0.0000 1781.5764 -7503.9688 301.5574 -9285.5452 -7534.3017 299.2413 -316.8274 -195.6661 30485.2594 348.3905 411.1461
ENERGY: 900000 1.0474 4.6912 3.3923 0.0000 -10751.2960 1429.4405 0.0000 0.0000 1743.2611 -7569.4635 295.0719 -9312.7246 -7525.6192 300.0128 -382.7405 -269.3508 30395.0898 154.3315 217.5924
ENERGY: 1200000 0.8550 7.4404 3.1128 0.0000 -10800.7979 1461.8934 0.0000 0.0000 1766.1919 -7561.3045 298.9533 -9327.4964 -7534.2124 299.6439 -200.8075 -171.9841 30519.1437 112.1242 168.8617
ENERGY: 1500000 0.8444 11.8164 4.1427 0.0000 -10716.2103 1417.4564 0.0000 0.0000 1820.5034 -7461.4471 308.1463 -9281.9505 -7520.2412 300.6581 -251.8892 -248.5567 30557.3100 83.4030 147.5148
TCL: Exiting due to exit command.
