Info: SIMULATION PARAMETERS:
Info: TIMESTEP               2
Info: NUMBER OF STEPS        0
Info: STEPS PER CYCLE        10
Info: PERIODIC CELL BASIS 1  29.989 0 0
Info: PERIODIC CELL BASIS 2  0 32.0965 0
Info: PERIODIC CELL BASIS 3  0 0 31.318
Info: PERIODIC CELL CENTER   0 0 0
Info: WRAPPING WATERS AROUND PERIODIC BOUNDARIES ON OUTPUT.
Info: WRAPPING ALL CLUSTERS AROUND PERIODIC BOUNDARIES ON OUTPUT.
Info: FIRST LDB TIMESTEP     50
Info: LAST LDB TIMESTEP     -1
Info: HOM BACKGROUND SCALING 1
Info: PME BACKGROUND SCALING 1
Info: MIN ATOMS PER PATCH    40
Info: EMPTY PATCH LOAD       40 ATOMS
Info: VELOCITY FILE          mobley_7106722_equil.vel
Info: CENTER OF MASS MOVING INITIALLY? NO
Info: DIELECTRIC             1
Info: EXCLUDE                SCALED ONE-FOUR
Info: 1-4 ELECTROSTATICS SCALED BY 0.833333
Info: MODIFIED 1-4 VDW PARAMETERS WILL BE USED
Info: DCD FILENAME           mobley_7106722_prod.dcd
Info: DCD FREQUENCY          100000
Info: DCD FIRST STEP         100000
Info: DCD FILE WILL CONTAIN UNIT CELL DATA
Info: XST FILENAME           mobley_7106722_prod.xst
Info: XST FREQUENCY          100000
Info: NO VELOCITY DCD OUTPUT
Info: NO FORCE DCD OUTPUT
Info: OUTPUT FILENAME        mobley_7106722_prod
Info: BINARY OUTPUT FILES WILL BE USED
Info: RESTART FILENAME       mobley_7106722_prod.restart
Info: RESTART FREQUENCY      100000
Info: BINARY RESTART FILES WILL BE USED
Info: CUTOFF                 9
Info: PAIRLIST DISTANCE      11
Info: PAIRLIST SHRINK RATE   0.01
Info: PAIRLIST GROW RATE     0.01
Info: PAIRLIST TRIGGER       0.3
Info: PAIRLISTS PER CYCLE    2
Info: PAIRLISTS ENABLED
Info: MARGIN                 2
Info: HYDROGEN GROUP CUTOFF  2.5
Info: PATCH DIMENSION        15.5
Info: ENERGY OUTPUT STEPS    100000
Info: ENERGY EVALUATION STEPS    100000
Info: OUTPUT ENERGY PRECISION 4
Info: CROSSTERM ENERGY INCLUDED IN DIHEDRAL
Info: TIMING OUTPUT STEPS    1000000
Info: PRESSURE OUTPUT STEPS  100000
Info: ALCHEMICAL FEP ON
Info: FEP CURRENT LAMBDA VALUE     0
Info: FEP COMPARISON LAMBDA VALUE  0.05
Info: FEP INTRA-ALCHEMICAL NON-BONDED INTERACTIONS WILL BE RETAINED
Info: FEP INTRA-ALCHEMICAL BONDED INTERACTIONS WILL BE RETAINED
Info: FEP VDW SHIFTING COEFFICIENT 5
Info: FEP ELEC. ACTIVE FOR ANNIHILATED PARTICLES BETWEEN LAMBDA = 0 AND LAMBDA = 0.5
Info: FEP ELEC. ACTIVE FOR EXNIHILATED PARTICLES BETWEEN LAMBDA = 0.5 AND LAMBDA = 1
Info: FEP VDW ACTIVE FOR ANNIHILATED PARTICLES BETWEEN LAMBDA = 0 AND LAMBDA = 1
Info: FEP VDW ACTIVE FOR EXNIHILATED PARTICLES BETWEEN LAMBDA = 0 AND LAMBDA = 1
Info: FEP BOND ACTIVE FOR ANNIHILATED PARTICLES BETWEEN LAMBDA = 1 AND LAMBDA = 1
Info: FEP BOND ACTIVE FOR EXNIHILATED PARTICLES BETWEEN LAMBDA = 0 AND LAMBDA = 0
Info: LANGEVIN DYNAMICS ACTIVE
Info: LANGEVIN TEMPERATURE   300
Info: LANGEVIN USING BBK INTEGRATOR
Info: LANGEVIN DAMPING COEFFICIENT IS 1 INVERSE PS
Info: LANGEVIN DYNAMICS APPLIED TO HYDROGENS
Info: LANGEVIN PISTON PRESSURE CONTROL ACTIVE
Info:        TARGET PRESSURE IS 1.01325 BAR
Info:     OSCILLATION PERIOD IS 50 FS
Info:             DECAY TIME IS 25 FS
Info:     PISTON TEMPERATURE IS 300 K
Info:       PRESSURE CONTROL IS GROUP-BASED
Info:    INITIAL STRAIN RATE IS -0.000239672 -0.000239672 -0.000239672
Info:       CELL FLUCTUATION IS ISOTROPIC
Info: PARTICLE MESH EWALD (PME) ACTIVE
Info: PME TOLERANCE               1e-06
Info: PME EWALD COEFFICIENT       0.348832
Info: PME INTERPOLATION ORDER     4
Info: PME GRID DIMENSIONS         32 36 32
Info: PME MAXIMUM GRID SPACING    1
Info: PME CALCULATION WILL BE PERFORMED ON GPU
Info: FULL ELECTROSTATIC EVALUATION FREQUENCY      2
Info: USING VERLET I (r-RESPA) MTS SCHEME.
Info: C1 SPLITTING OF LONG RANGE ELECTROSTATICS
Info: PLACING ATOMS IN PATCHES BY HYDROGEN GROUPS
Info: RIGID BONDS TO HYDROGEN : ALL
Info:         ERROR TOLERANCE : 1e-08
Info:          MAX ITERATIONS : 100
Info: RIGID WATER USING SETTLE ALGORITHM
Info: RANDOM NUMBER SEED     1743860222
Info: USE HYDROGEN BONDS?    NO
Info: Using AMBER format force field!
Info: AMBER PARM FILE        mobley_7106722.prmtop
Info: COORDINATE PDB         mobley_7106722.pdb
Info: Exclusions will be read from PARM file!
Info: SCNB (VDW SCALING)     2
Info: USING ARITHMETIC MEAN TO COMBINE L-J SIGMA PARAMETERS
Info: BINARY COORDINATES     mobley_7106722_equil.coor
Info: SUMMARY OF PARAMETERS:
Info: 4 BONDS
Info: 3 ANGLES
Info:   3 HARMONIC
Info:   0 COSINE-BASED
Info: 5 DIHEDRAL
Info: 0 IMPROPER
Info: 0 CROSSTERM
Info: 0 VDW
Info: 10 VDW_PAIRS
Info: 0 NBTHOLE_PAIRS
Info: To read alchdata from file: mobley_7106722.pdb
Info: To read alchflag data from column: 5
Info: STRUCTURE SUMMARY:
Info: 2945 ATOMS
Info: 2944 BONDS
Info: 36 ANGLES
Info: 51 DIHEDRALS
Info: 0 IMPROPERS
Info: 0 CROSSTERMS
Info: 3025 EXCLUSIONS
Info: 2939 RIGID BONDS
Info: ALCH: 0 ATOMS TO DISAPPEAR IN FINAL STATE
Info: ALCH: 20 ATOMS TO APPEAR IN FINAL STATE
Info: 5896 DEGREES OF FREEDOM
Info: 981 HYDROGEN GROUPS
Info: 4 ATOMS IN LARGEST HYDROGEN GROUP
Info: 981 MIGRATION GROUPS
Info: 4 ATOMS IN LARGEST MIGRATION GROUP
Info: TOTAL MASS = 17651.8 amu
Info: TOTAL CHARGE = -0.00029999 e
Info: MASS DENSITY = 0.972374 g/cm^3
Info: ATOM DENSITY = 0.0976947 atoms/A^3
Info: ADDED 0 IMPLICIT EXCLUSIONS
Info: NONBONDED TABLE R-SQUARED SPACING: 0.0625
Info: NONBONDED TABLE SIZE: 705 POINTS
Info: REMOVING COM VELOCITY -0.101631 0.00318056 -0.00801796
Info: Use 3D box decompostion in PME FFT.
Info: Updated CUDA force table with 4096 elements.
Info: Updated CUDA LJ table with 4 x 4 elements.
Info: Found 23 unique exclusion lists needing 64 bytes
TCL: Running for 1500000 steps
ETITLE: TS BOND ANGLE DIHED IMPRP ELECT VDW BOUNDARY MISC KINETIC TOTAL TEMP POTENTIAL TOTALAVG TEMPAVG PRESSURE GPRESSURE VOLUME PRESSAVG GPRESSAVG
ENERGY: 0 2.0884 11.6739 4.1264 0.0000 -10699.4618 1443.1537 0.0000 0.0000 1745.8574 -7492.5620 298.0174 -9238.4194 -7492.5620 298.0174 -118.0614 -37.1777 30144.9381 -118.0614 -37.1777
ENERGY: 300000 1.9511 13.1910 2.9395 0.0000 -10712.3905 1441.5592 0.0000 0.0000 1768.6030 -7484.1467 301.9001 -9252.7497 -7460.8624 300.7446 -267.6056 -201.1174 30032.6471 -143.7163 -104.1472
ENERGY: 600000 0.9019 8.9899 2.2813 0.0000 -10723.6971 1493.8018 0.0000 0.0000 1777.9057 -7439.8166 303.4881 -9217.7223 -7451.8749 300.3970 275.1443 270.7433 30489.4398 -124.0091 -74.4141
ENERGY: 900000 1.6892 7.8305 2.7906 0.0000 -10576.1235 1404.5824 0.0000 0.0000 1832.3109 -7326.9199 312.7750 -9159.2308 -7450.2705 300.1927 -113.7945 -5.5862 30422.9191 -87.9191 -38.2490
ENERGY: 1200000 2.0654 9.1940 2.4190 0.0000 -10559.4941 1346.9407 0.0000 0.0000 1765.3783 -7433.4967 301.3496 -9198.8750 -7445.8602 300.5448 -591.2419 -558.5822 29880.7000 -53.9906 -2.8442
ENERGY: 1500000 2.9081 8.8886 2.7039 0.0000 -10582.8798 1387.1291 0.0000 0.0000 1780.6843 -7400.5659 303.9624 -9181.2501 -7433.2695 302.0148 -307.7813 -285.7265 29945.9207 -73.4042 -21.1626
TCL: Running FEP window   2: Lambda1 0.05   Lambda2 0.1    [dLambda 0.05  ]
TCL: Setting parameter firsttimestep to 0
TCL: Setting parameter alchLambda to 0.05
Info: NONBONDED TABLE R-SQUARED SPACING: 0.0625
Info: NONBONDED TABLE SIZE: 705 POINTS
TCL: Setting parameter alchLambda2 to 0.1
Info: NONBONDED TABLE R-SQUARED SPACING: 0.0625
Info: NONBONDED TABLE SIZE: 705 POINTS
TCL: Running for 1500000 steps
ETITLE: TS BOND ANGLE DIHED IMPRP ELECT VDW BOUNDARY MISC KINETIC TOTAL TEMP POTENTIAL TOTALAVG TEMPAVG PRESSURE GPRESSURE VOLUME PRESSAVG GPRESSAVG
ENERGY: 0 2.9081 8.8886 2.7039 0.0000 -10582.8806 1392.1135 0.0000 0.0000 1779.8188 -7396.4476 303.8146 -9176.2664 -7396.4476 303.8146 -351.2992 -273.8838 29945.9207 -351.2992 -273.8838
ENERGY: 300000 0.6500 8.6387 2.0610 0.0000 -10724.3401 1534.6896 0.0000 0.0000 1727.9725 -7450.3284 294.9645 -9178.3008 -7382.5690 300.6131 856.2417 889.4455 30057.9659 -15.6780 17.5844
ENERGY: 600000 1.8397 7.1588 1.7649 0.0000 -10817.4317 1543.3088 0.0000 0.0000 1715.3928 -7547.9667 292.8171 -9263.3595 -7407.9308 300.1925 445.5576 538.4891 30317.3539 -57.5276 -8.1367
ENERGY: 900000 0.5800 13.3250 3.2706 0.0000 -10802.5475 1571.1198 0.0000 0.0000 1725.6191 -7488.6331 294.5628 -9214.2522 -7420.4990 298.4481 1331.2669 1269.0071 29719.1550 59.5499 90.7345
ENERGY: 1200000 2.1030 6.0714 1.9706 0.0000 -10641.9450 1429.4290 0.0000 0.0000 1720.3013 -7482.0697 293.6550 -9202.3709 -7426.1368 299.0069 -585.8563 -494.1628 30889.1884 2.1239 39.4036
ENERGY: 1500000 2.2343 11.3551 2.7761 0.0000 -10687.7412 1460.7207 0.0000 0.0000 1754.3249 -7456.3300 299.4628 -9210.6549 -7429.5291 299.2639 282.6471 345.9139 29917.2421 -16.1270 23.5975
TCL: Running FEP window   3: Lambda1 0.1    Lambda2 0.15000000000000002 [dLambda 0.05000000000000002]
TCL: Setting parameter firsttimestep to 0
TCL: Setting parameter alchLambda to 0.1
Info: NONBONDED TABLE R-SQUARED SPACING: 0.0625
Info: NONBONDED TABLE SIZE: 705 POINTS
TCL: Setting parameter alchLambda2 to 0.15000000000000002
Info: NONBONDED TABLE R-SQUARED SPACING: 0.0625
Info: NONBONDED TABLE SIZE: 705 POINTS
TCL: Running for 1500000 steps
ETITLE: TS BOND ANGLE DIHED IMPRP ELECT VDW BOUNDARY MISC KINETIC TOTAL TEMP POTENTIAL TOTALAVG TEMPAVG PRESSURE GPRESSURE VOLUME PRESSAVG GPRESSAVG
ENERGY: 0 2.2343 11.3552 2.7761 0.0000 -10687.7399 1461.3121 0.0000 0.0000 1753.4637 -7456.5985 299.3158 -9210.0622 -7456.5985 299.3158 266.3647 348.5928 29917.2421 266.3647 348.5928
ENERGY: 300000 1.9488 7.5056 3.9938 0.0000 -10922.9244 1594.2189 0.0000 0.0000 1779.2220 -7536.0353 303.7128 -9315.2573 -7454.0079 300.9576 651.1997 715.1965 30435.4617 148.5972 225.0096
ENERGY: 600000 1.9246 14.5006 3.4041 0.0000 -10808.5935 1584.1696 0.0000 0.0000 1778.3197 -7426.2749 303.5587 -9204.5945 -7442.8267 300.1587 1179.6096 1228.7478 29838.5566 162.7923 227.9942
ENERGY: 900000 0.0858 9.6818 3.2006 0.0000 -10712.5945 1437.8091 0.0000 0.0000 1763.6641 -7498.1531 301.0570 -9261.8172 -7453.1200 299.6711 -289.8315 -238.9939 30204.6171 44.7828 101.3913
ENERGY: 1200000 1.7844 9.8144 2.6420 0.0000 -10783.7288 1541.0313 0.0000 0.0000 1742.1705 -7486.2862 297.3881 -9228.4566 -7464.6739 299.3584 710.7873 781.5088 30100.8731 16.6061 79.4239
ENERGY: 1500000 2.2188 9.8119 4.8465 0.0000 -10716.3425 1438.4761 0.0000 0.0000 1782.9176 -7478.0716 304.3436 -9260.9892 -7468.5072 299.0496 -55.2145 42.8492 29810.2333 100.2001 158.5146
TCL: Running FEP window   4: Lambda1 0.15000000000000002 Lambda2 0.2    [dLambda 0.04999999999999999]
TCL: Setting parameter firsttimestep to 0
TCL: Setting parameter alchLambda to 0.15000000000000002
Info: NONBONDED TABLE R-SQUARED SPACING: 0.0625
Info: NONBONDED TABLE SIZE: 705 POINTS
TCL: Setting parameter alchLambda2 to 0.2
Info: NONBONDED TABLE R-SQUARED SPACING: 0.0625
Info: NONBONDED TABLE SIZE: 705 POINTS
TCL: Running for 1500000 steps
ETITLE: TS BOND ANGLE DIHED IMPRP ELECT VDW BOUNDARY MISC KINETIC TOTAL TEMP POTENTIAL TOTALAVG TEMPAVG PRESSURE GPRESSURE VOLUME PRESSAVG GPRESSAVG
ENERGY: 0 2.2188 9.8119 4.8465 0.0000 -10716.3424 1439.6826 0.0000 0.0000 1782.0468 -7477.7358 304.1950 -9259.7826 -7477.7358 304.1950 -40.6673 50.1422 29810.2333 -40.6673 50.1422
ENERGY: 300000 4.0296 8.8098 2.7398 0.0000 -10561.6982 1376.4935 0.0000 0.0000 1779.0352 -7390.5903 303.6809 -9169.6255 -7426.8246 302.2472 -620.4371 -556.5646 30322.6449 -96.4316 -19.9260
ENERGY: 600000 3.7665 6.3057 2.0307 0.0000 -10638.1997 1449.8542 0.0000 0.0000 1781.7305 -7394.5121 304.1410 -9176.2425 -7418.1357 302.2077 61.1289 67.9943 30323.8775 -22.0750 46.6739
ENERGY: 900000 1.7107 9.9929 2.4522 0.0000 -10641.6367 1459.4816 0.0000 0.0000 1786.6052 -7381.3942 304.9731 -9167.9993 -7424.5652 302.2744 382.4614 445.0864 30195.5209 156.2378 222.1193
ENERGY: 1200000 1.3110 7.7078 4.4972 0.0000 -10481.3491 1270.9670 0.0000 0.0000 1677.3025 -7519.5635 286.3151 -9196.8660 -7440.8590 300.8652 -1372.9295 -1358.2521 30477.6285 -27.5771 31.7436
ENERGY: 1500000 0.9073 8.4221 2.8935 0.0000 -10648.8772 1458.1341 0.0000 0.0000 1764.8049 -7413.7152 301.2518 -9178.5201 -7445.3055 301.4106 404.4232 451.9295 29892.2564 11.7052 77.1679
TCL: Running FEP window   5: Lambda1 0.2    Lambda2 0.25   [dLambda 0.04999999999999999]
TCL: Setting parameter firsttimestep to 0
TCL: Setting parameter alchLambda to 0.2
Info: NONBONDED TABLE R-SQUARED SPACING: 0.0625
Info: NONBONDED TABLE SIZE: 705 POINTS
TCL: Setting parameter alchLambda2 to 0.25
Info: NONBONDED TABLE R-SQUARED SPACING: 0.0625
Info: NONBONDED TABLE SIZE: 705 POINTS
TCL: Running for 1500000 steps
ETITLE: TS BOND ANGLE DIHED IMPRP ELECT VDW BOUNDARY MISC KINETIC TOTAL TEMP POTENTIAL TOTALAVG TEMPAVG PRESSURE GPRESSURE VOLUME PRESSAVG GPRESSAVG
ENERGY: 0 0.9073 8.4221 2.8935 0.0000 -10648.8775 1459.4269 0.0000 0.0000 1763.9354 -7413.2923 301.1033 -9177.2277 -7413.2923 301.1033 363.7540 460.9329 29892.2564 363.7540 460.9329
ENERGY: 300000 1.6902 11.4581 2.9369 0.0000 -10692.6620 1460.8239 0.0000 0.0000 1798.0387 -7417.7143 306.9248 -9215.7530 -7444.0394 305.0227 180.8836 283.2140 30148.8900 300.6516 372.3839
ENERGY: 600000 3.0079 8.2510 3.4822 0.0000 -10578.6172 1371.7730 0.0000 0.0000 1697.5967 -7494.5065 289.7793 -9192.1032 -7432.7481 302.4896 -384.6372 -347.6648 30045.2510 46.6077 106.0847
ENERGY: 900000 2.1945 7.2283 2.3084 0.0000 -10609.5631 1338.2571 0.0000 0.0000 1768.9362 -7490.6385 301.9570 -9259.5747 -7432.9982 302.1015 -938.3604 -909.1307 30090.6648 -78.6801 -22.9507
ENERGY: 1200000 3.3277 9.0902 2.7157 0.0000 -10735.2699 1544.8612 0.0000 0.0000 1755.3874 -7419.8878 299.6442 -9175.2751 -7432.6830 301.8393 754.3901 790.3603 30431.5338 -57.8059 4.9064
ENERGY: 1500000 0.7783 9.8889 3.3703 0.0000 -10661.1062 1472.3500 0.0000 0.0000 1749.6014 -7425.1173 298.6565 -9174.7187 -7435.4963 301.1795 355.7515 428.7210 30294.4807 -100.1533 -33.3067
TCL: Running FEP window   6: Lambda1 0.25   Lambda2 0.3    [dLambda 0.04999999999999999]
TCL: Setting parameter firsttimestep to 0
TCL: Setting parameter alchLambda to 0.25
Info: NONBONDED TABLE R-SQUARED SPACING: 0.0625
Info: NONBONDED TABLE SIZE: 705 POINTS
TCL: Setting parameter alchLambda2 to 0.3
Info: NONBONDED TABLE R-SQUARED SPACING: 0.0625
Info: NONBONDED TABLE SIZE: 705 POINTS
TCL: Running for 1500000 steps
ETITLE: TS BOND ANGLE DIHED IMPRP ELECT VDW BOUNDARY MISC KINETIC TOTAL TEMP POTENTIAL TOTALAVG TEMPAVG PRESSURE GPRESSURE VOLUME PRESSAVG GPRESSAVG
ENERGY: 0 0.7783 9.8889 3.3703 0.0000 -10661.1055 1473.9126 0.0000 0.0000 1748.7099 -7424.4454 298.5044 -9173.1553 -7424.4454 298.5044 359.1209 435.8302 30294.4807 359.1209 435.8302
ENERGY: 300000 1.2695 9.0426 2.8302 0.0000 -10816.2530 1556.1860 0.0000 0.0000 1785.1935 -7461.7312 304.7321 -9246.9247 -7462.3815 301.8494 735.7825 758.7084 30115.0558 495.3822 568.4653
ENERGY: 600000 1.1325 6.5298 2.3471 0.0000 -10687.5531 1442.6181 0.0000 0.0000 1781.5603 -7453.3652 304.1119 -9234.9256 -7453.7688 302.1947 -198.0822 -163.8475 30455.0713 205.2359 270.3068
ENERGY: 900000 2.8268 9.0420 3.2222 0.0000 -10617.1035 1445.6718 0.0000 0.0000 1697.1036 -7459.2372 289.6952 -9156.3408 -7456.5844 301.5381 -109.4725 -107.2215 30631.0308 119.3156 180.8353
ENERGY: 1200000 0.5101 8.4569 2.2634 0.0000 -10677.6488 1437.9025 0.0000 0.0000 1786.2257 -7442.2900 304.9083 -9228.5158 -7455.7096 300.9339 255.7482 313.9961 29688.6976 118.9412 181.3155
ENERGY: 1500000 1.0729 6.2186 3.3004 0.0000 -10657.4589 1475.7597 0.0000 0.0000 1746.3116 -7424.7957 298.0950 -9171.1073 -7455.0506 300.6063 314.9564 400.1138 30157.8086 84.9277 148.3821
TCL: Running FEP window   7: Lambda1 0.3    Lambda2 0.35   [dLambda 0.04999999999999999]
TCL: Setting parameter firsttimestep to 0
TCL: Setting parameter alchLambda to 0.3
Info: NONBONDED TABLE R-SQUARED SPACING: 0.0625
Info: NONBONDED TABLE SIZE: 705 POINTS
TCL: Setting parameter alchLambda2 to 0.35
Info: NONBONDED TABLE R-SQUARED SPACING: 0.0625
Info: NONBONDED TABLE SIZE: 705 POINTS
TCL: Running for 1500000 steps
ETITLE: TS BOND ANGLE DIHED IMPRP ELECT VDW BOUNDARY MISC KINETIC TOTAL TEMP POTENTIAL TOTALAVG TEMPAVG PRESSURE GPRESSURE VOLUME PRESSAVG GPRESSAVG
ENERGY: 0 1.0729 6.2186 3.3004 0.0000 -10657.4592 1477.0285 0.0000 0.0000 1745.4569 -7424.3819 297.9491 -9169.8388 -7424.3819 297.9491 331.1970 409.6921 30157.8086 331.1970 409.6921
ENERGY: 300000 1.1540 7.8426 2.1599 0.0000 -10582.0795 1404.7010 0.0000 0.0000 1807.1247 -7359.0972 308.4757 -9166.2219 -7398.1178 302.9923 77.6912 191.5667 29757.0536 419.6332 480.3120
ENERGY: 600000 2.6433 11.1683 1.9426 0.0000 -10700.7195 1476.7514 0.0000 0.0000 1809.3215 -7398.8923 308.8508 -9208.2138 -7400.5547 302.7631 181.2969 237.1309 30093.5046 316.4607 386.1233
ENERGY: 900000 5.0194 8.0660 3.7016 0.0000 -10546.1713 1342.4953 0.0000 0.0000 1773.0717 -7413.8172 302.6629 -9186.8890 -7420.8127 301.1948 -880.0815 -835.8135 30448.7672 142.1590 204.9535
ENERGY: 1200000 1.6103 11.7263 4.2238 0.0000 -10484.5944 1295.0700 0.0000 0.0000 1774.0546 -7397.9094 302.8307 -9171.9640 -7421.8089 300.8068 -1047.9863 -1034.9026 30536.2758 59.0874 118.9214
ENERGY: 1500000 1.2519 10.0481 2.3462 0.0000 -10755.2258 1543.7359 0.0000 0.0000 1759.2706 -7438.5731 300.3071 -9197.8437 -7432.6269 300.1724 738.2555 789.7476 30123.5124 89.6389 153.5171
TCL: Running FEP window   8: Lambda1 0.35   Lambda2 0.39999999999999997 [dLambda 0.04999999999999999]
TCL: Setting parameter firsttimestep to 0
TCL: Setting parameter alchLambda to 0.35
Info: NONBONDED TABLE R-SQUARED SPACING: 0.0625
Info: NONBONDED TABLE SIZE: 705 POINTS
TCL: Setting parameter alchLambda2 to 0.39999999999999997
Info: NONBONDED TABLE R-SQUARED SPACING: 0.0625
Info: NONBONDED TABLE SIZE: 705 POINTS
TCL: Running for 1500000 steps
ETITLE: TS BOND ANGLE DIHED IMPRP ELECT VDW BOUNDARY MISC KINETIC TOTAL TEMP POTENTIAL TOTALAVG TEMPAVG PRESSURE GPRESSURE VOLUME PRESSAVG GPRESSAVG
ENERGY: 0 1.2519 10.0481 2.3462 0.0000 -10755.2253 1543.2508 0.0000 0.0000 1758.3974 -7439.9309 300.1580 -9198.3283 -7439.9309 300.1580 704.4966 792.8725 30123.5124 704.4966 792.8725
ENERGY: 300000 1.5856 6.8385 2.3837 0.0000 -10700.5625 1502.8086 0.0000 0.0000 1796.3955 -7390.5505 306.6443 -9186.9460 -7464.3069 303.4635 724.5871 799.4092 29814.7522 600.3455 688.6064
ENERGY: 600000 0.5115 10.3044 1.8616 0.0000 -10742.4408 1516.3767 0.0000 0.0000 1681.6771 -7531.7094 287.0619 -9213.3865 -7472.7546 299.5894 401.3255 479.4225 30331.4089 441.4032 536.9476
ENERGY: 900000 0.7197 9.3861 2.0250 0.0000 -10770.0609 1469.0732 0.0000 0.0000 1746.7814 -7542.0756 298.1752 -9288.8570 -7466.4703 299.7382 175.6283 240.6746 29718.6568 346.9596 436.4907
ENERGY: 1200000 3.0867 12.7771 4.6136 0.0000 -10727.5847 1571.7361 0.0000 0.0000 1759.8548 -7375.5164 300.4068 -9135.3712 -7458.4982 299.8634 1044.4821 1043.4443 30521.6675 422.4631 503.3653
ENERGY: 1500000 0.9328 5.3596 1.5562 0.0000 -10585.5284 1423.2354 0.0000 0.0000 1752.9534 -7401.4910 299.2287 -9154.4444 -7460.3032 299.0824 201.2601 326.8379 30272.4950 363.4131 445.7081
TCL: Running FEP window   9: Lambda1 0.39999999999999997 Lambda2 0.44999999999999996 [dLambda 0.04999999999999999]
TCL: Setting parameter firsttimestep to 0
TCL: Setting parameter alchLambda to 0.39999999999999997
Info: NONBONDED TABLE R-SQUARED SPACING: 0.0625
Info: NONBONDED TABLE SIZE: 705 POINTS
TCL: Setting parameter alchLambda2 to 0.44999999999999996
Info: NONBONDED TABLE R-SQUARED SPACING: 0.0625
Info: NONBONDED TABLE SIZE: 705 POINTS
TCL: Running for 1500000 steps
ETITLE: TS BOND ANGLE DIHED IMPRP ELECT VDW BOUNDARY MISC KINETIC TOTAL TEMP POTENTIAL TOTALAVG TEMPAVG PRESSURE GPRESSURE VOLUME PRESSAVG GPRESSAVG
ENERGY: 0 0.9328 5.3596 1.5562 0.0000 -10585.5289 1423.6821 0.0000 0.0000 1752.0393 -7401.9589 299.0727 -9153.9982 -7401.9589 299.0727 250.3082 333.6760 30272.4950 250.3082 333.6760
ENERGY: 300000 2.7517 12.3001 3.2256 0.0000 -10656.2071 1460.6967 0.0000 0.0000 1764.0912 -7413.1418 301.1299 -9177.2330 -7403.7253 303.7772 133.7755 197.2747 30537.2851 156.6831 202.5419
ENERGY: 600000 4.1762 4.9089 5.6334 0.0000 -10703.9039 1436.0106 0.0000 0.0000 1702.2004 -7550.9743 290.5652 -9253.1748 -7458.6372 297.7019 -95.3734 -102.8297 30108.5542 -131.3557 -70.0917
ENERGY: 900000 0.9786 10.0231 2.5290 0.0000 -10509.4126 1356.4746 0.0000 0.0000 1710.2644 -7429.1428 291.9417 -9139.4072 -7452.1018 297.5082 -807.7922 -684.0949 30908.5154 -137.4291 -77.1397
ENERGY: 1200000 1.5686 8.9264 3.1825 0.0000 -10592.8411 1371.1824 0.0000 0.0000 1769.7858 -7438.1955 302.1020 -9207.9813 -7460.5257 297.9886 -469.5977 -358.8484 29996.0667 -126.7506 -62.6767
ENERGY: 1500000 2.7412 9.5515 4.5130 0.0000 -10634.2304 1450.5608 0.0000 0.0000 1763.8254 -7403.0385 301.0846 -9166.8639 -7455.9363 298.7848 111.5144 181.0780 30227.3610 -84.8638 -22.5007
TCL: Running FEP window  10: Lambda1 0.44999999999999996 Lambda2 0.49999999999999994 [dLambda 0.04999999999999999]
TCL: Setting parameter firsttimestep to 0
TCL: Setting parameter alchLambda to 0.44999999999999996
Info: NONBONDED TABLE R-SQUARED SPACING: 0.0625
Info: NONBONDED TABLE SIZE: 705 POINTS
TCL: Setting parameter alchLambda2 to 0.49999999999999994
Info: NONBONDED TABLE R-SQUARED SPACING: 0.0625
Info: NONBONDED TABLE SIZE: 705 POINTS
TCL: Running for 1500000 steps
ETITLE: TS BOND ANGLE DIHED IMPRP ELECT VDW BOUNDARY MISC KINETIC TOTAL TEMP POTENTIAL TOTALAVG TEMPAVG PRESSURE GPRESSURE VOLUME PRESSAVG GPRESSAVG
ENERGY: 0 2.7412 9.5515 4.5130 0.0000 -10634.2296 1450.1774 0.0000 0.0000 1762.9521 -7404.2943 300.9355 -9167.2464 -7404.2943 300.9355 87.0295 181.3102 30227.3610 87.0295 181.3102
ENERGY: 300000 0.4685 7.8403 2.7602 0.0000 -10682.1438 1438.9822 0.0000 0.0000 1775.3379 -7456.7546 303.0498 -9232.0925 -7438.1201 298.3275 92.0174 167.1673 29975.7303 133.1670 234.6191
ENERGY: 600000 2.0979 10.0035 2.3821 0.0000 -10577.4500 1400.5029 0.0000 0.0000 1767.5871 -7394.8766 301.7267 -9162.4637 -7430.8904 299.3272 -325.2241 -204.2048 30421.1853 -18.6153 80.6575
ENERGY: 900000 0.8355 11.4193 2.3855 0.0000 -10612.4722 1435.5219 0.0000 0.0000 1821.1512 -7341.1588 310.8701 -9162.3100 -7406.3497 301.1895 152.0640 191.7077 30269.2808 -18.2438 71.0522
ENERGY: 1200000 0.7503 11.2944 3.5817 0.0000 -10551.1688 1344.3639 0.0000 0.0000 1724.7669 -7466.4115 294.4173 -9191.1784 -7414.2758 300.4178 -638.2852 -535.1414 30059.2727 -69.3351 17.8774
ENERGY: 1500000 1.2281 8.2985 1.8085 0.0000 -10786.5434 1472.7282 0.0000 0.0000 1750.0452 -7552.4350 298.7323 -9302.4801 -7425.3861 300.2195 -111.5172 -12.7952 30263.7604 -85.4634 4.0706
TCL: Running FEP window  11: Lambda1 0.49999999999999994 Lambda2 0.5499999999999999 [dLambda 0.04999999999999999]
TCL: Setting parameter firsttimestep to 0
TCL: Setting parameter alchLambda to 0.49999999999999994
Info: NONBONDED TABLE R-SQUARED SPACING: 0.0625
Info: NONBONDED TABLE SIZE: 705 POINTS
TCL: Setting parameter alchLambda2 to 0.5499999999999999
Info: NONBONDED TABLE R-SQUARED SPACING: 0.0625
Info: NONBONDED TABLE SIZE: 705 POINTS
TCL: Running for 1500000 steps
ETITLE: TS BOND ANGLE DIHED IMPRP ELECT VDW BOUNDARY MISC KINETIC TOTAL TEMP POTENTIAL TOTALAVG TEMPAVG PRESSURE GPRESSURE VOLUME PRESSAVG GPRESSAVG
ENERGY: 0 1.2281 8.2985 1.8085 0.0000 -10786.5428 1472.5440 0.0000 0.0000 1749.1700 -7553.4937 298.5829 -9302.6637 -7553.4937 298.5829 -93.7435 -7.7567 30263.7604 -93.7435 -7.7567
ENERGY: 300000 1.6818 11.5979 2.0890 0.0000 -10600.0254 1430.4335 0.0000 0.0000 1774.1648 -7380.0585 302.8495 -9154.2233 -7433.6714 301.8426 349.4320 454.9804 29895.3787 -84.9198 3.9622
ENERGY: 600000 0.8724 7.1747 1.9945 0.0000 -10657.3559 1463.1807 0.0000 0.0000 1761.1133 -7423.0203 300.6216 -9184.1336 -7420.4727 301.5797 1.7300 143.9879 30655.2986 -66.3125 29.8316
ENERGY: 900000 1.2026 11.0001 1.8628 0.0000 -10665.4617 1418.2449 0.0000 0.0000 1704.8053 -7528.3460 291.0098 -9233.1513 -7444.4654 300.7859 -335.7069 -298.7564 30310.4886 -92.2651 -8.9448
ENERGY: 1200000 2.3212 11.0533 2.6738 0.0000 -10800.0335 1442.1145 0.0000 0.0000 1827.0637 -7514.8071 311.8793 -9341.8708 -7450.2498 300.8886 -440.7322 -354.7000 30357.4892 -122.3114 -47.9874
ENERGY: 1500000 4.7004 8.9865 2.7520 0.0000 -10667.0496 1421.8745 0.0000 0.0000 1809.2379 -7419.4984 308.8365 -9228.7363 -7455.3014 301.2725 -382.5070 -255.4017 30333.9560 -29.6724 44.5770
TCL: Running FEP window  12: Lambda1 0.5499999999999999 Lambda2 0.6    [dLambda 0.050000000000000044]
TCL: Setting parameter firsttimestep to 0
TCL: Setting parameter alchLambda to 0.5499999999999999
Info: NONBONDED TABLE R-SQUARED SPACING: 0.0625
Info: NONBONDED TABLE SIZE: 705 POINTS
TCL: Setting parameter alchLambda2 to 0.6
Info: NONBONDED TABLE R-SQUARED SPACING: 0.0625
Info: NONBONDED TABLE SIZE: 705 POINTS
TCL: Running for 1500000 steps
ETITLE: TS BOND ANGLE DIHED IMPRP ELECT VDW BOUNDARY MISC KINETIC TOTAL TEMP POTENTIAL TOTALAVG TEMPAVG PRESSURE GPRESSURE VOLUME PRESSAVG GPRESSAVG
ENERGY: 0 4.7004 8.9865 2.7520 0.0000 -10667.0259 1422.8031 0.0000 0.0000 1808.3312 -7419.4528 308.6817 -9227.7840 -7419.4528 308.6817 -334.1428 -242.0096 30333.9560 -334.1428 -242.0096
ENERGY: 300000 2.0024 9.4630 2.1545 0.0000 -10557.8709 1444.8788 0.0000 0.0000 1743.9150 -7355.4572 297.6859 -9099.3722 -7423.5433 299.8064 143.3067 183.4326 30763.2187 -55.5933 31.5400
ENERGY: 600000 1.1187 9.6127 3.3250 0.0000 -10648.8489 1408.0594 0.0000 0.0000 1724.9238 -7501.8093 294.4441 -9226.7331 -7438.9594 298.6873 -259.5305 -112.0642 30145.0085 -0.8817 87.6684
ENERGY: 900000 2.8461 7.9821 2.7388 0.0000 -10638.9743 1364.3657 0.0000 0.0000 1737.1770 -7523.8646 296.5357 -9261.0416 -7450.0750 297.9503 -799.7394 -719.6462 30332.5969 -139.1249 -53.6180
ENERGY: 1200000 4.0040 11.3325 2.5799 0.0000 -10551.6185 1331.9916 0.0000 0.0000 1701.1505 -7500.5600 290.3860 -9201.7105 -7459.7502 296.8770 -719.2142 -680.0673 30114.8691 -90.4103 -16.6843
ENERGY: 1500000 2.5304 6.8822 2.1410 0.0000 -10640.7818 1391.3343 0.0000 0.0000 1747.3104 -7490.5835 298.2655 -9237.8939 -7465.4354 296.0028 -476.3729 -375.0605 30315.9189 -96.5416 -19.7641
TCL: Running FEP window  13: Lambda1 0.6    Lambda2 0.65   [dLambda 0.050000000000000044]
TCL: Setting parameter firsttimestep to 0
TCL: Setting parameter alchLambda to 0.6
Info: NONBONDED TABLE R-SQUARED SPACING: 0.0625
Info: NONBONDED TABLE SIZE: 705 POINTS
TCL: Setting parameter alchLambda2 to 0.65
Info: NONBONDED TABLE R-SQUARED SPACING: 0.0625
Info: NONBONDED TABLE SIZE: 705 POINTS
TCL: Running for 1500000 steps
ETITLE: TS BOND ANGLE DIHED IMPRP ELECT VDW BOUNDARY MISC KINETIC TOTAL TEMP POTENTIAL TOTALAVG TEMPAVG PRESSURE GPRESSURE VOLUME PRESSAVG GPRESSAVG
ENERGY: 0 2.5304 6.8822 2.1410 0.0000 -10640.7320 1391.4583 0.0000 0.0000 1746.4391 -7491.2810 298.1167 -9237.7200 -7491.2810 298.1167 -456.4700 -362.8623 30315.9189 -456.4700 -362.8623
ENERGY: 300000 1.2200 16.4827 3.7778 0.0000 -10605.4705 1398.8833 0.0000 0.0000 1689.8630 -7495.2438 288.4592 -9185.1068 -7467.5051 297.9043 -311.4489 -271.7236 30346.8108 -467.0674 -408.7615
ENERGY: 600000 0.5252 11.0426 2.9938 0.0000 -10578.1812 1463.8253 0.0000 0.0000 1776.9222 -7322.8722 303.3202 -9099.7944 -7424.5273 300.6549 426.2959 508.6045 30972.4345 -116.0652 -49.3783
ENERGY: 900000 1.5469 9.1776 2.5937 0.0000 -10764.3620 1488.7678 0.0000 0.0000 1779.6230 -7482.6529 303.7812 -9262.2759 -7437.3891 299.9369 180.6636 245.3838 30444.9807 -109.8876 -48.6624
ENERGY: 1200000 2.4612 9.0987 1.6904 0.0000 -10530.2198 1299.4338 0.0000 0.0000 1755.8418 -7461.6939 299.7218 -9217.5357 -7447.7839 299.1247 -1132.6977 -983.8096 30019.9115 -263.9230 -199.4197
ENERGY: 1500000 1.4669 8.8010 1.9663 0.0000 -10708.6998 1466.3289 0.0000 0.0000 1752.3071 -7477.8296 299.1184 -9230.1367 -7446.9156 299.5059 114.3377 219.6260 30177.0028 -238.2806 -173.0075
TCL: Running FEP window  14: Lambda1 0.65   Lambda2 0.7000000000000001 [dLambda 0.050000000000000044]
TCL: Setting parameter firsttimestep to 0
TCL: Setting parameter alchLambda to 0.65
Info: NONBONDED TABLE R-SQUARED SPACING: 0.0625
Info: NONBONDED TABLE SIZE: 705 POINTS
TCL: Setting parameter alchLambda2 to 0.7000000000000001
Info: NONBONDED TABLE R-SQUARED SPACING: 0.0625
Info: NONBONDED TABLE SIZE: 705 POINTS
TCL: Running for 1500000 steps
ETITLE: TS BOND ANGLE DIHED IMPRP ELECT VDW BOUNDARY MISC KINETIC TOTAL TEMP POTENTIAL TOTALAVG TEMPAVG PRESSURE GPRESSURE VOLUME PRESSAVG GPRESSAVG
ENERGY: 0 1.4669 8.8010 1.9663 0.0000 -10708.7078 1466.0687 0.0000 0.0000 1751.4538 -7478.9512 298.9727 -9230.4050 -7478.9512 298.9727 146.7048 228.1845 30177.0028 146.7048 228.1845
ENERGY: 300000 1.3210 10.1069 1.8221 0.0000 -10772.2800 1499.6628 0.0000 0.0000 1760.7606 -7498.6066 300.5614 -9259.3672 -7441.8918 302.0238 441.1442 494.6315 30156.0241 59.4853 112.0506
ENERGY: 600000 1.5803 8.8623 2.7972 0.0000 -10491.8518 1412.9675 0.0000 0.0000 1733.8123 -7331.8321 295.9614 -9065.6445 -7410.1933 303.0195 130.6152 204.3190 30338.3063 191.4368 247.7126
ENERGY: 900000 2.7794 7.4936 3.1817 0.0000 -10641.4350 1471.8462 0.0000 0.0000 1821.9765 -7334.1576 311.0110 -9156.1341 -7408.0743 303.0828 337.0270 399.6513 30551.5838 254.5908 304.6709
ENERGY: 1200000 1.6504 8.1956 2.5545 0.0000 -10781.1757 1553.5878 0.0000 0.0000 1706.7577 -7508.4296 291.3431 -9215.1873 -7414.3498 302.3412 1145.6599 1211.3998 29794.4600 252.5951 307.7449
ENERGY: 1500000 2.1068 7.0038 1.7547 0.0000 -10667.8153 1456.5546 0.0000 0.0000 1739.6629 -7460.7325 296.9600 -9200.3954 -7422.1101 302.2358 167.7974 310.6664 30151.3224 177.7361 229.9920
TCL: Running FEP window  15: Lambda1 0.7000000000000001 Lambda2 0.7500000000000001 [dLambda 0.050000000000000044]
TCL: Setting parameter firsttimestep to 0
TCL: Setting parameter alchLambda to 0.7000000000000001
Info: NONBONDED TABLE R-SQUARED SPACING: 0.0625
Info: NONBONDED TABLE SIZE: 705 POINTS
TCL: Setting parameter alchLambda2 to 0.7500000000000001
Info: NONBONDED TABLE R-SQUARED SPACING: 0.0625
Info: NONBONDED TABLE SIZE: 705 POINTS
TCL: Running for 1500000 steps
ETITLE: TS BOND ANGLE DIHED IMPRP ELECT VDW BOUNDARY MISC KINETIC TOTAL TEMP POTENTIAL TOTALAVG TEMPAVG PRESSURE GPRESSURE VOLUME PRESSAVG GPRESSAVG
ENERGY: 0 2.1068 7.0038 1.7547 0.0000 -10667.8618 1456.0139 0.0000 0.0000 1738.7420 -7462.2407 296.8028 -9200.9826 -7462.2407 296.8028 209.7838 311.7343 30151.3224 209.7838 311.7343
ENERGY: 300000 2.3680 11.6246 2.9190 0.0000 -10719.5184 1449.1450 0.0000 0.0000 1763.0227 -7490.4392 300.9475 -9253.4619 -7449.9350 300.0848 -53.9138 -27.5452 30343.2927 144.1078 202.7377
ENERGY: 600000 5.2953 10.3116 2.3276 0.0000 -10502.2008 1298.5808 0.0000 0.0000 1737.7992 -7447.8863 296.6419 -9185.6855 -7448.1752 299.0936 -1098.4615 -1087.7501 30526.2020 -156.0333 -114.6547
ENERGY: 900000 0.4617 14.7637 2.6189 0.0000 -10555.6087 1397.3593 0.0000 0.0000 1780.0134 -7360.3917 303.8479 -9140.4051 -7449.4819 298.5633 -166.4697 -93.5651 30202.8104 -271.8660 -223.9103
ENERGY: 1200000 2.1965 7.7197 2.7108 0.0000 -10784.6883 1482.7202 0.0000 0.0000 1725.9091 -7563.4319 294.6123 -9289.3410 -7459.9398 298.9819 179.7235 231.8388 30013.1081 -273.8726 -221.3486
ENERGY: 1500000 1.1385 11.0150 4.7552 0.0000 -10424.2971 1326.6425 0.0000 0.0000 1765.5697 -7315.1763 301.3823 -9080.7459 -7445.1027 299.9283 -482.5019 -414.3356 30471.8658 -317.6784 -257.2218
TCL: Running FEP window  16: Lambda1 0.7500000000000001 Lambda2 0.8000000000000002 [dLambda 0.050000000000000044]
TCL: Setting parameter firsttimestep to 0
TCL: Setting parameter alchLambda to 0.7500000000000001
Info: NONBONDED TABLE R-SQUARED SPACING: 0.0625
Info: NONBONDED TABLE SIZE: 705 POINTS
TCL: Setting parameter alchLambda2 to 0.8000000000000002
Info: NONBONDED TABLE R-SQUARED SPACING: 0.0625
Info: NONBONDED TABLE SIZE: 705 POINTS
TCL: Running for 1500000 steps
ETITLE: TS BOND ANGLE DIHED IMPRP ELECT VDW BOUNDARY MISC KINETIC TOTAL TEMP POTENTIAL TOTALAVG TEMPAVG PRESSURE GPRESSURE VOLUME PRESSAVG GPRESSAVG
ENERGY: 0 1.1385 11.0150 4.7552 0.0000 -10424.3123 1326.9338 0.0000 0.0000 1764.6955 -7315.7743 301.2331 -9080.4699 -7315.7743 301.2331 -477.3155 -404.8560 30471.8658 -477.3155 -404.8560
ENERGY: 300000 2.1897 9.8487 2.8718 0.0000 -10666.6490 1462.0768 0.0000 0.0000 1733.2535 -7456.4084 295.8660 -9189.6619 -7385.9092 299.7564 214.9314 230.2676 30303.0379 310.1451 340.6010
ENERGY: 600000 0.6417 10.3278 3.5001 0.0000 -10568.9511 1444.5278 0.0000 0.0000 1779.6344 -7330.3192 303.7832 -9109.9536 -7391.6872 301.4163 373.9865 442.3050 30503.8015 296.1789 345.1310
ENERGY: 900000 1.4832 8.3044 3.5175 0.0000 -10695.2033 1414.8612 0.0000 0.0000 1751.0211 -7516.0160 298.8989 -9267.0371 -7412.7231 301.1615 113.3294 186.1851 29770.9346 278.6109 327.7942
ENERGY: 1200000 1.8475 7.5070 5.1039 0.0000 -10714.8814 1487.7028 0.0000 0.0000 1712.4995 -7500.2207 292.3232 -9212.7202 -7410.9402 300.1697 274.2310 354.3405 30287.3073 280.0953 329.4651
ENERGY: 1500000 1.5883 12.2495 4.1514 0.0000 -10588.7641 1420.0062 0.0000 0.0000 1824.3052 -7326.4635 311.4085 -9150.7687 -7416.6942 300.4930 194.5777 238.1257 30240.9475 252.7117 306.7889
TCL: Running FEP window  17: Lambda1 0.8000000000000002 Lambda2 0.8500000000000002 [dLambda 0.050000000000000044]
TCL: Setting parameter firsttimestep to 0
TCL: Setting parameter alchLambda to 0.8000000000000002
Info: NONBONDED TABLE R-SQUARED SPACING: 0.0625
Info: NONBONDED TABLE SIZE: 705 POINTS
TCL: Setting parameter alchLambda2 to 0.8500000000000002
Info: NONBONDED TABLE R-SQUARED SPACING: 0.0625
Info: NONBONDED TABLE SIZE: 705 POINTS
TCL: Running for 1500000 steps
ETITLE: TS BOND ANGLE DIHED IMPRP ELECT VDW BOUNDARY MISC KINETIC TOTAL TEMP POTENTIAL TOTALAVG TEMPAVG PRESSURE GPRESSURE VOLUME PRESSAVG GPRESSAVG
ENERGY: 0 1.5883 12.2495 4.1514 0.0000 -10588.7715 1420.1493 0.0000 0.0000 1823.4383 -7327.1948 311.2605 -9150.6331 -7327.1948 311.2605 152.7457 248.3232 30240.9475 152.7457 248.3232
ENERGY: 300000 3.3689 5.5444 4.0660 0.0000 -10500.1943 1385.1035 0.0000 0.0000 1731.4932 -7370.6183 295.5655 -9102.1115 -7417.1064 298.8921 -158.2101 -71.4944 30128.2834 -68.3801 0.7875
ENERGY: 600000 1.3757 10.0117 2.3620 0.0000 -10678.9852 1454.0745 0.0000 0.0000 1803.6840 -7407.4772 307.8884 -9211.1612 -7442.5200 300.2677 429.7409 535.8382 29618.7273 31.6162 110.0873
ENERGY: 900000 0.8906 7.3069 2.4139 0.0000 -10655.5693 1452.8507 0.0000 0.0000 1717.2730 -7474.8343 293.1381 -9192.1073 -7439.2738 300.1070 121.1193 199.6627 30419.6014 70.6028 140.8122
ENERGY: 1200000 0.6649 12.2877 2.3187 0.0000 -10691.4817 1468.3570 0.0000 0.0000 1733.9439 -7473.9095 295.9838 -9207.8534 -7436.3478 300.7146 291.8236 349.3987 30382.6285 166.4338 231.8807
ENERGY: 1500000 1.2997 7.6086 4.4858 0.0000 -10576.7138 1352.6261 0.0000 0.0000 1784.6707 -7426.0229 304.6429 -9210.6936 -7439.0046 300.5958 -248.1888 -243.8292 29938.5139 100.7304 165.4591
TCL: Running FEP window  18: Lambda1 0.8500000000000002 Lambda2 0.9000000000000002 [dLambda 0.050000000000000044]
TCL: Setting parameter firsttimestep to 0
TCL: Setting parameter alchLambda to 0.8500000000000002
Info: NONBONDED TABLE R-SQUARED SPACING: 0.0625
Info: NONBONDED TABLE SIZE: 705 POINTS
TCL: Setting parameter alchLambda2 to 0.9000000000000002
Info: NONBONDED TABLE R-SQUARED SPACING: 0.0625
Info: NONBONDED TABLE SIZE: 705 POINTS
TCL: Running for 1500000 steps
ETITLE: TS BOND ANGLE DIHED IMPRP ELECT VDW BOUNDARY MISC KINETIC TOTAL TEMP POTENTIAL TOTALAVG TEMPAVG PRESSURE GPRESSURE VOLUME PRESSAVG GPRESSAVG
ENERGY: 0 1.2997 7.6086 4.4858 0.0000 -10576.6980 1354.0119 0.0000 0.0000 1783.7978 -7425.4943 304.4939 -9209.2920 -7425.4943 304.4939 -298.6127 -216.3120 29938.5139 -298.6127 -216.3120
ENERGY: 300000 0.5385 6.6409 3.2067 0.0000 -10673.7020 1466.3601 0.0000 0.0000 1801.7682 -7395.1876 307.5614 -9196.9558 -7437.2079 300.8422 510.1443 465.1656 30177.0807 72.8149 112.3569
ENERGY: 600000 2.7933 10.8680 3.5023 0.0000 -10465.1403 1308.1815 0.0000 0.0000 1679.3761 -7460.4191 286.6691 -9139.7952 -7461.1013 297.2908 -976.1126 -967.5075 30510.9427 -38.2615 -6.6402
ENERGY: 900000 0.3987 7.7873 2.7680 0.0000 -10693.5983 1440.7949 0.0000 0.0000 1726.7813 -7515.0680 294.7611 -9241.8493 -7459.0117 298.9775 113.4162 191.3925 29840.0659 -0.7504 44.2741
ENERGY: 1200000 3.4593 12.8544 3.7819 0.0000 -10512.9619 1330.4580 0.0000 0.0000 1764.5540 -7397.8543 301.2089 -9162.4083 -7452.0782 299.2306 -932.2266 -909.1720 30979.6861 -93.0029 -54.2160
ENERGY: 1500000 0.4408 8.8150 3.6840 0.0000 -10703.5436 1465.5389 0.0000 0.0000 1780.9314 -7444.1336 304.0046 -9225.0650 -7447.0020 300.0646 542.3040 614.1196 29851.9458 -59.9891 -15.2889
TCL: Running FEP window  19: Lambda1 0.9000000000000002 Lambda2 0.9500000000000003 [dLambda 0.050000000000000044]
TCL: Setting parameter firsttimestep to 0
TCL: Setting parameter alchLambda to 0.9000000000000002
Info: NONBONDED TABLE R-SQUARED SPACING: 0.0625
Info: NONBONDED TABLE SIZE: 705 POINTS
TCL: Setting parameter alchLambda2 to 0.9500000000000003
Info: NONBONDED TABLE R-SQUARED SPACING: 0.0625
Info: NONBONDED TABLE SIZE: 705 POINTS
TCL: Running for 1500000 steps
ETITLE: TS BOND ANGLE DIHED IMPRP ELECT VDW BOUNDARY MISC KINETIC TOTAL TEMP POTENTIAL TOTALAVG TEMPAVG PRESSURE GPRESSURE VOLUME PRESSAVG GPRESSAVG
ENERGY: 0 0.4408 8.8150 3.6840 0.0000 -10703.5731 1465.3651 0.0000 0.0000 1780.0742 -7445.1940 303.8582 -9225.2682 -7445.1940 303.8582 541.0056 624.5262 29851.9458 541.0056 624.5262
ENERGY: 300000 1.4779 10.6484 2.4516 0.0000 -10580.6513 1424.4564 0.0000 0.0000 1736.1096 -7405.5075 296.3535 -9141.6171 -7429.5328 298.1783 -85.9637 -7.5437 30754.0869 69.6363 141.4396
ENERGY: 600000 2.4198 7.3611 2.4200 0.0000 -10610.2464 1422.3349 0.0000 0.0000 1759.3342 -7416.3765 300.3179 -9175.7107 -7445.0723 300.6674 251.8845 307.7932 30250.5853 163.8556 225.7888
ENERGY: 900000 1.2229 8.8502 2.6022 0.0000 -10676.4799 1436.5852 0.0000 0.0000 1716.7670 -7510.4526 293.0517 -9227.2195 -7447.7404 300.4650 -7.9101 -31.0384 30244.9085 52.1059 99.3776
ENERGY: 1200000 1.7863 8.9587 2.6064 0.0000 -10635.2459 1408.5454 0.0000 0.0000 1784.1459 -7429.2033 304.5533 -9213.3492 -7443.2643 301.3341 -293.7727 -179.0598 30423.2610 10.6461 68.3494
ENERGY: 1500000 1.8081 7.5784 4.3982 0.0000 -10597.6673 1450.5637 0.0000 0.0000 1772.9780 -7360.3407 302.6469 -9133.3188 -7443.4846 300.6623 378.2188 396.0501 30535.6395 -16.1812 35.5846
TCL: Running FEP window  20: Lambda1 0.9500000000000003 Lambda2 1.0    [dLambda 0.04999999999999971]
TCL: Setting parameter firsttimestep to 0
TCL: Setting parameter alchLambda to 0.9500000000000003
Info: NONBONDED TABLE R-SQUARED SPACING: 0.0625
Info: NONBONDED TABLE SIZE: 705 POINTS
TCL: Setting parameter alchLambda2 to 1.0
Info: NONBONDED TABLE R-SQUARED SPACING: 0.0625
Info: NONBONDED TABLE SIZE: 705 POINTS
TCL: Running for 1500000 steps
ETITLE: TS BOND ANGLE DIHED IMPRP ELECT VDW BOUNDARY MISC KINETIC TOTAL TEMP POTENTIAL TOTALAVG TEMPAVG PRESSURE GPRESSURE VOLUME PRESSAVG GPRESSAVG
ENERGY: 0 1.8081 7.5784 4.3982 0.0000 -10597.6453 1450.5383 0.0000 0.0000 1772.1186 -7361.2037 302.5002 -9133.3223 -7361.2037 302.5002 328.4375 408.4172 30535.6395 328.4375 408.4172
ENERGY: 300000 0.8301 8.4484 3.5835 0.0000 -10696.4251 1458.5369 0.0000 0.0000 1849.8317 -7375.1945 315.7658 -9225.0262 -7451.0010 301.4859 44.6109 149.4175 30392.6520 349.1903 426.4215
ENERGY: 600000 3.1814 8.5459 1.9053 0.0000 -10489.2275 1271.2801 0.0000 0.0000 1782.9399 -7421.3749 304.3474 -9204.3148 -7452.1916 302.1489 -1295.0169 -1217.7118 30421.4722 46.8176 114.1538
ENERGY: 900000 1.0913 9.8863 1.9951 0.0000 -10739.0074 1463.0670 0.0000 0.0000 1751.1484 -7511.8193 298.9206 -9262.9677 -7445.7095 301.0733 19.9207 81.1433 30395.8449 48.1919 123.6126
ENERGY: 1200000 3.3675 7.6050 3.0140 0.0000 -10437.8547 1313.9355 0.0000 0.0000 1772.4802 -7337.4525 302.5619 -9109.9327 -7433.0947 300.5332 -645.4239 -656.1099 30376.7530 -17.6885 51.7187
ENERGY: 1500000 1.5742 9.1974 2.6554 0.0000 -10650.8511 1397.2446 0.0000 0.0000 1808.6582 -7431.5214 308.7375 -9240.1796 -7441.3003 300.6618 -77.4132 -88.5736 30247.8268 -104.5140 -42.5941
TCL: Exiting due to exit command.
