Info: SIMULATION PARAMETERS:
Info: TIMESTEP               2
Info: NUMBER OF STEPS        0
Info: STEPS PER CYCLE        10
Info: PERIODIC CELL BASIS 1  30.7579 0 0
Info: PERIODIC CELL BASIS 2  0 31.1315 0
Info: PERIODIC CELL BASIS 3  0 0 31.4058
Info: PERIODIC CELL CENTER   0 0 0
Info: WRAPPING WATERS AROUND PERIODIC BOUNDARIES ON OUTPUT.
Info: WRAPPING ALL CLUSTERS AROUND PERIODIC BOUNDARIES ON OUTPUT.
Info: FIRST LDB TIMESTEP     50
Info: LAST LDB TIMESTEP     -1
Info: HOM BACKGROUND SCALING 1
Info: PME BACKGROUND SCALING 1
Info: MIN ATOMS PER PATCH    40
Info: EMPTY PATCH LOAD       40 ATOMS
Info: VELOCITY FILE          mobley_7360181_equil.vel
Info: CENTER OF MASS MOVING INITIALLY? NO
Info: DIELECTRIC             1
Info: EXCLUDE                SCALED ONE-FOUR
Info: 1-4 ELECTROSTATICS SCALED BY 0.833333
Info: MODIFIED 1-4 VDW PARAMETERS WILL BE USED
Info: DCD FILENAME           mobley_7360181_prod.dcd
Info: DCD FREQUENCY          100000
Info: DCD FIRST STEP         100000
Info: DCD FILE WILL CONTAIN UNIT CELL DATA
Info: XST FILENAME           mobley_7360181_prod.xst
Info: XST FREQUENCY          100000
Info: NO VELOCITY DCD OUTPUT
Info: NO FORCE DCD OUTPUT
Info: OUTPUT FILENAME        mobley_7360181_prod
Info: BINARY OUTPUT FILES WILL BE USED
Info: RESTART FILENAME       mobley_7360181_prod.restart
Info: RESTART FREQUENCY      100000
Info: BINARY RESTART FILES WILL BE USED
Info: CUTOFF                 9
Info: PAIRLIST DISTANCE      11
Info: PAIRLIST SHRINK RATE   0.01
Info: PAIRLIST GROW RATE     0.01
Info: PAIRLIST TRIGGER       0.3
Info: PAIRLISTS PER CYCLE    2
Info: PAIRLISTS ENABLED
Info: MARGIN                 2
Info: HYDROGEN GROUP CUTOFF  2.5
Info: PATCH DIMENSION        15.5
Info: ENERGY OUTPUT STEPS    100000
Info: ENERGY EVALUATION STEPS    100000
Info: OUTPUT ENERGY PRECISION 4
Info: CROSSTERM ENERGY INCLUDED IN DIHEDRAL
Info: TIMING OUTPUT STEPS    1000000
Info: PRESSURE OUTPUT STEPS  100000
Info: ALCHEMICAL FEP ON
Info: FEP CURRENT LAMBDA VALUE     1
Info: FEP COMPARISON LAMBDA VALUE  0.95
Info: FEP INTRA-ALCHEMICAL NON-BONDED INTERACTIONS WILL BE RETAINED
Info: FEP INTRA-ALCHEMICAL BONDED INTERACTIONS WILL BE RETAINED
Info: FEP VDW SHIFTING COEFFICIENT 5
Info: FEP ELEC. ACTIVE FOR ANNIHILATED PARTICLES BETWEEN LAMBDA = 0 AND LAMBDA = 0.5
Info: FEP ELEC. ACTIVE FOR EXNIHILATED PARTICLES BETWEEN LAMBDA = 0.5 AND LAMBDA = 1
Info: FEP VDW ACTIVE FOR ANNIHILATED PARTICLES BETWEEN LAMBDA = 0 AND LAMBDA = 1
Info: FEP VDW ACTIVE FOR EXNIHILATED PARTICLES BETWEEN LAMBDA = 0 AND LAMBDA = 1
Info: FEP BOND ACTIVE FOR ANNIHILATED PARTICLES BETWEEN LAMBDA = 1 AND LAMBDA = 1
Info: FEP BOND ACTIVE FOR EXNIHILATED PARTICLES BETWEEN LAMBDA = 0 AND LAMBDA = 0
Info: LANGEVIN DYNAMICS ACTIVE
Info: LANGEVIN TEMPERATURE   300
Info: LANGEVIN USING BBK INTEGRATOR
Info: LANGEVIN DAMPING COEFFICIENT IS 1 INVERSE PS
Info: LANGEVIN DYNAMICS APPLIED TO HYDROGENS
Info: LANGEVIN PISTON PRESSURE CONTROL ACTIVE
Info:        TARGET PRESSURE IS 1.01325 BAR
Info:     OSCILLATION PERIOD IS 50 FS
Info:             DECAY TIME IS 25 FS
Info:     PISTON TEMPERATURE IS 300 K
Info:       PRESSURE CONTROL IS GROUP-BASED
Info:    INITIAL STRAIN RATE IS 0.000204596 0.000204596 0.000204596
Info:       CELL FLUCTUATION IS ISOTROPIC
Info: PARTICLE MESH EWALD (PME) ACTIVE
Info: PME TOLERANCE               1e-06
Info: PME EWALD COEFFICIENT       0.348832
Info: PME INTERPOLATION ORDER     4
Info: PME GRID DIMENSIONS         32 32 32
Info: PME MAXIMUM GRID SPACING    1
Info: PME CALCULATION WILL BE PERFORMED ON GPU
Info: FULL ELECTROSTATIC EVALUATION FREQUENCY      2
Info: USING VERLET I (r-RESPA) MTS SCHEME.
Info: C1 SPLITTING OF LONG RANGE ELECTROSTATICS
Info: PLACING ATOMS IN PATCHES BY HYDROGEN GROUPS
Info: RIGID BONDS TO HYDROGEN : ALL
Info:         ERROR TOLERANCE : 1e-08
Info:          MAX ITERATIONS : 100
Info: RIGID WATER USING SETTLE ALGORITHM
Info: RANDOM NUMBER SEED     1743932752
Info: USE HYDROGEN BONDS?    NO
Info: Using AMBER format force field!
Info: AMBER PARM FILE        mobley_7360181.prmtop
Info: COORDINATE PDB         mobley_7360181.pdb
Info: Exclusions will be read from PARM file!
Info: SCNB (VDW SCALING)     2
Info: USING ARITHMETIC MEAN TO COMBINE L-J SIGMA PARAMETERS
Info: BINARY COORDINATES     mobley_7360181_equil.coor
Info: SUMMARY OF PARAMETERS:
Info: 6 BONDS
Info: 7 ANGLES
Info:   7 HARMONIC
Info:   0 COSINE-BASED
Info: 7 DIHEDRAL
Info: 0 IMPROPER
Info: 0 CROSSTERM
Info: 0 VDW
Info: 21 VDW_PAIRS
Info: 0 NBTHOLE_PAIRS
Info: To read alchdata from file: mobley_7360181.pdb
Info: To read alchflag data from column: 5
Info: STRUCTURE SUMMARY:
Info: 2939 ATOMS
Info: 2938 BONDS
Info: 33 ANGLES
Info: 42 DIHEDRALS
Info: 0 IMPROPERS
Info: 0 CROSSTERMS
Info: 2998 EXCLUSIONS
Info: 2928 RIGID BONDS
Info: ALCH: 0 ATOMS TO DISAPPEAR IN FINAL STATE
Info: ALCH: 20 ATOMS TO APPEAR IN FINAL STATE
Info: 5889 DEGREES OF FREEDOM
Info: 984 HYDROGEN GROUPS
Info: 4 ATOMS IN LARGEST HYDROGEN GROUP
Info: 984 MIGRATION GROUPS
Info: 4 ATOMS IN LARGEST MIGRATION GROUP
Info: TOTAL MASS = 17703.7 amu
Info: TOTAL CHARGE = -9.99905e-05 e
Info: MASS DENSITY = 0.977589 g/cm^3
Info: ATOM DENSITY = 0.0977311 atoms/A^3
Info: ADDED 0 IMPLICIT EXCLUSIONS
Info: NONBONDED TABLE R-SQUARED SPACING: 0.0625
Info: NONBONDED TABLE SIZE: 705 POINTS
Info: REMOVING COM VELOCITY -0.0993608 0.0139296 0.0697906
Info: Use 3D box decompostion in PME FFT.
Info: Updated CUDA force table with 4096 elements.
Info: Updated CUDA LJ table with 6 x 6 elements.
Info: Found 23 unique exclusion lists needing 48 bytes
TCL: Running for 1500000 steps
ETITLE: TS BOND ANGLE DIHED IMPRP ELECT VDW BOUNDARY MISC KINETIC TOTAL TEMP POTENTIAL TOTALAVG TEMPAVG PRESSURE GPRESSURE VOLUME PRESSAVG GPRESSAVG
ENERGY: 0 2.7905 11.2384 14.0506 0.0000 -10590.3263 1434.8927 0.0000 0.0000 1777.1373 -7350.2167 303.7175 -9127.3540 -7350.2167 303.7175 242.5567 309.8098 30072.3169 242.5567 309.8098
ENERGY: 300000 4.5239 6.5146 15.0750 0.0000 -10607.5637 1409.7656 0.0000 0.0000 1686.2225 -7485.4621 288.1799 -9171.6846 -7393.3829 293.9348 -406.9831 -334.0446 30389.2141 -296.8991 -251.7955
ENERGY: 600000 3.2963 6.1659 14.2631 0.0000 -10604.5296 1463.5035 0.0000 0.0000 1754.8522 -7362.4487 299.9089 -9117.3009 -7380.4846 296.2940 227.9895 340.0361 30293.5270 -91.0033 -26.0558
ENERGY: 900000 2.0620 11.4162 13.0067 0.0000 -10569.6813 1468.1535 0.0000 0.0000 1749.2097 -7325.8331 298.9446 -9075.0428 -7361.0359 297.1749 526.5718 588.4684 30184.2160 -9.2912 53.0064
ENERGY: 1200000 2.5611 9.9111 14.9708 0.0000 -10538.1849 1429.2954 0.0000 0.0000 1760.9258 -7320.5207 300.9469 -9081.4465 -7352.4213 298.7978 54.7068 146.9390 30647.6337 73.2113 138.1145
ENERGY: 1500000 6.9022 13.6063 13.5628 0.0000 -10667.1097 1443.4473 0.0000 0.0000 1723.6199 -7465.9712 294.5712 -9189.5911 -7360.1052 299.0800 108.1146 174.0011 30054.0007 66.8086 126.3510
TCL: Running FEP window   2: Lambda1 0.95   Lambda2 0.8999999999999999 [dLambda -0.050000000000000044]
TCL: Setting parameter firsttimestep to 0
TCL: Setting parameter alchLambda to 0.95
Info: NONBONDED TABLE R-SQUARED SPACING: 0.0625
Info: NONBONDED TABLE SIZE: 705 POINTS
TCL: Setting parameter alchLambda2 to 0.8999999999999999
Info: NONBONDED TABLE R-SQUARED SPACING: 0.0625
Info: NONBONDED TABLE SIZE: 705 POINTS
TCL: Running for 1500000 steps
ETITLE: TS BOND ANGLE DIHED IMPRP ELECT VDW BOUNDARY MISC KINETIC TOTAL TEMP POTENTIAL TOTALAVG TEMPAVG PRESSURE GPRESSURE VOLUME PRESSAVG GPRESSAVG
ENERGY: 0 6.9022 13.6063 13.5628 0.0000 -10666.1027 1443.6429 0.0000 0.0000 1722.7112 -7465.6772 294.4159 -9188.3884 -7465.6772 294.4159 76.9397 167.9335 30054.0007 76.9397 167.9335
ENERGY: 300000 3.1199 12.8393 13.8168 0.0000 -10609.1060 1454.8426 0.0000 0.0000 1769.4050 -7355.0824 302.3960 -9124.4874 -7381.9874 298.1677 173.9042 261.5937 30295.6607 -168.2894 -112.1297
ENERGY: 600000 3.1686 9.2157 14.5688 0.0000 -10647.3831 1458.2522 0.0000 0.0000 1745.1560 -7417.0218 298.2518 -9162.1778 -7388.9435 298.9491 40.8803 109.7340 30431.8363 -111.6781 -51.2768
ENERGY: 900000 4.2293 13.0996 15.7241 0.0000 -10413.0048 1315.7343 0.0000 0.0000 1804.3337 -7259.8838 308.3654 -9064.2175 -7370.1413 300.3941 -914.6723 -857.7622 30680.6125 -235.5750 -176.9500
ENERGY: 1200000 4.8139 9.2501 15.7444 0.0000 -10686.9313 1449.3303 0.0000 0.0000 1710.6494 -7497.1431 292.3545 -9207.7925 -7381.3914 299.3325 -75.2986 -4.8991 30187.2254 -159.0152 -97.6488
ENERGY: 1500000 6.3495 9.3460 14.9455 0.0000 -10496.9708 1325.6149 0.0000 0.0000 1690.3600 -7450.3550 288.8870 -9140.7150 -7385.9532 299.3927 -951.0388 -893.6979 30183.0626 -202.2708 -135.9569
TCL: Running FEP window   3: Lambda1 0.8999999999999999 Lambda2 0.8499999999999999 [dLambda -0.050000000000000044]
TCL: Setting parameter firsttimestep to 0
TCL: Setting parameter alchLambda to 0.8999999999999999
Info: NONBONDED TABLE R-SQUARED SPACING: 0.0625
Info: NONBONDED TABLE SIZE: 705 POINTS
TCL: Setting parameter alchLambda2 to 0.8499999999999999
Info: NONBONDED TABLE R-SQUARED SPACING: 0.0625
Info: NONBONDED TABLE SIZE: 705 POINTS
TCL: Running for 1500000 steps
ETITLE: TS BOND ANGLE DIHED IMPRP ELECT VDW BOUNDARY MISC KINETIC TOTAL TEMP POTENTIAL TOTALAVG TEMPAVG PRESSURE GPRESSURE VOLUME PRESSAVG GPRESSAVG
ENERGY: 0 6.3495 9.3460 14.9455 0.0000 -10495.8162 1325.5295 0.0000 0.0000 1689.4937 -7450.1520 288.7390 -9139.6457 -7450.1520 288.7390 -986.8169 -908.0677 30183.0626 -986.8169 -908.0677
ENERGY: 300000 1.3075 15.0154 17.1020 0.0000 -10738.5868 1561.8876 0.0000 0.0000 1743.6901 -7399.5843 298.0013 -9143.2743 -7366.4210 298.5754 887.3301 937.1038 30636.2426 -137.5847 -74.8490
ENERGY: 600000 3.6548 12.0765 13.8205 0.0000 -10634.0995 1503.7724 0.0000 0.0000 1763.1190 -7337.6562 301.3217 -9100.7753 -7350.0644 301.5038 807.2773 848.8130 30236.2601 181.1808 226.7406
ENERGY: 900000 4.6452 8.3140 13.5020 0.0000 -10541.4991 1431.4383 0.0000 0.0000 1734.8503 -7348.7492 296.4905 -9083.5996 -7362.8990 299.7899 -17.5862 33.7760 30636.3546 -2.8814 44.5447
ENERGY: 1200000 3.0511 10.6031 13.7887 0.0000 -10744.3188 1471.9240 0.0000 0.0000 1799.8548 -7445.0971 307.6000 -9244.9519 -7353.4713 302.1952 118.8344 182.7544 30114.0461 46.3779 99.2396
ENERGY: 1500000 2.5977 9.7221 14.3784 0.0000 -10598.4248 1494.0217 0.0000 0.0000 1688.3122 -7389.3928 288.5371 -9077.7050 -7354.8053 300.9929 644.2314 728.4708 30193.2198 35.0408 93.4413
TCL: Running FEP window   4: Lambda1 0.8499999999999999 Lambda2 0.7999999999999998 [dLambda -0.050000000000000044]
TCL: Setting parameter firsttimestep to 0
TCL: Setting parameter alchLambda to 0.8499999999999999
Info: NONBONDED TABLE R-SQUARED SPACING: 0.0625
Info: NONBONDED TABLE SIZE: 705 POINTS
TCL: Setting parameter alchLambda2 to 0.7999999999999998
Info: NONBONDED TABLE R-SQUARED SPACING: 0.0625
Info: NONBONDED TABLE SIZE: 705 POINTS
TCL: Running for 1500000 steps
ETITLE: TS BOND ANGLE DIHED IMPRP ELECT VDW BOUNDARY MISC KINETIC TOTAL TEMP POTENTIAL TOTALAVG TEMPAVG PRESSURE GPRESSURE VOLUME PRESSAVG GPRESSAVG
ENERGY: 0 2.5977 9.7221 14.3784 0.0000 -10597.7332 1494.3697 0.0000 0.0000 1687.4463 -7389.2191 288.3891 -9076.6654 -7389.2191 288.3891 628.1717 722.3967 30193.2198 628.1717 722.3967
ENERGY: 300000 8.2917 11.3352 15.1688 0.0000 -10570.9529 1430.7503 0.0000 0.0000 1775.2364 -7330.1705 303.3926 -9105.4069 -7355.0179 297.1053 47.0796 112.8698 30219.3279 -97.4694 -31.2165
ENERGY: 600000 6.0921 9.0501 13.1592 0.0000 -10495.7028 1358.1303 0.0000 0.0000 1786.4986 -7322.7725 305.3174 -9109.2711 -7346.8537 299.0409 -735.7697 -663.1263 30415.5358 -318.6398 -254.5673
ENERGY: 900000 3.2261 13.3172 13.2952 0.0000 -10519.0554 1440.5151 0.0000 0.0000 1706.3528 -7342.3491 291.6202 -9048.7018 -7339.2473 298.1491 54.3400 111.8828 30809.3762 -164.2003 -93.0069
ENERGY: 1200000 4.2321 10.6993 15.0205 0.0000 -10462.9590 1398.1126 0.0000 0.0000 1713.1616 -7321.7329 292.7839 -9034.8945 -7343.9893 298.5516 -278.7493 -240.6073 30831.0447 -159.7437 -97.7268
ENERGY: 1500000 1.9936 7.4119 13.4523 0.0000 -10652.1430 1451.5011 0.0000 0.0000 1776.2436 -7401.5405 303.5648 -9177.7841 -7343.1394 299.2813 -60.3157 -12.3447 30499.9720 -133.7900 -71.3318
TCL: Running FEP window   5: Lambda1 0.7999999999999998 Lambda2 0.7499999999999998 [dLambda -0.050000000000000044]
TCL: Setting parameter firsttimestep to 0
TCL: Setting parameter alchLambda to 0.7999999999999998
Info: NONBONDED TABLE R-SQUARED SPACING: 0.0625
Info: NONBONDED TABLE SIZE: 705 POINTS
TCL: Setting parameter alchLambda2 to 0.7499999999999998
Info: NONBONDED TABLE R-SQUARED SPACING: 0.0625
Info: NONBONDED TABLE SIZE: 705 POINTS
TCL: Running for 1500000 steps
ETITLE: TS BOND ANGLE DIHED IMPRP ELECT VDW BOUNDARY MISC KINETIC TOTAL TEMP POTENTIAL TOTALAVG TEMPAVG PRESSURE GPRESSURE VOLUME PRESSAVG GPRESSAVG
ENERGY: 0 1.9936 7.4119 13.4523 0.0000 -10651.1932 1451.7344 0.0000 0.0000 1775.3729 -7401.2281 303.4160 -9176.6010 -7401.2281 303.4160 -113.0037 -18.1643 30499.9720 -113.0037 -18.1643
ENERGY: 300000 4.9272 14.8143 15.6374 0.0000 -10603.8159 1482.4655 0.0000 0.0000 1738.2568 -7347.7147 297.0727 -9085.9715 -7363.0113 299.0523 306.9534 375.3344 30332.4686 90.7472 169.3904
ENERGY: 600000 9.4066 8.2547 15.8502 0.0000 -10687.3194 1497.1688 0.0000 0.0000 1723.9845 -7432.6546 294.6335 -9156.6391 -7389.5193 298.0231 428.6207 455.8118 29991.2614 119.4433 189.1527
ENERGY: 900000 5.0627 7.7441 15.3051 0.0000 -10497.0917 1389.4866 0.0000 0.0000 1730.8232 -7348.6700 295.8023 -9079.4932 -7381.1434 297.8410 -163.5929 -17.3089 29921.3778 117.7413 198.1918
ENERGY: 1200000 5.7926 11.4767 14.4829 0.0000 -10475.3124 1319.8480 0.0000 0.0000 1757.5565 -7366.1558 300.3711 -9123.7123 -7374.3921 298.4731 -972.2381 -874.1485 30373.1611 -24.5598 57.8575
ENERGY: 1500000 4.8911 9.8175 16.1218 0.0000 -10618.8665 1452.0305 0.0000 0.0000 1824.8291 -7311.1765 311.8682 -9136.0056 -7374.5506 299.7191 266.1271 308.0733 30090.6403 -94.7688 -10.2547
TCL: Running FEP window   6: Lambda1 0.7499999999999998 Lambda2 0.6999999999999997 [dLambda -0.050000000000000044]
TCL: Setting parameter firsttimestep to 0
TCL: Setting parameter alchLambda to 0.7499999999999998
Info: NONBONDED TABLE R-SQUARED SPACING: 0.0625
Info: NONBONDED TABLE SIZE: 705 POINTS
TCL: Setting parameter alchLambda2 to 0.6999999999999997
Info: NONBONDED TABLE R-SQUARED SPACING: 0.0625
Info: NONBONDED TABLE SIZE: 705 POINTS
TCL: Running for 1500000 steps
ETITLE: TS BOND ANGLE DIHED IMPRP ELECT VDW BOUNDARY MISC KINETIC TOTAL TEMP POTENTIAL TOTALAVG TEMPAVG PRESSURE GPRESSURE VOLUME PRESSAVG GPRESSAVG
ENERGY: 0 4.8911 9.8175 16.1218 0.0000 -10618.1446 1451.7424 0.0000 0.0000 1823.9727 -7311.5992 311.7218 -9135.5719 -7311.5992 311.7218 216.4840 294.4725 30090.6403 216.4840 294.4725
ENERGY: 300000 7.0253 8.3161 14.8475 0.0000 -10700.2242 1530.9143 0.0000 0.0000 1790.3579 -7348.7631 305.9769 -9139.1210 -7361.0897 304.4549 651.8161 685.1449 30119.5386 144.5992 227.3249
ENERGY: 600000 2.1861 9.1523 14.1657 0.0000 -10426.3684 1370.8352 0.0000 0.0000 1740.5534 -7289.4757 297.4652 -9030.0291 -7354.3471 303.1806 -147.3775 -118.5402 30466.6509 -58.2718 16.7359
ENERGY: 900000 11.5593 13.3851 16.1985 0.0000 -10513.1647 1345.1714 0.0000 0.0000 1743.1825 -7383.6680 297.9145 -9126.8505 -7350.7940 302.2781 -868.8322 -781.3567 30269.4455 -154.2126 -92.2735
ENERGY: 1200000 3.6818 10.2646 13.3539 0.0000 -10492.1322 1405.4606 0.0000 0.0000 1775.3620 -7284.0093 303.4141 -9059.3713 -7336.8441 303.0546 326.5629 429.4681 29842.3199 -101.5352 -35.4096
ENERGY: 1500000 6.4707 13.4503 14.0974 0.0000 -10634.5388 1462.9053 0.0000 0.0000 1796.5102 -7341.1048 307.0284 -9137.6150 -7343.2112 302.5959 88.4106 82.7602 30205.3094 -103.6766 -35.6142
TCL: Running FEP window   7: Lambda1 0.6999999999999997 Lambda2 0.6499999999999997 [dLambda -0.050000000000000044]
TCL: Setting parameter firsttimestep to 0
TCL: Setting parameter alchLambda to 0.6999999999999997
Info: NONBONDED TABLE R-SQUARED SPACING: 0.0625
Info: NONBONDED TABLE SIZE: 705 POINTS
TCL: Setting parameter alchLambda2 to 0.6499999999999997
Info: NONBONDED TABLE R-SQUARED SPACING: 0.0625
Info: NONBONDED TABLE SIZE: 705 POINTS
TCL: Running for 1500000 steps
ETITLE: TS BOND ANGLE DIHED IMPRP ELECT VDW BOUNDARY MISC KINETIC TOTAL TEMP POTENTIAL TOTALAVG TEMPAVG PRESSURE GPRESSURE VOLUME PRESSAVG GPRESSAVG
ENERGY: 0 6.4707 13.4503 14.0974 0.0000 -10633.2060 1463.3062 0.0000 0.0000 1795.6210 -7340.2603 306.8764 -9135.8813 -7340.2603 306.8764 -1.9647 81.0047 30205.3094 -1.9647 81.0047
ENERGY: 300000 5.4431 13.0897 15.1466 0.0000 -10614.6249 1442.4717 0.0000 0.0000 1723.7535 -7414.7203 294.5941 -9138.4738 -7332.3291 300.2709 -62.0345 -36.6229 30180.4576 184.9006 232.2313
ENERGY: 600000 5.0068 16.9237 14.2192 0.0000 -10510.7734 1387.3204 0.0000 0.0000 1824.3269 -7262.9765 311.7823 -9087.3034 -7341.4355 302.4552 -106.1503 -102.7771 30080.0307 122.5241 170.3165
ENERGY: 900000 6.7472 8.6713 13.9656 0.0000 -10591.9377 1488.5406 0.0000 0.0000 1772.4705 -7301.5425 302.9199 -9074.0130 -7329.9797 302.2414 806.3629 872.2377 29843.2843 276.1564 327.4844
ENERGY: 1200000 5.3187 13.1655 14.9879 0.0000 -10624.6663 1436.2676 0.0000 0.0000 1758.5274 -7396.3993 300.5370 -9154.9267 -7347.7098 300.0945 98.7321 136.5727 29904.4133 169.9736 229.6613
ENERGY: 1500000 4.0114 11.9775 14.7821 0.0000 -10559.7205 1436.2026 0.0000 0.0000 1733.6015 -7359.1454 296.2771 -9092.7469 -7347.0371 300.4301 -116.4643 -108.5982 30369.8665 102.6879 162.3440
TCL: Running FEP window   8: Lambda1 0.6499999999999997 Lambda2 0.5999999999999996 [dLambda -0.050000000000000044]
TCL: Setting parameter firsttimestep to 0
TCL: Setting parameter alchLambda to 0.6499999999999997
Info: NONBONDED TABLE R-SQUARED SPACING: 0.0625
Info: NONBONDED TABLE SIZE: 705 POINTS
TCL: Setting parameter alchLambda2 to 0.5999999999999996
Info: NONBONDED TABLE R-SQUARED SPACING: 0.0625
Info: NONBONDED TABLE SIZE: 705 POINTS
TCL: Running for 1500000 steps
ETITLE: TS BOND ANGLE DIHED IMPRP ELECT VDW BOUNDARY MISC KINETIC TOTAL TEMP POTENTIAL TOTALAVG TEMPAVG PRESSURE GPRESSURE VOLUME PRESSAVG GPRESSAVG
ENERGY: 0 4.0114 11.9775 14.7821 0.0000 -10559.1221 1436.2946 0.0000 0.0000 1732.7441 -7359.3125 296.1306 -9092.0566 -7359.3125 296.1306 -203.3572 -115.6544 30369.8665 -203.3572 -115.6544
ENERGY: 300000 5.6345 12.4412 13.8022 0.0000 -10551.3700 1406.3397 0.0000 0.0000 1783.0395 -7330.1128 304.7262 -9113.1523 -7361.2157 301.7634 -137.9803 -96.4453 30111.5192 -95.1334 -55.0994
ENERGY: 600000 6.1172 9.5777 14.3348 0.0000 -10635.4882 1469.8999 0.0000 0.0000 1798.6078 -7336.9508 307.3869 -9135.5586 -7358.3570 300.7351 286.4348 364.0961 30026.4867 -67.8909 -21.9533
ENERGY: 900000 1.9680 16.4835 15.0974 0.0000 -10530.2964 1383.9331 0.0000 0.0000 1790.2474 -7322.5670 305.9580 -9112.8144 -7342.4147 300.8009 -339.9771 -330.0486 30392.8291 -77.4305 -38.1318
ENERGY: 1200000 5.4893 9.8414 14.0227 0.0000 -10600.5102 1399.5996 0.0000 0.0000 1702.1016 -7469.4555 290.8937 -9171.5572 -7353.0649 300.0206 -488.8722 -429.0820 30256.4616 22.5319 64.6563
ENERGY: 1500000 6.3919 12.8743 14.1400 0.0000 -10575.0558 1405.6503 0.0000 0.0000 1733.6614 -7402.3379 296.2873 -9135.9993 -7364.7491 299.5430 -417.2526 -344.8459 30417.9266 2.5010 43.0513
TCL: Running FEP window   9: Lambda1 0.5999999999999996 Lambda2 0.5499999999999996 [dLambda -0.050000000000000044]
TCL: Setting parameter firsttimestep to 0
TCL: Setting parameter alchLambda to 0.5999999999999996
Info: NONBONDED TABLE R-SQUARED SPACING: 0.0625
Info: NONBONDED TABLE SIZE: 705 POINTS
TCL: Setting parameter alchLambda2 to 0.5499999999999996
Info: NONBONDED TABLE R-SQUARED SPACING: 0.0625
Info: NONBONDED TABLE SIZE: 705 POINTS
TCL: Running for 1500000 steps
ETITLE: TS BOND ANGLE DIHED IMPRP ELECT VDW BOUNDARY MISC KINETIC TOTAL TEMP POTENTIAL TOTALAVG TEMPAVG PRESSURE GPRESSURE VOLUME PRESSAVG GPRESSAVG
ENERGY: 0 6.3919 12.8743 14.1400 0.0000 -10573.8116 1405.2669 0.0000 0.0000 1732.8048 -7402.3337 296.1410 -9135.1385 -7402.3337 296.1410 -439.2815 -352.8180 30417.9266 -439.2815 -352.8180
ENERGY: 300000 5.1892 10.4511 14.3090 0.0000 -10490.3716 1406.4492 0.0000 0.0000 1754.0556 -7299.9175 299.7728 -9053.9731 -7347.1745 300.4913 -108.0742 -1.5916 30175.9125 -289.9226 -195.7671
ENERGY: 600000 7.1362 5.6889 13.8759 0.0000 -10631.6070 1453.0815 0.0000 0.0000 1755.1110 -7396.7135 299.9531 -9151.8245 -7358.0458 301.4360 66.0348 89.7335 30210.7119 -314.9031 -244.6072
ENERGY: 900000 3.7702 12.3718 14.5768 0.0000 -10706.9489 1486.9047 0.0000 0.0000 1769.2977 -7420.0277 302.3777 -9189.3255 -7374.1350 299.8803 413.5383 451.8402 29971.4482 -136.6322 -69.6573
ENERGY: 1200000 3.0163 11.7179 14.6826 0.0000 -10428.0480 1361.3854 0.0000 0.0000 1726.8380 -7310.4077 295.1212 -9037.2458 -7378.2049 299.0867 -452.5901 -412.1797 30620.4785 -92.8347 -30.9310
ENERGY: 1500000 3.9522 9.7490 14.2623 0.0000 -10482.2909 1296.9029 0.0000 0.0000 1745.6517 -7411.7728 298.3365 -9157.4246 -7378.6232 299.4660 -1082.3508 -1014.8179 30214.0661 -81.5357 -17.6378
TCL: Running FEP window  10: Lambda1 0.5499999999999996 Lambda2 0.4999999999999996 [dLambda -0.04999999999999999]
TCL: Setting parameter firsttimestep to 0
TCL: Setting parameter alchLambda to 0.5499999999999996
Info: NONBONDED TABLE R-SQUARED SPACING: 0.0625
Info: NONBONDED TABLE SIZE: 705 POINTS
TCL: Setting parameter alchLambda2 to 0.4999999999999996
Info: NONBONDED TABLE R-SQUARED SPACING: 0.0625
Info: NONBONDED TABLE SIZE: 705 POINTS
TCL: Running for 1500000 steps
ETITLE: TS BOND ANGLE DIHED IMPRP ELECT VDW BOUNDARY MISC KINETIC TOTAL TEMP POTENTIAL TOTALAVG TEMPAVG PRESSURE GPRESSURE VOLUME PRESSAVG GPRESSAVG
ENERGY: 0 3.9522 9.7490 14.2623 0.0000 -10482.0419 1296.6726 0.0000 0.0000 1744.7645 -7412.6414 298.1849 -9157.4059 -7412.6414 298.1849 -1107.8579 -1023.1353 30214.0661 -1107.8579 -1023.1353
ENERGY: 300000 6.4713 12.2558 14.4611 0.0000 -10486.5427 1384.6213 0.0000 0.0000 1744.0403 -7324.6931 298.0611 -9068.7334 -7379.0360 296.8753 -648.5914 -576.9135 30806.4263 -442.5249 -346.1188
ENERGY: 600000 3.3523 14.1247 14.7681 0.0000 -10671.2715 1473.0079 0.0000 0.0000 1737.7552 -7428.2632 296.9870 -9166.0185 -7375.1998 298.6322 285.5292 327.3203 30146.5313 -266.2333 -194.2188
ENERGY: 900000 3.6315 10.2046 16.1305 0.0000 -10552.4144 1446.8003 0.0000 0.0000 1796.1270 -7279.5204 306.9629 -9075.6474 -7357.4764 300.9182 316.7589 378.8631 30293.9351 -156.0288 -84.1825
ENERGY: 1200000 4.5974 13.3797 15.5628 0.0000 -10565.0539 1421.1118 0.0000 0.0000 1755.7093 -7354.6928 300.0554 -9110.4021 -7362.5521 301.2831 257.2494 345.5121 29752.8812 -79.1253 -4.1818
ENERGY: 1500000 1.7338 9.0792 13.9857 0.0000 -10604.6470 1451.5381 0.0000 0.0000 1790.6280 -7337.6821 306.0231 -9128.3101 -7364.1126 300.7022 279.1753 285.5275 30360.1141 -120.6760 -52.0745
TCL: Running FEP window  11: Lambda1 0.4999999999999996 Lambda2 0.4499999999999996 [dLambda -0.04999999999999999]
TCL: Setting parameter firsttimestep to 0
TCL: Setting parameter alchLambda to 0.4999999999999996
Info: NONBONDED TABLE R-SQUARED SPACING: 0.0625
Info: NONBONDED TABLE SIZE: 705 POINTS
TCL: Setting parameter alchLambda2 to 0.4499999999999996
Info: NONBONDED TABLE R-SQUARED SPACING: 0.0625
Info: NONBONDED TABLE SIZE: 705 POINTS
TCL: Running for 1500000 steps
ETITLE: TS BOND ANGLE DIHED IMPRP ELECT VDW BOUNDARY MISC KINETIC TOTAL TEMP POTENTIAL TOTALAVG TEMPAVG PRESSURE GPRESSURE VOLUME PRESSAVG GPRESSAVG
ENERGY: 0 1.7338 9.0792 13.9857 0.0000 -10604.7185 1452.1235 0.0000 0.0000 1789.7476 -7338.0487 305.8726 -9127.7963 -7338.0487 305.8726 207.4535 285.7275 30360.1141 207.4535 285.7275
ENERGY: 300000 4.3920 10.4981 14.3172 0.0000 -10676.9675 1460.5444 0.0000 0.0000 1736.9337 -7450.2821 296.8466 -9187.2158 -7375.9583 301.6595 102.6770 194.5296 29983.7372 332.7724 418.6386
ENERGY: 600000 2.9209 12.8286 13.6928 0.0000 -10602.7222 1442.9104 0.0000 0.0000 1740.0269 -7390.3426 297.3752 -9130.3695 -7379.6637 301.4442 211.3232 229.6615 30233.8853 167.4935 246.8989
ENERGY: 900000 4.3348 8.0413 14.1342 0.0000 -10452.6188 1354.8946 0.0000 0.0000 1794.0394 -7277.1745 306.6061 -9071.2139 -7369.5989 301.1496 -307.0685 -298.4698 30214.4939 164.1835 229.9944
ENERGY: 1200000 3.2452 13.7678 13.4329 0.0000 -10508.1359 1410.4628 0.0000 0.0000 1771.7836 -7295.4436 302.8025 -9067.2272 -7371.0404 300.3346 -35.8866 -34.0307 30226.6917 128.1812 186.5529
ENERGY: 1500000 3.0131 12.0211 15.5941 0.0000 -10575.6788 1503.1646 0.0000 0.0000 1733.2699 -7308.6159 296.2204 -9041.8858 -7366.8458 299.4648 441.9893 515.0091 30773.2213 125.1407 189.5034
TCL: Running FEP window  12: Lambda1 0.4499999999999996 Lambda2 0.39999999999999963 [dLambda -0.04999999999999999]
TCL: Setting parameter firsttimestep to 0
TCL: Setting parameter alchLambda to 0.4499999999999996
Info: NONBONDED TABLE R-SQUARED SPACING: 0.0625
Info: NONBONDED TABLE SIZE: 705 POINTS
TCL: Setting parameter alchLambda2 to 0.39999999999999963
Info: NONBONDED TABLE R-SQUARED SPACING: 0.0625
Info: NONBONDED TABLE SIZE: 705 POINTS
TCL: Running for 1500000 steps
ETITLE: TS BOND ANGLE DIHED IMPRP ELECT VDW BOUNDARY MISC KINETIC TOTAL TEMP POTENTIAL TOTALAVG TEMPAVG PRESSURE GPRESSURE VOLUME PRESSAVG GPRESSAVG
ENERGY: 0 3.0131 12.0211 15.5941 0.0000 -10575.6781 1503.6121 0.0000 0.0000 1732.3863 -7309.0513 296.0694 -9041.4376 -7309.0513 296.0694 431.0295 512.7831 30773.2213 431.0295 512.7831
ENERGY: 300000 1.9255 8.0747 14.6083 0.0000 -10603.9729 1406.9144 0.0000 0.0000 1786.4741 -7385.9759 305.3132 -9172.4500 -7327.8660 301.8757 -299.3611 -200.8370 30211.5087 -336.2664 -262.3390
ENERGY: 600000 6.5295 13.8722 15.0167 0.0000 -10708.7352 1490.0484 0.0000 0.0000 1755.3183 -7427.9501 299.9886 -9183.2684 -7367.9839 300.6095 137.4717 276.8084 30444.2791 -170.4422 -94.0166
ENERGY: 900000 2.3311 10.5684 14.1520 0.0000 -10540.7420 1421.7236 0.0000 0.0000 1765.8631 -7326.1039 301.7907 -9091.9669 -7358.8100 300.6292 289.1316 322.7689 29866.4542 -97.9086 -28.5445
ENERGY: 1200000 4.0710 13.2753 14.5465 0.0000 -10594.0758 1468.0875 0.0000 0.0000 1785.8603 -7308.2352 305.2083 -9094.0954 -7335.3453 301.9631 271.4980 327.0429 30561.6153 -32.0380 35.1143
ENERGY: 1500000 7.2382 11.9375 14.3616 0.0000 -10654.4063 1422.9161 0.0000 0.0000 1744.0485 -7453.9042 298.0625 -9197.9528 -7349.4700 300.9123 -160.6690 -117.7143 29723.3573 -59.7889 10.7979
TCL: Running FEP window  13: Lambda1 0.39999999999999963 Lambda2 0.34999999999999964 [dLambda -0.04999999999999999]
TCL: Setting parameter firsttimestep to 0
TCL: Setting parameter alchLambda to 0.39999999999999963
Info: NONBONDED TABLE R-SQUARED SPACING: 0.0625
Info: NONBONDED TABLE SIZE: 705 POINTS
TCL: Setting parameter alchLambda2 to 0.34999999999999964
Info: NONBONDED TABLE R-SQUARED SPACING: 0.0625
Info: NONBONDED TABLE SIZE: 705 POINTS
TCL: Running for 1500000 steps
ETITLE: TS BOND ANGLE DIHED IMPRP ELECT VDW BOUNDARY MISC KINETIC TOTAL TEMP POTENTIAL TOTALAVG TEMPAVG PRESSURE GPRESSURE VOLUME PRESSAVG GPRESSAVG
ENERGY: 0 7.2382 11.9375 14.3616 0.0000 -10654.4058 1423.4091 0.0000 0.0000 1743.1526 -7454.3067 297.9094 -9197.4593 -7454.3067 297.9094 -200.2017 -118.8808 29723.3573 -200.2017 -118.8808
ENERGY: 300000 3.6259 9.1236 14.4021 0.0000 -10648.0656 1508.5167 0.0000 0.0000 1767.1430 -7345.2543 302.0094 -9112.3973 -7385.2660 300.3456 619.1683 679.9314 30229.2710 -79.5028 -27.4731
ENERGY: 600000 6.8999 8.8195 15.5023 0.0000 -10578.9421 1407.7494 0.0000 0.0000 1762.2934 -7377.6777 301.1806 -9139.9710 -7372.3692 299.7958 -225.8075 -154.6545 30331.8367 -83.3495 -29.0227
ENERGY: 900000 7.5799 12.9516 14.6285 0.0000 -10632.9583 1459.1273 0.0000 0.0000 1721.4126 -7417.2584 294.1940 -9138.6710 -7370.6386 298.0127 414.4130 490.8699 29389.7601 -30.5681 32.7289
ENERGY: 1200000 4.1270 13.3371 14.0864 0.0000 -10598.5248 1404.6797 0.0000 0.0000 1779.2391 -7383.0554 304.0767 -9162.2945 -7358.7680 299.6376 -283.1973 -184.9184 29943.6788 36.1224 100.6690
ENERGY: 1500000 6.0270 10.7165 16.7280 0.0000 -10539.4299 1402.3937 0.0000 0.0000 1736.9407 -7366.6240 296.8478 -9103.5647 -7362.7674 299.2175 -458.6798 -403.9572 30291.0312 14.7297 74.1957
TCL: Running FEP window  14: Lambda1 0.34999999999999964 Lambda2 0.29999999999999966 [dLambda -0.04999999999999999]
TCL: Setting parameter firsttimestep to 0
TCL: Setting parameter alchLambda to 0.34999999999999964
Info: NONBONDED TABLE R-SQUARED SPACING: 0.0625
Info: NONBONDED TABLE SIZE: 705 POINTS
TCL: Setting parameter alchLambda2 to 0.29999999999999966
Info: NONBONDED TABLE R-SQUARED SPACING: 0.0625
Info: NONBONDED TABLE SIZE: 705 POINTS
TCL: Running for 1500000 steps
ETITLE: TS BOND ANGLE DIHED IMPRP ELECT VDW BOUNDARY MISC KINETIC TOTAL TEMP POTENTIAL TOTALAVG TEMPAVG PRESSURE GPRESSURE VOLUME PRESSAVG GPRESSAVG
ENERGY: 0 6.0270 10.7165 16.7280 0.0000 -10539.4293 1402.5463 0.0000 0.0000 1736.1010 -7367.3105 296.7043 -9103.4115 -7367.3105 296.7043 -496.1853 -407.9363 30291.0312 -496.1853 -407.9363
ENERGY: 300000 5.2862 10.7475 13.7608 0.0000 -10552.7404 1439.3732 0.0000 0.0000 1734.2443 -7349.3284 296.3870 -9083.5727 -7343.0424 300.1639 64.5287 71.7176 30355.8849 -34.5647 -0.7243
ENERGY: 600000 4.4736 11.3846 13.7004 0.0000 -10621.8224 1454.2969 0.0000 0.0000 1732.6736 -7405.2934 296.1185 -9137.9670 -7357.6148 300.1578 -223.1765 -111.8016 30692.3673 -68.8581 -22.8702
ENERGY: 900000 7.3595 10.7746 13.7307 0.0000 -10423.2872 1342.7159 0.0000 0.0000 1723.7121 -7324.9945 294.5870 -9048.7067 -7350.7484 300.6870 -424.3275 -314.6847 30107.3362 -173.2101 -118.9252
ENERGY: 1200000 5.4394 12.1579 14.1905 0.0000 -10539.5800 1392.1246 0.0000 0.0000 1761.4727 -7354.1949 301.0404 -9115.6676 -7346.0034 300.9346 -329.3822 -288.4785 30290.1092 -167.8090 -107.5983
ENERGY: 1500000 3.5081 11.7932 13.5718 0.0000 -10455.3542 1379.3184 0.0000 0.0000 1767.2688 -7279.8938 302.0309 -9047.1627 -7335.2560 301.7197 -116.7157 43.5330 30035.9728 -178.1678 -108.7082
TCL: Running FEP window  15: Lambda1 0.29999999999999966 Lambda2 0.24999999999999967 [dLambda -0.04999999999999999]
TCL: Setting parameter firsttimestep to 0
TCL: Setting parameter alchLambda to 0.29999999999999966
Info: NONBONDED TABLE R-SQUARED SPACING: 0.0625
Info: NONBONDED TABLE SIZE: 705 POINTS
TCL: Setting parameter alchLambda2 to 0.24999999999999967
Info: NONBONDED TABLE R-SQUARED SPACING: 0.0625
Info: NONBONDED TABLE SIZE: 705 POINTS
TCL: Running for 1500000 steps
ETITLE: TS BOND ANGLE DIHED IMPRP ELECT VDW BOUNDARY MISC KINETIC TOTAL TEMP POTENTIAL TOTALAVG TEMPAVG PRESSURE GPRESSURE VOLUME PRESSAVG GPRESSAVG
ENERGY: 0 3.5081 11.7932 13.5718 0.0000 -10455.3546 1379.6842 0.0000 0.0000 1766.4233 -7280.3739 301.8865 -9046.7973 -7280.3739 301.8865 -50.4843 41.2844 30035.9728 -50.4843 41.2844
ENERGY: 300000 2.2974 7.2565 15.0930 0.0000 -10614.7470 1420.9801 0.0000 0.0000 1740.7822 -7428.3378 297.5043 -9169.1200 -7343.1925 299.5434 -100.1688 -41.4012 30251.8616 41.6021 119.3010
ENERGY: 600000 2.0465 11.6915 15.0454 0.0000 -10654.4068 1441.6383 0.0000 0.0000 1764.8920 -7419.0930 301.6247 -9183.9851 -7337.1834 302.0527 91.5071 84.5365 30092.1290 -8.4354 42.4414
ENERGY: 900000 8.5918 11.5485 13.9015 0.0000 -10572.4918 1466.4865 0.0000 0.0000 1719.5820 -7352.3816 293.8811 -9071.9636 -7337.1875 302.1844 -5.4442 63.0656 30524.5175 -64.6716 -6.3238
ENERGY: 1200000 5.1335 10.4541 14.4241 0.0000 -10519.6898 1406.9451 0.0000 0.0000 1751.9038 -7330.8294 299.4050 -9082.7332 -7331.0709 302.1069 1.5638 77.9829 29985.4993 -140.1236 -70.1888
ENERGY: 1500000 5.6769 11.1989 14.4020 0.0000 -10648.9593 1558.9152 0.0000 0.0000 1747.4836 -7311.2828 298.6496 -9058.7664 -7327.4377 302.0608 1063.4250 1183.5639 30295.1871 -2.1916 68.6118
TCL: Running FEP window  16: Lambda1 0.24999999999999967 Lambda2 0.19999999999999968 [dLambda -0.04999999999999999]
TCL: Setting parameter firsttimestep to 0
TCL: Setting parameter alchLambda to 0.24999999999999967
Info: NONBONDED TABLE R-SQUARED SPACING: 0.0625
Info: NONBONDED TABLE SIZE: 705 POINTS
TCL: Setting parameter alchLambda2 to 0.19999999999999968
Info: NONBONDED TABLE R-SQUARED SPACING: 0.0625
Info: NONBONDED TABLE SIZE: 705 POINTS
TCL: Running for 1500000 steps
ETITLE: TS BOND ANGLE DIHED IMPRP ELECT VDW BOUNDARY MISC KINETIC TOTAL TEMP POTENTIAL TOTALAVG TEMPAVG PRESSURE GPRESSURE VOLUME PRESSAVG GPRESSAVG
ENERGY: 0 5.6769 11.1989 14.4020 0.0000 -10648.9591 1558.6824 0.0000 0.0000 1746.5909 -7312.4080 298.4970 -9058.9989 -7312.4080 298.4970 1084.2284 1176.3450 30295.1871 1084.2284 1176.3450
ENERGY: 300000 4.2826 9.5262 14.3483 0.0000 -10524.7486 1437.0215 0.0000 0.0000 1769.1724 -7290.3976 302.3563 -9059.5700 -7325.6395 302.0539 304.3194 376.9257 29828.1214 223.8352 322.9599
ENERGY: 600000 5.5269 7.2093 15.5057 0.0000 -10556.3199 1436.7727 0.0000 0.0000 1774.7712 -7316.5340 303.3131 -9091.3052 -7325.2574 300.3449 -321.3677 -148.9039 30495.3155 11.6980 107.3189
ENERGY: 900000 5.0188 12.5855 14.6691 0.0000 -10561.5237 1368.7397 0.0000 0.0000 1776.4228 -7384.0878 303.5954 -9160.5106 -7335.8257 301.3660 -471.6248 -455.2904 30029.6966 -106.7082 -32.4497
ENERGY: 1200000 2.6449 10.5100 14.4440 0.0000 -10472.9292 1348.8801 0.0000 0.0000 1794.4707 -7301.9795 306.6798 -9096.4501 -7334.8197 302.1472 -558.6547 -494.8722 30174.0139 -168.7260 -96.4727
ENERGY: 1500000 4.9146 10.9858 15.0039 0.0000 -10669.8129 1493.4884 0.0000 0.0000 1826.9669 -7318.4534 312.2335 -9145.4203 -7337.1606 302.6254 374.1110 385.2637 30232.2231 -126.7518 -54.0733
TCL: Running FEP window  17: Lambda1 0.19999999999999968 Lambda2 0.1499999999999997 [dLambda -0.04999999999999999]
TCL: Setting parameter firsttimestep to 0
TCL: Setting parameter alchLambda to 0.19999999999999968
Info: NONBONDED TABLE R-SQUARED SPACING: 0.0625
Info: NONBONDED TABLE SIZE: 705 POINTS
TCL: Setting parameter alchLambda2 to 0.1499999999999997
Info: NONBONDED TABLE R-SQUARED SPACING: 0.0625
Info: NONBONDED TABLE SIZE: 705 POINTS
TCL: Running for 1500000 steps
ETITLE: TS BOND ANGLE DIHED IMPRP ELECT VDW BOUNDARY MISC KINETIC TOTAL TEMP POTENTIAL TOTALAVG TEMPAVG PRESSURE GPRESSURE VOLUME PRESSAVG GPRESSAVG
ENERGY: 0 4.9146 10.9858 15.0039 0.0000 -10669.8128 1493.9502 0.0000 0.0000 1826.0959 -7318.8624 312.0847 -9144.9583 -7318.8624 312.0847 300.7230 384.1534 30232.2231 300.7230 384.1534
ENERGY: 300000 2.2032 13.4009 15.2095 0.0000 -10628.6102 1494.1614 0.0000 0.0000 1758.7075 -7344.9277 300.5678 -9103.6352 -7330.2710 303.4893 738.7595 769.0412 29884.2296 423.0559 487.9317
ENERGY: 600000 6.4685 13.4511 13.3370 0.0000 -10457.7769 1365.0051 0.0000 0.0000 1748.1483 -7311.3669 298.7632 -9059.5151 -7350.4293 302.6605 -431.4311 -401.3400 30492.9768 321.2153 377.9362
ENERGY: 900000 10.8469 12.6023 17.2476 0.0000 -10581.6488 1454.4034 0.0000 0.0000 1795.6571 -7290.8913 306.8826 -9086.5485 -7335.7316 302.8625 36.0782 178.1085 30117.0141 244.9533 313.8092
ENERGY: 1200000 5.4931 11.0722 17.3609 0.0000 -10574.5284 1463.7127 0.0000 0.0000 1749.4531 -7327.4363 298.9862 -9076.8894 -7338.9287 301.9789 -7.5511 95.1725 30518.7817 98.3872 168.1416
ENERGY: 1500000 4.2724 11.4086 14.4188 0.0000 -10646.3729 1445.6348 0.0000 0.0000 1738.0931 -7432.5450 297.0447 -9170.6381 -7357.3409 300.0970 -165.3808 -75.3096 30125.2283 39.1144 109.5182
TCL: Running FEP window  18: Lambda1 0.1499999999999997 Lambda2 0.09999999999999969 [dLambda -0.05 ]
TCL: Setting parameter firsttimestep to 0
TCL: Setting parameter alchLambda to 0.1499999999999997
Info: NONBONDED TABLE R-SQUARED SPACING: 0.0625
Info: NONBONDED TABLE SIZE: 705 POINTS
TCL: Setting parameter alchLambda2 to 0.09999999999999969
Info: NONBONDED TABLE R-SQUARED SPACING: 0.0625
Info: NONBONDED TABLE SIZE: 705 POINTS
TCL: Running for 1500000 steps
ETITLE: TS BOND ANGLE DIHED IMPRP ELECT VDW BOUNDARY MISC KINETIC TOTAL TEMP POTENTIAL TOTALAVG TEMPAVG PRESSURE GPRESSURE VOLUME PRESSAVG GPRESSAVG
ENERGY: 0 4.2724 11.4086 14.4188 0.0000 -10646.3752 1445.2719 0.0000 0.0000 1737.2069 -7433.7965 296.8933 -9171.0034 -7433.7965 296.8933 -160.8391 -81.7011 30125.2283 -160.8391 -81.7011
ENERGY: 300000 3.3125 10.5297 13.8972 0.0000 -10608.6452 1509.1232 0.0000 0.0000 1734.5940 -7337.1888 296.4467 -9071.7828 -7368.0482 296.2229 904.2346 973.7734 29746.3102 273.0046 349.3226
ENERGY: 600000 3.7164 10.1951 13.9761 0.0000 -10412.8045 1353.1593 0.0000 0.0000 1734.7208 -7297.0368 296.4684 -9031.7577 -7383.5807 296.9919 -602.9303 -543.8218 30554.8902 38.1104 107.6792
ENERGY: 900000 2.8293 15.8584 14.0146 0.0000 -10635.4291 1480.5620 0.0000 0.0000 1700.2612 -7421.9037 290.5792 -9122.1648 -7386.0473 296.8603 797.0342 791.0875 29389.3431 183.8930 244.2668
ENERGY: 1200000 3.8599 12.4991 15.5917 0.0000 -10672.6386 1461.5285 0.0000 0.0000 1763.5175 -7415.6420 301.3898 -9179.1595 -7383.0900 297.8031 32.2057 115.7433 29732.9159 151.2619 209.5081
ENERGY: 1500000 2.2850 8.3420 14.5389 0.0000 -10581.4940 1466.0081 0.0000 0.0000 1789.6653 -7300.6546 305.8586 -9090.3200 -7373.7673 298.7102 299.5801 356.0046 30388.4354 143.1073 202.8945
TCL: Running FEP window  19: Lambda1 0.09999999999999969 Lambda2 0.049999999999999684 [dLambda -0.05 ]
TCL: Setting parameter firsttimestep to 0
TCL: Setting parameter alchLambda to 0.09999999999999969
Info: NONBONDED TABLE R-SQUARED SPACING: 0.0625
Info: NONBONDED TABLE SIZE: 705 POINTS
TCL: Setting parameter alchLambda2 to 0.049999999999999684
Info: NONBONDED TABLE R-SQUARED SPACING: 0.0625
Info: NONBONDED TABLE SIZE: 705 POINTS
TCL: Running for 1500000 steps
ETITLE: TS BOND ANGLE DIHED IMPRP ELECT VDW BOUNDARY MISC KINETIC TOTAL TEMP POTENTIAL TOTALAVG TEMPAVG PRESSURE GPRESSURE VOLUME PRESSAVG GPRESSAVG
ENERGY: 0 2.2850 8.3420 14.5389 0.0000 -10581.4936 1465.8075 0.0000 0.0000 1788.7847 -7301.7355 305.7081 -9090.5201 -7301.7355 305.7081 271.3093 358.5684 30388.4354 271.3093 358.5684
ENERGY: 300000 5.9307 10.7104 14.5652 0.0000 -10623.7470 1466.0924 0.0000 0.0000 1757.9236 -7368.5247 300.4338 -9126.4484 -7352.6272 302.6638 88.6793 162.0058 30108.9690 226.2441 281.1058
ENERGY: 600000 1.9166 9.9762 14.4405 0.0000 -10576.6723 1401.0690 0.0000 0.0000 1755.4058 -7393.8641 300.0035 -9149.2699 -7370.1628 300.7107 -409.3748 -351.2749 30368.8206 29.0113 67.7958
ENERGY: 900000 1.3031 8.6443 15.0180 0.0000 -10456.0203 1360.8148 0.0000 0.0000 1705.9136 -7364.3265 291.5452 -9070.2401 -7367.8445 298.7927 -361.6706 -283.0500 29969.9475 -68.3751 -19.0284
ENERGY: 1200000 6.8792 17.8035 14.0828 0.0000 -10628.0594 1392.9657 0.0000 0.0000 1771.6868 -7424.6414 302.7860 -9196.3283 -7370.9536 299.8115 -754.3472 -672.0476 30034.1578 -26.7349 30.1641
ENERGY: 1500000 4.5703 7.4427 14.8278 0.0000 -10468.9625 1360.6752 0.0000 0.0000 1756.0222 -7325.4244 300.1089 -9081.4465 -7368.4984 299.7863 -419.6511 -385.0485 29970.0485 -94.6229 -41.3346
TCL: Running FEP window  20: Lambda1 0.049999999999999684 Lambda2 0.0    [dLambda -0.049999999999999684]
TCL: Setting parameter firsttimestep to 0
TCL: Setting parameter alchLambda to 0.049999999999999684
Info: NONBONDED TABLE R-SQUARED SPACING: 0.0625
Info: NONBONDED TABLE SIZE: 705 POINTS
TCL: Setting parameter alchLambda2 to 0.0
Info: NONBONDED TABLE R-SQUARED SPACING: 0.0625
Info: NONBONDED TABLE SIZE: 705 POINTS
TCL: Running for 1500000 steps
ETITLE: TS BOND ANGLE DIHED IMPRP ELECT VDW BOUNDARY MISC KINETIC TOTAL TEMP POTENTIAL TOTALAVG TEMPAVG PRESSURE GPRESSURE VOLUME PRESSAVG GPRESSAVG
ENERGY: 0 4.5703 7.4427 14.8278 0.0000 -10468.9624 1360.0178 0.0000 0.0000 1755.1355 -7326.9684 299.9573 -9082.1039 -7326.9684 299.9573 -470.9504 -391.0570 29970.0485 -470.9504 -391.0570
ENERGY: 300000 1.5319 18.7699 14.3838 0.0000 -10555.7624 1460.6692 0.0000 0.0000 1779.1088 -7281.2988 304.0544 -9060.4076 -7339.3093 300.2268 424.6895 591.2641 29912.8459 -153.6791 -69.6153
ENERGY: 600000 1.7309 8.9166 14.7182 0.0000 -10524.1708 1353.5385 0.0000 0.0000 1806.1831 -7339.0834 308.6815 -9145.2665 -7353.6006 301.3428 -879.3804 -768.5562 30360.3209 -237.4056 -160.3537
ENERGY: 900000 5.4050 11.2276 14.8943 0.0000 -10513.8381 1367.9212 0.0000 0.0000 1756.4135 -7357.9764 300.1757 -9114.3899 -7352.7338 301.0809 -589.3656 -488.5066 30090.5702 -125.2087 -56.7132
ENERGY: 1200000 1.7955 12.4255 15.6130 0.0000 -10457.3595 1339.7435 0.0000 0.0000 1754.6012 -7333.1807 299.8660 -9087.7819 -7361.9818 299.6639 -787.6506 -734.4262 30419.9768 -199.1363 -132.9985
ENERGY: 1500000 7.2374 8.0967 14.6419 0.0000 -10592.8327 1423.6158 0.0000 0.0000 1782.5745 -7356.6665 304.6467 -9139.2410 -7354.0163 300.4396 -347.9830 -199.5485 30257.6958 -219.3240 -144.3707
TCL: Exiting due to exit command.
