Info: SIMULATION PARAMETERS:
Info: TIMESTEP               2
Info: NUMBER OF STEPS        0
Info: STEPS PER CYCLE        10
Info: PERIODIC CELL BASIS 1  30.2939 0 0
Info: PERIODIC CELL BASIS 2  0 30.3408 0
Info: PERIODIC CELL BASIS 3  0 0 32.94
Info: PERIODIC CELL CENTER   0 0 0
Info: WRAPPING WATERS AROUND PERIODIC BOUNDARIES ON OUTPUT.
Info: WRAPPING ALL CLUSTERS AROUND PERIODIC BOUNDARIES ON OUTPUT.
Info: FIRST LDB TIMESTEP     50
Info: LAST LDB TIMESTEP     -1
Info: HOM BACKGROUND SCALING 1
Info: PME BACKGROUND SCALING 1
Info: MIN ATOMS PER PATCH    40
Info: EMPTY PATCH LOAD       40 ATOMS
Info: VELOCITY FILE          mobley_1881249_equil.vel
Info: CENTER OF MASS MOVING INITIALLY? NO
Info: DIELECTRIC             1
Info: EXCLUDE                SCALED ONE-FOUR
Info: 1-4 ELECTROSTATICS SCALED BY 0.833333
Info: MODIFIED 1-4 VDW PARAMETERS WILL BE USED
Info: DCD FILENAME           mobley_1881249_prod.dcd
Info: DCD FREQUENCY          100000
Info: DCD FIRST STEP         100000
Info: DCD FILE WILL CONTAIN UNIT CELL DATA
Info: XST FILENAME           mobley_1881249_prod.xst
Info: XST FREQUENCY          100000
Info: NO VELOCITY DCD OUTPUT
Info: NO FORCE DCD OUTPUT
Info: OUTPUT FILENAME        mobley_1881249_prod
Info: BINARY OUTPUT FILES WILL BE USED
Info: RESTART FILENAME       mobley_1881249_prod.restart
Info: RESTART FREQUENCY      100000
Info: BINARY RESTART FILES WILL BE USED
Info: CUTOFF                 9
Info: PAIRLIST DISTANCE      11
Info: PAIRLIST SHRINK RATE   0.01
Info: PAIRLIST GROW RATE     0.01
Info: PAIRLIST TRIGGER       0.3
Info: PAIRLISTS PER CYCLE    2
Info: PAIRLISTS ENABLED
Info: MARGIN                 2
Info: HYDROGEN GROUP CUTOFF  2.5
Info: PATCH DIMENSION        15.5
Info: ENERGY OUTPUT STEPS    100000
Info: ENERGY EVALUATION STEPS    100000
Info: OUTPUT ENERGY PRECISION 4
Info: CROSSTERM ENERGY INCLUDED IN DIHEDRAL
Info: TIMING OUTPUT STEPS    1000000
Info: PRESSURE OUTPUT STEPS  100000
Info: ALCHEMICAL FEP ON
Info: FEP CURRENT LAMBDA VALUE     1
Info: FEP COMPARISON LAMBDA VALUE  0.95
Info: FEP INTRA-ALCHEMICAL NON-BONDED INTERACTIONS WILL BE RETAINED
Info: FEP INTRA-ALCHEMICAL BONDED INTERACTIONS WILL BE RETAINED
Info: FEP VDW SHIFTING COEFFICIENT 5
Info: FEP ELEC. ACTIVE FOR ANNIHILATED PARTICLES BETWEEN LAMBDA = 0 AND LAMBDA = 0.5
Info: FEP ELEC. ACTIVE FOR EXNIHILATED PARTICLES BETWEEN LAMBDA = 0.5 AND LAMBDA = 1
Info: FEP VDW ACTIVE FOR ANNIHILATED PARTICLES BETWEEN LAMBDA = 0 AND LAMBDA = 1
Info: FEP VDW ACTIVE FOR EXNIHILATED PARTICLES BETWEEN LAMBDA = 0 AND LAMBDA = 1
Info: FEP BOND ACTIVE FOR ANNIHILATED PARTICLES BETWEEN LAMBDA = 1 AND LAMBDA = 1
Info: FEP BOND ACTIVE FOR EXNIHILATED PARTICLES BETWEEN LAMBDA = 0 AND LAMBDA = 0
Info: LANGEVIN DYNAMICS ACTIVE
Info: LANGEVIN TEMPERATURE   300
Info: LANGEVIN USING BBK INTEGRATOR
Info: LANGEVIN DAMPING COEFFICIENT IS 1 INVERSE PS
Info: LANGEVIN DYNAMICS APPLIED TO HYDROGENS
Info: LANGEVIN PISTON PRESSURE CONTROL ACTIVE
Info:        TARGET PRESSURE IS 1.01325 BAR
Info:     OSCILLATION PERIOD IS 50 FS
Info:             DECAY TIME IS 25 FS
Info:     PISTON TEMPERATURE IS 300 K
Info:       PRESSURE CONTROL IS GROUP-BASED
Info:    INITIAL STRAIN RATE IS 2.15344e-05 2.15344e-05 2.15344e-05
Info:       CELL FLUCTUATION IS ISOTROPIC
Info: PARTICLE MESH EWALD (PME) ACTIVE
Info: PME TOLERANCE               1e-06
Info: PME EWALD COEFFICIENT       0.348832
Info: PME INTERPOLATION ORDER     4
Info: PME GRID DIMENSIONS         32 32 36
Info: PME MAXIMUM GRID SPACING    1
Info: PME CALCULATION WILL BE PERFORMED ON GPU
Info: FULL ELECTROSTATIC EVALUATION FREQUENCY      2
Info: USING VERLET I (r-RESPA) MTS SCHEME.
Info: C1 SPLITTING OF LONG RANGE ELECTROSTATICS
Info: PLACING ATOMS IN PATCHES BY HYDROGEN GROUPS
Info: RIGID BONDS TO HYDROGEN : ALL
Info:         ERROR TOLERANCE : 1e-08
Info:          MAX ITERATIONS : 100
Info: RIGID WATER USING SETTLE ALGORITHM
Info: RANDOM NUMBER SEED     1743841127
Info: USE HYDROGEN BONDS?    NO
Info: Using AMBER format force field!
Info: AMBER PARM FILE        mobley_1881249.prmtop
Info: COORDINATE PDB         mobley_1881249.pdb
Info: Exclusions will be read from PARM file!
Info: SCNB (VDW SCALING)     2
Info: USING ARITHMETIC MEAN TO COMBINE L-J SIGMA PARAMETERS
Info: BINARY COORDINATES     mobley_1881249_equil.coor
Info: SUMMARY OF PARAMETERS:
Info: 6 BONDS
Info: 7 ANGLES
Info:   7 HARMONIC
Info:   0 COSINE-BASED
Info: 8 DIHEDRAL
Info: 0 IMPROPER
Info: 0 CROSSTERM
Info: 0 VDW
Info: 21 VDW_PAIRS
Info: 0 NBTHOLE_PAIRS
Info: To read alchdata from file: mobley_1881249.pdb
Info: To read alchflag data from column: 5
Info: STRUCTURE SUMMARY:
Info: 2962 ATOMS
Info: 2961 BONDS
Info: 27 ANGLES
Info: 41 DIHEDRALS
Info: 0 IMPROPERS
Info: 0 CROSSTERMS
Info: 3018 EXCLUSIONS
Info: 2956 RIGID BONDS
Info: ALCH: 0 ATOMS TO DISAPPEAR IN FINAL STATE
Info: ALCH: 16 ATOMS TO APPEAR IN FINAL STATE
Info: 5930 DEGREES OF FREEDOM
Info: 988 HYDROGEN GROUPS
Info: 4 ATOMS IN LARGEST HYDROGEN GROUP
Info: 988 MIGRATION GROUPS
Info: 4 ATOMS IN LARGEST MIGRATION GROUP
Info: TOTAL MASS = 17777.8 amu
Info: TOTAL CHARGE = -0.000200018 e
Info: MASS DENSITY = 0.975062 g/cm^3
Info: ATOM DENSITY = 0.0978316 atoms/A^3
Info: ADDED 0 IMPLICIT EXCLUSIONS
Info: NONBONDED TABLE R-SQUARED SPACING: 0.0625
Info: NONBONDED TABLE SIZE: 705 POINTS
Info: REMOVING COM VELOCITY 0.100667 0.229461 -0.044215
Info: Use 3D box decompostion in PME FFT.
Info: Updated CUDA force table with 4096 elements.
Info: Updated CUDA LJ table with 6 x 6 elements.
Info: Found 19 unique exclusion lists needing 44 bytes
TCL: Running for 1500000 steps
ETITLE: TS BOND ANGLE DIHED IMPRP ELECT VDW BOUNDARY MISC KINETIC TOTAL TEMP POTENTIAL TOTALAVG TEMPAVG PRESSURE GPRESSURE VOLUME PRESSAVG GPRESSAVG
ENERGY: 0 0.7078 7.1096 5.2117 0.0000 -10829.2836 1460.5064 0.0000 0.0000 1820.9758 -7534.7723 309.0579 -9355.7482 -7534.7723 309.0579 62.7585 143.0254 30276.5211 62.7585 143.0254
ENERGY: 300000 1.4153 6.9250 4.3721 0.0000 -10967.3182 1524.4372 0.0000 0.0000 1753.0333 -7677.1354 297.5266 -9430.1687 -7563.4460 300.6125 319.4192 356.3234 30525.9620 141.9016 198.2454
ENERGY: 600000 1.3044 4.2205 4.9332 0.0000 -10678.8526 1380.0078 0.0000 0.0000 1775.1457 -7513.2411 301.2796 -9288.3868 -7560.0171 301.4470 -382.7058 -310.3926 30382.4158 36.8763 91.1273
ENERGY: 900000 1.4336 10.6530 5.0681 0.0000 -10790.8016 1415.4873 0.0000 0.0000 1779.3567 -7578.8030 301.9943 -9358.1596 -7550.0078 301.5752 -433.8284 -365.3753 30407.9726 70.2798 127.9789
ENERGY: 1200000 0.9339 10.6892 4.4288 0.0000 -10674.1816 1458.7514 0.0000 0.0000 1758.8899 -7440.4883 298.5206 -9199.3782 -7536.4031 301.2004 355.9198 440.4853 30624.4836 138.7729 202.5531
ENERGY: 1500000 1.4627 7.9604 4.0029 0.0000 -10788.4667 1482.6126 0.0000 0.0000 1818.5019 -7473.9262 308.6380 -9292.4281 -7537.9909 301.0290 663.1680 702.0509 30088.8386 162.2057 224.1233
TCL: Running FEP window   2: Lambda1 0.95   Lambda2 0.8999999999999999 [dLambda -0.050000000000000044]
TCL: Setting parameter firsttimestep to 0
TCL: Setting parameter alchLambda to 0.95
Info: NONBONDED TABLE R-SQUARED SPACING: 0.0625
Info: NONBONDED TABLE SIZE: 705 POINTS
TCL: Setting parameter alchLambda2 to 0.8999999999999999
Info: NONBONDED TABLE R-SQUARED SPACING: 0.0625
Info: NONBONDED TABLE SIZE: 705 POINTS
TCL: Running for 1500000 steps
ETITLE: TS BOND ANGLE DIHED IMPRP ELECT VDW BOUNDARY MISC KINETIC TOTAL TEMP POTENTIAL TOTALAVG TEMPAVG PRESSURE GPRESSURE VOLUME PRESSAVG GPRESSAVG
ENERGY: 0 1.4627 7.9604 4.0029 0.0000 -10787.1706 1482.9213 0.0000 0.0000 1817.6575 -7473.1658 308.4947 -9290.8232 -7473.1658 308.4947 621.4144 696.2996 30088.8386 621.4144 696.2996
ENERGY: 300000 0.9795 6.4334 4.7898 0.0000 -10881.7280 1561.8206 0.0000 0.0000 1712.2624 -7595.4423 290.6070 -9307.7047 -7548.7642 299.1556 889.6987 994.9885 30357.3124 216.4157 294.3537
ENERGY: 600000 1.3835 5.8765 4.5144 0.0000 -10641.8456 1437.8002 0.0000 0.0000 1816.3472 -7375.9238 308.2723 -9192.2710 -7507.4425 299.4613 356.5513 470.6020 30535.2156 46.2058 134.1916
ENERGY: 900000 0.5313 7.6188 4.5508 0.0000 -10739.4967 1410.2665 0.0000 0.0000 1788.7327 -7527.7967 303.5856 -9316.5294 -7524.0115 299.3970 -169.8085 -98.1513 30347.2929 62.1975 147.8947
ENERGY: 1200000 3.1319 5.7784 7.0605 0.0000 -10912.5542 1477.8073 0.0000 0.0000 1747.5816 -7671.1945 296.6014 -9418.7762 -7535.3345 299.2741 -54.8087 65.3646 30276.3423 12.0854 95.6049
ENERGY: 1500000 2.7953 4.1625 4.2833 0.0000 -10607.0817 1366.6279 0.0000 0.0000 1776.7047 -7452.5079 301.5442 -9229.2126 -7534.5611 298.8578 -666.7567 -625.6771 30987.4193 63.2047 142.4045
TCL: Running FEP window   3: Lambda1 0.8999999999999999 Lambda2 0.8499999999999999 [dLambda -0.050000000000000044]
TCL: Setting parameter firsttimestep to 0
TCL: Setting parameter alchLambda to 0.8999999999999999
Info: NONBONDED TABLE R-SQUARED SPACING: 0.0625
Info: NONBONDED TABLE SIZE: 705 POINTS
TCL: Setting parameter alchLambda2 to 0.8499999999999999
Info: NONBONDED TABLE R-SQUARED SPACING: 0.0625
Info: NONBONDED TABLE SIZE: 705 POINTS
TCL: Running for 1500000 steps
ETITLE: TS BOND ANGLE DIHED IMPRP ELECT VDW BOUNDARY MISC KINETIC TOTAL TEMP POTENTIAL TOTALAVG TEMPAVG PRESSURE GPRESSURE VOLUME PRESSAVG GPRESSAVG
ENERGY: 0 2.7953 4.1625 4.2833 0.0000 -10605.4792 1366.0457 0.0000 0.0000 1775.8390 -7452.3534 301.3972 -9228.1923 -7452.3534 301.3972 -725.2436 -641.6922 30987.4193 -725.2436 -641.6922
ENERGY: 300000 0.3965 6.4129 4.8620 0.0000 -10755.4682 1432.7184 0.0000 0.0000 1842.0106 -7469.0679 312.6280 -9311.0785 -7499.5023 302.6290 -192.3162 -175.2465 30788.2956 -256.4980 -188.3942
ENERGY: 600000 4.9053 8.7462 5.6786 0.0000 -10811.7194 1407.2907 0.0000 0.0000 1808.0477 -7577.0510 306.8637 -9385.0987 -7493.6290 302.7230 -449.6158 -357.8515 30446.1955 -134.0129 -61.8307
ENERGY: 900000 2.1096 5.6711 3.7702 0.0000 -10616.9161 1386.5380 0.0000 0.0000 1790.7815 -7428.0458 303.9333 -9218.8273 -7490.1330 301.5043 -183.6916 -166.3667 30886.7965 -85.6408 -20.6479
ENERGY: 1200000 0.8437 5.7841 4.9003 0.0000 -10802.5201 1475.9485 0.0000 0.0000 1712.2199 -7602.8236 290.5998 -9315.0436 -7506.0698 300.8859 280.6839 333.9975 30279.3723 -73.3127 -7.6693
ENERGY: 1500000 2.6842 8.1827 5.3631 0.0000 -10847.1835 1541.8707 0.0000 0.0000 1735.0648 -7554.0181 294.4770 -9289.0828 -7514.1988 300.5426 676.1770 698.5642 30530.5474 -20.4342 44.0692
TCL: Running FEP window   4: Lambda1 0.8499999999999999 Lambda2 0.7999999999999998 [dLambda -0.050000000000000044]
TCL: Setting parameter firsttimestep to 0
TCL: Setting parameter alchLambda to 0.8499999999999999
Info: NONBONDED TABLE R-SQUARED SPACING: 0.0625
Info: NONBONDED TABLE SIZE: 705 POINTS
TCL: Setting parameter alchLambda2 to 0.7999999999999998
Info: NONBONDED TABLE R-SQUARED SPACING: 0.0625
Info: NONBONDED TABLE SIZE: 705 POINTS
TCL: Running for 1500000 steps
ETITLE: TS BOND ANGLE DIHED IMPRP ELECT VDW BOUNDARY MISC KINETIC TOTAL TEMP POTENTIAL TOTALAVG TEMPAVG PRESSURE GPRESSURE VOLUME PRESSAVG GPRESSAVG
ENERGY: 0 2.6842 8.1827 5.3631 0.0000 -10846.3369 1541.9589 0.0000 0.0000 1734.1953 -7553.9526 294.3294 -9288.1479 -7553.9526 294.3294 600.1002 689.2141 30530.5474 600.1002 689.2141
ENERGY: 300000 0.7829 4.0455 4.2012 0.0000 -10757.0143 1475.3357 0.0000 0.0000 1829.8344 -7442.8146 310.5614 -9272.6490 -7471.1139 300.0608 567.6898 671.4003 30184.2245 278.2854 360.6353
ENERGY: 600000 1.4854 7.5538 4.2122 0.0000 -10826.9244 1435.3997 0.0000 0.0000 1777.2136 -7601.0597 301.6305 -9378.2733 -7497.3639 301.6783 24.6669 -25.3208 30477.6371 101.0628 166.0384
ENERGY: 900000 1.2509 6.7223 3.6664 0.0000 -10609.5801 1412.6046 0.0000 0.0000 1777.4427 -7407.8931 301.6694 -9185.3358 -7489.1272 301.5379 163.2384 185.0610 30570.6688 23.9070 84.2742
ENERGY: 1200000 1.6740 5.3102 5.1530 0.0000 -10785.8913 1389.9105 0.0000 0.0000 1799.7219 -7584.1217 305.4507 -9383.8436 -7506.2953 301.4970 -680.7190 -626.5129 30502.4597 56.6505 117.8317
ENERGY: 1500000 1.5902 8.5136 4.9553 0.0000 -10800.5206 1458.5022 0.0000 0.0000 1831.6545 -7495.3047 310.8703 -9326.9592 -7505.5994 301.9329 303.8175 323.7177 30251.6174 79.2881 135.3352
TCL: Running FEP window   5: Lambda1 0.7999999999999998 Lambda2 0.7499999999999998 [dLambda -0.050000000000000044]
TCL: Setting parameter firsttimestep to 0
TCL: Setting parameter alchLambda to 0.7999999999999998
Info: NONBONDED TABLE R-SQUARED SPACING: 0.0625
Info: NONBONDED TABLE SIZE: 705 POINTS
TCL: Setting parameter alchLambda2 to 0.7499999999999998
Info: NONBONDED TABLE R-SQUARED SPACING: 0.0625
Info: NONBONDED TABLE SIZE: 705 POINTS
TCL: Running for 1500000 steps
ETITLE: TS BOND ANGLE DIHED IMPRP ELECT VDW BOUNDARY MISC KINETIC TOTAL TEMP POTENTIAL TOTALAVG TEMPAVG PRESSURE GPRESSURE VOLUME PRESSAVG GPRESSAVG
ENERGY: 0 1.5902 8.5136 4.9553 0.0000 -10799.0345 1458.2893 0.0000 0.0000 1830.7581 -7494.9280 310.7182 -9325.6861 -7494.9280 310.7182 216.3646 313.6877 30251.6174 216.3646 313.6877
ENERGY: 300000 0.5070 10.6301 6.0062 0.0000 -10748.5114 1403.3793 0.0000 0.0000 1824.6010 -7503.3879 309.6732 -9327.9889 -7500.9669 305.7317 -208.4018 -180.7675 30346.7653 106.4349 159.4425
ENERGY: 600000 1.6966 4.0183 4.5847 0.0000 -10794.3857 1432.7582 0.0000 0.0000 1798.0848 -7553.2430 305.1728 -9351.3278 -7500.8603 304.2852 -393.7400 -349.4952 30863.1948 -86.9148 -29.8915
ENERGY: 900000 0.7935 9.0253 4.9996 0.0000 -10534.0423 1363.6344 0.0000 0.0000 1745.1667 -7410.4228 296.1915 -9155.5895 -7506.1936 301.4969 -755.4617 -619.9766 31424.5118 -162.1124 -96.5440
ENERGY: 1200000 2.9808 5.4164 6.3724 0.0000 -10787.7947 1418.1679 0.0000 0.0000 1773.9657 -7580.8916 301.0793 -9354.8573 -7520.2230 301.0887 -190.5585 -134.7358 30066.6917 -116.7545 -52.7566
ENERGY: 1500000 1.3548 5.7736 4.5463 0.0000 -10814.6990 1455.0481 0.0000 0.0000 1741.4330 -7606.5433 295.5578 -9347.9763 -7526.3188 300.1192 -166.1977 -91.3077 30303.9344 -160.4971 -100.0532
TCL: Running FEP window   6: Lambda1 0.7499999999999998 Lambda2 0.6999999999999997 [dLambda -0.050000000000000044]
TCL: Setting parameter firsttimestep to 0
TCL: Setting parameter alchLambda to 0.7499999999999998
Info: NONBONDED TABLE R-SQUARED SPACING: 0.0625
Info: NONBONDED TABLE SIZE: 705 POINTS
TCL: Setting parameter alchLambda2 to 0.6999999999999997
Info: NONBONDED TABLE R-SQUARED SPACING: 0.0625
Info: NONBONDED TABLE SIZE: 705 POINTS
TCL: Running for 1500000 steps
ETITLE: TS BOND ANGLE DIHED IMPRP ELECT VDW BOUNDARY MISC KINETIC TOTAL TEMP POTENTIAL TOTALAVG TEMPAVG PRESSURE GPRESSURE VOLUME PRESSAVG GPRESSAVG
ENERGY: 0 1.3548 5.7736 4.5463 0.0000 -10814.0032 1454.9232 0.0000 0.0000 1740.5298 -7606.8755 295.4045 -9347.4053 -7606.8755 295.4045 -169.5417 -98.8002 30303.9344 -169.5417 -98.8002
ENERGY: 300000 1.5407 5.6353 3.4168 0.0000 -10696.7986 1394.8627 0.0000 0.0000 1730.7338 -7560.6093 293.7419 -9291.3431 -7569.4024 297.2885 -384.6942 -290.4477 30270.7422 -139.3165 -82.5958
ENERGY: 600000 3.2661 8.0969 6.2436 0.0000 -10645.5453 1358.3823 0.0000 0.0000 1711.3358 -7558.2206 290.4497 -9269.5564 -7551.3365 298.5749 -348.8438 -287.3508 30340.5651 -253.9434 -183.9637
ENERGY: 900000 2.2584 7.4520 4.3138 0.0000 -10673.6587 1427.3345 0.0000 0.0000 1782.8502 -7449.4498 302.5872 -9232.3000 -7520.6302 298.6290 -159.6140 -99.5550 30921.0273 -243.1801 -164.4576
ENERGY: 1200000 1.9078 6.8712 3.9670 0.0000 -10715.5978 1404.6653 0.0000 0.0000 1728.6021 -7569.5843 293.3801 -9298.1864 -7509.3120 298.8844 -155.5012 -40.2465 29969.0971 -264.3667 -185.6392
ENERGY: 1500000 2.2003 10.6742 4.6434 0.0000 -10680.3299 1375.8556 0.0000 0.0000 1727.0993 -7559.8571 293.1251 -9286.9564 -7506.8651 298.1794 -812.4429 -708.9988 30961.6427 -325.3885 -245.4145
TCL: Running FEP window   7: Lambda1 0.6999999999999997 Lambda2 0.6499999999999997 [dLambda -0.050000000000000044]
TCL: Setting parameter firsttimestep to 0
TCL: Setting parameter alchLambda to 0.6999999999999997
Info: NONBONDED TABLE R-SQUARED SPACING: 0.0625
Info: NONBONDED TABLE SIZE: 705 POINTS
TCL: Setting parameter alchLambda2 to 0.6499999999999997
Info: NONBONDED TABLE R-SQUARED SPACING: 0.0625
Info: NONBONDED TABLE SIZE: 705 POINTS
TCL: Running for 1500000 steps
ETITLE: TS BOND ANGLE DIHED IMPRP ELECT VDW BOUNDARY MISC KINETIC TOTAL TEMP POTENTIAL TOTALAVG TEMPAVG PRESSURE GPRESSURE VOLUME PRESSAVG GPRESSAVG
ENERGY: 0 2.2003 10.6742 4.6434 0.0000 -10679.9771 1375.1623 0.0000 0.0000 1726.1617 -7561.1352 292.9660 -9287.2969 -7561.1352 292.9660 -804.6336 -727.0162 30961.6427 -804.6336 -727.0162
ENERGY: 300000 1.8001 8.8730 4.3430 0.0000 -10723.5425 1421.3080 0.0000 0.0000 1725.7444 -7561.4741 292.8951 -9287.2184 -7564.3158 294.0654 -173.1252 -84.6119 30594.6036 -287.2226 -233.1603
ENERGY: 600000 1.3705 7.9091 5.4391 0.0000 -10867.3786 1589.7238 0.0000 0.0000 1735.6101 -7527.3260 294.5696 -9262.9361 -7533.5756 297.7930 1159.6811 1218.1378 30150.9105 28.3348 86.6510
ENERGY: 900000 2.0256 5.5758 4.4647 0.0000 -10699.1986 1389.9001 0.0000 0.0000 1780.0225 -7517.2100 302.1073 -9297.2324 -7522.9137 297.8555 -260.6191 -241.9728 30028.2029 18.4818 76.3028
ENERGY: 1200000 0.5542 4.9664 4.2698 0.0000 -10787.4566 1478.5183 0.0000 0.0000 1795.4496 -7503.6983 304.7256 -9299.1479 -7528.4326 298.0121 224.9628 317.0806 30453.8144 15.6425 72.4031
ENERGY: 1500000 0.5823 7.2232 3.8966 0.0000 -10723.2171 1440.1566 0.0000 0.0000 1733.6262 -7537.7321 294.2328 -9271.3583 -7525.9224 298.2287 117.8124 163.1042 30160.6123 -16.0979 43.3821
TCL: Running FEP window   8: Lambda1 0.6499999999999997 Lambda2 0.5999999999999996 [dLambda -0.050000000000000044]
TCL: Setting parameter firsttimestep to 0
TCL: Setting parameter alchLambda to 0.6499999999999997
Info: NONBONDED TABLE R-SQUARED SPACING: 0.0625
Info: NONBONDED TABLE SIZE: 705 POINTS
TCL: Setting parameter alchLambda2 to 0.5999999999999996
Info: NONBONDED TABLE R-SQUARED SPACING: 0.0625
Info: NONBONDED TABLE SIZE: 705 POINTS
TCL: Running for 1500000 steps
ETITLE: TS BOND ANGLE DIHED IMPRP ELECT VDW BOUNDARY MISC KINETIC TOTAL TEMP POTENTIAL TOTALAVG TEMPAVG PRESSURE GPRESSURE VOLUME PRESSAVG GPRESSAVG
ENERGY: 0 0.5823 7.2232 3.8966 0.0000 -10722.4999 1440.2254 0.0000 0.0000 1732.7637 -7537.8086 294.0865 -9270.5723 -7537.8086 294.0865 85.0092 155.8961 30160.6123 85.0092 155.8961
ENERGY: 300000 0.6922 5.2275 5.9918 0.0000 -10850.6985 1499.9779 0.0000 0.0000 1827.5029 -7511.3061 310.1657 -9338.8090 -7508.7974 301.4263 285.2611 336.4467 30454.2805 115.1061 174.2119
ENERGY: 600000 1.5859 4.8836 3.6277 0.0000 -10651.2910 1378.9841 0.0000 0.0000 1795.7168 -7466.4929 304.7709 -9262.2097 -7517.7544 300.8238 -255.3474 -239.7456 30213.9039 111.3088 156.5633
ENERGY: 900000 1.5860 12.2026 4.7342 0.0000 -10769.7026 1480.5829 0.0000 0.0000 1790.4547 -7480.1422 303.8778 -9270.5969 -7501.9515 302.4375 249.1559 290.3821 30495.6546 91.5850 139.0048
ENERGY: 1200000 4.1572 6.8207 5.7938 0.0000 -10760.8916 1467.1167 0.0000 0.0000 1816.7507 -7460.2526 308.3408 -9277.0033 -7496.3155 302.8234 277.5522 346.9422 30488.0836 -26.5448 25.9154
ENERGY: 1500000 1.1500 3.9679 4.5832 0.0000 -10719.5821 1426.2261 0.0000 0.0000 1769.9394 -7513.7155 300.3960 -9283.6549 -7502.7259 302.5055 -296.8215 -270.4844 30808.7424 -100.7288 -51.5332
TCL: Running FEP window   9: Lambda1 0.5999999999999996 Lambda2 0.5499999999999996 [dLambda -0.050000000000000044]
TCL: Setting parameter firsttimestep to 0
TCL: Setting parameter alchLambda to 0.5999999999999996
Info: NONBONDED TABLE R-SQUARED SPACING: 0.0625
Info: NONBONDED TABLE SIZE: 705 POINTS
TCL: Setting parameter alchLambda2 to 0.5499999999999996
Info: NONBONDED TABLE R-SQUARED SPACING: 0.0625
Info: NONBONDED TABLE SIZE: 705 POINTS
TCL: Running for 1500000 steps
ETITLE: TS BOND ANGLE DIHED IMPRP ELECT VDW BOUNDARY MISC KINETIC TOTAL TEMP POTENTIAL TOTALAVG TEMPAVG PRESSURE GPRESSURE VOLUME PRESSAVG GPRESSAVG
ENERGY: 0 1.1500 3.9679 4.5832 0.0000 -10719.7829 1426.0484 0.0000 0.0000 1769.0330 -7515.0004 300.2421 -9284.0334 -7515.0004 300.2421 -363.0039 -282.9330 30808.7424 -363.0039 -282.9330
ENERGY: 300000 4.3215 7.3276 4.2251 0.0000 -10773.2373 1424.0134 0.0000 0.0000 1760.1683 -7573.1814 298.7376 -9333.3497 -7524.7487 299.6290 -113.6444 -18.2253 30102.0106 -21.7942 61.5662
ENERGY: 600000 1.0284 5.2560 4.6703 0.0000 -10684.4340 1431.7295 0.0000 0.0000 1750.5007 -7491.2491 297.0968 -9241.7498 -7515.1299 299.1522 -22.2277 56.9683 30603.8360 -242.7968 -172.6605
ENERGY: 900000 1.6396 8.7624 4.3974 0.0000 -10890.4043 1517.5824 0.0000 0.0000 1775.6090 -7582.4136 301.3582 -9358.0226 -7518.2640 299.7055 284.8413 377.9287 30258.0164 -327.8447 -261.2610
ENERGY: 1200000 1.2766 8.9797 5.9402 0.0000 -10553.3575 1350.6754 0.0000 0.0000 1777.4184 -7409.0673 301.6653 -9186.4857 -7510.7062 300.3177 -470.2408 -390.1411 30429.0235 -276.9119 -213.3449
ENERGY: 1500000 2.5784 8.8773 5.1305 0.0000 -10704.4015 1436.8812 0.0000 0.0000 1793.1055 -7457.8286 304.3277 -9250.9341 -7504.4106 300.9150 -95.4965 -10.9480 30631.8719 -262.7200 -199.3791
TCL: Running FEP window  10: Lambda1 0.5499999999999996 Lambda2 0.4999999999999996 [dLambda -0.04999999999999999]
TCL: Setting parameter firsttimestep to 0
TCL: Setting parameter alchLambda to 0.5499999999999996
Info: NONBONDED TABLE R-SQUARED SPACING: 0.0625
Info: NONBONDED TABLE SIZE: 705 POINTS
TCL: Setting parameter alchLambda2 to 0.4999999999999996
Info: NONBONDED TABLE R-SQUARED SPACING: 0.0625
Info: NONBONDED TABLE SIZE: 705 POINTS
TCL: Running for 1500000 steps
ETITLE: TS BOND ANGLE DIHED IMPRP ELECT VDW BOUNDARY MISC KINETIC TOTAL TEMP POTENTIAL TOTALAVG TEMPAVG PRESSURE GPRESSURE VOLUME PRESSAVG GPRESSAVG
ENERGY: 0 2.5784 8.8772 5.1305 0.0000 -10703.7926 1436.9979 0.0000 0.0000 1792.2491 -7457.9594 304.1824 -9250.2085 -7457.9594 304.1824 -91.5590 -16.7905 30631.8719 -91.5590 -16.7905
ENERGY: 300000 2.1185 5.4653 5.6174 0.0000 -10725.4865 1462.8374 0.0000 0.0000 1786.8328 -7462.6151 303.2631 -9249.4479 -7497.1452 301.0191 60.7691 147.6070 30658.6386 266.9153 334.5827
ENERGY: 600000 4.1580 7.5946 4.5445 0.0000 -10614.6306 1356.9985 0.0000 0.0000 1725.6137 -7515.7212 292.8729 -9241.3349 -7482.6744 301.6525 -539.8976 -442.9496 30384.4645 -25.1270 43.2433
ENERGY: 900000 2.9185 7.7009 4.2642 0.0000 -10891.6163 1546.7974 0.0000 0.0000 1787.7826 -7542.1527 303.4243 -9329.9353 -7486.5661 301.9959 945.8915 965.0565 29802.6434 75.8782 146.0566
ENERGY: 1200000 0.8267 8.7617 5.7325 0.0000 -10860.4087 1491.3438 0.0000 0.0000 1714.3362 -7639.4077 290.9589 -9353.7440 -7500.9284 301.3597 456.5596 541.0422 29634.1832 179.6354 242.9355
ENERGY: 1500000 2.9573 6.9231 5.2810 0.0000 -10675.5508 1386.1049 0.0000 0.0000 1750.2136 -7524.0708 297.0481 -9274.2844 -7509.1137 300.2116 -505.7910 -476.1875 30734.7356 125.6599 190.0995
TCL: Running FEP window  11: Lambda1 0.4999999999999996 Lambda2 0.4499999999999996 [dLambda -0.04999999999999999]
TCL: Setting parameter firsttimestep to 0
TCL: Setting parameter alchLambda to 0.4999999999999996
Info: NONBONDED TABLE R-SQUARED SPACING: 0.0625
Info: NONBONDED TABLE SIZE: 705 POINTS
TCL: Setting parameter alchLambda2 to 0.4499999999999996
Info: NONBONDED TABLE R-SQUARED SPACING: 0.0625
Info: NONBONDED TABLE SIZE: 705 POINTS
TCL: Running for 1500000 steps
ETITLE: TS BOND ANGLE DIHED IMPRP ELECT VDW BOUNDARY MISC KINETIC TOTAL TEMP POTENTIAL TOTALAVG TEMPAVG PRESSURE GPRESSURE VOLUME PRESSAVG GPRESSAVG
ENERGY: 0 2.9573 6.9231 5.2810 0.0000 -10675.6920 1385.6697 0.0000 0.0000 1749.3664 -7525.4945 296.9043 -9274.8609 -7525.4945 296.9043 -565.8569 -488.9197 30734.7356 -565.8569 -488.9197
ENERGY: 300000 1.3183 4.4899 3.9633 0.0000 -10780.5000 1462.1122 0.0000 0.0000 1776.8385 -7531.7777 301.5669 -9308.6162 -7508.6923 301.5761 0.2285 72.4816 30683.3815 -396.0423 -325.5235
ENERGY: 600000 2.0437 4.8003 4.9129 0.0000 -10808.5474 1494.0599 0.0000 0.0000 1723.0339 -7579.6968 292.4351 -9302.7307 -7509.9431 301.2535 405.3877 495.4427 30236.1245 -224.5834 -147.4901
ENERGY: 900000 1.1483 3.8869 4.2848 0.0000 -10794.8344 1465.9679 0.0000 0.0000 1734.9036 -7584.6428 294.4496 -9319.5464 -7515.7872 300.7450 228.5900 332.9020 29898.6687 -112.5612 -36.2743
ENERGY: 1200000 1.4516 3.1941 5.1608 0.0000 -10875.4716 1564.3233 0.0000 0.0000 1795.7547 -7505.5870 304.7774 -9301.3418 -7511.8438 300.5548 888.9426 943.8866 30325.4797 -73.1029 -3.3936
ENERGY: 1500000 2.3087 6.3260 3.9483 0.0000 -10612.6944 1406.4953 0.0000 0.0000 1754.1511 -7439.4649 297.7164 -9193.6161 -7513.8173 299.6433 56.1794 91.7417 30740.5652 -43.7556 20.1038
TCL: Running FEP window  12: Lambda1 0.4499999999999996 Lambda2 0.39999999999999963 [dLambda -0.04999999999999999]
TCL: Setting parameter firsttimestep to 0
TCL: Setting parameter alchLambda to 0.4499999999999996
Info: NONBONDED TABLE R-SQUARED SPACING: 0.0625
Info: NONBONDED TABLE SIZE: 705 POINTS
TCL: Setting parameter alchLambda2 to 0.39999999999999963
Info: NONBONDED TABLE R-SQUARED SPACING: 0.0625
Info: NONBONDED TABLE SIZE: 705 POINTS
TCL: Running for 1500000 steps
ETITLE: TS BOND ANGLE DIHED IMPRP ELECT VDW BOUNDARY MISC KINETIC TOTAL TEMP POTENTIAL TOTALAVG TEMPAVG PRESSURE GPRESSURE VOLUME PRESSAVG GPRESSAVG
ENERGY: 0 2.3087 6.3260 3.9483 0.0000 -10612.6946 1407.0189 0.0000 0.0000 1753.2597 -7439.8329 297.5651 -9193.0927 -7439.8329 297.5651 10.1025 93.7633 30740.5652 10.1025 93.7633
ENERGY: 300000 2.4902 5.2897 4.2905 0.0000 -10726.4286 1451.3592 0.0000 0.0000 1759.2476 -7503.7514 298.5813 -9262.9990 -7489.8971 299.3486 -7.4929 24.0501 30658.3113 75.2787 119.0588
ENERGY: 600000 2.0538 6.8718 4.3802 0.0000 -10801.4901 1509.8359 0.0000 0.0000 1751.8884 -7526.4601 297.3323 -9278.3484 -7476.7838 300.7221 476.7571 524.3814 30286.8806 108.6484 167.4235
ENERGY: 900000 0.4871 9.9066 3.7460 0.0000 -10599.6030 1397.2972 0.0000 0.0000 1736.6602 -7451.5058 294.7478 -9188.1660 -7478.0562 300.6058 -117.6583 -42.3602 30458.7948 58.1450 119.6063
ENERGY: 1200000 0.9244 9.2057 3.8279 0.0000 -10675.8836 1382.3422 0.0000 0.0000 1726.4201 -7553.1634 293.0098 -9279.5835 -7500.2642 300.0016 -534.4707 -505.5261 30355.7395 38.7598 95.7765
ENERGY: 1500000 1.0604 5.7874 6.1202 0.0000 -10731.5294 1403.6640 0.0000 0.0000 1762.2914 -7552.6060 299.0979 -9314.8974 -7503.3732 301.1488 -227.8396 -154.1186 30210.2791 31.8768 94.7590
TCL: Running FEP window  13: Lambda1 0.39999999999999963 Lambda2 0.34999999999999964 [dLambda -0.04999999999999999]
TCL: Setting parameter firsttimestep to 0
TCL: Setting parameter alchLambda to 0.39999999999999963
Info: NONBONDED TABLE R-SQUARED SPACING: 0.0625
Info: NONBONDED TABLE SIZE: 705 POINTS
TCL: Setting parameter alchLambda2 to 0.34999999999999964
Info: NONBONDED TABLE R-SQUARED SPACING: 0.0625
Info: NONBONDED TABLE SIZE: 705 POINTS
TCL: Running for 1500000 steps
ETITLE: TS BOND ANGLE DIHED IMPRP ELECT VDW BOUNDARY MISC KINETIC TOTAL TEMP POTENTIAL TOTALAVG TEMPAVG PRESSURE GPRESSURE VOLUME PRESSAVG GPRESSAVG
ENERGY: 0 1.0604 5.7874 6.1202 0.0000 -10731.5299 1403.7867 0.0000 0.0000 1761.3832 -7553.3920 298.9438 -9314.7752 -7553.3920 298.9438 -251.8248 -159.7259 30210.2791 -251.8248 -159.7259
ENERGY: 300000 4.3534 6.5880 3.6873 0.0000 -10738.5385 1434.1526 0.0000 0.0000 1723.7104 -7566.0469 292.5499 -9289.7573 -7550.7017 299.1428 -499.5128 -500.5824 30614.7432 -70.5635 -14.9810
ENERGY: 600000 0.8855 4.4245 3.9946 0.0000 -10922.4127 1609.8514 0.0000 0.0000 1757.0730 -7546.1837 298.2123 -9303.2566 -7548.8602 296.7431 1266.2575 1329.3555 30328.2855 -22.0986 30.1372
ENERGY: 900000 1.8879 7.3871 3.6993 0.0000 -10809.8358 1475.4355 0.0000 0.0000 1788.8355 -7532.5904 303.6030 -9321.4260 -7546.3953 297.6715 401.6526 493.3152 30056.4841 128.9600 186.2879
ENERGY: 1200000 0.8222 11.7214 5.0094 0.0000 -10643.0944 1375.1543 0.0000 0.0000 1806.2342 -7444.1528 306.5560 -9250.3870 -7527.0000 298.1118 -403.7616 -317.3080 30418.4998 -7.1828 49.1986
ENERGY: 1500000 0.9674 8.3358 4.8536 0.0000 -10629.3338 1376.7039 0.0000 0.0000 1750.7778 -7487.6953 297.1438 -9238.4731 -7523.5783 299.3023 -380.9151 -344.1022 30467.9794 34.4569 91.5132
TCL: Running FEP window  14: Lambda1 0.34999999999999964 Lambda2 0.29999999999999966 [dLambda -0.04999999999999999]
TCL: Setting parameter firsttimestep to 0
TCL: Setting parameter alchLambda to 0.34999999999999964
Info: NONBONDED TABLE R-SQUARED SPACING: 0.0625
Info: NONBONDED TABLE SIZE: 705 POINTS
TCL: Setting parameter alchLambda2 to 0.29999999999999966
Info: NONBONDED TABLE R-SQUARED SPACING: 0.0625
Info: NONBONDED TABLE SIZE: 705 POINTS
TCL: Running for 1500000 steps
ETITLE: TS BOND ANGLE DIHED IMPRP ELECT VDW BOUNDARY MISC KINETIC TOTAL TEMP POTENTIAL TOTALAVG TEMPAVG PRESSURE GPRESSURE VOLUME PRESSAVG GPRESSAVG
ENERGY: 0 0.9674 8.3358 4.8536 0.0000 -10629.3339 1377.0589 0.0000 0.0000 1749.8909 -7488.2274 296.9933 -9238.1183 -7488.2274 296.9933 -435.3934 -347.7436 30467.9794 -435.3934 -347.7436
ENERGY: 300000 2.7279 7.0422 4.2775 0.0000 -10587.6799 1379.1183 0.0000 0.0000 1751.1999 -7443.3141 297.2155 -9194.5140 -7497.9397 295.8992 -265.2522 -268.2072 30468.0381 -1.7986 21.2330
ENERGY: 600000 2.2454 14.0548 5.6110 0.0000 -10729.5827 1398.2926 0.0000 0.0000 1742.5572 -7566.8217 295.7486 -9309.3789 -7523.0194 297.9898 -685.9477 -617.5945 30429.3981 -40.3044 -8.1088
ENERGY: 900000 2.3165 8.8542 4.7660 0.0000 -10686.1984 1420.7671 0.0000 0.0000 1813.7253 -7435.7694 307.8274 -9249.4947 -7509.5771 300.2946 -292.7360 -233.6006 30624.8091 -60.6063 -21.2596
ENERGY: 1200000 2.6262 5.9208 3.7810 0.0000 -10775.1044 1451.4479 0.0000 0.0000 1783.7961 -7527.5324 302.7477 -9311.3285 -7514.8166 300.5447 -396.4430 -319.9114 31021.3410 -12.8044 32.8817
ENERGY: 1500000 1.3766 7.1743 4.5159 0.0000 -10697.1683 1419.4786 0.0000 0.0000 1738.6801 -7525.9429 295.0906 -9264.6230 -7509.2208 300.2690 -336.8646 -295.9083 31068.2594 -92.5372 -46.3184
TCL: Running FEP window  15: Lambda1 0.29999999999999966 Lambda2 0.24999999999999967 [dLambda -0.04999999999999999]
TCL: Setting parameter firsttimestep to 0
TCL: Setting parameter alchLambda to 0.29999999999999966
Info: NONBONDED TABLE R-SQUARED SPACING: 0.0625
Info: NONBONDED TABLE SIZE: 705 POINTS
TCL: Setting parameter alchLambda2 to 0.24999999999999967
Info: NONBONDED TABLE R-SQUARED SPACING: 0.0625
Info: NONBONDED TABLE SIZE: 705 POINTS
TCL: Running for 1500000 steps
ETITLE: TS BOND ANGLE DIHED IMPRP ELECT VDW BOUNDARY MISC KINETIC TOTAL TEMP POTENTIAL TOTALAVG TEMPAVG PRESSURE GPRESSURE VOLUME PRESSAVG GPRESSAVG
ENERGY: 0 1.3766 7.1742 4.5159 0.0000 -10697.1687 1418.5208 0.0000 0.0000 1737.7992 -7527.7820 294.9411 -9265.5812 -7527.7820 294.9411 -398.1206 -309.7313 31068.2594 -398.1206 -309.7313
ENERGY: 300000 1.5319 6.3302 3.8534 0.0000 -10645.4636 1407.8641 0.0000 0.0000 1753.6715 -7472.2125 297.6350 -9225.8840 -7467.8199 298.3886 99.4085 146.5832 30029.1196 -162.9414 -103.1860
ENERGY: 600000 1.4159 9.0098 4.7588 0.0000 -10677.3450 1424.7341 0.0000 0.0000 1787.3566 -7450.0698 303.3520 -9237.4264 -7465.4061 299.0222 -275.7588 -263.2437 31008.1066 -92.2340 -52.5584
ENERGY: 900000 3.4564 6.6632 5.0924 0.0000 -10817.8370 1452.7277 0.0000 0.0000 1868.3182 -7481.5792 317.0929 -9349.8974 -7472.4210 299.7598 -130.2876 1.6255 30306.1780 -58.5685 -14.3204
ENERGY: 1200000 2.3696 7.0269 5.6577 0.0000 -10814.5704 1485.2032 0.0000 0.0000 1830.8653 -7483.4476 310.7364 -9314.3129 -7483.7427 299.9057 184.5490 224.6577 30558.0493 -82.3362 -37.8665
ENERGY: 1500000 0.7138 7.8722 5.4453 0.0000 -10714.1179 1437.7878 0.0000 0.0000 1734.9329 -7527.3659 294.4546 -9262.2988 -7489.4499 299.8718 268.9139 219.0913 29938.0918 -1.6270 38.0820
TCL: Running FEP window  16: Lambda1 0.24999999999999967 Lambda2 0.19999999999999968 [dLambda -0.04999999999999999]
TCL: Setting parameter firsttimestep to 0
TCL: Setting parameter alchLambda to 0.24999999999999967
Info: NONBONDED TABLE R-SQUARED SPACING: 0.0625
Info: NONBONDED TABLE SIZE: 705 POINTS
TCL: Setting parameter alchLambda2 to 0.19999999999999968
Info: NONBONDED TABLE R-SQUARED SPACING: 0.0625
Info: NONBONDED TABLE SIZE: 705 POINTS
TCL: Running for 1500000 steps
ETITLE: TS BOND ANGLE DIHED IMPRP ELECT VDW BOUNDARY MISC KINETIC TOTAL TEMP POTENTIAL TOTALAVG TEMPAVG PRESSURE GPRESSURE VOLUME PRESSAVG GPRESSAVG
ENERGY: 0 0.7137 7.8722 5.4453 0.0000 -10714.1194 1437.7344 0.0000 0.0000 1734.0386 -7528.3151 294.3028 -9262.3538 -7528.3151 294.3028 144.1537 214.4910 29938.0918 144.1537 214.4910
ENERGY: 300000 0.6118 9.8672 4.6809 0.0000 -10769.1202 1424.4436 0.0000 0.0000 1781.2456 -7548.2713 302.3149 -9329.5168 -7510.0675 300.8201 -309.4336 -230.3238 30315.2320 19.8917 76.0627
ENERGY: 600000 0.7570 4.0398 4.4235 0.0000 -10666.3761 1443.1347 0.0000 0.0000 1770.5452 -7443.4759 300.4988 -9214.0210 -7498.9120 300.1122 93.1182 128.2827 30469.0329 3.0658 74.3877
ENERGY: 900000 1.9177 6.5399 4.5781 0.0000 -10765.0905 1449.0877 0.0000 0.0000 1821.5579 -7481.4091 309.1567 -9302.9670 -7496.7107 302.0863 -130.8920 -22.7425 30404.5346 -65.3992 9.5794
ENERGY: 1200000 1.2189 9.1334 5.4413 0.0000 -10826.9612 1486.6304 0.0000 0.0000 1779.1858 -7545.3513 301.9653 -9324.5371 -7502.9018 301.8484 211.6340 330.0277 30162.5275 38.8392 120.4947
ENERGY: 1500000 1.8327 11.0822 5.7014 0.0000 -10618.8355 1430.3994 0.0000 0.0000 1759.7879 -7410.0319 298.6730 -9169.8199 -7496.9842 301.3791 61.6151 119.9879 30557.4495 -2.5681 74.8850
TCL: Running FEP window  17: Lambda1 0.19999999999999968 Lambda2 0.1499999999999997 [dLambda -0.04999999999999999]
TCL: Setting parameter firsttimestep to 0
TCL: Setting parameter alchLambda to 0.19999999999999968
Info: NONBONDED TABLE R-SQUARED SPACING: 0.0625
Info: NONBONDED TABLE SIZE: 705 POINTS
TCL: Setting parameter alchLambda2 to 0.1499999999999997
Info: NONBONDED TABLE R-SQUARED SPACING: 0.0625
Info: NONBONDED TABLE SIZE: 705 POINTS
TCL: Running for 1500000 steps
ETITLE: TS BOND ANGLE DIHED IMPRP ELECT VDW BOUNDARY MISC KINETIC TOTAL TEMP POTENTIAL TOTALAVG TEMPAVG PRESSURE GPRESSURE VOLUME PRESSAVG GPRESSAVG
ENERGY: 0 1.8327 11.0822 5.7014 0.0000 -10618.8366 1429.9313 0.0000 0.0000 1758.8739 -7411.4151 298.5179 -9170.2890 -7411.4151 298.5179 27.3511 113.8674 30557.4495 27.3511 113.8674
ENERGY: 300000 3.6059 6.2934 3.6351 0.0000 -10787.6211 1458.6287 0.0000 0.0000 1740.6418 -7574.8163 295.4235 -9315.4581 -7541.5088 294.8407 85.7055 116.0145 30375.6891 -32.5630 21.8910
ENERGY: 600000 1.9226 7.4647 3.7367 0.0000 -10729.2429 1430.7878 0.0000 0.0000 1735.3697 -7549.9614 294.5288 -9285.3311 -7528.2891 296.1556 41.0732 60.8685 30254.1810 204.0020 251.7028
ENERGY: 900000 1.0354 6.5710 4.5623 0.0000 -10848.6845 1519.4113 0.0000 0.0000 1737.0922 -7580.0123 294.8211 -9317.1045 -7528.4529 296.9908 452.5610 533.8329 30187.2165 259.0283 325.7795
ENERGY: 1200000 2.0893 5.4365 5.7507 0.0000 -10855.8008 1542.7163 0.0000 0.0000 1812.8534 -7486.9547 307.6794 -9299.8081 -7518.4146 298.5349 587.8242 650.6988 30511.0396 338.1419 401.7000
ENERGY: 1500000 1.5667 7.9479 3.9293 0.0000 -10757.6778 1444.7803 0.0000 0.0000 1784.7822 -7514.6715 302.9151 -9299.4537 -7524.8585 299.2931 49.9369 106.0830 30133.1996 362.5938 426.3879
TCL: Running FEP window  18: Lambda1 0.1499999999999997 Lambda2 0.09999999999999969 [dLambda -0.05 ]
TCL: Setting parameter firsttimestep to 0
TCL: Setting parameter alchLambda to 0.1499999999999997
Info: NONBONDED TABLE R-SQUARED SPACING: 0.0625
Info: NONBONDED TABLE SIZE: 705 POINTS
TCL: Setting parameter alchLambda2 to 0.09999999999999969
Info: NONBONDED TABLE R-SQUARED SPACING: 0.0625
Info: NONBONDED TABLE SIZE: 705 POINTS
TCL: Running for 1500000 steps
ETITLE: TS BOND ANGLE DIHED IMPRP ELECT VDW BOUNDARY MISC KINETIC TOTAL TEMP POTENTIAL TOTALAVG TEMPAVG PRESSURE GPRESSURE VOLUME PRESSAVG GPRESSAVG
ENERGY: 0 1.5667 7.9478 3.9293 0.0000 -10757.6803 1444.5248 0.0000 0.0000 1783.8697 -7515.8420 302.7602 -9299.7117 -7515.8420 302.7602 16.7170 100.2527 30133.1996 16.7170 100.2527
ENERGY: 300000 1.5337 8.7961 4.2712 0.0000 -10842.2815 1478.4985 0.0000 0.0000 1767.6253 -7581.5566 300.0032 -9349.1820 -7530.4997 301.4831 89.9601 134.9009 30227.8413 262.2303 343.1446
ENERGY: 600000 2.2170 5.4385 4.3640 0.0000 -10758.0497 1466.1620 0.0000 0.0000 1745.3580 -7534.5103 296.2240 -9279.8683 -7515.6917 300.8707 202.8819 215.7104 30297.8927 235.2405 292.3965
ENERGY: 900000 2.9129 5.2477 4.5988 0.0000 -10662.3918 1428.5240 0.0000 0.0000 1805.8418 -7415.2666 306.4894 -9221.1084 -7510.7885 300.4521 -109.4741 -46.5237 30536.8192 145.7599 201.2689
ENERGY: 1200000 3.2091 9.1004 4.8265 0.0000 -10758.0431 1481.5136 0.0000 0.0000 1727.0015 -7532.3919 293.1085 -9259.3934 -7517.6721 299.5218 407.1183 462.5284 29778.9626 124.6729 179.6233
ENERGY: 1500000 1.4875 4.1915 5.8516 0.0000 -10738.8187 1439.7125 0.0000 0.0000 1769.2913 -7518.2844 300.2860 -9287.5756 -7513.8063 300.5339 92.8877 116.7761 30391.3258 44.6071 100.4579
TCL: Running FEP window  19: Lambda1 0.09999999999999969 Lambda2 0.049999999999999684 [dLambda -0.05 ]
TCL: Setting parameter firsttimestep to 0
TCL: Setting parameter alchLambda to 0.09999999999999969
Info: NONBONDED TABLE R-SQUARED SPACING: 0.0625
Info: NONBONDED TABLE SIZE: 705 POINTS
TCL: Setting parameter alchLambda2 to 0.049999999999999684
Info: NONBONDED TABLE R-SQUARED SPACING: 0.0625
Info: NONBONDED TABLE SIZE: 705 POINTS
TCL: Running for 1500000 steps
ETITLE: TS BOND ANGLE DIHED IMPRP ELECT VDW BOUNDARY MISC KINETIC TOTAL TEMP POTENTIAL TOTALAVG TEMPAVG PRESSURE GPRESSURE VOLUME PRESSAVG GPRESSAVG
ENERGY: 0 1.4874 4.1915 5.8516 0.0000 -10738.8176 1439.9996 0.0000 0.0000 1768.4337 -7518.8538 300.1404 -9287.2875 -7518.8538 300.1404 21.6864 115.7963 30391.3258 21.6864 115.7963
ENERGY: 300000 0.6492 7.6339 6.2626 0.0000 -10654.4499 1324.6100 0.0000 0.0000 1762.7000 -7552.5941 299.1673 -9315.2941 -7528.4439 299.5591 -900.1408 -856.3239 30330.8105 -45.4655 18.4939
ENERGY: 600000 3.0342 7.6756 4.2450 0.0000 -10731.0402 1463.7408 0.0000 0.0000 1732.6070 -7519.7377 294.0599 -9252.3447 -7511.4293 299.0057 43.5291 140.8431 30460.9803 -153.7884 -86.2641
ENERGY: 900000 1.9835 9.2683 5.1874 0.0000 -10669.2562 1398.3203 0.0000 0.0000 1788.2606 -7466.2360 303.5055 -9254.4966 -7506.7969 299.7249 -651.9327 -578.7356 30530.7973 -172.8643 -103.2876
ENERGY: 1200000 1.2244 11.6482 5.4956 0.0000 -10696.7478 1431.3715 0.0000 0.0000 1771.6159 -7475.3922 300.6805 -9247.0081 -7501.4051 300.8122 381.8403 406.5062 29880.4095 -80.8065 -11.1512
ENERGY: 1500000 1.9835 6.7265 4.9377 0.0000 -10630.4151 1346.8669 0.0000 0.0000 1756.0182 -7513.8823 298.0332 -9269.9005 -7510.5052 300.5007 -770.2240 -648.0187 30496.0015 -168.9784 -99.7634
TCL: Running FEP window  20: Lambda1 0.049999999999999684 Lambda2 0.0    [dLambda -0.049999999999999684]
TCL: Setting parameter firsttimestep to 0
TCL: Setting parameter alchLambda to 0.049999999999999684
Info: NONBONDED TABLE R-SQUARED SPACING: 0.0625
Info: NONBONDED TABLE SIZE: 705 POINTS
TCL: Setting parameter alchLambda2 to 0.0
Info: NONBONDED TABLE R-SQUARED SPACING: 0.0625
Info: NONBONDED TABLE SIZE: 705 POINTS
TCL: Running for 1500000 steps
ETITLE: TS BOND ANGLE DIHED IMPRP ELECT VDW BOUNDARY MISC KINETIC TOTAL TEMP POTENTIAL TOTALAVG TEMPAVG PRESSURE GPRESSURE VOLUME PRESSAVG GPRESSAVG
ENERGY: 0 1.9835 6.7265 4.9377 0.0000 -10630.4161 1346.3723 0.0000 0.0000 1755.1392 -7515.2569 297.8841 -9270.3961 -7515.2569 297.8841 -754.2573 -654.2579 30496.0015 -754.2573 -654.2579
ENERGY: 300000 0.3520 7.6812 3.7664 0.0000 -10762.9581 1498.0165 0.0000 0.0000 1747.6355 -7505.5065 296.6105 -9253.1420 -7516.0343 299.3684 592.0646 643.8743 30020.7258 -138.6939 -76.1287
ENERGY: 600000 0.9147 5.0373 3.9763 0.0000 -10647.7826 1418.1835 0.0000 0.0000 1734.8745 -7484.7964 294.4447 -9219.6709 -7504.3293 298.9763 57.5819 133.2631 30343.4549 -57.9089 2.1713
ENERGY: 900000 0.8149 8.2681 3.9382 0.0000 -10955.1776 1613.9550 0.0000 0.0000 1765.9193 -7562.2821 299.7137 -9328.2014 -7508.7316 299.8719 914.5065 977.3197 30360.7002 -138.3488 -77.2481
ENERGY: 1200000 0.7872 8.6820 4.0665 0.0000 -10701.8518 1453.1185 0.0000 0.0000 1807.8303 -7427.3674 306.8268 -9235.1976 -7507.1275 300.4131 289.5903 354.3048 30153.8505 -122.9205 -58.3958
ENERGY: 1500000 2.2654 8.5223 4.7101 0.0000 -10743.2289 1455.2895 0.0000 0.0000 1782.9845 -7489.4571 302.6100 -9272.4417 -7505.8738 300.7656 -42.2999 -22.0738 30592.6949 -149.8188 -90.1109
TCL: Exiting due to exit command.
