Info: SIMULATION PARAMETERS:
Info: TIMESTEP               2
Info: NUMBER OF STEPS        0
Info: STEPS PER CYCLE        10
Info: PERIODIC CELL BASIS 1  30.2487 0 0
Info: PERIODIC CELL BASIS 2  0 29.459 0
Info: PERIODIC CELL BASIS 3  0 0 34.1484
Info: PERIODIC CELL CENTER   0 0 0
Info: WRAPPING WATERS AROUND PERIODIC BOUNDARIES ON OUTPUT.
Info: WRAPPING ALL CLUSTERS AROUND PERIODIC BOUNDARIES ON OUTPUT.
Info: FIRST LDB TIMESTEP     50
Info: LAST LDB TIMESTEP     -1
Info: HOM BACKGROUND SCALING 1
Info: PME BACKGROUND SCALING 1
Info: MIN ATOMS PER PATCH    40
Info: EMPTY PATCH LOAD       40 ATOMS
Info: VELOCITY FILE          mobley_4683624_equil.vel
Info: CENTER OF MASS MOVING INITIALLY? NO
Info: DIELECTRIC             1
Info: EXCLUDE                SCALED ONE-FOUR
Info: 1-4 ELECTROSTATICS SCALED BY 0.833333
Info: MODIFIED 1-4 VDW PARAMETERS WILL BE USED
Info: DCD FILENAME           mobley_4683624_prod.dcd
Info: DCD FREQUENCY          100000
Info: DCD FIRST STEP         100000
Info: DCD FILE WILL CONTAIN UNIT CELL DATA
Info: XST FILENAME           mobley_4683624_prod.xst
Info: XST FREQUENCY          100000
Info: NO VELOCITY DCD OUTPUT
Info: NO FORCE DCD OUTPUT
Info: OUTPUT FILENAME        mobley_4683624_prod
Info: BINARY OUTPUT FILES WILL BE USED
Info: RESTART FILENAME       mobley_4683624_prod.restart
Info: RESTART FREQUENCY      100000
Info: BINARY RESTART FILES WILL BE USED
Info: CUTOFF                 9
Info: PAIRLIST DISTANCE      11
Info: PAIRLIST SHRINK RATE   0.01
Info: PAIRLIST GROW RATE     0.01
Info: PAIRLIST TRIGGER       0.3
Info: PAIRLISTS PER CYCLE    2
Info: PAIRLISTS ENABLED
Info: MARGIN                 2
Info: HYDROGEN GROUP CUTOFF  2.5
Info: PATCH DIMENSION        15.5
Info: ENERGY OUTPUT STEPS    100000
Info: ENERGY EVALUATION STEPS    100000
Info: OUTPUT ENERGY PRECISION 4
Info: CROSSTERM ENERGY INCLUDED IN DIHEDRAL
Info: TIMING OUTPUT STEPS    1000000
Info: PRESSURE OUTPUT STEPS  100000
Info: ALCHEMICAL FEP ON
Info: FEP CURRENT LAMBDA VALUE     1
Info: FEP COMPARISON LAMBDA VALUE  0.95
Info: FEP INTRA-ALCHEMICAL NON-BONDED INTERACTIONS WILL BE RETAINED
Info: FEP INTRA-ALCHEMICAL BONDED INTERACTIONS WILL BE RETAINED
Info: FEP VDW SHIFTING COEFFICIENT 5
Info: FEP ELEC. ACTIVE FOR ANNIHILATED PARTICLES BETWEEN LAMBDA = 0 AND LAMBDA = 0.5
Info: FEP ELEC. ACTIVE FOR EXNIHILATED PARTICLES BETWEEN LAMBDA = 0.5 AND LAMBDA = 1
Info: FEP VDW ACTIVE FOR ANNIHILATED PARTICLES BETWEEN LAMBDA = 0 AND LAMBDA = 1
Info: FEP VDW ACTIVE FOR EXNIHILATED PARTICLES BETWEEN LAMBDA = 0 AND LAMBDA = 1
Info: FEP BOND ACTIVE FOR ANNIHILATED PARTICLES BETWEEN LAMBDA = 1 AND LAMBDA = 1
Info: FEP BOND ACTIVE FOR EXNIHILATED PARTICLES BETWEEN LAMBDA = 0 AND LAMBDA = 0
Info: LANGEVIN DYNAMICS ACTIVE
Info: LANGEVIN TEMPERATURE   300
Info: LANGEVIN USING BBK INTEGRATOR
Info: LANGEVIN DAMPING COEFFICIENT IS 1 INVERSE PS
Info: LANGEVIN DYNAMICS APPLIED TO HYDROGENS
Info: LANGEVIN PISTON PRESSURE CONTROL ACTIVE
Info:        TARGET PRESSURE IS 1.01325 BAR
Info:     OSCILLATION PERIOD IS 50 FS
Info:             DECAY TIME IS 25 FS
Info:     PISTON TEMPERATURE IS 300 K
Info:       PRESSURE CONTROL IS GROUP-BASED
Info:    INITIAL STRAIN RATE IS 0.000383542 0.000383542 0.000383542
Info:       CELL FLUCTUATION IS ISOTROPIC
Info: PARTICLE MESH EWALD (PME) ACTIVE
Info: PME TOLERANCE               1e-06
Info: PME EWALD COEFFICIENT       0.348832
Info: PME INTERPOLATION ORDER     4
Info: PME GRID DIMENSIONS         32 32 36
Info: PME MAXIMUM GRID SPACING    1
Info: PME CALCULATION WILL BE PERFORMED ON GPU
Info: FULL ELECTROSTATIC EVALUATION FREQUENCY      2
Info: USING VERLET I (r-RESPA) MTS SCHEME.
Info: C1 SPLITTING OF LONG RANGE ELECTROSTATICS
Info: PLACING ATOMS IN PATCHES BY HYDROGEN GROUPS
Info: RIGID BONDS TO HYDROGEN : ALL
Info:         ERROR TOLERANCE : 1e-08
Info:          MAX ITERATIONS : 100
Info: RIGID WATER USING SETTLE ALGORITHM
Info: RANDOM NUMBER SEED     1743876779
Info: USE HYDROGEN BONDS?    NO
Info: Using AMBER format force field!
Info: AMBER PARM FILE        mobley_4683624.prmtop
Info: COORDINATE PDB         mobley_4683624.pdb
Info: Exclusions will be read from PARM file!
Info: SCNB (VDW SCALING)     2
Info: USING ARITHMETIC MEAN TO COMBINE L-J SIGMA PARAMETERS
Info: BINARY COORDINATES     mobley_4683624_equil.coor
Info: SUMMARY OF PARAMETERS:
Info: 9 BONDS
Info: 10 ANGLES
Info:   10 HARMONIC
Info:   0 COSINE-BASED
Info: 7 DIHEDRAL
Info: 0 IMPROPER
Info: 0 CROSSTERM
Info: 0 VDW
Info: 28 VDW_PAIRS
Info: 0 NBTHOLE_PAIRS
Info: To read alchdata from file: mobley_4683624.pdb
Info: To read alchflag data from column: 5
Info: STRUCTURE SUMMARY:
Info: 2965 ATOMS
Info: 2965 BONDS
Info: 37 ANGLES
Info: 56 DIHEDRALS
Info: 0 IMPROPERS
Info: 0 CROSSTERMS
Info: 3049 EXCLUSIONS
Info: 2955 RIGID BONDS
Info: ALCH: 0 ATOMS TO DISAPPEAR IN FINAL STATE
Info: ALCH: 22 ATOMS TO APPEAR IN FINAL STATE
Info: 5940 DEGREES OF FREEDOM
Info: 991 HYDROGEN GROUPS
Info: 4 ATOMS IN LARGEST HYDROGEN GROUP
Info: 991 MIGRATION GROUPS
Info: 4 ATOMS IN LARGEST MIGRATION GROUP
Info: TOTAL MASS = 17809.9 amu
Info: TOTAL CHARGE = 0.000199992 e
Info: MASS DENSITY = 0.971906 g/cm^3
Info: ATOM DENSITY = 0.0974381 atoms/A^3
Info: ADDED 0 IMPLICIT EXCLUSIONS
Info: NONBONDED TABLE R-SQUARED SPACING: 0.0625
Info: NONBONDED TABLE SIZE: 705 POINTS
Info: REMOVING COM VELOCITY 0.0501358 -0.0124372 -0.00626879
Info: Use 3D box decompostion in PME FFT.
Info: Updated CUDA force table with 4096 elements.
Info: Updated CUDA LJ table with 7 x 7 elements.
Info: Found 24 unique exclusion lists needing 76 bytes
TCL: Running for 1500000 steps
ETITLE: TS BOND ANGLE DIHED IMPRP ELECT VDW BOUNDARY MISC KINETIC TOTAL TEMP POTENTIAL TOTALAVG TEMPAVG PRESSURE GPRESSURE VOLUME PRESSAVG GPRESSAVG
ENERGY: 0 4.7622 7.6772 5.5149 0.0000 -10715.0389 1447.1496 0.0000 0.0000 1751.2451 -7498.6900 296.7228 -9249.9351 -7498.6900 296.7228 84.2968 181.4402 30429.5839 84.2968 181.4402
ENERGY: 300000 3.6787 5.4604 2.7495 0.0000 -10762.4032 1475.6264 0.0000 0.0000 1796.7547 -7478.1334 304.4337 -9274.8880 -7564.2539 296.2215 172.7175 240.9022 30935.0858 -194.7631 -118.0787
ENERGY: 600000 1.8523 9.6505 7.8912 0.0000 -10812.1690 1490.6438 0.0000 0.0000 1785.3760 -7516.7552 302.5057 -9302.1312 -7553.1742 295.9275 345.7945 457.0521 30263.8347 -141.7431 -63.7028
ENERGY: 900000 2.5164 6.5069 3.5862 0.0000 -10722.8415 1388.8383 0.0000 0.0000 1773.3575 -7548.0363 300.4694 -9321.3938 -7548.3160 297.1460 -779.1684 -691.1526 31064.1883 -189.6822 -119.1175
ENERGY: 1200000 2.8215 4.4186 3.8752 0.0000 -10744.7257 1405.6082 0.0000 0.0000 1752.9479 -7575.0543 297.0113 -9328.0022 -7545.6947 297.3973 -273.6030 -199.2432 30397.9348 -176.9100 -106.3976
ENERGY: 1500000 3.7221 6.7381 4.5921 0.0000 -10667.1357 1454.7034 0.0000 0.0000 1738.6425 -7458.7376 294.5874 -9197.3801 -7543.2190 296.7347 163.4162 236.4565 30994.1322 -164.8943 -96.3629
TCL: Running FEP window   2: Lambda1 0.95   Lambda2 0.8999999999999999 [dLambda -0.050000000000000044]
TCL: Setting parameter firsttimestep to 0
TCL: Setting parameter alchLambda to 0.95
Info: NONBONDED TABLE R-SQUARED SPACING: 0.0625
Info: NONBONDED TABLE SIZE: 705 POINTS
TCL: Setting parameter alchLambda2 to 0.8999999999999999
Info: NONBONDED TABLE R-SQUARED SPACING: 0.0625
Info: NONBONDED TABLE SIZE: 705 POINTS
TCL: Running for 1500000 steps
ETITLE: TS BOND ANGLE DIHED IMPRP ELECT VDW BOUNDARY MISC KINETIC TOTAL TEMP POTENTIAL TOTALAVG TEMPAVG PRESSURE GPRESSURE VOLUME PRESSAVG GPRESSAVG
ENERGY: 0 3.7220 6.7381 4.5921 0.0000 -10665.0679 1453.1316 0.0000 0.0000 1737.7816 -7459.1025 294.4416 -9196.8842 -7459.1025 294.4416 129.8357 205.5542 30994.1322 129.8357 205.5542
ENERGY: 300000 1.4420 5.0462 7.2071 0.0000 -10905.7302 1564.3207 0.0000 0.0000 1764.8566 -7562.8576 299.0290 -9327.7143 -7494.5082 298.8965 863.4016 920.2852 30315.6458 28.3564 77.3185
ENERGY: 600000 2.5823 10.2540 4.4370 0.0000 -10564.0389 1344.2729 0.0000 0.0000 1800.5593 -7401.9333 305.0783 -9202.4926 -7474.2047 300.5904 -561.5170 -606.3366 30747.4991 -205.0973 -162.6237
ENERGY: 900000 4.9006 9.8347 3.6765 0.0000 -10649.8408 1396.7130 0.0000 0.0000 1777.9083 -7456.8078 301.2405 -9234.7161 -7490.1541 299.0605 -411.0158 -333.5110 30712.5594 -313.1055 -263.5066
ENERGY: 1200000 4.3101 8.7261 4.0758 0.0000 -10685.2248 1385.5626 0.0000 0.0000 1776.6877 -7505.8626 301.0336 -9282.5502 -7507.6717 298.5118 -429.2086 -337.0049 30251.2639 -194.7406 -135.9775
ENERGY: 1500000 1.4711 8.3325 2.2812 0.0000 -10693.9279 1427.0292 0.0000 0.0000 1783.2108 -7471.6031 302.1389 -9254.8139 -7508.5094 299.1366 -279.3022 -218.3307 30928.7396 -243.0478 -189.5564
TCL: Running FEP window   3: Lambda1 0.8999999999999999 Lambda2 0.8499999999999999 [dLambda -0.050000000000000044]
TCL: Setting parameter firsttimestep to 0
TCL: Setting parameter alchLambda to 0.8999999999999999
Info: NONBONDED TABLE R-SQUARED SPACING: 0.0625
Info: NONBONDED TABLE SIZE: 705 POINTS
TCL: Setting parameter alchLambda2 to 0.8499999999999999
Info: NONBONDED TABLE R-SQUARED SPACING: 0.0625
Info: NONBONDED TABLE SIZE: 705 POINTS
TCL: Running for 1500000 steps
ETITLE: TS BOND ANGLE DIHED IMPRP ELECT VDW BOUNDARY MISC KINETIC TOTAL TEMP POTENTIAL TOTALAVG TEMPAVG PRESSURE GPRESSURE VOLUME PRESSAVG GPRESSAVG
ENERGY: 0 1.4711 8.3325 2.2812 0.0000 -10692.5339 1427.1530 0.0000 0.0000 1782.3079 -7470.9882 301.9859 -9253.2961 -7470.9882 301.9859 -302.9047 -228.7475 30928.7396 -302.9047 -228.7475
ENERGY: 300000 2.4237 9.2589 5.2708 0.0000 -10687.1718 1410.7880 0.0000 0.0000 1789.5549 -7469.8756 303.2138 -9259.4304 -7494.4275 301.4876 -249.9580 -173.4234 30700.5265 -418.3325 -353.9669
ENERGY: 600000 2.0156 5.6466 6.0557 0.0000 -10811.5489 1445.6234 0.0000 0.0000 1768.7920 -7583.4156 299.6958 -9352.2076 -7496.6427 302.6165 -72.4355 8.6806 30108.2458 -301.7788 -227.8483
ENERGY: 900000 1.3093 10.9260 3.0182 0.0000 -10759.7670 1406.9271 0.0000 0.0000 1853.4064 -7484.1801 314.0325 -9337.5865 -7486.0113 304.8414 -340.3804 -282.6820 30373.5284 -161.7665 -106.3724
ENERGY: 1200000 6.1784 16.5647 1.5125 0.0000 -10724.1061 1471.3137 0.0000 0.0000 1731.4509 -7497.0859 293.3689 -9228.5369 -7497.9378 302.4928 455.7722 490.9585 30413.0747 -134.2903 -82.1736
ENERGY: 1500000 2.9966 11.3555 4.4838 0.0000 -10799.1416 1514.2509 0.0000 0.0000 1778.9296 -7487.1252 301.4135 -9266.0548 -7497.2437 302.9281 488.6279 554.0940 30876.9553 2.7758 60.3358
TCL: Running FEP window   4: Lambda1 0.8499999999999999 Lambda2 0.7999999999999998 [dLambda -0.050000000000000044]
TCL: Setting parameter firsttimestep to 0
TCL: Setting parameter alchLambda to 0.8499999999999999
Info: NONBONDED TABLE R-SQUARED SPACING: 0.0625
Info: NONBONDED TABLE SIZE: 705 POINTS
TCL: Setting parameter alchLambda2 to 0.7999999999999998
Info: NONBONDED TABLE R-SQUARED SPACING: 0.0625
Info: NONBONDED TABLE SIZE: 705 POINTS
TCL: Running for 1500000 steps
ETITLE: TS BOND ANGLE DIHED IMPRP ELECT VDW BOUNDARY MISC KINETIC TOTAL TEMP POTENTIAL TOTALAVG TEMPAVG PRESSURE GPRESSURE VOLUME PRESSAVG GPRESSAVG
ENERGY: 0 2.9966 11.3555 4.4838 0.0000 -10797.7448 1514.5533 0.0000 0.0000 1778.0499 -7486.3057 301.2644 -9264.3556 -7486.3057 301.2644 472.1416 553.6672 30876.9553 472.1416 553.6672
ENERGY: 300000 2.4280 9.8030 3.5013 0.0000 -10793.9271 1474.1703 0.0000 0.0000 1754.0130 -7550.0116 297.1917 -9304.0246 -7514.9867 301.9277 228.3714 231.2715 30585.9542 51.6676 115.4093
ENERGY: 600000 4.1341 5.7509 2.9932 0.0000 -10760.6347 1419.3304 0.0000 0.0000 1786.0274 -7542.3987 302.6161 -9328.4261 -7504.1894 300.9227 -156.2523 -94.3013 30405.8264 -9.3799 65.2585
ENERGY: 900000 3.2054 6.0588 3.3438 0.0000 -10750.1182 1445.9917 0.0000 0.0000 1815.8740 -7475.6446 307.6732 -9291.5187 -7508.0762 301.8910 -113.0743 11.5683 30663.1689 -36.1598 34.4840
ENERGY: 1200000 2.6034 5.2593 2.8827 0.0000 -10724.7302 1458.3947 0.0000 0.0000 1770.7926 -7484.7975 300.0348 -9255.5901 -7505.3615 301.8369 -38.8446 65.7722 30881.4260 -75.6676 -3.8216
ENERGY: 1500000 4.1729 8.8392 3.7658 0.0000 -10621.7106 1285.3280 0.0000 0.0000 1774.1586 -7545.4462 300.6051 -9319.6048 -7507.1860 301.1797 -1105.1647 -1031.1356 30468.4475 -99.2649 -28.6774
TCL: Running FEP window   5: Lambda1 0.7999999999999998 Lambda2 0.7499999999999998 [dLambda -0.050000000000000044]
TCL: Setting parameter firsttimestep to 0
TCL: Setting parameter alchLambda to 0.7999999999999998
Info: NONBONDED TABLE R-SQUARED SPACING: 0.0625
Info: NONBONDED TABLE SIZE: 705 POINTS
TCL: Setting parameter alchLambda2 to 0.7499999999999998
Info: NONBONDED TABLE R-SQUARED SPACING: 0.0625
Info: NONBONDED TABLE SIZE: 705 POINTS
TCL: Running for 1500000 steps
ETITLE: TS BOND ANGLE DIHED IMPRP ELECT VDW BOUNDARY MISC KINETIC TOTAL TEMP POTENTIAL TOTALAVG TEMPAVG PRESSURE GPRESSURE VOLUME PRESSAVG GPRESSAVG
ENERGY: 0 4.1729 8.8392 3.7658 0.0000 -10620.2794 1284.7976 0.0000 0.0000 1773.2980 -7545.4060 300.4593 -9318.7039 -7545.4060 300.4593 -1126.6865 -1050.0184 30468.4475 -1126.6865 -1050.0184
ENERGY: 300000 3.2100 7.2120 2.6211 0.0000 -10636.4124 1390.6837 0.0000 0.0000 1780.3642 -7452.3215 301.6566 -9232.6857 -7536.9708 297.0858 -281.8705 -244.9906 30834.5182 -529.3623 -469.5982
ENERGY: 600000 4.2677 9.9424 2.0782 0.0000 -10631.6555 1341.7677 0.0000 0.0000 1773.4307 -7500.1688 300.4818 -9273.5995 -7522.5593 298.5717 -705.7630 -648.6490 30536.5841 -240.4376 -182.2348
ENERGY: 900000 2.4761 6.7723 1.6072 0.0000 -10698.3019 1489.2796 0.0000 0.0000 1786.2236 -7411.9430 302.6494 -9198.1667 -7491.6755 299.1994 664.1467 760.1833 30580.7112 -107.8756 -43.2359
ENERGY: 1200000 2.6743 3.8786 1.6233 0.0000 -10764.1491 1433.9063 0.0000 0.0000 1750.7600 -7571.3067 296.6406 -9322.0667 -7504.8321 298.9348 109.6208 141.8508 30319.6033 -56.7858 3.2810
ENERGY: 1500000 2.8886 7.1722 2.0375 0.0000 -10684.8933 1428.3147 0.0000 0.0000 1742.0475 -7502.4328 295.1644 -9244.4803 -7497.2070 299.5148 -123.1451 -36.3354 30715.7185 -47.4460 13.4593
TCL: Running FEP window   6: Lambda1 0.7499999999999998 Lambda2 0.6999999999999997 [dLambda -0.050000000000000044]
TCL: Setting parameter firsttimestep to 0
TCL: Setting parameter alchLambda to 0.7499999999999998
Info: NONBONDED TABLE R-SQUARED SPACING: 0.0625
Info: NONBONDED TABLE SIZE: 705 POINTS
TCL: Setting parameter alchLambda2 to 0.6999999999999997
Info: NONBONDED TABLE R-SQUARED SPACING: 0.0625
Info: NONBONDED TABLE SIZE: 705 POINTS
TCL: Running for 1500000 steps
ETITLE: TS BOND ANGLE DIHED IMPRP ELECT VDW BOUNDARY MISC KINETIC TOTAL TEMP POTENTIAL TOTALAVG TEMPAVG PRESSURE GPRESSURE VOLUME PRESSAVG GPRESSAVG
ENERGY: 0 2.8886 7.1722 2.0375 0.0000 -10683.1901 1427.7691 0.0000 0.0000 1741.2191 -7502.1035 295.0240 -9243.3227 -7502.1035 295.0240 -133.3991 -49.1008 30715.7185 -133.3991 -49.1008
ENERGY: 300000 5.7777 9.3571 2.0674 0.0000 -10832.9327 1521.2325 0.0000 0.0000 1795.8633 -7498.6346 304.2827 -9294.4980 -7491.5963 299.5719 694.4620 768.3600 30463.4824 -199.4787 -140.2783
ENERGY: 600000 3.0905 9.5235 2.7345 0.0000 -10724.8988 1422.5897 0.0000 0.0000 1793.6875 -7493.2731 303.9140 -9286.9606 -7484.4605 300.9571 -147.3975 -75.0421 30645.4303 -131.4609 -70.3572
ENERGY: 900000 3.8707 7.4308 3.4400 0.0000 -10829.6137 1493.2442 0.0000 0.0000 1790.9309 -7530.6971 303.4469 -9321.6281 -7482.7928 300.4950 20.7639 75.7098 30678.1768 -169.3900 -104.0935
ENERGY: 1200000 2.4337 8.6714 4.0608 0.0000 -10686.0025 1408.4024 0.0000 0.0000 1722.9473 -7539.4869 291.9281 -9262.4343 -7489.0604 299.6175 -314.0425 -227.1549 30700.5917 -28.4748 34.0445
ENERGY: 1500000 4.5909 5.4485 2.8542 0.0000 -10677.0978 1402.8243 0.0000 0.0000 1807.9730 -7453.4069 306.3345 -9261.3799 -7500.2424 298.7824 -359.5877 -313.7758 30770.8077 -80.7704 -18.5585
TCL: Running FEP window   7: Lambda1 0.6999999999999997 Lambda2 0.6499999999999997 [dLambda -0.050000000000000044]
TCL: Setting parameter firsttimestep to 0
TCL: Setting parameter alchLambda to 0.6999999999999997
Info: NONBONDED TABLE R-SQUARED SPACING: 0.0625
Info: NONBONDED TABLE SIZE: 705 POINTS
TCL: Setting parameter alchLambda2 to 0.6499999999999997
Info: NONBONDED TABLE R-SQUARED SPACING: 0.0625
Info: NONBONDED TABLE SIZE: 705 POINTS
TCL: Running for 1500000 steps
ETITLE: TS BOND ANGLE DIHED IMPRP ELECT VDW BOUNDARY MISC KINETIC TOTAL TEMP POTENTIAL TOTALAVG TEMPAVG PRESSURE GPRESSURE VOLUME PRESSAVG GPRESSAVG
ENERGY: 0 4.5909 5.4485 2.8542 0.0000 -10674.8258 1402.5759 0.0000 0.0000 1807.0844 -7452.2719 306.1839 -9259.3563 -7452.2719 306.1839 -407.1088 -319.4507 30770.8077 -407.1088 -319.4507
ENERGY: 300000 2.3409 7.3672 1.1070 0.0000 -10628.6802 1402.1784 0.0000 0.0000 1742.5283 -7473.1584 295.2458 -9215.6867 -7530.6538 296.5288 74.0694 87.2302 30503.8473 -235.0875 -185.3556
ENERGY: 600000 2.3915 6.8829 2.5043 0.0000 -10749.4843 1439.2532 0.0000 0.0000 1781.7895 -7516.6628 301.8981 -9298.4524 -7500.5567 299.2240 -192.0570 -120.8437 30708.7791 -167.6640 -110.5699
ENERGY: 900000 5.6010 7.0053 2.2389 0.0000 -10774.1842 1532.9769 0.0000 0.0000 1839.8622 -7386.4998 311.7376 -9226.3621 -7503.1555 300.5684 916.1122 978.4576 30143.3801 -7.7197 52.6958
ENERGY: 1200000 2.5238 9.4462 4.2834 0.0000 -10641.7485 1393.9607 0.0000 0.0000 1831.4816 -7400.0527 310.3177 -9231.5344 -7487.9049 301.5543 -403.1267 -360.0087 31078.7775 -81.8858 -25.4941
ENERGY: 1500000 6.0861 7.4015 4.3736 0.0000 -10673.4138 1443.8939 0.0000 0.0000 1805.6487 -7406.0100 305.9407 -9211.6587 -7479.7025 301.2575 54.9775 155.5894 30462.0859 -79.6127 -22.6597
TCL: Running FEP window   8: Lambda1 0.6499999999999997 Lambda2 0.5999999999999996 [dLambda -0.050000000000000044]
TCL: Setting parameter firsttimestep to 0
TCL: Setting parameter alchLambda to 0.6499999999999997
Info: NONBONDED TABLE R-SQUARED SPACING: 0.0625
Info: NONBONDED TABLE SIZE: 705 POINTS
TCL: Setting parameter alchLambda2 to 0.5999999999999996
Info: NONBONDED TABLE R-SQUARED SPACING: 0.0625
Info: NONBONDED TABLE SIZE: 705 POINTS
TCL: Running for 1500000 steps
ETITLE: TS BOND ANGLE DIHED IMPRP ELECT VDW BOUNDARY MISC KINETIC TOTAL TEMP POTENTIAL TOTALAVG TEMPAVG PRESSURE GPRESSURE VOLUME PRESSAVG GPRESSAVG
ENERGY: 0 6.0861 7.4015 4.3736 0.0000 -10671.7847 1444.3101 0.0000 0.0000 1804.7429 -7404.8705 305.7872 -9209.6134 -7404.8705 305.7872 75.1270 154.4657 30462.0859 75.1270 154.4657
ENERGY: 300000 1.9863 7.9809 3.9468 0.0000 -10665.0030 1411.0455 0.0000 0.0000 1807.4259 -7432.6176 306.2418 -9240.0435 -7436.2092 304.2507 -323.9241 -262.9510 31045.0024 -19.1958 35.7919
ENERGY: 600000 3.7964 7.3007 8.1714 0.0000 -10777.3944 1465.9323 0.0000 0.0000 1742.4457 -7549.7479 295.2318 -9292.1936 -7462.6866 300.4358 157.6450 168.8345 30535.3197 37.0295 83.8893
ENERGY: 900000 2.9661 10.8498 3.6695 0.0000 -10633.1280 1384.6756 0.0000 0.0000 1736.7610 -7494.2061 294.2686 -9230.9671 -7487.3522 299.4926 -431.2212 -346.7813 30905.9440 14.7792 72.0282
ENERGY: 1200000 1.6584 5.8214 5.7051 0.0000 -10729.4577 1465.8045 0.0000 0.0000 1827.1169 -7423.3513 309.5781 -9250.4682 -7493.2231 299.7652 236.6787 295.1669 30603.3802 59.5105 113.4357
ENERGY: 1500000 4.4414 5.6314 4.7474 0.0000 -10654.8887 1385.9732 0.0000 0.0000 1771.0535 -7483.0418 300.0790 -9254.0953 -7491.9532 300.1973 -394.3553 -363.0183 30454.9600 35.4655 88.7433
TCL: Running FEP window   9: Lambda1 0.5999999999999996 Lambda2 0.5499999999999996 [dLambda -0.050000000000000044]
TCL: Setting parameter firsttimestep to 0
TCL: Setting parameter alchLambda to 0.5999999999999996
Info: NONBONDED TABLE R-SQUARED SPACING: 0.0625
Info: NONBONDED TABLE SIZE: 705 POINTS
TCL: Setting parameter alchLambda2 to 0.5499999999999996
Info: NONBONDED TABLE R-SQUARED SPACING: 0.0625
Info: NONBONDED TABLE SIZE: 705 POINTS
TCL: Running for 1500000 steps
ETITLE: TS BOND ANGLE DIHED IMPRP ELECT VDW BOUNDARY MISC KINETIC TOTAL TEMP POTENTIAL TOTALAVG TEMPAVG PRESSURE GPRESSURE VOLUME PRESSAVG GPRESSAVG
ENERGY: 0 4.4414 5.6314 4.7474 0.0000 -10654.2860 1385.9962 0.0000 0.0000 1770.1076 -7483.3620 299.9187 -9253.4696 -7483.3620 299.9187 -466.9798 -370.6403 30454.9600 -466.9798 -370.6403
ENERGY: 300000 3.4636 7.9121 3.1535 0.0000 -10683.1373 1384.6573 0.0000 0.0000 1703.2632 -7580.6876 288.5929 -9283.9508 -7528.2218 294.4742 -733.1438 -632.6096 30724.5032 -370.2299 -320.0788
ENERGY: 600000 4.5338 7.5279 1.8853 0.0000 -10747.2217 1422.0152 0.0000 0.0000 1764.0901 -7547.1694 298.8992 -9311.2596 -7513.7605 296.1055 -144.8239 -88.9192 30431.7120 -279.1210 -212.6493
ENERGY: 900000 3.6636 6.1215 0.8743 0.0000 -10541.6114 1312.5686 0.0000 0.0000 1777.1150 -7441.2685 301.1060 -9218.3835 -7518.0578 296.6799 -1140.8783 -1074.4313 30931.6020 -404.2507 -331.2928
ENERGY: 1200000 1.7653 6.4183 1.6324 0.0000 -10656.2536 1375.3980 0.0000 0.0000 1732.5061 -7538.5335 293.5477 -9271.0396 -7519.8977 297.0859 -536.3398 -457.3733 30570.7690 -272.0962 -196.2258
ENERGY: 1500000 1.1684 8.0298 4.4269 0.0000 -10755.3722 1406.5122 0.0000 0.0000 1754.4364 -7580.7985 297.2635 -9335.2349 -7512.6191 296.9983 -481.0700 -431.7375 30627.9267 -246.2771 -173.3586
TCL: Running FEP window  10: Lambda1 0.5499999999999996 Lambda2 0.4999999999999996 [dLambda -0.04999999999999999]
TCL: Setting parameter firsttimestep to 0
TCL: Setting parameter alchLambda to 0.5499999999999996
Info: NONBONDED TABLE R-SQUARED SPACING: 0.0625
Info: NONBONDED TABLE SIZE: 705 POINTS
TCL: Setting parameter alchLambda2 to 0.4999999999999996
Info: NONBONDED TABLE R-SQUARED SPACING: 0.0625
Info: NONBONDED TABLE SIZE: 705 POINTS
TCL: Running for 1500000 steps
ETITLE: TS BOND ANGLE DIHED IMPRP ELECT VDW BOUNDARY MISC KINETIC TOTAL TEMP POTENTIAL TOTALAVG TEMPAVG PRESSURE GPRESSURE VOLUME PRESSAVG GPRESSAVG
ENERGY: 0 1.1684 8.0298 4.4269 0.0000 -10755.0118 1406.8414 0.0000 0.0000 1753.5852 -7580.9601 297.1193 -9334.5453 -7580.9601 297.1193 -513.7668 -437.5222 30627.9267 -513.7668 -437.5222
ENERGY: 300000 2.3554 8.1897 3.1791 0.0000 -10822.8102 1534.2191 0.0000 0.0000 1857.2594 -7417.6076 314.6853 -9274.8670 -7491.0365 303.5275 1025.8990 1041.2321 30147.8397 230.9293 269.0015
ENERGY: 600000 2.2488 6.9607 3.0962 0.0000 -10756.9724 1470.4023 0.0000 0.0000 1759.3871 -7514.8773 298.1023 -9274.2643 -7504.9906 301.8195 422.0969 385.0444 30266.7758 164.2797 209.8084
ENERGY: 900000 6.7878 7.3031 4.6474 0.0000 -10618.0353 1347.2319 0.0000 0.0000 1803.9537 -7448.1113 305.6535 -9252.0650 -7507.7735 300.6719 -710.0472 -631.4252 30428.8030 48.1065 101.0687
ENERGY: 1200000 3.6081 5.5917 2.9642 0.0000 -10780.8049 1469.6052 0.0000 0.0000 1760.7444 -7538.2913 298.3323 -9299.0357 -7504.2553 300.1064 401.0284 502.7716 30071.4838 86.4439 149.7899
ENERGY: 1500000 3.0634 6.4137 4.7504 0.0000 -10716.0813 1431.0078 0.0000 0.0000 1825.1163 -7445.7296 309.2392 -9270.8459 -7507.5818 299.6121 -107.3015 -37.7705 30429.4246 1.2001 64.7081
TCL: Running FEP window  11: Lambda1 0.4999999999999996 Lambda2 0.4499999999999996 [dLambda -0.04999999999999999]
TCL: Setting parameter firsttimestep to 0
TCL: Setting parameter alchLambda to 0.4999999999999996
Info: NONBONDED TABLE R-SQUARED SPACING: 0.0625
Info: NONBONDED TABLE SIZE: 705 POINTS
TCL: Setting parameter alchLambda2 to 0.4499999999999996
Info: NONBONDED TABLE R-SQUARED SPACING: 0.0625
Info: NONBONDED TABLE SIZE: 705 POINTS
TCL: Running for 1500000 steps
ETITLE: TS BOND ANGLE DIHED IMPRP ELECT VDW BOUNDARY MISC KINETIC TOTAL TEMP POTENTIAL TOTALAVG TEMPAVG PRESSURE GPRESSURE VOLUME PRESSAVG GPRESSAVG
ENERGY: 0 3.0634 6.4137 4.7504 0.0000 -10716.0608 1430.5276 0.0000 0.0000 1824.2273 -7447.0784 309.0885 -9271.3057 -7447.0784 309.0885 -134.8243 -48.8620 30429.4246 -134.8243 -48.8620
ENERGY: 300000 2.4868 13.5138 3.1357 0.0000 -10615.9056 1426.8467 0.0000 0.0000 1735.0331 -7434.8896 293.9759 -9169.9227 -7482.1600 301.8804 226.9676 321.5656 30254.6454 -27.2548 46.1711
ENERGY: 600000 2.7631 8.6454 4.0736 0.0000 -10714.5153 1403.7398 0.0000 0.0000 1724.5241 -7570.7692 292.1953 -9295.2934 -7501.2392 299.0420 -381.7570 -253.7453 30557.7690 -8.7005 69.9000
ENERGY: 900000 3.2914 6.6376 5.1440 0.0000 -10774.7225 1455.6338 0.0000 0.0000 1808.7885 -7495.2271 306.4727 -9304.0156 -7492.3749 299.1014 -23.8464 53.4897 30386.5506 -59.5692 23.2381
ENERGY: 1200000 1.6297 8.0545 4.6764 0.0000 -10762.7062 1404.6707 0.0000 0.0000 1761.7558 -7581.9191 298.5037 -9343.6749 -7504.6642 299.0181 -402.8732 -349.0934 30216.0367 -47.8561 29.9620
ENERGY: 1500000 1.3978 8.5047 1.7766 0.0000 -10747.4606 1462.3099 0.0000 0.0000 1801.1687 -7472.3030 305.1816 -9273.4716 -7497.3706 299.3867 347.0240 426.9148 30354.7651 -29.0078 47.6784
TCL: Running FEP window  12: Lambda1 0.4499999999999996 Lambda2 0.39999999999999963 [dLambda -0.04999999999999999]
TCL: Setting parameter firsttimestep to 0
TCL: Setting parameter alchLambda to 0.4499999999999996
Info: NONBONDED TABLE R-SQUARED SPACING: 0.0625
Info: NONBONDED TABLE SIZE: 705 POINTS
TCL: Setting parameter alchLambda2 to 0.39999999999999963
Info: NONBONDED TABLE R-SQUARED SPACING: 0.0625
Info: NONBONDED TABLE SIZE: 705 POINTS
TCL: Running for 1500000 steps
ETITLE: TS BOND ANGLE DIHED IMPRP ELECT VDW BOUNDARY MISC KINETIC TOTAL TEMP POTENTIAL TOTALAVG TEMPAVG PRESSURE GPRESSURE VOLUME PRESSAVG GPRESSAVG
ENERGY: 0 1.3978 8.5047 1.7766 0.0000 -10747.4598 1462.7252 0.0000 0.0000 1800.3235 -7472.7320 305.0384 -9273.0555 -7472.7320 305.0384 344.7305 423.3813 30354.7651 344.7305 423.3813
ENERGY: 300000 1.9966 5.0174 6.1450 0.0000 -10769.8307 1434.1203 0.0000 0.0000 1793.5782 -7528.9733 303.8955 -9322.5515 -7496.4001 303.9132 99.9460 102.9806 30260.6453 4.8389 53.9181
ENERGY: 600000 3.8298 8.5691 6.3908 0.0000 -10755.8293 1418.5218 0.0000 0.0000 1744.2747 -7574.2432 295.5417 -9318.5179 -7512.6322 301.0691 -179.1538 -98.7843 29925.5440 83.5499 132.4160
ENERGY: 900000 4.2663 6.8054 3.2261 0.0000 -10648.8221 1384.0567 0.0000 0.0000 1793.2003 -7457.2672 303.8315 -9250.4676 -7512.3340 300.7498 -821.0752 -765.1446 30791.9073 -112.5829 -59.9378
ENERGY: 1200000 4.0506 6.6602 3.0504 0.0000 -10833.8724 1418.9814 0.0000 0.0000 1792.5041 -7608.6257 303.7135 -9401.1298 -7520.4114 301.5199 -602.8427 -501.4808 30296.1451 -91.3570 -35.2573
ENERGY: 1500000 2.8650 8.6487 2.4757 0.0000 -10747.1181 1486.6793 0.0000 0.0000 1872.8927 -7373.5568 317.3342 -9246.4495 -7501.8524 303.1130 330.1647 387.1428 30350.0856 -60.1414 -3.2965
TCL: Running FEP window  13: Lambda1 0.39999999999999963 Lambda2 0.34999999999999964 [dLambda -0.04999999999999999]
TCL: Setting parameter firsttimestep to 0
TCL: Setting parameter alchLambda to 0.39999999999999963
Info: NONBONDED TABLE R-SQUARED SPACING: 0.0625
Info: NONBONDED TABLE SIZE: 705 POINTS
TCL: Setting parameter alchLambda2 to 0.34999999999999964
Info: NONBONDED TABLE R-SQUARED SPACING: 0.0625
Info: NONBONDED TABLE SIZE: 705 POINTS
TCL: Running for 1500000 steps
ETITLE: TS BOND ANGLE DIHED IMPRP ELECT VDW BOUNDARY MISC KINETIC TOTAL TEMP POTENTIAL TOTALAVG TEMPAVG PRESSURE GPRESSURE VOLUME PRESSAVG GPRESSAVG
ENERGY: 0 2.8650 8.6487 2.4757 0.0000 -10747.1198 1486.2315 0.0000 0.0000 1872.0001 -7374.8988 317.1829 -9246.8990 -7374.8988 317.1829 290.1408 376.9019 30350.0856 290.1408 376.9019
ENERGY: 300000 3.9602 8.0104 3.2671 0.0000 -10755.0246 1472.9081 0.0000 0.0000 1770.6237 -7496.2551 300.0062 -9266.8788 -7472.1185 305.2821 110.7475 176.5518 30433.8677 43.3537 113.2960
ENERGY: 600000 2.6664 7.9862 3.3234 0.0000 -10747.9045 1453.5272 0.0000 0.0000 1781.8857 -7498.5155 301.9144 -9280.4012 -7480.1266 302.5788 -153.6274 -100.8476 31076.8389 -5.0539 55.6000
ENERGY: 900000 2.7145 9.2774 3.4337 0.0000 -10767.6291 1398.8377 0.0000 0.0000 1794.5487 -7558.8171 304.0599 -9353.3658 -7489.4031 303.3273 -676.2451 -584.8304 30432.0490 -173.3330 -108.7939
ENERGY: 1200000 1.9285 8.2601 5.9092 0.0000 -10793.8973 1439.4788 0.0000 0.0000 1790.2057 -7548.1150 303.3241 -9338.3207 -7497.8217 303.1608 65.7873 144.6457 29795.4072 -52.7213 15.8960
ENERGY: 1500000 3.7509 5.3226 6.4307 0.0000 -10574.2552 1337.8897 0.0000 0.0000 1811.0475 -7409.8138 306.8554 -9220.8612 -7496.3287 302.3863 -917.8447 -851.2258 31078.3875 -68.6005 -8.9125
TCL: Running FEP window  14: Lambda1 0.34999999999999964 Lambda2 0.29999999999999966 [dLambda -0.04999999999999999]
TCL: Setting parameter firsttimestep to 0
TCL: Setting parameter alchLambda to 0.34999999999999964
Info: NONBONDED TABLE R-SQUARED SPACING: 0.0625
Info: NONBONDED TABLE SIZE: 705 POINTS
TCL: Setting parameter alchLambda2 to 0.29999999999999966
Info: NONBONDED TABLE R-SQUARED SPACING: 0.0625
Info: NONBONDED TABLE SIZE: 705 POINTS
TCL: Running for 1500000 steps
ETITLE: TS BOND ANGLE DIHED IMPRP ELECT VDW BOUNDARY MISC KINETIC TOTAL TEMP POTENTIAL TOTALAVG TEMPAVG PRESSURE GPRESSURE VOLUME PRESSAVG GPRESSAVG
ENERGY: 0 3.7509 5.3226 6.4307 0.0000 -10574.2570 1337.8466 0.0000 0.0000 1810.1503 -7410.7557 306.7034 -9220.9060 -7410.7557 306.7034 -923.8776 -857.8434 31078.3875 -923.8776 -857.8434
ENERGY: 300000 1.4950 4.7294 3.5800 0.0000 -10699.2525 1379.4410 0.0000 0.0000 1784.7386 -7525.2685 302.3978 -9310.0072 -7481.0910 300.7904 -402.6668 -262.7617 29821.9011 -54.7878 3.1862
ENERGY: 600000 0.7970 6.7283 1.9541 0.0000 -10700.6893 1419.3816 0.0000 0.0000 1736.0488 -7535.7796 294.1480 -9271.8284 -7499.3416 299.4391 -31.7522 65.2076 30354.7564 -145.5956 -85.4374
ENERGY: 900000 1.8364 4.8073 2.6385 0.0000 -10812.4039 1448.1654 0.0000 0.0000 1824.3339 -7530.6224 309.1066 -9354.9563 -7508.3883 299.8766 -96.7982 -99.4019 30514.3893 -110.2742 -53.7518
ENERGY: 1200000 0.9722 5.8315 2.7940 0.0000 -10690.6269 1450.7860 0.0000 0.0000 1710.2830 -7519.9603 289.7823 -9230.2433 -7497.0333 300.0369 174.6754 178.0298 30516.4859 -35.4427 21.9571
ENERGY: 1500000 3.3532 10.7170 4.7250 0.0000 -10691.3594 1411.0862 0.0000 0.0000 1868.2210 -7393.2570 316.5426 -9261.4781 -7490.6777 301.0328 -206.7999 -151.7303 30554.8654 -88.9458 -28.4152
TCL: Running FEP window  15: Lambda1 0.29999999999999966 Lambda2 0.24999999999999967 [dLambda -0.04999999999999999]
TCL: Setting parameter firsttimestep to 0
TCL: Setting parameter alchLambda to 0.29999999999999966
Info: NONBONDED TABLE R-SQUARED SPACING: 0.0625
Info: NONBONDED TABLE SIZE: 705 POINTS
TCL: Setting parameter alchLambda2 to 0.24999999999999967
Info: NONBONDED TABLE R-SQUARED SPACING: 0.0625
Info: NONBONDED TABLE SIZE: 705 POINTS
TCL: Running for 1500000 steps
ETITLE: TS BOND ANGLE DIHED IMPRP ELECT VDW BOUNDARY MISC KINETIC TOTAL TEMP POTENTIAL TOTALAVG TEMPAVG PRESSURE GPRESSURE VOLUME PRESSAVG GPRESSAVG
ENERGY: 0 3.3532 10.7170 4.7250 0.0000 -10691.3591 1411.1753 0.0000 0.0000 1867.3517 -7394.0370 316.3953 -9261.3887 -7394.0370 316.3953 -244.3530 -157.0324 30554.8654 -244.3530 -157.0324
ENERGY: 300000 3.3012 6.3633 2.2297 0.0000 -10699.7755 1404.1885 0.0000 0.0000 1780.1046 -7503.5882 301.6126 -9283.6929 -7492.7855 306.2639 -442.1599 -410.1959 30650.9676 -373.6703 -307.8999
ENERGY: 600000 3.3978 12.7710 6.5189 0.0000 -10648.9244 1446.1673 0.0000 0.0000 1806.3807 -7373.6886 306.0647 -9180.0693 -7476.5733 303.3300 466.1895 590.6040 29908.9428 -232.7340 -153.8465
ENERGY: 900000 7.6001 10.0143 3.5132 0.0000 -10682.3940 1395.2461 0.0000 0.0000 1782.3850 -7483.6353 301.9990 -9266.0203 -7501.0253 303.0117 -793.0085 -682.6186 30552.8017 -194.6829 -117.7806
ENERGY: 1200000 1.8086 9.8047 2.0701 0.0000 -10761.1381 1460.3410 0.0000 0.0000 1838.0829 -7449.0308 311.4362 -9287.1137 -7500.3318 302.1907 362.6148 372.3996 30254.1308 -23.3911 39.9390
ENERGY: 1500000 2.8469 7.1724 2.1177 0.0000 -10694.2712 1381.8051 0.0000 0.0000 1715.6726 -7584.6564 290.6955 -9300.3291 -7504.5913 301.0867 -732.7722 -669.7171 30822.6560 -87.6386 -24.8191
TCL: Running FEP window  16: Lambda1 0.24999999999999967 Lambda2 0.19999999999999968 [dLambda -0.04999999999999999]
TCL: Setting parameter firsttimestep to 0
TCL: Setting parameter alchLambda to 0.24999999999999967
Info: NONBONDED TABLE R-SQUARED SPACING: 0.0625
Info: NONBONDED TABLE SIZE: 705 POINTS
TCL: Setting parameter alchLambda2 to 0.19999999999999968
Info: NONBONDED TABLE R-SQUARED SPACING: 0.0625
Info: NONBONDED TABLE SIZE: 705 POINTS
TCL: Running for 1500000 steps
ETITLE: TS BOND ANGLE DIHED IMPRP ELECT VDW BOUNDARY MISC KINETIC TOTAL TEMP POTENTIAL TOTALAVG TEMPAVG PRESSURE GPRESSURE VOLUME PRESSAVG GPRESSAVG
ENERGY: 0 2.8469 7.1724 2.1177 0.0000 -10694.2722 1382.0557 0.0000 0.0000 1714.7645 -7585.3151 290.5417 -9300.0796 -7585.3151 290.5417 -767.8851 -671.9264 30822.6560 -767.8851 -671.9264
ENERGY: 300000 2.6109 5.8963 5.8384 0.0000 -10682.5323 1391.0106 0.0000 0.0000 1749.4487 -7527.7273 296.4184 -9277.1761 -7541.0820 297.0648 -53.4045 -92.4464 29943.0062 -327.8624 -307.1101
ENERGY: 600000 3.5361 7.8771 4.1232 0.0000 -10649.5112 1417.9601 0.0000 0.0000 1818.8193 -7397.1954 308.1722 -9216.0147 -7516.7449 299.2750 -96.8929 -20.6979 30320.9140 -216.9847 -172.0682
ENERGY: 900000 3.5819 7.8247 3.5993 0.0000 -10641.4797 1392.0991 0.0000 0.0000 1827.6851 -7406.6896 309.6744 -9234.3747 -7507.2696 300.2393 -113.9811 -70.9766 30177.8794 -150.4862 -100.4147
ENERGY: 1200000 1.7269 7.6185 2.2096 0.0000 -10823.7393 1492.2649 0.0000 0.0000 1781.6884 -7538.2310 301.8809 -9319.9194 -7514.5319 299.7750 348.0316 373.1644 30174.5066 -78.7808 -29.1407
ENERGY: 1500000 4.2000 9.2225 3.1661 0.0000 -10727.0482 1459.2042 0.0000 0.0000 1769.7248 -7481.5305 299.8539 -9251.2554 -7518.4037 299.3404 19.6927 89.5009 30515.0852 -59.7117 -9.0753
TCL: Running FEP window  17: Lambda1 0.19999999999999968 Lambda2 0.1499999999999997 [dLambda -0.04999999999999999]
TCL: Setting parameter firsttimestep to 0
TCL: Setting parameter alchLambda to 0.19999999999999968
Info: NONBONDED TABLE R-SQUARED SPACING: 0.0625
Info: NONBONDED TABLE SIZE: 705 POINTS
TCL: Setting parameter alchLambda2 to 0.1499999999999997
Info: NONBONDED TABLE R-SQUARED SPACING: 0.0625
Info: NONBONDED TABLE SIZE: 705 POINTS
TCL: Running for 1500000 steps
ETITLE: TS BOND ANGLE DIHED IMPRP ELECT VDW BOUNDARY MISC KINETIC TOTAL TEMP POTENTIAL TOTALAVG TEMPAVG PRESSURE GPRESSURE VOLUME PRESSAVG GPRESSAVG
ENERGY: 0 4.2000 9.2225 3.1661 0.0000 -10727.0487 1459.6722 0.0000 0.0000 1768.8665 -7481.9213 299.7085 -9250.7878 -7481.9213 299.7085 -2.0143 88.9940 30515.0852 -2.0143 88.9940
ENERGY: 300000 4.0269 7.7687 3.7874 0.0000 -10744.1705 1462.6480 0.0000 0.0000 1800.9627 -7464.9767 305.1467 -9265.9395 -7447.4022 303.8996 528.6522 497.8105 29809.3503 -111.1029 -67.8989
ENERGY: 600000 1.7198 8.3838 2.9006 0.0000 -10562.4239 1366.7580 0.0000 0.0000 1788.6898 -7393.9719 303.0672 -9182.6617 -7472.2681 300.9615 -293.2821 -245.9486 30458.8738 51.9800 86.2072
ENERGY: 900000 2.9409 6.2041 4.8925 0.0000 -10804.4874 1496.4166 0.0000 0.0000 1771.1077 -7522.9256 300.0882 -9294.0333 -7492.0610 300.6997 508.7291 544.6584 29957.2674 117.6471 168.1359
ENERGY: 1200000 5.0409 8.8064 5.8960 0.0000 -10753.6571 1461.8041 0.0000 0.0000 1735.0743 -7537.0353 293.9829 -9272.1096 -7483.2682 300.7330 42.2049 97.1981 30367.2240 80.1815 137.5380
ENERGY: 1500000 5.3728 6.6234 7.4057 0.0000 -10705.4848 1432.1853 0.0000 0.0000 1777.7725 -7476.1251 301.2174 -9253.8976 -7483.1984 300.4080 -36.5813 -26.3391 30551.7175 49.2656 102.1975
TCL: Running FEP window  18: Lambda1 0.1499999999999997 Lambda2 0.09999999999999969 [dLambda -0.05 ]
TCL: Setting parameter firsttimestep to 0
TCL: Setting parameter alchLambda to 0.1499999999999997
Info: NONBONDED TABLE R-SQUARED SPACING: 0.0625
Info: NONBONDED TABLE SIZE: 705 POINTS
TCL: Setting parameter alchLambda2 to 0.09999999999999969
Info: NONBONDED TABLE R-SQUARED SPACING: 0.0625
Info: NONBONDED TABLE SIZE: 705 POINTS
TCL: Running for 1500000 steps
ETITLE: TS BOND ANGLE DIHED IMPRP ELECT VDW BOUNDARY MISC KINETIC TOTAL TEMP POTENTIAL TOTALAVG TEMPAVG PRESSURE GPRESSURE VOLUME PRESSAVG GPRESSAVG
ENERGY: 0 5.3728 6.6234 7.4057 0.0000 -10705.4832 1432.1813 0.0000 0.0000 1776.8823 -7477.0177 301.0666 -9253.9000 -7477.0177 301.0666 -106.2137 -30.6151 30551.7175 -106.2137 -30.6151
ENERGY: 300000 4.5943 6.2763 3.9009 0.0000 -10648.1241 1407.4444 0.0000 0.0000 1789.7515 -7436.1567 303.2471 -9225.9082 -7486.7374 299.2968 -171.7859 -112.0034 30213.6947 -18.5040 43.7070
ENERGY: 600000 3.9539 6.3177 2.6396 0.0000 -10751.0882 1437.3594 0.0000 0.0000 1723.8373 -7576.9804 292.0789 -9300.8177 -7509.2225 298.5224 208.9276 266.0425 29685.4345 -88.2300 -34.3609
ENERGY: 900000 5.0177 7.7239 4.7432 0.0000 -10718.2854 1465.6116 0.0000 0.0000 1847.9364 -7387.2525 313.1057 -9235.1889 -7492.3541 300.5720 206.8088 307.8991 30248.4206 -89.6060 -39.7376
ENERGY: 1200000 2.0425 8.7314 7.0429 0.0000 -10834.7770 1468.3961 0.0000 0.0000 1741.0878 -7607.4763 295.0018 -9348.5641 -7479.9622 301.4527 -7.6794 31.9887 30704.2706 -104.6911 -59.7691
ENERGY: 1500000 2.3361 4.8171 6.7937 0.0000 -10707.3321 1417.7484 0.0000 0.0000 1783.6482 -7491.9886 302.2130 -9275.6368 -7491.7443 300.5044 -286.9478 -173.6661 30460.7999 -145.7262 -90.1780
TCL: Running FEP window  19: Lambda1 0.09999999999999969 Lambda2 0.049999999999999684 [dLambda -0.05 ]
TCL: Setting parameter firsttimestep to 0
TCL: Setting parameter alchLambda to 0.09999999999999969
Info: NONBONDED TABLE R-SQUARED SPACING: 0.0625
Info: NONBONDED TABLE SIZE: 705 POINTS
TCL: Setting parameter alchLambda2 to 0.049999999999999684
Info: NONBONDED TABLE R-SQUARED SPACING: 0.0625
Info: NONBONDED TABLE SIZE: 705 POINTS
TCL: Running for 1500000 steps
ETITLE: TS BOND ANGLE DIHED IMPRP ELECT VDW BOUNDARY MISC KINETIC TOTAL TEMP POTENTIAL TOTALAVG TEMPAVG PRESSURE GPRESSURE VOLUME PRESSAVG GPRESSAVG
ENERGY: 0 2.3361 4.8171 6.7937 0.0000 -10707.3315 1417.1269 0.0000 0.0000 1782.7659 -7493.4918 302.0635 -9276.2576 -7493.4918 302.0635 -256.2648 -179.8222 30460.7999 -256.2648 -179.8222
ENERGY: 300000 3.1402 6.4674 4.6437 0.0000 -10697.4666 1484.7693 0.0000 0.0000 1723.1905 -7475.2555 291.9693 -9198.4461 -7472.2043 300.8438 499.4263 555.8870 30223.2497 -58.3642 28.7163
ENERGY: 600000 3.7460 5.8758 2.3363 0.0000 -10855.7168 1557.1051 0.0000 0.0000 1767.0073 -7519.6463 299.3934 -9286.6536 -7483.7592 300.9139 952.9449 1074.1432 29692.9814 104.3404 184.4086
ENERGY: 900000 4.1422 8.8664 4.2216 0.0000 -10830.9161 1523.6071 0.0000 0.0000 1749.5832 -7540.4956 296.4412 -9290.0788 -7493.8986 298.8753 587.6883 655.8866 30124.1366 263.6663 335.4716
ENERGY: 1200000 5.3396 4.9092 3.3188 0.0000 -10657.0145 1407.9350 0.0000 0.0000 1821.6901 -7413.8217 308.6586 -9235.5118 -7496.8009 300.1929 -610.1764 -583.7706 30801.9631 180.5837 237.6447
ENERGY: 1500000 1.1319 5.8002 2.6050 0.0000 -10714.3306 1424.9336 0.0000 0.0000 1809.8947 -7469.9652 306.6601 -9279.8599 -7501.5862 300.7895 -171.6511 -132.7160 30665.2298 167.5624 227.2418
TCL: Running FEP window  20: Lambda1 0.049999999999999684 Lambda2 0.0    [dLambda -0.049999999999999684]
TCL: Setting parameter firsttimestep to 0
TCL: Setting parameter alchLambda to 0.049999999999999684
Info: NONBONDED TABLE R-SQUARED SPACING: 0.0625
Info: NONBONDED TABLE SIZE: 705 POINTS
TCL: Setting parameter alchLambda2 to 0.0
Info: NONBONDED TABLE R-SQUARED SPACING: 0.0625
Info: NONBONDED TABLE SIZE: 705 POINTS
TCL: Running for 1500000 steps
ETITLE: TS BOND ANGLE DIHED IMPRP ELECT VDW BOUNDARY MISC KINETIC TOTAL TEMP POTENTIAL TOTALAVG TEMPAVG PRESSURE GPRESSURE VOLUME PRESSAVG GPRESSAVG
ENERGY: 0 1.1319 5.8002 2.6050 0.0000 -10714.3313 1424.2711 0.0000 0.0000 1808.9924 -7471.5307 306.5072 -9280.5231 -7471.5307 306.5072 -217.5691 -139.6331 30665.2298 -217.5691 -139.6331
ENERGY: 300000 3.2984 4.2662 1.4231 0.0000 -10763.2701 1459.5735 0.0000 0.0000 1813.4763 -7481.2325 307.2669 -9294.7088 -7492.4206 304.5649 86.0099 176.4058 30182.8609 -341.2464 -271.8117
ENERGY: 600000 3.5476 7.4474 6.7611 0.0000 -10758.2296 1472.6751 0.0000 0.0000 1767.9112 -7499.8871 299.5466 -9267.7984 -7506.5861 303.1129 11.8738 -4.2386 30424.9018 -214.1328 -169.8283
ENERGY: 900000 0.8517 8.1897 3.3842 0.0000 -10755.8120 1406.3894 0.0000 0.0000 1762.0035 -7574.9934 298.5456 -9336.9969 -7509.5403 301.6046 -564.9666 -522.2206 30381.1023 -271.3330 -216.6340
ENERGY: 1200000 3.6748 5.9138 3.5229 0.0000 -10857.2375 1448.2320 0.0000 0.0000 1734.7217 -7661.1724 293.9231 -9395.8941 -7527.2893 300.6079 -535.9123 -417.4393 30046.6004 -255.3816 -198.0647
ENERGY: 1500000 2.5345 8.1222 4.0589 0.0000 -10611.0195 1352.8339 0.0000 0.0000 1764.0213 -7479.4487 298.8875 -9243.4700 -7516.4420 300.2544 -752.9663 -651.2930 30431.8148 -369.4762 -304.3830
TCL: Exiting due to exit command.
