Info: SIMULATION PARAMETERS:
Info: TIMESTEP               2
Info: NUMBER OF STEPS        0
Info: STEPS PER CYCLE        10
Info: PERIODIC CELL BASIS 1  30.3033 0 0
Info: PERIODIC CELL BASIS 2  0 30.2085 0
Info: PERIODIC CELL BASIS 3  0 0 33.1771
Info: PERIODIC CELL CENTER   0 0 0
Info: WRAPPING WATERS AROUND PERIODIC BOUNDARIES ON OUTPUT.
Info: WRAPPING ALL CLUSTERS AROUND PERIODIC BOUNDARIES ON OUTPUT.
Info: FIRST LDB TIMESTEP     50
Info: LAST LDB TIMESTEP     -1
Info: HOM BACKGROUND SCALING 1
Info: PME BACKGROUND SCALING 1
Info: MIN ATOMS PER PATCH    40
Info: EMPTY PATCH LOAD       40 ATOMS
Info: VELOCITY FILE          mobley_628951_equil.vel
Info: CENTER OF MASS MOVING INITIALLY? NO
Info: DIELECTRIC             1
Info: EXCLUDE                SCALED ONE-FOUR
Info: 1-4 ELECTROSTATICS SCALED BY 0.833333
Info: MODIFIED 1-4 VDW PARAMETERS WILL BE USED
Info: DCD FILENAME           mobley_628951_prod.dcd
Info: DCD FREQUENCY          100000
Info: DCD FIRST STEP         100000
Info: DCD FILE WILL CONTAIN UNIT CELL DATA
Info: XST FILENAME           mobley_628951_prod.xst
Info: XST FREQUENCY          100000
Info: NO VELOCITY DCD OUTPUT
Info: NO FORCE DCD OUTPUT
Info: OUTPUT FILENAME        mobley_628951_prod
Info: BINARY OUTPUT FILES WILL BE USED
Info: RESTART FILENAME       mobley_628951_prod.restart
Info: RESTART FREQUENCY      100000
Info: BINARY RESTART FILES WILL BE USED
Info: CUTOFF                 9
Info: PAIRLIST DISTANCE      11
Info: PAIRLIST SHRINK RATE   0.01
Info: PAIRLIST GROW RATE     0.01
Info: PAIRLIST TRIGGER       0.3
Info: PAIRLISTS PER CYCLE    2
Info: PAIRLISTS ENABLED
Info: MARGIN                 2
Info: HYDROGEN GROUP CUTOFF  2.5
Info: PATCH DIMENSION        15.5
Info: ENERGY OUTPUT STEPS    100000
Info: ENERGY EVALUATION STEPS    100000
Info: OUTPUT ENERGY PRECISION 4
Info: CROSSTERM ENERGY INCLUDED IN DIHEDRAL
Info: TIMING OUTPUT STEPS    1000000
Info: PRESSURE OUTPUT STEPS  100000
Info: ALCHEMICAL FEP ON
Info: FEP CURRENT LAMBDA VALUE     1
Info: FEP COMPARISON LAMBDA VALUE  0.95
Info: FEP INTRA-ALCHEMICAL NON-BONDED INTERACTIONS WILL BE RETAINED
Info: FEP INTRA-ALCHEMICAL BONDED INTERACTIONS WILL BE RETAINED
Info: FEP VDW SHIFTING COEFFICIENT 5
Info: FEP ELEC. ACTIVE FOR ANNIHILATED PARTICLES BETWEEN LAMBDA = 0 AND LAMBDA = 0.5
Info: FEP ELEC. ACTIVE FOR EXNIHILATED PARTICLES BETWEEN LAMBDA = 0.5 AND LAMBDA = 1
Info: FEP VDW ACTIVE FOR ANNIHILATED PARTICLES BETWEEN LAMBDA = 0 AND LAMBDA = 1
Info: FEP VDW ACTIVE FOR EXNIHILATED PARTICLES BETWEEN LAMBDA = 0 AND LAMBDA = 1
Info: FEP BOND ACTIVE FOR ANNIHILATED PARTICLES BETWEEN LAMBDA = 1 AND LAMBDA = 1
Info: FEP BOND ACTIVE FOR EXNIHILATED PARTICLES BETWEEN LAMBDA = 0 AND LAMBDA = 0
Info: LANGEVIN DYNAMICS ACTIVE
Info: LANGEVIN TEMPERATURE   300
Info: LANGEVIN USING BBK INTEGRATOR
Info: LANGEVIN DAMPING COEFFICIENT IS 1 INVERSE PS
Info: LANGEVIN DYNAMICS APPLIED TO HYDROGENS
Info: LANGEVIN PISTON PRESSURE CONTROL ACTIVE
Info:        TARGET PRESSURE IS 1.01325 BAR
Info:     OSCILLATION PERIOD IS 50 FS
Info:             DECAY TIME IS 25 FS
Info:     PISTON TEMPERATURE IS 300 K
Info:       PRESSURE CONTROL IS GROUP-BASED
Info:    INITIAL STRAIN RATE IS 0.00021593 0.00021593 0.00021593
Info:       CELL FLUCTUATION IS ISOTROPIC
Info: PARTICLE MESH EWALD (PME) ACTIVE
Info: PME TOLERANCE               1e-06
Info: PME EWALD COEFFICIENT       0.348832
Info: PME INTERPOLATION ORDER     4
Info: PME GRID DIMENSIONS         32 32 36
Info: PME MAXIMUM GRID SPACING    1
Info: PME CALCULATION WILL BE PERFORMED ON GPU
Info: FULL ELECTROSTATIC EVALUATION FREQUENCY      2
Info: USING VERLET I (r-RESPA) MTS SCHEME.
Info: C1 SPLITTING OF LONG RANGE ELECTROSTATICS
Info: PLACING ATOMS IN PATCHES BY HYDROGEN GROUPS
Info: RIGID BONDS TO HYDROGEN : ALL
Info:         ERROR TOLERANCE : 1e-08
Info:          MAX ITERATIONS : 100
Info: RIGID WATER USING SETTLE ALGORITHM
Info: RANDOM NUMBER SEED     1743803706
Info: USE HYDROGEN BONDS?    NO
Info: Using AMBER format force field!
Info: AMBER PARM FILE        mobley_628951.prmtop
Info: COORDINATE PDB         mobley_628951.pdb
Info: Exclusions will be read from PARM file!
Info: SCNB (VDW SCALING)     2
Info: USING ARITHMETIC MEAN TO COMBINE L-J SIGMA PARAMETERS
Info: BINARY COORDINATES     mobley_628951_equil.coor
Info: SUMMARY OF PARAMETERS:
Info: 7 BONDS
Info: 7 ANGLES
Info:   7 HARMONIC
Info:   0 COSINE-BASED
Info: 3 DIHEDRAL
Info: 0 IMPROPER
Info: 0 CROSSTERM
Info: 0 VDW
Info: 15 VDW_PAIRS
Info: 0 NBTHOLE_PAIRS
Info: To read alchdata from file: mobley_628951.pdb
Info: To read alchflag data from column: 5
Info: STRUCTURE SUMMARY:
Info: 2935 ATOMS
Info: 2936 BONDS
Info: 36 ANGLES
Info: 64 DIHEDRALS
Info: 0 IMPROPERS
Info: 0 CROSSTERMS
Info: 3018 EXCLUSIONS
Info: 2919 RIGID BONDS
Info: ALCH: 0 ATOMS TO DISAPPEAR IN FINAL STATE
Info: ALCH: 22 ATOMS TO APPEAR IN FINAL STATE
Info: 5886 DEGREES OF FREEDOM
Info: 987 HYDROGEN GROUPS
Info: 3 ATOMS IN LARGEST HYDROGEN GROUP
Info: 987 MIGRATION GROUPS
Info: 3 ATOMS IN LARGEST MIGRATION GROUP
Info: TOTAL MASS = 17785.5 amu
Info: TOTAL CHARGE = 0.000399984 e
Info: MASS DENSITY = 0.97245 g/cm^3
Info: ATOM DENSITY = 0.0966385 atoms/A^3
Info: ADDED 0 IMPLICIT EXCLUSIONS
Info: NONBONDED TABLE R-SQUARED SPACING: 0.0625
Info: NONBONDED TABLE SIZE: 705 POINTS
Info: REMOVING COM VELOCITY -0.165417 0.0241368 -0.0992079
Info: Use 3D box decompostion in PME FFT.
Info: Updated CUDA force table with 4096 elements.
Info: Updated CUDA LJ table with 5 x 5 elements.
Info: Found 23 unique exclusion lists needing 64 bytes
TCL: Running for 1500000 steps
ETITLE: TS BOND ANGLE DIHED IMPRP ELECT VDW BOUNDARY MISC KINETIC TOTAL TEMP POTENTIAL TOTALAVG TEMPAVG PRESSURE GPRESSURE VOLUME PRESSAVG GPRESSAVG
ENERGY: 0 4.8577 6.9318 15.6726 0.0000 -10644.3938 1449.8181 0.0000 0.0000 1699.5065 -7467.6070 290.5982 -9167.1135 -7467.6070 290.5982 -9.6622 75.5266 30370.9271 -9.6622 75.5266
ENERGY: 300000 4.6361 7.0600 12.0885 0.0000 -10624.1176 1481.8156 0.0000 0.0000 1782.7248 -7335.7925 304.8277 -9118.5173 -7397.0099 294.9109 381.5670 513.5079 30414.3959 229.2473 296.3128
ENERGY: 600000 8.8749 6.0278 11.0534 0.0000 -10620.5595 1416.6315 0.0000 0.0000 1703.1963 -7474.7757 291.2291 -9177.9720 -7419.2389 293.8270 -64.6452 -10.0615 30213.1911 27.6709 112.2096
ENERGY: 900000 11.1631 3.7707 16.1141 0.0000 -10616.1650 1421.0069 0.0000 0.0000 1760.5654 -7403.5448 301.0387 -9164.1102 -7403.9841 296.2094 318.2916 390.3651 30093.6834 51.7584 121.6735
ENERGY: 1200000 8.0785 3.3825 13.9672 0.0000 -10587.0486 1442.6799 0.0000 0.0000 1704.1262 -7414.8143 291.3881 -9118.9405 -7406.0924 296.9820 172.6877 171.5193 30338.8106 80.4658 144.7428
ENERGY: 1500000 4.3469 2.9313 11.6374 0.0000 -10622.9584 1436.8194 0.0000 0.0000 1701.8982 -7465.3253 291.0072 -9167.2235 -7400.2043 297.9114 -49.6735 11.3192 30368.9167 32.1961 98.2583
TCL: Running FEP window   2: Lambda1 0.95   Lambda2 0.8999999999999999 [dLambda -0.050000000000000044]
TCL: Setting parameter firsttimestep to 0
TCL: Setting parameter alchLambda to 0.95
Info: NONBONDED TABLE R-SQUARED SPACING: 0.0625
Info: NONBONDED TABLE SIZE: 705 POINTS
TCL: Setting parameter alchLambda2 to 0.8999999999999999
Info: NONBONDED TABLE R-SQUARED SPACING: 0.0625
Info: NONBONDED TABLE SIZE: 705 POINTS
TCL: Running for 1500000 steps
ETITLE: TS BOND ANGLE DIHED IMPRP ELECT VDW BOUNDARY MISC KINETIC TOTAL TEMP POTENTIAL TOTALAVG TEMPAVG PRESSURE GPRESSURE VOLUME PRESSAVG GPRESSAVG
ENERGY: 0 4.3469 2.9313 11.6374 0.0000 -10622.2215 1437.1628 0.0000 0.0000 1700.9931 -7465.1501 290.8524 -9166.1432 -7465.1501 290.8524 -94.9413 -2.5300 30368.9167 -94.9413 -2.5300
ENERGY: 300000 7.8271 4.1789 10.6283 0.0000 -10537.9875 1391.9365 0.0000 0.0000 1773.7604 -7349.6563 303.2949 -9123.4167 -7413.7013 299.6596 54.4281 67.3289 30277.0845 -7.9199 39.7052
ENERGY: 600000 6.7600 4.4096 12.0791 0.0000 -10635.1371 1444.3381 0.0000 0.0000 1774.7462 -7392.8041 303.4634 -9167.5504 -7410.4937 300.6779 160.7540 259.8199 30450.6923 -134.2164 -69.2015
ENERGY: 900000 4.7519 5.0305 12.7267 0.0000 -10523.3278 1358.4040 0.0000 0.0000 1802.1774 -7340.2373 308.1539 -9142.4147 -7404.6644 301.9044 -82.5460 -87.2037 30298.9667 -37.9024 24.0253
ENERGY: 1200000 6.4862 5.3232 14.7711 0.0000 -10598.4686 1419.2630 0.0000 0.0000 1812.0422 -7340.5827 309.8407 -9152.6250 -7400.0849 301.4432 -151.0339 -130.3896 30352.8388 -40.2501 14.2819
ENERGY: 1500000 4.6343 4.8003 11.6577 0.0000 -10664.3140 1473.1875 0.0000 0.0000 1740.3554 -7429.6788 297.5830 -9170.0342 -7400.7203 300.6768 242.9835 297.5180 30707.8065 11.0185 65.2144
TCL: Running FEP window   3: Lambda1 0.8999999999999999 Lambda2 0.8499999999999999 [dLambda -0.050000000000000044]
TCL: Setting parameter firsttimestep to 0
TCL: Setting parameter alchLambda to 0.8999999999999999
Info: NONBONDED TABLE R-SQUARED SPACING: 0.0625
Info: NONBONDED TABLE SIZE: 705 POINTS
TCL: Setting parameter alchLambda2 to 0.8499999999999999
Info: NONBONDED TABLE R-SQUARED SPACING: 0.0625
Info: NONBONDED TABLE SIZE: 705 POINTS
TCL: Running for 1500000 steps
ETITLE: TS BOND ANGLE DIHED IMPRP ELECT VDW BOUNDARY MISC KINETIC TOTAL TEMP POTENTIAL TOTALAVG TEMPAVG PRESSURE GPRESSURE VOLUME PRESSAVG GPRESSAVG
ENERGY: 0 4.6342 4.8003 11.6577 0.0000 -10663.9304 1473.2603 0.0000 0.0000 1739.4903 -7430.0876 297.4350 -9169.5778 -7430.0876 297.4350 192.3394 278.3773 30707.8065 192.3394 278.3773
ENERGY: 300000 6.7299 2.6705 14.9772 0.0000 -10709.7923 1465.3887 0.0000 0.0000 1712.1163 -7507.9097 292.7544 -9220.0260 -7412.3639 299.5772 -19.5523 31.2865 30213.1815 186.9889 245.2201
ENERGY: 600000 6.4303 6.1942 12.5395 0.0000 -10609.4198 1389.6503 0.0000 0.0000 1751.1802 -7443.4253 299.4339 -9194.6055 -7417.0284 297.2073 -399.0339 -355.4148 29942.9559 87.4146 131.1446
ENERGY: 900000 8.2379 4.5062 14.7027 0.0000 -10571.8080 1395.9967 0.0000 0.0000 1738.5246 -7409.8399 297.2699 -9148.3644 -7427.8704 296.6404 -460.4791 -373.1849 30556.0902 79.6650 135.3678
ENERGY: 1200000 6.6955 9.7312 11.8540 0.0000 -10594.8353 1412.8149 0.0000 0.0000 1757.4968 -7396.2429 300.5140 -9153.7397 -7402.9620 299.5349 -542.2091 -423.7892 30639.1707 4.1856 72.0107
ENERGY: 1500000 9.9306 4.2224 16.1631 0.0000 -10541.5707 1317.8128 0.0000 0.0000 1826.7908 -7366.6509 312.3625 -9193.4417 -7400.6171 300.4739 -879.2781 -844.0075 30095.9296 -92.2426 -26.1822
TCL: Running FEP window   4: Lambda1 0.8499999999999999 Lambda2 0.7999999999999998 [dLambda -0.050000000000000044]
TCL: Setting parameter firsttimestep to 0
TCL: Setting parameter alchLambda to 0.8499999999999999
Info: NONBONDED TABLE R-SQUARED SPACING: 0.0625
Info: NONBONDED TABLE SIZE: 705 POINTS
TCL: Setting parameter alchLambda2 to 0.7999999999999998
Info: NONBONDED TABLE R-SQUARED SPACING: 0.0625
Info: NONBONDED TABLE SIZE: 705 POINTS
TCL: Running for 1500000 steps
ETITLE: TS BOND ANGLE DIHED IMPRP ELECT VDW BOUNDARY MISC KINETIC TOTAL TEMP POTENTIAL TOTALAVG TEMPAVG PRESSURE GPRESSURE VOLUME PRESSAVG GPRESSAVG
ENERGY: 0 9.9306 4.2224 16.1631 0.0000 -10541.1493 1317.7703 0.0000 0.0000 1825.9285 -7367.1344 312.2151 -9193.0629 -7367.1344 312.2151 -938.3104 -866.3475 30095.9296 -938.3104 -866.3475
ENERGY: 300000 8.2696 5.0794 13.4280 0.0000 -10616.7651 1394.5174 0.0000 0.0000 1699.4610 -7496.0096 290.5904 -9195.4707 -7443.1977 301.8434 -292.2383 -230.0481 30116.2908 -326.7276 -288.9470
ENERGY: 600000 5.1945 5.3663 11.3441 0.0000 -10562.4945 1402.9888 0.0000 0.0000 1748.5220 -7389.0788 298.9794 -9137.6008 -7414.7914 301.5549 -183.0265 -81.6341 30299.6864 -383.5189 -337.1162
ENERGY: 900000 9.3365 4.0811 13.1265 0.0000 -10507.1842 1407.3079 0.0000 0.0000 1742.4853 -7330.8470 297.9472 -9073.3322 -7404.4419 300.4376 -199.3390 -49.6221 30465.9569 -449.7672 -396.0480
ENERGY: 1200000 4.4410 7.4148 9.6363 0.0000 -10638.2363 1391.0250 0.0000 0.0000 1751.8590 -7473.8603 299.5500 -9225.7193 -7402.1131 300.1582 -379.5262 -399.9415 30282.7697 -440.5892 -389.6615
ENERGY: 1500000 8.1931 3.0723 14.4446 0.0000 -10546.5263 1339.4523 0.0000 0.0000 1764.4257 -7416.9384 301.6987 -9181.3640 -7402.1362 300.4994 -776.0292 -736.2599 30305.1667 -364.8552 -312.4315
TCL: Running FEP window   5: Lambda1 0.7999999999999998 Lambda2 0.7499999999999998 [dLambda -0.050000000000000044]
TCL: Setting parameter firsttimestep to 0
TCL: Setting parameter alchLambda to 0.7999999999999998
Info: NONBONDED TABLE R-SQUARED SPACING: 0.0625
Info: NONBONDED TABLE SIZE: 705 POINTS
TCL: Setting parameter alchLambda2 to 0.7499999999999998
Info: NONBONDED TABLE R-SQUARED SPACING: 0.0625
Info: NONBONDED TABLE SIZE: 705 POINTS
TCL: Running for 1500000 steps
ETITLE: TS BOND ANGLE DIHED IMPRP ELECT VDW BOUNDARY MISC KINETIC TOTAL TEMP POTENTIAL TOTALAVG TEMPAVG PRESSURE GPRESSURE VOLUME PRESSAVG GPRESSAVG
ENERGY: 0 8.1931 3.0723 14.4446 0.0000 -10545.9195 1339.7775 0.0000 0.0000 1763.5376 -7416.8945 301.5469 -9180.4320 -7416.8945 301.5469 -810.8694 -741.6690 30305.1667 -810.8694 -741.6690
ENERGY: 300000 6.7405 3.7017 11.6556 0.0000 -10756.0937 1469.3620 0.0000 0.0000 1789.1343 -7475.4996 305.9237 -9264.6339 -7419.0283 301.4937 142.5825 226.2698 29947.0608 -189.9432 -104.5069
ENERGY: 600000 9.1675 8.3524 12.8622 0.0000 -10695.6994 1500.2145 0.0000 0.0000 1790.8982 -7374.2047 306.2253 -9165.1029 -7408.0908 301.1850 504.3357 568.7772 30303.5159 -97.7752 -22.9167
ENERGY: 900000 4.4915 4.5080 12.5372 0.0000 -10581.1769 1420.2043 0.0000 0.0000 1700.2941 -7439.1418 290.7329 -9139.4359 -7401.6241 300.8814 96.6371 151.1535 30283.0398 -87.3825 -24.0349
ENERGY: 1200000 3.4662 8.2575 14.3919 0.0000 -10709.9397 1527.5527 0.0000 0.0000 1770.0437 -7386.2278 302.6594 -9156.2715 -7398.7330 301.2503 623.1486 679.2761 30396.2800 -25.2258 40.6152
ENERGY: 1500000 6.2042 4.8506 11.0620 0.0000 -10576.1198 1456.6255 0.0000 0.0000 1776.7632 -7320.6142 303.8083 -9097.3774 -7393.1439 301.4731 277.3652 342.7356 30483.4084 -12.4418 55.0080
TCL: Running FEP window   6: Lambda1 0.7499999999999998 Lambda2 0.6999999999999997 [dLambda -0.050000000000000044]
TCL: Setting parameter firsttimestep to 0
TCL: Setting parameter alchLambda to 0.7499999999999998
Info: NONBONDED TABLE R-SQUARED SPACING: 0.0625
Info: NONBONDED TABLE SIZE: 705 POINTS
TCL: Setting parameter alchLambda2 to 0.6999999999999997
Info: NONBONDED TABLE R-SQUARED SPACING: 0.0625
Info: NONBONDED TABLE SIZE: 705 POINTS
TCL: Running for 1500000 steps
ETITLE: TS BOND ANGLE DIHED IMPRP ELECT VDW BOUNDARY MISC KINETIC TOTAL TEMP POTENTIAL TOTALAVG TEMPAVG PRESSURE GPRESSURE VOLUME PRESSAVG GPRESSAVG
ENERGY: 0 6.2042 4.8506 11.0620 0.0000 -10575.7064 1456.8367 0.0000 0.0000 1775.8872 -7320.8657 303.6585 -9096.7529 -7320.8657 303.6585 243.2846 331.5334 30483.4084 243.2846 331.5334
ENERGY: 300000 4.9365 4.0536 11.2668 0.0000 -10876.7339 1554.1433 0.0000 0.0000 1709.9302 -7592.4035 292.3806 -9302.3336 -7438.3039 296.4372 297.6161 381.5999 30277.4933 133.5611 221.1887
ENERGY: 600000 8.6310 6.7621 13.6833 0.0000 -10496.5584 1381.7331 0.0000 0.0000 1754.7004 -7331.0484 300.0358 -9085.7488 -7390.6617 298.8839 -97.6120 -34.8384 30367.8530 41.5706 112.1634
ENERGY: 900000 7.5212 3.5578 12.4131 0.0000 -10528.7398 1417.8438 0.0000 0.0000 1707.8283 -7379.5755 292.0212 -9087.4038 -7395.9749 298.9289 -127.6125 -152.3168 30616.1385 -5.1728 58.4330
ENERGY: 1200000 7.4713 4.9022 10.9941 0.0000 -10478.0543 1337.5631 0.0000 0.0000 1770.1534 -7346.9702 302.6781 -9117.1236 -7386.7792 299.7828 -791.4174 -694.5843 30454.3960 -51.4963 15.8147
ENERGY: 1500000 6.2803 4.8254 12.5777 0.0000 -10593.4659 1387.1753 0.0000 0.0000 1789.5894 -7393.0176 306.0015 -9182.6071 -7376.7131 301.3873 -320.2115 -205.4744 30128.0664 -65.8912 2.3633
TCL: Running FEP window   7: Lambda1 0.6999999999999997 Lambda2 0.6499999999999997 [dLambda -0.050000000000000044]
TCL: Setting parameter firsttimestep to 0
TCL: Setting parameter alchLambda to 0.6999999999999997
Info: NONBONDED TABLE R-SQUARED SPACING: 0.0625
Info: NONBONDED TABLE SIZE: 705 POINTS
TCL: Setting parameter alchLambda2 to 0.6499999999999997
Info: NONBONDED TABLE R-SQUARED SPACING: 0.0625
Info: NONBONDED TABLE SIZE: 705 POINTS
TCL: Running for 1500000 steps
ETITLE: TS BOND ANGLE DIHED IMPRP ELECT VDW BOUNDARY MISC KINETIC TOTAL TEMP POTENTIAL TOTALAVG TEMPAVG PRESSURE GPRESSURE VOLUME PRESSAVG GPRESSAVG
ENERGY: 0 6.2803 4.8254 12.5777 0.0000 -10592.8094 1387.4998 0.0000 0.0000 1788.7330 -7392.8931 305.8550 -9181.6261 -7392.8931 305.8550 -309.8831 -216.6472 30128.0664 -309.8831 -216.6472
ENERGY: 300000 2.6125 4.7436 19.5174 0.0000 -10536.6483 1377.1290 0.0000 0.0000 1782.4916 -7350.1542 304.7878 -9132.6458 -7360.9685 301.8300 -309.4100 -269.2882 30376.1477 -510.9429 -441.5185
ENERGY: 600000 4.6048 4.1189 13.9275 0.0000 -10439.9009 1307.5808 0.0000 0.0000 1768.4060 -7341.2630 302.3793 -9109.6690 -7364.7738 301.3258 -645.2138 -602.7688 30196.9995 -436.3367 -368.0228
ENERGY: 900000 5.6599 2.3846 14.7857 0.0000 -10597.0041 1413.6342 0.0000 0.0000 1746.9817 -7413.5579 298.7160 -9160.5396 -7371.0057 300.9066 -241.5141 -143.7598 30332.7371 -360.7278 -290.8657
ENERGY: 1200000 6.1747 5.1726 10.1815 0.0000 -10431.2540 1345.1093 0.0000 0.0000 1746.1217 -7318.4942 298.5689 -9064.6159 -7373.3031 300.3540 -713.3871 -621.4326 30685.0199 -424.8645 -357.7050
ENERGY: 1500000 8.9520 4.0220 13.5848 0.0000 -10596.9353 1390.7113 0.0000 0.0000 1772.5786 -7407.0867 303.0928 -9179.6653 -7375.0199 300.7850 -271.2673 -162.7938 30262.6545 -422.3438 -352.0351
TCL: Running FEP window   8: Lambda1 0.6499999999999997 Lambda2 0.5999999999999996 [dLambda -0.050000000000000044]
TCL: Setting parameter firsttimestep to 0
TCL: Setting parameter alchLambda to 0.6499999999999997
Info: NONBONDED TABLE R-SQUARED SPACING: 0.0625
Info: NONBONDED TABLE SIZE: 705 POINTS
TCL: Setting parameter alchLambda2 to 0.5999999999999996
Info: NONBONDED TABLE R-SQUARED SPACING: 0.0625
Info: NONBONDED TABLE SIZE: 705 POINTS
TCL: Running for 1500000 steps
ETITLE: TS BOND ANGLE DIHED IMPRP ELECT VDW BOUNDARY MISC KINETIC TOTAL TEMP POTENTIAL TOTALAVG TEMPAVG PRESSURE GPRESSURE VOLUME PRESSAVG GPRESSAVG
ENERGY: 0 8.9520 4.0220 13.5848 0.0000 -10596.5389 1391.5590 0.0000 0.0000 1771.7086 -7406.7126 302.9440 -9178.4212 -7406.7126 302.9440 -257.0571 -162.5087 30262.6545 -257.0571 -162.5087
ENERGY: 300000 6.1362 5.8606 11.2711 0.0000 -10588.4096 1457.2000 0.0000 0.0000 1738.5951 -7369.3464 297.2820 -9107.9415 -7401.0431 299.4706 448.7834 503.0855 30211.2267 334.7618 366.0942
ENERGY: 600000 4.6045 3.7670 14.3339 0.0000 -10656.9797 1415.8502 0.0000 0.0000 1769.4299 -7448.9941 302.5544 -9218.4240 -7409.7471 299.2059 -212.5624 -97.2618 29713.4037 209.8956 262.2305
ENERGY: 900000 6.7475 5.6877 12.2654 0.0000 -10681.1689 1411.8783 0.0000 0.0000 1722.4054 -7522.1846 294.5137 -9244.5900 -7425.4848 298.1178 -306.5342 -288.2816 29938.5323 91.5108 135.0300
ENERGY: 1200000 5.2325 9.6626 13.3748 0.0000 -10568.6620 1329.8004 0.0000 0.0000 1764.0293 -7446.5624 301.6310 -9210.5917 -7419.2740 298.8150 -1210.5544 -1146.4777 30777.5555 -29.6193 23.6441
ENERGY: 1500000 5.4154 3.3368 11.2949 0.0000 -10522.9622 1406.0362 0.0000 0.0000 1756.2556 -7340.6234 300.3017 -9096.8790 -7404.9012 299.4287 -164.3609 -84.0702 30459.3312 -85.1647 -30.4324
TCL: Running FEP window   9: Lambda1 0.5999999999999996 Lambda2 0.5499999999999996 [dLambda -0.050000000000000044]
TCL: Setting parameter firsttimestep to 0
TCL: Setting parameter alchLambda to 0.5999999999999996
Info: NONBONDED TABLE R-SQUARED SPACING: 0.0625
Info: NONBONDED TABLE SIZE: 705 POINTS
TCL: Setting parameter alchLambda2 to 0.5499999999999996
Info: NONBONDED TABLE R-SQUARED SPACING: 0.0625
Info: NONBONDED TABLE SIZE: 705 POINTS
TCL: Running for 1500000 steps
ETITLE: TS BOND ANGLE DIHED IMPRP ELECT VDW BOUNDARY MISC KINETIC TOTAL TEMP POTENTIAL TOTALAVG TEMPAVG PRESSURE GPRESSURE VOLUME PRESSAVG GPRESSAVG
ENERGY: 0 5.4154 3.3368 11.2949 0.0000 -10522.5555 1406.5312 0.0000 0.0000 1755.3750 -7340.6023 300.1512 -9095.9773 -7340.6023 300.1512 -172.7009 -90.3815 30459.3312 -172.7009 -90.3815
ENERGY: 300000 7.4352 6.0755 11.1560 0.0000 -10610.3858 1460.0160 0.0000 0.0000 1695.0135 -7430.6896 289.8300 -9125.7031 -7400.9389 296.4390 507.5327 618.9081 29893.7201 -32.0181 30.6332
ENERGY: 600000 3.7180 6.6571 14.2390 0.0000 -10639.0974 1486.9704 0.0000 0.0000 1758.5605 -7368.9523 300.6959 -9127.5129 -7370.0721 299.4764 704.9247 734.8896 30268.7182 95.2393 155.5964
ENERGY: 900000 7.8206 5.1244 13.7308 0.0000 -10433.0777 1308.2701 0.0000 0.0000 1762.7594 -7335.3724 301.4138 -9098.1318 -7365.2245 300.2066 -787.0030 -779.0080 30649.2524 -158.0159 -97.1035
ENERGY: 1200000 5.2010 4.5786 14.5396 0.0000 -10507.9368 1432.3962 0.0000 0.0000 1775.6014 -7275.6201 303.6097 -9051.2215 -7350.1568 301.3826 335.0177 456.9673 30160.6944 35.4998 98.0321
ENERGY: 1500000 5.1964 4.8749 14.3228 0.0000 -10578.2243 1448.7881 0.0000 0.0000 1747.8813 -7357.1608 298.8698 -9105.0421 -7360.4407 300.8920 477.7555 571.9522 30054.9904 93.6426 158.7901
TCL: Running FEP window  10: Lambda1 0.5499999999999996 Lambda2 0.4999999999999996 [dLambda -0.04999999999999999]
TCL: Setting parameter firsttimestep to 0
TCL: Setting parameter alchLambda to 0.5499999999999996
Info: NONBONDED TABLE R-SQUARED SPACING: 0.0625
Info: NONBONDED TABLE SIZE: 705 POINTS
TCL: Setting parameter alchLambda2 to 0.4999999999999996
Info: NONBONDED TABLE R-SQUARED SPACING: 0.0625
Info: NONBONDED TABLE SIZE: 705 POINTS
TCL: Running for 1500000 steps
ETITLE: TS BOND ANGLE DIHED IMPRP ELECT VDW BOUNDARY MISC KINETIC TOTAL TEMP POTENTIAL TOTALAVG TEMPAVG PRESSURE GPRESSURE VOLUME PRESSAVG GPRESSAVG
ENERGY: 0 5.1964 4.8749 14.3228 0.0000 -10577.9997 1449.1964 0.0000 0.0000 1747.0131 -7357.3961 298.7214 -9104.4093 -7357.3961 298.7214 475.3823 564.7154 30054.9904 475.3823 564.7154
ENERGY: 300000 4.5383 7.7642 12.2546 0.0000 -10666.0692 1495.6815 0.0000 0.0000 1763.0528 -7382.7778 301.4640 -9145.8306 -7366.4455 301.2991 929.5691 1009.2349 29762.8541 176.3053 234.0202
ENERGY: 600000 6.1648 4.5807 13.8787 0.0000 -10716.9838 1512.7393 0.0000 0.0000 1750.5469 -7429.0734 299.3256 -9179.6203 -7394.6996 300.1787 811.4765 875.7908 29912.4279 80.9059 153.3119
ENERGY: 900000 7.2145 5.4471 13.6077 0.0000 -10507.8559 1327.4024 0.0000 0.0000 1730.2947 -7423.8895 295.8627 -9154.1842 -7399.7356 299.7749 -785.2487 -685.9972 30195.6677 -105.1383 -36.0863
ENERGY: 1200000 8.1962 6.8592 15.5842 0.0000 -10667.9271 1522.3905 0.0000 0.0000 1762.5875 -7352.3095 301.3844 -9114.8970 -7389.1607 300.2192 858.6305 933.2278 29981.4480 42.0341 106.9236
ENERGY: 1500000 7.5288 5.0609 12.7412 0.0000 -10428.0494 1339.1047 0.0000 0.0000 1713.8034 -7349.8104 293.0428 -9063.6137 -7382.1472 299.0708 -716.9556 -590.1061 30273.8546 10.7679 82.2720
TCL: Running FEP window  11: Lambda1 0.4999999999999996 Lambda2 0.4499999999999996 [dLambda -0.04999999999999999]
TCL: Setting parameter firsttimestep to 0
TCL: Setting parameter alchLambda to 0.4999999999999996
Info: NONBONDED TABLE R-SQUARED SPACING: 0.0625
Info: NONBONDED TABLE SIZE: 705 POINTS
TCL: Setting parameter alchLambda2 to 0.4499999999999996
Info: NONBONDED TABLE R-SQUARED SPACING: 0.0625
Info: NONBONDED TABLE SIZE: 705 POINTS
TCL: Running for 1500000 steps
ETITLE: TS BOND ANGLE DIHED IMPRP ELECT VDW BOUNDARY MISC KINETIC TOTAL TEMP POTENTIAL TOTALAVG TEMPAVG PRESSURE GPRESSURE VOLUME PRESSAVG GPRESSAVG
ENERGY: 0 7.5288 5.0609 12.7412 0.0000 -10427.9225 1340.0209 0.0000 0.0000 1712.9403 -7349.6304 292.8953 -9062.5707 -7349.6304 292.8953 -679.1747 -591.1397 30273.8546 -679.1747 -591.1397
ENERGY: 300000 3.2336 3.3043 15.3002 0.0000 -10567.9424 1418.4563 0.0000 0.0000 1754.1097 -7373.5384 299.9348 -9127.6481 -7380.7847 297.5039 -29.7814 22.2169 30235.0737 -96.9125 -29.3472
ENERGY: 600000 4.1221 8.0352 11.9686 0.0000 -10583.9455 1448.1410 0.0000 0.0000 1725.0789 -7386.5998 294.9708 -9111.6786 -7384.4970 297.9024 152.1702 239.1298 30185.1190 -190.6211 -110.2460
ENERGY: 900000 9.0168 2.9009 9.7214 0.0000 -10762.6790 1514.1652 0.0000 0.0000 1796.9059 -7429.9689 307.2525 -9226.8748 -7396.0680 298.8869 308.5962 388.7230 29789.1414 -169.6426 -98.9862
ENERGY: 1200000 6.7187 7.3519 12.9698 0.0000 -10626.2425 1433.0138 0.0000 0.0000 1807.6952 -7358.4931 309.0974 -9166.1883 -7382.2780 299.8962 -423.6491 -291.0834 30919.8871 -211.3779 -138.0717
ENERGY: 1500000 4.1850 7.9576 11.6592 0.0000 -10641.7817 1465.4364 0.0000 0.0000 1718.0278 -7434.5156 293.7652 -9152.5434 -7392.7787 299.2547 33.0897 128.4975 30536.0067 -256.4362 -178.9288
TCL: Running FEP window  12: Lambda1 0.4499999999999996 Lambda2 0.39999999999999963 [dLambda -0.04999999999999999]
TCL: Setting parameter firsttimestep to 0
TCL: Setting parameter alchLambda to 0.4499999999999996
Info: NONBONDED TABLE R-SQUARED SPACING: 0.0625
Info: NONBONDED TABLE SIZE: 705 POINTS
TCL: Setting parameter alchLambda2 to 0.39999999999999963
Info: NONBONDED TABLE R-SQUARED SPACING: 0.0625
Info: NONBONDED TABLE SIZE: 705 POINTS
TCL: Running for 1500000 steps
ETITLE: TS BOND ANGLE DIHED IMPRP ELECT VDW BOUNDARY MISC KINETIC TOTAL TEMP POTENTIAL TOTALAVG TEMPAVG PRESSURE GPRESSURE VOLUME PRESSAVG GPRESSAVG
ENERGY: 0 4.1850 7.9576 11.6592 0.0000 -10641.7807 1466.2173 0.0000 0.0000 1717.1560 -7434.6055 293.6161 -9151.7615 -7434.6055 293.6161 29.1667 125.6440 30536.0067 29.1667 125.6440
ENERGY: 300000 4.5442 4.4171 12.4423 0.0000 -10704.4380 1464.9988 0.0000 0.0000 1703.7087 -7514.3269 291.3168 -9218.0356 -7439.6022 294.8812 14.1446 25.0251 30434.8060 -195.0408 -133.9734
ENERGY: 600000 4.0484 7.0670 13.5937 0.0000 -10459.8744 1389.7802 0.0000 0.0000 1772.0672 -7273.3179 303.0054 -9045.3851 -7400.8266 297.4269 23.7302 45.2911 30312.7853 25.2592 86.9795
ENERGY: 900000 2.9123 3.9434 13.8267 0.0000 -10807.6511 1510.0939 0.0000 0.0000 1782.3685 -7494.5062 304.7668 -9276.8747 -7392.5806 298.5837 672.4924 712.8008 29818.5720 70.6488 119.2576
ENERGY: 1200000 11.4271 5.8840 9.7808 0.0000 -10641.6041 1425.1120 0.0000 0.0000 1757.7519 -7431.6484 300.5576 -9189.4003 -7391.7692 298.2826 -304.9383 -244.9446 30320.2643 168.1078 216.4119
ENERGY: 1500000 5.0564 9.1706 12.7519 0.0000 -10556.9462 1395.0408 0.0000 0.0000 1712.7474 -7422.1791 292.8623 -9134.9265 -7391.3141 298.0125 -458.4626 -445.0278 30366.0621 127.2269 174.7766
TCL: Running FEP window  13: Lambda1 0.39999999999999963 Lambda2 0.34999999999999964 [dLambda -0.04999999999999999]
TCL: Setting parameter firsttimestep to 0
TCL: Setting parameter alchLambda to 0.39999999999999963
Info: NONBONDED TABLE R-SQUARED SPACING: 0.0625
Info: NONBONDED TABLE SIZE: 705 POINTS
TCL: Setting parameter alchLambda2 to 0.34999999999999964
Info: NONBONDED TABLE R-SQUARED SPACING: 0.0625
Info: NONBONDED TABLE SIZE: 705 POINTS
TCL: Running for 1500000 steps
ETITLE: TS BOND ANGLE DIHED IMPRP ELECT VDW BOUNDARY MISC KINETIC TOTAL TEMP POTENTIAL TOTALAVG TEMPAVG PRESSURE GPRESSURE VOLUME PRESSAVG GPRESSAVG
ENERGY: 0 5.0564 9.1706 12.7519 0.0000 -10556.9462 1395.7214 0.0000 0.0000 1711.8853 -7422.3607 292.7149 -9134.2460 -7422.3607 292.7149 -541.9727 -448.7787 30366.0621 -541.9727 -448.7787
ENERGY: 300000 2.8248 4.4291 12.4447 0.0000 -10455.0518 1389.3120 0.0000 0.0000 1727.7250 -7318.3162 295.4233 -9046.0412 -7369.7067 300.0281 -175.9833 -34.7819 30520.1557 85.1191 181.1052
ENERGY: 600000 9.2914 2.2008 11.6633 0.0000 -10498.4087 1328.6334 0.0000 0.0000 1775.8031 -7370.8168 303.6442 -9146.6199 -7381.2184 300.3480 -1076.7819 -1014.3304 30394.2642 -128.6460 -46.9807
ENERGY: 900000 12.6315 4.0435 12.6109 0.0000 -10534.6917 1441.0399 0.0000 0.0000 1754.8523 -7309.5136 300.0618 -9064.3659 -7385.3015 300.4838 -147.2264 -131.0609 30646.3005 -121.8788 -53.7546
ENERGY: 1200000 8.2668 6.4912 12.8978 0.0000 -10677.1960 1456.4572 0.0000 0.0000 1797.0983 -7395.9846 307.2854 -9193.0829 -7395.9918 300.1838 118.4027 169.5794 29948.2081 -152.3161 -82.1327
ENERGY: 1500000 2.1696 4.4770 15.1391 0.0000 -10512.5508 1416.4430 0.0000 0.0000 1720.8447 -7353.4774 294.2468 -9074.3221 -7400.3564 300.0332 135.5482 158.9158 30382.8004 -65.0230 -1.8925
TCL: Running FEP window  14: Lambda1 0.34999999999999964 Lambda2 0.29999999999999966 [dLambda -0.04999999999999999]
TCL: Setting parameter firsttimestep to 0
TCL: Setting parameter alchLambda to 0.34999999999999964
Info: NONBONDED TABLE R-SQUARED SPACING: 0.0625
Info: NONBONDED TABLE SIZE: 705 POINTS
TCL: Setting parameter alchLambda2 to 0.29999999999999966
Info: NONBONDED TABLE R-SQUARED SPACING: 0.0625
Info: NONBONDED TABLE SIZE: 705 POINTS
TCL: Running for 1500000 steps
ETITLE: TS BOND ANGLE DIHED IMPRP ELECT VDW BOUNDARY MISC KINETIC TOTAL TEMP POTENTIAL TOTALAVG TEMPAVG PRESSURE GPRESSURE VOLUME PRESSAVG GPRESSAVG
ENERGY: 0 2.1696 4.4770 15.1391 0.0000 -10512.5499 1417.0714 0.0000 0.0000 1719.9641 -7353.7287 294.0963 -9073.6928 -7353.7287 294.0963 80.3761 158.5383 30382.8004 80.3761 158.5383
ENERGY: 300000 5.3159 5.0167 11.1036 0.0000 -10529.2800 1417.5594 0.0000 0.0000 1706.1253 -7384.1593 291.7300 -9090.2846 -7384.4895 295.2926 -62.2432 67.8097 30087.3971 171.2104 220.2347
ENERGY: 600000 6.5615 8.1195 11.1768 0.0000 -10576.4079 1386.5557 0.0000 0.0000 1733.8402 -7430.1543 296.4689 -9163.9945 -7385.5912 299.0795 -635.7485 -623.8995 30348.9663 -12.7937 38.6189
ENERGY: 900000 3.3071 4.4894 14.6363 0.0000 -10626.1803 1470.7373 0.0000 0.0000 1765.2174 -7367.7928 301.8341 -9133.0102 -7385.2957 300.2395 328.0822 363.2471 30181.6375 -34.7896 22.1278
ENERGY: 1200000 4.1527 1.9540 9.3241 0.0000 -10545.7857 1417.9310 0.0000 0.0000 1777.6493 -7334.7746 303.9598 -9112.4238 -7382.8047 300.3490 137.7547 161.3042 29996.2430 73.6985 115.5983
ENERGY: 1500000 6.0686 3.6093 14.5678 0.0000 -10453.6077 1375.0970 0.0000 0.0000 1771.2150 -7283.0500 302.8596 -9054.2650 -7381.7069 300.1438 -364.0188 -231.4389 30309.0316 58.6276 102.4420
TCL: Running FEP window  15: Lambda1 0.29999999999999966 Lambda2 0.24999999999999967 [dLambda -0.04999999999999999]
TCL: Setting parameter firsttimestep to 0
TCL: Setting parameter alchLambda to 0.29999999999999966
Info: NONBONDED TABLE R-SQUARED SPACING: 0.0625
Info: NONBONDED TABLE SIZE: 705 POINTS
TCL: Setting parameter alchLambda2 to 0.24999999999999967
Info: NONBONDED TABLE R-SQUARED SPACING: 0.0625
Info: NONBONDED TABLE SIZE: 705 POINTS
TCL: Running for 1500000 steps
ETITLE: TS BOND ANGLE DIHED IMPRP ELECT VDW BOUNDARY MISC KINETIC TOTAL TEMP POTENTIAL TOTALAVG TEMPAVG PRESSURE GPRESSURE VOLUME PRESSAVG GPRESSAVG
ENERGY: 0 6.0686 3.6093 14.5678 0.0000 -10453.6080 1375.6718 0.0000 0.0000 1770.3551 -7283.3354 302.7126 -9053.6905 -7283.3354 302.7126 -311.3389 -233.4289 30309.0316 -311.3389 -233.4289
ENERGY: 300000 4.0473 5.2772 13.6412 0.0000 -10634.2894 1469.1620 0.0000 0.0000 1755.4510 -7386.7107 300.1642 -9142.1617 -7342.6611 302.1509 173.0480 195.5887 30066.1650 -57.1307 -11.3389
ENERGY: 600000 6.7140 5.5502 13.2763 0.0000 -10520.3266 1392.6658 0.0000 0.0000 1767.1040 -7335.0162 302.1567 -9102.1202 -7342.1449 302.1322 -450.1400 -344.7281 30732.8029 5.9062 51.8179
ENERGY: 900000 4.9103 3.7240 12.7405 0.0000 -10579.8526 1444.5224 0.0000 0.0000 1745.0451 -7368.9102 298.3849 -9113.9553 -7356.2553 301.6380 226.2206 268.2179 30202.7623 110.2064 165.5428
ENERGY: 1200000 3.8587 5.0502 10.4756 0.0000 -10660.6332 1417.6509 0.0000 0.0000 1740.1110 -7483.4868 297.5412 -9223.5979 -7367.2176 301.7069 -208.3345 -130.3956 30002.3381 95.3856 155.3774
ENERGY: 1500000 4.6351 6.3063 12.6599 0.0000 -10502.5719 1378.4767 0.0000 0.0000 1759.3890 -7341.1050 300.8375 -9100.4939 -7361.5985 302.2079 -307.0737 -198.6558 30174.2471 17.0752 82.1617
TCL: Running FEP window  16: Lambda1 0.24999999999999967 Lambda2 0.19999999999999968 [dLambda -0.04999999999999999]
TCL: Setting parameter firsttimestep to 0
TCL: Setting parameter alchLambda to 0.24999999999999967
Info: NONBONDED TABLE R-SQUARED SPACING: 0.0625
Info: NONBONDED TABLE SIZE: 705 POINTS
TCL: Setting parameter alchLambda2 to 0.19999999999999968
Info: NONBONDED TABLE R-SQUARED SPACING: 0.0625
Info: NONBONDED TABLE SIZE: 705 POINTS
TCL: Running for 1500000 steps
ETITLE: TS BOND ANGLE DIHED IMPRP ELECT VDW BOUNDARY MISC KINETIC TOTAL TEMP POTENTIAL TOTALAVG TEMPAVG PRESSURE GPRESSURE VOLUME PRESSAVG GPRESSAVG
ENERGY: 0 4.6351 6.3063 12.6599 0.0000 -10502.5723 1378.2375 0.0000 0.0000 1758.5174 -7342.2160 300.6885 -9100.7334 -7342.2160 300.6885 -311.3831 -207.4253 30174.2471 -311.3831 -207.4253
ENERGY: 300000 5.0469 3.9820 12.3480 0.0000 -10698.3020 1493.2459 0.0000 0.0000 1731.1184 -7452.5609 296.0035 -9183.6793 -7401.4971 298.9234 688.4141 783.6331 29648.7065 79.3199 150.1392
ENERGY: 600000 7.3049 5.3636 15.5209 0.0000 -10588.1002 1433.6268 0.0000 0.0000 1800.0821 -7326.2020 307.7956 -9126.2840 -7379.2446 299.7087 -9.8829 -27.7934 30503.8552 252.7276 305.4380
ENERGY: 900000 5.4084 6.3022 14.0514 0.0000 -10493.5836 1403.7513 0.0000 0.0000 1762.4509 -7301.6193 301.3611 -9064.0703 -7364.3557 301.1884 -93.8895 33.2533 30272.0295 60.4960 113.3271
ENERGY: 1200000 2.5393 8.0104 14.2824 0.0000 -10581.2043 1428.1451 0.0000 0.0000 1713.9115 -7414.3156 293.0613 -9128.2271 -7373.8021 300.0837 138.0595 176.8778 30212.6225 -10.3753 50.1281
ENERGY: 1500000 7.1603 4.6161 11.9502 0.0000 -10418.9412 1339.0438 0.0000 0.0000 1749.5069 -7306.6639 299.1478 -9056.1708 -7363.3618 301.0155 -612.7047 -527.5559 30821.3571 -14.2236 44.6538
TCL: Running FEP window  17: Lambda1 0.19999999999999968 Lambda2 0.1499999999999997 [dLambda -0.04999999999999999]
TCL: Setting parameter firsttimestep to 0
TCL: Setting parameter alchLambda to 0.19999999999999968
Info: NONBONDED TABLE R-SQUARED SPACING: 0.0625
Info: NONBONDED TABLE SIZE: 705 POINTS
TCL: Setting parameter alchLambda2 to 0.1499999999999997
Info: NONBONDED TABLE R-SQUARED SPACING: 0.0625
Info: NONBONDED TABLE SIZE: 705 POINTS
TCL: Running for 1500000 steps
ETITLE: TS BOND ANGLE DIHED IMPRP ELECT VDW BOUNDARY MISC KINETIC TOTAL TEMP POTENTIAL TOTALAVG TEMPAVG PRESSURE GPRESSURE VOLUME PRESSAVG GPRESSAVG
ENERGY: 0 7.1603 4.6161 11.9502 0.0000 -10418.9405 1338.9583 0.0000 0.0000 1748.6385 -7307.6171 298.9993 -9056.2555 -7307.6171 298.9993 -634.0765 -533.9065 30821.3571 -634.0765 -533.9065
ENERGY: 300000 4.4426 3.4155 11.3963 0.0000 -10658.3874 1438.9056 0.0000 0.0000 1784.1833 -7416.0443 305.0771 -9200.2276 -7361.7934 299.7040 -327.9122 -284.2093 30585.4830 -234.5026 -171.1907
ENERGY: 600000 8.7070 7.7516 13.4826 0.0000 -10528.3575 1361.3867 0.0000 0.0000 1756.9982 -7380.0314 300.4287 -9137.0295 -7369.4474 300.3401 -779.6193 -740.8885 30168.2084 -341.2308 -283.4515
ENERGY: 900000 3.8504 4.6396 12.7100 0.0000 -10567.9746 1411.0100 0.0000 0.0000 1733.3731 -7402.3914 296.3891 -9135.7645 -7373.5900 300.6714 -304.2921 -190.2128 30275.7847 -247.3922 -181.9506
ENERGY: 1200000 4.2420 5.5311 12.7495 0.0000 -10574.9530 1388.0683 0.0000 0.0000 1751.1159 -7413.2462 299.4229 -9164.3621 -7374.9903 300.5149 -565.6634 -419.1303 30283.2169 -200.7183 -128.0245
ENERGY: 1500000 2.9951 6.8632 14.9054 0.0000 -10621.2415 1496.6201 0.0000 0.0000 1690.5272 -7409.3304 289.0629 -9099.8576 -7377.7636 300.2391 427.7136 532.5423 30389.2691 -103.9553 -27.4771
TCL: Running FEP window  18: Lambda1 0.1499999999999997 Lambda2 0.09999999999999969 [dLambda -0.05 ]
TCL: Setting parameter firsttimestep to 0
TCL: Setting parameter alchLambda to 0.1499999999999997
Info: NONBONDED TABLE R-SQUARED SPACING: 0.0625
Info: NONBONDED TABLE SIZE: 705 POINTS
TCL: Setting parameter alchLambda2 to 0.09999999999999969
Info: NONBONDED TABLE R-SQUARED SPACING: 0.0625
Info: NONBONDED TABLE SIZE: 705 POINTS
TCL: Running for 1500000 steps
ETITLE: TS BOND ANGLE DIHED IMPRP ELECT VDW BOUNDARY MISC KINETIC TOTAL TEMP POTENTIAL TOTALAVG TEMPAVG PRESSURE GPRESSURE VOLUME PRESSAVG GPRESSAVG
ENERGY: 0 2.9951 6.8632 14.9054 0.0000 -10621.2426 1496.9928 0.0000 0.0000 1689.6491 -7409.8369 288.9127 -9099.4861 -7409.8369 288.9127 440.2122 527.4269 30389.2691 440.2122 527.4269
ENERGY: 300000 6.0900 4.0008 14.2318 0.0000 -10604.8009 1390.8465 0.0000 0.0000 1772.0495 -7417.5823 303.0023 -9189.6318 -7401.6469 294.4917 -477.4193 -312.4562 30482.8677 -66.3259 28.3462
ENERGY: 600000 7.6923 7.1294 12.3291 0.0000 -10595.9792 1441.9790 0.0000 0.0000 1830.6653 -7296.1840 313.0250 -9126.8493 -7370.6551 301.2729 54.9608 118.5199 30046.7919 -114.9958 -41.9964
ENERGY: 900000 4.6839 7.2816 12.8887 0.0000 -10569.2808 1472.4013 0.0000 0.0000 1735.0087 -7337.0166 296.6687 -9072.0253 -7375.6515 301.1030 815.5291 860.8305 29895.9085 27.1751 93.9041
ENERGY: 1200000 5.6750 7.4408 14.8344 0.0000 -10557.9828 1351.6018 0.0000 0.0000 1744.4175 -7434.0133 298.2775 -9178.4308 -7376.0319 301.3254 -545.1167 -558.0669 29780.8118 5.3203 65.5985
ENERGY: 1500000 6.8804 5.2147 13.2156 0.0000 -10657.3323 1484.8701 0.0000 0.0000 1739.6003 -7407.5513 297.4538 -9147.1516 -7377.4213 301.3383 421.8343 489.6278 30089.1923 15.2135 70.7390
TCL: Running FEP window  19: Lambda1 0.09999999999999969 Lambda2 0.049999999999999684 [dLambda -0.05 ]
TCL: Setting parameter firsttimestep to 0
TCL: Setting parameter alchLambda to 0.09999999999999969
Info: NONBONDED TABLE R-SQUARED SPACING: 0.0625
Info: NONBONDED TABLE SIZE: 705 POINTS
TCL: Setting parameter alchLambda2 to 0.049999999999999684
Info: NONBONDED TABLE R-SQUARED SPACING: 0.0625
Info: NONBONDED TABLE SIZE: 705 POINTS
TCL: Running for 1500000 steps
ETITLE: TS BOND ANGLE DIHED IMPRP ELECT VDW BOUNDARY MISC KINETIC TOTAL TEMP POTENTIAL TOTALAVG TEMPAVG PRESSURE GPRESSURE VOLUME PRESSAVG GPRESSAVG
ENERGY: 0 6.8804 5.2147 13.2156 0.0000 -10657.3330 1484.0880 0.0000 0.0000 1738.7303 -7409.2041 297.3051 -9147.9344 -7409.2041 297.3051 406.3011 480.0049 30089.1923 406.3011 480.0049
ENERGY: 300000 6.5865 5.1605 15.8877 0.0000 -10673.4963 1486.8592 0.0000 0.0000 1720.8916 -7438.1107 294.2549 -9159.0023 -7438.2157 296.3118 347.5626 408.2343 29953.5667 272.7957 329.3346
ENERGY: 600000 7.3142 5.1583 10.4833 0.0000 -10540.7223 1440.3077 0.0000 0.0000 1786.0755 -7291.3832 305.4006 -9077.4588 -7408.6655 299.2295 232.5149 254.8215 30178.3235 111.2169 158.1455
ENERGY: 900000 7.6779 4.6736 13.5855 0.0000 -10536.5643 1383.7399 0.0000 0.0000 1764.6225 -7362.2649 301.7324 -9126.8873 -7383.0515 301.5609 -166.9821 -78.6736 29903.1224 128.0959 173.0188
ENERGY: 1200000 1.9278 5.7826 9.5235 0.0000 -10710.5633 1532.2066 0.0000 0.0000 1748.0646 -7413.0582 298.9012 -9161.1228 -7386.5760 300.6004 916.3744 1026.6014 29662.5986 110.3966 161.9889
ENERGY: 1500000 5.6154 3.4567 15.1633 0.0000 -10601.0675 1400.9094 0.0000 0.0000 1745.6715 -7430.2513 298.4920 -9175.9228 -7391.4744 300.7216 -245.1140 -175.0317 29934.5297 39.4110 93.4577
TCL: Running FEP window  20: Lambda1 0.049999999999999684 Lambda2 0.0    [dLambda -0.049999999999999684]
TCL: Setting parameter firsttimestep to 0
TCL: Setting parameter alchLambda to 0.049999999999999684
Info: NONBONDED TABLE R-SQUARED SPACING: 0.0625
Info: NONBONDED TABLE SIZE: 705 POINTS
TCL: Setting parameter alchLambda2 to 0.0
Info: NONBONDED TABLE R-SQUARED SPACING: 0.0625
Info: NONBONDED TABLE SIZE: 705 POINTS
TCL: Running for 1500000 steps
ETITLE: TS BOND ANGLE DIHED IMPRP ELECT VDW BOUNDARY MISC KINETIC TOTAL TEMP POTENTIAL TOTALAVG TEMPAVG PRESSURE GPRESSURE VOLUME PRESSAVG GPRESSAVG
ENERGY: 0 5.6154 3.4567 15.1633 0.0000 -10601.0678 1399.4922 0.0000 0.0000 1744.7733 -7432.5670 298.3384 -9177.3403 -7432.5670 298.3384 -278.9410 -186.0326 29934.5297 -278.9410 -186.0326
ENERGY: 300000 2.8027 4.9711 15.2194 0.0000 -10539.4888 1408.5723 0.0000 0.0000 1784.5633 -7323.3601 305.1421 -9107.9233 -7356.5263 301.6712 -2.6738 95.5345 29727.0780 -295.8847 -190.7475
ENERGY: 600000 3.5179 5.3964 13.0848 0.0000 -10597.7515 1461.3590 0.0000 0.0000 1751.8385 -7362.5549 299.5465 -9114.3934 -7371.2512 300.7428 598.0936 631.4082 29787.5311 -52.1460 31.8124
ENERGY: 900000 6.8344 4.8876 11.5832 0.0000 -10704.2310 1445.3847 0.0000 0.0000 1834.7777 -7400.7633 313.7282 -9235.5410 -7380.5867 301.4663 -385.9742 -315.9757 30164.2785 -101.8166 -20.4584
ENERGY: 1200000 6.1295 5.3433 13.1060 0.0000 -10472.3127 1331.2119 0.0000 0.0000 1762.2822 -7354.2397 301.3322 -9116.5220 -7379.5934 301.4899 -740.1208 -684.0661 30147.5477 -147.9034 -70.3629
ENERGY: 1500000 4.7050 6.9522 14.5345 0.0000 -10677.6292 1458.5967 0.0000 0.0000 1734.0559 -7458.7849 296.5058 -9192.8408 -7393.7201 300.1242 231.6091 241.7660 29954.1380 -122.6553 -50.0603
TCL: Exiting due to exit command.
