Info: SIMULATION PARAMETERS:
Info: TIMESTEP               2
Info: NUMBER OF STEPS        0
Info: STEPS PER CYCLE        10
Info: PERIODIC CELL BASIS 1  31.0171 0 0
Info: PERIODIC CELL BASIS 2  0 29.6145 0
Info: PERIODIC CELL BASIS 3  0 0 33.2024
Info: PERIODIC CELL CENTER   0 0 0
Info: WRAPPING WATERS AROUND PERIODIC BOUNDARIES ON OUTPUT.
Info: WRAPPING ALL CLUSTERS AROUND PERIODIC BOUNDARIES ON OUTPUT.
Info: FIRST LDB TIMESTEP     50
Info: LAST LDB TIMESTEP     -1
Info: HOM BACKGROUND SCALING 1
Info: PME BACKGROUND SCALING 1
Info: MIN ATOMS PER PATCH    40
Info: EMPTY PATCH LOAD       40 ATOMS
Info: VELOCITY FILE          mobley_5311804_equil.vel
Info: CENTER OF MASS MOVING INITIALLY? NO
Info: DIELECTRIC             1
Info: EXCLUDE                SCALED ONE-FOUR
Info: 1-4 ELECTROSTATICS SCALED BY 0.833333
Info: MODIFIED 1-4 VDW PARAMETERS WILL BE USED
Info: DCD FILENAME           mobley_5311804_prod.dcd
Info: DCD FREQUENCY          100000
Info: DCD FIRST STEP         100000
Info: DCD FILE WILL CONTAIN UNIT CELL DATA
Info: XST FILENAME           mobley_5311804_prod.xst
Info: XST FREQUENCY          100000
Info: NO VELOCITY DCD OUTPUT
Info: NO FORCE DCD OUTPUT
Info: OUTPUT FILENAME        mobley_5311804_prod
Info: BINARY OUTPUT FILES WILL BE USED
Info: RESTART FILENAME       mobley_5311804_prod.restart
Info: RESTART FREQUENCY      100000
Info: BINARY RESTART FILES WILL BE USED
Info: CUTOFF                 9
Info: PAIRLIST DISTANCE      11
Info: PAIRLIST SHRINK RATE   0.01
Info: PAIRLIST GROW RATE     0.01
Info: PAIRLIST TRIGGER       0.3
Info: PAIRLISTS PER CYCLE    2
Info: PAIRLISTS ENABLED
Info: MARGIN                 2
Info: HYDROGEN GROUP CUTOFF  2.5
Info: PATCH DIMENSION        15.5
Info: ENERGY OUTPUT STEPS    100000
Info: ENERGY EVALUATION STEPS    100000
Info: OUTPUT ENERGY PRECISION 4
Info: CROSSTERM ENERGY INCLUDED IN DIHEDRAL
Info: TIMING OUTPUT STEPS    1000000
Info: PRESSURE OUTPUT STEPS  100000
Info: ALCHEMICAL FEP ON
Info: FEP CURRENT LAMBDA VALUE     1
Info: FEP COMPARISON LAMBDA VALUE  0.95
Info: FEP INTRA-ALCHEMICAL NON-BONDED INTERACTIONS WILL BE RETAINED
Info: FEP INTRA-ALCHEMICAL BONDED INTERACTIONS WILL BE RETAINED
Info: FEP VDW SHIFTING COEFFICIENT 5
Info: FEP ELEC. ACTIVE FOR ANNIHILATED PARTICLES BETWEEN LAMBDA = 0 AND LAMBDA = 0.5
Info: FEP ELEC. ACTIVE FOR EXNIHILATED PARTICLES BETWEEN LAMBDA = 0.5 AND LAMBDA = 1
Info: FEP VDW ACTIVE FOR ANNIHILATED PARTICLES BETWEEN LAMBDA = 0 AND LAMBDA = 1
Info: FEP VDW ACTIVE FOR EXNIHILATED PARTICLES BETWEEN LAMBDA = 0 AND LAMBDA = 1
Info: FEP BOND ACTIVE FOR ANNIHILATED PARTICLES BETWEEN LAMBDA = 1 AND LAMBDA = 1
Info: FEP BOND ACTIVE FOR EXNIHILATED PARTICLES BETWEEN LAMBDA = 0 AND LAMBDA = 0
Info: LANGEVIN DYNAMICS ACTIVE
Info: LANGEVIN TEMPERATURE   300
Info: LANGEVIN USING BBK INTEGRATOR
Info: LANGEVIN DAMPING COEFFICIENT IS 1 INVERSE PS
Info: LANGEVIN DYNAMICS APPLIED TO HYDROGENS
Info: LANGEVIN PISTON PRESSURE CONTROL ACTIVE
Info:        TARGET PRESSURE IS 1.01325 BAR
Info:     OSCILLATION PERIOD IS 50 FS
Info:             DECAY TIME IS 25 FS
Info:     PISTON TEMPERATURE IS 300 K
Info:       PRESSURE CONTROL IS GROUP-BASED
Info:    INITIAL STRAIN RATE IS -0.000186575 -0.000186575 -0.000186575
Info:       CELL FLUCTUATION IS ISOTROPIC
Info: PARTICLE MESH EWALD (PME) ACTIVE
Info: PME TOLERANCE               1e-06
Info: PME EWALD COEFFICIENT       0.348832
Info: PME INTERPOLATION ORDER     4
Info: PME GRID DIMENSIONS         32 32 36
Info: PME MAXIMUM GRID SPACING    1
Info: PME CALCULATION WILL BE PERFORMED ON GPU
Info: FULL ELECTROSTATIC EVALUATION FREQUENCY      2
Info: USING VERLET I (r-RESPA) MTS SCHEME.
Info: C1 SPLITTING OF LONG RANGE ELECTROSTATICS
Info: PLACING ATOMS IN PATCHES BY HYDROGEN GROUPS
Info: RIGID BONDS TO HYDROGEN : ALL
Info:         ERROR TOLERANCE : 1e-08
Info:          MAX ITERATIONS : 100
Info: RIGID WATER USING SETTLE ALGORITHM
Info: RANDOM NUMBER SEED     1743756699
Info: USE HYDROGEN BONDS?    NO
Info: Using AMBER format force field!
Info: AMBER PARM FILE        mobley_5311804.prmtop
Info: COORDINATE PDB         mobley_5311804.pdb
Info: Exclusions will be read from PARM file!
Info: SCNB (VDW SCALING)     2
Info: USING ARITHMETIC MEAN TO COMBINE L-J SIGMA PARAMETERS
Info: BINARY COORDINATES     mobley_5311804_equil.coor
Info: SUMMARY OF PARAMETERS:
Info: 8 BONDS
Info: 8 ANGLES
Info:   8 HARMONIC
Info:   0 COSINE-BASED
Info: 4 DIHEDRAL
Info: 0 IMPROPER
Info: 0 CROSSTERM
Info: 0 VDW
Info: 28 VDW_PAIRS
Info: 0 NBTHOLE_PAIRS
Info: To read alchdata from file: mobley_5311804.pdb
Info: To read alchflag data from column: 5
Info: STRUCTURE SUMMARY:
Info: 2965 ATOMS
Info: 2965 BONDS
Info: 25 ANGLES
Info: 39 DIHEDRALS
Info: 0 IMPROPERS
Info: 0 CROSSTERMS
Info: 3020 EXCLUSIONS
Info: 2957 RIGID BONDS
Info: ALCH: 0 ATOMS TO DISAPPEAR IN FINAL STATE
Info: ALCH: 16 ATOMS TO APPEAR IN FINAL STATE
Info: 5938 DEGREES OF FREEDOM
Info: 991 HYDROGEN GROUPS
Info: 3 ATOMS IN LARGEST HYDROGEN GROUP
Info: 991 MIGRATION GROUPS
Info: 3 ATOMS IN LARGEST MIGRATION GROUP
Info: TOTAL MASS = 17817.9 amu
Info: TOTAL CHARGE = -0.000200011 e
Info: MASS DENSITY = 0.970152 g/cm^3
Info: ATOM DENSITY = 0.0972187 atoms/A^3
Info: ADDED 0 IMPLICIT EXCLUSIONS
Info: NONBONDED TABLE R-SQUARED SPACING: 0.0625
Info: NONBONDED TABLE SIZE: 705 POINTS
Info: REMOVING COM VELOCITY -0.113407 -0.091814 -0.101466
Info: Use 3D box decompostion in PME FFT.
Info: Updated CUDA force table with 4096 elements.
Info: Updated CUDA LJ table with 7 x 7 elements.
Info: Found 18 unique exclusion lists needing 40 bytes
TCL: Running for 1500000 steps
ETITLE: TS BOND ANGLE DIHED IMPRP ELECT VDW BOUNDARY MISC KINETIC TOTAL TEMP POTENTIAL TOTALAVG TEMPAVG PRESSURE GPRESSURE VOLUME PRESSAVG GPRESSAVG
ENERGY: 0 1.6473 4.8368 2.7546 0.0000 -10731.0630 1477.5834 0.0000 0.0000 1745.2013 -7499.0397 295.7983 -9244.2409 -7499.0397 295.7983 451.2532 533.1496 30498.2457 451.2532 533.1496
ENERGY: 300000 2.2759 5.4731 3.5458 0.0000 -10774.8731 1475.6338 0.0000 0.0000 1719.5530 -7568.3915 291.4511 -9287.9446 -7528.1891 297.6952 65.8650 94.8106 30813.6212 219.4259 275.5422
ENERGY: 600000 5.9364 4.2411 1.6222 0.0000 -10845.0165 1501.7391 0.0000 0.0000 1792.3343 -7539.1433 303.7870 -9331.4777 -7542.8445 297.7785 314.7782 377.7956 30227.6937 114.0252 174.5757
ENERGY: 900000 2.8331 3.0076 3.1289 0.0000 -10600.1544 1354.1987 0.0000 0.0000 1796.2847 -7440.7013 304.4566 -9236.9860 -7522.8204 299.6897 -270.2253 -289.6206 30330.4986 189.2456 239.9823
ENERGY: 1200000 5.4436 4.7014 6.3863 0.0000 -10626.9955 1437.0033 0.0000 0.0000 1778.0108 -7395.4501 301.3593 -9173.4610 -7506.5636 300.6531 -146.5890 -117.4515 30816.3818 136.7595 195.2227
ENERGY: 1500000 1.2061 2.1847 2.1108 0.0000 -10684.3640 1463.7522 0.0000 0.0000 1754.2172 -7460.8929 297.3265 -9215.1102 -7507.6930 300.5793 232.9855 278.2489 30948.5811 56.5913 112.4328
TCL: Running FEP window   2: Lambda1 0.95   Lambda2 0.8999999999999999 [dLambda -0.050000000000000044]
TCL: Setting parameter firsttimestep to 0
TCL: Setting parameter alchLambda to 0.95
Info: NONBONDED TABLE R-SQUARED SPACING: 0.0625
Info: NONBONDED TABLE SIZE: 705 POINTS
TCL: Setting parameter alchLambda2 to 0.8999999999999999
Info: NONBONDED TABLE R-SQUARED SPACING: 0.0625
Info: NONBONDED TABLE SIZE: 705 POINTS
TCL: Running for 1500000 steps
ETITLE: TS BOND ANGLE DIHED IMPRP ELECT VDW BOUNDARY MISC KINETIC TOTAL TEMP POTENTIAL TOTALAVG TEMPAVG PRESSURE GPRESSURE VOLUME PRESSAVG GPRESSAVG
ENERGY: 0 1.2061 2.1847 2.1108 0.0000 -10682.3000 1463.0896 0.0000 0.0000 1753.2915 -7460.4173 297.1696 -9213.7087 -7460.4173 297.1696 191.4369 267.3161 30948.5811 191.4369 267.3161
ENERGY: 300000 4.6412 4.8860 2.3740 0.0000 -10670.4645 1388.7627 0.0000 0.0000 1797.2320 -7472.5686 304.6171 -9269.8005 -7516.6046 300.8134 -716.7252 -590.9860 30931.4796 -408.6410 -311.6198
ENERGY: 600000 3.2436 4.9066 4.4649 0.0000 -10683.5919 1376.2817 0.0000 0.0000 1782.0675 -7512.6277 302.0469 -9294.6952 -7510.2512 300.3102 -563.0474 -499.3438 30548.6508 -100.1091 -15.3103
ENERGY: 900000 4.7752 5.7970 4.0978 0.0000 -10589.2634 1336.1437 0.0000 0.0000 1747.0666 -7491.3830 296.1145 -9238.4496 -7504.0527 301.5552 -755.1436 -685.5499 30462.6722 -106.8985 -30.2451
ENERGY: 1200000 2.9098 5.3895 1.9857 0.0000 -10772.5485 1441.1942 0.0000 0.0000 1847.0024 -7474.0668 313.0528 -9321.0693 -7495.4834 303.2962 21.4328 27.7814 30339.9582 -86.0045 -10.4076
ENERGY: 1500000 2.0874 5.8724 3.9332 0.0000 -10649.9888 1432.5342 0.0000 0.0000 1793.0712 -7412.4904 303.9119 -9205.5616 -7488.1053 303.0397 188.2513 194.0536 30595.9242 -34.3048 32.0347
TCL: Running FEP window   3: Lambda1 0.8999999999999999 Lambda2 0.8499999999999999 [dLambda -0.050000000000000044]
TCL: Setting parameter firsttimestep to 0
TCL: Setting parameter alchLambda to 0.8999999999999999
Info: NONBONDED TABLE R-SQUARED SPACING: 0.0625
Info: NONBONDED TABLE SIZE: 705 POINTS
TCL: Setting parameter alchLambda2 to 0.8499999999999999
Info: NONBONDED TABLE R-SQUARED SPACING: 0.0625
Info: NONBONDED TABLE SIZE: 705 POINTS
TCL: Running for 1500000 steps
ETITLE: TS BOND ANGLE DIHED IMPRP ELECT VDW BOUNDARY MISC KINETIC TOTAL TEMP POTENTIAL TOTALAVG TEMPAVG PRESSURE GPRESSURE VOLUME PRESSAVG GPRESSAVG
ENERGY: 0 2.0874 5.8724 3.9332 0.0000 -10648.2175 1432.1033 0.0000 0.0000 1792.1813 -7412.0399 303.7611 -9204.2212 -7412.0399 303.7611 104.1939 184.7300 30595.9242 104.1939 184.7300
ENERGY: 300000 1.1086 3.6445 0.5865 0.0000 -10738.2401 1411.4675 0.0000 0.0000 1801.2678 -7520.1652 305.3012 -9321.4330 -7486.8251 302.7053 -267.3779 -248.9072 30496.7370 -125.6337 -76.0666
ENERGY: 600000 4.5257 3.5459 2.1909 0.0000 -10961.7718 1636.1825 0.0000 0.0000 1772.9349 -7542.3918 300.4990 -9315.3267 -7517.2798 300.9979 1271.7680 1370.5510 30607.0972 -54.9365 1.8310
ENERGY: 900000 3.5591 7.3146 1.8148 0.0000 -10688.0656 1424.0467 0.0000 0.0000 1786.5466 -7464.7839 302.8060 -9251.3305 -7507.9129 301.1639 -5.4836 -55.6914 30650.3334 -136.9239 -92.2243
ENERGY: 1200000 5.0874 3.6954 4.3486 0.0000 -10768.2601 1441.8774 0.0000 0.0000 1794.8746 -7518.3767 304.2176 -9313.2513 -7511.0792 301.7766 -604.3431 -519.4444 31372.5497 -175.0934 -119.3830
ENERGY: 1500000 2.4586 3.0791 3.7688 0.0000 -10732.0401 1464.0742 0.0000 0.0000 1751.2107 -7507.4488 296.8169 -9258.6594 -7508.5143 301.9268 222.3659 282.0292 30624.3105 -116.5546 -55.6572
TCL: Running FEP window   4: Lambda1 0.8499999999999999 Lambda2 0.7999999999999998 [dLambda -0.050000000000000044]
TCL: Setting parameter firsttimestep to 0
TCL: Setting parameter alchLambda to 0.8499999999999999
Info: NONBONDED TABLE R-SQUARED SPACING: 0.0625
Info: NONBONDED TABLE SIZE: 705 POINTS
TCL: Setting parameter alchLambda2 to 0.7999999999999998
Info: NONBONDED TABLE R-SQUARED SPACING: 0.0625
Info: NONBONDED TABLE SIZE: 705 POINTS
TCL: Running for 1500000 steps
ETITLE: TS BOND ANGLE DIHED IMPRP ELECT VDW BOUNDARY MISC KINETIC TOTAL TEMP POTENTIAL TOTALAVG TEMPAVG PRESSURE GPRESSURE VOLUME PRESSAVG GPRESSAVG
ENERGY: 0 2.4586 3.0791 3.7688 0.0000 -10730.7115 1463.5229 0.0000 0.0000 1750.3433 -7507.5388 296.6699 -9257.8821 -7507.5388 296.6699 191.2260 269.5707 30624.3105 191.2260 269.5707
ENERGY: 300000 4.5685 2.6669 2.6121 0.0000 -10852.5923 1524.7221 0.0000 0.0000 1730.5932 -7587.4294 293.3224 -9318.0226 -7478.7659 301.3864 460.3909 474.2127 30340.8014 357.5147 413.6958
ENERGY: 600000 3.8620 8.3594 3.3829 0.0000 -10676.4452 1411.9864 0.0000 0.0000 1736.2203 -7512.6341 294.2761 -9248.8545 -7492.4712 299.8409 -143.3029 -18.8899 30570.7098 83.3337 152.4689
ENERGY: 900000 3.1634 3.6033 2.3300 0.0000 -10816.5735 1478.2055 0.0000 0.0000 1783.6252 -7545.6461 302.3109 -9329.2713 -7491.4315 300.1388 293.7457 326.3207 30407.9622 112.4127 177.2414
ENERGY: 1200000 1.3794 4.2116 2.9267 0.0000 -10680.9792 1422.3898 0.0000 0.0000 1794.3175 -7455.7542 304.1231 -9250.0717 -7491.0636 299.8610 -96.8679 -37.1059 30559.3407 65.2681 125.5308
ENERGY: 1500000 2.0510 2.3066 1.0003 0.0000 -10867.5021 1507.8604 0.0000 0.0000 1762.3802 -7591.9036 298.7100 -9354.2837 -7497.2263 300.3495 297.1079 391.5769 30325.8683 84.9603 149.6274
TCL: Running FEP window   5: Lambda1 0.7999999999999998 Lambda2 0.7499999999999998 [dLambda -0.050000000000000044]
TCL: Setting parameter firsttimestep to 0
TCL: Setting parameter alchLambda to 0.7999999999999998
Info: NONBONDED TABLE R-SQUARED SPACING: 0.0625
Info: NONBONDED TABLE SIZE: 705 POINTS
TCL: Setting parameter alchLambda2 to 0.7499999999999998
Info: NONBONDED TABLE R-SQUARED SPACING: 0.0625
Info: NONBONDED TABLE SIZE: 705 POINTS
TCL: Running for 1500000 steps
ETITLE: TS BOND ANGLE DIHED IMPRP ELECT VDW BOUNDARY MISC KINETIC TOTAL TEMP POTENTIAL TOTALAVG TEMPAVG PRESSURE GPRESSURE VOLUME PRESSAVG GPRESSAVG
ENERGY: 0 2.0510 2.3066 1.0003 0.0000 -10866.4747 1508.0477 0.0000 0.0000 1761.4871 -7591.5820 298.5586 -9353.0690 -7591.5820 298.5586 291.1640 386.8612 30325.8683 291.1640 386.8612
ENERGY: 300000 1.4554 7.6541 2.3739 0.0000 -10625.9449 1402.0174 0.0000 0.0000 1829.7479 -7382.6961 310.1283 -9212.4440 -7496.6817 302.3498 -199.4801 -126.8940 30965.0864 -1.0042 56.0346
ENERGY: 600000 0.7509 4.6231 2.8537 0.0000 -10809.2720 1452.5660 0.0000 0.0000 1802.6095 -7545.8688 305.5286 -9348.4783 -7489.0859 302.0885 22.2230 102.7651 30192.2067 87.0429 146.9136
ENERGY: 900000 3.4524 6.3804 2.6423 0.0000 -10777.8087 1457.4489 0.0000 0.0000 1823.8036 -7484.0810 309.1208 -9307.8846 -7511.5320 301.1200 45.9962 115.3408 30450.2500 76.2910 138.0181
ENERGY: 1200000 2.0752 5.8921 2.9589 0.0000 -10785.0567 1451.7618 0.0000 0.0000 1714.6392 -7607.7295 290.6183 -9322.3687 -7512.6287 300.4002 -141.7037 -115.6799 30364.2161 51.0344 107.6381
ENERGY: 1500000 3.7378 3.7641 3.0687 0.0000 -10759.0342 1417.1965 0.0000 0.0000 1797.4088 -7533.8585 304.6471 -9331.2672 -7516.0533 300.7094 -451.7076 -425.5075 30621.3237 -9.8905 44.8068
TCL: Running FEP window   6: Lambda1 0.7499999999999998 Lambda2 0.6999999999999997 [dLambda -0.050000000000000044]
TCL: Setting parameter firsttimestep to 0
TCL: Setting parameter alchLambda to 0.7499999999999998
Info: NONBONDED TABLE R-SQUARED SPACING: 0.0625
Info: NONBONDED TABLE SIZE: 705 POINTS
TCL: Setting parameter alchLambda2 to 0.6999999999999997
Info: NONBONDED TABLE R-SQUARED SPACING: 0.0625
Info: NONBONDED TABLE SIZE: 705 POINTS
TCL: Running for 1500000 steps
ETITLE: TS BOND ANGLE DIHED IMPRP ELECT VDW BOUNDARY MISC KINETIC TOTAL TEMP POTENTIAL TOTALAVG TEMPAVG PRESSURE GPRESSURE VOLUME PRESSAVG GPRESSAVG
ENERGY: 0 3.7378 3.7641 3.0687 0.0000 -10757.8056 1417.0184 0.0000 0.0000 1796.5516 -7533.6649 304.5018 -9330.2165 -7533.6649 304.5018 -516.4219 -436.5150 30621.3237 -516.4219 -436.5150
ENERGY: 300000 4.3147 4.6623 2.0690 0.0000 -10668.6402 1454.6169 0.0000 0.0000 1753.3489 -7449.6283 297.1793 -9202.9772 -7498.6798 300.2863 272.4028 265.3616 30769.9286 -227.5148 -190.2512
ENERGY: 600000 2.0759 3.5939 3.9136 0.0000 -10536.9697 1327.8157 0.0000 0.0000 1760.2667 -7439.3041 298.3518 -9199.5707 -7499.6955 300.4467 -642.5580 -572.9699 30901.4155 -220.0231 -164.1705
ENERGY: 900000 2.1141 5.0645 4.4547 0.0000 -10752.9840 1443.7705 0.0000 0.0000 1821.7575 -7475.8228 308.7740 -9297.5803 -7508.2998 301.0965 36.8725 80.8694 30320.1782 -89.1006 -38.4893
ENERGY: 1200000 2.4639 1.2528 2.2246 0.0000 -10798.3855 1421.9043 0.0000 0.0000 1737.6276 -7632.9123 294.5146 -9370.5398 -7513.9361 299.6577 -475.0364 -353.8901 30363.3664 -152.2868 -92.9625
ENERGY: 1500000 3.6589 3.1637 4.4807 0.0000 -10747.2915 1334.3218 0.0000 0.0000 1799.6237 -7602.0426 305.0225 -9401.6662 -7521.4734 300.0820 -1245.1720 -1156.9396 30325.1691 -299.0399 -233.0437
TCL: Running FEP window   7: Lambda1 0.6999999999999997 Lambda2 0.6499999999999997 [dLambda -0.050000000000000044]
TCL: Setting parameter firsttimestep to 0
TCL: Setting parameter alchLambda to 0.6999999999999997
Info: NONBONDED TABLE R-SQUARED SPACING: 0.0625
Info: NONBONDED TABLE SIZE: 705 POINTS
TCL: Setting parameter alchLambda2 to 0.6499999999999997
Info: NONBONDED TABLE R-SQUARED SPACING: 0.0625
Info: NONBONDED TABLE SIZE: 705 POINTS
TCL: Running for 1500000 steps
ETITLE: TS BOND ANGLE DIHED IMPRP ELECT VDW BOUNDARY MISC KINETIC TOTAL TEMP POTENTIAL TOTALAVG TEMPAVG PRESSURE GPRESSURE VOLUME PRESSAVG GPRESSAVG
ENERGY: 0 3.6589 3.1637 4.4807 0.0000 -10745.4924 1333.5881 0.0000 0.0000 1798.7418 -7601.8591 304.8730 -9400.6010 -7601.8591 304.8730 -1259.7603 -1164.3580 30325.1691 -1259.7603 -1164.3580
ENERGY: 300000 4.1185 5.2402 6.5514 0.0000 -10604.3309 1355.7238 0.0000 0.0000 1766.1044 -7466.5926 299.3412 -9232.6969 -7504.9168 302.5991 -621.5947 -598.5337 30565.8263 -557.4100 -502.8588
ENERGY: 600000 1.4178 3.9999 6.4657 0.0000 -10762.4333 1462.2561 0.0000 0.0000 1700.4512 -7587.8426 288.2135 -9288.2938 -7501.3040 300.1425 -60.2378 8.6462 30778.0432 -183.2943 -133.6791
ENERGY: 900000 5.0485 3.7249 4.2386 0.0000 -10799.6680 1480.3465 0.0000 0.0000 1809.3834 -7496.9260 306.6767 -9306.3094 -7505.3270 300.9595 128.9828 152.9815 30558.8423 -108.2859 -56.1558
ENERGY: 1200000 5.5061 3.9593 2.2265 0.0000 -10704.3669 1398.3085 0.0000 0.0000 1734.7112 -7559.6553 294.0203 -9294.3665 -7523.3537 299.7591 -608.6501 -525.9491 30862.1515 -178.1053 -118.7143
ENERGY: 1500000 3.8473 7.6516 2.5567 0.0000 -10764.9967 1449.2540 0.0000 0.0000 1770.6388 -7531.0482 300.1098 -9301.6870 -7521.1186 299.8291 -96.8415 12.6307 30336.0726 -156.1704 -89.9877
TCL: Running FEP window   8: Lambda1 0.6499999999999997 Lambda2 0.5999999999999996 [dLambda -0.050000000000000044]
TCL: Setting parameter firsttimestep to 0
TCL: Setting parameter alchLambda to 0.6499999999999997
Info: NONBONDED TABLE R-SQUARED SPACING: 0.0625
Info: NONBONDED TABLE SIZE: 705 POINTS
TCL: Setting parameter alchLambda2 to 0.5999999999999996
Info: NONBONDED TABLE R-SQUARED SPACING: 0.0625
Info: NONBONDED TABLE SIZE: 705 POINTS
TCL: Running for 1500000 steps
ETITLE: TS BOND ANGLE DIHED IMPRP ELECT VDW BOUNDARY MISC KINETIC TOTAL TEMP POTENTIAL TOTALAVG TEMPAVG PRESSURE GPRESSURE VOLUME PRESSAVG GPRESSAVG
ENERGY: 0 3.8473 7.6516 2.5567 0.0000 -10764.3393 1449.6221 0.0000 0.0000 1769.7552 -7530.9062 299.9600 -9300.6614 -7530.9062 299.9600 -90.8675 12.0533 30336.0726 -90.8675 12.0533
ENERGY: 300000 3.1803 3.5198 2.5209 0.0000 -10714.5115 1430.1396 0.0000 0.0000 1770.9323 -7504.2185 300.1595 -9275.1508 -7470.5424 302.8252 -25.2267 -26.4341 30385.4449 55.9647 140.8582
ENERGY: 600000 2.4358 6.0127 5.1389 0.0000 -10865.9183 1514.6771 0.0000 0.0000 1747.6463 -7590.0074 296.2127 -9337.6538 -7519.6301 299.5852 460.9135 557.3617 30194.9656 46.8756 137.7386
ENERGY: 900000 2.5724 6.4671 3.3209 0.0000 -10724.4187 1431.9355 0.0000 0.0000 1785.1190 -7495.0037 302.5641 -9280.1228 -7506.8973 301.2841 -234.5875 -133.9656 30681.1765 19.1773 104.2808
ENERGY: 1200000 1.5255 3.1325 1.6079 0.0000 -10705.4030 1484.0224 0.0000 0.0000 1770.5756 -7444.5391 300.0991 -9215.1147 -7493.7806 301.1317 424.6833 490.1659 30544.5565 63.0702 142.8223
ENERGY: 1500000 1.5875 3.4321 5.9625 0.0000 -10604.5268 1357.2865 0.0000 0.0000 1737.9271 -7498.3311 294.5654 -9236.2582 -7493.5196 300.3967 -521.7321 -486.6017 30502.2919 0.9172 77.0076
TCL: Running FEP window   9: Lambda1 0.5999999999999996 Lambda2 0.5499999999999996 [dLambda -0.050000000000000044]
TCL: Setting parameter firsttimestep to 0
TCL: Setting parameter alchLambda to 0.5999999999999996
Info: NONBONDED TABLE R-SQUARED SPACING: 0.0625
Info: NONBONDED TABLE SIZE: 705 POINTS
TCL: Setting parameter alchLambda2 to 0.5499999999999996
Info: NONBONDED TABLE R-SQUARED SPACING: 0.0625
Info: NONBONDED TABLE SIZE: 705 POINTS
TCL: Running for 1500000 steps
ETITLE: TS BOND ANGLE DIHED IMPRP ELECT VDW BOUNDARY MISC KINETIC TOTAL TEMP POTENTIAL TOTALAVG TEMPAVG PRESSURE GPRESSURE VOLUME PRESSAVG GPRESSAVG
ENERGY: 0 1.5875 3.4321 5.9625 0.0000 -10603.3558 1356.5179 0.0000 0.0000 1737.0545 -7498.8013 294.4175 -9235.8558 -7498.8013 294.4175 -588.4873 -503.0060 30502.2919 -588.4873 -503.0060
ENERGY: 300000 2.7442 7.3472 1.8177 0.0000 -10740.4460 1403.5459 0.0000 0.0000 1727.4644 -7597.5266 292.7921 -9324.9910 -7537.3140 295.9345 -385.6885 -293.2157 30180.8328 -482.5715 -395.1245
ENERGY: 600000 1.2619 1.5146 2.2692 0.0000 -10774.2170 1423.5245 0.0000 0.0000 1785.9906 -7559.6562 302.7118 -9345.6468 -7533.4536 297.5491 -505.7745 -410.3653 30739.9983 -205.2209 -119.7608
ENERGY: 900000 1.9683 2.0529 3.0589 0.0000 -10820.4295 1517.2269 0.0000 0.0000 1786.4954 -7509.6270 302.7974 -9296.1224 -7529.6980 298.5891 536.7271 616.1072 30478.0682 -262.0768 -174.2034
ENERGY: 1200000 1.2102 6.5384 1.1765 0.0000 -10644.0790 1334.9698 0.0000 0.0000 1783.0859 -7517.0981 302.2195 -9300.1840 -7534.2135 298.8358 -738.2934 -703.3712 30345.7618 -376.3701 -294.9218
ENERGY: 1500000 1.3193 3.5208 1.6840 0.0000 -10622.4303 1355.9590 0.0000 0.0000 1832.3323 -7427.6149 310.5664 -9259.9472 -7517.9363 300.1726 -389.4790 -348.5763 30139.4046 -331.1100 -256.6425
TCL: Running FEP window  10: Lambda1 0.5499999999999996 Lambda2 0.4999999999999996 [dLambda -0.04999999999999999]
TCL: Setting parameter firsttimestep to 0
TCL: Setting parameter alchLambda to 0.5499999999999996
Info: NONBONDED TABLE R-SQUARED SPACING: 0.0625
Info: NONBONDED TABLE SIZE: 705 POINTS
TCL: Setting parameter alchLambda2 to 0.4999999999999996
Info: NONBONDED TABLE R-SQUARED SPACING: 0.0625
Info: NONBONDED TABLE SIZE: 705 POINTS
TCL: Running for 1500000 steps
ETITLE: TS BOND ANGLE DIHED IMPRP ELECT VDW BOUNDARY MISC KINETIC TOTAL TEMP POTENTIAL TOTALAVG TEMPAVG PRESSURE GPRESSURE VOLUME PRESSAVG GPRESSAVG
ENERGY: 0 1.3193 3.5208 1.6840 0.0000 -10621.9963 1356.3696 0.0000 0.0000 1831.4907 -7427.6119 310.4237 -9259.1027 -7427.6119 310.4237 -431.6460 -350.6809 30139.4046 -431.6460 -350.6809
ENERGY: 300000 1.0454 4.6745 2.2301 0.0000 -10867.5938 1496.2269 0.0000 0.0000 1715.1349 -7648.2821 290.7023 -9363.4170 -7557.8406 298.6106 327.5183 364.4595 30081.9391 -102.2407 -69.0970
ENERGY: 600000 3.4355 6.1479 5.9169 0.0000 -10653.3979 1370.9573 0.0000 0.0000 1762.5532 -7504.3871 298.7393 -9266.9403 -7546.4569 297.9327 -623.4804 -615.8283 30685.3124 -313.6712 -276.8619
ENERGY: 900000 1.8677 4.9759 2.1151 0.0000 -10688.8909 1439.9687 0.0000 0.0000 1751.1709 -7488.7927 296.8101 -9239.9636 -7531.1318 298.2614 -55.9767 52.9784 30465.5064 -302.2417 -254.1807
ENERGY: 1200000 4.2692 3.4406 2.6672 0.0000 -10913.7683 1563.1345 0.0000 0.0000 1828.1275 -7512.1294 309.8537 -9340.2568 -7529.7803 299.2816 903.0611 992.8050 30035.5266 -107.7893 -57.6946
ENERGY: 1500000 1.8017 1.8827 3.0615 0.0000 -10605.7081 1392.9600 0.0000 0.0000 1711.7684 -7494.2339 290.1317 -9206.0022 -7526.7500 298.2688 -315.8692 -187.7573 30766.4409 -89.8453 -40.3931
TCL: Running FEP window  11: Lambda1 0.4999999999999996 Lambda2 0.4499999999999996 [dLambda -0.04999999999999999]
TCL: Setting parameter firsttimestep to 0
TCL: Setting parameter alchLambda to 0.4999999999999996
Info: NONBONDED TABLE R-SQUARED SPACING: 0.0625
Info: NONBONDED TABLE SIZE: 705 POINTS
TCL: Setting parameter alchLambda2 to 0.4499999999999996
Info: NONBONDED TABLE R-SQUARED SPACING: 0.0625
Info: NONBONDED TABLE SIZE: 705 POINTS
TCL: Running for 1500000 steps
ETITLE: TS BOND ANGLE DIHED IMPRP ELECT VDW BOUNDARY MISC KINETIC TOTAL TEMP POTENTIAL TOTALAVG TEMPAVG PRESSURE GPRESSURE VOLUME PRESSAVG GPRESSAVG
ENERGY: 0 1.8017 1.8827 3.0615 0.0000 -10605.7639 1393.0853 0.0000 0.0000 1710.8411 -7495.0917 289.9745 -9205.9328 -7495.0917 289.9745 -286.3299 -192.4184 30766.4409 -286.3299 -192.4184
ENERGY: 300000 1.9087 4.7065 2.6640 0.0000 -10639.3222 1401.4372 0.0000 0.0000 1807.5437 -7421.0621 306.3649 -9228.6058 -7482.3987 294.7213 -189.6817 -92.3914 30677.0038 -4.9771 81.8793
ENERGY: 600000 2.5556 3.7674 3.8844 0.0000 -10654.7362 1419.3576 0.0000 0.0000 1780.2189 -7444.9524 301.7335 -9225.1713 -7479.1193 297.9131 71.9478 58.6471 30924.1209 -83.6219 -6.0065
ENERGY: 900000 4.3330 1.7791 3.0137 0.0000 -10948.2531 1602.6161 0.0000 0.0000 1801.1660 -7535.3452 305.2839 -9336.5111 -7488.2033 299.4589 1016.8382 1044.9562 30588.3924 39.6947 110.1671
ENERGY: 1200000 1.9991 5.6006 3.1763 0.0000 -10838.5713 1488.9621 0.0000 0.0000 1791.2297 -7547.6035 303.5998 -9338.8333 -7499.2493 299.5927 237.2647 289.5396 30181.1184 104.9224 169.9759
ENERGY: 1500000 3.7455 4.8563 1.5223 0.0000 -10805.3792 1537.9515 0.0000 0.0000 1845.9323 -7411.3714 312.8715 -9257.3036 -7503.8087 300.4605 841.9756 881.0072 30534.8883 176.2211 243.9791
TCL: Running FEP window  12: Lambda1 0.4499999999999996 Lambda2 0.39999999999999963 [dLambda -0.04999999999999999]
TCL: Setting parameter firsttimestep to 0
TCL: Setting parameter alchLambda to 0.4499999999999996
Info: NONBONDED TABLE R-SQUARED SPACING: 0.0625
Info: NONBONDED TABLE SIZE: 705 POINTS
TCL: Setting parameter alchLambda2 to 0.39999999999999963
Info: NONBONDED TABLE R-SQUARED SPACING: 0.0625
Info: NONBONDED TABLE SIZE: 705 POINTS
TCL: Running for 1500000 steps
ETITLE: TS BOND ANGLE DIHED IMPRP ELECT VDW BOUNDARY MISC KINETIC TOTAL TEMP POTENTIAL TOTALAVG TEMPAVG PRESSURE GPRESSURE VOLUME PRESSAVG GPRESSAVG
ENERGY: 0 3.7455 4.8563 1.5223 0.0000 -10805.3791 1537.9690 0.0000 0.0000 1845.0254 -7412.2607 312.7178 -9257.2862 -7412.2607 312.7178 795.1042 872.1794 30534.8883 795.1042 872.1794
ENERGY: 300000 2.1153 3.4080 0.9063 0.0000 -10696.7631 1451.2927 0.0000 0.0000 1758.0044 -7481.0364 297.9684 -9239.0408 -7452.5851 307.3569 208.9427 265.6337 30475.2934 366.8702 416.7400
ENERGY: 600000 2.7386 6.1702 2.0928 0.0000 -10760.4912 1434.2727 0.0000 0.0000 1727.8952 -7587.3217 292.8651 -9315.2170 -7478.5733 303.3042 -285.3586 -206.6262 30293.8413 115.4394 165.7109
ENERGY: 900000 1.9397 2.5686 1.7064 0.0000 -10767.5825 1420.9432 0.0000 0.0000 1798.7295 -7541.6953 304.8709 -9340.4247 -7490.1903 304.1687 -530.2224 -461.9397 30901.5760 44.0708 99.1202
ENERGY: 1200000 3.9182 5.2581 3.9524 0.0000 -10717.3303 1458.9529 0.0000 0.0000 1749.8233 -7495.4255 296.5817 -9245.2487 -7484.4167 302.8772 233.5497 241.7519 30668.1566 102.4456 149.8899
ENERGY: 1500000 6.2471 3.7392 3.3867 0.0000 -10597.0247 1334.9603 0.0000 0.0000 1779.0925 -7469.5989 301.5426 -9248.6914 -7480.2724 302.8245 -950.0819 -855.0700 30557.6250 70.6365 120.4965
TCL: Running FEP window  13: Lambda1 0.39999999999999963 Lambda2 0.34999999999999964 [dLambda -0.04999999999999999]
TCL: Setting parameter firsttimestep to 0
TCL: Setting parameter alchLambda to 0.39999999999999963
Info: NONBONDED TABLE R-SQUARED SPACING: 0.0625
Info: NONBONDED TABLE SIZE: 705 POINTS
TCL: Setting parameter alchLambda2 to 0.34999999999999964
Info: NONBONDED TABLE R-SQUARED SPACING: 0.0625
Info: NONBONDED TABLE SIZE: 705 POINTS
TCL: Running for 1500000 steps
ETITLE: TS BOND ANGLE DIHED IMPRP ELECT VDW BOUNDARY MISC KINETIC TOTAL TEMP POTENTIAL TOTALAVG TEMPAVG PRESSURE GPRESSURE VOLUME PRESSAVG GPRESSAVG
ENERGY: 0 6.2471 3.7392 3.3867 0.0000 -10597.0235 1335.3721 0.0000 0.0000 1778.2068 -7470.0716 301.3925 -9248.2784 -7470.0716 301.3925 -929.3119 -857.5667 30557.6250 -929.3119 -857.5667
ENERGY: 300000 0.5789 5.2013 4.6817 0.0000 -10725.3341 1434.8708 0.0000 0.0000 1742.9359 -7537.0655 295.4144 -9280.0014 -7510.1258 298.1710 -140.3770 -30.5700 30410.8292 -283.8386 -218.7281
ENERGY: 600000 2.9375 4.6906 2.8529 0.0000 -10601.1514 1378.2911 0.0000 0.0000 1785.9302 -7426.4491 302.7016 -9212.3793 -7510.8470 298.9015 -437.5210 -332.4831 30675.7850 -257.2175 -184.7060
ENERGY: 900000 2.6284 8.1042 1.1070 0.0000 -10632.4889 1424.7460 0.0000 0.0000 1783.5214 -7412.3819 302.2933 -9195.9033 -7494.5310 300.3458 3.2510 102.5751 30611.5943 -215.1722 -138.1178
ENERGY: 1200000 3.5242 4.6619 3.7534 0.0000 -10634.3054 1383.0807 0.0000 0.0000 1765.7956 -7473.4896 299.2889 -9239.2852 -7500.5987 300.5288 -642.5760 -529.5221 30694.9624 -249.5539 -172.6970
ENERGY: 1500000 3.4428 5.1848 1.1700 0.0000 -10796.2686 1481.1945 0.0000 0.0000 1755.6528 -7549.6238 297.5698 -9305.2766 -7496.4611 300.5058 499.6879 499.5027 30027.4329 -216.2087 -150.9793
TCL: Running FEP window  14: Lambda1 0.34999999999999964 Lambda2 0.29999999999999966 [dLambda -0.04999999999999999]
TCL: Setting parameter firsttimestep to 0
TCL: Setting parameter alchLambda to 0.34999999999999964
Info: NONBONDED TABLE R-SQUARED SPACING: 0.0625
Info: NONBONDED TABLE SIZE: 705 POINTS
TCL: Setting parameter alchLambda2 to 0.29999999999999966
Info: NONBONDED TABLE R-SQUARED SPACING: 0.0625
Info: NONBONDED TABLE SIZE: 705 POINTS
TCL: Running for 1500000 steps
ETITLE: TS BOND ANGLE DIHED IMPRP ELECT VDW BOUNDARY MISC KINETIC TOTAL TEMP POTENTIAL TOTALAVG TEMPAVG PRESSURE GPRESSURE VOLUME PRESSAVG GPRESSAVG
ENERGY: 0 3.4428 5.1848 1.1700 0.0000 -10796.2676 1481.6152 0.0000 0.0000 1754.7940 -7550.0609 297.4242 -9304.8548 -7550.0609 297.4242 421.3714 497.8478 30027.4329 421.3714 497.8478
ENERGY: 300000 5.1043 3.4921 2.4832 0.0000 -10802.1438 1470.5361 0.0000 0.0000 1773.7181 -7546.8100 300.6317 -9320.5281 -7532.9536 298.3794 89.8229 161.3436 30333.0606 423.7505 488.8902
ENERGY: 600000 4.1707 4.0911 5.7710 0.0000 -10682.7967 1437.3205 0.0000 0.0000 1815.2438 -7416.1997 307.6700 -9231.4435 -7492.3416 300.8600 -111.6985 -97.6454 30427.1471 68.9735 134.2329
ENERGY: 900000 1.8661 1.6747 5.0534 0.0000 -10696.8325 1419.3543 0.0000 0.0000 1737.5291 -7531.3549 294.4979 -9268.8840 -7497.7024 300.7338 -277.5264 -189.4354 30499.4699 -33.9315 30.6047
ENERGY: 1200000 2.9215 4.4409 4.0956 0.0000 -10660.9757 1429.8747 0.0000 0.0000 1824.9269 -7394.7161 309.3112 -9219.6430 -7503.6838 300.6408 -253.8858 -196.7544 30868.7194 -62.4941 3.6624
ENERGY: 1500000 2.6440 3.2119 2.3239 0.0000 -10653.6127 1378.4372 0.0000 0.0000 1750.7726 -7516.2231 296.7426 -9266.9957 -7501.5081 300.7767 -520.1485 -374.2081 30473.3829 -79.3862 -8.6804
TCL: Running FEP window  15: Lambda1 0.29999999999999966 Lambda2 0.24999999999999967 [dLambda -0.04999999999999999]
TCL: Setting parameter firsttimestep to 0
TCL: Setting parameter alchLambda to 0.29999999999999966
Info: NONBONDED TABLE R-SQUARED SPACING: 0.0625
Info: NONBONDED TABLE SIZE: 705 POINTS
TCL: Setting parameter alchLambda2 to 0.24999999999999967
Info: NONBONDED TABLE R-SQUARED SPACING: 0.0625
Info: NONBONDED TABLE SIZE: 705 POINTS
TCL: Running for 1500000 steps
ETITLE: TS BOND ANGLE DIHED IMPRP ELECT VDW BOUNDARY MISC KINETIC TOTAL TEMP POTENTIAL TOTALAVG TEMPAVG PRESSURE GPRESSURE VOLUME PRESSAVG GPRESSAVG
ENERGY: 0 2.6440 3.2119 2.3239 0.0000 -10653.6117 1378.3519 0.0000 0.0000 1749.9209 -7517.1590 296.5983 -9267.0799 -7517.1590 296.5983 -469.8057 -381.1355 30473.3829 -469.8057 -381.1355
ENERGY: 300000 2.1357 4.3647 3.1142 0.0000 -10856.3477 1545.2710 0.0000 0.0000 1835.8377 -7465.6245 311.1605 -9301.4621 -7476.3073 303.2770 778.0383 884.5941 30520.7173 68.4309 136.6640
ENERGY: 600000 4.3516 1.8313 4.9872 0.0000 -10719.0817 1441.9077 0.0000 0.0000 1846.0863 -7419.9175 312.8976 -9266.0039 -7477.4067 303.1897 -2.3460 -11.6688 30598.6745 -1.8110 62.7146
ENERGY: 900000 3.8083 3.0607 1.8479 0.0000 -10781.4518 1470.7303 0.0000 0.0000 1773.2655 -7528.7390 300.5550 -9302.0045 -7487.3297 301.5857 60.7503 128.3229 30342.9232 -5.1181 64.8290
ENERGY: 1200000 2.3937 4.2610 6.6683 0.0000 -10725.8910 1437.2201 0.0000 0.0000 1739.4584 -7535.8894 294.8250 -9275.3479 -7490.0059 301.5240 -42.0842 -33.8580 30224.2484 25.9448 80.3277
ENERGY: 1500000 1.1363 2.9943 1.4964 0.0000 -10728.3852 1464.9367 0.0000 0.0000 1786.6860 -7471.1356 302.8297 -9257.8215 -7496.1509 301.2785 212.9490 249.9801 30725.2526 72.5154 124.6550
TCL: Running FEP window  16: Lambda1 0.24999999999999967 Lambda2 0.19999999999999968 [dLambda -0.04999999999999999]
TCL: Setting parameter firsttimestep to 0
TCL: Setting parameter alchLambda to 0.24999999999999967
Info: NONBONDED TABLE R-SQUARED SPACING: 0.0625
Info: NONBONDED TABLE SIZE: 705 POINTS
TCL: Setting parameter alchLambda2 to 0.19999999999999968
Info: NONBONDED TABLE R-SQUARED SPACING: 0.0625
Info: NONBONDED TABLE SIZE: 705 POINTS
TCL: Running for 1500000 steps
ETITLE: TS BOND ANGLE DIHED IMPRP ELECT VDW BOUNDARY MISC KINETIC TOTAL TEMP POTENTIAL TOTALAVG TEMPAVG PRESSURE GPRESSURE VOLUME PRESSAVG GPRESSAVG
ENERGY: 0 1.1363 2.9943 1.4964 0.0000 -10728.3840 1464.5245 0.0000 0.0000 1785.7799 -7472.4526 302.6761 -9258.2325 -7472.4526 302.6761 163.1536 242.2478 30725.2526 163.1536 242.2478
ENERGY: 300000 2.4000 2.9704 4.3664 0.0000 -10663.2447 1412.9433 0.0000 0.0000 1793.3430 -7447.2216 303.9580 -9240.5646 -7477.4549 304.8881 -304.1453 -311.2961 30901.9460 69.3089 118.4140
ENERGY: 600000 1.7873 2.0108 4.8343 0.0000 -10874.9394 1436.9356 0.0000 0.0000 1767.2550 -7662.1164 299.5363 -9429.3714 -7520.7323 301.9613 -269.8116 -204.3905 29932.1990 -30.1893 2.0351
ENERGY: 900000 2.4423 2.5323 3.3773 0.0000 -10740.1917 1417.8044 0.0000 0.0000 1743.4353 -7570.6002 295.4990 -9314.0355 -7507.2473 302.4889 -201.9823 -134.2182 30225.2300 -25.4649 28.4304
ENERGY: 1200000 1.1145 4.1383 2.4204 0.0000 -10916.3717 1562.9963 0.0000 0.0000 1748.0837 -7597.6184 296.2869 -9345.7022 -7512.2001 301.0928 658.4773 757.7064 30340.0608 11.2158 70.1775
ENERGY: 1500000 1.1084 7.4660 4.8525 0.0000 -10778.1455 1461.3988 0.0000 0.0000 1807.7910 -7495.5288 306.4068 -9303.3198 -7519.2310 300.9773 23.2030 181.6169 30330.1861 -82.1585 -11.3891
TCL: Running FEP window  17: Lambda1 0.19999999999999968 Lambda2 0.1499999999999997 [dLambda -0.04999999999999999]
TCL: Setting parameter firsttimestep to 0
TCL: Setting parameter alchLambda to 0.19999999999999968
Info: NONBONDED TABLE R-SQUARED SPACING: 0.0625
Info: NONBONDED TABLE SIZE: 705 POINTS
TCL: Setting parameter alchLambda2 to 0.1499999999999997
Info: NONBONDED TABLE R-SQUARED SPACING: 0.0625
Info: NONBONDED TABLE SIZE: 705 POINTS
TCL: Running for 1500000 steps
ETITLE: TS BOND ANGLE DIHED IMPRP ELECT VDW BOUNDARY MISC KINETIC TOTAL TEMP POTENTIAL TOTALAVG TEMPAVG PRESSURE GPRESSURE VOLUME PRESSAVG GPRESSAVG
ENERGY: 0 1.1084 7.4660 4.8525 0.0000 -10778.1464 1461.3636 0.0000 0.0000 1806.9011 -7496.4547 306.2560 -9303.3558 -7496.4547 306.2560 94.1968 177.0105 30330.1861 94.1968 177.0105
ENERGY: 300000 3.5810 2.2084 2.5430 0.0000 -10649.0106 1390.8818 0.0000 0.0000 1772.5666 -7477.2298 300.4365 -9249.7964 -7507.0655 300.5521 -322.3245 -210.3403 30348.4743 -123.7065 -33.6548
ENERGY: 600000 3.0524 5.5312 4.5990 0.0000 -10776.6072 1466.2019 0.0000 0.0000 1798.4112 -7498.8114 304.8170 -9297.2227 -7490.1478 303.0393 -240.5179 -221.3633 30910.2236 -100.6073 -13.7886
ENERGY: 900000 1.5658 3.2573 2.4322 0.0000 -10813.5764 1500.8914 0.0000 0.0000 1829.2425 -7476.1870 310.0427 -9305.4295 -7494.5474 302.8641 562.4262 626.6914 30126.1079 -25.7398 54.1498
ENERGY: 1200000 5.8113 5.2211 4.1625 0.0000 -10618.8722 1327.0299 0.0000 0.0000 1751.7380 -7524.9094 296.9063 -9276.6474 -7502.1000 303.1459 -1245.9987 -1155.2545 30679.1078 -93.1369 -11.1651
ENERGY: 1500000 3.6981 5.5540 5.3798 0.0000 -10813.7435 1467.0812 0.0000 0.0000 1780.2987 -7551.7317 301.7471 -9332.0304 -7509.7814 302.5834 -247.0365 -222.8555 30724.6487 -134.9428 -58.0937
TCL: Running FEP window  18: Lambda1 0.1499999999999997 Lambda2 0.09999999999999969 [dLambda -0.05 ]
TCL: Setting parameter firsttimestep to 0
TCL: Setting parameter alchLambda to 0.1499999999999997
Info: NONBONDED TABLE R-SQUARED SPACING: 0.0625
Info: NONBONDED TABLE SIZE: 705 POINTS
TCL: Setting parameter alchLambda2 to 0.09999999999999969
Info: NONBONDED TABLE R-SQUARED SPACING: 0.0625
Info: NONBONDED TABLE SIZE: 705 POINTS
TCL: Running for 1500000 steps
ETITLE: TS BOND ANGLE DIHED IMPRP ELECT VDW BOUNDARY MISC KINETIC TOTAL TEMP POTENTIAL TOTALAVG TEMPAVG PRESSURE GPRESSURE VOLUME PRESSAVG GPRESSAVG
ENERGY: 0 3.6981 5.5540 5.3798 0.0000 -10813.7436 1466.9402 0.0000 0.0000 1779.4293 -7552.7421 301.5997 -9332.1714 -7552.7421 301.5997 -294.4605 -226.4859 30724.6487 -294.4605 -226.4859
ENERGY: 300000 1.3089 6.1496 4.3105 0.0000 -10698.4612 1444.4278 0.0000 0.0000 1756.6316 -7485.6329 297.7357 -9242.2645 -7517.3308 298.6303 20.9094 67.0789 30535.8569 -165.6525 -98.8229
ENERGY: 600000 1.8733 3.8684 1.0324 0.0000 -10808.5179 1509.8845 0.0000 0.0000 1805.0754 -7486.7839 305.9465 -9291.8593 -7508.2234 302.0014 460.9685 599.5208 30075.1513 191.2293 265.9243
ENERGY: 900000 2.3291 5.9528 3.4628 0.0000 -10721.3328 1460.0841 0.0000 0.0000 1761.6046 -7487.8994 298.5786 -9249.5040 -7491.5849 301.8543 49.6709 101.4383 30491.6842 132.6136 201.1797
ENERGY: 1200000 3.0326 6.4556 7.0178 0.0000 -10602.5945 1360.5355 0.0000 0.0000 1686.0505 -7539.5025 285.7727 -9225.5530 -7495.0671 299.6248 -711.5046 -615.4697 30516.4034 35.9625 104.1721
ENERGY: 1500000 1.8677 5.9476 3.0738 0.0000 -10701.1891 1456.7275 0.0000 0.0000 1767.1138 -7466.4588 299.5123 -9233.5726 -7490.7784 300.1285 126.1732 204.3421 30425.4577 33.6574 102.5555
TCL: Running FEP window  19: Lambda1 0.09999999999999969 Lambda2 0.049999999999999684 [dLambda -0.05 ]
TCL: Setting parameter firsttimestep to 0
TCL: Setting parameter alchLambda to 0.09999999999999969
Info: NONBONDED TABLE R-SQUARED SPACING: 0.0625
Info: NONBONDED TABLE SIZE: 705 POINTS
TCL: Setting parameter alchLambda2 to 0.049999999999999684
Info: NONBONDED TABLE R-SQUARED SPACING: 0.0625
Info: NONBONDED TABLE SIZE: 705 POINTS
TCL: Running for 1500000 steps
ETITLE: TS BOND ANGLE DIHED IMPRP ELECT VDW BOUNDARY MISC KINETIC TOTAL TEMP POTENTIAL TOTALAVG TEMPAVG PRESSURE GPRESSURE VOLUME PRESSAVG GPRESSAVG
ENERGY: 0 1.8677 5.9476 3.0738 0.0000 -10701.1887 1456.9973 0.0000 0.0000 1766.2458 -7467.0564 299.3652 -9233.3022 -7467.0564 299.3652 126.0802 201.0065 30425.4577 126.0802 201.0065
ENERGY: 300000 2.0298 3.4966 1.6842 0.0000 -10714.8903 1443.9247 0.0000 0.0000 1739.9718 -7523.7832 294.9120 -9263.7550 -7499.1119 297.7630 23.1476 62.4084 30120.2432 211.0358 289.0030
ENERGY: 600000 3.2759 1.2599 1.8575 0.0000 -10845.5446 1527.0960 0.0000 0.0000 1814.4849 -7497.5703 307.5414 -9312.0552 -7497.1764 300.9006 286.4954 268.1460 30510.8453 185.0605 237.6748
ENERGY: 900000 3.7826 3.8481 1.4585 0.0000 -10766.1024 1483.7672 0.0000 0.0000 1818.1124 -7455.1336 308.1562 -9273.2460 -7494.6936 301.1366 409.7445 413.2035 30169.6325 132.1365 178.0582
ENERGY: 1200000 1.0202 4.6771 1.7868 0.0000 -10781.2954 1493.9924 0.0000 0.0000 1744.6402 -7535.1787 295.7032 -9279.8188 -7502.3349 299.8015 367.2634 387.3814 30236.5649 109.3805 154.8308
ENERGY: 1500000 1.2818 2.2256 6.2618 0.0000 -10673.5619 1387.4892 0.0000 0.0000 1734.6040 -7541.6995 294.0022 -9276.3035 -7498.3850 300.6213 -719.4082 -684.0379 30759.7869 113.2284 163.9638
TCL: Running FEP window  20: Lambda1 0.049999999999999684 Lambda2 0.0    [dLambda -0.049999999999999684]
TCL: Setting parameter firsttimestep to 0
TCL: Setting parameter alchLambda to 0.049999999999999684
Info: NONBONDED TABLE R-SQUARED SPACING: 0.0625
Info: NONBONDED TABLE SIZE: 705 POINTS
TCL: Setting parameter alchLambda2 to 0.0
Info: NONBONDED TABLE R-SQUARED SPACING: 0.0625
Info: NONBONDED TABLE SIZE: 705 POINTS
TCL: Running for 1500000 steps
ETITLE: TS BOND ANGLE DIHED IMPRP ELECT VDW BOUNDARY MISC KINETIC TOTAL TEMP POTENTIAL TOTALAVG TEMPAVG PRESSURE GPRESSURE VOLUME PRESSAVG GPRESSAVG
ENERGY: 0 1.2818 2.2256 6.2618 0.0000 -10673.5628 1387.3507 0.0000 0.0000 1733.7061 -7542.7368 293.8500 -9276.4429 -7542.7368 293.8500 -779.8325 -688.5584 30759.7869 -779.8325 -688.5584
ENERGY: 300000 1.5996 6.6711 4.5186 0.0000 -10754.2976 1461.7588 0.0000 0.0000 1773.9602 -7505.7893 300.6727 -9279.7495 -7490.0970 298.4101 140.8629 217.3347 30474.5391 -110.6354 -25.6300
ENERGY: 600000 1.5908 4.4322 2.1278 0.0000 -10700.4125 1411.2251 0.0000 0.0000 1780.5691 -7500.4676 301.7929 -9281.0367 -7499.6003 298.9296 -196.9996 -116.6435 29991.2143 -20.1564 47.6965
ENERGY: 900000 2.8394 4.0058 2.5400 0.0000 -10877.7653 1528.9519 0.0000 0.0000 1752.8720 -7586.5562 297.0985 -9339.4282 -7502.7715 299.6126 404.1154 496.9614 30207.2318 -2.4044 72.1297
ENERGY: 1200000 2.1475 2.3257 2.7140 0.0000 -10599.2460 1356.4819 0.0000 0.0000 1799.4820 -7436.0949 304.9985 -9235.5769 -7478.1468 300.5864 -597.2633 -578.5262 30713.9495 -36.9965 34.8257
ENERGY: 1500000 1.6325 5.3285 2.3842 0.0000 -10886.5448 1553.5523 0.0000 0.0000 1777.4235 -7546.2238 301.2597 -9323.6472 -7477.5578 301.5792 890.0309 958.0981 29939.3296 35.3715 103.2977
TCL: Exiting due to exit command.
