Info: SIMULATION PARAMETERS:
Info: TIMESTEP               2
Info: NUMBER OF STEPS        0
Info: STEPS PER CYCLE        10
Info: PERIODIC CELL BASIS 1  31.9411 0 0
Info: PERIODIC CELL BASIS 2  0 31.4991 0
Info: PERIODIC CELL BASIS 3  0 0 30.7543
Info: PERIODIC CELL CENTER   0 0 0
Info: WRAPPING WATERS AROUND PERIODIC BOUNDARIES ON OUTPUT.
Info: WRAPPING ALL CLUSTERS AROUND PERIODIC BOUNDARIES ON OUTPUT.
Info: FIRST LDB TIMESTEP     50
Info: LAST LDB TIMESTEP     -1
Info: HOM BACKGROUND SCALING 1
Info: PME BACKGROUND SCALING 1
Info: MIN ATOMS PER PATCH    40
Info: EMPTY PATCH LOAD       40 ATOMS
Info: VELOCITY FILE          mobley_3269565_equil.vel
Info: CENTER OF MASS MOVING INITIALLY? NO
Info: DIELECTRIC             1
Info: EXCLUDE                SCALED ONE-FOUR
Info: 1-4 ELECTROSTATICS SCALED BY 0.833333
Info: MODIFIED 1-4 VDW PARAMETERS WILL BE USED
Info: DCD FILENAME           mobley_3269565_prod.dcd
Info: DCD FREQUENCY          100000
Info: DCD FIRST STEP         100000
Info: DCD FILE WILL CONTAIN UNIT CELL DATA
Info: XST FILENAME           mobley_3269565_prod.xst
Info: XST FREQUENCY          100000
Info: NO VELOCITY DCD OUTPUT
Info: NO FORCE DCD OUTPUT
Info: OUTPUT FILENAME        mobley_3269565_prod
Info: BINARY OUTPUT FILES WILL BE USED
Info: RESTART FILENAME       mobley_3269565_prod.restart
Info: RESTART FREQUENCY      100000
Info: BINARY RESTART FILES WILL BE USED
Info: CUTOFF                 9
Info: PAIRLIST DISTANCE      11
Info: PAIRLIST SHRINK RATE   0.01
Info: PAIRLIST GROW RATE     0.01
Info: PAIRLIST TRIGGER       0.3
Info: PAIRLISTS PER CYCLE    2
Info: PAIRLISTS ENABLED
Info: MARGIN                 2
Info: HYDROGEN GROUP CUTOFF  2.5
Info: PATCH DIMENSION        15.5
Info: ENERGY OUTPUT STEPS    100000
Info: ENERGY EVALUATION STEPS    100000
Info: OUTPUT ENERGY PRECISION 4
Info: CROSSTERM ENERGY INCLUDED IN DIHEDRAL
Info: TIMING OUTPUT STEPS    1000000
Info: PRESSURE OUTPUT STEPS  100000
Info: ALCHEMICAL FEP ON
Info: FEP CURRENT LAMBDA VALUE     0
Info: FEP COMPARISON LAMBDA VALUE  0.05
Info: FEP INTRA-ALCHEMICAL NON-BONDED INTERACTIONS WILL BE RETAINED
Info: FEP INTRA-ALCHEMICAL BONDED INTERACTIONS WILL BE RETAINED
Info: FEP VDW SHIFTING COEFFICIENT 5
Info: FEP ELEC. ACTIVE FOR ANNIHILATED PARTICLES BETWEEN LAMBDA = 0 AND LAMBDA = 0.5
Info: FEP ELEC. ACTIVE FOR EXNIHILATED PARTICLES BETWEEN LAMBDA = 0.5 AND LAMBDA = 1
Info: FEP VDW ACTIVE FOR ANNIHILATED PARTICLES BETWEEN LAMBDA = 0 AND LAMBDA = 1
Info: FEP VDW ACTIVE FOR EXNIHILATED PARTICLES BETWEEN LAMBDA = 0 AND LAMBDA = 1
Info: FEP BOND ACTIVE FOR ANNIHILATED PARTICLES BETWEEN LAMBDA = 1 AND LAMBDA = 1
Info: FEP BOND ACTIVE FOR EXNIHILATED PARTICLES BETWEEN LAMBDA = 0 AND LAMBDA = 0
Info: LANGEVIN DYNAMICS ACTIVE
Info: LANGEVIN TEMPERATURE   300
Info: LANGEVIN USING BBK INTEGRATOR
Info: LANGEVIN DAMPING COEFFICIENT IS 1 INVERSE PS
Info: LANGEVIN DYNAMICS APPLIED TO HYDROGENS
Info: LANGEVIN PISTON PRESSURE CONTROL ACTIVE
Info:        TARGET PRESSURE IS 1.01325 BAR
Info:     OSCILLATION PERIOD IS 50 FS
Info:             DECAY TIME IS 25 FS
Info:     PISTON TEMPERATURE IS 300 K
Info:       PRESSURE CONTROL IS GROUP-BASED
Info:    INITIAL STRAIN RATE IS -0.000242998 -0.000242998 -0.000242998
Info:       CELL FLUCTUATION IS ISOTROPIC
Info: PARTICLE MESH EWALD (PME) ACTIVE
Info: PME TOLERANCE               1e-06
Info: PME EWALD COEFFICIENT       0.348832
Info: PME INTERPOLATION ORDER     4
Info: PME GRID DIMENSIONS         32 32 32
Info: PME MAXIMUM GRID SPACING    1
Info: PME CALCULATION WILL BE PERFORMED ON GPU
Info: FULL ELECTROSTATIC EVALUATION FREQUENCY      2
Info: USING VERLET I (r-RESPA) MTS SCHEME.
Info: C1 SPLITTING OF LONG RANGE ELECTROSTATICS
Info: PLACING ATOMS IN PATCHES BY HYDROGEN GROUPS
Info: RIGID BONDS TO HYDROGEN : ALL
Info:         ERROR TOLERANCE : 1e-08
Info:          MAX ITERATIONS : 100
Info: RIGID WATER USING SETTLE ALGORITHM
Info: RANDOM NUMBER SEED     1743745621
Info: USE HYDROGEN BONDS?    NO
Info: Using AMBER format force field!
Info: AMBER PARM FILE        mobley_3269565.prmtop
Info: COORDINATE PDB         mobley_3269565.pdb
Info: Exclusions will be read from PARM file!
Info: SCNB (VDW SCALING)     2
Info: USING ARITHMETIC MEAN TO COMBINE L-J SIGMA PARAMETERS
Info: BINARY COORDINATES     mobley_3269565_equil.coor
Info: SUMMARY OF PARAMETERS:
Info: 6 BONDS
Info: 8 ANGLES
Info:   8 HARMONIC
Info:   0 COSINE-BASED
Info: 7 DIHEDRAL
Info: 0 IMPROPER
Info: 0 CROSSTERM
Info: 0 VDW
Info: 21 VDW_PAIRS
Info: 0 NBTHOLE_PAIRS
Info: To read alchdata from file: mobley_3269565.pdb
Info: To read alchflag data from column: 5
Info: STRUCTURE SUMMARY:
Info: 2964 ATOMS
Info: 2963 BONDS
Info: 25 ANGLES
Info: 32 DIHEDRALS
Info: 0 IMPROPERS
Info: 0 CROSSTERMS
Info: 3012 EXCLUSIONS
Info: 2959 RIGID BONDS
Info: ALCH: 0 ATOMS TO DISAPPEAR IN FINAL STATE
Info: ALCH: 15 ATOMS TO APPEAR IN FINAL STATE
Info: 5933 DEGREES OF FREEDOM
Info: 988 HYDROGEN GROUPS
Info: 4 ATOMS IN LARGEST HYDROGEN GROUP
Info: 988 MIGRATION GROUPS
Info: 4 ATOMS IN LARGEST MIGRATION GROUP
Info: TOTAL MASS = 17783.8 amu
Info: TOTAL CHARGE = -0.000399977 e
Info: MASS DENSITY = 0.954401 g/cm^3
Info: ATOM DENSITY = 0.0957909 atoms/A^3
Info: ADDED 0 IMPLICIT EXCLUSIONS
Info: NONBONDED TABLE R-SQUARED SPACING: 0.0625
Info: NONBONDED TABLE SIZE: 705 POINTS
Info: REDUCING NUMBER OF PATCHES TO IMPROVE LOAD BALANCE
Info: REMOVING COM VELOCITY 0.0777092 -0.151357 -0.0445506
Info: Use 3D box decompostion in PME FFT.
Info: Updated CUDA force table with 4096 elements.
Info: Updated CUDA LJ table with 6 x 6 elements.
Info: Found 18 unique exclusion lists needing 40 bytes
TCL: Running for 1500000 steps
ETITLE: TS BOND ANGLE DIHED IMPRP ELECT VDW BOUNDARY MISC KINETIC TOTAL TEMP POTENTIAL TOTALAVG TEMPAVG PRESSURE GPRESSURE VOLUME PRESSAVG GPRESSAVG
ENERGY: 0 2.6105 6.9070 4.1023 0.0000 -10738.0369 1498.3196 0.0000 0.0000 1736.3491 -7489.7483 294.5460 -9226.0974 -7489.7483 294.5460 192.4872 275.4071 30942.3977 192.4872 275.4071
ENERGY: 300000 0.7306 5.5583 2.6672 0.0000 -10653.4481 1386.5499 0.0000 0.0000 1713.0600 -7544.8820 290.5953 -9257.9420 -7511.5511 295.1385 -586.5873 -500.2775 30893.3595 -220.3224 -162.3576
ENERGY: 600000 0.6591 3.7585 3.0235 0.0000 -10617.6204 1368.9616 0.0000 0.0000 1806.6161 -7434.6018 306.4657 -9241.2178 -7498.5100 299.3940 -655.2394 -537.1917 30625.5991 -147.8510 -76.7662
ENERGY: 900000 1.6416 4.1145 2.1421 0.0000 -10730.5992 1416.6653 0.0000 0.0000 1752.0756 -7553.9601 297.2137 -9306.0357 -7498.7215 298.4408 -210.0535 -177.0409 30245.9937 -226.1515 -156.1367
ENERGY: 1200000 1.3273 7.5811 2.8657 0.0000 -10591.2142 1351.0609 0.0000 0.0000 1757.2308 -7471.1485 298.0882 -9228.3792 -7493.7645 299.7536 -499.3071 -472.9057 30348.8794 -198.4038 -134.8589
ENERGY: 1500000 3.8654 5.7475 5.4109 0.0000 -10719.1222 1401.4360 0.0000 0.0000 1750.7533 -7551.9091 296.9894 -9302.6624 -7509.6129 299.8012 -662.3587 -647.2061 30469.2897 -254.0041 -197.8058
TCL: Running FEP window   2: Lambda1 0.05   Lambda2 0.1    [dLambda 0.05  ]
TCL: Setting parameter firsttimestep to 0
TCL: Setting parameter alchLambda to 0.05
Info: NONBONDED TABLE R-SQUARED SPACING: 0.0625
Info: NONBONDED TABLE SIZE: 705 POINTS
TCL: Setting parameter alchLambda2 to 0.1
Info: NONBONDED TABLE R-SQUARED SPACING: 0.0625
Info: NONBONDED TABLE SIZE: 705 POINTS
TCL: Running for 1500000 steps
ETITLE: TS BOND ANGLE DIHED IMPRP ELECT VDW BOUNDARY MISC KINETIC TOTAL TEMP POTENTIAL TOTALAVG TEMPAVG PRESSURE GPRESSURE VOLUME PRESSAVG GPRESSAVG
ENERGY: 0 3.8654 5.7475 5.4109 0.0000 -10719.1225 1403.3480 0.0000 0.0000 1749.8678 -7550.8828 296.8392 -9300.7506 -7550.8828 296.8392 -733.1326 -642.8935 30469.2897 -733.1326 -642.8935
ENERGY: 300000 1.0533 6.1322 3.0947 0.0000 -10821.8375 1514.4186 0.0000 0.0000 1820.9926 -7476.1461 308.9045 -9297.1387 -7528.1773 299.9171 612.3662 724.1897 30235.3936 -374.8296 -284.1458
ENERGY: 600000 0.6686 11.1334 3.2716 0.0000 -10811.0497 1471.6643 0.0000 0.0000 1766.7897 -7557.5221 299.7098 -9324.3119 -7541.7986 297.9071 -51.5212 50.6384 30401.1805 -219.2261 -130.8244
ENERGY: 900000 0.2361 7.2767 2.1544 0.0000 -10788.8490 1492.3898 0.0000 0.0000 1825.4423 -7461.3496 309.6593 -9286.7919 -7525.9052 299.8451 337.8839 388.1502 30488.3736 -139.3617 -68.8154
ENERGY: 1200000 2.7288 7.2026 4.0443 0.0000 -10787.6148 1485.2890 0.0000 0.0000 1826.3697 -7461.9804 309.8166 -9288.3501 -7516.8757 300.9992 130.8816 198.3434 30869.2636 -218.4572 -144.0790
ENERGY: 1500000 0.1399 7.4318 3.3953 0.0000 -10813.5330 1455.5512 0.0000 0.0000 1758.4526 -7588.5622 298.2955 -9347.0148 -7516.1479 300.9077 -114.6270 -85.6391 30457.3556 -139.4304 -76.2620
TCL: Running FEP window   3: Lambda1 0.1    Lambda2 0.15000000000000002 [dLambda 0.05000000000000002]
TCL: Setting parameter firsttimestep to 0
TCL: Setting parameter alchLambda to 0.1
Info: NONBONDED TABLE R-SQUARED SPACING: 0.0625
Info: NONBONDED TABLE SIZE: 705 POINTS
TCL: Setting parameter alchLambda2 to 0.15000000000000002
Info: NONBONDED TABLE R-SQUARED SPACING: 0.0625
Info: NONBONDED TABLE SIZE: 705 POINTS
TCL: Running for 1500000 steps
ETITLE: TS BOND ANGLE DIHED IMPRP ELECT VDW BOUNDARY MISC KINETIC TOTAL TEMP POTENTIAL TOTALAVG TEMPAVG PRESSURE GPRESSURE VOLUME PRESSAVG GPRESSAVG
ENERGY: 0 0.1399 7.4318 3.3953 0.0000 -10813.5328 1457.4099 0.0000 0.0000 1757.5848 -7587.5711 298.1483 -9345.1559 -7587.5711 298.1483 -148.1627 -78.5774 30457.3556 -148.1627 -78.5774
ENERGY: 300000 5.3600 5.1156 2.4814 0.0000 -10780.1751 1434.2103 0.0000 0.0000 1759.3522 -7573.6557 298.4481 -9333.0079 -7562.8991 298.1555 -300.1899 -197.5358 30529.2961 -247.7516 -181.9522
ENERGY: 600000 1.4996 4.0297 4.9553 0.0000 -10735.1077 1429.8827 0.0000 0.0000 1733.9842 -7560.7562 294.1448 -9294.7404 -7547.2377 298.6495 -63.4322 45.7690 30134.1805 -208.7744 -146.9753
ENERGY: 900000 1.0230 6.3200 3.0182 0.0000 -10828.3961 1495.9461 0.0000 0.0000 1718.9577 -7603.1311 291.5958 -9322.0888 -7546.1397 297.9790 -137.1855 -17.1392 30783.7975 -188.2923 -126.1641
ENERGY: 1200000 0.3717 5.5579 3.4257 0.0000 -10792.1597 1490.3875 0.0000 0.0000 1778.2903 -7514.1266 301.6607 -9292.4169 -7529.7376 298.6821 126.6176 166.3882 30748.0925 57.9243 117.7793
ENERGY: 1500000 2.1780 11.2327 1.9958 0.0000 -10809.5609 1446.8596 0.0000 0.0000 1763.1733 -7584.1215 299.0963 -9347.2947 -7529.7721 299.0486 -583.8936 -464.3255 30743.0102 0.3230 62.1858
TCL: Running FEP window   4: Lambda1 0.15000000000000002 Lambda2 0.2    [dLambda 0.04999999999999999]
TCL: Setting parameter firsttimestep to 0
TCL: Setting parameter alchLambda to 0.15000000000000002
Info: NONBONDED TABLE R-SQUARED SPACING: 0.0625
Info: NONBONDED TABLE SIZE: 705 POINTS
TCL: Setting parameter alchLambda2 to 0.2
Info: NONBONDED TABLE R-SQUARED SPACING: 0.0625
Info: NONBONDED TABLE SIZE: 705 POINTS
TCL: Running for 1500000 steps
ETITLE: TS BOND ANGLE DIHED IMPRP ELECT VDW BOUNDARY MISC KINETIC TOTAL TEMP POTENTIAL TOTALAVG TEMPAVG PRESSURE GPRESSURE VOLUME PRESSAVG GPRESSAVG
ENERGY: 0 2.1780 11.2327 1.9958 0.0000 -10809.5616 1446.6730 0.0000 0.0000 1762.2903 -7585.1916 298.9465 -9347.4820 -7585.1916 298.9465 -542.2660 -463.7337 30743.0102 -542.2660 -463.7337
ENERGY: 300000 0.5150 6.7324 3.4823 0.0000 -10844.7893 1534.0686 0.0000 0.0000 1803.2581 -7496.7328 305.8961 -9299.9910 -7545.8490 301.0063 729.9879 751.4324 30239.4091 286.2476 332.9487
ENERGY: 600000 3.0347 9.8084 3.7960 0.0000 -10716.4580 1454.5049 0.0000 0.0000 1738.7092 -7506.6047 294.9463 -9245.3139 -7525.2192 300.7423 320.8948 304.4893 30358.0560 136.2343 170.7149
ENERGY: 900000 1.4879 3.9981 2.9179 0.0000 -10762.7006 1454.5759 0.0000 0.0000 1755.8472 -7543.8736 297.8535 -9299.7209 -7526.3195 300.2876 14.2422 100.7413 30332.5909 149.1160 194.9376
ENERGY: 1200000 1.4421 5.7357 3.5365 0.0000 -10809.4755 1526.3628 0.0000 0.0000 1757.0598 -7515.3386 298.0592 -9272.3984 -7507.1755 301.6020 625.0438 697.4249 30234.8935 77.9515 132.0242
ENERGY: 1500000 1.5100 5.5796 3.0055 0.0000 -10666.6770 1426.5332 0.0000 0.0000 1786.9415 -7443.1072 303.1282 -9230.0487 -7498.9846 301.3509 -49.7582 44.1789 30468.9291 44.3703 103.3922
TCL: Running FEP window   5: Lambda1 0.2    Lambda2 0.25   [dLambda 0.04999999999999999]
TCL: Setting parameter firsttimestep to 0
TCL: Setting parameter alchLambda to 0.2
Info: NONBONDED TABLE R-SQUARED SPACING: 0.0625
Info: NONBONDED TABLE SIZE: 705 POINTS
TCL: Setting parameter alchLambda2 to 0.25
Info: NONBONDED TABLE R-SQUARED SPACING: 0.0625
Info: NONBONDED TABLE SIZE: 705 POINTS
TCL: Running for 1500000 steps
ETITLE: TS BOND ANGLE DIHED IMPRP ELECT VDW BOUNDARY MISC KINETIC TOTAL TEMP POTENTIAL TOTALAVG TEMPAVG PRESSURE GPRESSURE VOLUME PRESSAVG GPRESSAVG
ENERGY: 0 1.5100 5.5796 3.0055 0.0000 -10666.6777 1426.6426 0.0000 0.0000 1786.0699 -7443.8702 302.9804 -9229.9401 -7443.8702 302.9804 -18.2006 47.2693 30468.9291 -18.2006 47.2693
ENERGY: 300000 4.3296 10.0653 3.6680 0.0000 -10815.0322 1440.3250 0.0000 0.0000 1768.3045 -7588.3398 299.9667 -9356.6443 -7530.8835 300.4851 -205.3296 -166.3957 30010.1011 -334.1590 -293.8818
ENERGY: 600000 0.7275 6.5803 3.0164 0.0000 -10832.0873 1562.2239 0.0000 0.0000 1802.4463 -7457.0928 305.7584 -9259.5391 -7516.6523 300.4086 1202.5463 1228.4253 30066.7537 -122.4902 -80.2983
ENERGY: 900000 4.7039 5.5028 3.7771 0.0000 -10834.4721 1488.7763 0.0000 0.0000 1785.2462 -7546.4657 302.8406 -9331.7119 -7513.6412 300.6446 248.0420 294.8795 30059.6525 -135.2573 -97.4440
ENERGY: 1200000 1.6599 2.7638 6.2541 0.0000 -10743.0595 1522.9308 0.0000 0.0000 1788.4990 -7420.9519 303.3924 -9209.4509 -7515.3280 300.7577 662.7179 744.9014 30486.3886 -15.4070 31.7338
ENERGY: 1500000 0.5682 10.2350 3.0543 0.0000 -10703.1424 1391.9812 0.0000 0.0000 1847.3501 -7449.9536 313.3757 -9297.3037 -7518.3993 301.2796 -331.0724 -240.6584 30209.7822 -31.9772 23.9999
TCL: Running FEP window   6: Lambda1 0.25   Lambda2 0.3    [dLambda 0.04999999999999999]
TCL: Setting parameter firsttimestep to 0
TCL: Setting parameter alchLambda to 0.25
Info: NONBONDED TABLE R-SQUARED SPACING: 0.0625
Info: NONBONDED TABLE SIZE: 705 POINTS
TCL: Setting parameter alchLambda2 to 0.3
Info: NONBONDED TABLE R-SQUARED SPACING: 0.0625
Info: NONBONDED TABLE SIZE: 705 POINTS
TCL: Running for 1500000 steps
ETITLE: TS BOND ANGLE DIHED IMPRP ELECT VDW BOUNDARY MISC KINETIC TOTAL TEMP POTENTIAL TOTALAVG TEMPAVG PRESSURE GPRESSURE VOLUME PRESSAVG GPRESSAVG
ENERGY: 0 0.5682 10.2350 3.0543 0.0000 -10703.1433 1392.3260 0.0000 0.0000 1846.4710 -7450.4888 313.2265 -9296.9597 -7450.4888 313.2265 -330.9738 -236.1602 30209.7822 -330.9738 -236.1602
ENERGY: 300000 0.8754 3.4425 3.2121 0.0000 -10720.8338 1442.3797 0.0000 0.0000 1806.8082 -7464.1161 306.4983 -9270.9243 -7496.3607 303.4987 208.0543 306.5890 29834.9744 -6.9714 69.0867
ENERGY: 600000 0.7572 7.1881 1.9995 0.0000 -10882.3190 1531.0417 0.0000 0.0000 1757.6910 -7583.6415 298.1663 -9341.3325 -7522.7815 302.3769 520.6183 568.9193 30258.9235 125.6114 192.8893
ENERGY: 900000 1.3675 8.0605 3.1027 0.0000 -10832.6237 1531.3816 0.0000 0.0000 1852.5873 -7436.1242 314.2641 -9288.7115 -7514.4046 302.3280 852.6445 930.3202 30117.6622 166.0695 234.4970
ENERGY: 1200000 1.3267 5.7546 2.3784 0.0000 -10772.2075 1523.1245 0.0000 0.0000 1738.9592 -7500.6641 294.9887 -9239.6233 -7511.8218 301.4364 961.4907 991.9956 30172.8738 168.7864 225.8766
ENERGY: 1500000 0.3622 7.2083 3.4677 0.0000 -10699.5499 1432.5230 0.0000 0.0000 1789.8283 -7466.1605 303.6179 -9255.9888 -7505.8990 300.9936 -18.7018 25.4441 30390.9627 119.0134 167.6511
TCL: Running FEP window   7: Lambda1 0.3    Lambda2 0.35   [dLambda 0.04999999999999999]
TCL: Setting parameter firsttimestep to 0
TCL: Setting parameter alchLambda to 0.3
Info: NONBONDED TABLE R-SQUARED SPACING: 0.0625
Info: NONBONDED TABLE SIZE: 705 POINTS
TCL: Setting parameter alchLambda2 to 0.35
Info: NONBONDED TABLE R-SQUARED SPACING: 0.0625
Info: NONBONDED TABLE SIZE: 705 POINTS
TCL: Running for 1500000 steps
ETITLE: TS BOND ANGLE DIHED IMPRP ELECT VDW BOUNDARY MISC KINETIC TOTAL TEMP POTENTIAL TOTALAVG TEMPAVG PRESSURE GPRESSURE VOLUME PRESSAVG GPRESSAVG
ENERGY: 0 0.3622 7.2083 3.4677 0.0000 -10699.5510 1434.2948 0.0000 0.0000 1788.9604 -7465.2575 303.4707 -9254.2179 -7465.2575 303.4707 -49.8907 38.5047 30390.9627 -49.8907 38.5047
ENERGY: 300000 0.4015 9.4019 1.9983 0.0000 -10617.2749 1399.1131 0.0000 0.0000 1783.0130 -7423.3471 302.4618 -9206.3601 -7455.1635 301.1662 -138.8997 -120.7038 30695.4843 -370.2946 -318.5496
ENERGY: 600000 0.9944 5.0225 4.5251 0.0000 -10912.4658 1548.1866 0.0000 0.0000 1781.7653 -7571.9718 302.2502 -9353.7371 -7495.2124 301.0672 699.3531 814.4745 30133.5636 -149.4569 -95.6145
ENERGY: 900000 0.3457 8.3337 2.7471 0.0000 -10642.2187 1373.4413 0.0000 0.0000 1762.8592 -7494.4917 299.0430 -9257.3508 -7498.8419 301.8669 -644.7595 -650.0012 30855.8917 -254.7442 -207.5396
ENERGY: 1200000 0.5009 6.2844 1.9603 0.0000 -10680.1735 1426.6186 0.0000 0.0000 1817.9891 -7426.8202 308.3950 -9244.8093 -7486.2038 302.5798 88.9100 130.5819 30284.7177 -198.6208 -148.8813
ENERGY: 1500000 1.2339 4.4735 2.9639 0.0000 -10725.5349 1474.0472 0.0000 0.0000 1789.6613 -7453.1551 303.5896 -9242.8164 -7484.6727 302.0221 446.1490 516.3643 30274.5671 -75.0018 -23.8163
TCL: Running FEP window   8: Lambda1 0.35   Lambda2 0.39999999999999997 [dLambda 0.04999999999999999]
TCL: Setting parameter firsttimestep to 0
TCL: Setting parameter alchLambda to 0.35
Info: NONBONDED TABLE R-SQUARED SPACING: 0.0625
Info: NONBONDED TABLE SIZE: 705 POINTS
TCL: Setting parameter alchLambda2 to 0.39999999999999997
Info: NONBONDED TABLE R-SQUARED SPACING: 0.0625
Info: NONBONDED TABLE SIZE: 705 POINTS
TCL: Running for 1500000 steps
ETITLE: TS BOND ANGLE DIHED IMPRP ELECT VDW BOUNDARY MISC KINETIC TOTAL TEMP POTENTIAL TOTALAVG TEMPAVG PRESSURE GPRESSURE VOLUME PRESSAVG GPRESSAVG
ENERGY: 0 1.2339 4.4735 2.9639 0.0000 -10725.5342 1473.7393 0.0000 0.0000 1788.7776 -7454.3461 303.4397 -9243.1236 -7454.3461 303.4397 437.4668 519.6041 30274.5671 437.4668 519.6041
ENERGY: 300000 1.7410 7.1504 3.8669 0.0000 -10926.8768 1567.3224 0.0000 0.0000 1810.5737 -7536.2225 307.1371 -9346.7962 -7488.6031 303.4532 810.9667 829.3989 30452.7617 750.1628 808.5058
ENERGY: 600000 0.3406 9.4455 2.4961 0.0000 -10823.8289 1473.3239 0.0000 0.0000 1763.6492 -7574.5736 299.1770 -9338.2228 -7508.3996 300.2281 8.8310 59.7301 30606.4023 355.4592 421.2689
ENERGY: 900000 2.7154 6.4734 2.5519 0.0000 -10623.0094 1395.6882 0.0000 0.0000 1769.1297 -7446.4509 300.1067 -9215.5806 -7514.4591 300.2575 -247.6256 -136.4945 30432.2783 285.6608 356.7716
ENERGY: 1200000 0.9323 12.0335 1.9955 0.0000 -10748.2071 1431.6414 0.0000 0.0000 1747.0220 -7554.5823 296.3565 -9301.6043 -7521.2864 300.7055 -104.6852 -64.7465 30443.5628 185.3742 249.8736
ENERGY: 1500000 2.0214 9.5530 2.3345 0.0000 -10746.8119 1420.7256 0.0000 0.0000 1828.9898 -7483.1877 310.2611 -9312.1775 -7509.3000 301.6089 -192.3630 -117.0627 30282.2866 112.1517 180.2505
TCL: Running FEP window   9: Lambda1 0.39999999999999997 Lambda2 0.44999999999999996 [dLambda 0.04999999999999999]
TCL: Setting parameter firsttimestep to 0
TCL: Setting parameter alchLambda to 0.39999999999999997
Info: NONBONDED TABLE R-SQUARED SPACING: 0.0625
Info: NONBONDED TABLE SIZE: 705 POINTS
TCL: Setting parameter alchLambda2 to 0.44999999999999996
Info: NONBONDED TABLE R-SQUARED SPACING: 0.0625
Info: NONBONDED TABLE SIZE: 705 POINTS
TCL: Running for 1500000 steps
ETITLE: TS BOND ANGLE DIHED IMPRP ELECT VDW BOUNDARY MISC KINETIC TOTAL TEMP POTENTIAL TOTALAVG TEMPAVG PRESSURE GPRESSURE VOLUME PRESSAVG GPRESSAVG
ENERGY: 0 2.0214 9.5530 2.3345 0.0000 -10746.8126 1421.0732 0.0000 0.0000 1828.1273 -7483.7032 310.1148 -9311.8305 -7483.7032 310.1148 -188.4938 -111.0438 30282.2866 -188.4938 -111.0438
ENERGY: 300000 1.9313 9.3364 2.1063 0.0000 -10593.3750 1328.9632 0.0000 0.0000 1760.6577 -7490.3801 298.6696 -9251.0378 -7480.6063 303.1710 -769.8346 -754.2801 30222.6649 -446.4001 -394.9087
ENERGY: 600000 0.5925 2.2716 2.6652 0.0000 -10662.4219 1447.9012 0.0000 0.0000 1780.6645 -7428.3268 302.0634 -9208.9914 -7481.1098 301.5828 74.5116 183.9244 30835.5276 -361.2300 -299.4091
ENERGY: 900000 3.2251 4.7166 3.6935 0.0000 -10775.0532 1494.8550 0.0000 0.0000 1731.0499 -7537.5131 293.6470 -9268.5629 -7505.5986 299.7426 372.3357 401.6346 30431.4895 -209.6105 -151.7279
ENERGY: 1200000 0.9896 9.0508 3.0416 0.0000 -10819.2321 1470.5939 0.0000 0.0000 1789.1184 -7546.4377 303.4975 -9335.5561 -7519.5715 299.5236 -27.1989 44.8664 30216.0260 -169.2119 -111.7091
ENERGY: 1500000 1.2041 3.8393 2.6155 0.0000 -10639.6921 1350.7520 0.0000 0.0000 1793.4993 -7487.7818 304.2407 -9281.2812 -7518.6674 299.9878 -568.5511 -532.4331 30148.2534 -115.2517 -58.1285
TCL: Running FEP window  10: Lambda1 0.44999999999999996 Lambda2 0.49999999999999994 [dLambda 0.04999999999999999]
TCL: Setting parameter firsttimestep to 0
TCL: Setting parameter alchLambda to 0.44999999999999996
Info: NONBONDED TABLE R-SQUARED SPACING: 0.0625
Info: NONBONDED TABLE SIZE: 705 POINTS
TCL: Setting parameter alchLambda2 to 0.49999999999999994
Info: NONBONDED TABLE R-SQUARED SPACING: 0.0625
Info: NONBONDED TABLE SIZE: 705 POINTS
TCL: Running for 1500000 steps
ETITLE: TS BOND ANGLE DIHED IMPRP ELECT VDW BOUNDARY MISC KINETIC TOTAL TEMP POTENTIAL TOTALAVG TEMPAVG PRESSURE GPRESSURE VOLUME PRESSAVG GPRESSAVG
ENERGY: 0 1.2041 3.8393 2.6155 0.0000 -10639.6924 1351.4203 0.0000 0.0000 1792.6274 -7487.9858 304.0927 -9280.6132 -7487.9858 304.0927 -614.9105 -520.9993 30148.2534 -614.9105 -520.9993
ENERGY: 300000 0.4748 7.1171 7.0862 0.0000 -10735.7150 1461.0825 0.0000 0.0000 1846.3440 -7413.6105 313.2050 -9259.9545 -7478.3771 301.2949 208.0328 221.7587 30367.4933 -443.0122 -377.3415
ENERGY: 600000 1.3258 8.4413 2.7791 0.0000 -10688.1563 1413.9404 0.0000 0.0000 1754.3208 -7507.3489 297.5946 -9261.6697 -7501.4333 300.3488 -67.2605 -53.1476 30544.8034 -274.1737 -210.5986
ENERGY: 900000 1.9928 7.4125 3.9989 0.0000 -10646.4542 1418.2786 0.0000 0.0000 1829.7536 -7385.0178 310.3907 -9214.7714 -7498.4017 301.1666 -127.1829 -97.5898 30916.7063 -156.5218 -100.3427
ENERGY: 1200000 1.5619 10.5277 3.3230 0.0000 -10718.5388 1441.6987 0.0000 0.0000 1724.9947 -7536.4327 292.6199 -9261.4274 -7512.8842 299.8862 59.9538 163.3844 30035.3162 -207.9079 -143.6430
ENERGY: 1500000 1.7578 7.9461 2.7212 0.0000 -10725.0008 1454.6195 0.0000 0.0000 1792.9603 -7464.9960 304.1492 -9257.9563 -7508.7896 300.5312 189.3440 206.3263 30265.6206 -143.2502 -77.8908
TCL: Running FEP window  11: Lambda1 0.49999999999999994 Lambda2 0.5499999999999999 [dLambda 0.04999999999999999]
TCL: Setting parameter firsttimestep to 0
TCL: Setting parameter alchLambda to 0.49999999999999994
Info: NONBONDED TABLE R-SQUARED SPACING: 0.0625
Info: NONBONDED TABLE SIZE: 705 POINTS
TCL: Setting parameter alchLambda2 to 0.5499999999999999
Info: NONBONDED TABLE R-SQUARED SPACING: 0.0625
Info: NONBONDED TABLE SIZE: 705 POINTS
TCL: Running for 1500000 steps
ETITLE: TS BOND ANGLE DIHED IMPRP ELECT VDW BOUNDARY MISC KINETIC TOTAL TEMP POTENTIAL TOTALAVG TEMPAVG PRESSURE GPRESSURE VOLUME PRESSAVG GPRESSAVG
ENERGY: 0 1.7578 7.9461 2.7212 0.0000 -10725.0003 1454.8657 0.0000 0.0000 1792.0827 -7465.6268 304.0004 -9257.7095 -7465.6268 304.0004 131.0718 211.9295 30265.6206 131.0718 211.9295
ENERGY: 300000 1.2432 8.5479 4.7318 0.0000 -10718.4205 1414.8474 0.0000 0.0000 1810.7216 -7478.3286 307.1622 -9289.0502 -7457.2385 303.4995 -330.1931 -322.1639 30691.3505 -143.8658 -103.7413
ENERGY: 600000 0.3209 6.6228 2.1759 0.0000 -10660.4262 1420.4022 0.0000 0.0000 1794.2352 -7436.6692 304.3655 -9230.9044 -7476.5928 303.1661 13.9499 34.8016 30755.6407 74.0923 108.5019
ENERGY: 900000 1.6424 4.0964 2.6964 0.0000 -10677.7962 1361.5453 0.0000 0.0000 1777.0409 -7530.7746 301.4487 -9307.8156 -7504.0777 301.7969 -892.0959 -788.9487 30739.3134 -2.9504 34.4330
ENERGY: 1200000 1.7726 6.5985 2.2503 0.0000 -10610.6499 1392.0391 0.0000 0.0000 1819.8093 -7388.1801 308.7038 -9207.9894 -7490.8375 303.2772 -49.0475 -86.1898 30698.4350 -46.4689 -11.1247
ENERGY: 1500000 1.1724 10.4146 3.0247 0.0000 -10738.2719 1397.6532 0.0000 0.0000 1779.2371 -7546.7700 301.8213 -9326.0070 -7491.2050 302.6862 -409.0438 -382.8506 30256.3192 -32.7433 7.5827
TCL: Running FEP window  12: Lambda1 0.5499999999999999 Lambda2 0.6    [dLambda 0.050000000000000044]
TCL: Setting parameter firsttimestep to 0
TCL: Setting parameter alchLambda to 0.5499999999999999
Info: NONBONDED TABLE R-SQUARED SPACING: 0.0625
Info: NONBONDED TABLE SIZE: 705 POINTS
TCL: Setting parameter alchLambda2 to 0.6
Info: NONBONDED TABLE R-SQUARED SPACING: 0.0625
Info: NONBONDED TABLE SIZE: 705 POINTS
TCL: Running for 1500000 steps
ETITLE: TS BOND ANGLE DIHED IMPRP ELECT VDW BOUNDARY MISC KINETIC TOTAL TEMP POTENTIAL TOTALAVG TEMPAVG PRESSURE GPRESSURE VOLUME PRESSAVG GPRESSAVG
ENERGY: 0 1.1724 10.4146 3.0247 0.0000 -10738.2454 1397.5054 0.0000 0.0000 1778.3553 -7547.7729 301.6717 -9326.1282 -7547.7729 301.6717 -479.0989 -378.5069 30256.3192 -479.0989 -378.5069
ENERGY: 300000 0.5762 6.4750 2.2267 0.0000 -10795.8377 1536.3723 0.0000 0.0000 1754.2508 -7495.9367 297.5827 -9250.1875 -7498.9371 302.7634 727.6915 797.0622 30435.6575 -37.2474 27.3377
ENERGY: 600000 0.6712 7.6215 2.6601 0.0000 -10769.7672 1420.2185 0.0000 0.0000 1775.1052 -7563.4907 301.1204 -9338.5959 -7509.3563 300.9410 -188.2341 -128.3590 30113.6023 -59.1665 13.6506
ENERGY: 900000 1.8747 7.8075 3.1456 0.0000 -10775.2853 1469.6227 0.0000 0.0000 1758.6794 -7534.1553 298.3340 -9292.8348 -7514.9955 300.0071 36.3692 64.3814 30472.0548 -70.8947 -6.5613
ENERGY: 1200000 0.2447 4.6619 5.1246 0.0000 -10700.1972 1442.0133 0.0000 0.0000 1690.2236 -7557.9291 286.7215 -9248.1527 -7507.3504 299.8932 206.4777 319.6812 30091.3224 -85.2000 -12.5067
ENERGY: 1500000 1.8895 4.2672 2.3373 0.0000 -10723.4641 1489.5975 0.0000 0.0000 1791.8091 -7433.5634 303.9539 -9225.3725 -7505.7729 299.7931 492.7197 566.8732 30516.1392 -86.9460 -18.3508
TCL: Running FEP window  13: Lambda1 0.6    Lambda2 0.65   [dLambda 0.050000000000000044]
TCL: Setting parameter firsttimestep to 0
TCL: Setting parameter alchLambda to 0.6
Info: NONBONDED TABLE R-SQUARED SPACING: 0.0625
Info: NONBONDED TABLE SIZE: 705 POINTS
TCL: Setting parameter alchLambda2 to 0.65
Info: NONBONDED TABLE R-SQUARED SPACING: 0.0625
Info: NONBONDED TABLE SIZE: 705 POINTS
TCL: Running for 1500000 steps
ETITLE: TS BOND ANGLE DIHED IMPRP ELECT VDW BOUNDARY MISC KINETIC TOTAL TEMP POTENTIAL TOTALAVG TEMPAVG PRESSURE GPRESSURE VOLUME PRESSAVG GPRESSAVG
ENERGY: 0 1.8895 4.2672 2.3373 0.0000 -10723.5050 1490.6345 0.0000 0.0000 1790.9192 -7433.4573 303.8030 -9224.3765 -7433.4573 303.8030 501.3761 582.4199 30516.1392 501.3761 582.4199
ENERGY: 300000 0.8842 8.2450 3.6940 0.0000 -10879.4558 1567.9430 0.0000 0.0000 1808.7584 -7489.9312 306.8291 -9298.6895 -7473.8050 304.3851 866.9462 932.8772 30568.0460 254.1264 331.3964
ENERGY: 600000 0.7899 5.3369 2.3280 0.0000 -10708.8390 1454.1938 0.0000 0.0000 1764.2994 -7481.8910 299.2873 -9246.1905 -7492.7428 303.5948 123.7522 174.7963 30502.5465 90.2982 150.2192
ENERGY: 900000 0.3703 5.3776 2.8848 0.0000 -10928.1527 1513.0412 0.0000 0.0000 1715.1203 -7691.3584 290.9448 -9406.4787 -7509.6833 301.6191 307.0900 331.2300 30278.5410 78.5534 145.7654
ENERGY: 1200000 0.9255 6.1413 2.5249 0.0000 -10785.5777 1423.7215 0.0000 0.0000 1810.0610 -7542.2036 307.0501 -9352.2646 -7509.4457 301.4843 -332.9461 -251.5009 30384.7314 -16.0274 46.5471
ENERGY: 1500000 1.3149 9.1805 2.4619 0.0000 -10703.2727 1397.5881 0.0000 0.0000 1830.4919 -7462.2354 310.5159 -9292.7273 -7502.5089 302.7216 -555.1336 -449.7616 30726.6560 -77.4662 -12.2283
TCL: Running FEP window  14: Lambda1 0.65   Lambda2 0.7000000000000001 [dLambda 0.050000000000000044]
TCL: Setting parameter firsttimestep to 0
TCL: Setting parameter alchLambda to 0.65
Info: NONBONDED TABLE R-SQUARED SPACING: 0.0625
Info: NONBONDED TABLE SIZE: 705 POINTS
TCL: Setting parameter alchLambda2 to 0.7000000000000001
Info: NONBONDED TABLE R-SQUARED SPACING: 0.0625
Info: NONBONDED TABLE SIZE: 705 POINTS
TCL: Running for 1500000 steps
ETITLE: TS BOND ANGLE DIHED IMPRP ELECT VDW BOUNDARY MISC KINETIC TOTAL TEMP POTENTIAL TOTALAVG TEMPAVG PRESSURE GPRESSURE VOLUME PRESSAVG GPRESSAVG
ENERGY: 0 1.3149 9.1805 2.4619 0.0000 -10703.6666 1397.3802 0.0000 0.0000 1829.6314 -7463.6977 310.3699 -9293.3290 -7463.6977 310.3699 -532.5791 -447.0666 30726.6560 -532.5791 -447.0666
ENERGY: 300000 1.0183 4.4486 3.2808 0.0000 -10784.2579 1412.0658 0.0000 0.0000 1736.0998 -7627.3446 294.5037 -9363.4443 -7487.3690 301.5011 -484.0685 -409.1357 30519.2515 -209.6245 -140.0728
ENERGY: 600000 2.1580 6.9789 2.8723 0.0000 -10572.1177 1307.2338 0.0000 0.0000 1733.9326 -7518.9420 294.1360 -9252.8746 -7484.4684 301.6503 -1099.4812 -1013.0789 30511.8565 -399.7843 -339.2560
ENERGY: 900000 0.5705 3.5455 2.3873 0.0000 -10762.3134 1430.0321 0.0000 0.0000 1757.9368 -7567.8412 298.2080 -9325.7779 -7500.8408 300.6668 -131.1770 -90.2015 30337.3738 -429.1975 -374.1205
ENERGY: 1200000 2.7780 7.4497 3.4654 0.0000 -10713.2152 1423.3758 0.0000 0.0000 1782.3319 -7493.8144 302.3463 -9276.1463 -7508.4920 299.8711 -221.5058 -135.3770 30554.2654 -347.6180 -292.2686
ENERGY: 1500000 0.4368 8.8103 2.5847 0.0000 -10832.9314 1477.9298 0.0000 0.0000 1822.7837 -7520.3860 309.2083 -9343.1697 -7512.6375 300.1754 154.0922 224.2649 30272.6200 -219.5198 -168.6881
TCL: Running FEP window  15: Lambda1 0.7000000000000001 Lambda2 0.7500000000000001 [dLambda 0.050000000000000044]
TCL: Setting parameter firsttimestep to 0
TCL: Setting parameter alchLambda to 0.7000000000000001
Info: NONBONDED TABLE R-SQUARED SPACING: 0.0625
Info: NONBONDED TABLE SIZE: 705 POINTS
TCL: Setting parameter alchLambda2 to 0.7500000000000001
Info: NONBONDED TABLE R-SQUARED SPACING: 0.0625
Info: NONBONDED TABLE SIZE: 705 POINTS
TCL: Running for 1500000 steps
ETITLE: TS BOND ANGLE DIHED IMPRP ELECT VDW BOUNDARY MISC KINETIC TOTAL TEMP POTENTIAL TOTALAVG TEMPAVG PRESSURE GPRESSURE VOLUME PRESSAVG GPRESSAVG
ENERGY: 0 0.4368 8.8103 2.5847 0.0000 -10833.6530 1478.5556 0.0000 0.0000 1821.8886 -7521.3769 309.0565 -9343.2655 -7521.3769 309.0565 168.5369 240.5945 30272.6200 168.5369 240.5945
ENERGY: 300000 0.6665 6.5079 5.6109 0.0000 -10721.5100 1416.4009 0.0000 0.0000 1790.7873 -7501.5365 303.7806 -9292.3238 -7482.5056 302.7363 -225.9041 -188.8581 30366.8624 -225.6577 -180.0991
ENERGY: 600000 2.8905 8.1744 2.4118 0.0000 -10688.8625 1472.0850 0.0000 0.0000 1745.2108 -7458.0899 296.0492 -9203.3008 -7464.9939 301.5570 441.0614 492.2225 30377.6881 -231.3964 -198.6394
ENERGY: 900000 1.3082 5.6874 4.9797 0.0000 -10591.3315 1379.9414 0.0000 0.0000 1693.0646 -7506.3502 287.2034 -9199.4147 -7464.5504 298.6398 -200.0013 -101.0796 30277.7399 -316.7989 -265.1749
ENERGY: 1200000 0.3183 4.7189 2.7009 0.0000 -10797.9804 1491.8247 0.0000 0.0000 1748.4821 -7549.9355 296.6041 -9298.4175 -7474.6322 299.0009 152.8320 163.4192 30968.1176 -216.6817 -166.4894
ENERGY: 1500000 1.2358 8.1514 4.3384 0.0000 -10757.6874 1417.2181 0.0000 0.0000 1735.4942 -7591.2494 294.4009 -9326.7436 -7482.1518 299.5738 -312.6561 -248.8787 30345.9051 -153.8475 -104.8267
TCL: Running FEP window  16: Lambda1 0.7500000000000001 Lambda2 0.8000000000000002 [dLambda 0.050000000000000044]
TCL: Setting parameter firsttimestep to 0
TCL: Setting parameter alchLambda to 0.7500000000000001
Info: NONBONDED TABLE R-SQUARED SPACING: 0.0625
Info: NONBONDED TABLE SIZE: 705 POINTS
TCL: Setting parameter alchLambda2 to 0.8000000000000002
Info: NONBONDED TABLE R-SQUARED SPACING: 0.0625
Info: NONBONDED TABLE SIZE: 705 POINTS
TCL: Running for 1500000 steps
ETITLE: TS BOND ANGLE DIHED IMPRP ELECT VDW BOUNDARY MISC KINETIC TOTAL TEMP POTENTIAL TOTALAVG TEMPAVG PRESSURE GPRESSURE VOLUME PRESSAVG GPRESSAVG
ENERGY: 0 1.2358 8.1514 4.3384 0.0000 -10758.1216 1416.7794 0.0000 0.0000 1734.6086 -7593.0079 294.2507 -9327.6165 -7593.0079 294.2507 -358.0068 -252.9350 30345.9051 -358.0068 -252.9350
ENERGY: 300000 0.9506 6.5083 3.6601 0.0000 -10707.7973 1385.9542 0.0000 0.0000 1703.4950 -7607.2291 288.9728 -9310.7241 -7500.2564 299.8076 -612.2676 -526.3998 30510.4647 -282.8232 -203.8359
ENERGY: 600000 1.5758 5.2772 3.1156 0.0000 -10704.7299 1363.1396 0.0000 0.0000 1764.4791 -7567.1425 299.3178 -9331.6216 -7506.7469 301.9915 -766.1736 -701.5150 30485.2820 -142.0565 -74.4471
ENERGY: 900000 0.6527 8.4322 2.9321 0.0000 -10654.2787 1331.1240 0.0000 0.0000 1805.0965 -7506.0412 306.2080 -9311.1377 -7509.4308 302.1701 -792.0014 -812.7571 30653.5390 -44.0571 16.8292
ENERGY: 1200000 1.0525 7.4443 2.7549 0.0000 -10769.7626 1516.9676 0.0000 0.0000 1761.2617 -7480.2815 298.7720 -9241.5433 -7520.5147 301.5988 782.1567 852.4569 30220.9265 2.6501 57.3697
ENERGY: 1500000 0.4315 7.4325 2.1462 0.0000 -10624.2127 1348.3190 0.0000 0.0000 1788.7539 -7477.1296 303.4357 -9265.8835 -7517.7460 301.1839 -496.7226 -449.8368 30386.2485 -63.1456 -4.3629
TCL: Running FEP window  17: Lambda1 0.8000000000000002 Lambda2 0.8500000000000002 [dLambda 0.050000000000000044]
TCL: Setting parameter firsttimestep to 0
TCL: Setting parameter alchLambda to 0.8000000000000002
Info: NONBONDED TABLE R-SQUARED SPACING: 0.0625
Info: NONBONDED TABLE SIZE: 705 POINTS
TCL: Setting parameter alchLambda2 to 0.8500000000000002
Info: NONBONDED TABLE R-SQUARED SPACING: 0.0625
Info: NONBONDED TABLE SIZE: 705 POINTS
TCL: Running for 1500000 steps
ETITLE: TS BOND ANGLE DIHED IMPRP ELECT VDW BOUNDARY MISC KINETIC TOTAL TEMP POTENTIAL TOTALAVG TEMPAVG PRESSURE GPRESSURE VOLUME PRESSAVG GPRESSAVG
ENERGY: 0 0.4315 7.4325 2.1462 0.0000 -10624.2031 1348.6351 0.0000 0.0000 1787.8790 -7477.6788 303.2873 -9265.5578 -7477.6788 303.2873 -516.4902 -438.0141 30386.2485 -516.4902 -438.0141
ENERGY: 300000 1.1199 7.2981 3.5166 0.0000 -10735.9601 1436.2603 0.0000 0.0000 1785.3253 -7502.4399 302.8541 -9287.7652 -7499.0587 299.9958 -52.8095 -42.9369 30437.7485 -29.5114 41.5528
ENERGY: 600000 1.3424 7.3753 3.6582 0.0000 -10829.3754 1501.3144 0.0000 0.0000 1819.6253 -7496.0599 308.6725 -9315.6852 -7522.7421 299.4587 329.4838 412.3599 30465.5645 4.3654 66.0407
ENERGY: 900000 1.5003 5.1235 4.1036 0.0000 -10816.3030 1490.5037 0.0000 0.0000 1790.0550 -7525.0168 303.6564 -9315.0718 -7520.0779 300.8364 204.7996 258.0002 30627.8244 -87.9761 -19.5801
ENERGY: 1200000 1.8303 5.9223 2.5076 0.0000 -10819.9922 1444.4409 0.0000 0.0000 1802.5809 -7562.7102 305.7812 -9365.2911 -7532.5314 301.0310 -213.5543 -158.4794 30468.3779 -70.4664 1.8722
ENERGY: 1500000 2.6612 5.6523 1.8921 0.0000 -10941.2653 1569.9041 0.0000 0.0000 1839.4557 -7521.6998 312.0365 -9361.1555 -7526.0083 301.4143 591.9956 709.9154 30588.3955 31.7660 106.9868
TCL: Running FEP window  18: Lambda1 0.8500000000000002 Lambda2 0.9000000000000002 [dLambda 0.050000000000000044]
TCL: Setting parameter firsttimestep to 0
TCL: Setting parameter alchLambda to 0.8500000000000002
Info: NONBONDED TABLE R-SQUARED SPACING: 0.0625
Info: NONBONDED TABLE SIZE: 705 POINTS
TCL: Setting parameter alchLambda2 to 0.9000000000000002
Info: NONBONDED TABLE R-SQUARED SPACING: 0.0625
Info: NONBONDED TABLE SIZE: 705 POINTS
TCL: Running for 1500000 steps
ETITLE: TS BOND ANGLE DIHED IMPRP ELECT VDW BOUNDARY MISC KINETIC TOTAL TEMP POTENTIAL TOTALAVG TEMPAVG PRESSURE GPRESSURE VOLUME PRESSAVG GPRESSAVG
ENERGY: 0 2.6612 5.6523 1.8921 0.0000 -10942.2400 1570.2807 0.0000 0.0000 1838.5756 -7523.1780 311.8872 -9361.7536 -7523.1780 311.8872 645.3107 723.5886 30588.3955 645.3107 723.5886
ENERGY: 300000 1.4662 6.5040 2.5651 0.0000 -10786.4037 1476.7119 0.0000 0.0000 1747.2547 -7551.9018 296.3959 -9299.1564 -7518.1345 303.6826 151.9976 194.8313 30559.9877 27.9717 100.2491
ENERGY: 600000 2.4528 6.8363 2.1159 0.0000 -10704.4280 1391.7393 0.0000 0.0000 1733.2625 -7568.0212 294.0224 -9301.2837 -7535.4826 300.0883 -535.5602 -483.1235 30409.7369 -19.4762 43.9301
ENERGY: 900000 0.5907 8.0307 4.1163 0.0000 -10737.1407 1444.9389 0.0000 0.0000 1760.6342 -7518.8299 298.6656 -9279.4641 -7533.4182 300.2006 -193.3191 -131.1357 30834.1987 19.1767 85.4955
ENERGY: 1200000 0.9251 5.1968 2.3930 0.0000 -10748.8974 1443.0483 0.0000 0.0000 1784.7682 -7512.5659 302.7595 -9297.3341 -7540.5737 300.4279 97.1553 116.9705 30469.9400 17.4186 77.8699
ENERGY: 1500000 0.2099 6.6277 2.2591 0.0000 -10959.1278 1514.5540 0.0000 0.0000 1809.4634 -7626.0136 306.9487 -9435.4771 -7551.5413 300.8120 421.0144 446.7588 29938.7390 121.0781 172.3413
TCL: Running FEP window  19: Lambda1 0.9000000000000002 Lambda2 0.9500000000000003 [dLambda 0.050000000000000044]
TCL: Setting parameter firsttimestep to 0
TCL: Setting parameter alchLambda to 0.9000000000000002
Info: NONBONDED TABLE R-SQUARED SPACING: 0.0625
Info: NONBONDED TABLE SIZE: 705 POINTS
TCL: Setting parameter alchLambda2 to 0.9500000000000003
Info: NONBONDED TABLE R-SQUARED SPACING: 0.0625
Info: NONBONDED TABLE SIZE: 705 POINTS
TCL: Running for 1500000 steps
ETITLE: TS BOND ANGLE DIHED IMPRP ELECT VDW BOUNDARY MISC KINETIC TOTAL TEMP POTENTIAL TOTALAVG TEMPAVG PRESSURE GPRESSURE VOLUME PRESSAVG GPRESSAVG
ENERGY: 0 0.2099 6.6277 2.2591 0.0000 -10959.8481 1515.6321 0.0000 0.0000 1808.5881 -7626.5313 306.8002 -9435.1194 -7626.5313 306.8002 389.5693 470.9242 29938.7390 389.5693 470.9242
ENERGY: 300000 0.4235 8.3615 2.9356 0.0000 -10662.5391 1426.8805 0.0000 0.0000 1770.7665 -7453.1715 300.3844 -9223.9380 -7520.8205 301.1006 -195.1701 -161.7968 31096.1129 -61.7319 8.1120
ENERGY: 600000 3.6415 4.6194 3.3558 0.0000 -10861.8265 1482.6735 0.0000 0.0000 1773.4109 -7594.1254 300.8330 -9367.5363 -7527.5332 301.3625 76.8047 116.0732 30512.8816 -78.4896 -11.1709
ENERGY: 900000 3.1349 6.4881 3.5828 0.0000 -10622.8196 1415.8517 0.0000 0.0000 1780.6462 -7413.1158 302.0603 -9193.7620 -7507.2986 301.6561 -42.1164 22.5966 30787.8666 -112.9460 -51.3929
ENERGY: 1200000 0.9513 4.9443 3.2070 0.0000 -10771.9677 1450.3667 0.0000 0.0000 1816.5324 -7495.9659 308.1479 -9312.4983 -7505.3312 302.3859 61.4154 124.7947 30556.4340 -64.1592 1.3904
ENERGY: 1500000 1.7743 7.9226 2.3224 0.0000 -10808.1481 1504.3334 0.0000 0.0000 1761.9615 -7529.8340 298.8907 -9291.7955 -7506.2206 302.0962 413.0397 566.0333 30361.2261 -68.7543 -2.2124
TCL: Running FEP window  20: Lambda1 0.9500000000000003 Lambda2 1.0    [dLambda 0.04999999999999971]
TCL: Setting parameter firsttimestep to 0
TCL: Setting parameter alchLambda to 0.9500000000000003
Info: NONBONDED TABLE R-SQUARED SPACING: 0.0625
Info: NONBONDED TABLE SIZE: 705 POINTS
TCL: Setting parameter alchLambda2 to 1.0
Info: NONBONDED TABLE R-SQUARED SPACING: 0.0625
Info: NONBONDED TABLE SIZE: 705 POINTS
TCL: Running for 1500000 steps
ETITLE: TS BOND ANGLE DIHED IMPRP ELECT VDW BOUNDARY MISC KINETIC TOTAL TEMP POTENTIAL TOTALAVG TEMPAVG PRESSURE GPRESSURE VOLUME PRESSAVG GPRESSAVG
ENERGY: 0 1.7743 7.9226 2.3224 0.0000 -10808.7101 1505.0065 0.0000 0.0000 1761.1068 -7530.5775 298.7458 -9291.6843 -7530.5775 298.7458 503.2694 585.3831 30361.2261 503.2694 585.3831
ENERGY: 300000 1.4399 6.2408 3.5957 0.0000 -10660.5608 1404.4059 0.0000 0.0000 1771.3705 -7473.5080 300.4868 -9244.8785 -7471.0905 299.3736 -272.6464 -173.8075 30554.1400 48.0679 107.9826
ENERGY: 600000 0.9215 4.0234 3.7769 0.0000 -10699.4004 1400.9174 0.0000 0.0000 1749.6810 -7540.0801 296.8075 -9289.7611 -7485.1485 298.0044 -253.9880 -286.7546 30604.3182 204.1643 244.6322
ENERGY: 900000 0.2557 8.5714 3.8837 0.0000 -10729.4708 1424.4088 0.0000 0.0000 1742.8334 -7549.5179 295.6459 -9292.3512 -7497.9901 298.2463 0.1759 111.6395 30286.9601 183.0382 233.0122
ENERGY: 1200000 0.5517 5.8349 3.8712 0.0000 -10737.6828 1515.2391 0.0000 0.0000 1789.4879 -7422.6979 303.5602 -9212.1858 -7491.3390 298.2880 885.7022 943.4978 30322.6136 111.5963 164.7518
ENERGY: 1500000 1.7512 4.2190 4.0049 0.0000 -10829.0779 1446.3979 0.0000 0.0000 1750.2884 -7622.4166 296.9106 -9372.7051 -7507.1349 297.9994 258.9611 310.5265 29878.4879 69.9247 120.8788
TCL: Exiting due to exit command.
