Info: SIMULATION PARAMETERS:
Info: TIMESTEP               2
Info: NUMBER OF STEPS        0
Info: STEPS PER CYCLE        10
Info: PERIODIC CELL BASIS 1  30.7467 0 0
Info: PERIODIC CELL BASIS 2  0 31.1202 0
Info: PERIODIC CELL BASIS 3  0 0 31.8127
Info: PERIODIC CELL CENTER   0 0 0
Info: WRAPPING WATERS AROUND PERIODIC BOUNDARIES ON OUTPUT.
Info: WRAPPING ALL CLUSTERS AROUND PERIODIC BOUNDARIES ON OUTPUT.
Info: FIRST LDB TIMESTEP     50
Info: LAST LDB TIMESTEP     -1
Info: HOM BACKGROUND SCALING 1
Info: PME BACKGROUND SCALING 1
Info: MIN ATOMS PER PATCH    40
Info: EMPTY PATCH LOAD       40 ATOMS
Info: VELOCITY FILE          mobley_4188615_equil.vel
Info: CENTER OF MASS MOVING INITIALLY? NO
Info: DIELECTRIC             1
Info: EXCLUDE                SCALED ONE-FOUR
Info: 1-4 ELECTROSTATICS SCALED BY 0.833333
Info: MODIFIED 1-4 VDW PARAMETERS WILL BE USED
Info: DCD FILENAME           mobley_4188615_prod.dcd
Info: DCD FREQUENCY          100000
Info: DCD FIRST STEP         100000
Info: DCD FILE WILL CONTAIN UNIT CELL DATA
Info: XST FILENAME           mobley_4188615_prod.xst
Info: XST FREQUENCY          100000
Info: NO VELOCITY DCD OUTPUT
Info: NO FORCE DCD OUTPUT
Info: OUTPUT FILENAME        mobley_4188615_prod
Info: BINARY OUTPUT FILES WILL BE USED
Info: RESTART FILENAME       mobley_4188615_prod.restart
Info: RESTART FREQUENCY      100000
Info: BINARY RESTART FILES WILL BE USED
Info: CUTOFF                 9
Info: PAIRLIST DISTANCE      11
Info: PAIRLIST SHRINK RATE   0.01
Info: PAIRLIST GROW RATE     0.01
Info: PAIRLIST TRIGGER       0.3
Info: PAIRLISTS PER CYCLE    2
Info: PAIRLISTS ENABLED
Info: MARGIN                 2
Info: HYDROGEN GROUP CUTOFF  2.5
Info: PATCH DIMENSION        15.5
Info: ENERGY OUTPUT STEPS    100000
Info: ENERGY EVALUATION STEPS    100000
Info: OUTPUT ENERGY PRECISION 4
Info: CROSSTERM ENERGY INCLUDED IN DIHEDRAL
Info: TIMING OUTPUT STEPS    1000000
Info: PRESSURE OUTPUT STEPS  100000
Info: ALCHEMICAL FEP ON
Info: FEP CURRENT LAMBDA VALUE     0
Info: FEP COMPARISON LAMBDA VALUE  0.05
Info: FEP INTRA-ALCHEMICAL NON-BONDED INTERACTIONS WILL BE RETAINED
Info: FEP INTRA-ALCHEMICAL BONDED INTERACTIONS WILL BE RETAINED
Info: FEP VDW SHIFTING COEFFICIENT 5
Info: FEP ELEC. ACTIVE FOR ANNIHILATED PARTICLES BETWEEN LAMBDA = 0 AND LAMBDA = 0.5
Info: FEP ELEC. ACTIVE FOR EXNIHILATED PARTICLES BETWEEN LAMBDA = 0.5 AND LAMBDA = 1
Info: FEP VDW ACTIVE FOR ANNIHILATED PARTICLES BETWEEN LAMBDA = 0 AND LAMBDA = 1
Info: FEP VDW ACTIVE FOR EXNIHILATED PARTICLES BETWEEN LAMBDA = 0 AND LAMBDA = 1
Info: FEP BOND ACTIVE FOR ANNIHILATED PARTICLES BETWEEN LAMBDA = 1 AND LAMBDA = 1
Info: FEP BOND ACTIVE FOR EXNIHILATED PARTICLES BETWEEN LAMBDA = 0 AND LAMBDA = 0
Info: LANGEVIN DYNAMICS ACTIVE
Info: LANGEVIN TEMPERATURE   300
Info: LANGEVIN USING BBK INTEGRATOR
Info: LANGEVIN DAMPING COEFFICIENT IS 1 INVERSE PS
Info: LANGEVIN DYNAMICS APPLIED TO HYDROGENS
Info: LANGEVIN PISTON PRESSURE CONTROL ACTIVE
Info:        TARGET PRESSURE IS 1.01325 BAR
Info:     OSCILLATION PERIOD IS 50 FS
Info:             DECAY TIME IS 25 FS
Info:     PISTON TEMPERATURE IS 300 K
Info:       PRESSURE CONTROL IS GROUP-BASED
Info:    INITIAL STRAIN RATE IS 0.00047457 0.00047457 0.00047457
Info:       CELL FLUCTUATION IS ISOTROPIC
Info: PARTICLE MESH EWALD (PME) ACTIVE
Info: PME TOLERANCE               1e-06
Info: PME EWALD COEFFICIENT       0.348832
Info: PME INTERPOLATION ORDER     4
Info: PME GRID DIMENSIONS         32 32 32
Info: PME MAXIMUM GRID SPACING    1
Info: PME CALCULATION WILL BE PERFORMED ON GPU
Info: FULL ELECTROSTATIC EVALUATION FREQUENCY      2
Info: USING VERLET I (r-RESPA) MTS SCHEME.
Info: C1 SPLITTING OF LONG RANGE ELECTROSTATICS
Info: PLACING ATOMS IN PATCHES BY HYDROGEN GROUPS
Info: RIGID BONDS TO HYDROGEN : ALL
Info:         ERROR TOLERANCE : 1e-08
Info:          MAX ITERATIONS : 100
Info: RIGID WATER USING SETTLE ALGORITHM
Info: RANDOM NUMBER SEED     1743803521
Info: USE HYDROGEN BONDS?    NO
Info: Using AMBER format force field!
Info: AMBER PARM FILE        mobley_4188615.prmtop
Info: COORDINATE PDB         mobley_4188615.pdb
Info: Exclusions will be read from PARM file!
Info: SCNB (VDW SCALING)     2
Info: USING ARITHMETIC MEAN TO COMBINE L-J SIGMA PARAMETERS
Info: BINARY COORDINATES     mobley_4188615_equil.coor
Info: SUMMARY OF PARAMETERS:
Info: 9 BONDS
Info: 10 ANGLES
Info:   10 HARMONIC
Info:   0 COSINE-BASED
Info: 6 DIHEDRAL
Info: 0 IMPROPER
Info: 0 CROSSTERM
Info: 0 VDW
Info: 36 VDW_PAIRS
Info: 0 NBTHOLE_PAIRS
Info: To read alchdata from file: mobley_4188615.pdb
Info: To read alchflag data from column: 5
Info: STRUCTURE SUMMARY:
Info: 2995 ATOMS
Info: 2995 BONDS
Info: 36 ANGLES
Info: 52 DIHEDRALS
Info: 0 IMPROPERS
Info: 0 CROSSTERMS
Info: 3072 EXCLUSIONS
Info: 2984 RIGID BONDS
Info: ALCH: 0 ATOMS TO DISAPPEAR IN FINAL STATE
Info: ALCH: 22 ATOMS TO APPEAR IN FINAL STATE
Info: 6001 DEGREES OF FREEDOM
Info: 1002 HYDROGEN GROUPS
Info: 4 ATOMS IN LARGEST HYDROGEN GROUP
Info: 1002 MIGRATION GROUPS
Info: 4 ATOMS IN LARGEST MIGRATION GROUP
Info: TOTAL MASS = 18003 amu
Info: TOTAL CHARGE = 0.000400066 e
Info: MASS DENSITY = 0.98212 g/cm^3
Info: ATOM DENSITY = 0.0983912 atoms/A^3
Info: ADDED 0 IMPLICIT EXCLUSIONS
Info: NONBONDED TABLE R-SQUARED SPACING: 0.0625
Info: NONBONDED TABLE SIZE: 705 POINTS
Info: REMOVING COM VELOCITY -0.150143 -0.038031 0.0620775
Info: Use 3D box decompostion in PME FFT.
Info: Updated CUDA force table with 4096 elements.
Info: Updated CUDA LJ table with 8 x 8 elements.
Info: Found 21 unique exclusion lists needing 60 bytes
TCL: Running for 1500000 steps
ETITLE: TS BOND ANGLE DIHED IMPRP ELECT VDW BOUNDARY MISC KINETIC TOTAL TEMP POTENTIAL TOTALAVG TEMPAVG PRESSURE GPRESSURE VOLUME PRESSAVG GPRESSAVG
ENERGY: 0 2.8118 5.8561 5.1942 0.0000 -10841.8199 1478.1251 0.0000 0.0000 1812.4270 -7537.4057 303.9676 -9349.8327 -7537.4057 303.9676 147.3386 229.4986 30439.7266 147.3386 229.4986
ENERGY: 300000 7.1311 6.4744 11.0875 0.0000 -10821.2145 1484.0790 0.0000 0.0000 1787.9379 -7524.5045 299.8605 -9312.4425 -7528.9504 301.5428 122.3309 179.7720 30631.1146 257.8748 340.7295
ENERGY: 600000 3.1738 6.6109 9.3345 0.0000 -10839.3936 1488.7542 0.0000 0.0000 1757.6188 -7573.9014 294.7755 -9331.5201 -7564.4604 299.3746 -8.1104 79.6803 30824.2544 174.2843 236.4198
ENERGY: 900000 5.5879 6.3684 8.9587 0.0000 -10809.1887 1461.0910 0.0000 0.0000 1796.6775 -7530.5052 301.3262 -9327.1826 -7551.8792 300.1519 -55.7204 -26.7578 30595.5052 245.3038 300.6228
ENERGY: 1200000 4.1148 7.0951 10.5182 0.0000 -10883.4345 1543.5990 0.0000 0.0000 1805.9492 -7512.1583 302.8812 -9318.1076 -7554.1388 300.5746 649.2716 747.0266 30545.7306 203.2561 265.9132
ENERGY: 1500000 3.6503 7.3327 10.3820 0.0000 -10865.4671 1494.2923 0.0000 0.0000 1767.8181 -7581.9918 296.4861 -9349.8099 -7554.4231 300.3484 290.1676 308.9968 30700.9927 184.8351 243.6522
TCL: Running FEP window   2: Lambda1 0.05   Lambda2 0.1    [dLambda 0.05  ]
TCL: Setting parameter firsttimestep to 0
TCL: Setting parameter alchLambda to 0.05
Info: NONBONDED TABLE R-SQUARED SPACING: 0.0625
Info: NONBONDED TABLE SIZE: 705 POINTS
TCL: Setting parameter alchLambda2 to 0.1
Info: NONBONDED TABLE R-SQUARED SPACING: 0.0625
Info: NONBONDED TABLE SIZE: 705 POINTS
TCL: Running for 1500000 steps
ETITLE: TS BOND ANGLE DIHED IMPRP ELECT VDW BOUNDARY MISC KINETIC TOTAL TEMP POTENTIAL TOTALAVG TEMPAVG PRESSURE GPRESSURE VOLUME PRESSAVG GPRESSAVG
ENERGY: 0 3.6503 7.3327 10.3820 0.0000 -10865.4665 1499.0391 0.0000 0.0000 1766.9620 -7578.1005 296.3425 -9345.0625 -7578.1005 296.3425 234.4296 319.7043 30700.9927 234.4296 319.7043
ENERGY: 300000 2.9647 6.8132 9.9710 0.0000 -10887.9184 1496.0346 0.0000 0.0000 1809.3524 -7562.7825 303.4519 -9372.1349 -7570.2005 299.8650 59.9907 125.1788 30551.3730 164.8503 242.8500
ENERGY: 600000 1.9183 5.3961 11.2483 0.0000 -10854.9638 1543.2864 0.0000 0.0000 1723.6322 -7569.4825 289.0756 -9293.1147 -7568.1257 298.2040 1040.9400 1106.5177 30448.6166 42.6196 119.8395
ENERGY: 900000 2.3187 10.0943 7.5702 0.0000 -10787.2705 1506.1282 0.0000 0.0000 1834.4055 -7426.7536 307.6537 -9261.1591 -7556.0136 299.7184 656.2759 705.7804 30476.6063 89.0876 153.0376
ENERGY: 1200000 1.0032 5.4182 11.5542 0.0000 -10798.0920 1479.0454 0.0000 0.0000 1837.5160 -7463.5550 308.1753 -9301.0710 -7560.8530 299.6970 180.9274 287.4044 31026.8166 51.6869 119.3408
ENERGY: 1500000 2.2605 6.9452 9.4894 0.0000 -10890.6248 1462.3525 0.0000 0.0000 1783.5360 -7626.0412 299.1222 -9409.5772 -7562.5822 300.0971 -177.2978 -136.5458 30257.5548 -28.7786 39.6833
TCL: Running FEP window   3: Lambda1 0.1    Lambda2 0.15000000000000002 [dLambda 0.05000000000000002]
TCL: Setting parameter firsttimestep to 0
TCL: Setting parameter alchLambda to 0.1
Info: NONBONDED TABLE R-SQUARED SPACING: 0.0625
Info: NONBONDED TABLE SIZE: 705 POINTS
TCL: Setting parameter alchLambda2 to 0.15000000000000002
Info: NONBONDED TABLE R-SQUARED SPACING: 0.0625
Info: NONBONDED TABLE SIZE: 705 POINTS
TCL: Running for 1500000 steps
ETITLE: TS BOND ANGLE DIHED IMPRP ELECT VDW BOUNDARY MISC KINETIC TOTAL TEMP POTENTIAL TOTALAVG TEMPAVG PRESSURE GPRESSURE VOLUME PRESSAVG GPRESSAVG
ENERGY: 0 2.2605 6.9452 9.4894 0.0000 -10890.6233 1467.8025 0.0000 0.0000 1782.6813 -7621.4445 298.9789 -9404.1258 -7621.4445 298.9789 -217.8312 -125.2396 30257.5548 -217.8312 -125.2396
ENERGY: 300000 1.6765 5.2376 13.0115 0.0000 -10704.5679 1393.3835 0.0000 0.0000 1783.0926 -7508.1662 299.0478 -9291.2588 -7572.3966 299.2103 -518.7113 -479.7989 31169.5695 -220.9748 -168.8633
ENERGY: 600000 2.2984 6.7905 10.7266 0.0000 -10968.8035 1579.1508 0.0000 0.0000 1802.2450 -7567.5921 302.2599 -9369.8372 -7558.4146 300.5922 869.3675 891.3695 30402.8252 -63.7466 -23.2316
ENERGY: 900000 4.2670 5.7715 9.5009 0.0000 -11027.3891 1636.7606 0.0000 0.0000 1792.7883 -7578.3009 300.6739 -9371.0891 -7572.5402 299.8423 1171.1817 1236.7820 30482.3077 -81.5426 -30.8648
ENERGY: 1200000 4.6824 8.2535 6.4845 0.0000 -10808.2854 1472.0938 0.0000 0.0000 1794.6542 -7522.1170 300.9869 -9316.7711 -7565.6635 299.5650 298.6342 315.5164 30243.7796 -127.3777 -72.0970
ENERGY: 1500000 3.7085 11.0338 10.8817 0.0000 -10869.6330 1457.5489 0.0000 0.0000 1842.1436 -7544.3166 308.9515 -9386.4602 -7555.8274 300.9019 16.7885 141.6127 30321.9683 -155.5174 -95.4315
TCL: Running FEP window   4: Lambda1 0.15000000000000002 Lambda2 0.2    [dLambda 0.04999999999999999]
TCL: Setting parameter firsttimestep to 0
TCL: Setting parameter alchLambda to 0.15000000000000002
Info: NONBONDED TABLE R-SQUARED SPACING: 0.0625
Info: NONBONDED TABLE SIZE: 705 POINTS
TCL: Setting parameter alchLambda2 to 0.2
Info: NONBONDED TABLE R-SQUARED SPACING: 0.0625
Info: NONBONDED TABLE SIZE: 705 POINTS
TCL: Running for 1500000 steps
ETITLE: TS BOND ANGLE DIHED IMPRP ELECT VDW BOUNDARY MISC KINETIC TOTAL TEMP POTENTIAL TOTALAVG TEMPAVG PRESSURE GPRESSURE VOLUME PRESSAVG GPRESSAVG
ENERGY: 0 3.7085 11.0338 10.8817 0.0000 -10869.6333 1457.2684 0.0000 0.0000 1841.2470 -7545.4940 308.8011 -9386.7409 -7545.4940 308.8011 65.4811 143.7547 30321.9683 65.4811 143.7547
ENERGY: 300000 4.6661 6.6338 8.4518 0.0000 -10816.3743 1454.1713 0.0000 0.0000 1813.5463 -7528.9049 304.1553 -9342.4512 -7540.9410 303.1369 -39.8620 77.8673 30363.0426 -138.8936 -49.3135
ENERGY: 600000 3.7097 5.8458 9.1323 0.0000 -10789.7320 1422.7502 0.0000 0.0000 1813.4115 -7534.8824 304.1327 -9348.2939 -7535.2785 303.3358 -602.8820 -517.4154 30893.5791 -25.6202 55.9359
ENERGY: 900000 5.4712 5.6000 11.0071 0.0000 -10884.1324 1520.5041 0.0000 0.0000 1759.0657 -7582.4842 295.0182 -9341.5499 -7554.1165 302.9709 142.1951 211.0599 30668.3642 158.5012 237.8122
ENERGY: 1200000 3.5506 7.2890 9.2371 0.0000 -10736.1808 1419.5079 0.0000 0.0000 1839.7308 -7456.8655 308.5468 -9296.5963 -7547.6931 302.5254 -400.0441 -413.1361 30977.1480 0.7429 66.8982
ENERGY: 1500000 3.0636 9.2133 8.8096 0.0000 -10903.1435 1497.4511 0.0000 0.0000 1772.7394 -7611.8666 297.3115 -9384.6060 -7550.6029 301.9255 164.4358 270.2374 30648.0830 -7.1864 61.1640
TCL: Running FEP window   5: Lambda1 0.2    Lambda2 0.25   [dLambda 0.04999999999999999]
TCL: Setting parameter firsttimestep to 0
TCL: Setting parameter alchLambda to 0.2
Info: NONBONDED TABLE R-SQUARED SPACING: 0.0625
Info: NONBONDED TABLE SIZE: 705 POINTS
TCL: Setting parameter alchLambda2 to 0.25
Info: NONBONDED TABLE R-SQUARED SPACING: 0.0625
Info: NONBONDED TABLE SIZE: 705 POINTS
TCL: Running for 1500000 steps
ETITLE: TS BOND ANGLE DIHED IMPRP ELECT VDW BOUNDARY MISC KINETIC TOTAL TEMP POTENTIAL TOTALAVG TEMPAVG PRESSURE GPRESSURE VOLUME PRESSAVG GPRESSAVG
ENERGY: 0 3.0636 9.2133 8.8096 0.0000 -10903.1451 1497.9224 0.0000 0.0000 1771.8581 -7612.2782 297.1637 -9384.1363 -7612.2782 297.1637 186.3552 275.4720 30648.0830 186.3552 275.4720
ENERGY: 300000 3.8518 4.9101 9.9027 0.0000 -10652.7888 1345.0378 0.0000 0.0000 1855.3736 -7433.7128 311.1703 -9289.0864 -7525.5275 298.8501 -898.7790 -791.2359 30805.5985 -93.4848 -8.7389
ENERGY: 600000 3.9529 8.2169 9.6751 0.0000 -10775.6409 1411.4810 0.0000 0.0000 1824.8849 -7517.4301 306.0569 -9342.3150 -7523.7784 298.7394 -32.4350 24.5498 30341.4298 -30.6192 38.1261
ENERGY: 900000 2.7146 6.3094 12.7697 0.0000 -10805.5450 1427.1208 0.0000 0.0000 1838.5370 -7518.0935 308.3466 -9356.6305 -7538.8157 298.7161 -84.1726 -82.3160 30446.9799 -9.5421 44.1798
ENERGY: 1200000 4.8414 13.4225 9.8872 0.0000 -10940.2106 1575.9097 0.0000 0.0000 1797.3165 -7538.8333 301.4334 -9336.1498 -7545.0821 298.4807 1085.7991 1120.3542 30463.2360 15.6995 69.6710
ENERGY: 1500000 1.7677 6.8942 9.2498 0.0000 -10885.6581 1504.2225 0.0000 0.0000 1720.3384 -7643.1856 288.5231 -9363.5240 -7551.8627 298.1162 58.4235 138.8359 30713.6095 15.7094 68.0808
TCL: Running FEP window   6: Lambda1 0.25   Lambda2 0.3    [dLambda 0.04999999999999999]
TCL: Setting parameter firsttimestep to 0
TCL: Setting parameter alchLambda to 0.25
Info: NONBONDED TABLE R-SQUARED SPACING: 0.0625
Info: NONBONDED TABLE SIZE: 705 POINTS
TCL: Setting parameter alchLambda2 to 0.3
Info: NONBONDED TABLE R-SQUARED SPACING: 0.0625
Info: NONBONDED TABLE SIZE: 705 POINTS
TCL: Running for 1500000 steps
ETITLE: TS BOND ANGLE DIHED IMPRP ELECT VDW BOUNDARY MISC KINETIC TOTAL TEMP POTENTIAL TOTALAVG TEMPAVG PRESSURE GPRESSURE VOLUME PRESSAVG GPRESSAVG
ENERGY: 0 1.7677 6.8942 9.2498 0.0000 -10885.6579 1506.8797 0.0000 0.0000 1719.4365 -7641.4300 288.3719 -9360.8664 -7641.4300 288.3719 70.0613 156.8193 30713.6095 70.0613 156.8193
ENERGY: 300000 6.2958 6.8614 8.5209 0.0000 -10724.7752 1428.1308 0.0000 0.0000 1822.7249 -7452.2415 305.6947 -9274.9664 -7572.7146 294.1037 11.4643 39.7507 30366.2025 26.8530 69.4441
ENERGY: 600000 3.0927 8.9869 8.7673 0.0000 -10815.7382 1415.3352 0.0000 0.0000 1781.3392 -7598.2169 298.7538 -9379.5561 -7572.7386 296.0954 -561.8911 -434.9504 30932.7319 51.8725 121.6676
ENERGY: 900000 2.4625 9.4182 6.4632 0.0000 -10854.9750 1466.5053 0.0000 0.0000 1788.5711 -7581.5546 299.9666 -9370.1257 -7567.8338 297.5688 -15.1033 98.0948 30433.4915 59.5165 125.9718
ENERGY: 1200000 3.8678 8.4994 8.5411 0.0000 -10889.6504 1528.3129 0.0000 0.0000 1790.8593 -7549.5698 300.3504 -9340.4292 -7563.4416 297.4783 459.7811 582.5771 30471.1026 45.2524 115.9541
ENERGY: 1500000 7.2003 9.0486 6.5502 0.0000 -10808.5874 1472.5182 0.0000 0.0000 1826.5900 -7486.6802 306.3429 -9313.2702 -7552.3446 299.2454 395.8764 442.3430 30414.0920 84.3937 150.4510
TCL: Running FEP window   7: Lambda1 0.3    Lambda2 0.35   [dLambda 0.04999999999999999]
TCL: Setting parameter firsttimestep to 0
TCL: Setting parameter alchLambda to 0.3
Info: NONBONDED TABLE R-SQUARED SPACING: 0.0625
Info: NONBONDED TABLE SIZE: 705 POINTS
TCL: Setting parameter alchLambda2 to 0.35
Info: NONBONDED TABLE R-SQUARED SPACING: 0.0625
Info: NONBONDED TABLE SIZE: 705 POINTS
TCL: Running for 1500000 steps
ETITLE: TS BOND ANGLE DIHED IMPRP ELECT VDW BOUNDARY MISC KINETIC TOTAL TEMP POTENTIAL TOTALAVG TEMPAVG PRESSURE GPRESSURE VOLUME PRESSAVG GPRESSAVG
ENERGY: 0 7.2003 9.0486 6.5502 0.0000 -10808.5867 1471.9861 0.0000 0.0000 1825.6651 -7488.1365 306.1878 -9313.8016 -7488.1365 306.1878 357.2233 441.3978 30414.0920 357.2233 441.3978
ENERGY: 300000 4.9056 6.6032 11.5336 0.0000 -10867.7621 1481.9933 0.0000 0.0000 1807.5985 -7555.1280 303.1578 -9362.7265 -7554.3639 299.7838 220.8841 243.2209 30367.2339 -0.1310 84.1825
ENERGY: 600000 3.7230 9.8439 9.7757 0.0000 -10875.6842 1530.3397 0.0000 0.0000 1801.5456 -7520.4563 302.1426 -9322.0019 -7544.9226 299.9995 553.2714 601.3007 30534.5945 82.2271 156.1444
ENERGY: 900000 3.1851 7.0296 6.6008 0.0000 -10852.3532 1502.2104 0.0000 0.0000 1764.5403 -7568.7869 295.9364 -9333.3273 -7550.9960 299.0787 245.1338 228.5085 30794.8387 61.4445 127.0631
ENERGY: 1200000 9.1533 4.5576 10.6437 0.0000 -10726.4672 1393.7773 0.0000 0.0000 1719.6708 -7588.6644 288.4112 -9308.3352 -7551.2255 299.5676 -723.5851 -659.1759 30622.2757 34.6025 99.5608
ENERGY: 1500000 5.0035 6.3625 11.3296 0.0000 -10775.9966 1398.7460 0.0000 0.0000 1784.1881 -7570.3669 299.2316 -9354.5550 -7550.0854 299.4712 -531.1567 -486.3100 30960.0923 -22.1585 42.1229
TCL: Running FEP window   8: Lambda1 0.35   Lambda2 0.39999999999999997 [dLambda 0.04999999999999999]
TCL: Setting parameter firsttimestep to 0
TCL: Setting parameter alchLambda to 0.35
Info: NONBONDED TABLE R-SQUARED SPACING: 0.0625
Info: NONBONDED TABLE SIZE: 705 POINTS
TCL: Setting parameter alchLambda2 to 0.39999999999999997
Info: NONBONDED TABLE R-SQUARED SPACING: 0.0625
Info: NONBONDED TABLE SIZE: 705 POINTS
TCL: Running for 1500000 steps
ETITLE: TS BOND ANGLE DIHED IMPRP ELECT VDW BOUNDARY MISC KINETIC TOTAL TEMP POTENTIAL TOTALAVG TEMPAVG PRESSURE GPRESSURE VOLUME PRESSAVG GPRESSAVG
ENERGY: 0 5.0035 6.3625 11.3296 0.0000 -10775.9966 1398.5899 0.0000 0.0000 1783.3101 -7571.4010 299.0843 -9354.7111 -7571.4010 299.0843 -565.5535 -481.8958 30960.0923 -565.5535 -481.8958
ENERGY: 300000 5.0022 7.1727 12.7339 0.0000 -10827.6666 1449.7220 0.0000 0.0000 1806.0548 -7546.9810 302.8989 -9353.0359 -7577.6797 298.1902 -145.0143 -147.9228 30748.0646 -266.6086 -197.8185
ENERGY: 600000 4.2161 6.9358 6.8227 0.0000 -10886.6602 1481.4388 0.0000 0.0000 1794.5084 -7592.7384 300.9624 -9387.2468 -7537.0228 301.2950 -53.7762 -64.9908 30776.5273 -189.0494 -136.6348
ENERGY: 900000 4.1247 9.6764 6.9046 0.0000 -10747.2150 1404.7962 0.0000 0.0000 1819.4460 -7502.2671 305.1448 -9321.7131 -7523.5438 302.7602 -719.3096 -694.8247 31413.6474 -262.6560 -211.9504
ENERGY: 1200000 2.7817 11.0148 6.5680 0.0000 -10722.9959 1416.5918 0.0000 0.0000 1784.3715 -7501.6681 299.2623 -9286.0397 -7533.8370 302.2716 -325.6332 -267.5589 30966.0900 -53.0694 -1.9739
ENERGY: 1500000 6.4015 9.0894 14.4216 0.0000 -10768.9477 1455.8063 0.0000 0.0000 1783.5140 -7499.7147 299.1185 -9283.2287 -7532.7405 302.0592 62.1578 124.1688 30615.2252 -61.3452 -4.8708
TCL: Running FEP window   9: Lambda1 0.39999999999999997 Lambda2 0.44999999999999996 [dLambda 0.04999999999999999]
TCL: Setting parameter firsttimestep to 0
TCL: Setting parameter alchLambda to 0.39999999999999997
Info: NONBONDED TABLE R-SQUARED SPACING: 0.0625
Info: NONBONDED TABLE SIZE: 705 POINTS
TCL: Setting parameter alchLambda2 to 0.44999999999999996
Info: NONBONDED TABLE R-SQUARED SPACING: 0.0625
Info: NONBONDED TABLE SIZE: 705 POINTS
TCL: Running for 1500000 steps
ETITLE: TS BOND ANGLE DIHED IMPRP ELECT VDW BOUNDARY MISC KINETIC TOTAL TEMP POTENTIAL TOTALAVG TEMPAVG PRESSURE GPRESSURE VOLUME PRESSAVG GPRESSAVG
ENERGY: 0 6.4015 9.0894 14.4216 0.0000 -10768.9487 1455.9711 0.0000 0.0000 1782.6593 -7500.4057 298.9752 -9283.0650 -7500.4057 298.9752 46.1775 130.8775 30615.2252 46.1775 130.8775
ENERGY: 300000 3.0306 9.5922 10.3126 0.0000 -10633.4510 1340.7835 0.0000 0.0000 1787.7966 -7481.9355 299.8368 -9269.7321 -7497.4212 299.0156 -734.7587 -691.5236 30965.4304 -263.1167 -220.7174
ENERGY: 600000 2.6269 8.8065 8.8574 0.0000 -10677.4627 1316.5928 0.0000 0.0000 1769.7079 -7570.8712 296.8030 -9340.5791 -7527.5373 299.6680 -1177.8259 -1144.1537 30745.9151 -173.6808 -145.9206
ENERGY: 900000 4.8499 13.9197 7.4993 0.0000 -10869.2683 1491.3191 0.0000 0.0000 1784.9992 -7566.6810 299.3676 -9351.6803 -7532.3306 299.9755 269.5034 344.7248 30533.5607 -103.5488 -68.9908
ENERGY: 1200000 2.7345 10.3388 9.8830 0.0000 -10841.4784 1476.7465 0.0000 0.0000 1767.8222 -7573.9534 296.4868 -9341.7756 -7537.4444 299.3527 -40.3310 4.3558 30997.8448 -143.1608 -104.6229
ENERGY: 1500000 5.7156 6.8299 10.0182 0.0000 -10968.0974 1546.6790 0.0000 0.0000 1765.3720 -7633.4828 296.0759 -9398.8549 -7546.4735 298.3660 710.4144 771.1267 30219.9817 -51.4300 -2.0134
TCL: Running FEP window  10: Lambda1 0.44999999999999996 Lambda2 0.49999999999999994 [dLambda 0.04999999999999999]
TCL: Setting parameter firsttimestep to 0
TCL: Setting parameter alchLambda to 0.44999999999999996
Info: NONBONDED TABLE R-SQUARED SPACING: 0.0625
Info: NONBONDED TABLE SIZE: 705 POINTS
TCL: Setting parameter alchLambda2 to 0.49999999999999994
Info: NONBONDED TABLE R-SQUARED SPACING: 0.0625
Info: NONBONDED TABLE SIZE: 705 POINTS
TCL: Running for 1500000 steps
ETITLE: TS BOND ANGLE DIHED IMPRP ELECT VDW BOUNDARY MISC KINETIC TOTAL TEMP POTENTIAL TOTALAVG TEMPAVG PRESSURE GPRESSURE VOLUME PRESSAVG GPRESSAVG
ENERGY: 0 5.7156 6.8299 10.0182 0.0000 -10968.0976 1547.0746 0.0000 0.0000 1764.4992 -7633.9601 295.9295 -9398.4593 -7633.9601 295.9295 700.9642 782.5906 30219.9817 700.9642 782.5906
ENERGY: 300000 3.5049 14.6851 8.0068 0.0000 -10795.3902 1426.1274 0.0000 0.0000 1782.6965 -7560.3696 298.9814 -9343.0660 -7566.9785 301.5450 -305.5193 -234.1053 30707.7867 20.7653 113.5731
ENERGY: 600000 1.8592 8.6095 8.0541 0.0000 -10909.9351 1496.9322 0.0000 0.0000 1813.2538 -7581.2262 304.1063 -9394.4800 -7544.7162 301.4573 349.0004 314.2571 30571.2930 -17.3985 47.1915
ENERGY: 900000 4.5325 9.9466 6.7087 0.0000 -10856.0477 1455.0879 0.0000 0.0000 1887.4670 -7492.3050 316.5528 -9379.7720 -7550.6747 302.7936 55.7138 57.4801 30688.0826 7.0780 61.3511
ENERGY: 1200000 3.0318 6.2472 11.1917 0.0000 -10831.8645 1467.9724 0.0000 0.0000 1817.4624 -7525.9591 304.8121 -9343.4215 -7555.3704 301.5687 -115.6265 -68.6245 30948.8302 23.7074 82.9461
ENERGY: 1500000 4.4846 7.1303 7.9112 0.0000 -10900.7034 1489.0831 0.0000 0.0000 1756.4613 -7635.6329 294.5814 -9392.0942 -7559.6239 300.5520 16.8401 31.5205 30592.2146 83.4701 140.1853
TCL: Running FEP window  11: Lambda1 0.49999999999999994 Lambda2 0.5499999999999999 [dLambda 0.04999999999999999]
TCL: Setting parameter firsttimestep to 0
TCL: Setting parameter alchLambda to 0.49999999999999994
Info: NONBONDED TABLE R-SQUARED SPACING: 0.0625
Info: NONBONDED TABLE SIZE: 705 POINTS
TCL: Setting parameter alchLambda2 to 0.5499999999999999
Info: NONBONDED TABLE R-SQUARED SPACING: 0.0625
Info: NONBONDED TABLE SIZE: 705 POINTS
TCL: Running for 1500000 steps
ETITLE: TS BOND ANGLE DIHED IMPRP ELECT VDW BOUNDARY MISC KINETIC TOTAL TEMP POTENTIAL TOTALAVG TEMPAVG PRESSURE GPRESSURE VOLUME PRESSAVG GPRESSAVG
ENERGY: 0 4.4846 7.1303 7.9112 0.0000 -10900.7023 1489.5282 0.0000 0.0000 1755.5451 -7636.1030 294.4278 -9391.6481 -7636.1030 294.4278 -30.2096 42.6808 30592.2146 -30.2096 42.6808
ENERGY: 300000 3.4780 7.1527 12.8286 0.0000 -10883.0333 1500.1322 0.0000 0.0000 1793.8658 -7565.5761 300.8546 -9359.4419 -7610.4975 298.5028 219.0015 258.6843 30913.1083 86.9068 158.4647
ENERGY: 600000 2.0143 7.1705 10.1461 0.0000 -10830.1992 1500.8532 0.0000 0.0000 1790.7641 -7519.2510 300.3344 -9310.0151 -7595.6545 298.8684 477.2231 618.6099 30725.0755 97.8919 173.3028
ENERGY: 900000 3.3831 10.3395 8.3822 0.0000 -10811.0446 1460.9912 0.0000 0.0000 1736.2829 -7591.6657 291.1972 -9327.9486 -7565.7034 300.6932 95.3219 174.3944 30679.1662 -15.2929 54.2192
ENERGY: 1200000 4.3894 8.1174 9.8986 0.0000 -10792.4114 1397.9076 0.0000 0.0000 1810.9164 -7561.1820 303.7142 -9372.0984 -7554.9232 301.5210 -571.5341 -525.9168 30926.4097 -29.0708 36.2955
ENERGY: 1500000 3.0421 6.6959 10.1553 0.0000 -10796.1154 1403.1327 0.0000 0.0000 1766.1104 -7606.9789 296.1997 -9373.0893 -7554.6554 301.4348 -504.0954 -447.6503 30578.7139 -105.9184 -42.4704
TCL: Running FEP window  12: Lambda1 0.5499999999999999 Lambda2 0.6    [dLambda 0.050000000000000044]
TCL: Setting parameter firsttimestep to 0
TCL: Setting parameter alchLambda to 0.5499999999999999
Info: NONBONDED TABLE R-SQUARED SPACING: 0.0625
Info: NONBONDED TABLE SIZE: 705 POINTS
TCL: Setting parameter alchLambda2 to 0.6
Info: NONBONDED TABLE R-SQUARED SPACING: 0.0625
Info: NONBONDED TABLE SIZE: 705 POINTS
TCL: Running for 1500000 steps
ETITLE: TS BOND ANGLE DIHED IMPRP ELECT VDW BOUNDARY MISC KINETIC TOTAL TEMP POTENTIAL TOTALAVG TEMPAVG PRESSURE GPRESSURE VOLUME PRESSAVG GPRESSAVG
ENERGY: 0 3.0421 6.6959 10.1553 0.0000 -10795.6108 1403.5760 0.0000 0.0000 1765.2126 -7606.9288 296.0491 -9372.1414 -7606.9288 296.0491 -520.6136 -430.8687 30578.7139 -520.6136 -430.8687
ENERGY: 300000 3.6081 5.7962 9.6529 0.0000 -10704.8900 1411.6779 0.0000 0.0000 1813.4534 -7460.7015 304.1397 -9274.1549 -7572.4679 299.0969 -311.5628 -242.5292 31087.9268 -130.8341 -63.5675
ENERGY: 600000 3.1678 6.1487 12.9922 0.0000 -10877.5352 1526.2442 0.0000 0.0000 1784.4382 -7544.5441 299.2735 -9328.9823 -7567.4007 299.7502 422.8971 473.4124 30840.4348 46.4541 114.2383
ENERGY: 900000 6.6096 8.4652 5.8271 0.0000 -10771.8106 1453.1388 0.0000 0.0000 1743.2135 -7554.5564 292.3596 -9297.7699 -7569.8737 298.5389 -3.2460 -4.4712 30560.0505 39.2454 102.9368
ENERGY: 1200000 4.6907 3.7124 7.1242 0.0000 -10882.8808 1498.3999 0.0000 0.0000 1752.1783 -7616.7753 293.8631 -9368.9537 -7576.3031 297.3030 327.7770 383.6439 30686.9158 6.4917 69.1390
ENERGY: 1500000 3.8845 14.0084 8.2301 0.0000 -10635.4501 1319.3661 0.0000 0.0000 1758.1939 -7531.7672 294.8720 -9289.9611 -7570.5590 297.7369 -890.1326 -853.0370 30732.4035 -32.4495 27.7600
TCL: Running FEP window  13: Lambda1 0.6    Lambda2 0.65   [dLambda 0.050000000000000044]
TCL: Setting parameter firsttimestep to 0
TCL: Setting parameter alchLambda to 0.6
Info: NONBONDED TABLE R-SQUARED SPACING: 0.0625
Info: NONBONDED TABLE SIZE: 705 POINTS
TCL: Setting parameter alchLambda2 to 0.65
Info: NONBONDED TABLE R-SQUARED SPACING: 0.0625
Info: NONBONDED TABLE SIZE: 705 POINTS
TCL: Running for 1500000 steps
ETITLE: TS BOND ANGLE DIHED IMPRP ELECT VDW BOUNDARY MISC KINETIC TOTAL TEMP POTENTIAL TOTALAVG TEMPAVG PRESSURE GPRESSURE VOLUME PRESSAVG GPRESSAVG
ENERGY: 0 3.8845 14.0084 8.2301 0.0000 -10636.3988 1319.3248 0.0000 0.0000 1757.2950 -7533.6561 294.7212 -9290.9511 -7533.6561 294.7212 -929.8438 -843.8530 30732.4035 -929.8438 -843.8530
ENERGY: 300000 5.5737 4.9820 9.7014 0.0000 -10849.7801 1500.1119 0.0000 0.0000 1746.8010 -7582.6101 292.9613 -9329.4111 -7550.1784 298.6268 309.1390 384.2325 30610.6833 -32.2559 21.7307
ENERGY: 600000 1.6997 11.4202 5.7645 0.0000 -10876.8447 1540.1674 0.0000 0.0000 1809.4273 -7508.3656 303.4645 -9317.7929 -7563.5668 297.0202 614.9899 658.0752 30672.7412 -47.5655 2.4494
ENERGY: 900000 6.7734 10.3539 10.1959 0.0000 -10695.6041 1349.0312 0.0000 0.0000 1789.9895 -7529.2601 300.2045 -9319.2496 -7550.6171 298.0577 -823.7631 -758.3908 30674.9373 -16.3952 45.8882
ENERGY: 1200000 2.5430 11.1743 6.2688 0.0000 -10780.1439 1439.5824 0.0000 0.0000 1811.0499 -7509.5256 303.7366 -9320.5755 -7548.8667 299.0498 5.7292 66.2981 30780.1488 40.7235 105.1282
ENERGY: 1500000 1.2986 10.8625 9.8613 0.0000 -10791.8071 1393.8540 0.0000 0.0000 1757.7585 -7618.1722 294.7990 -9375.9307 -7547.2579 298.9845 -760.4521 -654.7020 30756.7479 -29.6016 44.1745
TCL: Running FEP window  14: Lambda1 0.65   Lambda2 0.7000000000000001 [dLambda 0.050000000000000044]
TCL: Setting parameter firsttimestep to 0
TCL: Setting parameter alchLambda to 0.65
Info: NONBONDED TABLE R-SQUARED SPACING: 0.0625
Info: NONBONDED TABLE SIZE: 705 POINTS
TCL: Setting parameter alchLambda2 to 0.7000000000000001
Info: NONBONDED TABLE R-SQUARED SPACING: 0.0625
Info: NONBONDED TABLE SIZE: 705 POINTS
TCL: Running for 1500000 steps
ETITLE: TS BOND ANGLE DIHED IMPRP ELECT VDW BOUNDARY MISC KINETIC TOTAL TEMP POTENTIAL TOTALAVG TEMPAVG PRESSURE GPRESSURE VOLUME PRESSAVG GPRESSAVG
ENERGY: 0 1.2986 10.8625 9.8613 0.0000 -10792.2904 1393.5602 0.0000 0.0000 1756.8400 -7619.8677 294.6449 -9376.7078 -7619.8677 294.6449 -737.7881 -649.0177 30756.7479 -737.7881 -649.0177
ENERGY: 300000 3.4112 8.1366 9.9252 0.0000 -10688.3474 1429.0770 0.0000 0.0000 1815.6473 -7422.1501 304.5077 -9237.7974 -7516.0126 299.6360 -207.1742 -112.5600 31517.3877 -375.2103 -306.0272
ENERGY: 600000 5.8147 8.9471 7.5292 0.0000 -10808.7470 1501.9675 0.0000 0.0000 1809.8020 -7474.6864 303.5273 -9284.4885 -7495.9249 302.2501 575.7027 676.9976 30436.9826 -270.1917 -183.6358
ENERGY: 900000 5.6407 8.7718 10.2205 0.0000 -10702.7952 1357.4743 0.0000 0.0000 1766.0691 -7554.6189 296.1928 -9320.6880 -7497.8062 302.6111 -783.0474 -775.7791 30766.2223 -333.0179 -264.4008
ENERGY: 1200000 2.9527 6.6843 12.1232 0.0000 -10842.0233 1429.4177 0.0000 0.0000 1818.2141 -7572.6313 304.9382 -9390.8453 -7513.7405 302.1996 -680.5961 -581.9201 31278.0484 -335.6391 -265.8972
ENERGY: 1500000 3.4817 4.5552 8.0410 0.0000 -10952.8891 1531.1097 0.0000 0.0000 1793.0547 -7612.6468 300.7186 -9405.7015 -7531.5506 301.4154 740.8119 715.3877 30556.9829 -302.4000 -241.1418
TCL: Running FEP window  15: Lambda1 0.7000000000000001 Lambda2 0.7500000000000001 [dLambda 0.050000000000000044]
TCL: Setting parameter firsttimestep to 0
TCL: Setting parameter alchLambda to 0.7000000000000001
Info: NONBONDED TABLE R-SQUARED SPACING: 0.0625
Info: NONBONDED TABLE SIZE: 705 POINTS
TCL: Setting parameter alchLambda2 to 0.7500000000000001
Info: NONBONDED TABLE R-SQUARED SPACING: 0.0625
Info: NONBONDED TABLE SIZE: 705 POINTS
TCL: Running for 1500000 steps
ETITLE: TS BOND ANGLE DIHED IMPRP ELECT VDW BOUNDARY MISC KINETIC TOTAL TEMP POTENTIAL TOTALAVG TEMPAVG PRESSURE GPRESSURE VOLUME PRESSAVG GPRESSAVG
ENERGY: 0 3.4817 4.5552 8.0410 0.0000 -10954.0824 1531.1179 0.0000 0.0000 1792.1556 -7614.7311 300.5678 -9406.8867 -7614.7311 300.5678 656.8980 725.3409 30556.9829 656.8980 725.3409
ENERGY: 300000 2.8977 4.8377 10.0795 0.0000 -10768.1891 1413.2546 0.0000 0.0000 1792.3964 -7544.7233 300.6082 -9337.1197 -7536.8693 300.1436 -177.4292 -53.8448 30403.7631 140.4995 212.2041
ENERGY: 600000 5.7315 7.9383 8.1251 0.0000 -10814.5787 1468.2650 0.0000 0.0000 1817.9132 -7506.6056 304.8877 -9324.5188 -7522.9815 303.3146 33.9744 102.0297 31037.1505 111.1468 180.9721
ENERGY: 900000 3.5455 6.3460 7.6631 0.0000 -10706.8950 1362.7643 0.0000 0.0000 1773.4264 -7553.1496 297.4267 -9326.5761 -7531.1271 303.2509 -876.5924 -788.5152 31171.7932 38.2161 105.9540
ENERGY: 1200000 5.9835 4.9590 9.6872 0.0000 -10800.3953 1448.1114 0.0000 0.0000 1728.1905 -7603.4635 289.8400 -9331.6541 -7545.7500 301.2195 -177.5150 -48.3206 30413.1783 -29.5627 38.9966
ENERGY: 1500000 1.8119 7.9176 11.5503 0.0000 -10779.3427 1437.5844 0.0000 0.0000 1773.9111 -7546.5674 297.5080 -9320.4785 -7543.0036 300.5086 -140.3277 -106.3369 31028.7177 -17.9949 48.7203
TCL: Running FEP window  16: Lambda1 0.7500000000000001 Lambda2 0.8000000000000002 [dLambda 0.050000000000000044]
TCL: Setting parameter firsttimestep to 0
TCL: Setting parameter alchLambda to 0.7500000000000001
Info: NONBONDED TABLE R-SQUARED SPACING: 0.0625
Info: NONBONDED TABLE SIZE: 705 POINTS
TCL: Setting parameter alchLambda2 to 0.8000000000000002
Info: NONBONDED TABLE R-SQUARED SPACING: 0.0625
Info: NONBONDED TABLE SIZE: 705 POINTS
TCL: Running for 1500000 steps
ETITLE: TS BOND ANGLE DIHED IMPRP ELECT VDW BOUNDARY MISC KINETIC TOTAL TEMP POTENTIAL TOTALAVG TEMPAVG PRESSURE GPRESSURE VOLUME PRESSAVG GPRESSAVG
ENERGY: 0 1.8119 7.9176 11.5503 0.0000 -10780.1412 1437.5416 0.0000 0.0000 1773.0108 -7548.3091 297.3570 -9321.3199 -7548.3091 297.3570 -175.3069 -96.5505 31028.7177 -175.3069 -96.5505
ENERGY: 300000 3.8462 10.5382 11.8749 0.0000 -10824.4717 1453.4935 0.0000 0.0000 1815.3030 -7529.4160 304.4499 -9344.7190 -7516.2023 303.4852 -153.0285 -50.6754 30922.5788 -205.6567 -135.3152
ENERGY: 600000 1.7765 3.9282 9.7022 0.0000 -10804.0608 1491.1243 0.0000 0.0000 1805.8281 -7491.7016 302.8609 -9297.5296 -7521.4050 302.6332 381.4305 463.8814 31000.2717 -84.7410 -15.1607
ENERGY: 900000 8.2150 5.1855 10.8745 0.0000 -10778.3911 1399.8577 0.0000 0.0000 1767.8525 -7586.4059 296.4919 -9354.2585 -7519.4522 303.0756 -748.4102 -726.1062 31355.5994 -238.9800 -171.1454
ENERGY: 1200000 2.4701 10.2157 12.4744 0.0000 -10871.0405 1511.0866 0.0000 0.0000 1853.8768 -7480.9170 310.9193 -9334.7937 -7525.7731 303.3751 626.1967 657.7665 30528.7056 -130.8796 -68.1269
ENERGY: 1500000 3.5909 7.6224 11.4467 0.0000 -10838.6139 1502.9786 0.0000 0.0000 1795.9395 -7517.0359 301.2024 -9312.9754 -7524.4770 303.1600 394.7171 477.0190 31024.5027 -76.9211 -16.6474
TCL: Running FEP window  17: Lambda1 0.8000000000000002 Lambda2 0.8500000000000002 [dLambda 0.050000000000000044]
TCL: Setting parameter firsttimestep to 0
TCL: Setting parameter alchLambda to 0.8000000000000002
Info: NONBONDED TABLE R-SQUARED SPACING: 0.0625
Info: NONBONDED TABLE SIZE: 705 POINTS
TCL: Setting parameter alchLambda2 to 0.8500000000000002
Info: NONBONDED TABLE R-SQUARED SPACING: 0.0625
Info: NONBONDED TABLE SIZE: 705 POINTS
TCL: Running for 1500000 steps
ETITLE: TS BOND ANGLE DIHED IMPRP ELECT VDW BOUNDARY MISC KINETIC TOTAL TEMP POTENTIAL TOTALAVG TEMPAVG PRESSURE GPRESSURE VOLUME PRESSAVG GPRESSAVG
ENERGY: 0 3.5909 7.6224 11.4467 0.0000 -10840.0906 1502.8302 0.0000 0.0000 1795.0837 -7519.5169 301.0589 -9314.6005 -7519.5169 301.0589 395.5101 483.8058 31024.5027 395.5101 483.8058
ENERGY: 300000 6.8740 6.3074 6.7616 0.0000 -10882.7174 1463.5043 0.0000 0.0000 1814.5618 -7584.7084 304.3256 -9399.2702 -7575.0899 301.6570 -225.0416 -185.4458 31079.0360 -26.8399 55.6639
ENERGY: 600000 5.8758 8.8241 10.8325 0.0000 -10879.0199 1487.1631 0.0000 0.0000 1796.5430 -7569.7814 301.3036 -9366.3244 -7568.5068 299.9594 260.3270 346.9459 30753.9475 -23.5926 56.1225
ENERGY: 900000 2.8216 4.2620 6.8434 0.0000 -10767.5765 1502.2327 0.0000 0.0000 1807.0096 -7444.4073 303.0590 -9251.4169 -7558.9328 299.3180 416.7833 401.9119 31351.8446 14.4061 77.2245
ENERGY: 1200000 4.4129 5.2572 7.5902 0.0000 -10882.2829 1452.6900 0.0000 0.0000 1779.4262 -7632.9063 298.4329 -9412.3325 -7566.4079 299.3384 -244.0885 -210.5127 30763.8356 87.0953 145.5961
ENERGY: 1500000 3.0856 7.3800 7.0958 0.0000 -10833.1231 1456.4452 0.0000 0.0000 1819.6148 -7539.5016 305.1731 -9359.1164 -7560.4020 299.6102 42.6415 -10.0756 30932.7936 16.2278 66.0266
TCL: Running FEP window  18: Lambda1 0.8500000000000002 Lambda2 0.9000000000000002 [dLambda 0.050000000000000044]
TCL: Setting parameter firsttimestep to 0
TCL: Setting parameter alchLambda to 0.8500000000000002
Info: NONBONDED TABLE R-SQUARED SPACING: 0.0625
Info: NONBONDED TABLE SIZE: 705 POINTS
TCL: Setting parameter alchLambda2 to 0.9000000000000002
Info: NONBONDED TABLE R-SQUARED SPACING: 0.0625
Info: NONBONDED TABLE SIZE: 705 POINTS
TCL: Running for 1500000 steps
ETITLE: TS BOND ANGLE DIHED IMPRP ELECT VDW BOUNDARY MISC KINETIC TOTAL TEMP POTENTIAL TOTALAVG TEMPAVG PRESSURE GPRESSURE VOLUME PRESSAVG GPRESSAVG
ENERGY: 0 3.0856 7.3800 7.0958 0.0000 -10835.0615 1455.8561 0.0000 0.0000 1818.7049 -7542.9391 305.0205 -9361.6440 -7542.9391 305.0205 -80.5546 -6.3506 30932.7936 -80.5546 -6.3506
ENERGY: 300000 4.6848 6.1210 8.6858 0.0000 -10843.9961 1519.6795 0.0000 0.0000 1775.9195 -7528.9056 297.8448 -9304.8251 -7532.1329 300.8368 358.8664 381.2636 31081.5735 12.3402 56.1795
ENERGY: 600000 6.7810 4.9676 8.2765 0.0000 -10724.8195 1345.9088 0.0000 0.0000 1771.2414 -7587.6441 297.0602 -9358.8856 -7562.4529 298.7186 -1221.3256 -1122.4511 31333.0900 -233.3049 -185.9427
ENERGY: 900000 5.9654 5.3915 15.4641 0.0000 -10727.3422 1358.0543 0.0000 0.0000 1777.1513 -7565.3155 298.0514 -9342.4668 -7567.4996 299.2755 -875.8444 -860.9384 30861.6973 -310.4633 -254.1137
ENERGY: 1200000 3.0910 5.9366 7.1174 0.0000 -10729.5929 1337.9375 0.0000 0.0000 1734.1173 -7641.3932 290.8340 -9375.5105 -7574.0408 299.3144 -775.6166 -701.0488 30431.1937 -253.7185 -191.5558
ENERGY: 1500000 2.1118 12.4174 11.1506 0.0000 -10846.3811 1471.7248 0.0000 0.0000 1789.8694 -7559.1071 300.1844 -9348.9765 -7575.3678 299.1715 152.1524 235.2536 30750.0524 -175.7575 -111.7590
TCL: Running FEP window  19: Lambda1 0.9000000000000002 Lambda2 0.9500000000000003 [dLambda 0.050000000000000044]
TCL: Setting parameter firsttimestep to 0
TCL: Setting parameter alchLambda to 0.9000000000000002
Info: NONBONDED TABLE R-SQUARED SPACING: 0.0625
Info: NONBONDED TABLE SIZE: 705 POINTS
TCL: Setting parameter alchLambda2 to 0.9500000000000003
Info: NONBONDED TABLE R-SQUARED SPACING: 0.0625
Info: NONBONDED TABLE SIZE: 705 POINTS
TCL: Running for 1500000 steps
ETITLE: TS BOND ANGLE DIHED IMPRP ELECT VDW BOUNDARY MISC KINETIC TOTAL TEMP POTENTIAL TOTALAVG TEMPAVG PRESSURE GPRESSURE VOLUME PRESSAVG GPRESSAVG
ENERGY: 0 2.1118 12.4174 11.1506 0.0000 -10848.9427 1474.2162 0.0000 0.0000 1788.9757 -7560.0711 300.0345 -9349.0467 -7560.0711 300.0345 189.0532 276.9629 30750.0524 189.0532 276.9629
ENERGY: 300000 4.5397 5.5098 12.2591 0.0000 -10856.3287 1385.8410 0.0000 0.0000 1723.3970 -7724.7822 289.0361 -9448.1792 -7604.6198 297.9391 -614.3483 -520.8472 30637.2995 -207.2336 -97.6820
ENERGY: 600000 3.3267 7.6329 11.5310 0.0000 -10958.3208 1512.3786 0.0000 0.0000 1777.9634 -7645.4881 298.1876 -9423.4515 -7587.2197 297.8693 235.7882 249.9375 30542.5453 -148.8544 -75.8796
ENERGY: 900000 3.3755 6.3804 9.4885 0.0000 -10816.6294 1457.6862 0.0000 0.0000 1838.4185 -7501.2803 308.3267 -9339.6988 -7566.4355 300.2225 269.3206 341.6158 30597.0876 -10.4593 57.7769
ENERGY: 1200000 0.8611 6.4803 9.0913 0.0000 -10858.4493 1511.9673 0.0000 0.0000 1726.9886 -7603.0609 289.6385 -9330.0495 -7566.5581 298.3637 240.2364 218.6060 31365.3646 86.5919 140.1874
ENERGY: 1500000 6.4908 6.9195 10.1547 0.0000 -10780.8242 1446.0600 0.0000 0.0000 1790.0242 -7521.1750 300.2103 -9311.1992 -7562.4344 298.5317 -462.6668 -399.3078 31426.2920 54.4240 109.9542
TCL: Running FEP window  20: Lambda1 0.9500000000000003 Lambda2 1.0    [dLambda 0.04999999999999971]
TCL: Setting parameter firsttimestep to 0
TCL: Setting parameter alchLambda to 0.9500000000000003
Info: NONBONDED TABLE R-SQUARED SPACING: 0.0625
Info: NONBONDED TABLE SIZE: 705 POINTS
TCL: Setting parameter alchLambda2 to 1.0
Info: NONBONDED TABLE R-SQUARED SPACING: 0.0625
Info: NONBONDED TABLE SIZE: 705 POINTS
TCL: Running for 1500000 steps
ETITLE: TS BOND ANGLE DIHED IMPRP ELECT VDW BOUNDARY MISC KINETIC TOTAL TEMP POTENTIAL TOTALAVG TEMPAVG PRESSURE GPRESSURE VOLUME PRESSAVG GPRESSAVG
ENERGY: 0 6.4908 6.9195 10.1547 0.0000 -10782.6342 1446.5633 0.0000 0.0000 1789.1210 -7523.3848 300.0589 -9312.5058 -7523.3848 300.0589 -455.4954 -381.0376 31426.2920 -455.4954 -381.0376
ENERGY: 300000 1.1904 6.9457 13.2271 0.0000 -10828.1569 1521.6613 0.0000 0.0000 1766.1138 -7519.0186 296.2003 -9285.1325 -7525.6097 302.0165 859.2659 862.5388 30853.3577 160.8401 210.7851
ENERGY: 600000 4.2921 6.4392 9.6579 0.0000 -10648.7013 1363.4356 0.0000 0.0000 1824.0228 -7440.8537 305.9123 -9264.8764 -7539.7353 300.7300 -632.7144 -542.6961 30958.4446 -86.7826 -28.9941
ENERGY: 900000 4.3718 6.7578 9.6864 0.0000 -10676.4991 1325.6601 0.0000 0.0000 1713.5242 -7616.4988 287.3803 -9330.0229 -7536.1586 300.3555 -884.5743 -834.8919 30851.9830 -212.5475 -152.0331
ENERGY: 1200000 3.2521 7.2321 10.2386 0.0000 -10757.6426 1404.1383 0.0000 0.0000 1728.4726 -7604.3090 289.8873 -9332.7816 -7549.2360 298.7773 -100.8975 -16.6666 30523.6460 -153.3905 -94.9461
ENERGY: 1500000 1.9052 7.3592 11.8585 0.0000 -10678.4358 1411.6445 0.0000 0.0000 1759.9925 -7485.6758 295.1736 -9245.6682 -7543.2821 299.0065 -307.2849 -248.8696 31696.0105 -106.0505 -50.3042
TCL: Exiting due to exit command.
