Info: SIMULATION PARAMETERS:
Info: TIMESTEP               2
Info: NUMBER OF STEPS        0
Info: STEPS PER CYCLE        10
Info: PERIODIC CELL BASIS 1  30.6924 0 0
Info: PERIODIC CELL BASIS 2  0 31.388 0
Info: PERIODIC CELL BASIS 3  0 0 31.2696
Info: PERIODIC CELL CENTER   0 0 0
Info: WRAPPING WATERS AROUND PERIODIC BOUNDARIES ON OUTPUT.
Info: WRAPPING ALL CLUSTERS AROUND PERIODIC BOUNDARIES ON OUTPUT.
Info: FIRST LDB TIMESTEP     50
Info: LAST LDB TIMESTEP     -1
Info: HOM BACKGROUND SCALING 1
Info: PME BACKGROUND SCALING 1
Info: MIN ATOMS PER PATCH    40
Info: EMPTY PATCH LOAD       40 ATOMS
Info: VELOCITY FILE          mobley_9883303_equil.vel
Info: CENTER OF MASS MOVING INITIALLY? NO
Info: DIELECTRIC             1
Info: EXCLUDE                SCALED ONE-FOUR
Info: 1-4 ELECTROSTATICS SCALED BY 0.833333
Info: MODIFIED 1-4 VDW PARAMETERS WILL BE USED
Info: DCD FILENAME           mobley_9883303_prod.dcd
Info: DCD FREQUENCY          100000
Info: DCD FIRST STEP         100000
Info: DCD FILE WILL CONTAIN UNIT CELL DATA
Info: XST FILENAME           mobley_9883303_prod.xst
Info: XST FREQUENCY          100000
Info: NO VELOCITY DCD OUTPUT
Info: NO FORCE DCD OUTPUT
Info: OUTPUT FILENAME        mobley_9883303_prod
Info: BINARY OUTPUT FILES WILL BE USED
Info: RESTART FILENAME       mobley_9883303_prod.restart
Info: RESTART FREQUENCY      100000
Info: BINARY RESTART FILES WILL BE USED
Info: CUTOFF                 9
Info: PAIRLIST DISTANCE      11
Info: PAIRLIST SHRINK RATE   0.01
Info: PAIRLIST GROW RATE     0.01
Info: PAIRLIST TRIGGER       0.3
Info: PAIRLISTS PER CYCLE    2
Info: PAIRLISTS ENABLED
Info: MARGIN                 2
Info: HYDROGEN GROUP CUTOFF  2.5
Info: PATCH DIMENSION        15.5
Info: ENERGY OUTPUT STEPS    100000
Info: ENERGY EVALUATION STEPS    100000
Info: OUTPUT ENERGY PRECISION 4
Info: CROSSTERM ENERGY INCLUDED IN DIHEDRAL
Info: TIMING OUTPUT STEPS    1000000
Info: PRESSURE OUTPUT STEPS  100000
Info: ALCHEMICAL FEP ON
Info: FEP CURRENT LAMBDA VALUE     1
Info: FEP COMPARISON LAMBDA VALUE  0.95
Info: FEP INTRA-ALCHEMICAL NON-BONDED INTERACTIONS WILL BE RETAINED
Info: FEP INTRA-ALCHEMICAL BONDED INTERACTIONS WILL BE RETAINED
Info: FEP VDW SHIFTING COEFFICIENT 5
Info: FEP ELEC. ACTIVE FOR ANNIHILATED PARTICLES BETWEEN LAMBDA = 0 AND LAMBDA = 0.5
Info: FEP ELEC. ACTIVE FOR EXNIHILATED PARTICLES BETWEEN LAMBDA = 0.5 AND LAMBDA = 1
Info: FEP VDW ACTIVE FOR ANNIHILATED PARTICLES BETWEEN LAMBDA = 0 AND LAMBDA = 1
Info: FEP VDW ACTIVE FOR EXNIHILATED PARTICLES BETWEEN LAMBDA = 0 AND LAMBDA = 1
Info: FEP BOND ACTIVE FOR ANNIHILATED PARTICLES BETWEEN LAMBDA = 1 AND LAMBDA = 1
Info: FEP BOND ACTIVE FOR EXNIHILATED PARTICLES BETWEEN LAMBDA = 0 AND LAMBDA = 0
Info: LANGEVIN DYNAMICS ACTIVE
Info: LANGEVIN TEMPERATURE   300
Info: LANGEVIN USING BBK INTEGRATOR
Info: LANGEVIN DAMPING COEFFICIENT IS 1 INVERSE PS
Info: LANGEVIN DYNAMICS APPLIED TO HYDROGENS
Info: LANGEVIN PISTON PRESSURE CONTROL ACTIVE
Info:        TARGET PRESSURE IS 1.01325 BAR
Info:     OSCILLATION PERIOD IS 50 FS
Info:             DECAY TIME IS 25 FS
Info:     PISTON TEMPERATURE IS 300 K
Info:       PRESSURE CONTROL IS GROUP-BASED
Info:    INITIAL STRAIN RATE IS 0.000592894 0.000592894 0.000592894
Info:       CELL FLUCTUATION IS ISOTROPIC
Info: PARTICLE MESH EWALD (PME) ACTIVE
Info: PME TOLERANCE               1e-06
Info: PME EWALD COEFFICIENT       0.348832
Info: PME INTERPOLATION ORDER     4
Info: PME GRID DIMENSIONS         32 32 32
Info: PME MAXIMUM GRID SPACING    1
Info: PME CALCULATION WILL BE PERFORMED ON GPU
Info: FULL ELECTROSTATIC EVALUATION FREQUENCY      2
Info: USING VERLET I (r-RESPA) MTS SCHEME.
Info: C1 SPLITTING OF LONG RANGE ELECTROSTATICS
Info: PLACING ATOMS IN PATCHES BY HYDROGEN GROUPS
Info: RIGID BONDS TO HYDROGEN : ALL
Info:         ERROR TOLERANCE : 1e-08
Info:          MAX ITERATIONS : 100
Info: RIGID WATER USING SETTLE ALGORITHM
Info: RANDOM NUMBER SEED     1743943474
Info: USE HYDROGEN BONDS?    NO
Info: Using AMBER format force field!
Info: AMBER PARM FILE        mobley_9883303.prmtop
Info: COORDINATE PDB         mobley_9883303.pdb
Info: Exclusions will be read from PARM file!
Info: SCNB (VDW SCALING)     2
Info: USING ARITHMETIC MEAN TO COMBINE L-J SIGMA PARAMETERS
Info: BINARY COORDINATES     mobley_9883303_equil.coor
Info: SUMMARY OF PARAMETERS:
Info: 4 BONDS
Info: 3 ANGLES
Info:   3 HARMONIC
Info:   0 COSINE-BASED
Info: 5 DIHEDRAL
Info: 0 IMPROPER
Info: 0 CROSSTERM
Info: 0 VDW
Info: 10 VDW_PAIRS
Info: 0 NBTHOLE_PAIRS
Info: To read alchdata from file: mobley_9883303.pdb
Info: To read alchflag data from column: 5
Info: STRUCTURE SUMMARY:
Info: 2930 ATOMS
Info: 2929 BONDS
Info: 42 ANGLES
Info: 64 DIHEDRALS
Info: 0 IMPROPERS
Info: 0 CROSSTERMS
Info: 3025 EXCLUSIONS
Info: 2923 RIGID BONDS
Info: ALCH: 0 ATOMS TO DISAPPEAR IN FINAL STATE
Info: ALCH: 23 ATOMS TO APPEAR IN FINAL STATE
Info: 5867 DEGREES OF FREEDOM
Info: 976 HYDROGEN GROUPS
Info: 4 ATOMS IN LARGEST HYDROGEN GROUP
Info: 976 MIGRATION GROUPS
Info: 4 ATOMS IN LARGEST MIGRATION GROUP
Info: TOTAL MASS = 17557.7 amu
Info: TOTAL CHARGE = 0.000200007 e
Info: MASS DENSITY = 0.967855 g/cm^3
Info: ATOM DENSITY = 0.0972637 atoms/A^3
Info: ADDED 0 IMPLICIT EXCLUSIONS
Info: NONBONDED TABLE R-SQUARED SPACING: 0.0625
Info: NONBONDED TABLE SIZE: 705 POINTS
Info: REMOVING COM VELOCITY 0.0385957 -0.079927 0.0948439
Info: Use 3D box decompostion in PME FFT.
Info: Updated CUDA force table with 4096 elements.
Info: Updated CUDA LJ table with 4 x 4 elements.
Info: Found 26 unique exclusion lists needing 80 bytes
TCL: Running for 1500000 steps
ETITLE: TS BOND ANGLE DIHED IMPRP ELECT VDW BOUNDARY MISC KINETIC TOTAL TEMP POTENTIAL TOTALAVG TEMPAVG PRESSURE GPRESSURE VOLUME PRESSAVG GPRESSAVG
ENERGY: 0 3.4996 9.0304 3.6551 0.0000 -10547.2817 1350.1284 0.0000 0.0000 1736.2967 -7444.6715 297.8504 -9180.9683 -7444.6715 297.8504 -668.2251 -583.9645 30124.2761 -668.2251 -583.9645
ENERGY: 300000 0.9179 8.3239 3.5360 0.0000 -10549.5944 1396.7313 0.0000 0.0000 1715.3128 -7424.7725 294.2508 -9140.0853 -7441.7899 294.7119 -156.4995 -56.6688 30050.0053 -254.4933 -189.3506
ENERGY: 600000 2.3903 10.4924 4.4304 0.0000 -10574.5807 1418.7204 0.0000 0.0000 1719.4757 -7419.0713 294.9649 -9138.5471 -7431.6378 295.9511 -68.2635 -4.9577 30550.0201 63.1566 126.7176
ENERGY: 900000 2.0667 11.5418 3.0730 0.0000 -10340.7559 1295.3076 0.0000 0.0000 1760.7039 -7268.0629 302.0373 -9028.7668 -7408.0154 298.2692 -540.7671 -471.8655 30067.2597 8.9620 65.1680
ENERGY: 1200000 1.3571 14.4080 2.9607 0.0000 -10538.9317 1387.8701 0.0000 0.0000 1717.0454 -7415.2905 294.5480 -9132.3359 -7392.9506 298.8121 -460.2513 -383.6306 30849.1335 -10.4401 54.9575
ENERGY: 1500000 1.8051 10.0973 5.5983 0.0000 -10724.6690 1424.5262 0.0000 0.0000 1708.6943 -7573.9477 293.1154 -9282.6420 -7395.4677 298.8644 -283.2197 -277.5780 29764.7603 -1.2806 54.0574
TCL: Running FEP window   2: Lambda1 0.95   Lambda2 0.8999999999999999 [dLambda -0.050000000000000044]
TCL: Setting parameter firsttimestep to 0
TCL: Setting parameter alchLambda to 0.95
Info: NONBONDED TABLE R-SQUARED SPACING: 0.0625
Info: NONBONDED TABLE SIZE: 705 POINTS
TCL: Setting parameter alchLambda2 to 0.8999999999999999
Info: NONBONDED TABLE R-SQUARED SPACING: 0.0625
Info: NONBONDED TABLE SIZE: 705 POINTS
TCL: Running for 1500000 steps
ETITLE: TS BOND ANGLE DIHED IMPRP ELECT VDW BOUNDARY MISC KINETIC TOTAL TEMP POTENTIAL TOTALAVG TEMPAVG PRESSURE GPRESSURE VOLUME PRESSAVG GPRESSAVG
ENERGY: 0 1.8051 10.0973 5.5983 0.0000 -10724.6656 1424.8090 0.0000 0.0000 1707.7995 -7574.5563 292.9619 -9282.3558 -7574.5563 292.9619 -373.0306 -289.1201 29764.7603 -373.0306 -289.1201
ENERGY: 300000 2.2148 7.7748 3.2156 0.0000 -10577.6166 1370.4547 0.0000 0.0000 1746.2322 -7447.7244 299.5548 -9193.9566 -7450.1948 299.2751 -581.9455 -560.8749 30392.8645 -371.1610 -334.9444
ENERGY: 600000 2.0938 6.2356 5.7525 0.0000 -10575.7154 1383.5915 0.0000 0.0000 1774.3602 -7403.6818 304.3800 -9178.0420 -7433.3825 300.3110 -614.2893 -552.4812 30502.4824 -309.0993 -259.3148
ENERGY: 900000 3.7014 11.8154 3.2672 0.0000 -10529.2814 1410.4372 0.0000 0.0000 1752.0094 -7348.0508 300.5458 -9100.0602 -7429.3864 300.6439 -196.4774 -155.1886 30499.3817 -345.1347 -295.6558
ENERGY: 1200000 1.6680 13.0432 3.5440 0.0000 -10536.6657 1412.6450 0.0000 0.0000 1775.1142 -7330.6512 304.5093 -9105.7654 -7419.0024 300.9736 -41.0628 10.3075 30474.3508 -248.1206 -199.2771
ENERGY: 1500000 4.0165 7.9378 4.8356 0.0000 -10592.8636 1414.3272 0.0000 0.0000 1812.7297 -7349.0170 310.9620 -9161.7466 -7401.9753 302.1531 -467.1583 -386.2019 30864.0312 -156.5193 -106.4928
TCL: Running FEP window   3: Lambda1 0.8999999999999999 Lambda2 0.8499999999999999 [dLambda -0.050000000000000044]
TCL: Setting parameter firsttimestep to 0
TCL: Setting parameter alchLambda to 0.8999999999999999
Info: NONBONDED TABLE R-SQUARED SPACING: 0.0625
Info: NONBONDED TABLE SIZE: 705 POINTS
TCL: Setting parameter alchLambda2 to 0.8499999999999999
Info: NONBONDED TABLE R-SQUARED SPACING: 0.0625
Info: NONBONDED TABLE SIZE: 705 POINTS
TCL: Running for 1500000 steps
ETITLE: TS BOND ANGLE DIHED IMPRP ELECT VDW BOUNDARY MISC KINETIC TOTAL TEMP POTENTIAL TOTALAVG TEMPAVG PRESSURE GPRESSURE VOLUME PRESSAVG GPRESSAVG
ENERGY: 0 4.0165 7.9378 4.8356 0.0000 -10592.8807 1413.8498 0.0000 0.0000 1811.8234 -7350.4177 310.8066 -9162.2411 -7350.4177 310.8066 -500.4525 -406.0238 30864.0312 -500.4525 -406.0238
ENERGY: 300000 0.3471 10.3784 2.9658 0.0000 -10633.8227 1438.7640 0.0000 0.0000 1750.8693 -7430.4982 300.3503 -9181.3675 -7366.8752 302.7707 233.0785 313.5257 29795.4188 27.1402 106.8277
ENERGY: 600000 3.2691 15.2304 3.8065 0.0000 -10611.2263 1407.3987 0.0000 0.0000 1722.5130 -7459.0087 295.4859 -9181.5216 -7403.4759 299.0978 -303.0455 -194.4283 30123.2315 -87.4815 -14.9864
ENERGY: 900000 1.0166 11.0353 3.8487 0.0000 -10581.8801 1417.7774 0.0000 0.0000 1773.1958 -7375.0064 304.1802 -9148.2022 -7403.9176 299.7657 23.7836 75.1556 30053.8985 -24.6495 44.9067
ENERGY: 1200000 1.0900 12.2210 5.3579 0.0000 -10519.6116 1415.1169 0.0000 0.0000 1731.3007 -7354.5250 296.9934 -9085.8257 -7403.3807 300.2149 218.1004 277.5966 30001.0226 -52.4071 15.7872
ENERGY: 1500000 1.4686 15.1457 4.1862 0.0000 -10439.3277 1328.4656 0.0000 0.0000 1799.9703 -7290.0913 308.7732 -9090.0616 -7396.8674 300.4690 -848.7682 -762.6482 30708.5087 -61.0907 8.6273
TCL: Running FEP window   4: Lambda1 0.8499999999999999 Lambda2 0.7999999999999998 [dLambda -0.050000000000000044]
TCL: Setting parameter firsttimestep to 0
TCL: Setting parameter alchLambda to 0.8499999999999999
Info: NONBONDED TABLE R-SQUARED SPACING: 0.0625
Info: NONBONDED TABLE SIZE: 705 POINTS
TCL: Setting parameter alchLambda2 to 0.7999999999999998
Info: NONBONDED TABLE R-SQUARED SPACING: 0.0625
Info: NONBONDED TABLE SIZE: 705 POINTS
TCL: Running for 1500000 steps
ETITLE: TS BOND ANGLE DIHED IMPRP ELECT VDW BOUNDARY MISC KINETIC TOTAL TEMP POTENTIAL TOTALAVG TEMPAVG PRESSURE GPRESSURE VOLUME PRESSAVG GPRESSAVG
ENERGY: 0 1.4686 15.1457 4.1862 0.0000 -10439.3270 1328.9882 0.0000 0.0000 1799.1018 -7290.4365 308.6242 -9089.5383 -7290.4365 308.6242 -844.2794 -766.8111 30708.5087 -844.2794 -766.8111
ENERGY: 300000 3.9349 9.9192 7.1506 0.0000 -10699.1743 1511.7553 0.0000 0.0000 1744.9097 -7421.5045 299.3279 -9166.4143 -7388.7550 301.2357 777.9612 770.8073 29934.8964 -15.5446 24.7099
ENERGY: 600000 1.7445 9.9298 4.3011 0.0000 -10537.5742 1377.7097 0.0000 0.0000 1747.1666 -7396.7224 299.7151 -9143.8890 -7397.9493 300.1026 -149.9925 -97.0085 29915.5617 -248.2263 -189.7579
ENERGY: 900000 1.2307 10.5444 3.5271 0.0000 -10661.4945 1513.4919 0.0000 0.0000 1768.8033 -7363.8972 303.4267 -9132.7004 -7393.2284 300.2557 591.1264 662.7142 30287.0434 -159.0978 -97.7304
ENERGY: 1200000 2.9353 14.2677 6.9990 0.0000 -10651.3742 1472.5952 0.0000 0.0000 1770.2525 -7384.3246 303.6753 -9154.5771 -7391.8323 300.8180 216.9406 263.5059 30127.9565 -61.3336 -0.3544
ENERGY: 1500000 1.6508 11.6084 2.7585 0.0000 -10476.3228 1381.1838 0.0000 0.0000 1763.8574 -7315.2638 302.5783 -9079.1212 -7385.0565 300.8658 -340.7027 -273.6214 30166.1797 -55.1393 0.5356
TCL: Running FEP window   5: Lambda1 0.7999999999999998 Lambda2 0.7499999999999998 [dLambda -0.050000000000000044]
TCL: Setting parameter firsttimestep to 0
TCL: Setting parameter alchLambda to 0.7999999999999998
Info: NONBONDED TABLE R-SQUARED SPACING: 0.0625
Info: NONBONDED TABLE SIZE: 705 POINTS
TCL: Setting parameter alchLambda2 to 0.7499999999999998
Info: NONBONDED TABLE R-SQUARED SPACING: 0.0625
Info: NONBONDED TABLE SIZE: 705 POINTS
TCL: Running for 1500000 steps
ETITLE: TS BOND ANGLE DIHED IMPRP ELECT VDW BOUNDARY MISC KINETIC TOTAL TEMP POTENTIAL TOTALAVG TEMPAVG PRESSURE GPRESSURE VOLUME PRESSAVG GPRESSAVG
ENERGY: 0 1.6508 11.6084 2.7585 0.0000 -10476.3492 1381.2265 0.0000 0.0000 1762.9969 -7316.1080 302.4307 -9079.1049 -7316.1080 302.4307 -388.4911 -285.9660 30166.1797 -388.4911 -285.9660
ENERGY: 300000 2.2621 11.4380 4.3169 0.0000 -10529.0677 1413.8441 0.0000 0.0000 1729.8388 -7367.3678 296.7426 -9097.2066 -7368.1516 298.5269 -109.9488 -97.9127 30348.7059 -353.7441 -323.2190
ENERGY: 600000 0.7325 7.2115 3.8824 0.0000 -10548.6368 1355.3507 0.0000 0.0000 1785.4249 -7396.0347 306.2781 -9181.4597 -7390.0803 298.0022 -479.8761 -345.8444 29947.2823 -359.2612 -283.6007
ENERGY: 900000 2.0411 13.2576 7.3234 0.0000 -10534.7550 1439.2174 0.0000 0.0000 1768.9070 -7304.0084 303.4445 -9072.9155 -7380.0559 298.7268 306.2522 411.4788 30201.8769 -113.3845 -45.6162
ENERGY: 1200000 1.9673 13.3267 3.5727 0.0000 -10576.3345 1451.1031 0.0000 0.0000 1777.4624 -7328.9023 304.9121 -9106.3647 -7371.9347 299.9261 543.6209 588.7862 29762.7590 -118.6197 -52.4169
ENERGY: 1500000 0.6666 7.4535 6.4580 0.0000 -10538.2320 1348.0837 0.0000 0.0000 1701.0499 -7474.5204 291.8041 -9175.5703 -7373.3647 300.0154 -590.6692 -558.2470 30173.7746 -122.7352 -61.1580
TCL: Running FEP window   6: Lambda1 0.7499999999999998 Lambda2 0.6999999999999997 [dLambda -0.050000000000000044]
TCL: Setting parameter firsttimestep to 0
TCL: Setting parameter alchLambda to 0.7499999999999998
Info: NONBONDED TABLE R-SQUARED SPACING: 0.0625
Info: NONBONDED TABLE SIZE: 705 POINTS
TCL: Setting parameter alchLambda2 to 0.6999999999999997
Info: NONBONDED TABLE R-SQUARED SPACING: 0.0625
Info: NONBONDED TABLE SIZE: 705 POINTS
TCL: Running for 1500000 steps
ETITLE: TS BOND ANGLE DIHED IMPRP ELECT VDW BOUNDARY MISC KINETIC TOTAL TEMP POTENTIAL TOTALAVG TEMPAVG PRESSURE GPRESSURE VOLUME PRESSAVG GPRESSAVG
ENERGY: 0 0.6666 7.4535 6.4580 0.0000 -10538.2510 1348.1711 0.0000 0.0000 1700.1678 -7475.3342 291.6527 -9175.5019 -7475.3342 291.6527 -656.5717 -568.0990 30173.7746 -656.5717 -568.0990
ENERGY: 300000 2.2170 9.2778 3.3554 0.0000 -10556.9191 1431.2663 0.0000 0.0000 1770.1173 -7340.6852 303.6521 -9110.8025 -7384.2565 297.0830 11.6605 48.4564 30307.0289 -35.4065 17.6235
ENERGY: 600000 1.3518 10.9615 3.4720 0.0000 -10498.8276 1342.3404 0.0000 0.0000 1759.9625 -7380.7396 301.9101 -9140.7020 -7394.0288 296.9227 -912.5906 -838.4538 30550.7302 -36.7645 19.2144
ENERGY: 900000 5.0983 15.8783 4.6744 0.0000 -10559.9685 1378.5937 0.0000 0.0000 1744.0179 -7411.7060 299.1750 -9155.7239 -7385.7633 298.4389 -641.6408 -576.1396 30244.8688 -141.9868 -87.2904
ENERGY: 1200000 2.7070 13.6999 3.6578 0.0000 -10659.2732 1478.2670 0.0000 0.0000 1752.0539 -7408.8877 300.5535 -9160.9416 -7380.9458 299.0995 368.5881 530.3713 29966.3567 -54.8603 7.9876
ENERGY: 1500000 2.8732 11.3490 5.4335 0.0000 -10516.6094 1371.8819 0.0000 0.0000 1720.9357 -7404.1361 295.2153 -9125.0717 -7365.6613 299.3403 -552.3422 -445.9085 30231.5813 -42.7341 23.4522
TCL: Running FEP window   7: Lambda1 0.6999999999999997 Lambda2 0.6499999999999997 [dLambda -0.050000000000000044]
TCL: Setting parameter firsttimestep to 0
TCL: Setting parameter alchLambda to 0.6999999999999997
Info: NONBONDED TABLE R-SQUARED SPACING: 0.0625
Info: NONBONDED TABLE SIZE: 705 POINTS
TCL: Setting parameter alchLambda2 to 0.6499999999999997
Info: NONBONDED TABLE R-SQUARED SPACING: 0.0625
Info: NONBONDED TABLE SIZE: 705 POINTS
TCL: Running for 1500000 steps
ETITLE: TS BOND ANGLE DIHED IMPRP ELECT VDW BOUNDARY MISC KINETIC TOTAL TEMP POTENTIAL TOTALAVG TEMPAVG PRESSURE GPRESSURE VOLUME PRESSAVG GPRESSAVG
ENERGY: 0 2.8732 11.3490 5.4336 0.0000 -10516.5974 1372.4735 0.0000 0.0000 1720.0599 -7404.4083 295.0651 -9124.4682 -7404.4083 295.0651 -530.3281 -448.5016 30231.5813 -530.3281 -448.5016
ENERGY: 300000 1.5279 9.6858 3.3300 0.0000 -10473.5118 1325.2883 0.0000 0.0000 1781.9047 -7351.7751 305.6742 -9133.6798 -7368.1079 304.9408 -414.3930 -397.3029 29750.8450 -211.4219 -156.6939
ENERGY: 600000 2.7219 9.6336 4.2700 0.0000 -10656.5610 1438.9029 0.0000 0.0000 1736.6731 -7464.3595 297.9150 -9201.0326 -7386.1133 302.1556 92.3883 167.6958 29790.5618 -120.9636 -63.0841
ENERGY: 900000 1.8283 13.0281 6.2034 0.0000 -10472.9481 1324.8659 0.0000 0.0000 1737.7152 -7389.3072 298.0938 -9127.0224 -7378.3286 301.3993 -716.2637 -634.4170 29831.5029 -147.8213 -84.5594
ENERGY: 1200000 0.2734 11.8621 3.9829 0.0000 -10657.3821 1456.9745 0.0000 0.0000 1808.2524 -7376.0368 310.1940 -9184.2892 -7372.2531 302.1428 165.9337 278.7758 29854.7818 -46.7261 9.4844
ENERGY: 1500000 1.6301 10.6994 3.2019 0.0000 -10528.1703 1421.7115 0.0000 0.0000 1725.7309 -7365.1965 296.0379 -9090.9273 -7372.6794 302.2844 81.8300 140.5568 30194.3014 -136.6396 -85.4133
TCL: Running FEP window   8: Lambda1 0.6499999999999997 Lambda2 0.5999999999999996 [dLambda -0.050000000000000044]
TCL: Setting parameter firsttimestep to 0
TCL: Setting parameter alchLambda to 0.6499999999999997
Info: NONBONDED TABLE R-SQUARED SPACING: 0.0625
Info: NONBONDED TABLE SIZE: 705 POINTS
TCL: Setting parameter alchLambda2 to 0.5999999999999996
Info: NONBONDED TABLE R-SQUARED SPACING: 0.0625
Info: NONBONDED TABLE SIZE: 705 POINTS
TCL: Running for 1500000 steps
ETITLE: TS BOND ANGLE DIHED IMPRP ELECT VDW BOUNDARY MISC KINETIC TOTAL TEMP POTENTIAL TOTALAVG TEMPAVG PRESSURE GPRESSURE VOLUME PRESSAVG GPRESSAVG
ENERGY: 0 1.6301 10.6994 3.2019 0.0000 -10528.1606 1421.7126 0.0000 0.0000 1724.8726 -7366.0440 295.8907 -9090.9166 -7366.0440 295.8907 52.8573 132.6905 30194.3014 52.8573 132.6905
ENERGY: 300000 0.6554 7.2444 3.2680 0.0000 -10536.0803 1436.3956 0.0000 0.0000 1781.4808 -7307.0360 305.6015 -9088.5168 -7377.5281 298.7659 275.9296 349.0949 30216.3295 103.5775 194.7082
ENERGY: 600000 2.2330 10.2491 3.3908 0.0000 -10519.9153 1363.4596 0.0000 0.0000 1734.1587 -7406.4242 297.4837 -9140.5829 -7387.9642 300.6329 -575.5397 -499.1175 30011.0038 -88.0452 -10.9706
ENERGY: 900000 2.6543 10.0467 4.0348 0.0000 -10496.7523 1340.8513 0.0000 0.0000 1726.8505 -7412.3148 296.2300 -9139.1654 -7382.8771 299.9122 -508.2275 -424.2268 29872.3793 -39.6009 32.7946
ENERGY: 1200000 0.9899 9.8838 3.9195 0.0000 -10697.3735 1499.6846 0.0000 0.0000 1772.0551 -7410.8406 303.9845 -9182.8957 -7381.1784 299.7072 628.2501 716.6669 29719.9597 43.5263 109.9493
ENERGY: 1500000 1.4519 9.5131 5.5894 0.0000 -10700.4095 1508.2563 0.0000 0.0000 1761.0517 -7414.5470 302.0970 -9175.5988 -7379.2799 299.6683 554.6163 660.8616 29783.5353 53.0893 119.8725
TCL: Running FEP window   9: Lambda1 0.5999999999999996 Lambda2 0.5499999999999996 [dLambda -0.050000000000000044]
TCL: Setting parameter firsttimestep to 0
TCL: Setting parameter alchLambda to 0.5999999999999996
Info: NONBONDED TABLE R-SQUARED SPACING: 0.0625
Info: NONBONDED TABLE SIZE: 705 POINTS
TCL: Setting parameter alchLambda2 to 0.5499999999999996
Info: NONBONDED TABLE R-SQUARED SPACING: 0.0625
Info: NONBONDED TABLE SIZE: 705 POINTS
TCL: Running for 1500000 steps
ETITLE: TS BOND ANGLE DIHED IMPRP ELECT VDW BOUNDARY MISC KINETIC TOTAL TEMP POTENTIAL TOTALAVG TEMPAVG PRESSURE GPRESSURE VOLUME PRESSAVG GPRESSAVG
ENERGY: 0 1.4519 9.5131 5.5894 0.0000 -10700.4448 1508.2559 0.0000 0.0000 1760.1556 -7415.4788 301.9433 -9175.6344 -7415.4788 301.9433 565.6683 651.9915 29783.5353 565.6683 651.9915
ENERGY: 300000 1.5076 9.7236 4.7046 0.0000 -10679.8881 1530.3045 0.0000 0.0000 1742.3708 -7391.2769 298.8924 -9133.6477 -7407.4095 297.2057 1123.4549 1095.5783 29748.4359 413.7117 472.0208
ENERGY: 600000 2.2343 12.9011 3.8838 0.0000 -10702.8744 1535.4975 0.0000 0.0000 1740.7098 -7407.6479 298.6075 -9148.3577 -7399.4762 299.2474 1058.6959 1057.4477 29449.2378 236.8218 290.9363
ENERGY: 900000 2.4141 15.9890 5.2680 0.0000 -10617.1459 1457.2397 0.0000 0.0000 1700.7976 -7435.4375 291.7608 -9136.2352 -7404.8910 298.7791 187.9373 255.1843 30205.8478 147.8941 209.6520
ENERGY: 1200000 1.2881 9.8799 2.8730 0.0000 -10612.9027 1406.0475 0.0000 0.0000 1733.6414 -7459.1729 297.3949 -9192.8144 -7396.3031 298.5871 -341.5737 -326.5476 30204.4960 60.5047 117.1242
ENERGY: 1500000 2.2836 8.3723 6.5442 0.0000 -10508.7075 1344.7542 0.0000 0.0000 1716.1233 -7430.6299 294.3898 -9146.7532 -7401.5098 298.4411 -604.7965 -520.1224 29837.7591 -11.3430 54.3959
TCL: Running FEP window  10: Lambda1 0.5499999999999996 Lambda2 0.4999999999999996 [dLambda -0.04999999999999999]
TCL: Setting parameter firsttimestep to 0
TCL: Setting parameter alchLambda to 0.5499999999999996
Info: NONBONDED TABLE R-SQUARED SPACING: 0.0625
Info: NONBONDED TABLE SIZE: 705 POINTS
TCL: Setting parameter alchLambda2 to 0.4999999999999996
Info: NONBONDED TABLE R-SQUARED SPACING: 0.0625
Info: NONBONDED TABLE SIZE: 705 POINTS
TCL: Running for 1500000 steps
ETITLE: TS BOND ANGLE DIHED IMPRP ELECT VDW BOUNDARY MISC KINETIC TOTAL TEMP POTENTIAL TOTALAVG TEMPAVG PRESSURE GPRESSURE VOLUME PRESSAVG GPRESSAVG
ENERGY: 0 2.2836 8.3723 6.5442 0.0000 -10508.7287 1345.2202 0.0000 0.0000 1715.2861 -7431.0224 294.2462 -9146.3084 -7431.0224 294.2462 -600.4343 -526.5789 29837.7591 -600.4343 -526.5789
ENERGY: 300000 1.5494 15.3971 3.0428 0.0000 -10542.8446 1379.1424 0.0000 0.0000 1799.2444 -7344.4686 308.6487 -9143.7130 -7375.6968 303.9040 -151.6314 -68.4631 29807.8332 -182.2641 -100.7887
ENERGY: 600000 1.8740 9.6011 3.7206 0.0000 -10513.6965 1387.0080 0.0000 0.0000 1757.7833 -7353.7095 301.5363 -9111.4928 -7357.3876 303.4523 -220.5255 -93.1099 29971.8287 -236.9695 -143.3347
ENERGY: 900000 2.4198 16.6272 4.8420 0.0000 -10726.1370 1505.7204 0.0000 0.0000 1732.5548 -7463.9727 297.2085 -9196.5276 -7372.6489 301.7499 508.0704 581.3013 29801.5687 -43.7626 43.5563
ENERGY: 1200000 2.5501 7.4295 3.9180 0.0000 -10563.0010 1399.0715 0.0000 0.0000 1776.6389 -7373.3930 304.7709 -9150.0319 -7380.9742 301.3020 -315.1484 -261.1925 30301.0550 -38.3282 47.2699
ENERGY: 1500000 3.6757 18.9991 3.9804 0.0000 -10734.5905 1502.2962 0.0000 0.0000 1747.7110 -7457.9282 299.8085 -9205.6392 -7394.8721 301.4992 263.7659 295.8145 30133.8737 -121.5971 -36.4798
TCL: Running FEP window  11: Lambda1 0.4999999999999996 Lambda2 0.4499999999999996 [dLambda -0.04999999999999999]
TCL: Setting parameter firsttimestep to 0
TCL: Setting parameter alchLambda to 0.4999999999999996
Info: NONBONDED TABLE R-SQUARED SPACING: 0.0625
Info: NONBONDED TABLE SIZE: 705 POINTS
TCL: Setting parameter alchLambda2 to 0.4499999999999996
Info: NONBONDED TABLE R-SQUARED SPACING: 0.0625
Info: NONBONDED TABLE SIZE: 705 POINTS
TCL: Running for 1500000 steps
ETITLE: TS BOND ANGLE DIHED IMPRP ELECT VDW BOUNDARY MISC KINETIC TOTAL TEMP POTENTIAL TOTALAVG TEMPAVG PRESSURE GPRESSURE VOLUME PRESSAVG GPRESSAVG
ENERGY: 0 3.6757 18.9991 3.9804 0.0000 -10734.5916 1502.3991 0.0000 0.0000 1746.8394 -7458.6979 299.6590 -9205.5373 -7458.6979 299.6590 214.5397 287.5920 30133.8737 214.5397 287.5920
ENERGY: 300000 1.7875 15.9321 3.2617 0.0000 -10470.8931 1325.8657 0.0000 0.0000 1772.4328 -7351.6133 304.0493 -9124.0460 -7362.6507 302.6890 -890.6115 -799.7791 30139.8488 -24.1147 64.4915
ENERGY: 600000 1.9419 8.9072 3.3856 0.0000 -10587.1219 1439.9016 0.0000 0.0000 1726.0554 -7406.9302 296.0936 -9132.9856 -7382.7194 301.4456 306.1142 424.3971 29859.8737 -57.6496 49.4622
ENERGY: 900000 2.2563 9.8698 3.5479 0.0000 -10527.8447 1361.6592 0.0000 0.0000 1753.2046 -7397.3069 300.7509 -9150.5115 -7378.4121 301.6858 -750.0884 -656.1083 30282.9909 -109.3505 -11.8411
ENERGY: 1200000 2.4372 7.7483 6.4420 0.0000 -10646.8949 1451.0207 0.0000 0.0000 1745.9147 -7433.3320 299.5003 -9179.2467 -7393.8220 300.1539 -77.6677 31.0298 29844.2553 -158.1094 -67.1936
ENERGY: 1500000 1.9109 11.8511 6.2823 0.0000 -10506.3550 1416.0067 0.0000 0.0000 1792.4897 -7277.8143 307.4900 -9070.3040 -7379.7000 301.4700 402.9138 412.9355 29834.7553 -126.5674 -44.5970
TCL: Running FEP window  12: Lambda1 0.4499999999999996 Lambda2 0.39999999999999963 [dLambda -0.04999999999999999]
TCL: Setting parameter firsttimestep to 0
TCL: Setting parameter alchLambda to 0.4499999999999996
Info: NONBONDED TABLE R-SQUARED SPACING: 0.0625
Info: NONBONDED TABLE SIZE: 705 POINTS
TCL: Setting parameter alchLambda2 to 0.39999999999999963
Info: NONBONDED TABLE R-SQUARED SPACING: 0.0625
Info: NONBONDED TABLE SIZE: 705 POINTS
TCL: Running for 1500000 steps
ETITLE: TS BOND ANGLE DIHED IMPRP ELECT VDW BOUNDARY MISC KINETIC TOTAL TEMP POTENTIAL TOTALAVG TEMPAVG PRESSURE GPRESSURE VOLUME PRESSAVG GPRESSAVG
ENERGY: 0 1.9109 11.8511 6.2823 0.0000 -10506.3526 1416.5460 0.0000 0.0000 1791.6052 -7278.1572 307.3382 -9069.7624 -7278.1572 307.3382 353.0136 413.9597 29834.7553 353.0136 413.9597
ENERGY: 300000 2.1161 8.9331 3.2758 0.0000 -10499.8885 1362.7010 0.0000 0.0000 1782.9488 -7339.9136 305.8533 -9122.8625 -7332.7107 306.1357 -503.9181 -432.1365 30221.7935 138.5978 202.4522
ENERGY: 600000 3.4264 9.2748 3.4447 0.0000 -10586.2793 1407.4858 0.0000 0.0000 1764.6840 -7397.9636 302.7201 -9162.6476 -7362.9514 303.6436 -22.3477 -15.5397 29804.0084 -18.7064 30.5702
ENERGY: 900000 3.9625 8.7263 3.3584 0.0000 -10545.0281 1453.0043 0.0000 0.0000 1748.6091 -7327.3675 299.9625 -9075.9766 -7360.1985 302.8826 372.4542 472.6508 30067.6836 18.6693 67.9561
ENERGY: 1200000 2.0959 18.6329 4.3801 0.0000 -10651.9241 1437.5668 0.0000 0.0000 1766.1850 -7423.0635 302.9776 -9189.2485 -7370.8357 302.1200 67.4888 144.4796 29672.8087 -31.7112 20.9235
ENERGY: 1500000 1.6047 10.8101 3.5000 0.0000 -10606.3693 1413.5947 0.0000 0.0000 1820.4496 -7356.4102 312.2863 -9176.8598 -7376.2231 303.5952 -243.2563 -160.7038 29943.7418 12.6578 66.4327
TCL: Running FEP window  13: Lambda1 0.39999999999999963 Lambda2 0.34999999999999964 [dLambda -0.04999999999999999]
TCL: Setting parameter firsttimestep to 0
TCL: Setting parameter alchLambda to 0.39999999999999963
Info: NONBONDED TABLE R-SQUARED SPACING: 0.0625
Info: NONBONDED TABLE SIZE: 705 POINTS
TCL: Setting parameter alchLambda2 to 0.34999999999999964
Info: NONBONDED TABLE R-SQUARED SPACING: 0.0625
Info: NONBONDED TABLE SIZE: 705 POINTS
TCL: Running for 1500000 steps
ETITLE: TS BOND ANGLE DIHED IMPRP ELECT VDW BOUNDARY MISC KINETIC TOTAL TEMP POTENTIAL TOTALAVG TEMPAVG PRESSURE GPRESSURE VOLUME PRESSAVG GPRESSAVG
ENERGY: 0 1.6047 10.8101 3.5000 0.0000 -10606.3704 1413.9794 0.0000 0.0000 1819.5944 -7356.8818 312.1396 -9176.4763 -7356.8818 312.1396 -250.8144 -166.3350 29943.7418 -250.8144 -166.3350
ENERGY: 300000 1.8955 14.1525 3.6575 0.0000 -10621.4924 1441.8477 0.0000 0.0000 1728.9001 -7431.0392 296.5816 -9159.9392 -7389.3924 301.0097 39.2416 91.0731 30094.1230 -33.7684 38.0555
ENERGY: 600000 2.7342 14.1017 2.9565 0.0000 -10458.1762 1377.6890 0.0000 0.0000 1702.0743 -7358.6204 291.9798 -9060.6947 -7368.6687 301.8619 -425.0742 -357.7736 30733.1921 -272.5621 -194.5028
ENERGY: 900000 0.6623 11.1795 4.7124 0.0000 -10582.0399 1450.8659 0.0000 0.0000 1733.9893 -7380.6304 297.4546 -9114.6197 -7369.7786 301.3841 226.2247 275.0882 30224.5936 -223.5719 -145.6887
ENERGY: 1200000 2.3919 9.1617 3.7888 0.0000 -10556.4194 1431.1127 0.0000 0.0000 1776.9248 -7333.0395 304.8199 -9109.9643 -7370.4204 302.2613 223.8946 274.4876 30004.6657 -261.8019 -189.4407
ENERGY: 1500000 1.5979 8.4720 6.8858 0.0000 -10525.9506 1399.3993 0.0000 0.0000 1735.5207 -7374.0750 297.7173 -9109.5957 -7372.6549 301.9168 -42.9479 71.0969 29728.1675 -236.5788 -173.3838
TCL: Running FEP window  14: Lambda1 0.34999999999999964 Lambda2 0.29999999999999966 [dLambda -0.04999999999999999]
TCL: Setting parameter firsttimestep to 0
TCL: Setting parameter alchLambda to 0.34999999999999964
Info: NONBONDED TABLE R-SQUARED SPACING: 0.0625
Info: NONBONDED TABLE SIZE: 705 POINTS
TCL: Setting parameter alchLambda2 to 0.29999999999999966
Info: NONBONDED TABLE R-SQUARED SPACING: 0.0625
Info: NONBONDED TABLE SIZE: 705 POINTS
TCL: Running for 1500000 steps
ETITLE: TS BOND ANGLE DIHED IMPRP ELECT VDW BOUNDARY MISC KINETIC TOTAL TEMP POTENTIAL TOTALAVG TEMPAVG PRESSURE GPRESSURE VOLUME PRESSAVG GPRESSAVG
ENERGY: 0 1.5978 8.4720 6.8858 0.0000 -10525.9488 1399.6905 0.0000 0.0000 1734.6220 -7374.6807 297.5631 -9109.3026 -7374.6807 297.5631 2.7398 66.8839 29728.1675 2.7398 66.8839
ENERGY: 300000 2.3417 13.2509 3.3245 0.0000 -10481.8844 1315.6192 0.0000 0.0000 1755.6728 -7391.6754 301.1743 -9147.3481 -7389.3274 304.4878 -1007.4104 -947.0497 30229.2464 -245.6695 -191.0753
ENERGY: 600000 1.8194 8.6423 4.8261 0.0000 -10548.9572 1374.6528 0.0000 0.0000 1712.2548 -7446.7617 293.7262 -9159.0166 -7398.3539 303.0384 -647.3579 -551.0574 30155.1073 -207.5952 -146.8331
ENERGY: 900000 1.3804 15.1597 3.3260 0.0000 -10625.7103 1447.3542 0.0000 0.0000 1754.6347 -7403.8552 300.9962 -9158.4899 -7396.3793 302.1887 569.4628 568.6280 29419.1210 -80.3368 -20.6840
ENERGY: 1200000 3.1013 8.4568 4.8722 0.0000 -10514.3084 1394.0082 0.0000 0.0000 1781.7145 -7322.1554 305.6416 -9103.8699 -7392.4816 301.7009 -145.2792 -78.2982 30051.0378 -215.1140 -153.7193
ENERGY: 1500000 2.0415 14.0390 3.3166 0.0000 -10492.2828 1409.8638 0.0000 0.0000 1748.7938 -7314.2281 299.9942 -9063.0219 -7386.1462 301.9851 93.5949 201.4395 29967.0505 -164.6876 -97.7950
TCL: Running FEP window  15: Lambda1 0.29999999999999966 Lambda2 0.24999999999999967 [dLambda -0.04999999999999999]
TCL: Setting parameter firsttimestep to 0
TCL: Setting parameter alchLambda to 0.29999999999999966
Info: NONBONDED TABLE R-SQUARED SPACING: 0.0625
Info: NONBONDED TABLE SIZE: 705 POINTS
TCL: Setting parameter alchLambda2 to 0.24999999999999967
Info: NONBONDED TABLE R-SQUARED SPACING: 0.0625
Info: NONBONDED TABLE SIZE: 705 POINTS
TCL: Running for 1500000 steps
ETITLE: TS BOND ANGLE DIHED IMPRP ELECT VDW BOUNDARY MISC KINETIC TOTAL TEMP POTENTIAL TOTALAVG TEMPAVG PRESSURE GPRESSURE VOLUME PRESSAVG GPRESSAVG
ENERGY: 0 2.0415 14.0390 3.3166 0.0000 -10492.2828 1409.8459 0.0000 0.0000 1747.9347 -7315.1051 299.8469 -9063.0398 -7315.1051 299.8469 118.6731 196.2441 29967.0505 118.6731 196.2441
ENERGY: 300000 3.9751 12.7473 4.1836 0.0000 -10539.1493 1366.5114 0.0000 0.0000 1769.2668 -7382.4650 303.5062 -9151.7319 -7377.1829 302.9759 -259.6904 -257.9132 30081.1330 129.4671 192.6451
ENERGY: 600000 1.3928 9.6041 2.8594 0.0000 -10609.8219 1464.2749 0.0000 0.0000 1791.9358 -7339.7548 307.3950 -9131.6906 -7387.5156 303.4729 531.1978 525.0240 30100.2708 122.1301 166.5538
ENERGY: 900000 5.8539 7.2922 4.2024 0.0000 -10739.7846 1531.3862 0.0000 0.0000 1774.4568 -7416.5931 304.3966 -9191.0499 -7387.0004 303.1253 628.1154 686.7396 29876.9655 138.9167 191.2770
ENERGY: 1200000 2.6391 7.8114 7.6220 0.0000 -10566.6414 1461.0963 0.0000 0.0000 1760.8833 -7326.5893 302.0681 -9087.4727 -7377.1603 303.2059 5.3304 82.8942 30674.7524 106.3853 165.0418
ENERGY: 1500000 1.0866 10.9721 6.4575 0.0000 -10592.2199 1428.1959 0.0000 0.0000 1709.1445 -7436.3633 293.1926 -9145.5078 -7378.8778 302.3815 72.7700 94.2148 29947.4636 88.7819 139.6220
TCL: Running FEP window  16: Lambda1 0.24999999999999967 Lambda2 0.19999999999999968 [dLambda -0.04999999999999999]
TCL: Setting parameter firsttimestep to 0
TCL: Setting parameter alchLambda to 0.24999999999999967
Info: NONBONDED TABLE R-SQUARED SPACING: 0.0625
Info: NONBONDED TABLE SIZE: 705 POINTS
TCL: Setting parameter alchLambda2 to 0.19999999999999968
Info: NONBONDED TABLE R-SQUARED SPACING: 0.0625
Info: NONBONDED TABLE SIZE: 705 POINTS
TCL: Running for 1500000 steps
ETITLE: TS BOND ANGLE DIHED IMPRP ELECT VDW BOUNDARY MISC KINETIC TOTAL TEMP POTENTIAL TOTALAVG TEMPAVG PRESSURE GPRESSURE VOLUME PRESSAVG GPRESSAVG
ENERGY: 0 1.0866 10.9721 6.4575 0.0000 -10592.2211 1427.2512 0.0000 0.0000 1708.2611 -7438.1925 293.0411 -9146.4536 -7438.1925 293.0411 12.6177 82.9934 29947.4636 12.6177 82.9934
ENERGY: 300000 4.4198 11.4870 4.2007 0.0000 -10605.7512 1428.1533 0.0000 0.0000 1735.3575 -7422.1329 297.6893 -9157.4904 -7419.3203 295.9982 -102.4859 -91.3908 30077.0668 -103.5872 -37.8016
ENERGY: 600000 2.5350 11.6246 5.1021 0.0000 -10542.0347 1436.8738 0.0000 0.0000 1744.4001 -7341.4992 299.2405 -9085.8992 -7415.8567 294.7490 23.9297 85.0350 30190.5851 -179.4169 -109.3719
ENERGY: 900000 5.1918 11.5345 4.2692 0.0000 -10484.5178 1397.3986 0.0000 0.0000 1758.6627 -7307.4611 301.6872 -9066.1238 -7394.5484 297.1410 -187.1054 -100.9518 30248.4721 -193.3209 -123.1367
ENERGY: 1200000 2.4342 10.2353 3.7874 0.0000 -10619.7688 1459.2241 0.0000 0.0000 1784.3199 -7359.7679 306.0885 -9144.0877 -7396.7203 297.9721 108.2473 130.8382 30168.4689 -214.5489 -149.1404
ENERGY: 1500000 3.0526 10.3529 4.0378 0.0000 -10495.0409 1407.4849 0.0000 0.0000 1716.3265 -7353.7862 294.4247 -9070.1127 -7381.7262 298.5689 -73.1379 -40.3030 30137.3716 -147.4566 -85.6009
TCL: Running FEP window  17: Lambda1 0.19999999999999968 Lambda2 0.1499999999999997 [dLambda -0.04999999999999999]
TCL: Setting parameter firsttimestep to 0
TCL: Setting parameter alchLambda to 0.19999999999999968
Info: NONBONDED TABLE R-SQUARED SPACING: 0.0625
Info: NONBONDED TABLE SIZE: 705 POINTS
TCL: Setting parameter alchLambda2 to 0.1499999999999997
Info: NONBONDED TABLE R-SQUARED SPACING: 0.0625
Info: NONBONDED TABLE SIZE: 705 POINTS
TCL: Running for 1500000 steps
ETITLE: TS BOND ANGLE DIHED IMPRP ELECT VDW BOUNDARY MISC KINETIC TOTAL TEMP POTENTIAL TOTALAVG TEMPAVG PRESSURE GPRESSURE VOLUME PRESSAVG GPRESSAVG
ENERGY: 0 3.0526 10.3529 4.0378 0.0000 -10495.0421 1407.5267 0.0000 0.0000 1715.4259 -7354.6463 294.2702 -9070.0721 -7354.6463 294.2702 -115.0370 -42.6152 30137.3716 -115.0370 -42.6152
ENERGY: 300000 1.5530 9.5390 4.9980 0.0000 -10645.5756 1503.4647 0.0000 0.0000 1767.9294 -7358.0917 303.2768 -9126.0210 -7380.1963 296.4289 690.4950 670.0742 29980.9868 -73.9124 -13.8763
ENERGY: 600000 3.7738 7.9232 4.1129 0.0000 -10599.8884 1439.2171 0.0000 0.0000 1765.4857 -7379.3756 302.8576 -9144.8614 -7386.7725 298.9398 4.9899 127.5618 29655.7155 -54.4436 9.6274
ENERGY: 900000 2.6487 8.8332 4.7452 0.0000 -10618.8249 1403.4454 0.0000 0.0000 1802.3250 -7396.8275 309.1772 -9199.1525 -7387.2798 299.5581 -246.2104 -160.3272 29713.1409 -131.5623 -71.6582
ENERGY: 1200000 4.0613 6.5488 3.8255 0.0000 -10569.5596 1380.3341 0.0000 0.0000 1778.1584 -7396.6316 305.0315 -9174.7900 -7389.4984 299.7825 -173.1669 -94.8946 29654.4027 -135.8197 -77.2721
ENERGY: 1500000 2.2706 15.0795 4.3796 0.0000 -10527.8242 1380.1422 0.0000 0.0000 1767.3289 -7358.6234 303.1738 -9125.9523 -7388.6791 300.1781 -422.8664 -319.6019 29751.4642 -203.5589 -140.3085
TCL: Running FEP window  18: Lambda1 0.1499999999999997 Lambda2 0.09999999999999969 [dLambda -0.05 ]
TCL: Setting parameter firsttimestep to 0
TCL: Setting parameter alchLambda to 0.1499999999999997
Info: NONBONDED TABLE R-SQUARED SPACING: 0.0625
Info: NONBONDED TABLE SIZE: 705 POINTS
TCL: Setting parameter alchLambda2 to 0.09999999999999969
Info: NONBONDED TABLE R-SQUARED SPACING: 0.0625
Info: NONBONDED TABLE SIZE: 705 POINTS
TCL: Running for 1500000 steps
ETITLE: TS BOND ANGLE DIHED IMPRP ELECT VDW BOUNDARY MISC KINETIC TOTAL TEMP POTENTIAL TOTALAVG TEMPAVG PRESSURE GPRESSURE VOLUME PRESSAVG GPRESSAVG
ENERGY: 0 2.2706 15.0795 4.3796 0.0000 -10527.8241 1380.1549 0.0000 0.0000 1766.4641 -7359.4754 303.0254 -9125.9394 -7359.4754 303.0254 -402.3683 -323.5044 29751.4642 -402.3683 -323.5044
ENERGY: 300000 2.8445 11.9020 3.7123 0.0000 -10505.3288 1397.4261 0.0000 0.0000 1731.6155 -7357.8284 297.0474 -9089.4438 -7361.2007 299.0196 -365.2755 -329.5811 30512.9255 -205.0523 -154.4432
ENERGY: 600000 3.4529 10.2736 3.5594 0.0000 -10465.8433 1324.7545 0.0000 0.0000 1757.9697 -7365.8333 301.5683 -9123.8029 -7386.8215 298.5629 -961.9653 -834.7180 30302.3445 -238.5460 -180.8735
ENERGY: 900000 3.2205 10.1274 5.0765 0.0000 -10398.1123 1355.3745 0.0000 0.0000 1750.3150 -7273.9986 300.2552 -9024.3136 -7378.5251 298.5834 -468.6445 -381.1581 30284.8369 -149.5133 -78.6456
ENERGY: 1200000 0.5516 10.1862 3.2599 0.0000 -10454.9396 1412.8762 0.0000 0.0000 1764.5621 -7263.5036 302.6992 -9028.0657 -7375.3609 299.0888 247.7088 282.3125 29996.8798 -65.0851 -2.5802
ENERGY: 1500000 1.9339 11.0100 3.2554 0.0000 -10658.0727 1423.9109 0.0000 0.0000 1758.6309 -7459.3317 301.6817 -9217.9626 -7388.7842 298.9084 -295.5506 -191.4629 30078.6502 -106.3817 -34.9141
TCL: Running FEP window  19: Lambda1 0.09999999999999969 Lambda2 0.049999999999999684 [dLambda -0.05 ]
TCL: Setting parameter firsttimestep to 0
TCL: Setting parameter alchLambda to 0.09999999999999969
Info: NONBONDED TABLE R-SQUARED SPACING: 0.0625
Info: NONBONDED TABLE SIZE: 705 POINTS
TCL: Setting parameter alchLambda2 to 0.049999999999999684
Info: NONBONDED TABLE R-SQUARED SPACING: 0.0625
Info: NONBONDED TABLE SIZE: 705 POINTS
TCL: Running for 1500000 steps
ETITLE: TS BOND ANGLE DIHED IMPRP ELECT VDW BOUNDARY MISC KINETIC TOTAL TEMP POTENTIAL TOTALAVG TEMPAVG PRESSURE GPRESSURE VOLUME PRESSAVG GPRESSAVG
ENERGY: 0 1.9339 11.0100 3.2554 0.0000 -10658.0730 1424.0935 0.0000 0.0000 1757.7514 -7460.0288 301.5309 -9217.7803 -7460.0288 301.5309 -275.7000 -191.6537 30078.6502 -275.7000 -191.6537
ENERGY: 300000 4.0928 12.5509 4.6693 0.0000 -10543.2280 1419.0146 0.0000 0.0000 1709.7172 -7393.1832 293.2909 -9102.9004 -7418.0101 297.2076 58.2840 125.0765 29755.1275 2.1094 64.0474
ENERGY: 600000 1.9505 9.8547 4.3937 0.0000 -10599.6233 1471.5564 0.0000 0.0000 1774.5062 -7337.3618 304.4050 -9111.8680 -7385.5132 300.2227 531.4024 626.0909 29686.3525 41.8376 114.8224
ENERGY: 900000 2.0056 9.2349 3.3911 0.0000 -10638.3962 1458.6484 0.0000 0.0000 1748.3280 -7416.7881 299.9143 -9165.1161 -7386.1834 300.8060 184.3909 109.5830 30244.6860 -30.5151 18.1496
ENERGY: 1200000 1.8840 9.3715 3.8911 0.0000 -10472.6205 1421.0961 0.0000 0.0000 1678.3850 -7357.9929 287.9161 -9036.3779 -7392.8537 298.7720 39.1559 94.0340 29941.6949 -44.7267 3.5014
ENERGY: 1500000 1.7074 12.6670 3.1175 0.0000 -10478.6823 1345.0648 0.0000 0.0000 1758.6027 -7357.5230 301.6769 -9116.1256 -7391.0151 299.7052 -518.9916 -444.5108 30063.4861 -110.9646 -63.0234
TCL: Running FEP window  20: Lambda1 0.049999999999999684 Lambda2 0.0    [dLambda -0.049999999999999684]
TCL: Setting parameter firsttimestep to 0
TCL: Setting parameter alchLambda to 0.049999999999999684
Info: NONBONDED TABLE R-SQUARED SPACING: 0.0625
Info: NONBONDED TABLE SIZE: 705 POINTS
TCL: Setting parameter alchLambda2 to 0.0
Info: NONBONDED TABLE R-SQUARED SPACING: 0.0625
Info: NONBONDED TABLE SIZE: 705 POINTS
TCL: Running for 1500000 steps
ETITLE: TS BOND ANGLE DIHED IMPRP ELECT VDW BOUNDARY MISC KINETIC TOTAL TEMP POTENTIAL TOTALAVG TEMPAVG PRESSURE GPRESSURE VOLUME PRESSAVG GPRESSAVG
ENERGY: 0 1.7074 12.6670 3.1175 0.0000 -10478.6828 1344.9801 0.0000 0.0000 1757.7660 -7358.4448 301.5334 -9116.2109 -7358.4448 301.5334 -538.6990 -447.2952 30063.4861 -538.6990 -447.2952
ENERGY: 300000 1.4791 7.8436 3.2262 0.0000 -10502.5192 1386.9810 0.0000 0.0000 1747.7909 -7355.1984 299.8222 -9102.9893 -7388.4281 300.8223 -645.5952 -550.7350 30605.3734 -427.4796 -340.4860
ENERGY: 600000 2.1793 10.9661 4.4332 0.0000 -10611.5160 1432.9006 0.0000 0.0000 1745.8547 -7415.1822 299.4900 -9161.0369 -7383.0301 299.7211 -58.2783 -50.1563 30052.6494 -406.5560 -334.7520
ENERGY: 900000 1.7064 8.5570 4.3141 0.0000 -10672.7094 1475.9723 0.0000 0.0000 1775.5036 -7406.6559 304.5761 -9182.1595 -7380.0449 299.5785 220.2602 287.0832 29742.4994 -160.0594 -76.3877
ENERGY: 1200000 1.2498 11.4380 4.4809 0.0000 -10651.9946 1467.8400 0.0000 0.0000 1740.6088 -7426.3771 298.5902 -9166.9860 -7379.1700 299.4501 253.1016 301.0412 29880.9331 -123.4153 -45.8036
ENERGY: 1500000 3.0333 6.6409 3.2864 0.0000 -10646.3930 1507.6426 0.0000 0.0000 1786.5603 -7339.2295 306.4728 -9125.7898 -7381.4429 300.5199 622.2600 660.8123 29818.5876 -45.8128 30.9804
TCL: Exiting due to exit command.
