Info: SIMULATION PARAMETERS:
Info: TIMESTEP               2
Info: NUMBER OF STEPS        0
Info: STEPS PER CYCLE        10
Info: PERIODIC CELL BASIS 1  30.5533 0 0
Info: PERIODIC CELL BASIS 2  0 33.0073 0
Info: PERIODIC CELL BASIS 3  0 0 29.8922
Info: PERIODIC CELL CENTER   0 0 0
Info: WRAPPING WATERS AROUND PERIODIC BOUNDARIES ON OUTPUT.
Info: WRAPPING ALL CLUSTERS AROUND PERIODIC BOUNDARIES ON OUTPUT.
Info: FIRST LDB TIMESTEP     50
Info: LAST LDB TIMESTEP     -1
Info: HOM BACKGROUND SCALING 1
Info: PME BACKGROUND SCALING 1
Info: MIN ATOMS PER PATCH    40
Info: EMPTY PATCH LOAD       40 ATOMS
Info: VELOCITY FILE          mobley_5220185_equil.vel
Info: CENTER OF MASS MOVING INITIALLY? NO
Info: DIELECTRIC             1
Info: EXCLUDE                SCALED ONE-FOUR
Info: 1-4 ELECTROSTATICS SCALED BY 0.833333
Info: MODIFIED 1-4 VDW PARAMETERS WILL BE USED
Info: DCD FILENAME           mobley_5220185_prod.dcd
Info: DCD FREQUENCY          100000
Info: DCD FIRST STEP         100000
Info: DCD FILE WILL CONTAIN UNIT CELL DATA
Info: XST FILENAME           mobley_5220185_prod.xst
Info: XST FREQUENCY          100000
Info: NO VELOCITY DCD OUTPUT
Info: NO FORCE DCD OUTPUT
Info: OUTPUT FILENAME        mobley_5220185_prod
Info: BINARY OUTPUT FILES WILL BE USED
Info: RESTART FILENAME       mobley_5220185_prod.restart
Info: RESTART FREQUENCY      100000
Info: BINARY RESTART FILES WILL BE USED
Info: CUTOFF                 9
Info: PAIRLIST DISTANCE      11
Info: PAIRLIST SHRINK RATE   0.01
Info: PAIRLIST GROW RATE     0.01
Info: PAIRLIST TRIGGER       0.3
Info: PAIRLISTS PER CYCLE    2
Info: PAIRLISTS ENABLED
Info: MARGIN                 2
Info: HYDROGEN GROUP CUTOFF  2.5
Info: PATCH DIMENSION        15.5
Info: ENERGY OUTPUT STEPS    100000
Info: ENERGY EVALUATION STEPS    100000
Info: OUTPUT ENERGY PRECISION 4
Info: CROSSTERM ENERGY INCLUDED IN DIHEDRAL
Info: TIMING OUTPUT STEPS    1000000
Info: PRESSURE OUTPUT STEPS  100000
Info: ALCHEMICAL FEP ON
Info: FEP CURRENT LAMBDA VALUE     1
Info: FEP COMPARISON LAMBDA VALUE  0.95
Info: FEP INTRA-ALCHEMICAL NON-BONDED INTERACTIONS WILL BE RETAINED
Info: FEP INTRA-ALCHEMICAL BONDED INTERACTIONS WILL BE RETAINED
Info: FEP VDW SHIFTING COEFFICIENT 5
Info: FEP ELEC. ACTIVE FOR ANNIHILATED PARTICLES BETWEEN LAMBDA = 0 AND LAMBDA = 0.5
Info: FEP ELEC. ACTIVE FOR EXNIHILATED PARTICLES BETWEEN LAMBDA = 0.5 AND LAMBDA = 1
Info: FEP VDW ACTIVE FOR ANNIHILATED PARTICLES BETWEEN LAMBDA = 0 AND LAMBDA = 1
Info: FEP VDW ACTIVE FOR EXNIHILATED PARTICLES BETWEEN LAMBDA = 0 AND LAMBDA = 1
Info: FEP BOND ACTIVE FOR ANNIHILATED PARTICLES BETWEEN LAMBDA = 1 AND LAMBDA = 1
Info: FEP BOND ACTIVE FOR EXNIHILATED PARTICLES BETWEEN LAMBDA = 0 AND LAMBDA = 0
Info: LANGEVIN DYNAMICS ACTIVE
Info: LANGEVIN TEMPERATURE   300
Info: LANGEVIN USING BBK INTEGRATOR
Info: LANGEVIN DAMPING COEFFICIENT IS 1 INVERSE PS
Info: LANGEVIN DYNAMICS APPLIED TO HYDROGENS
Info: LANGEVIN PISTON PRESSURE CONTROL ACTIVE
Info:        TARGET PRESSURE IS 1.01325 BAR
Info:     OSCILLATION PERIOD IS 50 FS
Info:             DECAY TIME IS 25 FS
Info:     PISTON TEMPERATURE IS 300 K
Info:       PRESSURE CONTROL IS GROUP-BASED
Info:    INITIAL STRAIN RATE IS 7.2553e-05 7.2553e-05 7.2553e-05
Info:       CELL FLUCTUATION IS ISOTROPIC
Info: PARTICLE MESH EWALD (PME) ACTIVE
Info: PME TOLERANCE               1e-06
Info: PME EWALD COEFFICIENT       0.348832
Info: PME INTERPOLATION ORDER     4
Info: PME GRID DIMENSIONS         32 36 32
Info: PME MAXIMUM GRID SPACING    1
Info: PME CALCULATION WILL BE PERFORMED ON GPU
Info: FULL ELECTROSTATIC EVALUATION FREQUENCY      2
Info: USING VERLET I (r-RESPA) MTS SCHEME.
Info: C1 SPLITTING OF LONG RANGE ELECTROSTATICS
Info: PLACING ATOMS IN PATCHES BY HYDROGEN GROUPS
Info: RIGID BONDS TO HYDROGEN : ALL
Info:         ERROR TOLERANCE : 1e-08
Info:          MAX ITERATIONS : 100
Info: RIGID WATER USING SETTLE ALGORITHM
Info: RANDOM NUMBER SEED     1743754158
Info: USE HYDROGEN BONDS?    NO
Info: Using AMBER format force field!
Info: AMBER PARM FILE        mobley_5220185.prmtop
Info: COORDINATE PDB         mobley_5220185.pdb
Info: Exclusions will be read from PARM file!
Info: SCNB (VDW SCALING)     2
Info: USING ARITHMETIC MEAN TO COMBINE L-J SIGMA PARAMETERS
Info: BINARY COORDINATES     mobley_5220185_equil.coor
Info: SUMMARY OF PARAMETERS:
Info: 8 BONDS
Info: 10 ANGLES
Info:   10 HARMONIC
Info:   0 COSINE-BASED
Info: 6 DIHEDRAL
Info: 0 IMPROPER
Info: 0 CROSSTERM
Info: 0 VDW
Info: 28 VDW_PAIRS
Info: 0 NBTHOLE_PAIRS
Info: To read alchdata from file: mobley_5220185.pdb
Info: To read alchflag data from column: 5
Info: STRUCTURE SUMMARY:
Info: 2914 ATOMS
Info: 2914 BONDS
Info: 26 ANGLES
Info: 35 DIHEDRALS
Info: 0 IMPROPERS
Info: 0 CROSSTERMS
Info: 2968 EXCLUSIONS
Info: 2906 RIGID BONDS
Info: ALCH: 0 ATOMS TO DISAPPEAR IN FINAL STATE
Info: ALCH: 16 ATOMS TO APPEAR IN FINAL STATE
Info: 5836 DEGREES OF FREEDOM
Info: 974 HYDROGEN GROUPS
Info: 4 ATOMS IN LARGEST HYDROGEN GROUP
Info: 974 MIGRATION GROUPS
Info: 4 ATOMS IN LARGEST MIGRATION GROUP
Info: TOTAL MASS = 17511.6 amu
Info: TOTAL CHARGE = 0.000100043 e
Info: MASS DENSITY = 0.964628 g/cm^3
Info: ATOM DENSITY = 0.0966639 atoms/A^3
Info: ADDED 0 IMPLICIT EXCLUSIONS
Info: NONBONDED TABLE R-SQUARED SPACING: 0.0625
Info: NONBONDED TABLE SIZE: 705 POINTS
Info: REMOVING COM VELOCITY -0.159823 0.141586 0.130378
Info: Use 3D box decompostion in PME FFT.
Info: Updated CUDA force table with 4096 elements.
Info: Updated CUDA LJ table with 7 x 7 elements.
Info: Found 17 unique exclusion lists needing 40 bytes
TCL: Running for 1500000 steps
ETITLE: TS BOND ANGLE DIHED IMPRP ELECT VDW BOUNDARY MISC KINETIC TOTAL TEMP POTENTIAL TOTALAVG TEMPAVG PRESSURE GPRESSURE VOLUME PRESSAVG GPRESSAVG
ENERGY: 0 4.1505 5.5917 2.1897 0.0000 -10446.7774 1415.5930 0.0000 0.0000 1689.4459 -7329.8066 291.3529 -9019.2525 -7329.8066 291.3529 99.1094 181.7464 30145.6777 99.1094 181.7464
ENERGY: 300000 4.3614 4.4843 1.7260 0.0000 -10531.6084 1386.9887 0.0000 0.0000 1712.8879 -7421.1602 295.3956 -9134.0481 -7376.4714 296.0913 -472.9730 -491.6690 30082.6001 -504.5569 -474.9440
ENERGY: 600000 5.7734 4.7389 3.0051 0.0000 -10509.4584 1437.1994 0.0000 0.0000 1755.4480 -7303.2936 302.7353 -9058.7416 -7338.2039 297.7194 -253.9827 -181.9097 30191.5672 -364.8034 -324.4306
ENERGY: 900000 0.4290 8.2516 4.1017 0.0000 -10482.6024 1456.4124 0.0000 0.0000 1756.3892 -7257.0185 302.8976 -9013.4077 -7341.8869 298.3229 614.8639 600.3341 30037.4039 -190.3887 -156.2615
ENERGY: 1200000 1.9161 6.0982 2.0335 0.0000 -10444.8699 1355.1272 0.0000 0.0000 1725.5880 -7354.1069 297.5858 -9079.6949 -7338.8911 298.8952 -525.5016 -472.3125 30086.4990 -265.1529 -224.2244
ENERGY: 1500000 3.2911 5.4348 2.6196 0.0000 -10505.2138 1438.8352 0.0000 0.0000 1752.8195 -7302.2137 302.2820 -9055.0332 -7333.1329 299.2354 352.2225 392.0364 30108.4290 -186.5484 -139.7326
TCL: Running FEP window   2: Lambda1 0.95   Lambda2 0.8999999999999999 [dLambda -0.050000000000000044]
TCL: Setting parameter firsttimestep to 0
TCL: Setting parameter alchLambda to 0.95
Info: NONBONDED TABLE R-SQUARED SPACING: 0.0625
Info: NONBONDED TABLE SIZE: 705 POINTS
TCL: Setting parameter alchLambda2 to 0.8999999999999999
Info: NONBONDED TABLE R-SQUARED SPACING: 0.0625
Info: NONBONDED TABLE SIZE: 705 POINTS
TCL: Running for 1500000 steps
ETITLE: TS BOND ANGLE DIHED IMPRP ELECT VDW BOUNDARY MISC KINETIC TOTAL TEMP POTENTIAL TOTALAVG TEMPAVG PRESSURE GPRESSURE VOLUME PRESSAVG GPRESSAVG
ENERGY: 0 3.2911 5.4348 2.6196 0.0000 -10504.0878 1439.3878 0.0000 0.0000 1751.9400 -7301.4146 302.1303 -9053.3545 -7301.4146 302.1303 294.0023 385.5727 30108.4290 294.0023 385.5727
ENERGY: 300000 4.5173 7.0908 1.7063 0.0000 -10532.9317 1393.4703 0.0000 0.0000 1768.2222 -7357.9248 304.9383 -9126.1470 -7316.7554 305.0594 -487.7936 -369.9036 30153.2903 -295.5963 -225.6646
ENERGY: 600000 3.0492 4.8575 1.4580 0.0000 -10513.5012 1408.7716 0.0000 0.0000 1771.9938 -7323.3712 305.5887 -9095.3650 -7321.8080 302.5323 -118.1294 -101.1550 30300.9850 -180.9658 -110.9889
ENERGY: 900000 6.6894 4.7012 4.9721 0.0000 -10441.8164 1425.9944 0.0000 0.0000 1707.9608 -7291.4984 294.5459 -8999.4593 -7318.0945 301.2859 189.3980 245.8921 30149.5455 3.9264 77.6179
ENERGY: 1200000 5.3776 7.1282 3.4453 0.0000 -10429.8053 1363.0280 0.0000 0.0000 1741.4908 -7309.3353 300.3283 -9050.8261 -7320.2422 300.6227 -506.2703 -445.5296 30177.5636 -108.8252 -34.5243
ENERGY: 1500000 5.7933 5.9700 2.6000 0.0000 -10492.4130 1468.9521 0.0000 0.0000 1731.8637 -7277.2338 298.6681 -9009.0975 -7319.3889 300.5974 585.4593 552.5208 30227.2939 -33.0371 30.9920
TCL: Running FEP window   3: Lambda1 0.8999999999999999 Lambda2 0.8499999999999999 [dLambda -0.050000000000000044]
TCL: Setting parameter firsttimestep to 0
TCL: Setting parameter alchLambda to 0.8999999999999999
Info: NONBONDED TABLE R-SQUARED SPACING: 0.0625
Info: NONBONDED TABLE SIZE: 705 POINTS
TCL: Setting parameter alchLambda2 to 0.8499999999999999
Info: NONBONDED TABLE R-SQUARED SPACING: 0.0625
Info: NONBONDED TABLE SIZE: 705 POINTS
TCL: Running for 1500000 steps
ETITLE: TS BOND ANGLE DIHED IMPRP ELECT VDW BOUNDARY MISC KINETIC TOTAL TEMP POTENTIAL TOTALAVG TEMPAVG PRESSURE GPRESSURE VOLUME PRESSAVG GPRESSAVG
ENERGY: 0 5.7933 5.9700 2.6000 0.0000 -10490.7146 1468.1954 0.0000 0.0000 1730.9859 -7277.1700 298.5167 -9008.1559 -7277.1700 298.5167 472.8328 540.0899 30227.2939 472.8328 540.0899
ENERGY: 300000 2.4934 5.8523 2.6561 0.0000 -10311.6122 1323.8903 0.0000 0.0000 1699.6126 -7277.1074 293.1062 -8976.7199 -7274.8513 297.9239 -743.3337 -635.0479 30461.8285 -129.3733 -55.7332
ENERGY: 600000 5.3655 4.3977 2.2880 0.0000 -10517.6382 1386.0599 0.0000 0.0000 1722.8034 -7396.7238 297.1056 -9119.5271 -7306.0609 298.9344 -679.4912 -648.5909 30599.5230 -275.5771 -205.8372
ENERGY: 900000 2.0738 2.8800 2.4629 0.0000 -10408.5319 1332.6750 0.0000 0.0000 1769.1151 -7299.3250 305.0923 -9068.4401 -7315.4659 299.2392 -721.8612 -740.1840 30560.5585 -307.5485 -252.1657
ENERGY: 1200000 2.6009 6.5945 0.7107 0.0000 -10573.8777 1478.8819 0.0000 0.0000 1724.5429 -7360.5468 297.4056 -9085.0897 -7327.2910 298.9974 498.6425 447.8553 30205.6589 -235.1033 -193.9892
ENERGY: 1500000 1.5363 5.6320 0.9432 0.0000 -10547.5233 1388.8424 0.0000 0.0000 1781.4047 -7369.1648 307.2117 -9150.5694 -7330.8016 299.7442 -378.7009 -318.8925 30139.9008 -231.7282 -185.4233
TCL: Running FEP window   4: Lambda1 0.8499999999999999 Lambda2 0.7999999999999998 [dLambda -0.050000000000000044]
TCL: Setting parameter firsttimestep to 0
TCL: Setting parameter alchLambda to 0.8499999999999999
Info: NONBONDED TABLE R-SQUARED SPACING: 0.0625
Info: NONBONDED TABLE SIZE: 705 POINTS
TCL: Setting parameter alchLambda2 to 0.7999999999999998
Info: NONBONDED TABLE R-SQUARED SPACING: 0.0625
Info: NONBONDED TABLE SIZE: 705 POINTS
TCL: Running for 1500000 steps
ETITLE: TS BOND ANGLE DIHED IMPRP ELECT VDW BOUNDARY MISC KINETIC TOTAL TEMP POTENTIAL TOTALAVG TEMPAVG PRESSURE GPRESSURE VOLUME PRESSAVG GPRESSAVG
ENERGY: 0 1.5363 5.6320 0.9432 0.0000 -10546.1117 1387.1072 0.0000 0.0000 1780.5398 -7370.3532 307.0625 -9150.8931 -7370.3532 307.0625 -440.4443 -349.3226 30139.9008 -440.4443 -349.3226
ENERGY: 300000 1.7950 5.3231 1.5942 0.0000 -10513.1532 1386.2204 0.0000 0.0000 1760.6283 -7357.5921 303.6287 -9118.2204 -7344.0241 304.2014 -193.4895 -166.9469 29774.6132 143.3087 213.5676
ENERGY: 600000 1.0100 5.9759 3.4112 0.0000 -10355.0813 1352.2452 0.0000 0.0000 1703.2208 -7289.2181 293.7285 -8992.4389 -7342.7764 300.2536 -494.7056 -529.4684 30808.7116 -37.9190 11.0489
ENERGY: 900000 0.8855 9.7232 4.3667 0.0000 -10529.0841 1431.3290 0.0000 0.0000 1777.9616 -7304.8180 306.6179 -9082.7796 -7332.1873 302.0404 123.0991 141.7627 29929.9604 -63.7583 -13.3307
ENERGY: 1200000 2.7471 3.7877 1.2133 0.0000 -10470.1817 1336.5964 0.0000 0.0000 1717.7322 -7408.1050 296.2310 -9125.8372 -7336.2868 301.2126 -654.7168 -628.9837 29771.2540 -72.7889 -21.1918
ENERGY: 1500000 0.7979 5.5052 2.0606 0.0000 -10573.3188 1447.9048 0.0000 0.0000 1697.8208 -7419.2295 292.7972 -9117.0503 -7351.9645 299.5659 87.0008 152.7117 30039.4061 -114.1495 -59.3407
TCL: Running FEP window   5: Lambda1 0.7999999999999998 Lambda2 0.7499999999999998 [dLambda -0.050000000000000044]
TCL: Setting parameter firsttimestep to 0
TCL: Setting parameter alchLambda to 0.7999999999999998
Info: NONBONDED TABLE R-SQUARED SPACING: 0.0625
Info: NONBONDED TABLE SIZE: 705 POINTS
TCL: Setting parameter alchLambda2 to 0.7499999999999998
Info: NONBONDED TABLE R-SQUARED SPACING: 0.0625
Info: NONBONDED TABLE SIZE: 705 POINTS
TCL: Running for 1500000 steps
ETITLE: TS BOND ANGLE DIHED IMPRP ELECT VDW BOUNDARY MISC KINETIC TOTAL TEMP POTENTIAL TOTALAVG TEMPAVG PRESSURE GPRESSURE VOLUME PRESSAVG GPRESSAVG
ENERGY: 0 0.7979 5.5052 2.0606 0.0000 -10570.8391 1447.5255 0.0000 0.0000 1696.9554 -7417.9946 292.6480 -9114.9500 -7417.9946 292.6480 66.5109 141.6096 30039.4061 66.5109 141.6096
ENERGY: 300000 3.4401 5.1886 2.4710 0.0000 -10514.3907 1446.4096 0.0000 0.0000 1731.2068 -7325.6746 298.5548 -9056.8814 -7368.8800 296.4821 -11.0855 68.1568 30087.2410 -100.4132 -31.2286
ENERGY: 600000 5.2647 5.5736 1.3340 0.0000 -10546.2237 1452.0799 0.0000 0.0000 1805.4641 -7276.5074 311.3608 -9081.9715 -7335.9763 299.0519 178.0766 171.8760 30235.0940 36.0077 100.3772
ENERGY: 900000 8.8226 7.0015 2.3365 0.0000 -10640.0663 1519.4950 0.0000 0.0000 1780.4405 -7321.9702 307.0454 -9102.4107 -7330.3108 299.3008 849.4430 915.6433 29398.3743 129.8457 202.1093
ENERGY: 1200000 1.3862 3.7019 1.5354 0.0000 -10370.0136 1344.6239 0.0000 0.0000 1738.9401 -7279.8261 299.8884 -9018.7662 -7327.1931 298.9091 -262.2936 -152.9819 29556.4141 23.4860 93.9289
ENERGY: 1500000 1.9685 6.7184 1.8746 0.0000 -10611.5426 1468.6241 0.0000 0.0000 1677.7375 -7454.6196 289.3338 -9132.3571 -7339.6971 298.2755 14.2917 121.7577 30075.5885 29.2131 97.1302
TCL: Running FEP window   6: Lambda1 0.7499999999999998 Lambda2 0.6999999999999997 [dLambda -0.050000000000000044]
TCL: Setting parameter firsttimestep to 0
TCL: Setting parameter alchLambda to 0.7499999999999998
Info: NONBONDED TABLE R-SQUARED SPACING: 0.0625
Info: NONBONDED TABLE SIZE: 705 POINTS
TCL: Setting parameter alchLambda2 to 0.6999999999999997
Info: NONBONDED TABLE R-SQUARED SPACING: 0.0625
Info: NONBONDED TABLE SIZE: 705 POINTS
TCL: Running for 1500000 steps
ETITLE: TS BOND ANGLE DIHED IMPRP ELECT VDW BOUNDARY MISC KINETIC TOTAL TEMP POTENTIAL TOTALAVG TEMPAVG PRESSURE GPRESSURE VOLUME PRESSAVG GPRESSAVG
ENERGY: 0 1.9685 6.7184 1.8746 0.0000 -10609.8959 1468.6601 0.0000 0.0000 1676.8726 -7453.8017 289.1846 -9130.6743 -7453.8017 289.1846 47.7317 117.8429 30075.5885 47.7317 117.8429
ENERGY: 300000 2.8459 5.9735 2.8916 0.0000 -10572.2430 1469.6805 0.0000 0.0000 1713.6045 -7377.2470 295.5192 -9090.8515 -7372.0782 295.0790 458.6867 446.0071 29653.6367 356.9762 392.5161
ENERGY: 600000 3.3558 4.8027 2.8254 0.0000 -10493.7555 1459.6789 0.0000 0.0000 1790.6566 -7232.4362 308.8072 -9023.0927 -7335.1493 298.1038 491.3632 559.0891 29967.6906 301.1382 345.7070
ENERGY: 900000 6.5920 4.0471 2.1590 0.0000 -10596.9991 1465.2304 0.0000 0.0000 1814.9007 -7304.0699 312.9882 -9118.9706 -7329.7884 299.4351 200.8896 287.2703 29751.6204 311.8512 359.9201
ENERGY: 1200000 2.8654 4.4788 4.7352 0.0000 -10512.7710 1445.8480 0.0000 0.0000 1785.8009 -7269.0428 307.9698 -9054.8436 -7322.4432 300.2891 178.9926 153.4396 30140.3471 257.6851 301.2118
ENERGY: 1500000 2.2783 5.9461 4.7713 0.0000 -10610.1012 1540.3522 0.0000 0.0000 1722.1285 -7334.6247 296.9892 -9056.7533 -7319.7216 300.3361 1168.6850 1307.0725 29396.2853 274.4897 326.2749
TCL: Running FEP window   7: Lambda1 0.6999999999999997 Lambda2 0.6499999999999997 [dLambda -0.050000000000000044]
TCL: Setting parameter firsttimestep to 0
TCL: Setting parameter alchLambda to 0.6999999999999997
Info: NONBONDED TABLE R-SQUARED SPACING: 0.0625
Info: NONBONDED TABLE SIZE: 705 POINTS
TCL: Setting parameter alchLambda2 to 0.6499999999999997
Info: NONBONDED TABLE R-SQUARED SPACING: 0.0625
Info: NONBONDED TABLE SIZE: 705 POINTS
TCL: Running for 1500000 steps
ETITLE: TS BOND ANGLE DIHED IMPRP ELECT VDW BOUNDARY MISC KINETIC TOTAL TEMP POTENTIAL TOTALAVG TEMPAVG PRESSURE GPRESSURE VOLUME PRESSAVG GPRESSAVG
ENERGY: 0 2.2783 5.9461 4.7713 0.0000 -10609.6409 1540.5343 0.0000 0.0000 1721.2563 -7334.8546 296.8388 -9056.1109 -7334.8546 296.8388 1213.2382 1300.7312 29396.2853 1213.2382 1300.7312
ENERGY: 300000 2.1405 6.8417 1.7293 0.0000 -10457.6903 1381.9760 0.0000 0.0000 1666.2169 -7398.7859 287.3470 -9065.0029 -7344.4836 295.3331 -433.6373 -345.1966 30103.7124 116.8809 183.4388
ENERGY: 600000 4.6508 11.6875 1.0236 0.0000 -10387.2041 1352.2821 0.0000 0.0000 1727.1048 -7290.4552 297.8474 -9017.5600 -7327.4821 297.6924 -595.6717 -510.2833 30132.8068 -25.0592 39.3488
ENERGY: 900000 3.3694 5.8691 2.5105 0.0000 -10395.5446 1344.9267 0.0000 0.0000 1689.6716 -7349.1973 291.3919 -9038.8689 -7320.1407 297.8836 -381.0051 -369.0479 29900.4348 3.7956 63.6422
ENERGY: 1200000 3.6646 6.1602 3.2264 0.0000 -10563.5326 1443.6689 0.0000 0.0000 1738.3383 -7368.4741 299.7847 -9106.8124 -7333.3343 297.9709 -22.4106 92.4924 29924.0461 -34.1542 28.3905
ENERGY: 1500000 2.7511 5.2972 1.8421 0.0000 -10436.0312 1425.5271 0.0000 0.0000 1723.8563 -7276.7575 297.2872 -9000.6138 -7336.4794 297.4877 520.9650 546.5215 29562.3619 43.9218 107.7271
TCL: Running FEP window   8: Lambda1 0.6499999999999997 Lambda2 0.5999999999999996 [dLambda -0.050000000000000044]
TCL: Setting parameter firsttimestep to 0
TCL: Setting parameter alchLambda to 0.6499999999999997
Info: NONBONDED TABLE R-SQUARED SPACING: 0.0625
Info: NONBONDED TABLE SIZE: 705 POINTS
TCL: Setting parameter alchLambda2 to 0.5999999999999996
Info: NONBONDED TABLE R-SQUARED SPACING: 0.0625
Info: NONBONDED TABLE SIZE: 705 POINTS
TCL: Running for 1500000 steps
ETITLE: TS BOND ANGLE DIHED IMPRP ELECT VDW BOUNDARY MISC KINETIC TOTAL TEMP POTENTIAL TOTALAVG TEMPAVG PRESSURE GPRESSURE VOLUME PRESSAVG GPRESSAVG
ENERGY: 0 2.7511 5.2972 1.8421 0.0000 -10434.6761 1425.2499 0.0000 0.0000 1723.0099 -7276.5259 297.1412 -8999.5358 -7276.5259 297.1412 462.7369 534.9906 29562.3619 462.7369 534.9906
ENERGY: 300000 5.4536 4.8172 0.9417 0.0000 -10535.9054 1495.5727 0.0000 0.0000 1676.9334 -7352.1869 289.1951 -9029.1202 -7312.7424 297.3356 576.0428 640.0746 29985.0243 330.5790 414.7448
ENERGY: 600000 3.8252 4.5518 3.4768 0.0000 -10253.6515 1332.9062 0.0000 0.0000 1759.7767 -7149.1148 303.4818 -8908.8914 -7307.0342 298.9558 -497.6536 -436.6138 30671.5563 160.5220 241.1581
ENERGY: 900000 5.0410 4.8618 1.6781 0.0000 -10479.0131 1466.6031 0.0000 0.0000 1724.7736 -7276.0554 297.4454 -9000.8291 -7306.8331 297.6191 122.4824 266.8085 30034.0664 174.5124 253.2779
ENERGY: 1200000 3.5158 4.6216 2.5994 0.0000 -10519.1759 1408.3503 0.0000 0.0000 1743.5708 -7356.5180 300.6870 -9100.0887 -7312.4798 297.6092 -476.4441 -354.1649 30194.2998 265.1449 344.3329
ENERGY: 1500000 5.2410 5.1507 3.1495 0.0000 -10593.5255 1449.8826 0.0000 0.0000 1716.7217 -7413.3800 296.0568 -9130.1017 -7319.3070 298.1397 138.3932 185.2081 29467.8931 160.0456 232.4490
TCL: Running FEP window   9: Lambda1 0.5999999999999996 Lambda2 0.5499999999999996 [dLambda -0.050000000000000044]
TCL: Setting parameter firsttimestep to 0
TCL: Setting parameter alchLambda to 0.5999999999999996
Info: NONBONDED TABLE R-SQUARED SPACING: 0.0625
Info: NONBONDED TABLE SIZE: 705 POINTS
TCL: Setting parameter alchLambda2 to 0.5499999999999996
Info: NONBONDED TABLE R-SQUARED SPACING: 0.0625
Info: NONBONDED TABLE SIZE: 705 POINTS
TCL: Running for 1500000 steps
ETITLE: TS BOND ANGLE DIHED IMPRP ELECT VDW BOUNDARY MISC KINETIC TOTAL TEMP POTENTIAL TOTALAVG TEMPAVG PRESSURE GPRESSURE VOLUME PRESSAVG GPRESSAVG
ENERGY: 0 5.2409 5.1507 3.1495 0.0000 -10592.6333 1449.7978 0.0000 0.0000 1715.8715 -7413.4227 295.9102 -9129.2943 -7413.4227 295.9102 103.3395 179.7796 29467.8931 103.3395 179.7796
ENERGY: 300000 6.4742 4.0178 1.5487 0.0000 -10552.4637 1428.7098 0.0000 0.0000 1724.4761 -7387.2371 297.3940 -9111.7132 -7367.9743 299.3086 -150.9750 -65.9796 29864.3585 -158.6585 -91.5764
ENERGY: 600000 2.5146 4.5323 3.8094 0.0000 -10489.5310 1325.6986 0.0000 0.0000 1713.6290 -7439.3472 295.5234 -9152.9761 -7346.8411 300.2160 -1249.2790 -1150.4266 30293.2351 -352.7918 -293.4278
ENERGY: 900000 4.4551 7.1082 1.9073 0.0000 -10461.1456 1348.3885 0.0000 0.0000 1760.4700 -7338.8164 303.6014 -9099.2864 -7349.5140 300.1572 -765.5819 -666.7164 30083.9780 -245.2219 -182.0442
ENERGY: 1200000 2.7344 4.4749 0.8051 0.0000 -10485.5181 1373.7759 0.0000 0.0000 1742.2007 -7361.5272 300.4507 -9103.7278 -7340.8786 301.4880 -333.9539 -277.5627 29781.4019 -194.9804 -141.2778
ENERGY: 1500000 6.7366 6.5663 2.3944 0.0000 -10362.7683 1360.4943 0.0000 0.0000 1805.7519 -7180.8248 311.4105 -8986.5768 -7330.9850 301.6093 -396.6205 -319.8006 29941.8917 -163.0083 -102.9853
TCL: Running FEP window  10: Lambda1 0.5499999999999996 Lambda2 0.4999999999999996 [dLambda -0.04999999999999999]
TCL: Setting parameter firsttimestep to 0
TCL: Setting parameter alchLambda to 0.5499999999999996
Info: NONBONDED TABLE R-SQUARED SPACING: 0.0625
Info: NONBONDED TABLE SIZE: 705 POINTS
TCL: Setting parameter alchLambda2 to 0.4999999999999996
Info: NONBONDED TABLE R-SQUARED SPACING: 0.0625
Info: NONBONDED TABLE SIZE: 705 POINTS
TCL: Running for 1500000 steps
ETITLE: TS BOND ANGLE DIHED IMPRP ELECT VDW BOUNDARY MISC KINETIC TOTAL TEMP POTENTIAL TOTALAVG TEMPAVG PRESSURE GPRESSURE VOLUME PRESSAVG GPRESSAVG
ENERGY: 0 6.7366 6.5663 2.3944 0.0000 -10362.2144 1360.6196 0.0000 0.0000 1804.8946 -7181.0028 311.2626 -8985.8975 -7181.0028 311.2626 -415.3306 -328.8889 29941.8917 -415.3306 -328.8889
ENERGY: 300000 1.4578 5.3336 3.8368 0.0000 -10500.2906 1435.5493 0.0000 0.0000 1811.5029 -7242.6104 312.4022 -9054.1133 -7248.7659 306.6072 202.3668 275.1009 29922.8964 -359.3968 -268.5061
ENERGY: 600000 3.4860 5.2424 2.0763 0.0000 -10497.9989 1381.4150 0.0000 0.0000 1771.8882 -7333.8910 305.5705 -9105.7792 -7287.3669 303.9510 -287.0341 -263.1230 29813.2739 -300.2718 -226.0646
ENERGY: 900000 6.3051 5.0534 1.3195 0.0000 -10534.5606 1452.8395 0.0000 0.0000 1830.0068 -7239.0363 315.5933 -9069.0432 -7290.1399 303.8488 -24.2776 60.4726 30412.5401 -185.1216 -109.5177
ENERGY: 1200000 4.2035 4.2687 1.8619 0.0000 -10526.0075 1476.2396 0.0000 0.0000 1781.4339 -7257.9999 307.2167 -9039.4337 -7290.0745 304.0689 870.6850 898.0641 29213.6519 -119.9850 -54.4919
ENERGY: 1500000 4.4811 7.0223 1.0766 0.0000 -10390.6251 1397.8476 0.0000 0.0000 1723.2834 -7256.9139 297.1884 -8980.1974 -7293.6435 303.2518 -174.4137 -101.3948 30508.6795 -30.8240 29.2711
TCL: Running FEP window  11: Lambda1 0.4999999999999996 Lambda2 0.4499999999999996 [dLambda -0.04999999999999999]
TCL: Setting parameter firsttimestep to 0
TCL: Setting parameter alchLambda to 0.4999999999999996
Info: NONBONDED TABLE R-SQUARED SPACING: 0.0625
Info: NONBONDED TABLE SIZE: 705 POINTS
TCL: Setting parameter alchLambda2 to 0.4499999999999996
Info: NONBONDED TABLE R-SQUARED SPACING: 0.0625
Info: NONBONDED TABLE SIZE: 705 POINTS
TCL: Running for 1500000 steps
ETITLE: TS BOND ANGLE DIHED IMPRP ELECT VDW BOUNDARY MISC KINETIC TOTAL TEMP POTENTIAL TOTALAVG TEMPAVG PRESSURE GPRESSURE VOLUME PRESSAVG GPRESSAVG
ENERGY: 0 4.4811 7.0223 1.0766 0.0000 -10389.8802 1398.3598 0.0000 0.0000 1722.4192 -7256.5211 297.0393 -8978.9403 -7256.5211 297.0393 -181.6101 -101.2523 30508.6795 -181.6101 -101.2523
ENERGY: 300000 1.1485 3.4854 3.3927 0.0000 -10364.3174 1397.8593 0.0000 0.0000 1716.8832 -7241.5483 296.0846 -8958.4315 -7285.8964 296.9352 29.6628 123.2311 30051.2917 71.5603 137.9852
ENERGY: 600000 4.5366 4.3762 1.1510 0.0000 -10501.9067 1460.7093 0.0000 0.0000 1719.3684 -7311.7652 296.5132 -9031.1336 -7305.1078 296.1992 365.4585 453.4075 29748.8073 -45.3529 15.6564
ENERGY: 900000 2.9820 4.6262 1.2732 0.0000 -10389.8559 1319.3995 0.0000 0.0000 1730.7617 -7330.8133 298.4780 -9061.5750 -7302.2622 297.3730 -816.6648 -733.4657 29795.4758 -4.6668 63.5348
ENERGY: 1200000 5.3788 3.3029 1.4891 0.0000 -10314.1918 1328.2752 0.0000 0.0000 1762.4835 -7213.2622 303.9486 -8975.7457 -7301.6479 298.7068 -852.1087 -757.3098 30607.9036 -80.1316 -3.4597
ENERGY: 1500000 3.9223 5.3460 3.5371 0.0000 -10540.4705 1441.4196 0.0000 0.0000 1730.4814 -7355.7642 298.4297 -9086.2455 -7308.1509 297.8734 122.1747 230.6421 29809.8903 -112.5755 -31.5826
TCL: Running FEP window  12: Lambda1 0.4499999999999996 Lambda2 0.39999999999999963 [dLambda -0.04999999999999999]
TCL: Setting parameter firsttimestep to 0
TCL: Setting parameter alchLambda to 0.4499999999999996
Info: NONBONDED TABLE R-SQUARED SPACING: 0.0625
Info: NONBONDED TABLE SIZE: 705 POINTS
TCL: Setting parameter alchLambda2 to 0.39999999999999963
Info: NONBONDED TABLE R-SQUARED SPACING: 0.0625
Info: NONBONDED TABLE SIZE: 705 POINTS
TCL: Running for 1500000 steps
ETITLE: TS BOND ANGLE DIHED IMPRP ELECT VDW BOUNDARY MISC KINETIC TOTAL TEMP POTENTIAL TOTALAVG TEMPAVG PRESSURE GPRESSURE VOLUME PRESSAVG GPRESSAVG
ENERGY: 0 3.9223 5.3460 3.5371 0.0000 -10540.4701 1440.8836 0.0000 0.0000 1729.6236 -7357.1576 298.2818 -9086.7812 -7357.1576 298.2818 133.3272 220.0666 29809.8903 133.3272 220.0666
ENERGY: 300000 1.9193 3.1051 2.3093 0.0000 -10499.2306 1449.2685 0.0000 0.0000 1746.5721 -7296.0563 301.2046 -9042.6284 -7299.8611 301.0842 143.5181 207.6987 30009.1091 45.1759 121.1650
ENERGY: 600000 2.6849 4.3246 1.9992 0.0000 -10360.6296 1315.5391 0.0000 0.0000 1771.6077 -7264.4740 305.5221 -9036.0817 -7287.5436 301.4350 -737.6379 -659.5861 29832.5613 22.8086 91.0974
ENERGY: 900000 6.7078 4.5492 1.2129 0.0000 -10383.0289 1360.1022 0.0000 0.0000 1689.9049 -7320.5518 291.4321 -9010.4567 -7295.9375 299.5863 -291.5352 -228.2796 29867.5023 -26.8508 43.7527
ENERGY: 1200000 4.1082 5.8594 2.2338 0.0000 -10617.3495 1460.5608 0.0000 0.0000 1729.2899 -7415.2974 298.2242 -9144.5873 -7312.9824 299.9769 241.9559 329.7631 29517.7232 43.4839 111.5794
ENERGY: 1500000 3.0165 2.4421 3.2681 0.0000 -10569.3884 1436.7631 0.0000 0.0000 1764.2582 -7359.6404 304.2547 -9123.8985 -7308.9877 300.3717 140.7025 185.4786 29476.9118 39.6158 106.9501
TCL: Running FEP window  13: Lambda1 0.39999999999999963 Lambda2 0.34999999999999964 [dLambda -0.04999999999999999]
TCL: Setting parameter firsttimestep to 0
TCL: Setting parameter alchLambda to 0.39999999999999963
Info: NONBONDED TABLE R-SQUARED SPACING: 0.0625
Info: NONBONDED TABLE SIZE: 705 POINTS
TCL: Setting parameter alchLambda2 to 0.34999999999999964
Info: NONBONDED TABLE R-SQUARED SPACING: 0.0625
Info: NONBONDED TABLE SIZE: 705 POINTS
TCL: Running for 1500000 steps
ETITLE: TS BOND ANGLE DIHED IMPRP ELECT VDW BOUNDARY MISC KINETIC TOTAL TEMP POTENTIAL TOTALAVG TEMPAVG PRESSURE GPRESSURE VOLUME PRESSAVG GPRESSAVG
ENERGY: 0 3.0165 2.4421 3.2681 0.0000 -10569.3901 1437.0731 0.0000 0.0000 1763.3358 -7360.2544 304.0956 -9123.5902 -7360.2544 304.0956 90.5823 183.3335 29476.9118 90.5823 183.3335
ENERGY: 300000 5.1943 4.2763 2.5270 0.0000 -10449.5257 1390.6455 0.0000 0.0000 1756.1087 -7290.7740 302.8492 -9046.8827 -7334.5405 302.4836 -495.4809 -391.9933 30168.7298 -193.3921 -115.3362
ENERGY: 600000 2.2129 4.6510 1.7553 0.0000 -10381.2985 1370.9824 0.0000 0.0000 1745.5097 -7256.1872 301.0214 -9001.6969 -7311.4117 301.3758 -411.4165 -344.0376 30383.6873 -203.3773 -132.3727
ENERGY: 900000 2.6706 6.7390 2.1868 0.0000 -10509.9246 1435.5943 0.0000 0.0000 1739.0392 -7323.6947 299.9055 -9062.7339 -7302.5969 300.9363 68.5879 163.9867 29750.1016 -183.8208 -121.7662
ENERGY: 1200000 2.5335 4.2923 1.7668 0.0000 -10658.1918 1487.1987 0.0000 0.0000 1741.7215 -7420.6790 300.3681 -9162.4005 -7313.5309 300.7036 298.0526 321.3507 29591.5510 -153.9021 -94.7083
ENERGY: 1500000 3.3658 4.3919 3.6095 0.0000 -10563.4061 1456.4824 0.0000 0.0000 1750.4879 -7345.0686 301.8799 -9095.5565 -7317.6371 300.6185 319.1557 303.4763 29755.6275 -187.6890 -133.0385
TCL: Running FEP window  14: Lambda1 0.34999999999999964 Lambda2 0.29999999999999966 [dLambda -0.04999999999999999]
TCL: Setting parameter firsttimestep to 0
TCL: Setting parameter alchLambda to 0.34999999999999964
Info: NONBONDED TABLE R-SQUARED SPACING: 0.0625
Info: NONBONDED TABLE SIZE: 705 POINTS
TCL: Setting parameter alchLambda2 to 0.29999999999999966
Info: NONBONDED TABLE R-SQUARED SPACING: 0.0625
Info: NONBONDED TABLE SIZE: 705 POINTS
TCL: Running for 1500000 steps
ETITLE: TS BOND ANGLE DIHED IMPRP ELECT VDW BOUNDARY MISC KINETIC TOTAL TEMP POTENTIAL TOTALAVG TEMPAVG PRESSURE GPRESSURE VOLUME PRESSAVG GPRESSAVG
ENERGY: 0 3.3658 4.3919 3.6095 0.0000 -10563.4069 1457.0027 0.0000 0.0000 1749.6123 -7345.4247 301.7289 -9095.0370 -7345.4247 301.7289 218.5044 303.8705 29755.6275 218.5044 303.8705
ENERGY: 300000 4.9831 3.9246 0.4036 0.0000 -10437.8091 1400.1913 0.0000 0.0000 1764.2729 -7264.0337 304.2572 -9028.3067 -7347.7328 301.0667 -172.1658 -148.5693 30126.0347 -86.3943 -32.1993
ENERGY: 600000 1.8115 3.8816 0.8207 0.0000 -10524.0787 1437.7912 0.0000 0.0000 1776.1121 -7303.6616 306.2989 -9079.7737 -7334.7625 301.8634 139.3534 270.7554 29760.3001 -21.4216 52.9045
ENERGY: 900000 6.2702 5.8713 2.5786 0.0000 -10474.3425 1447.6951 0.0000 0.0000 1738.9299 -7272.9975 299.8867 -9011.9273 -7332.9053 300.9958 45.7790 128.0815 30118.8300 -46.6909 28.5639
ENERGY: 1200000 4.7842 4.3977 3.5218 0.0000 -10405.7918 1406.1597 0.0000 0.0000 1687.6830 -7299.2454 291.0489 -8986.9284 -7327.9790 300.3128 -60.8768 13.6499 30184.3679 -6.6076 59.6162
ENERGY: 1500000 2.8513 4.1352 2.0484 0.0000 -10670.2629 1480.9704 0.0000 0.0000 1762.7079 -7417.5496 303.9873 -9180.2575 -7325.3769 300.2543 -30.9973 73.5462 29934.9452 -54.2199 13.1723
TCL: Running FEP window  15: Lambda1 0.29999999999999966 Lambda2 0.24999999999999967 [dLambda -0.04999999999999999]
TCL: Setting parameter firsttimestep to 0
TCL: Setting parameter alchLambda to 0.29999999999999966
Info: NONBONDED TABLE R-SQUARED SPACING: 0.0625
Info: NONBONDED TABLE SIZE: 705 POINTS
TCL: Setting parameter alchLambda2 to 0.24999999999999967
Info: NONBONDED TABLE R-SQUARED SPACING: 0.0625
Info: NONBONDED TABLE SIZE: 705 POINTS
TCL: Running for 1500000 steps
ETITLE: TS BOND ANGLE DIHED IMPRP ELECT VDW BOUNDARY MISC KINETIC TOTAL TEMP POTENTIAL TOTALAVG TEMPAVG PRESSURE GPRESSURE VOLUME PRESSAVG GPRESSAVG
ENERGY: 0 2.8513 4.1352 2.0484 0.0000 -10670.2636 1480.6046 0.0000 0.0000 1761.8078 -7418.8163 303.8321 -9180.6241 -7418.8163 303.8321 -26.7396 67.0056 29934.9452 -26.7396 67.0056
ENERGY: 300000 2.8170 6.1647 2.3271 0.0000 -10404.5349 1368.8181 0.0000 0.0000 1670.5446 -7353.8634 288.0933 -9024.4080 -7358.8642 299.1033 -634.8342 -542.1383 30160.0211 -404.1506 -340.1805
ENERGY: 600000 3.4074 6.5649 2.3906 0.0000 -10694.6938 1552.9902 0.0000 0.0000 1695.1462 -7434.1946 292.3360 -9129.3407 -7349.3111 297.4782 826.3469 918.0029 29619.4931 -148.9397 -77.0777
ENERGY: 900000 3.1096 5.5307 2.6277 0.0000 -10467.0923 1360.4468 0.0000 0.0000 1704.2857 -7391.0919 293.9121 -9095.3776 -7339.6094 298.1976 -837.4318 -808.2915 30492.0747 -133.8019 -69.4943
ENERGY: 1200000 3.0404 4.8428 5.7631 0.0000 -10512.0439 1419.3026 0.0000 0.0000 1752.7117 -7326.3834 302.2634 -9079.0951 -7336.2573 298.2787 -180.4316 -107.6891 30123.0175 -134.9942 -71.5396
ENERGY: 1500000 5.7176 3.6699 1.7376 0.0000 -10368.5977 1356.9285 0.0000 0.0000 1732.9248 -7267.6192 298.8511 -9000.5441 -7334.2060 298.5677 -198.8422 -171.2713 29935.6856 -111.2056 -47.3526
TCL: Running FEP window  16: Lambda1 0.24999999999999967 Lambda2 0.19999999999999968 [dLambda -0.04999999999999999]
TCL: Setting parameter firsttimestep to 0
TCL: Setting parameter alchLambda to 0.24999999999999967
Info: NONBONDED TABLE R-SQUARED SPACING: 0.0625
Info: NONBONDED TABLE SIZE: 705 POINTS
TCL: Setting parameter alchLambda2 to 0.19999999999999968
Info: NONBONDED TABLE R-SQUARED SPACING: 0.0625
Info: NONBONDED TABLE SIZE: 705 POINTS
TCL: Running for 1500000 steps
ETITLE: TS BOND ANGLE DIHED IMPRP ELECT VDW BOUNDARY MISC KINETIC TOTAL TEMP POTENTIAL TOTALAVG TEMPAVG PRESSURE GPRESSURE VOLUME PRESSAVG GPRESSAVG
ENERGY: 0 5.7176 3.6699 1.7376 0.0000 -10368.5974 1357.4626 0.0000 0.0000 1732.0667 -7267.9430 298.7031 -9000.0097 -7267.9430 298.7031 -248.0476 -171.0894 29935.6856 -248.0476 -171.0894
ENERGY: 300000 3.6608 2.3555 1.3103 0.0000 -10435.6339 1396.7374 0.0000 0.0000 1704.3576 -7327.2122 293.9245 -9031.5698 -7270.3003 298.9119 -497.4362 -429.7077 30236.7554 -51.0520 11.9734
ENERGY: 600000 1.3782 6.9840 6.1332 0.0000 -10489.4728 1424.6100 0.0000 0.0000 1754.1157 -7296.2518 302.5055 -9050.3674 -7305.9253 299.1557 196.7300 216.4655 29940.9630 -41.5142 17.0106
ENERGY: 900000 4.5776 4.1480 3.1840 0.0000 -10485.8190 1398.0115 0.0000 0.0000 1739.7941 -7336.1039 300.0357 -9075.8980 -7307.4516 299.5838 -238.3929 -189.0784 29837.4842 -87.3104 -35.6175
ENERGY: 1200000 1.5208 6.0991 5.1816 0.0000 -10316.5342 1328.9721 0.0000 0.0000 1751.4227 -7223.3379 302.0411 -8974.7606 -7298.1076 300.4043 -747.3153 -629.9045 30576.2844 -25.6810 22.3738
ENERGY: 1500000 3.8723 4.9503 1.7641 0.0000 -10407.1184 1375.9647 0.0000 0.0000 1797.8342 -7222.7327 310.0450 -9020.5669 -7292.2931 301.3122 -556.0524 -513.8650 30577.4049 -133.1378 -77.4647
TCL: Running FEP window  17: Lambda1 0.19999999999999968 Lambda2 0.1499999999999997 [dLambda -0.04999999999999999]
TCL: Setting parameter firsttimestep to 0
TCL: Setting parameter alchLambda to 0.19999999999999968
Info: NONBONDED TABLE R-SQUARED SPACING: 0.0625
Info: NONBONDED TABLE SIZE: 705 POINTS
TCL: Setting parameter alchLambda2 to 0.1499999999999997
Info: NONBONDED TABLE R-SQUARED SPACING: 0.0625
Info: NONBONDED TABLE SIZE: 705 POINTS
TCL: Running for 1500000 steps
ETITLE: TS BOND ANGLE DIHED IMPRP ELECT VDW BOUNDARY MISC KINETIC TOTAL TEMP POTENTIAL TOTALAVG TEMPAVG PRESSURE GPRESSURE VOLUME PRESSAVG GPRESSAVG
ENERGY: 0 3.8723 4.9503 1.7641 0.0000 -10407.1185 1375.3326 0.0000 0.0000 1796.9511 -7224.2480 309.8927 -9021.1992 -7224.2480 309.8927 -590.2431 -521.3441 30577.4049 -590.2431 -521.3441
ENERGY: 300000 2.8574 7.2991 1.8506 0.0000 -10565.8432 1494.8121 0.0000 0.0000 1743.7034 -7315.3206 300.7099 -9059.0240 -7290.0227 301.1074 548.4216 610.1711 29871.1599 -143.2802 -99.9718
ENERGY: 600000 2.9938 3.9719 2.9282 0.0000 -10407.6937 1408.2909 0.0000 0.0000 1724.1495 -7265.3594 297.3377 -8989.5089 -7294.7077 297.6295 187.3555 274.8932 29607.4905 -224.3984 -163.1808
ENERGY: 900000 4.4570 5.2382 2.3929 0.0000 -10545.6818 1457.3842 0.0000 0.0000 1735.1164 -7341.0931 299.2290 -9076.2095 -7305.5739 299.1484 -23.8572 67.7828 29896.0772 -274.2173 -209.4544
ENERGY: 1200000 2.8283 4.0608 2.8381 0.0000 -10560.1829 1467.7007 0.0000 0.0000 1699.8640 -7382.8909 293.1496 -9082.7549 -7309.6663 298.1754 400.1090 521.2745 29438.8510 -184.1541 -112.8097
ENERGY: 1500000 2.9423 5.2852 1.8918 0.0000 -10606.1205 1549.6727 0.0000 0.0000 1755.7557 -7290.5729 302.7884 -9046.3286 -7310.6327 298.1808 1012.8805 1043.7989 29943.4984 -67.4950 -4.7030
TCL: Running FEP window  18: Lambda1 0.1499999999999997 Lambda2 0.09999999999999969 [dLambda -0.05 ]
TCL: Setting parameter firsttimestep to 0
TCL: Setting parameter alchLambda to 0.1499999999999997
Info: NONBONDED TABLE R-SQUARED SPACING: 0.0625
Info: NONBONDED TABLE SIZE: 705 POINTS
TCL: Setting parameter alchLambda2 to 0.09999999999999969
Info: NONBONDED TABLE R-SQUARED SPACING: 0.0625
Info: NONBONDED TABLE SIZE: 705 POINTS
TCL: Running for 1500000 steps
ETITLE: TS BOND ANGLE DIHED IMPRP ELECT VDW BOUNDARY MISC KINETIC TOTAL TEMP POTENTIAL TOTALAVG TEMPAVG PRESSURE GPRESSURE VOLUME PRESSAVG GPRESSAVG
ENERGY: 0 2.9423 5.2852 1.8918 0.0000 -10606.1200 1549.1069 0.0000 0.0000 1754.8932 -7292.0006 302.6396 -9046.8938 -7292.0006 302.6396 955.6939 1035.8163 29943.4984 955.6939 1035.8163
ENERGY: 300000 6.5343 3.1596 3.1023 0.0000 -10456.4548 1382.7458 0.0000 0.0000 1752.0503 -7308.8624 302.1494 -9060.9128 -7334.2381 299.2167 -837.3042 -736.1531 30326.0846 120.3141 198.8394
ENERGY: 600000 2.8882 7.3517 3.6573 0.0000 -10557.5164 1487.0385 0.0000 0.0000 1755.3077 -7301.2730 302.7111 -9056.5807 -7319.5832 300.1775 423.6690 468.1501 29669.8894 149.9923 216.7445
ENERGY: 900000 3.0820 4.6551 3.5361 0.0000 -10374.7944 1344.9887 0.0000 0.0000 1728.6902 -7289.8423 298.1208 -9018.5325 -7303.1735 300.8370 -724.9083 -667.6678 30578.0837 -18.7990 39.8568
ENERGY: 1200000 4.4623 3.5022 1.3345 0.0000 -10500.9471 1421.4040 0.0000 0.0000 1711.0532 -7359.1908 295.0792 -9070.2440 -7304.6320 300.6955 -154.7627 -34.8809 29787.3435 53.3087 108.9630
ENERGY: 1500000 2.3303 5.2656 2.3503 0.0000 -10563.7265 1435.6767 0.0000 0.0000 1669.4561 -7448.6475 287.9056 -9118.1036 -7319.7730 300.0653 124.4170 102.9258 29625.4527 -29.5176 22.8683
TCL: Running FEP window  19: Lambda1 0.09999999999999969 Lambda2 0.049999999999999684 [dLambda -0.05 ]
TCL: Setting parameter firsttimestep to 0
TCL: Setting parameter alchLambda to 0.09999999999999969
Info: NONBONDED TABLE R-SQUARED SPACING: 0.0625
Info: NONBONDED TABLE SIZE: 705 POINTS
TCL: Setting parameter alchLambda2 to 0.049999999999999684
Info: NONBONDED TABLE R-SQUARED SPACING: 0.0625
Info: NONBONDED TABLE SIZE: 705 POINTS
TCL: Running for 1500000 steps
ETITLE: TS BOND ANGLE DIHED IMPRP ELECT VDW BOUNDARY MISC KINETIC TOTAL TEMP POTENTIAL TOTALAVG TEMPAVG PRESSURE GPRESSURE VOLUME PRESSAVG GPRESSAVG
ENERGY: 0 2.3303 5.2656 2.3503 0.0000 -10563.7273 1435.0006 0.0000 0.0000 1668.5846 -7450.1958 287.7553 -9118.7805 -7450.1958 287.7553 10.3005 98.5701 29625.4527 10.3005 98.5701
ENERGY: 300000 3.2385 5.2563 2.7723 0.0000 -10544.8316 1508.0653 0.0000 0.0000 1761.9081 -7263.5912 303.8494 -9025.4993 -7345.5547 298.1384 637.1698 655.0008 29955.5132 72.6909 105.5432
ENERGY: 600000 1.2520 6.4441 1.1242 0.0000 -10556.2725 1439.8300 0.0000 0.0000 1719.3660 -7388.2562 296.5128 -9107.6222 -7342.5613 299.2338 35.8097 96.0586 29652.3466 148.7736 193.1589
ENERGY: 900000 3.0084 4.4191 2.0253 0.0000 -10567.3362 1526.4935 0.0000 0.0000 1686.9285 -7344.4614 290.9188 -9031.3899 -7340.5670 297.1103 960.0975 1042.7381 29544.6198 229.8311 283.6924
ENERGY: 1200000 1.9527 9.0659 1.5528 0.0000 -10542.9909 1388.5715 0.0000 0.0000 1725.6339 -7416.2141 297.5937 -9141.8480 -7341.2232 297.9322 -299.5432 -282.7396 29760.5761 244.8795 293.8676
ENERGY: 1500000 5.4158 6.5549 0.9039 0.0000 -10457.5425 1451.6933 0.0000 0.0000 1759.5077 -7233.4670 303.4354 -8992.9746 -7335.2074 298.3546 215.5417 236.2129 30174.5580 195.1676 238.0169
TCL: Running FEP window  20: Lambda1 0.049999999999999684 Lambda2 0.0    [dLambda -0.049999999999999684]
TCL: Setting parameter firsttimestep to 0
TCL: Setting parameter alchLambda to 0.049999999999999684
Info: NONBONDED TABLE R-SQUARED SPACING: 0.0625
Info: NONBONDED TABLE SIZE: 705 POINTS
TCL: Setting parameter alchLambda2 to 0.0
Info: NONBONDED TABLE R-SQUARED SPACING: 0.0625
Info: NONBONDED TABLE SIZE: 705 POINTS
TCL: Running for 1500000 steps
ETITLE: TS BOND ANGLE DIHED IMPRP ELECT VDW BOUNDARY MISC KINETIC TOTAL TEMP POTENTIAL TOTALAVG TEMPAVG PRESSURE GPRESSURE VOLUME PRESSAVG GPRESSAVG
ENERGY: 0 5.4158 6.5549 0.9039 0.0000 -10457.5422 1452.0784 0.0000 0.0000 1758.6311 -7233.9581 303.2842 -8992.5892 -7233.9581 303.2842 169.3354 236.4241 30174.5580 169.3354 236.4241
ENERGY: 300000 1.6235 3.7743 1.7988 0.0000 -10362.6290 1345.0758 0.0000 0.0000 1757.0665 -7253.2903 303.0144 -9010.3567 -7296.1858 300.3297 -652.4537 -488.8752 30239.0417 -171.0108 -74.4565
ENERGY: 600000 4.7144 4.1272 2.2785 0.0000 -10602.8933 1463.8903 0.0000 0.0000 1771.9167 -7355.9663 305.5754 -9127.8830 -7308.7773 300.4789 235.1038 298.8517 29456.5473 4.4475 91.3209
ENERGY: 900000 4.1865 7.5175 4.1608 0.0000 -10567.0776 1458.0392 0.0000 0.0000 1748.4532 -7344.7204 301.5290 -9093.1735 -7311.2803 300.1346 304.6910 387.5934 29391.3418 100.4898 186.6322
ENERGY: 1200000 3.7689 8.7315 4.4292 0.0000 -10420.8542 1407.1530 0.0000 0.0000 1701.6518 -7295.1199 293.4579 -8996.7717 -7312.2270 299.5362 81.1907 143.3587 29574.7830 80.7108 155.9613
ENERGY: 1500000 1.8594 9.1774 4.4993 0.0000 -10629.5998 1524.2141 0.0000 0.0000 1766.5558 -7323.2938 304.6509 -9089.8496 -7309.4440 300.6990 976.1834 1029.5820 29312.3437 201.2329 274.2027
TCL: Exiting due to exit command.
