Info: SIMULATION PARAMETERS:
Info: TIMESTEP               2
Info: NUMBER OF STEPS        0
Info: STEPS PER CYCLE        10
Info: PERIODIC CELL BASIS 1  30.2717 0 0
Info: PERIODIC CELL BASIS 2  0 31.6628 0
Info: PERIODIC CELL BASIS 3  0 0 32.0345
Info: PERIODIC CELL CENTER   0 0 0
Info: WRAPPING WATERS AROUND PERIODIC BOUNDARIES ON OUTPUT.
Info: WRAPPING ALL CLUSTERS AROUND PERIODIC BOUNDARIES ON OUTPUT.
Info: FIRST LDB TIMESTEP     50
Info: LAST LDB TIMESTEP     -1
Info: HOM BACKGROUND SCALING 1
Info: PME BACKGROUND SCALING 1
Info: MIN ATOMS PER PATCH    40
Info: EMPTY PATCH LOAD       40 ATOMS
Info: VELOCITY FILE          mobley_8467917_equil.vel
Info: CENTER OF MASS MOVING INITIALLY? NO
Info: DIELECTRIC             1
Info: EXCLUDE                SCALED ONE-FOUR
Info: 1-4 ELECTROSTATICS SCALED BY 0.833333
Info: MODIFIED 1-4 VDW PARAMETERS WILL BE USED
Info: DCD FILENAME           mobley_8467917_prod.dcd
Info: DCD FREQUENCY          100000
Info: DCD FIRST STEP         100000
Info: DCD FILE WILL CONTAIN UNIT CELL DATA
Info: XST FILENAME           mobley_8467917_prod.xst
Info: XST FREQUENCY          100000
Info: NO VELOCITY DCD OUTPUT
Info: NO FORCE DCD OUTPUT
Info: OUTPUT FILENAME        mobley_8467917_prod
Info: BINARY OUTPUT FILES WILL BE USED
Info: RESTART FILENAME       mobley_8467917_prod.restart
Info: RESTART FREQUENCY      100000
Info: BINARY RESTART FILES WILL BE USED
Info: CUTOFF                 9
Info: PAIRLIST DISTANCE      11
Info: PAIRLIST SHRINK RATE   0.01
Info: PAIRLIST GROW RATE     0.01
Info: PAIRLIST TRIGGER       0.3
Info: PAIRLISTS PER CYCLE    2
Info: PAIRLISTS ENABLED
Info: MARGIN                 2
Info: HYDROGEN GROUP CUTOFF  2.5
Info: PATCH DIMENSION        15.5
Info: ENERGY OUTPUT STEPS    100000
Info: ENERGY EVALUATION STEPS    100000
Info: OUTPUT ENERGY PRECISION 4
Info: CROSSTERM ENERGY INCLUDED IN DIHEDRAL
Info: TIMING OUTPUT STEPS    1000000
Info: PRESSURE OUTPUT STEPS  100000
Info: ALCHEMICAL FEP ON
Info: FEP CURRENT LAMBDA VALUE     0
Info: FEP COMPARISON LAMBDA VALUE  0.05
Info: FEP INTRA-ALCHEMICAL NON-BONDED INTERACTIONS WILL BE RETAINED
Info: FEP INTRA-ALCHEMICAL BONDED INTERACTIONS WILL BE RETAINED
Info: FEP VDW SHIFTING COEFFICIENT 5
Info: FEP ELEC. ACTIVE FOR ANNIHILATED PARTICLES BETWEEN LAMBDA = 0 AND LAMBDA = 0.5
Info: FEP ELEC. ACTIVE FOR EXNIHILATED PARTICLES BETWEEN LAMBDA = 0.5 AND LAMBDA = 1
Info: FEP VDW ACTIVE FOR ANNIHILATED PARTICLES BETWEEN LAMBDA = 0 AND LAMBDA = 1
Info: FEP VDW ACTIVE FOR EXNIHILATED PARTICLES BETWEEN LAMBDA = 0 AND LAMBDA = 1
Info: FEP BOND ACTIVE FOR ANNIHILATED PARTICLES BETWEEN LAMBDA = 1 AND LAMBDA = 1
Info: FEP BOND ACTIVE FOR EXNIHILATED PARTICLES BETWEEN LAMBDA = 0 AND LAMBDA = 0
Info: LANGEVIN DYNAMICS ACTIVE
Info: LANGEVIN TEMPERATURE   300
Info: LANGEVIN USING BBK INTEGRATOR
Info: LANGEVIN DAMPING COEFFICIENT IS 1 INVERSE PS
Info: LANGEVIN DYNAMICS APPLIED TO HYDROGENS
Info: LANGEVIN PISTON PRESSURE CONTROL ACTIVE
Info:        TARGET PRESSURE IS 1.01325 BAR
Info:     OSCILLATION PERIOD IS 50 FS
Info:             DECAY TIME IS 25 FS
Info:     PISTON TEMPERATURE IS 300 K
Info:       PRESSURE CONTROL IS GROUP-BASED
Info:    INITIAL STRAIN RATE IS -0.000181437 -0.000181437 -0.000181437
Info:       CELL FLUCTUATION IS ISOTROPIC
Info: PARTICLE MESH EWALD (PME) ACTIVE
Info: PME TOLERANCE               1e-06
Info: PME EWALD COEFFICIENT       0.348832
Info: PME INTERPOLATION ORDER     4
Info: PME GRID DIMENSIONS         32 32 36
Info: PME MAXIMUM GRID SPACING    1
Info: PME CALCULATION WILL BE PERFORMED ON GPU
Info: FULL ELECTROSTATIC EVALUATION FREQUENCY      2
Info: USING VERLET I (r-RESPA) MTS SCHEME.
Info: C1 SPLITTING OF LONG RANGE ELECTROSTATICS
Info: PLACING ATOMS IN PATCHES BY HYDROGEN GROUPS
Info: RIGID BONDS TO HYDROGEN : ALL
Info:         ERROR TOLERANCE : 1e-08
Info:          MAX ITERATIONS : 100
Info: RIGID WATER USING SETTLE ALGORITHM
Info: RANDOM NUMBER SEED     1743933264
Info: USE HYDROGEN BONDS?    NO
Info: Using AMBER format force field!
Info: AMBER PARM FILE        mobley_8467917.prmtop
Info: COORDINATE PDB         mobley_8467917.pdb
Info: Exclusions will be read from PARM file!
Info: SCNB (VDW SCALING)     2
Info: USING ARITHMETIC MEAN TO COMBINE L-J SIGMA PARAMETERS
Info: BINARY COORDINATES     mobley_8467917_equil.coor
Info: SUMMARY OF PARAMETERS:
Info: 7 BONDS
Info: 8 ANGLES
Info:   8 HARMONIC
Info:   0 COSINE-BASED
Info: 12 DIHEDRAL
Info: 0 IMPROPER
Info: 0 CROSSTERM
Info: 0 VDW
Info: 21 VDW_PAIRS
Info: 0 NBTHOLE_PAIRS
Info: To read alchdata from file: mobley_8467917.pdb
Info: To read alchflag data from column: 5
Info: STRUCTURE SUMMARY:
Info: 3000 ATOMS
Info: 2999 BONDS
Info: 36 ANGLES
Info: 58 DIHEDRALS
Info: 0 IMPROPERS
Info: 0 CROSSTERMS
Info: 3078 EXCLUSIONS
Info: 2993 RIGID BONDS
Info: ALCH: 0 ATOMS TO DISAPPEAR IN FINAL STATE
Info: ALCH: 21 ATOMS TO APPEAR IN FINAL STATE
Info: 6007 DEGREES OF FREEDOM
Info: 1000 HYDROGEN GROUPS
Info: 4 ATOMS IN LARGEST HYDROGEN GROUP
Info: 1000 MIGRATION GROUPS
Info: 4 ATOMS IN LARGEST MIGRATION GROUP
Info: TOTAL MASS = 17988.1 amu
Info: TOTAL CHARGE = -0.000200003 e
Info: MASS DENSITY = 0.972835 g/cm^3
Info: ATOM DENSITY = 0.0977049 atoms/A^3
Info: ADDED 0 IMPLICIT EXCLUSIONS
Info: NONBONDED TABLE R-SQUARED SPACING: 0.0625
Info: NONBONDED TABLE SIZE: 705 POINTS
Info: REMOVING COM VELOCITY -0.205205 -0.0157109 -0.105316
Info: Use 3D box decompostion in PME FFT.
Info: Updated CUDA force table with 4096 elements.
Info: Updated CUDA LJ table with 6 x 6 elements.
Info: Found 23 unique exclusion lists needing 64 bytes
TCL: Running for 1500000 steps
ETITLE: TS BOND ANGLE DIHED IMPRP ELECT VDW BOUNDARY MISC KINETIC TOTAL TEMP POTENTIAL TOTALAVG TEMPAVG PRESSURE GPRESSURE VOLUME PRESSAVG GPRESSAVG
ENERGY: 0 1.8322 9.8822 11.8570 0.0000 -10865.4408 1471.1416 0.0000 0.0000 1807.3677 -7563.3601 302.8163 -9370.7278 -7563.3601 302.8163 -59.7077 25.9937 30704.6931 -59.7077 25.9937
ENERGY: 300000 2.9315 6.4294 14.5258 0.0000 -10886.3005 1540.5806 0.0000 0.0000 1756.8328 -7565.0004 294.3494 -9321.8333 -7513.2162 303.4137 353.2498 438.0702 30820.6834 -4.9705 54.9802
ENERGY: 600000 1.2525 9.9686 12.1457 0.0000 -10918.2718 1479.4387 0.0000 0.0000 1737.2531 -7678.2131 291.0689 -9415.4662 -7566.1392 300.4200 35.8778 76.6296 30646.6945 -21.2043 38.7399
ENERGY: 900000 2.4741 7.3380 14.8864 0.0000 -10777.1048 1462.7715 0.0000 0.0000 1844.5036 -7445.1312 309.0383 -9289.6348 -7553.2230 301.0586 86.8086 129.3813 30881.5993 -63.9737 -13.2563
ENERGY: 1200000 0.5627 16.9683 10.5939 0.0000 -10975.2498 1490.3186 0.0000 0.0000 1805.6832 -7651.1232 302.5341 -9456.8064 -7557.1459 301.1885 -71.1785 78.5253 30663.0216 -41.1376 15.8095
ENERGY: 1500000 0.8396 11.3222 12.0613 0.0000 -10853.6764 1416.0425 0.0000 0.0000 1731.2582 -7682.1525 290.0645 -9413.4107 -7556.3590 300.1887 -421.2173 -377.7636 30410.7342 -29.8719 26.9707
TCL: Running FEP window   2: Lambda1 0.05   Lambda2 0.1    [dLambda 0.05  ]
TCL: Setting parameter firsttimestep to 0
TCL: Setting parameter alchLambda to 0.05
Info: NONBONDED TABLE R-SQUARED SPACING: 0.0625
Info: NONBONDED TABLE SIZE: 705 POINTS
TCL: Setting parameter alchLambda2 to 0.1
Info: NONBONDED TABLE R-SQUARED SPACING: 0.0625
Info: NONBONDED TABLE SIZE: 705 POINTS
TCL: Running for 1500000 steps
ETITLE: TS BOND ANGLE DIHED IMPRP ELECT VDW BOUNDARY MISC KINETIC TOTAL TEMP POTENTIAL TOTALAVG TEMPAVG PRESSURE GPRESSURE VOLUME PRESSAVG GPRESSAVG
ENERGY: 0 0.8396 11.3222 12.0613 0.0000 -10853.6757 1419.6112 0.0000 0.0000 1730.3665 -7679.4748 289.9151 -9409.8413 -7679.4748 289.9151 -454.0831 -366.6401 30410.7342 -454.0831 -366.6401
ENERGY: 300000 0.4111 7.0918 11.8596 0.0000 -10842.5248 1485.2559 0.0000 0.0000 1785.9421 -7551.9642 299.2266 -9337.9063 -7572.2942 299.7829 426.5858 394.5235 30584.8723 201.9354 267.6663
ENERGY: 600000 2.2111 9.5637 12.5198 0.0000 -10899.5555 1515.0318 0.0000 0.0000 1756.2656 -7603.9635 294.2544 -9360.2290 -7577.1963 300.3724 229.8780 311.5288 30919.2506 25.3886 101.6796
ENERGY: 900000 4.3299 9.9988 11.7267 0.0000 -10904.5042 1504.2314 0.0000 0.0000 1783.1925 -7591.0248 298.7659 -9374.2174 -7581.5191 300.2147 69.6675 90.4408 31081.5325 -59.7900 7.7963
ENERGY: 1200000 2.7611 10.2027 12.0106 0.0000 -10866.0511 1507.5233 0.0000 0.0000 1782.4630 -7551.0904 298.6436 -9333.5534 -7571.7657 300.3542 418.6431 397.3449 30753.3550 -42.2290 15.8426
ENERGY: 1500000 1.1048 9.8327 14.0395 0.0000 -10888.6191 1454.7781 0.0000 0.0000 1736.7675 -7672.0966 290.9876 -9408.8640 -7575.3496 299.9553 -179.1277 -138.0694 30591.1855 -40.8958 12.5937
TCL: Running FEP window   3: Lambda1 0.1    Lambda2 0.15000000000000002 [dLambda 0.05000000000000002]
TCL: Setting parameter firsttimestep to 0
TCL: Setting parameter alchLambda to 0.1
Info: NONBONDED TABLE R-SQUARED SPACING: 0.0625
Info: NONBONDED TABLE SIZE: 705 POINTS
TCL: Setting parameter alchLambda2 to 0.15000000000000002
Info: NONBONDED TABLE R-SQUARED SPACING: 0.0625
Info: NONBONDED TABLE SIZE: 705 POINTS
TCL: Running for 1500000 steps
ETITLE: TS BOND ANGLE DIHED IMPRP ELECT VDW BOUNDARY MISC KINETIC TOTAL TEMP POTENTIAL TOTALAVG TEMPAVG PRESSURE GPRESSURE VOLUME PRESSAVG GPRESSAVG
ENERGY: 0 1.1048 9.8326 14.0395 0.0000 -10888.6182 1459.7386 0.0000 0.0000 1735.8950 -7668.0077 290.8414 -9403.9027 -7668.0077 290.8414 -208.1773 -125.0685 30591.1855 -208.1773 -125.0685
ENERGY: 300000 1.7169 13.7675 13.9963 0.0000 -10922.7294 1518.0166 0.0000 0.0000 1837.2811 -7537.9510 307.8282 -9375.2321 -7598.0543 297.8144 476.3791 545.6137 30459.6733 350.0217 428.9608
ENERGY: 600000 2.2506 10.6854 16.3007 0.0000 -10745.1935 1460.4373 0.0000 0.0000 1818.7862 -7436.7333 304.7294 -9255.5195 -7583.9658 298.2003 -7.6151 68.6846 31266.0858 176.1980 254.0273
ENERGY: 900000 0.8594 9.3160 11.7594 0.0000 -10764.7587 1463.2337 0.0000 0.0000 1826.2192 -7453.3711 305.9748 -9279.5903 -7573.5967 298.5222 51.3733 152.2449 30813.0486 68.6559 145.6777
ENERGY: 1200000 3.0243 11.5911 12.6365 0.0000 -10736.9873 1411.8725 0.0000 0.0000 1814.2381 -7483.6249 303.9674 -9297.8630 -7564.3735 298.9658 -789.2091 -679.2217 31714.4468 -12.7917 64.4746
ENERGY: 1500000 1.2458 7.4604 16.5053 0.0000 -10914.6815 1495.0112 0.0000 0.0000 1756.1939 -7638.2650 294.2424 -9394.4588 -7565.4944 299.6630 459.2195 526.6111 30136.5567 3.5716 78.5585
TCL: Running FEP window   4: Lambda1 0.15000000000000002 Lambda2 0.2    [dLambda 0.04999999999999999]
TCL: Setting parameter firsttimestep to 0
TCL: Setting parameter alchLambda to 0.15000000000000002
Info: NONBONDED TABLE R-SQUARED SPACING: 0.0625
Info: NONBONDED TABLE SIZE: 705 POINTS
TCL: Setting parameter alchLambda2 to 0.2
Info: NONBONDED TABLE R-SQUARED SPACING: 0.0625
Info: NONBONDED TABLE SIZE: 705 POINTS
TCL: Running for 1500000 steps
ETITLE: TS BOND ANGLE DIHED IMPRP ELECT VDW BOUNDARY MISC KINETIC TOTAL TEMP POTENTIAL TOTALAVG TEMPAVG PRESSURE GPRESSURE VOLUME PRESSAVG GPRESSAVG
ENERGY: 0 1.2458 7.4604 16.5053 0.0000 -10914.6808 1497.0849 0.0000 0.0000 1755.3092 -7637.0752 294.0941 -9392.3845 -7637.0752 294.0941 449.0044 534.7389 30136.5567 449.0044 534.7389
ENERGY: 300000 2.5874 9.5403 15.0398 0.0000 -10761.6010 1389.6876 0.0000 0.0000 1784.8314 -7559.9145 299.0405 -9344.7458 -7582.2332 299.9961 -481.8644 -442.6616 30643.6166 -281.1963 -222.8515
ENERGY: 600000 1.7218 8.2635 14.6521 0.0000 -10871.0775 1455.8712 0.0000 0.0000 1824.7083 -7565.8608 305.7217 -9390.5691 -7583.4560 300.2218 -297.5366 -244.7653 31020.1443 -171.5263 -109.8438
ENERGY: 900000 1.1397 14.4899 11.3281 0.0000 -10931.3895 1537.8057 0.0000 0.0000 1754.0841 -7612.5420 293.8889 -9366.6261 -7594.8261 299.4817 416.5496 445.3342 30704.9724 -58.8537 5.0055
ENERGY: 1200000 2.4711 5.2552 13.5240 0.0000 -10988.6795 1523.9585 0.0000 0.0000 1780.9096 -7662.5611 298.3834 -9443.4707 -7597.1756 299.1732 138.1658 208.1976 30579.5408 -23.4148 29.7122
ENERGY: 1500000 0.4742 8.0319 10.2893 0.0000 -10866.0654 1475.1976 0.0000 0.0000 1755.0296 -7617.0427 294.0473 -9372.0723 -7598.3541 298.7242 -81.1344 2.6880 30841.5474 -57.7065 -3.0123
TCL: Running FEP window   5: Lambda1 0.2    Lambda2 0.25   [dLambda 0.04999999999999999]
TCL: Setting parameter firsttimestep to 0
TCL: Setting parameter alchLambda to 0.2
Info: NONBONDED TABLE R-SQUARED SPACING: 0.0625
Info: NONBONDED TABLE SIZE: 705 POINTS
TCL: Setting parameter alchLambda2 to 0.25
Info: NONBONDED TABLE R-SQUARED SPACING: 0.0625
Info: NONBONDED TABLE SIZE: 705 POINTS
TCL: Running for 1500000 steps
ETITLE: TS BOND ANGLE DIHED IMPRP ELECT VDW BOUNDARY MISC KINETIC TOTAL TEMP POTENTIAL TOTALAVG TEMPAVG PRESSURE GPRESSURE VOLUME PRESSAVG GPRESSAVG
ENERGY: 0 0.4742 8.0319 10.2893 0.0000 -10866.0630 1476.0590 0.0000 0.0000 1754.1627 -7617.0459 293.9021 -9371.2086 -7617.0459 293.9021 -82.7688 9.3099 30841.5474 -82.7688 9.3099
ENERGY: 300000 1.9711 7.8378 13.4896 0.0000 -10798.8433 1400.0388 0.0000 0.0000 1790.7603 -7584.7456 300.0338 -9375.5060 -7585.3028 299.4697 -571.6307 -489.9395 30804.1772 -257.6905 -182.6025
ENERGY: 600000 5.3586 7.5711 12.6337 0.0000 -10999.0631 1536.3390 0.0000 0.0000 1769.1904 -7667.9703 296.4199 -9437.1607 -7597.0463 299.6341 321.4845 376.4868 30600.8680 -176.0941 -104.4017
ENERGY: 900000 5.4676 12.5612 10.4973 0.0000 -10784.7300 1358.0925 0.0000 0.0000 1766.4611 -7631.6504 295.9626 -9398.1115 -7598.4373 298.2621 -993.4749 -947.6701 30455.8325 -329.6443 -255.4125
ENERGY: 1200000 1.6751 9.9944 14.1030 0.0000 -10909.8583 1467.7399 0.0000 0.0000 1753.2125 -7663.1335 293.7429 -9416.3460 -7587.4652 298.5913 -181.7870 -122.9540 30598.4217 -293.9284 -232.3276
ENERGY: 1500000 0.5935 11.6514 13.6165 0.0000 -10978.0697 1491.0697 0.0000 0.0000 1800.6920 -7660.4466 301.6978 -9461.1386 -7580.4859 300.2541 233.1706 276.1825 30127.6670 -277.7591 -218.3739
TCL: Running FEP window   6: Lambda1 0.25   Lambda2 0.3    [dLambda 0.04999999999999999]
TCL: Setting parameter firsttimestep to 0
TCL: Setting parameter alchLambda to 0.25
Info: NONBONDED TABLE R-SQUARED SPACING: 0.0625
Info: NONBONDED TABLE SIZE: 705 POINTS
TCL: Setting parameter alchLambda2 to 0.3
Info: NONBONDED TABLE R-SQUARED SPACING: 0.0625
Info: NONBONDED TABLE SIZE: 705 POINTS
TCL: Running for 1500000 steps
ETITLE: TS BOND ANGLE DIHED IMPRP ELECT VDW BOUNDARY MISC KINETIC TOTAL TEMP POTENTIAL TOTALAVG TEMPAVG PRESSURE GPRESSURE VOLUME PRESSAVG GPRESSAVG
ENERGY: 0 0.5935 11.6514 13.6165 0.0000 -10978.0712 1492.4672 0.0000 0.0000 1799.8269 -7659.9159 301.5529 -9459.7427 -7659.9159 301.5529 194.6851 290.2809 30127.6670 194.6851 290.2809
ENERGY: 300000 2.3753 8.9428 11.9522 0.0000 -10898.8233 1536.2914 0.0000 0.0000 1775.6045 -7563.6571 297.4945 -9339.2616 -7566.1757 303.7779 485.5145 505.8556 31254.2075 301.5373 330.5897
ENERGY: 600000 1.7906 12.5290 10.4942 0.0000 -10929.9076 1502.6138 0.0000 0.0000 1773.7808 -7628.6992 297.1890 -9402.4800 -7578.5449 302.1387 295.7844 316.1808 30646.9664 125.9636 148.8306
ENERGY: 900000 1.3389 15.7050 16.5779 0.0000 -10872.0341 1484.2912 0.0000 0.0000 1805.7813 -7548.3398 302.5505 -9354.1211 -7572.3735 302.5780 176.7300 253.3577 30755.7377 -16.7210 22.5745
ENERGY: 1200000 2.0009 8.7348 13.5819 0.0000 -10828.7129 1468.3136 0.0000 0.0000 1770.6487 -7565.4330 296.6642 -9336.0817 -7567.4893 301.9306 -91.3971 -26.2535 30973.2120 -61.9987 -7.6976
ENERGY: 1500000 2.5263 7.0617 11.9341 0.0000 -10855.9047 1534.5184 0.0000 0.0000 1765.3394 -7534.5247 295.7747 -9299.8641 -7565.2844 301.8176 748.8172 891.7231 30617.1628 -76.8967 -10.1013
TCL: Running FEP window   7: Lambda1 0.3    Lambda2 0.35   [dLambda 0.04999999999999999]
TCL: Setting parameter firsttimestep to 0
TCL: Setting parameter alchLambda to 0.3
Info: NONBONDED TABLE R-SQUARED SPACING: 0.0625
Info: NONBONDED TABLE SIZE: 705 POINTS
TCL: Setting parameter alchLambda2 to 0.35
Info: NONBONDED TABLE R-SQUARED SPACING: 0.0625
Info: NONBONDED TABLE SIZE: 705 POINTS
TCL: Running for 1500000 steps
ETITLE: TS BOND ANGLE DIHED IMPRP ELECT VDW BOUNDARY MISC KINETIC TOTAL TEMP POTENTIAL TOTALAVG TEMPAVG PRESSURE GPRESSURE VOLUME PRESSAVG GPRESSAVG
ENERGY: 0 2.5263 7.0617 11.9341 0.0000 -10855.9039 1535.9786 0.0000 0.0000 1764.4515 -7533.9518 295.6259 -9298.4032 -7533.9518 295.6259 826.6049 906.6611 30617.1628 826.6049 906.6611
ENERGY: 300000 0.6285 9.3849 11.2773 0.0000 -10795.2804 1508.6533 0.0000 0.0000 1829.5566 -7435.7798 306.5340 -9265.3364 -7555.4348 300.8379 502.7819 507.5942 30867.2480 662.4661 719.1114
ENERGY: 600000 2.0536 7.5267 12.4813 0.0000 -10829.7393 1462.4387 0.0000 0.0000 1818.6734 -7526.5656 304.7105 -9345.2391 -7550.0749 300.1563 15.5614 31.2821 31062.5505 402.0736 448.9603
ENERGY: 900000 1.8165 9.9058 13.3246 0.0000 -10953.5759 1533.6879 0.0000 0.0000 1770.3890 -7624.4521 296.6207 -9394.8411 -7549.8277 301.3289 501.1463 527.8561 30484.2287 392.0495 436.1139
ENERGY: 1200000 1.1256 11.1645 13.1449 0.0000 -10833.1706 1479.9820 0.0000 0.0000 1810.6549 -7517.0986 303.3671 -9327.7535 -7547.7311 300.3979 -20.1839 30.6840 31141.7061 279.9418 334.3640
ENERGY: 1500000 1.6335 7.2320 13.9390 0.0000 -10945.1181 1507.1318 0.0000 0.0000 1785.2855 -7629.8962 299.1165 -9415.1817 -7561.7725 299.7774 315.1861 408.5019 30373.9740 281.5354 337.7280
TCL: Running FEP window   8: Lambda1 0.35   Lambda2 0.39999999999999997 [dLambda 0.04999999999999999]
TCL: Setting parameter firsttimestep to 0
TCL: Setting parameter alchLambda to 0.35
Info: NONBONDED TABLE R-SQUARED SPACING: 0.0625
Info: NONBONDED TABLE SIZE: 705 POINTS
TCL: Setting parameter alchLambda2 to 0.39999999999999997
Info: NONBONDED TABLE R-SQUARED SPACING: 0.0625
Info: NONBONDED TABLE SIZE: 705 POINTS
TCL: Running for 1500000 steps
ETITLE: TS BOND ANGLE DIHED IMPRP ELECT VDW BOUNDARY MISC KINETIC TOTAL TEMP POTENTIAL TOTALAVG TEMPAVG PRESSURE GPRESSURE VOLUME PRESSAVG GPRESSAVG
ENERGY: 0 1.6335 7.2320 13.9390 0.0000 -10945.1173 1508.7579 0.0000 0.0000 1784.3888 -7629.1660 298.9663 -9413.5549 -7629.1660 298.9663 344.8244 426.2784 30373.9740 344.8244 426.2784
ENERGY: 300000 0.4048 5.4600 13.4684 0.0000 -10773.7765 1407.4389 0.0000 0.0000 1824.5019 -7522.5026 305.6871 -9347.0046 -7550.1922 304.6987 -527.1154 -394.8608 31059.3271 -127.0502 -48.6410
ENERGY: 600000 0.8590 10.2808 11.6860 0.0000 -10862.7099 1480.3586 0.0000 0.0000 1810.7259 -7548.7996 303.3790 -9359.5255 -7544.9263 305.3637 265.3823 332.7352 30392.3291 25.4752 113.9471
ENERGY: 900000 2.4289 9.8434 14.6282 0.0000 -10874.7614 1456.2289 0.0000 0.0000 1819.1166 -7572.5154 304.7848 -9391.6320 -7558.7506 302.6802 -188.2909 -99.8865 30744.0271 8.4083 89.1600
ENERGY: 1200000 1.6052 9.8531 12.8396 0.0000 -10911.8471 1505.7865 0.0000 0.0000 1772.2519 -7609.5108 296.9328 -9381.7627 -7566.2226 301.0484 318.8957 343.0942 30583.8243 9.4641 85.1137
ENERGY: 1500000 4.4496 10.6349 14.6298 0.0000 -10881.3689 1475.2611 0.0000 0.0000 1742.7123 -7633.6812 291.9836 -9376.3935 -7562.1028 301.6238 -123.0214 -89.0732 30516.0909 -14.4949 56.6108
TCL: Running FEP window   9: Lambda1 0.39999999999999997 Lambda2 0.44999999999999996 [dLambda 0.04999999999999999]
TCL: Setting parameter firsttimestep to 0
TCL: Setting parameter alchLambda to 0.39999999999999997
Info: NONBONDED TABLE R-SQUARED SPACING: 0.0625
Info: NONBONDED TABLE SIZE: 705 POINTS
TCL: Setting parameter alchLambda2 to 0.44999999999999996
Info: NONBONDED TABLE R-SQUARED SPACING: 0.0625
Info: NONBONDED TABLE SIZE: 705 POINTS
TCL: Running for 1500000 steps
ETITLE: TS BOND ANGLE DIHED IMPRP ELECT VDW BOUNDARY MISC KINETIC TOTAL TEMP POTENTIAL TOTALAVG TEMPAVG PRESSURE GPRESSURE VOLUME PRESSAVG GPRESSAVG
ENERGY: 0 4.4496 10.6349 14.6298 0.0000 -10881.3686 1474.9665 0.0000 0.0000 1741.8319 -7634.8560 291.8361 -9376.6878 -7634.8560 291.8361 -173.5716 -86.4917 30516.0909 -173.5716 -86.4917
ENERGY: 300000 1.8108 5.3106 14.2018 0.0000 -10831.4739 1419.9655 0.0000 0.0000 1811.5714 -7578.6139 303.5206 -9390.1853 -7592.2137 296.4867 -184.0896 -117.5571 30431.1684 -71.6326 -1.7398
ENERGY: 600000 0.6494 10.5084 11.8535 0.0000 -10785.0099 1427.2762 0.0000 0.0000 1837.6691 -7497.0534 307.8932 -9334.7224 -7570.2043 298.8649 -201.1114 -159.1984 30991.7459 85.1092 140.0032
ENERGY: 900000 1.4269 7.7175 12.4915 0.0000 -10901.6187 1498.3517 0.0000 0.0000 1813.6101 -7568.0210 303.8622 -9381.6311 -7576.2545 298.1032 471.9089 514.7692 30139.6427 170.3503 223.0124
ENERGY: 1200000 1.2313 9.1941 12.8478 0.0000 -10868.5899 1402.6023 0.0000 0.0000 1825.5216 -7617.1928 305.8579 -9442.7143 -7573.1712 298.9916 -626.5307 -566.4451 30701.3187 83.0540 135.0873
ENERGY: 1500000 0.8488 8.8987 12.6356 0.0000 -10752.4525 1408.6062 0.0000 0.0000 1789.7979 -7531.6653 299.8726 -9321.4632 -7564.7284 299.0351 -442.9504 -337.7955 30825.9779 30.3844 91.6016
TCL: Running FEP window  10: Lambda1 0.44999999999999996 Lambda2 0.49999999999999994 [dLambda 0.04999999999999999]
TCL: Setting parameter firsttimestep to 0
TCL: Setting parameter alchLambda to 0.44999999999999996
Info: NONBONDED TABLE R-SQUARED SPACING: 0.0625
Info: NONBONDED TABLE SIZE: 705 POINTS
TCL: Setting parameter alchLambda2 to 0.49999999999999994
Info: NONBONDED TABLE R-SQUARED SPACING: 0.0625
Info: NONBONDED TABLE SIZE: 705 POINTS
TCL: Running for 1500000 steps
ETITLE: TS BOND ANGLE DIHED IMPRP ELECT VDW BOUNDARY MISC KINETIC TOTAL TEMP POTENTIAL TOTALAVG TEMPAVG PRESSURE GPRESSURE VOLUME PRESSAVG GPRESSAVG
ENERGY: 0 0.8488 8.8987 12.6356 0.0000 -10752.4524 1408.5746 0.0000 0.0000 1788.8599 -7532.6347 299.7154 -9321.4946 -7532.6347 299.7154 -415.6299 -329.6741 30825.9779 -415.6299 -329.6741
ENERGY: 300000 0.9615 8.6933 12.6067 0.0000 -10852.0149 1434.0625 0.0000 0.0000 1787.2239 -7608.4669 299.4413 -9395.6908 -7596.0891 297.9072 -163.0518 -126.8178 30746.3639 224.2800 282.0660
ENERGY: 600000 3.3195 13.0060 12.1449 0.0000 -10860.5049 1405.6107 0.0000 0.0000 1840.3313 -7586.0925 308.3392 -9426.4237 -7586.3037 299.3765 -893.2043 -903.7241 31275.4147 -123.0764 -73.0193
ENERGY: 900000 1.0503 10.4972 13.5495 0.0000 -10923.4542 1482.7130 0.0000 0.0000 1737.3719 -7678.2723 291.0888 -9415.6442 -7586.2021 299.3273 -126.9864 -48.3145 30897.9919 -102.2235 -43.2677
ENERGY: 1200000 1.8991 9.2440 13.5652 0.0000 -10809.4198 1451.7777 0.0000 0.0000 1784.4277 -7548.5061 298.9728 -9332.9338 -7584.3802 299.2548 12.6437 12.0978 30823.9116 -62.9326 -12.3408
ENERGY: 1500000 1.7279 12.0311 10.9792 0.0000 -10910.3596 1459.3432 0.0000 0.0000 1727.9703 -7698.3080 289.5136 -9426.2783 -7590.9005 298.5179 -125.2578 -75.9238 30574.7063 -108.2593 -63.4179
TCL: Running FEP window  11: Lambda1 0.49999999999999994 Lambda2 0.5499999999999999 [dLambda 0.04999999999999999]
TCL: Setting parameter firsttimestep to 0
TCL: Setting parameter alchLambda to 0.49999999999999994
Info: NONBONDED TABLE R-SQUARED SPACING: 0.0625
Info: NONBONDED TABLE SIZE: 705 POINTS
TCL: Setting parameter alchLambda2 to 0.5499999999999999
Info: NONBONDED TABLE R-SQUARED SPACING: 0.0625
Info: NONBONDED TABLE SIZE: 705 POINTS
TCL: Running for 1500000 steps
ETITLE: TS BOND ANGLE DIHED IMPRP ELECT VDW BOUNDARY MISC KINETIC TOTAL TEMP POTENTIAL TOTALAVG TEMPAVG PRESSURE GPRESSURE VOLUME PRESSAVG GPRESSAVG
ENERGY: 0 1.7279 12.0311 10.9792 0.0000 -10910.3598 1460.1709 0.0000 0.0000 1727.0890 -7698.3618 289.3660 -9425.4507 -7698.3618 289.3660 -148.0773 -60.6287 30574.7063 -148.0773 -60.6287
ENERGY: 300000 1.3646 8.7119 12.3660 0.0000 -10939.2183 1502.9943 0.0000 0.0000 1747.9924 -7665.7890 292.8683 -9413.7814 -7655.8694 292.7650 -60.8220 55.6544 31170.4484 -156.2377 -66.4460
ENERGY: 600000 1.4569 7.2524 10.9375 0.0000 -10791.1164 1428.3394 0.0000 0.0000 1796.5796 -7546.5505 301.0088 -9343.1301 -7624.3498 296.1713 -67.9703 -35.8684 30605.5459 110.0661 167.7681
ENERGY: 900000 2.4812 6.3586 15.4357 0.0000 -10693.5326 1400.5347 0.0000 0.0000 1776.3379 -7492.3845 297.6174 -9268.7224 -7596.6915 297.4301 -413.5677 -334.3829 31051.0997 43.8997 104.5519
ENERGY: 1200000 1.4002 11.3734 11.6037 0.0000 -10855.1210 1479.7578 0.0000 0.0000 1774.6680 -7576.3179 297.3376 -9350.9860 -7592.4747 297.1224 -54.5631 -24.7935 31097.6114 -56.3565 2.3932
ENERGY: 1500000 2.8080 9.7923 15.9080 0.0000 -10966.1053 1565.0703 0.0000 0.0000 1864.0454 -7508.4813 312.3124 -9372.5267 -7583.7648 298.8377 1055.6704 1068.5690 30559.5326 -3.6800 54.1425
TCL: Running FEP window  12: Lambda1 0.5499999999999999 Lambda2 0.6    [dLambda 0.050000000000000044]
TCL: Setting parameter firsttimestep to 0
TCL: Setting parameter alchLambda to 0.5499999999999999
Info: NONBONDED TABLE R-SQUARED SPACING: 0.0625
Info: NONBONDED TABLE SIZE: 705 POINTS
TCL: Setting parameter alchLambda2 to 0.6
Info: NONBONDED TABLE R-SQUARED SPACING: 0.0625
Info: NONBONDED TABLE SIZE: 705 POINTS
TCL: Running for 1500000 steps
ETITLE: TS BOND ANGLE DIHED IMPRP ELECT VDW BOUNDARY MISC KINETIC TOTAL TEMP POTENTIAL TOTALAVG TEMPAVG PRESSURE GPRESSURE VOLUME PRESSAVG GPRESSAVG
ENERGY: 0 2.8080 9.7923 15.9080 0.0000 -10966.0575 1565.2867 0.0000 0.0000 1863.1707 -7509.0917 312.1659 -9372.2624 -7509.0917 312.1659 985.7430 1079.6526 30559.5326 985.7430 1079.6526
ENERGY: 300000 2.6271 5.9142 13.1311 0.0000 -10840.6703 1393.2342 0.0000 0.0000 1785.7324 -7640.0313 299.1914 -9425.7638 -7560.8583 304.7682 -498.0257 -402.4482 30531.5206 432.9875 495.1211
ENERGY: 600000 2.1065 11.7883 15.5944 0.0000 -10784.6567 1464.3350 0.0000 0.0000 1790.0271 -7500.8054 299.9110 -9290.8325 -7539.2007 303.9226 195.5947 335.6936 30923.1848 253.7540 336.1148
ENERGY: 900000 3.1171 6.3297 12.7377 0.0000 -10745.3070 1329.7992 0.0000 0.0000 1758.5989 -7634.7244 294.6453 -9393.3233 -7554.6818 302.1514 -1348.0759 -1297.3195 31129.8259 12.7591 82.9410
ENERGY: 1200000 2.0246 6.1930 13.4030 0.0000 -10814.3593 1424.8334 0.0000 0.0000 1797.7583 -7570.1471 301.2063 -9367.9054 -7547.6585 301.7491 -491.7907 -369.5242 30917.2411 -57.5064 8.7289
ENERGY: 1500000 0.7112 10.6238 13.5408 0.0000 -10773.4700 1399.1706 0.0000 0.0000 1785.7557 -7563.6679 299.1953 -9349.4236 -7551.9655 301.3900 -609.9094 -476.5279 30936.8490 -40.7173 21.0881
TCL: Running FEP window  13: Lambda1 0.6    Lambda2 0.65   [dLambda 0.050000000000000044]
TCL: Setting parameter firsttimestep to 0
TCL: Setting parameter alchLambda to 0.6
Info: NONBONDED TABLE R-SQUARED SPACING: 0.0625
Info: NONBONDED TABLE SIZE: 705 POINTS
TCL: Setting parameter alchLambda2 to 0.65
Info: NONBONDED TABLE R-SQUARED SPACING: 0.0625
Info: NONBONDED TABLE SIZE: 705 POINTS
TCL: Running for 1500000 steps
ETITLE: TS BOND ANGLE DIHED IMPRP ELECT VDW BOUNDARY MISC KINETIC TOTAL TEMP POTENTIAL TOTALAVG TEMPAVG PRESSURE GPRESSURE VOLUME PRESSAVG GPRESSAVG
ENERGY: 0 0.7112 10.6238 13.5408 0.0000 -10773.4730 1399.2672 0.0000 0.0000 1784.8360 -7564.4940 299.0412 -9349.3300 -7564.4940 299.0412 -565.8154 -470.1315 30936.8490 -565.8154 -470.1315
ENERGY: 300000 1.6633 7.6287 12.3065 0.0000 -11065.5662 1558.4257 0.0000 0.0000 1806.7419 -7678.8001 302.7115 -9485.5420 -7595.3778 299.9575 802.1768 826.3980 30063.0135 139.0699 201.3777
ENERGY: 600000 1.4934 7.5940 14.4693 0.0000 -10692.4724 1376.7286 0.0000 0.0000 1796.1880 -7495.9990 300.9432 -9292.1871 -7579.0789 299.1925 -299.2128 -311.2565 30849.4390 -17.6328 29.2420
ENERGY: 900000 0.8209 8.3414 12.4818 0.0000 -10804.5531 1465.5327 0.0000 0.0000 1763.1269 -7554.2494 295.4040 -9317.3763 -7576.4604 298.6220 262.3755 291.5828 30820.9937 68.7313 117.1402
ENERGY: 1200000 1.8123 5.5427 14.1874 0.0000 -10840.0419 1421.0306 0.0000 0.0000 1785.2323 -7612.2367 299.1076 -9397.4689 -7570.4992 299.3234 -469.5349 -367.1613 30896.5719 -8.9275 47.6840
ENERGY: 1500000 0.9277 10.6613 12.8147 0.0000 -10912.0892 1528.0647 0.0000 0.0000 1808.4119 -7551.2088 302.9913 -9359.6207 -7563.6972 299.8453 666.6858 752.8142 30679.6471 39.8339 97.5207
TCL: Running FEP window  14: Lambda1 0.65   Lambda2 0.7000000000000001 [dLambda 0.050000000000000044]
TCL: Setting parameter firsttimestep to 0
TCL: Setting parameter alchLambda to 0.65
Info: NONBONDED TABLE R-SQUARED SPACING: 0.0625
Info: NONBONDED TABLE SIZE: 705 POINTS
TCL: Setting parameter alchLambda2 to 0.7000000000000001
Info: NONBONDED TABLE R-SQUARED SPACING: 0.0625
Info: NONBONDED TABLE SIZE: 705 POINTS
TCL: Running for 1500000 steps
ETITLE: TS BOND ANGLE DIHED IMPRP ELECT VDW BOUNDARY MISC KINETIC TOTAL TEMP POTENTIAL TOTALAVG TEMPAVG PRESSURE GPRESSURE VOLUME PRESSAVG GPRESSAVG
ENERGY: 0 0.9277 10.6613 12.8147 0.0000 -10912.1299 1528.5177 0.0000 0.0000 1807.5084 -7551.7001 302.8399 -9359.2085 -7551.7001 302.8399 682.8025 767.1618 30679.6471 682.8025 767.1618
ENERGY: 300000 3.0433 5.7143 13.7228 0.0000 -10882.5405 1560.3582 0.0000 0.0000 1796.9211 -7502.7807 301.0660 -9299.7018 -7561.9903 300.2354 1076.1526 1142.0560 30550.6948 542.9669 580.5023
ENERGY: 600000 6.1788 10.0182 12.1371 0.0000 -10799.4804 1439.0666 0.0000 0.0000 1843.0037 -7489.0759 308.7870 -9332.0796 -7569.9269 299.7026 -387.6364 -363.5861 31035.3894 172.6700 223.7096
ENERGY: 900000 2.8763 6.7046 11.9435 0.0000 -10824.8886 1387.1041 0.0000 0.0000 1767.0062 -7649.2539 296.0539 -9416.2602 -7575.1467 298.5023 -779.4629 -751.5142 30940.0799 32.0561 83.2311
ENERGY: 1200000 5.1924 7.8231 11.3225 0.0000 -10623.8582 1274.2453 0.0000 0.0000 1794.6143 -7530.6607 300.6795 -9325.2750 -7566.8390 299.6398 -1642.9452 -1577.4883 31356.4832 -64.4952 -9.8769
ENERGY: 1500000 1.4311 8.9023 12.6958 0.0000 -10867.2234 1494.4933 0.0000 0.0000 1792.7063 -7556.9946 300.3599 -9349.7009 -7563.1092 300.2266 353.0170 425.2155 30685.7221 -89.3946 -34.9143
TCL: Running FEP window  15: Lambda1 0.7000000000000001 Lambda2 0.7500000000000001 [dLambda 0.050000000000000044]
TCL: Setting parameter firsttimestep to 0
TCL: Setting parameter alchLambda to 0.7000000000000001
Info: NONBONDED TABLE R-SQUARED SPACING: 0.0625
Info: NONBONDED TABLE SIZE: 705 POINTS
TCL: Setting parameter alchLambda2 to 0.7500000000000001
Info: NONBONDED TABLE R-SQUARED SPACING: 0.0625
Info: NONBONDED TABLE SIZE: 705 POINTS
TCL: Running for 1500000 steps
ETITLE: TS BOND ANGLE DIHED IMPRP ELECT VDW BOUNDARY MISC KINETIC TOTAL TEMP POTENTIAL TOTALAVG TEMPAVG PRESSURE GPRESSURE VOLUME PRESSAVG GPRESSAVG
ENERGY: 0 1.4311 8.9023 12.6958 0.0000 -10867.2620 1494.7020 0.0000 0.0000 1791.8486 -7557.6822 300.2162 -9349.5308 -7557.6822 300.2162 364.3852 437.4838 30685.7221 364.3852 437.4838
ENERGY: 300000 3.9163 12.3670 9.9033 0.0000 -10903.7873 1434.5817 0.0000 0.0000 1769.6413 -7673.3778 296.4954 -9443.0191 -7630.7268 299.5133 -690.4025 -563.4309 30973.4856 -213.0060 -134.0982
ENERGY: 600000 5.1054 11.6261 12.4911 0.0000 -10690.3498 1337.2991 0.0000 0.0000 1864.9335 -7458.8947 312.4612 -9323.8281 -7581.1613 302.6729 -734.5439 -773.9779 30848.9490 -267.1374 -210.3958
ENERGY: 900000 4.9781 5.0306 11.8489 0.0000 -10883.6527 1485.6131 0.0000 0.0000 1781.9683 -7594.2137 298.5608 -9376.1820 -7587.1120 301.5536 211.9817 287.7003 30518.0150 -282.3324 -223.2282
ENERGY: 1200000 1.9527 10.8886 12.3620 0.0000 -10769.4765 1450.4311 0.0000 0.0000 1799.4240 -7494.4182 301.4854 -9293.8421 -7579.7972 301.4165 147.8266 235.4279 30862.6781 -326.1642 -261.7830
ENERGY: 1500000 1.4238 10.7077 14.0083 0.0000 -10852.5638 1468.8779 0.0000 0.0000 1801.3947 -7556.1513 301.8156 -9357.5460 -7579.0727 301.2872 -92.5500 -97.7617 31247.2669 -201.2660 -147.0119
TCL: Running FEP window  16: Lambda1 0.7500000000000001 Lambda2 0.8000000000000002 [dLambda 0.050000000000000044]
TCL: Setting parameter firsttimestep to 0
TCL: Setting parameter alchLambda to 0.7500000000000001
Info: NONBONDED TABLE R-SQUARED SPACING: 0.0625
Info: NONBONDED TABLE SIZE: 705 POINTS
TCL: Setting parameter alchLambda2 to 0.8000000000000002
Info: NONBONDED TABLE R-SQUARED SPACING: 0.0625
Info: NONBONDED TABLE SIZE: 705 POINTS
TCL: Running for 1500000 steps
ETITLE: TS BOND ANGLE DIHED IMPRP ELECT VDW BOUNDARY MISC KINETIC TOTAL TEMP POTENTIAL TOTALAVG TEMPAVG PRESSURE GPRESSURE VOLUME PRESSAVG GPRESSAVG
ENERGY: 0 1.4238 10.7077 14.0083 0.0000 -10852.6096 1469.1312 0.0000 0.0000 1800.5218 -7556.8167 301.6693 -9357.3385 -7556.8167 301.6693 -180.5281 -85.5858 31247.2669 -180.5281 -85.5858
ENERGY: 300000 0.3669 9.1859 13.7301 0.0000 -10744.7627 1352.4944 0.0000 0.0000 1815.8341 -7553.1513 304.2348 -9368.9854 -7590.7026 302.4530 -756.6837 -671.0417 30656.0363 -248.1841 -180.2393
ENERGY: 600000 3.3234 8.5851 12.6808 0.0000 -10879.4368 1498.6398 0.0000 0.0000 1804.9832 -7551.2244 302.4168 -9356.2077 -7581.5775 301.6106 415.3797 493.2241 30651.2711 -85.9954 -15.2854
ENERGY: 900000 1.0808 7.0777 11.9989 0.0000 -10692.1432 1358.3239 0.0000 0.0000 1821.1809 -7492.4810 305.1307 -9313.6620 -7571.7625 301.5942 -757.9308 -707.5142 31264.1373 -72.7912 -9.5588
ENERGY: 1200000 0.5837 9.3284 13.3914 0.0000 -10919.4638 1543.2906 0.0000 0.0000 1747.1123 -7605.7573 292.7208 -9352.8697 -7573.6172 300.3938 581.0830 710.2684 30850.8297 -52.6437 20.4564
ENERGY: 1500000 1.2448 8.6413 12.7752 0.0000 -10728.6901 1357.0080 0.0000 0.0000 1782.9058 -7566.1151 298.7178 -9349.0209 -7568.7227 300.9189 -742.7137 -666.0821 30786.0232 -158.8782 -81.7099
TCL: Running FEP window  17: Lambda1 0.8000000000000002 Lambda2 0.8500000000000002 [dLambda 0.050000000000000044]
TCL: Setting parameter firsttimestep to 0
TCL: Setting parameter alchLambda to 0.8000000000000002
Info: NONBONDED TABLE R-SQUARED SPACING: 0.0625
Info: NONBONDED TABLE SIZE: 705 POINTS
TCL: Setting parameter alchLambda2 to 0.8500000000000002
Info: NONBONDED TABLE R-SQUARED SPACING: 0.0625
Info: NONBONDED TABLE SIZE: 705 POINTS
TCL: Running for 1500000 steps
ETITLE: TS BOND ANGLE DIHED IMPRP ELECT VDW BOUNDARY MISC KINETIC TOTAL TEMP POTENTIAL TOTALAVG TEMPAVG PRESSURE GPRESSURE VOLUME PRESSAVG GPRESSAVG
ENERGY: 0 1.2448 8.6413 12.7752 0.0000 -10728.7338 1357.3424 0.0000 0.0000 1782.0168 -7566.7133 298.5689 -9348.7301 -7566.7133 298.5689 -731.2350 -650.5453 30786.0232 -731.2350 -650.5453
ENERGY: 300000 1.7983 9.7936 12.1631 0.0000 -10803.8315 1441.3698 0.0000 0.0000 1832.2813 -7506.4255 306.9905 -9338.7068 -7535.6070 302.0215 210.0159 231.1968 30723.1871 108.2430 162.5744
ENERGY: 600000 1.8600 9.2548 11.9335 0.0000 -10721.7115 1399.7954 0.0000 0.0000 1795.6667 -7503.2010 300.8559 -9298.8677 -7537.6165 301.2217 -581.7811 -466.1581 31387.6317 -173.3074 -99.6979
ENERGY: 900000 1.4431 8.5200 14.8074 0.0000 -10802.4676 1439.6992 0.0000 0.0000 1748.8925 -7589.1054 293.0191 -9337.9980 -7548.3668 299.8324 -265.0045 -210.0448 31147.9422 -123.5587 -53.9046
ENERGY: 1200000 2.4479 9.3337 11.7644 0.0000 -10739.0845 1422.9228 0.0000 0.0000 1767.7585 -7524.8572 296.1800 -9292.6157 -7550.4734 299.5796 -221.2595 -138.5719 31455.0268 -39.5593 32.8435
ENERGY: 1500000 3.0840 11.2206 14.4385 0.0000 -10813.0838 1370.1681 0.0000 0.0000 1817.3319 -7596.8407 304.4858 -9414.1726 -7556.8062 300.0344 -805.0496 -752.9463 30967.2193 -141.0574 -74.8765
TCL: Running FEP window  18: Lambda1 0.8500000000000002 Lambda2 0.9000000000000002 [dLambda 0.050000000000000044]
TCL: Setting parameter firsttimestep to 0
TCL: Setting parameter alchLambda to 0.8500000000000002
Info: NONBONDED TABLE R-SQUARED SPACING: 0.0625
Info: NONBONDED TABLE SIZE: 705 POINTS
TCL: Setting parameter alchLambda2 to 0.9000000000000002
Info: NONBONDED TABLE R-SQUARED SPACING: 0.0625
Info: NONBONDED TABLE SIZE: 705 POINTS
TCL: Running for 1500000 steps
ETITLE: TS BOND ANGLE DIHED IMPRP ELECT VDW BOUNDARY MISC KINETIC TOTAL TEMP POTENTIAL TOTALAVG TEMPAVG PRESSURE GPRESSURE VOLUME PRESSAVG GPRESSAVG
ENERGY: 0 3.0840 11.2206 14.4385 0.0000 -10813.0313 1370.4810 0.0000 0.0000 1816.4346 -7597.3726 304.3354 -9413.8072 -7597.3726 304.3354 -812.8226 -735.0606 30967.2193 -812.8226 -735.0606
ENERGY: 300000 1.4048 10.0947 12.5536 0.0000 -10728.4175 1357.6737 0.0000 0.0000 1783.8865 -7562.8042 298.8821 -9346.6907 -7578.7288 301.4467 -818.0769 -688.5802 30960.6476 -588.2134 -504.0665
ENERGY: 600000 1.5589 8.8312 14.9058 0.0000 -10966.5981 1539.0333 0.0000 0.0000 1747.0271 -7655.2418 292.7065 -9402.2689 -7582.9096 301.4133 443.5004 536.4577 30638.7946 -221.2832 -137.3265
ENERGY: 900000 1.1442 12.5180 14.6231 0.0000 -10684.6327 1386.0589 0.0000 0.0000 1795.5284 -7474.7601 300.8327 -9270.2885 -7579.8515 300.1606 -457.6533 -417.9728 31419.4863 -377.7870 -306.5536
ENERGY: 1200000 2.5238 7.9530 12.7990 0.0000 -10913.7756 1430.8636 0.0000 0.0000 1855.0214 -7604.6148 310.8005 -9459.6362 -7588.2613 301.7078 -331.8254 -288.2082 30661.3624 -322.8695 -258.9531
ENERGY: 1500000 1.3772 9.1763 14.0744 0.0000 -10947.0159 1513.3782 0.0000 0.0000 1840.8203 -7568.1894 308.4212 -9409.0097 -7580.9588 301.5929 470.7324 561.1303 30697.3809 -166.9200 -104.2873
TCL: Running FEP window  19: Lambda1 0.9000000000000002 Lambda2 0.9500000000000003 [dLambda 0.050000000000000044]
TCL: Setting parameter firsttimestep to 0
TCL: Setting parameter alchLambda to 0.9000000000000002
Info: NONBONDED TABLE R-SQUARED SPACING: 0.0625
Info: NONBONDED TABLE SIZE: 705 POINTS
TCL: Setting parameter alchLambda2 to 0.9500000000000003
Info: NONBONDED TABLE R-SQUARED SPACING: 0.0625
Info: NONBONDED TABLE SIZE: 705 POINTS
TCL: Running for 1500000 steps
ETITLE: TS BOND ANGLE DIHED IMPRP ELECT VDW BOUNDARY MISC KINETIC TOTAL TEMP POTENTIAL TOTALAVG TEMPAVG PRESSURE GPRESSURE VOLUME PRESSAVG GPRESSAVG
ENERGY: 0 1.3772 9.1763 14.0745 0.0000 -10947.2611 1513.0052 0.0000 0.0000 1839.9529 -7569.6751 308.2758 -9409.6280 -7569.6751 308.2758 473.4320 567.8594 30697.3809 473.4320 567.8594
ENERGY: 300000 0.8947 12.3396 12.8617 0.0000 -10814.1547 1421.8529 0.0000 0.0000 1782.4483 -7583.7574 298.6412 -9366.2058 -7566.1283 300.7782 23.2882 87.6417 30630.9927 -94.7899 -55.3878
ENERGY: 600000 4.2846 7.4976 13.2431 0.0000 -10815.5965 1377.5746 0.0000 0.0000 1780.4659 -7632.5307 298.3090 -9412.9966 -7569.5093 299.3927 -887.6370 -819.6234 31073.6105 -318.5447 -278.2872
ENERGY: 900000 2.1783 6.9332 12.4102 0.0000 -10765.8834 1471.1429 0.0000 0.0000 1820.7555 -7452.4632 305.0594 -9273.2187 -7558.1588 300.5657 309.8945 342.2153 31234.2288 -135.7585 -95.6653
ENERGY: 1200000 1.6881 12.6606 11.8958 0.0000 -10848.3406 1396.7058 0.0000 0.0000 1793.7222 -7631.6681 300.5301 -9425.3903 -7580.2558 300.3097 -390.6859 -331.0263 30614.0769 -213.4763 -163.1994
ENERGY: 1500000 1.3853 5.5244 11.0585 0.0000 -10709.9796 1333.7580 0.0000 0.0000 1759.2040 -7599.0493 294.7467 -9358.2533 -7583.6650 299.2145 -1011.0101 -933.2782 30993.1375 -260.6742 -209.4331
TCL: Running FEP window  20: Lambda1 0.9500000000000003 Lambda2 1.0    [dLambda 0.04999999999999971]
TCL: Setting parameter firsttimestep to 0
TCL: Setting parameter alchLambda to 0.9500000000000003
Info: NONBONDED TABLE R-SQUARED SPACING: 0.0625
Info: NONBONDED TABLE SIZE: 705 POINTS
TCL: Setting parameter alchLambda2 to 1.0
Info: NONBONDED TABLE R-SQUARED SPACING: 0.0625
Info: NONBONDED TABLE SIZE: 705 POINTS
TCL: Running for 1500000 steps
ETITLE: TS BOND ANGLE DIHED IMPRP ELECT VDW BOUNDARY MISC KINETIC TOTAL TEMP POTENTIAL TOTALAVG TEMPAVG PRESSURE GPRESSURE VOLUME PRESSAVG GPRESSAVG
ENERGY: 0 1.3853 5.5244 11.0585 0.0000 -10710.0349 1333.3313 0.0000 0.0000 1758.3331 -7600.4021 294.6008 -9358.7353 -7600.4021 294.6008 -1015.7298 -925.2723 30993.1375 -1015.7298 -925.2723
ENERGY: 300000 0.2553 9.6543 11.7198 0.0000 -10817.4260 1452.7835 0.0000 0.0000 1804.7437 -7538.2695 302.3767 -9343.0131 -7587.8892 296.5976 53.8816 130.1254 30986.3131 -296.3679 -241.5062
ENERGY: 600000 1.7169 7.5152 10.7454 0.0000 -11055.9683 1649.5951 0.0000 0.0000 1838.0707 -7548.3250 307.9605 -9386.3957 -7590.6743 299.6305 1499.2099 1600.8122 30754.8138 103.9107 170.8279
ENERGY: 900000 3.7272 7.7955 11.9535 0.0000 -10959.1985 1511.7025 0.0000 0.0000 1827.6892 -7596.3307 306.2211 -9424.0198 -7579.6174 301.3327 494.1639 532.8856 30483.6638 107.7958 171.7929
ENERGY: 1200000 0.8125 11.1878 11.5307 0.0000 -10883.0610 1476.5090 0.0000 0.0000 1797.5284 -7585.4925 301.1678 -9383.0210 -7582.3994 300.5089 -173.6607 -118.7049 31354.7922 -16.4039 44.5640
ENERGY: 1500000 3.0367 8.7864 10.9877 0.0000 -10877.0108 1470.0979 0.0000 0.0000 1805.3970 -7578.7051 302.4861 -9384.1021 -7571.2427 301.6920 -130.6910 -73.6857 31132.6871 -35.5298 29.4423
TCL: Exiting due to exit command.
