Info: SIMULATION PARAMETERS:
Info: TIMESTEP               2
Info: NUMBER OF STEPS        0
Info: STEPS PER CYCLE        10
Info: PERIODIC CELL BASIS 1  33.0757 0 0
Info: PERIODIC CELL BASIS 2  0 28.312 0
Info: PERIODIC CELL BASIS 3  0 0 32.5858
Info: PERIODIC CELL CENTER   0 0 0
Info: WRAPPING WATERS AROUND PERIODIC BOUNDARIES ON OUTPUT.
Info: WRAPPING ALL CLUSTERS AROUND PERIODIC BOUNDARIES ON OUTPUT.
Info: FIRST LDB TIMESTEP     50
Info: LAST LDB TIMESTEP     -1
Info: HOM BACKGROUND SCALING 1
Info: PME BACKGROUND SCALING 1
Info: MIN ATOMS PER PATCH    40
Info: EMPTY PATCH LOAD       40 ATOMS
Info: VELOCITY FILE          mobley_2523689_equil.vel
Info: CENTER OF MASS MOVING INITIALLY? NO
Info: DIELECTRIC             1
Info: EXCLUDE                SCALED ONE-FOUR
Info: 1-4 ELECTROSTATICS SCALED BY 0.833333
Info: MODIFIED 1-4 VDW PARAMETERS WILL BE USED
Info: DCD FILENAME           mobley_2523689_prod.dcd
Info: DCD FREQUENCY          100000
Info: DCD FIRST STEP         100000
Info: DCD FILE WILL CONTAIN UNIT CELL DATA
Info: XST FILENAME           mobley_2523689_prod.xst
Info: XST FREQUENCY          100000
Info: NO VELOCITY DCD OUTPUT
Info: NO FORCE DCD OUTPUT
Info: OUTPUT FILENAME        mobley_2523689_prod
Info: BINARY OUTPUT FILES WILL BE USED
Info: RESTART FILENAME       mobley_2523689_prod.restart
Info: RESTART FREQUENCY      100000
Info: BINARY RESTART FILES WILL BE USED
Info: CUTOFF                 9
Info: PAIRLIST DISTANCE      11
Info: PAIRLIST SHRINK RATE   0.01
Info: PAIRLIST GROW RATE     0.01
Info: PAIRLIST TRIGGER       0.3
Info: PAIRLISTS PER CYCLE    2
Info: PAIRLISTS ENABLED
Info: MARGIN                 2
Info: HYDROGEN GROUP CUTOFF  2.5
Info: PATCH DIMENSION        15.5
Info: ENERGY OUTPUT STEPS    100000
Info: ENERGY EVALUATION STEPS    100000
Info: OUTPUT ENERGY PRECISION 4
Info: CROSSTERM ENERGY INCLUDED IN DIHEDRAL
Info: TIMING OUTPUT STEPS    1000000
Info: PRESSURE OUTPUT STEPS  100000
Info: ALCHEMICAL FEP ON
Info: FEP CURRENT LAMBDA VALUE     1
Info: FEP COMPARISON LAMBDA VALUE  0.95
Info: FEP INTRA-ALCHEMICAL NON-BONDED INTERACTIONS WILL BE RETAINED
Info: FEP INTRA-ALCHEMICAL BONDED INTERACTIONS WILL BE RETAINED
Info: FEP VDW SHIFTING COEFFICIENT 5
Info: FEP ELEC. ACTIVE FOR ANNIHILATED PARTICLES BETWEEN LAMBDA = 0 AND LAMBDA = 0.5
Info: FEP ELEC. ACTIVE FOR EXNIHILATED PARTICLES BETWEEN LAMBDA = 0.5 AND LAMBDA = 1
Info: FEP VDW ACTIVE FOR ANNIHILATED PARTICLES BETWEEN LAMBDA = 0 AND LAMBDA = 1
Info: FEP VDW ACTIVE FOR EXNIHILATED PARTICLES BETWEEN LAMBDA = 0 AND LAMBDA = 1
Info: FEP BOND ACTIVE FOR ANNIHILATED PARTICLES BETWEEN LAMBDA = 1 AND LAMBDA = 1
Info: FEP BOND ACTIVE FOR EXNIHILATED PARTICLES BETWEEN LAMBDA = 0 AND LAMBDA = 0
Info: LANGEVIN DYNAMICS ACTIVE
Info: LANGEVIN TEMPERATURE   300
Info: LANGEVIN USING BBK INTEGRATOR
Info: LANGEVIN DAMPING COEFFICIENT IS 1 INVERSE PS
Info: LANGEVIN DYNAMICS APPLIED TO HYDROGENS
Info: LANGEVIN PISTON PRESSURE CONTROL ACTIVE
Info:        TARGET PRESSURE IS 1.01325 BAR
Info:     OSCILLATION PERIOD IS 50 FS
Info:             DECAY TIME IS 25 FS
Info:     PISTON TEMPERATURE IS 300 K
Info:       PRESSURE CONTROL IS GROUP-BASED
Info:    INITIAL STRAIN RATE IS -0.000349893 -0.000349893 -0.000349893
Info:       CELL FLUCTUATION IS ISOTROPIC
Info: PARTICLE MESH EWALD (PME) ACTIVE
Info: PME TOLERANCE               1e-06
Info: PME EWALD COEFFICIENT       0.348832
Info: PME INTERPOLATION ORDER     4
Info: PME GRID DIMENSIONS         36 32 36
Info: PME MAXIMUM GRID SPACING    1
Info: PME CALCULATION WILL BE PERFORMED ON GPU
Info: FULL ELECTROSTATIC EVALUATION FREQUENCY      2
Info: USING VERLET I (r-RESPA) MTS SCHEME.
Info: C1 SPLITTING OF LONG RANGE ELECTROSTATICS
Info: PLACING ATOMS IN PATCHES BY HYDROGEN GROUPS
Info: RIGID BONDS TO HYDROGEN : ALL
Info:         ERROR TOLERANCE : 1e-08
Info:          MAX ITERATIONS : 100
Info: RIGID WATER USING SETTLE ALGORITHM
Info: RANDOM NUMBER SEED     1743803977
Info: USE HYDROGEN BONDS?    NO
Info: Using AMBER format force field!
Info: AMBER PARM FILE        mobley_2523689.prmtop
Info: COORDINATE PDB         mobley_2523689.pdb
Info: Exclusions will be read from PARM file!
Info: SCNB (VDW SCALING)     2
Info: USING ARITHMETIC MEAN TO COMBINE L-J SIGMA PARAMETERS
Info: BINARY COORDINATES     mobley_2523689_equil.coor
Info: SUMMARY OF PARAMETERS:
Info: 16 BONDS
Info: 21 ANGLES
Info:   21 HARMONIC
Info:   0 COSINE-BASED
Info: 10 DIHEDRAL
Info: 0 IMPROPER
Info: 0 CROSSTERM
Info: 0 VDW
Info: 45 VDW_PAIRS
Info: 0 NBTHOLE_PAIRS
Info: To read alchdata from file: mobley_2523689.pdb
Info: To read alchflag data from column: 5
Info: STRUCTURE SUMMARY:
Info: 2915 ATOMS
Info: 2916 BONDS
Info: 37 ANGLES
Info: 64 DIHEDRALS
Info: 0 IMPROPERS
Info: 0 CROSSTERMS
Info: 2999 EXCLUSIONS
Info: 2900 RIGID BONDS
Info: ALCH: 0 ATOMS TO DISAPPEAR IN FINAL STATE
Info: ALCH: 23 ATOMS TO APPEAR IN FINAL STATE
Info: 5845 DEGREES OF FREEDOM
Info: 979 HYDROGEN GROUPS
Info: 3 ATOMS IN LARGEST HYDROGEN GROUP
Info: 979 MIGRATION GROUPS
Info: 3 ATOMS IN LARGEST MIGRATION GROUP
Info: TOTAL MASS = 17589.1 amu
Info: TOTAL CHARGE = -9.99644e-05 e
Info: MASS DENSITY = 0.957179 g/cm^3
Info: ATOM DENSITY = 0.0955278 atoms/A^3
Info: ADDED 0 IMPLICIT EXCLUSIONS
Info: NONBONDED TABLE R-SQUARED SPACING: 0.0625
Info: NONBONDED TABLE SIZE: 705 POINTS
Info: REMOVING COM VELOCITY -0.0917296 0.103609 -0.0515136
Info: Use 3D box decompostion in PME FFT.
Info: Updated CUDA force table with 4096 elements.
Info: Updated CUDA LJ table with 9 x 9 elements.
Info: Found 25 unique exclusion lists needing 72 bytes
TCL: Running for 1500000 steps
ETITLE: TS BOND ANGLE DIHED IMPRP ELECT VDW BOUNDARY MISC KINETIC TOTAL TEMP POTENTIAL TOTALAVG TEMPAVG PRESSURE GPRESSURE VOLUME PRESSAVG GPRESSAVG
ENERGY: 0 5.6596 9.7101 10.7259 0.0000 -10463.1025 1386.9883 0.0000 0.0000 1684.6049 -7365.4137 290.0707 -9050.0186 -7365.4137 290.0707 -384.1595 -302.1749 30514.6785 -384.1595 -302.1749
ENERGY: 300000 8.8369 6.9999 12.8554 0.0000 -10329.3913 1328.5731 0.0000 0.0000 1780.8895 -7191.2365 306.6499 -8972.1261 -7320.7611 298.9094 -454.4920 -366.4615 30093.0246 -331.9063 -240.6914
ENERGY: 600000 5.8955 10.9072 10.6324 0.0000 -10413.3750 1331.0448 0.0000 0.0000 1800.6788 -7254.2163 310.0574 -9054.8950 -7318.0977 300.5441 -574.7421 -507.6120 30030.3878 -203.3358 -120.3205
ENERGY: 900000 8.5337 7.1490 9.1340 0.0000 -10587.5992 1443.3569 0.0000 0.0000 1733.9184 -7385.5073 298.5620 -9119.4256 -7308.6818 300.9979 449.0711 488.0686 29669.8012 -106.2941 -30.3085
ENERGY: 1200000 2.9989 9.5831 7.1585 0.0000 -10450.6678 1377.1766 0.0000 0.0000 1709.0650 -7344.6857 294.2825 -9053.7507 -7326.4163 299.9732 88.1670 141.3535 29601.8369 -40.3917 29.5406
ENERGY: 1500000 4.9374 8.6299 9.1993 0.0000 -10401.2420 1332.8963 0.0000 0.0000 1696.4904 -7349.0887 292.1173 -9045.5791 -7330.9940 299.0193 -763.0528 -730.5406 30326.5680 -104.0231 -31.4360
TCL: Running FEP window   2: Lambda1 0.95   Lambda2 0.8999999999999999 [dLambda -0.050000000000000044]
TCL: Setting parameter firsttimestep to 0
TCL: Setting parameter alchLambda to 0.95
Info: NONBONDED TABLE R-SQUARED SPACING: 0.0625
Info: NONBONDED TABLE SIZE: 705 POINTS
TCL: Setting parameter alchLambda2 to 0.8999999999999999
Info: NONBONDED TABLE R-SQUARED SPACING: 0.0625
Info: NONBONDED TABLE SIZE: 705 POINTS
TCL: Running for 1500000 steps
ETITLE: TS BOND ANGLE DIHED IMPRP ELECT VDW BOUNDARY MISC KINETIC TOTAL TEMP POTENTIAL TOTALAVG TEMPAVG PRESSURE GPRESSURE VOLUME PRESSAVG GPRESSAVG
ENERGY: 0 4.9374 8.6299 9.1993 0.0000 -10397.3899 1333.2152 0.0000 0.0000 1695.6146 -7345.7935 291.9665 -9041.4081 -7345.7935 291.9665 -805.9803 -738.4274 30326.5680 -805.9803 -738.4274
ENERGY: 300000 4.3985 8.0815 6.1878 0.0000 -10410.0671 1324.4641 0.0000 0.0000 1751.5824 -7315.3528 301.6035 -9066.9352 -7375.7602 295.0203 -691.3622 -628.6702 29943.2216 -337.5866 -266.1764
ENERGY: 600000 4.3231 8.2668 11.6409 0.0000 -10606.0380 1449.8755 0.0000 0.0000 1751.2721 -7380.6596 301.5501 -9131.9317 -7364.0558 298.1010 1.2687 57.7710 30145.7881 -164.7438 -95.4063
ENERGY: 900000 4.3716 10.0926 11.0182 0.0000 -10556.6543 1432.1615 0.0000 0.0000 1779.7543 -7319.2562 306.4544 -9099.0104 -7357.5448 300.0340 85.3793 148.1141 30008.3792 -147.0550 -81.2951
ENERGY: 1200000 9.2597 9.8281 7.0063 0.0000 -10528.9084 1466.5988 0.0000 0.0000 1749.6301 -7286.5855 301.2674 -9036.2156 -7345.5837 299.7965 212.4908 275.1695 30359.8694 -72.6428 -5.5829
ENERGY: 1500000 8.9745 5.1638 9.7654 0.0000 -10508.4611 1405.4526 0.0000 0.0000 1704.5636 -7374.5412 293.5074 -9079.1048 -7337.5858 299.9372 -208.9476 -142.9398 29958.8339 -174.2188 -107.2787
TCL: Running FEP window   3: Lambda1 0.8999999999999999 Lambda2 0.8499999999999999 [dLambda -0.050000000000000044]
TCL: Setting parameter firsttimestep to 0
TCL: Setting parameter alchLambda to 0.8999999999999999
Info: NONBONDED TABLE R-SQUARED SPACING: 0.0625
Info: NONBONDED TABLE SIZE: 705 POINTS
TCL: Setting parameter alchLambda2 to 0.8499999999999999
Info: NONBONDED TABLE R-SQUARED SPACING: 0.0625
Info: NONBONDED TABLE SIZE: 705 POINTS
TCL: Running for 1500000 steps
ETITLE: TS BOND ANGLE DIHED IMPRP ELECT VDW BOUNDARY MISC KINETIC TOTAL TEMP POTENTIAL TOTALAVG TEMPAVG PRESSURE GPRESSURE VOLUME PRESSAVG GPRESSAVG
ENERGY: 0 8.9745 5.1638 9.7654 0.0000 -10505.4307 1405.4213 0.0000 0.0000 1703.6755 -7372.4302 293.3545 -9076.1057 -7372.4302 293.3545 -239.2702 -157.1291 29958.8339 -239.2702 -157.1291
ENERGY: 300000 5.9781 6.7084 7.9544 0.0000 -10504.2808 1367.0948 0.0000 0.0000 1716.7942 -7399.7509 295.6134 -9116.5451 -7314.4995 302.9852 -385.8718 -329.1588 29658.2648 -130.6740 -56.4077
ENERGY: 600000 5.2449 7.8486 12.0649 0.0000 -10548.9519 1433.8626 0.0000 0.0000 1741.0185 -7348.9125 299.7846 -9089.9310 -7294.0099 303.8885 369.4430 477.7749 29643.1031 -65.1468 0.3297
ENERGY: 900000 3.6311 8.3708 7.1981 0.0000 -10545.8974 1461.1088 0.0000 0.0000 1813.3130 -7252.2757 312.2329 -9065.5887 -7291.2922 303.7733 586.7856 599.4443 29741.3787 -144.2409 -86.9801
ENERGY: 1200000 4.3641 8.8683 10.5105 0.0000 -10581.9879 1436.9334 0.0000 0.0000 1753.5632 -7367.7483 301.9446 -9121.3115 -7300.7996 302.9882 235.0012 235.5600 29819.8016 -145.8004 -92.7920
ENERGY: 1500000 4.7653 8.3294 10.2120 0.0000 -10547.4612 1400.2961 0.0000 0.0000 1744.3502 -7379.5082 300.3582 -9123.8584 -7302.9827 302.5856 -222.3676 -133.6581 29560.1813 -113.3792 -59.1834
TCL: Running FEP window   4: Lambda1 0.8499999999999999 Lambda2 0.7999999999999998 [dLambda -0.050000000000000044]
TCL: Setting parameter firsttimestep to 0
TCL: Setting parameter alchLambda to 0.8499999999999999
Info: NONBONDED TABLE R-SQUARED SPACING: 0.0625
Info: NONBONDED TABLE SIZE: 705 POINTS
TCL: Setting parameter alchLambda2 to 0.7999999999999998
Info: NONBONDED TABLE R-SQUARED SPACING: 0.0625
Info: NONBONDED TABLE SIZE: 705 POINTS
TCL: Running for 1500000 steps
ETITLE: TS BOND ANGLE DIHED IMPRP ELECT VDW BOUNDARY MISC KINETIC TOTAL TEMP POTENTIAL TOTALAVG TEMPAVG PRESSURE GPRESSURE VOLUME PRESSAVG GPRESSAVG
ENERGY: 0 4.7653 8.3294 10.2120 0.0000 -10544.5277 1400.3093 0.0000 0.0000 1743.4664 -7377.4453 300.2061 -9120.9117 -7377.4453 300.2061 -241.1600 -147.0108 29560.1813 -241.1600 -147.0108
ENERGY: 300000 7.1433 10.2285 7.2047 0.0000 -10432.9069 1388.9465 0.0000 0.0000 1743.8395 -7275.5445 300.2703 -9019.3839 -7333.6794 300.8465 292.5923 331.1124 29620.2899 -61.7300 34.9453
ENERGY: 600000 4.6633 8.6517 9.3894 0.0000 -10357.3680 1377.4432 0.0000 0.0000 1724.7535 -7232.4668 296.9839 -8957.2204 -7296.0845 301.2786 -98.3392 -29.8150 30249.4564 -259.2574 -172.4809
ENERGY: 900000 5.6197 10.2571 6.4825 0.0000 -10428.5219 1403.1800 0.0000 0.0000 1742.4363 -7260.5462 300.0287 -9002.9826 -7296.0393 300.9257 -90.4435 -69.7710 30168.1146 -206.4592 -132.7944
ENERGY: 1200000 6.3162 10.4080 8.7907 0.0000 -10583.4490 1477.2593 0.0000 0.0000 1672.3708 -7408.3040 287.9642 -9080.6748 -7308.0405 300.0033 294.3073 327.5333 30086.5026 -185.2548 -109.6015
ENERGY: 1500000 8.0188 6.8560 7.2206 0.0000 -10463.8812 1397.9966 0.0000 0.0000 1715.8488 -7327.9405 295.4506 -9043.7893 -7313.7502 299.0899 -215.0582 -182.4648 30140.9147 -124.0719 -47.2556
TCL: Running FEP window   5: Lambda1 0.7999999999999998 Lambda2 0.7499999999999998 [dLambda -0.050000000000000044]
TCL: Setting parameter firsttimestep to 0
TCL: Setting parameter alchLambda to 0.7999999999999998
Info: NONBONDED TABLE R-SQUARED SPACING: 0.0625
Info: NONBONDED TABLE SIZE: 705 POINTS
TCL: Setting parameter alchLambda2 to 0.7499999999999998
Info: NONBONDED TABLE R-SQUARED SPACING: 0.0625
Info: NONBONDED TABLE SIZE: 705 POINTS
TCL: Running for 1500000 steps
ETITLE: TS BOND ANGLE DIHED IMPRP ELECT VDW BOUNDARY MISC KINETIC TOTAL TEMP POTENTIAL TOTALAVG TEMPAVG PRESSURE GPRESSURE VOLUME PRESSAVG GPRESSAVG
ENERGY: 0 8.0188 6.8560 7.2206 0.0000 -10461.1206 1397.7377 0.0000 0.0000 1714.9749 -7326.3126 295.3001 -9041.2875 -7326.3126 295.3001 -264.6969 -196.4715 30140.9147 -264.6969 -196.4715
ENERGY: 300000 2.3779 10.5365 12.3429 0.0000 -10367.3472 1347.8281 0.0000 0.0000 1741.0549 -7253.2069 299.7908 -8994.2619 -7296.3840 299.5769 -240.3082 -101.9987 29913.1287 -120.1113 -35.9043
ENERGY: 600000 8.2637 9.5352 9.5619 0.0000 -10444.4637 1406.7503 0.0000 0.0000 1774.8100 -7235.5427 305.6031 -9010.3527 -7284.8893 300.5718 -270.5607 -247.4957 30351.0035 7.5791 68.0308
ENERGY: 900000 4.0106 8.6445 11.1919 0.0000 -10555.0990 1444.4234 0.0000 0.0000 1770.4537 -7316.3748 304.8530 -9086.8286 -7294.0011 300.4971 82.7118 194.6005 30111.1109 -48.6620 10.4608
ENERGY: 1200000 4.9002 9.5387 12.4525 0.0000 -10327.3361 1283.1835 0.0000 0.0000 1749.2457 -7268.0156 301.2012 -9017.2612 -7293.3566 300.6558 -1145.3922 -1134.3313 30461.6697 -200.5912 -144.7688
ENERGY: 1500000 4.8145 9.2534 11.0607 0.0000 -10481.4483 1409.2715 0.0000 0.0000 1780.6431 -7266.4052 306.6075 -9047.0483 -7290.1837 301.4326 124.7675 139.4847 29965.9477 -172.9317 -116.3987
TCL: Running FEP window   6: Lambda1 0.7499999999999998 Lambda2 0.6999999999999997 [dLambda -0.050000000000000044]
TCL: Setting parameter firsttimestep to 0
TCL: Setting parameter alchLambda to 0.7499999999999998
Info: NONBONDED TABLE R-SQUARED SPACING: 0.0625
Info: NONBONDED TABLE SIZE: 705 POINTS
TCL: Setting parameter alchLambda2 to 0.6999999999999997
Info: NONBONDED TABLE R-SQUARED SPACING: 0.0625
Info: NONBONDED TABLE SIZE: 705 POINTS
TCL: Running for 1500000 steps
ETITLE: TS BOND ANGLE DIHED IMPRP ELECT VDW BOUNDARY MISC KINETIC TOTAL TEMP POTENTIAL TOTALAVG TEMPAVG PRESSURE GPRESSURE VOLUME PRESSAVG GPRESSAVG
ENERGY: 0 4.8145 9.2534 11.0607 0.0000 -10478.1121 1408.6397 0.0000 0.0000 1779.8143 -7264.5296 306.4648 -9044.3438 -7264.5296 306.4648 43.2640 123.1366 29965.9477 43.2640 123.1366
ENERGY: 300000 4.1284 10.1883 7.5634 0.0000 -10430.0913 1420.1645 0.0000 0.0000 1707.4572 -7280.5895 294.0057 -8988.0467 -7276.1111 297.9994 -109.2460 -25.8449 30487.2815 -287.7615 -203.1115
ENERGY: 600000 4.9986 11.1870 8.6307 0.0000 -10411.1712 1378.5676 0.0000 0.0000 1784.8888 -7222.8986 307.3386 -9007.7874 -7291.7595 299.5330 -158.4521 -73.0959 30463.5445 -138.5022 -54.8990
ENERGY: 900000 6.0583 6.9627 6.3508 0.0000 -10606.6477 1493.3855 0.0000 0.0000 1804.2994 -7289.5911 310.6808 -9093.8904 -7304.9552 299.7182 872.8259 972.5357 29525.5040 61.0286 142.6830
ENERGY: 1200000 5.8832 10.5386 6.5388 0.0000 -10451.8092 1348.1645 0.0000 0.0000 1748.4894 -7332.1948 301.0710 -9080.6842 -7300.7746 300.7212 -870.6629 -828.9869 30285.3914 27.4968 96.3746
ENERGY: 1500000 3.0513 7.6732 8.3861 0.0000 -10459.1156 1449.4102 0.0000 0.0000 1765.3106 -7225.2842 303.9674 -8990.5948 -7299.5124 301.5621 398.9453 456.6026 30115.8593 38.9171 106.6191
TCL: Running FEP window   7: Lambda1 0.6999999999999997 Lambda2 0.6499999999999997 [dLambda -0.050000000000000044]
TCL: Setting parameter firsttimestep to 0
TCL: Setting parameter alchLambda to 0.6999999999999997
Info: NONBONDED TABLE R-SQUARED SPACING: 0.0625
Info: NONBONDED TABLE SIZE: 705 POINTS
TCL: Setting parameter alchLambda2 to 0.6499999999999997
Info: NONBONDED TABLE R-SQUARED SPACING: 0.0625
Info: NONBONDED TABLE SIZE: 705 POINTS
TCL: Running for 1500000 steps
ETITLE: TS BOND ANGLE DIHED IMPRP ELECT VDW BOUNDARY MISC KINETIC TOTAL TEMP POTENTIAL TOTALAVG TEMPAVG PRESSURE GPRESSURE VOLUME PRESSAVG GPRESSAVG
ENERGY: 0 3.0513 7.6732 8.3861 0.0000 -10455.1971 1449.3697 0.0000 0.0000 1764.4488 -7222.2681 303.8190 -8986.7169 -7222.2681 303.8190 362.2019 453.1506 30115.8593 362.2019 453.1506
ENERGY: 300000 7.1604 11.4697 10.6366 0.0000 -10583.6539 1488.3702 0.0000 0.0000 1782.5357 -7283.4813 306.9334 -9066.0169 -7290.1262 300.3650 463.5626 543.1999 29998.1698 7.4447 73.7118
ENERGY: 600000 7.4911 8.4876 9.6350 0.0000 -10535.9554 1338.6320 0.0000 0.0000 1737.3463 -7434.3635 299.1522 -9171.7098 -7316.5121 299.7755 -1227.0045 -1089.6644 30044.8209 -161.5107 -87.9461
ENERGY: 900000 4.4787 8.7672 8.2068 0.0000 -10466.2235 1463.9024 0.0000 0.0000 1738.8929 -7241.9755 299.4185 -8980.8684 -7306.2843 299.1956 818.2726 861.6461 29982.6801 -50.7202 22.3438
ENERGY: 1200000 7.5398 8.0022 10.1767 0.0000 -10624.5146 1465.6765 0.0000 0.0000 1786.8870 -7346.2323 307.6826 -9133.1193 -7307.0015 299.9287 -403.8447 -350.3913 30514.3072 -103.1967 -40.4415
ENERGY: 1500000 4.9665 7.5251 12.2421 0.0000 -10477.4609 1414.7539 0.0000 0.0000 1688.5507 -7349.4225 290.7502 -9037.9732 -7308.1924 299.3792 153.8230 165.0758 29484.9689 -76.3077 -20.2659
TCL: Running FEP window   8: Lambda1 0.6499999999999997 Lambda2 0.5999999999999996 [dLambda -0.050000000000000044]
TCL: Setting parameter firsttimestep to 0
TCL: Setting parameter alchLambda to 0.6499999999999997
Info: NONBONDED TABLE R-SQUARED SPACING: 0.0625
Info: NONBONDED TABLE SIZE: 705 POINTS
TCL: Setting parameter alchLambda2 to 0.5999999999999996
Info: NONBONDED TABLE R-SQUARED SPACING: 0.0625
Info: NONBONDED TABLE SIZE: 705 POINTS
TCL: Running for 1500000 steps
ETITLE: TS BOND ANGLE DIHED IMPRP ELECT VDW BOUNDARY MISC KINETIC TOTAL TEMP POTENTIAL TOTALAVG TEMPAVG PRESSURE GPRESSURE VOLUME PRESSAVG GPRESSAVG
ENERGY: 0 4.9665 7.5251 12.2421 0.0000 -10475.9878 1414.8181 0.0000 0.0000 1687.6859 -7348.7500 290.6013 -9036.4359 -7348.7500 290.6013 71.3529 156.3937 29484.9689 71.3529 156.3937
ENERGY: 300000 4.9851 8.6280 7.7589 0.0000 -10483.0235 1385.4246 0.0000 0.0000 1739.2187 -7337.0082 299.4747 -9076.2270 -7311.1017 299.6082 -283.5916 -250.5392 29752.3973 -353.5305 -292.9760
ENERGY: 600000 6.6013 8.7565 5.2061 0.0000 -10392.8124 1338.0714 0.0000 0.0000 1771.0897 -7263.0873 304.9625 -9034.1770 -7299.0028 300.9492 -628.5290 -527.2721 29679.1302 -386.5821 -316.1819
ENERGY: 900000 6.5707 5.0659 8.0233 0.0000 -10410.9247 1386.3840 0.0000 0.0000 1718.7706 -7286.1102 295.9537 -9004.8808 -7289.5110 300.6914 -264.9289 -163.9122 30389.8916 -348.3386 -296.8492
ENERGY: 1200000 5.8253 11.4206 8.8824 0.0000 -10370.5475 1383.5567 0.0000 0.0000 1747.5114 -7213.3510 300.9026 -8960.8624 -7289.5278 300.9646 -330.0259 -172.7620 30161.0965 -318.1668 -257.1124
ENERGY: 1500000 4.1419 9.6059 7.9852 0.0000 -10644.2917 1503.1700 0.0000 0.0000 1747.6369 -7371.7518 300.9242 -9119.3887 -7290.0710 300.8331 672.8864 689.9726 29745.5735 -270.0868 -207.1068
TCL: Running FEP window   9: Lambda1 0.5999999999999996 Lambda2 0.5499999999999996 [dLambda -0.050000000000000044]
TCL: Setting parameter firsttimestep to 0
TCL: Setting parameter alchLambda to 0.5999999999999996
Info: NONBONDED TABLE R-SQUARED SPACING: 0.0625
Info: NONBONDED TABLE SIZE: 705 POINTS
TCL: Setting parameter alchLambda2 to 0.5499999999999996
Info: NONBONDED TABLE R-SQUARED SPACING: 0.0625
Info: NONBONDED TABLE SIZE: 705 POINTS
TCL: Running for 1500000 steps
ETITLE: TS BOND ANGLE DIHED IMPRP ELECT VDW BOUNDARY MISC KINETIC TOTAL TEMP POTENTIAL TOTALAVG TEMPAVG PRESSURE GPRESSURE VOLUME PRESSAVG GPRESSAVG
ENERGY: 0 4.1419 9.6059 7.9852 0.0000 -10641.6184 1502.7549 0.0000 0.0000 1746.7664 -7370.3641 300.7743 -9117.1305 -7370.3641 300.7743 600.5448 676.8697 29745.5735 600.5448 676.8697
ENERGY: 300000 4.5777 9.3715 8.8479 0.0000 -10448.9344 1398.2849 0.0000 0.0000 1730.4497 -7297.4026 297.9647 -9027.8523 -7335.3193 299.9430 -148.9248 -72.7877 29964.1392 103.1772 176.6632
ENERGY: 600000 4.3014 6.8345 5.8700 0.0000 -10294.3830 1278.3918 0.0000 0.0000 1682.7915 -7316.1938 289.7585 -8998.9853 -7313.5645 298.3619 -1249.7002 -1113.5394 30496.0682 -210.7751 -125.2381
ENERGY: 900000 3.7019 8.1468 8.4366 0.0000 -10460.3248 1432.9440 0.0000 0.0000 1752.9734 -7254.1220 301.8431 -9007.0954 -7319.0911 299.5813 307.7976 289.6078 30223.9590 -224.7058 -151.5012
ENERGY: 1200000 5.6472 10.3006 10.3416 0.0000 -10379.3321 1292.7498 0.0000 0.0000 1742.9028 -7317.3902 300.1090 -9060.2930 -7318.9054 299.0305 -1161.8033 -1128.0878 30527.3414 -260.3154 -189.3865
ENERGY: 1500000 7.5096 6.7693 7.1244 0.0000 -10423.1299 1442.6812 0.0000 0.0000 1681.0236 -7278.0218 289.4541 -8959.0454 -7314.9527 298.6960 369.9399 384.3603 30138.6666 -190.3458 -126.5877
TCL: Running FEP window  10: Lambda1 0.5499999999999996 Lambda2 0.4999999999999996 [dLambda -0.04999999999999999]
TCL: Setting parameter firsttimestep to 0
TCL: Setting parameter alchLambda to 0.5499999999999996
Info: NONBONDED TABLE R-SQUARED SPACING: 0.0625
Info: NONBONDED TABLE SIZE: 705 POINTS
TCL: Setting parameter alchLambda2 to 0.4999999999999996
Info: NONBONDED TABLE R-SQUARED SPACING: 0.0625
Info: NONBONDED TABLE SIZE: 705 POINTS
TCL: Running for 1500000 steps
ETITLE: TS BOND ANGLE DIHED IMPRP ELECT VDW BOUNDARY MISC KINETIC TOTAL TEMP POTENTIAL TOTALAVG TEMPAVG PRESSURE GPRESSURE VOLUME PRESSAVG GPRESSAVG
ENERGY: 0 7.5096 6.7693 7.1244 0.0000 -10422.4946 1443.1112 0.0000 0.0000 1680.1418 -7277.8384 289.3022 -8957.9801 -7277.8384 289.3022 311.4388 375.3922 30138.6666 311.4388 375.3922
ENERGY: 300000 5.6814 11.4274 9.6164 0.0000 -10357.8872 1408.0792 0.0000 0.0000 1696.3469 -7226.7358 292.0926 -8923.0827 -7314.6189 296.5335 -125.7063 -93.8335 30703.3261 12.3482 80.4123
ENERGY: 600000 7.8134 12.8410 6.9108 0.0000 -10499.0105 1429.5695 0.0000 0.0000 1779.7019 -7262.1739 306.4454 -9041.8758 -7291.2299 297.9924 57.4476 150.3396 29807.6593 -23.5730 56.6728
ENERGY: 900000 7.9763 14.0975 8.7131 0.0000 -10299.1957 1345.5430 0.0000 0.0000 1688.2646 -7234.6013 290.7009 -8922.8659 -7287.4038 297.6003 -634.0131 -630.3680 30339.4495 32.5756 95.4064
ENERGY: 1200000 6.6105 7.9885 12.3497 0.0000 -10441.8052 1386.9982 0.0000 0.0000 1723.6393 -7304.2190 296.7920 -9027.8584 -7283.9063 297.6410 -249.8554 -172.8823 30018.6268 13.8569 69.6337
ENERGY: 1500000 4.5903 6.5983 11.0019 0.0000 -10517.2436 1495.2470 0.0000 0.0000 1815.0620 -7184.7441 312.5341 -8999.8061 -7285.3429 297.8809 673.7599 679.5103 30325.4562 -29.9158 20.8769
TCL: Running FEP window  11: Lambda1 0.4999999999999996 Lambda2 0.4499999999999996 [dLambda -0.04999999999999999]
TCL: Setting parameter firsttimestep to 0
TCL: Setting parameter alchLambda to 0.4999999999999996
Info: NONBONDED TABLE R-SQUARED SPACING: 0.0625
Info: NONBONDED TABLE SIZE: 705 POINTS
TCL: Setting parameter alchLambda2 to 0.4499999999999996
Info: NONBONDED TABLE R-SQUARED SPACING: 0.0625
Info: NONBONDED TABLE SIZE: 705 POINTS
TCL: Running for 1500000 steps
ETITLE: TS BOND ANGLE DIHED IMPRP ELECT VDW BOUNDARY MISC KINETIC TOTAL TEMP POTENTIAL TOTALAVG TEMPAVG PRESSURE GPRESSURE VOLUME PRESSAVG GPRESSAVG
ENERGY: 0 4.5903 6.5983 11.0019 0.0000 -10516.5831 1495.9885 0.0000 0.0000 1814.2019 -7184.2021 312.3860 -8998.4041 -7184.2021 312.3860 598.6984 675.6923 30325.4562 598.6984 675.6923
ENERGY: 300000 6.6636 12.1081 7.7869 0.0000 -10486.5405 1386.5267 0.0000 0.0000 1752.9995 -7320.4557 301.8476 -9073.4552 -7267.2469 302.0897 -254.2718 -211.5500 29535.2648 262.4201 329.6706
ENERGY: 600000 17.5720 6.5897 11.8985 0.0000 -10378.6034 1319.9177 0.0000 0.0000 1747.9356 -7274.6899 300.9756 -9022.6256 -7274.8745 301.6985 -1123.5842 -1028.0409 30259.1922 -126.5503 -75.6910
ENERGY: 900000 6.6561 9.5801 9.4887 0.0000 -10544.5014 1427.3656 0.0000 0.0000 1764.8579 -7326.5531 303.8894 -9091.4110 -7287.1165 301.9625 -8.4027 36.3665 29998.5983 -120.4115 -70.8581
ENERGY: 1200000 6.2299 7.6442 7.8002 0.0000 -10519.2385 1412.5162 0.0000 0.0000 1715.4563 -7369.5918 295.3830 -9085.0480 -7282.9090 301.6438 -71.3798 -20.9121 29648.7647 -149.3651 -100.3330
ENERGY: 1500000 8.4685 8.4346 11.2253 0.0000 -10624.4018 1481.5448 0.0000 0.0000 1748.5116 -7366.2169 301.0748 -9114.7286 -7291.0482 301.6772 378.2697 415.5102 29534.5146 -132.3242 -86.2215
TCL: Running FEP window  12: Lambda1 0.4499999999999996 Lambda2 0.39999999999999963 [dLambda -0.04999999999999999]
TCL: Setting parameter firsttimestep to 0
TCL: Setting parameter alchLambda to 0.4499999999999996
Info: NONBONDED TABLE R-SQUARED SPACING: 0.0625
Info: NONBONDED TABLE SIZE: 705 POINTS
TCL: Setting parameter alchLambda2 to 0.39999999999999963
Info: NONBONDED TABLE R-SQUARED SPACING: 0.0625
Info: NONBONDED TABLE SIZE: 705 POINTS
TCL: Running for 1500000 steps
ETITLE: TS BOND ANGLE DIHED IMPRP ELECT VDW BOUNDARY MISC KINETIC TOTAL TEMP POTENTIAL TOTALAVG TEMPAVG PRESSURE GPRESSURE VOLUME PRESSAVG GPRESSAVG
ENERGY: 0 8.4686 8.4346 11.2253 0.0000 -10624.4037 1481.4547 0.0000 0.0000 1747.6753 -7367.1453 300.9308 -9114.8206 -7367.1453 300.9308 331.9869 403.7938 29534.5146 331.9869 403.7938
ENERGY: 300000 10.4054 9.5629 6.6033 0.0000 -10313.8809 1346.8338 0.0000 0.0000 1719.4955 -7220.9799 296.0785 -8940.4754 -7334.7421 295.6595 -850.5050 -770.2060 30643.6986 38.4250 105.3259
ENERGY: 600000 4.5527 8.0900 4.4035 0.0000 -10465.5767 1360.2765 0.0000 0.0000 1771.6084 -7316.6456 305.0518 -9088.2540 -7321.3759 297.6392 -448.6605 -422.4133 29762.2187 -87.7024 -41.2603
ENERGY: 900000 6.0939 6.7912 7.7817 0.0000 -10453.5119 1393.3680 0.0000 0.0000 1707.7414 -7331.7357 294.0546 -9039.4771 -7323.2516 297.1230 -386.8882 -288.4238 30358.3168 51.0100 97.9811
ENERGY: 1200000 4.2657 9.2696 10.7465 0.0000 -10435.1624 1327.8478 0.0000 0.0000 1724.6569 -7358.3759 296.9673 -9083.0328 -7313.5588 298.1389 -845.8399 -762.1437 30010.3969 7.7922 56.1576
ENERGY: 1500000 4.3416 9.1596 5.7249 0.0000 -10522.5470 1428.8234 0.0000 0.0000 1781.1941 -7293.3033 306.7024 -9074.4975 -7318.0046 298.8295 -109.2540 -43.6589 29906.8804 -29.3032 20.1697
TCL: Running FEP window  13: Lambda1 0.39999999999999963 Lambda2 0.34999999999999964 [dLambda -0.04999999999999999]
TCL: Setting parameter firsttimestep to 0
TCL: Setting parameter alchLambda to 0.39999999999999963
Info: NONBONDED TABLE R-SQUARED SPACING: 0.0625
Info: NONBONDED TABLE SIZE: 705 POINTS
TCL: Setting parameter alchLambda2 to 0.34999999999999964
Info: NONBONDED TABLE R-SQUARED SPACING: 0.0625
Info: NONBONDED TABLE SIZE: 705 POINTS
TCL: Running for 1500000 steps
ETITLE: TS BOND ANGLE DIHED IMPRP ELECT VDW BOUNDARY MISC KINETIC TOTAL TEMP POTENTIAL TOTALAVG TEMPAVG PRESSURE GPRESSURE VOLUME PRESSAVG GPRESSAVG
ENERGY: 0 4.3416 9.1596 5.7249 0.0000 -10522.5470 1429.3812 0.0000 0.0000 1780.3315 -7293.6083 306.5538 -9073.9397 -7293.6083 306.5538 -144.6743 -50.5457 29906.8804 -144.6743 -50.5457
ENERGY: 300000 5.8830 11.6728 6.8087 0.0000 -10507.5886 1444.4213 0.0000 0.0000 1759.3414 -7279.4614 302.9396 -9038.8028 -7263.7868 304.6763 138.7192 233.2943 29770.6401 -33.9886 36.6099
ENERGY: 600000 5.5199 7.4115 9.0093 0.0000 -10496.8692 1431.9000 0.0000 0.0000 1723.2152 -7319.8134 296.7190 -9043.0286 -7275.2090 303.9381 81.4682 147.1157 30191.4105 -30.7543 22.6032
ENERGY: 900000 5.0729 6.1392 11.4594 0.0000 -10516.8627 1427.7901 0.0000 0.0000 1708.7157 -7357.6855 294.2224 -9066.4012 -7282.8386 302.2761 -23.7137 -28.4443 30184.2779 -1.3913 52.6942
ENERGY: 1200000 4.6956 8.9366 10.5785 0.0000 -10551.9472 1461.5357 0.0000 0.0000 1724.3580 -7341.8427 296.9158 -9066.2007 -7285.8576 301.8310 485.0366 568.6053 29626.8820 -21.1673 30.6712
ENERGY: 1500000 7.1484 8.4541 5.7288 0.0000 -10528.0724 1406.0439 0.0000 0.0000 1716.0046 -7384.6926 295.4774 -9100.6973 -7296.9311 301.0252 -443.9416 -453.0397 29879.2537 12.1104 61.0167
TCL: Running FEP window  14: Lambda1 0.34999999999999964 Lambda2 0.29999999999999966 [dLambda -0.04999999999999999]
TCL: Setting parameter firsttimestep to 0
TCL: Setting parameter alchLambda to 0.34999999999999964
Info: NONBONDED TABLE R-SQUARED SPACING: 0.0625
Info: NONBONDED TABLE SIZE: 705 POINTS
TCL: Setting parameter alchLambda2 to 0.29999999999999966
Info: NONBONDED TABLE R-SQUARED SPACING: 0.0625
Info: NONBONDED TABLE SIZE: 705 POINTS
TCL: Running for 1500000 steps
ETITLE: TS BOND ANGLE DIHED IMPRP ELECT VDW BOUNDARY MISC KINETIC TOTAL TEMP POTENTIAL TOTALAVG TEMPAVG PRESSURE GPRESSURE VOLUME PRESSAVG GPRESSAVG
ENERGY: 0 7.1484 8.4541 5.7288 0.0000 -10528.0722 1406.7318 0.0000 0.0000 1715.1376 -7384.8715 295.3281 -9100.0092 -7384.8715 295.3281 -528.2281 -455.3619 29879.2537 -528.2281 -455.3619
ENERGY: 300000 4.6444 8.5795 8.1629 0.0000 -10396.0556 1357.5404 0.0000 0.0000 1762.1486 -7254.9798 303.4229 -9017.1284 -7346.9498 297.4386 -457.9434 -377.0877 30267.5325 -377.5043 -290.9393
ENERGY: 600000 5.8606 11.9559 5.4049 0.0000 -10508.3568 1393.7347 0.0000 0.0000 1693.6036 -7397.7971 291.6202 -9091.4008 -7353.2718 299.1243 -733.2871 -691.9508 30184.7338 -218.9317 -144.1635
ENERGY: 900000 6.2460 7.2252 12.0948 0.0000 -10420.2330 1353.5753 0.0000 0.0000 1687.1922 -7353.8995 290.5162 -9041.0917 -7344.5331 297.6665 -658.5557 -655.5327 29972.8839 -301.3569 -240.3971
ENERGY: 1200000 5.8780 7.2168 7.7309 0.0000 -10510.7201 1415.8392 0.0000 0.0000 1711.3283 -7362.7268 294.6722 -9074.0552 -7337.9493 297.9058 -470.3387 -436.6773 30453.3341 -250.5731 -192.9099
ENERGY: 1500000 7.7919 9.4248 7.3715 0.0000 -10468.0688 1409.4910 0.0000 0.0000 1781.1675 -7252.8222 306.6978 -9033.9897 -7325.2226 299.7024 60.2341 68.2844 29668.7956 -177.1381 -124.6757
TCL: Running FEP window  15: Lambda1 0.29999999999999966 Lambda2 0.24999999999999967 [dLambda -0.04999999999999999]
TCL: Setting parameter firsttimestep to 0
TCL: Setting parameter alchLambda to 0.29999999999999966
Info: NONBONDED TABLE R-SQUARED SPACING: 0.0625
Info: NONBONDED TABLE SIZE: 705 POINTS
TCL: Setting parameter alchLambda2 to 0.24999999999999967
Info: NONBONDED TABLE R-SQUARED SPACING: 0.0625
Info: NONBONDED TABLE SIZE: 705 POINTS
TCL: Running for 1500000 steps
ETITLE: TS BOND ANGLE DIHED IMPRP ELECT VDW BOUNDARY MISC KINETIC TOTAL TEMP POTENTIAL TOTALAVG TEMPAVG PRESSURE GPRESSURE VOLUME PRESSAVG GPRESSAVG
ENERGY: 0 7.7919 9.4248 7.3715 0.0000 -10468.0694 1409.9607 0.0000 0.0000 1780.2893 -7253.2311 306.5466 -9033.5205 -7253.2311 306.5466 -30.6673 61.9205 29668.7956 -30.6673 61.9205
ENERGY: 300000 6.0878 11.7001 14.0019 0.0000 -10369.0463 1383.4646 0.0000 0.0000 1727.3107 -7226.4812 297.4242 -8953.7919 -7248.8297 302.5594 -13.4418 13.7643 30065.3551 52.6274 103.9910
ENERGY: 600000 5.3006 10.5488 9.6266 0.0000 -10631.2030 1543.4039 0.0000 0.0000 1738.8309 -7323.4922 299.4079 -9062.3231 -7266.8029 302.5295 848.7211 851.7733 29952.7194 96.5656 156.1573
ENERGY: 900000 4.5433 11.8230 9.6869 0.0000 -10315.9298 1364.4227 0.0000 0.0000 1687.8420 -7237.6119 290.6281 -8925.4540 -7259.5933 300.8338 39.5636 116.6555 29827.6248 41.0728 106.8650
ENERGY: 1200000 7.4307 8.6599 8.8607 0.0000 -10516.5014 1458.9567 0.0000 0.0000 1705.3219 -7327.2715 293.6380 -9032.5934 -7274.7320 300.0612 155.4230 296.7224 29839.4962 14.5489 79.0428
ENERGY: 1500000 5.7225 12.2967 11.6284 0.0000 -10507.5998 1439.0931 0.0000 0.0000 1708.8611 -7329.9981 294.2474 -9038.8591 -7279.3608 299.8072 -13.9845 114.1711 30239.1739 -17.7960 47.8496
TCL: Running FEP window  16: Lambda1 0.24999999999999967 Lambda2 0.19999999999999968 [dLambda -0.04999999999999999]
TCL: Setting parameter firsttimestep to 0
TCL: Setting parameter alchLambda to 0.24999999999999967
Info: NONBONDED TABLE R-SQUARED SPACING: 0.0625
Info: NONBONDED TABLE SIZE: 705 POINTS
TCL: Setting parameter alchLambda2 to 0.19999999999999968
Info: NONBONDED TABLE R-SQUARED SPACING: 0.0625
Info: NONBONDED TABLE SIZE: 705 POINTS
TCL: Running for 1500000 steps
ETITLE: TS BOND ANGLE DIHED IMPRP ELECT VDW BOUNDARY MISC KINETIC TOTAL TEMP POTENTIAL TOTALAVG TEMPAVG PRESSURE GPRESSURE VOLUME PRESSAVG GPRESSAVG
ENERGY: 0 5.7225 12.2967 11.6284 0.0000 -10507.5975 1439.4068 0.0000 0.0000 1708.0094 -7330.5338 294.1007 -9038.5432 -7330.5338 294.1007 18.6509 108.2570 30239.1739 18.6509 108.2570
ENERGY: 300000 9.0229 9.2561 11.7260 0.0000 -10436.7726 1405.0422 0.0000 0.0000 1745.0692 -7256.6562 300.4820 -9001.7254 -7344.8284 294.3813 -463.8044 -352.6814 30217.9498 109.3777 193.8394
ENERGY: 600000 8.9135 5.9266 9.5373 0.0000 -10495.9875 1414.9505 0.0000 0.0000 1698.0351 -7358.6245 292.3833 -9056.6596 -7350.3317 293.3091 -233.2861 -200.0253 29595.0729 -14.2695 63.2125
ENERGY: 900000 7.1315 7.4242 12.8925 0.0000 -10552.3546 1415.4330 0.0000 0.0000 1716.7183 -7392.7551 295.6003 -9109.4734 -7351.8789 294.6987 -18.3276 1.1529 29443.0945 -111.9408 -44.7259
ENERGY: 1200000 6.4976 9.3493 13.6446 0.0000 -10449.4073 1351.3563 0.0000 0.0000 1781.5146 -7287.0450 306.7575 -9068.5595 -7335.2097 296.4599 -552.0165 -566.8422 29665.4930 -206.0178 -148.8887
ENERGY: 1500000 5.1671 7.1665 7.3445 0.0000 -10504.4712 1370.6921 0.0000 0.0000 1732.9153 -7381.1855 298.3893 -9114.1008 -7336.2418 296.8100 -967.1952 -879.5746 30283.8992 -184.8638 -128.3393
TCL: Running FEP window  17: Lambda1 0.19999999999999968 Lambda2 0.1499999999999997 [dLambda -0.04999999999999999]
TCL: Setting parameter firsttimestep to 0
TCL: Setting parameter alchLambda to 0.19999999999999968
Info: NONBONDED TABLE R-SQUARED SPACING: 0.0625
Info: NONBONDED TABLE SIZE: 705 POINTS
TCL: Setting parameter alchLambda2 to 0.1499999999999997
Info: NONBONDED TABLE R-SQUARED SPACING: 0.0625
Info: NONBONDED TABLE SIZE: 705 POINTS
TCL: Running for 1500000 steps
ETITLE: TS BOND ANGLE DIHED IMPRP ELECT VDW BOUNDARY MISC KINETIC TOTAL TEMP POTENTIAL TOTALAVG TEMPAVG PRESSURE GPRESSURE VOLUME PRESSAVG GPRESSAVG
ENERGY: 0 5.1671 7.1665 7.3445 0.0000 -10504.4708 1371.4116 0.0000 0.0000 1732.0565 -7381.3244 298.2414 -9113.3810 -7381.3244 298.2414 -971.9479 -879.0857 30283.8992 -971.9479 -879.0857
ENERGY: 300000 4.2857 6.1813 10.2109 0.0000 -10431.6456 1395.0850 0.0000 0.0000 1702.6685 -7313.2142 293.1811 -9015.8827 -7336.8858 296.0501 124.0650 168.9839 29393.1333 -86.5978 -37.7752
ENERGY: 600000 4.5557 11.4920 9.0905 0.0000 -10588.8158 1512.3230 0.0000 0.0000 1751.8377 -7299.5168 301.6475 -9051.3545 -7334.4798 297.9499 1103.0587 1160.7870 29198.1137 56.8671 124.0606
ENERGY: 900000 9.2441 11.4615 8.1221 0.0000 -10385.2646 1386.0939 0.0000 0.0000 1732.8538 -7237.4893 298.3787 -8970.3431 -7319.3737 298.5884 -490.5211 -380.5095 30378.7846 -91.4053 -19.9936
ENERGY: 1200000 4.0521 6.1952 10.1898 0.0000 -10490.3231 1390.0368 0.0000 0.0000 1719.2492 -7360.6000 296.0361 -9079.8492 -7306.7388 298.7750 -396.7908 -302.0019 29597.8446 -161.9638 -85.4994
ENERGY: 1500000 6.2411 7.0345 7.8964 0.0000 -10566.3123 1465.4227 0.0000 0.0000 1732.5572 -7347.1605 298.3276 -9079.7177 -7308.0380 298.5204 255.0267 371.7119 29402.2638 -135.2797 -51.5189
TCL: Running FEP window  18: Lambda1 0.1499999999999997 Lambda2 0.09999999999999969 [dLambda -0.05 ]
TCL: Setting parameter firsttimestep to 0
TCL: Setting parameter alchLambda to 0.1499999999999997
Info: NONBONDED TABLE R-SQUARED SPACING: 0.0625
Info: NONBONDED TABLE SIZE: 705 POINTS
TCL: Setting parameter alchLambda2 to 0.09999999999999969
Info: NONBONDED TABLE R-SQUARED SPACING: 0.0625
Info: NONBONDED TABLE SIZE: 705 POINTS
TCL: Running for 1500000 steps
ETITLE: TS BOND ANGLE DIHED IMPRP ELECT VDW BOUNDARY MISC KINETIC TOTAL TEMP POTENTIAL TOTALAVG TEMPAVG PRESSURE GPRESSURE VOLUME PRESSAVG GPRESSAVG
ENERGY: 0 6.2411 7.0345 7.8964 0.0000 -10566.3120 1466.0789 0.0000 0.0000 1731.6947 -7347.3665 298.1791 -9079.0611 -7347.3665 298.1791 275.5359 367.8326 29402.2638 275.5359 367.8326
ENERGY: 300000 10.4923 9.6055 12.1460 0.0000 -10417.2450 1394.8637 0.0000 0.0000 1786.2874 -7203.8501 307.5794 -8990.1375 -7295.9435 302.9401 -460.6959 -341.6842 30202.2875 -280.1554 -196.5927
ENERGY: 600000 8.0237 10.5221 5.5180 0.0000 -10469.4298 1436.1134 0.0000 0.0000 1710.2296 -7299.0230 294.4830 -9009.2525 -7302.1698 300.6069 229.9009 212.0717 29874.8933 -157.7629 -95.3174
ENERGY: 900000 9.6772 5.7122 10.6894 0.0000 -10452.8389 1378.1363 0.0000 0.0000 1766.9535 -7281.6704 304.2503 -9048.6238 -7302.3645 300.5276 -738.9307 -622.5189 30129.9992 -184.2367 -114.3078
ENERGY: 1200000 5.9152 8.4866 8.3000 0.0000 -10655.8377 1527.5371 0.0000 0.0000 1718.3922 -7387.2066 295.8885 -9105.5988 -7300.0092 300.7378 491.5621 530.9206 30045.3076 -141.8413 -77.9390
ENERGY: 1500000 7.9653 10.8926 4.8131 0.0000 -10479.8833 1426.0172 0.0000 0.0000 1721.2909 -7308.9042 296.3877 -9030.1951 -7300.7968 300.1468 -133.0011 -85.1001 30125.9656 -134.9382 -74.7478
TCL: Running FEP window  19: Lambda1 0.09999999999999969 Lambda2 0.049999999999999684 [dLambda -0.05 ]
TCL: Setting parameter firsttimestep to 0
TCL: Setting parameter alchLambda to 0.09999999999999969
Info: NONBONDED TABLE R-SQUARED SPACING: 0.0625
Info: NONBONDED TABLE SIZE: 705 POINTS
TCL: Setting parameter alchLambda2 to 0.049999999999999684
Info: NONBONDED TABLE R-SQUARED SPACING: 0.0625
Info: NONBONDED TABLE SIZE: 705 POINTS
TCL: Running for 1500000 steps
ETITLE: TS BOND ANGLE DIHED IMPRP ELECT VDW BOUNDARY MISC KINETIC TOTAL TEMP POTENTIAL TOTALAVG TEMPAVG PRESSURE GPRESSURE VOLUME PRESSAVG GPRESSAVG
ENERGY: 0 7.9653 10.8926 4.8131 0.0000 -10479.8830 1426.5800 0.0000 0.0000 1720.4340 -7309.1979 296.2401 -9029.6320 -7309.1979 296.2401 -169.3157 -85.7448 30125.9656 -169.3157 -85.7448
ENERGY: 300000 4.1580 11.2694 5.6505 0.0000 -10418.0205 1413.8860 0.0000 0.0000 1728.4285 -7254.6281 297.6167 -8983.0566 -7307.1902 298.7213 20.6000 94.5860 30080.8123 70.8763 137.9702
ENERGY: 600000 6.5914 8.8551 9.3167 0.0000 -10580.2247 1486.3037 0.0000 0.0000 1709.5074 -7359.6504 294.3587 -9069.1577 -7296.3629 300.2508 347.6509 410.1415 29441.3465 205.5576 275.3841
ENERGY: 900000 4.0674 9.8552 8.1871 0.0000 -10457.3756 1366.0560 0.0000 0.0000 1773.9565 -7295.2534 305.4561 -9069.2098 -7292.1410 302.4982 -503.8381 -417.6047 30069.4154 208.7157 282.8179
ENERGY: 1200000 5.4803 6.6004 8.2381 0.0000 -10400.7003 1371.9454 0.0000 0.0000 1755.6098 -7252.8263 302.2970 -9008.4361 -7295.4144 301.8338 -463.0410 -409.2125 29905.8569 181.7109 247.1899
ENERGY: 1500000 7.4856 9.7282 11.5282 0.0000 -10584.1152 1445.5539 0.0000 0.0000 1748.0648 -7361.7545 300.9979 -9109.8193 -7307.1390 300.8742 -96.7830 -85.6606 29524.6131 112.2960 175.2404
TCL: Running FEP window  20: Lambda1 0.049999999999999684 Lambda2 0.0    [dLambda -0.049999999999999684]
TCL: Setting parameter firsttimestep to 0
TCL: Setting parameter alchLambda to 0.049999999999999684
Info: NONBONDED TABLE R-SQUARED SPACING: 0.0625
Info: NONBONDED TABLE SIZE: 705 POINTS
TCL: Setting parameter alchLambda2 to 0.0
Info: NONBONDED TABLE R-SQUARED SPACING: 0.0625
Info: NONBONDED TABLE SIZE: 705 POINTS
TCL: Running for 1500000 steps
ETITLE: TS BOND ANGLE DIHED IMPRP ELECT VDW BOUNDARY MISC KINETIC TOTAL TEMP POTENTIAL TOTALAVG TEMPAVG PRESSURE GPRESSURE VOLUME PRESSAVG GPRESSAVG
ENERGY: 0 7.4856 9.7282 11.5282 0.0000 -10584.1140 1445.4273 0.0000 0.0000 1747.1745 -7362.7702 300.8445 -9109.9447 -7362.7702 300.8445 -175.2918 -90.3524 29524.6131 -175.2918 -90.3524
ENERGY: 300000 6.3570 12.0637 9.8373 0.0000 -10523.4719 1440.8007 0.0000 0.0000 1673.6824 -7380.7308 288.1900 -9054.4132 -7321.2293 296.6752 -56.3788 -33.1195 29545.4435 -136.8954 -53.2329
ENERGY: 600000 6.4571 7.7842 8.6468 0.0000 -10447.5675 1387.7404 0.0000 0.0000 1702.3534 -7334.5855 293.1268 -9036.9389 -7316.2799 297.7837 -549.6929 -429.7347 29878.6156 -269.7096 -190.5442
ENERGY: 900000 5.4960 9.2123 7.8372 0.0000 -10401.0316 1390.8045 0.0000 0.0000 1755.8285 -7231.8532 302.3347 -8987.6816 -7302.7360 299.1130 -308.8441 -210.3554 30077.8148 -253.9122 -181.6185
ENERGY: 1200000 4.4096 10.3143 10.0168 0.0000 -10421.0383 1371.7556 0.0000 0.0000 1760.8403 -7263.7018 303.1977 -9024.5421 -7302.6659 298.8134 -574.9912 -507.8894 30170.3954 -317.1680 -247.8145
ENERGY: 1500000 9.9069 5.6053 11.2862 0.0000 -10553.9995 1476.8014 0.0000 0.0000 1752.5604 -7297.8394 301.7719 -9050.3997 -7297.6856 299.9193 204.5688 288.0012 29641.6783 -277.6728 -205.0828
TCL: Exiting due to exit command.
