Info: SIMULATION PARAMETERS:
Info: TIMESTEP               2
Info: NUMBER OF STEPS        0
Info: STEPS PER CYCLE        10
Info: PERIODIC CELL BASIS 1  31.9903 0 0
Info: PERIODIC CELL BASIS 2  0 29.9516 0
Info: PERIODIC CELL BASIS 3  0 0 31.2306
Info: PERIODIC CELL CENTER   0 0 0
Info: WRAPPING WATERS AROUND PERIODIC BOUNDARIES ON OUTPUT.
Info: WRAPPING ALL CLUSTERS AROUND PERIODIC BOUNDARIES ON OUTPUT.
Info: FIRST LDB TIMESTEP     50
Info: LAST LDB TIMESTEP     -1
Info: HOM BACKGROUND SCALING 1
Info: PME BACKGROUND SCALING 1
Info: MIN ATOMS PER PATCH    40
Info: EMPTY PATCH LOAD       40 ATOMS
Info: VELOCITY FILE          mobley_667278_equil.vel
Info: CENTER OF MASS MOVING INITIALLY? NO
Info: DIELECTRIC             1
Info: EXCLUDE                SCALED ONE-FOUR
Info: 1-4 ELECTROSTATICS SCALED BY 0.833333
Info: MODIFIED 1-4 VDW PARAMETERS WILL BE USED
Info: DCD FILENAME           mobley_667278_prod.dcd
Info: DCD FREQUENCY          100000
Info: DCD FIRST STEP         100000
Info: DCD FILE WILL CONTAIN UNIT CELL DATA
Info: XST FILENAME           mobley_667278_prod.xst
Info: XST FREQUENCY          100000
Info: NO VELOCITY DCD OUTPUT
Info: NO FORCE DCD OUTPUT
Info: OUTPUT FILENAME        mobley_667278_prod
Info: BINARY OUTPUT FILES WILL BE USED
Info: RESTART FILENAME       mobley_667278_prod.restart
Info: RESTART FREQUENCY      100000
Info: BINARY RESTART FILES WILL BE USED
Info: CUTOFF                 9
Info: PAIRLIST DISTANCE      11
Info: PAIRLIST SHRINK RATE   0.01
Info: PAIRLIST GROW RATE     0.01
Info: PAIRLIST TRIGGER       0.3
Info: PAIRLISTS PER CYCLE    2
Info: PAIRLISTS ENABLED
Info: MARGIN                 2
Info: HYDROGEN GROUP CUTOFF  2.5
Info: PATCH DIMENSION        15.5
Info: ENERGY OUTPUT STEPS    100000
Info: ENERGY EVALUATION STEPS    100000
Info: OUTPUT ENERGY PRECISION 4
Info: CROSSTERM ENERGY INCLUDED IN DIHEDRAL
Info: TIMING OUTPUT STEPS    1000000
Info: PRESSURE OUTPUT STEPS  100000
Info: ALCHEMICAL FEP ON
Info: FEP CURRENT LAMBDA VALUE     0
Info: FEP COMPARISON LAMBDA VALUE  0.05
Info: FEP INTRA-ALCHEMICAL NON-BONDED INTERACTIONS WILL BE RETAINED
Info: FEP INTRA-ALCHEMICAL BONDED INTERACTIONS WILL BE RETAINED
Info: FEP VDW SHIFTING COEFFICIENT 5
Info: FEP ELEC. ACTIVE FOR ANNIHILATED PARTICLES BETWEEN LAMBDA = 0 AND LAMBDA = 0.5
Info: FEP ELEC. ACTIVE FOR EXNIHILATED PARTICLES BETWEEN LAMBDA = 0.5 AND LAMBDA = 1
Info: FEP VDW ACTIVE FOR ANNIHILATED PARTICLES BETWEEN LAMBDA = 0 AND LAMBDA = 1
Info: FEP VDW ACTIVE FOR EXNIHILATED PARTICLES BETWEEN LAMBDA = 0 AND LAMBDA = 1
Info: FEP BOND ACTIVE FOR ANNIHILATED PARTICLES BETWEEN LAMBDA = 1 AND LAMBDA = 1
Info: FEP BOND ACTIVE FOR EXNIHILATED PARTICLES BETWEEN LAMBDA = 0 AND LAMBDA = 0
Info: LANGEVIN DYNAMICS ACTIVE
Info: LANGEVIN TEMPERATURE   300
Info: LANGEVIN USING BBK INTEGRATOR
Info: LANGEVIN DAMPING COEFFICIENT IS 1 INVERSE PS
Info: LANGEVIN DYNAMICS APPLIED TO HYDROGENS
Info: LANGEVIN PISTON PRESSURE CONTROL ACTIVE
Info:        TARGET PRESSURE IS 1.01325 BAR
Info:     OSCILLATION PERIOD IS 50 FS
Info:             DECAY TIME IS 25 FS
Info:     PISTON TEMPERATURE IS 300 K
Info:       PRESSURE CONTROL IS GROUP-BASED
Info:    INITIAL STRAIN RATE IS 0.00040872 0.00040872 0.00040872
Info:       CELL FLUCTUATION IS ISOTROPIC
Info: PARTICLE MESH EWALD (PME) ACTIVE
Info: PME TOLERANCE               1e-06
Info: PME EWALD COEFFICIENT       0.348832
Info: PME INTERPOLATION ORDER     4
Info: PME GRID DIMENSIONS         32 32 32
Info: PME MAXIMUM GRID SPACING    1
Info: PME CALCULATION WILL BE PERFORMED ON GPU
Info: FULL ELECTROSTATIC EVALUATION FREQUENCY      2
Info: USING VERLET I (r-RESPA) MTS SCHEME.
Info: C1 SPLITTING OF LONG RANGE ELECTROSTATICS
Info: PLACING ATOMS IN PATCHES BY HYDROGEN GROUPS
Info: RIGID BONDS TO HYDROGEN : ALL
Info:         ERROR TOLERANCE : 1e-08
Info:          MAX ITERATIONS : 100
Info: RIGID WATER USING SETTLE ALGORITHM
Info: RANDOM NUMBER SEED     1743803721
Info: USE HYDROGEN BONDS?    NO
Info: Using AMBER format force field!
Info: AMBER PARM FILE        mobley_667278.prmtop
Info: COORDINATE PDB         mobley_667278.pdb
Info: Exclusions will be read from PARM file!
Info: SCNB (VDW SCALING)     2
Info: USING ARITHMETIC MEAN TO COMBINE L-J SIGMA PARAMETERS
Info: BINARY COORDINATES     mobley_667278_equil.coor
Info: SUMMARY OF PARAMETERS:
Info: 7 BONDS
Info: 8 ANGLES
Info:   8 HARMONIC
Info:   0 COSINE-BASED
Info: 3 DIHEDRAL
Info: 0 IMPROPER
Info: 0 CROSSTERM
Info: 0 VDW
Info: 15 VDW_PAIRS
Info: 0 NBTHOLE_PAIRS
Info: To read alchdata from file: mobley_667278.pdb
Info: To read alchflag data from column: 5
Info: STRUCTURE SUMMARY:
Info: 2950 ATOMS
Info: 2951 BONDS
Info: 36 ANGLES
Info: 64 DIHEDRALS
Info: 0 IMPROPERS
Info: 0 CROSSTERMS
Info: 3033 EXCLUSIONS
Info: 2931 RIGID BONDS
Info: ALCH: 0 ATOMS TO DISAPPEAR IN FINAL STATE
Info: ALCH: 22 ATOMS TO APPEAR IN FINAL STATE
Info: 5919 DEGREES OF FREEDOM
Info: 995 HYDROGEN GROUPS
Info: 3 ATOMS IN LARGEST HYDROGEN GROUP
Info: 995 MIGRATION GROUPS
Info: 3 ATOMS IN LARGEST MIGRATION GROUP
Info: TOTAL MASS = 17978.9 amu
Info: TOTAL CHARGE = -0.000100005 e
Info: MASS DENSITY = 0.997709 g/cm^3
Info: ATOM DENSITY = 0.0985833 atoms/A^3
Info: ADDED 0 IMPLICIT EXCLUSIONS
Info: NONBONDED TABLE R-SQUARED SPACING: 0.0625
Info: NONBONDED TABLE SIZE: 705 POINTS
Info: REMOVING COM VELOCITY 0.0196872 0.0692697 0.360136
Info: Use 3D box decompostion in PME FFT.
Info: Updated CUDA force table with 4096 elements.
Info: Updated CUDA LJ table with 5 x 5 elements.
Info: Found 24 unique exclusion lists needing 72 bytes
TCL: Running for 1500000 steps
ETITLE: TS BOND ANGLE DIHED IMPRP ELECT VDW BOUNDARY MISC KINETIC TOTAL TEMP POTENTIAL TOTALAVG TEMPAVG PRESSURE GPRESSURE VOLUME PRESSAVG GPRESSAVG
ENERGY: 0 5.1267 5.6660 12.9025 0.0000 -10735.2749 1543.8135 0.0000 0.0000 1737.5693 -7430.1968 295.4501 -9167.7662 -7430.1968 295.4501 1236.1261 1312.1316 29923.9383 1236.1261 1312.1316
ENERGY: 300000 4.6370 5.3901 14.0469 0.0000 -10630.3811 1418.2084 0.0000 0.0000 1779.6912 -7408.4075 302.6124 -9188.0987 -7453.6234 299.0478 35.1465 81.3538 29669.9180 328.6078 404.6519
ENERGY: 600000 10.7637 7.1449 10.9525 0.0000 -10680.6918 1433.7120 0.0000 0.0000 1745.3798 -7472.7389 296.7782 -9218.1186 -7448.9576 297.8843 -533.5804 -502.6587 30196.1122 248.8955 315.9919
ENERGY: 900000 9.1079 5.0736 12.7182 0.0000 -10592.5427 1372.5891 0.0000 0.0000 1782.3814 -7410.6726 303.0698 -9193.0540 -7438.2954 299.1805 -622.8936 -611.5430 30110.4250 101.6598 169.0872
ENERGY: 1200000 8.2666 6.0421 8.4179 0.0000 -10654.6984 1422.5388 0.0000 0.0000 1784.9206 -7424.5124 303.5016 -9209.4329 -7438.0869 298.9996 -496.3400 -461.8689 30323.6225 -3.4145 61.0421
ENERGY: 1500000 5.0244 4.7788 12.8136 0.0000 -10579.8606 1416.7654 0.0000 0.0000 1733.9760 -7406.5024 294.8391 -9140.4783 -7443.5393 298.5355 -48.1071 42.2345 30075.2484 28.8356 96.8705
TCL: Running FEP window   2: Lambda1 0.05   Lambda2 0.1    [dLambda 0.05  ]
TCL: Setting parameter firsttimestep to 0
TCL: Setting parameter alchLambda to 0.05
Info: NONBONDED TABLE R-SQUARED SPACING: 0.0625
Info: NONBONDED TABLE SIZE: 705 POINTS
TCL: Setting parameter alchLambda2 to 0.1
Info: NONBONDED TABLE R-SQUARED SPACING: 0.0625
Info: NONBONDED TABLE SIZE: 705 POINTS
TCL: Running for 1500000 steps
ETITLE: TS BOND ANGLE DIHED IMPRP ELECT VDW BOUNDARY MISC KINETIC TOTAL TEMP POTENTIAL TOTALAVG TEMPAVG PRESSURE GPRESSURE VOLUME PRESSAVG GPRESSAVG
ENERGY: 0 5.0244 4.7788 12.8136 0.0000 -10579.8599 1424.9799 0.0000 0.0000 1733.0942 -7399.1690 294.6892 -9132.2632 -7399.1690 294.6892 -22.4689 63.2260 30075.2484 -22.4689 63.2260
ENERGY: 300000 5.1139 6.4167 12.8426 0.0000 -10723.4642 1546.3417 0.0000 0.0000 1748.6909 -7404.0583 297.3412 -9152.7492 -7435.6032 294.6760 793.6985 888.3272 30163.4377 66.5554 120.0119
ENERGY: 600000 4.6420 7.0440 13.9982 0.0000 -10812.2020 1516.5940 0.0000 0.0000 1685.5412 -7584.3826 286.6034 -9269.9238 -7464.5596 295.3819 590.4829 581.3418 29644.3685 262.2610 300.9497
ENERGY: 900000 4.9130 3.9433 14.6290 0.0000 -10741.2514 1474.2406 0.0000 0.0000 1791.6135 -7451.9121 304.6396 -9243.5255 -7469.7062 296.3235 211.8933 315.2832 29814.0057 310.2446 358.4225
ENERGY: 1200000 5.1512 4.5271 12.3116 0.0000 -10858.1817 1566.5999 0.0000 0.0000 1759.9410 -7509.6508 299.2541 -9269.5919 -7468.2497 296.7290 1175.2021 1239.6710 29833.8905 309.3026 358.0279
ENERGY: 1500000 6.1082 4.7728 12.3744 0.0000 -10677.4500 1469.9580 0.0000 0.0000 1747.1689 -7437.0677 297.0824 -9184.2366 -7457.8685 297.2259 -37.7447 57.2337 30317.0115 306.8959 364.7612
TCL: Running FEP window   3: Lambda1 0.1    Lambda2 0.15000000000000002 [dLambda 0.05000000000000002]
TCL: Setting parameter firsttimestep to 0
TCL: Setting parameter alchLambda to 0.1
Info: NONBONDED TABLE R-SQUARED SPACING: 0.0625
Info: NONBONDED TABLE SIZE: 705 POINTS
TCL: Setting parameter alchLambda2 to 0.15000000000000002
Info: NONBONDED TABLE R-SQUARED SPACING: 0.0625
Info: NONBONDED TABLE SIZE: 705 POINTS
TCL: Running for 1500000 steps
ETITLE: TS BOND ANGLE DIHED IMPRP ELECT VDW BOUNDARY MISC KINETIC TOTAL TEMP POTENTIAL TOTALAVG TEMPAVG PRESSURE GPRESSURE VOLUME PRESSAVG GPRESSAVG
ENERGY: 0 6.1082 4.7728 12.3744 0.0000 -10677.4505 1475.1172 0.0000 0.0000 1746.2980 -7432.7800 296.9343 -9179.0780 -7432.7800 296.9343 -6.5828 77.5274 30317.0115 -6.5828 77.5274
ENERGY: 300000 5.2160 5.3347 14.1894 0.0000 -10538.3728 1405.6023 0.0000 0.0000 1805.2005 -7302.8297 306.9499 -9108.0303 -7405.9774 299.5943 -92.1008 -53.4264 30546.2875 68.2814 131.1789
ENERGY: 600000 8.6709 2.1009 16.4221 0.0000 -10628.0611 1425.1546 0.0000 0.0000 1754.2231 -7421.4896 298.2819 -9175.7127 -7418.9688 299.9831 -231.0536 -153.0410 30274.2768 -120.5738 -52.0817
ENERGY: 900000 5.5263 4.9136 15.7936 0.0000 -10792.8992 1516.9433 0.0000 0.0000 1722.4927 -7527.2296 292.8866 -9249.7223 -7426.0400 300.2300 487.9562 506.9763 29979.5167 1.3553 55.7983
ENERGY: 1200000 5.5524 4.8482 9.9915 0.0000 -10778.6536 1474.7794 0.0000 0.0000 1715.7747 -7567.7074 291.7443 -9283.4821 -7424.3041 301.5685 -170.1643 -102.6267 30786.6948 -90.5096 -33.7418
ENERGY: 1500000 3.6643 6.7190 12.9373 0.0000 -10597.8303 1401.4688 0.0000 0.0000 1744.2370 -7428.8039 296.5839 -9173.0409 -7425.2300 301.6825 -299.5029 -178.9414 30333.3372 -123.8716 -64.4288
TCL: Running FEP window   4: Lambda1 0.15000000000000002 Lambda2 0.2    [dLambda 0.04999999999999999]
TCL: Setting parameter firsttimestep to 0
TCL: Setting parameter alchLambda to 0.15000000000000002
Info: NONBONDED TABLE R-SQUARED SPACING: 0.0625
Info: NONBONDED TABLE SIZE: 705 POINTS
TCL: Setting parameter alchLambda2 to 0.2
Info: NONBONDED TABLE R-SQUARED SPACING: 0.0625
Info: NONBONDED TABLE SIZE: 705 POINTS
TCL: Running for 1500000 steps
ETITLE: TS BOND ANGLE DIHED IMPRP ELECT VDW BOUNDARY MISC KINETIC TOTAL TEMP POTENTIAL TOTALAVG TEMPAVG PRESSURE GPRESSURE VOLUME PRESSAVG GPRESSAVG
ENERGY: 0 3.6643 6.7190 12.9373 0.0000 -10597.8309 1401.4155 0.0000 0.0000 1743.3465 -7429.7482 296.4325 -9173.0947 -7429.7482 296.4325 -268.0340 -174.8529 30333.3372 -268.0340 -174.8529
ENERGY: 300000 9.3590 4.4605 14.0430 0.0000 -10575.1507 1415.3366 0.0000 0.0000 1815.8602 -7316.0913 308.7624 -9131.9515 -7405.4435 301.3288 -200.1785 -131.1322 30515.9603 -31.3380 44.6098
ENERGY: 600000 3.5288 6.3802 11.3393 0.0000 -10685.3462 1468.8534 0.0000 0.0000 1759.7265 -7435.5180 299.2177 -9195.2445 -7412.7776 300.1710 230.8755 322.6432 30470.5283 -144.3132 -72.5669
ENERGY: 900000 6.0552 6.1349 14.1213 0.0000 -10605.2442 1467.2524 0.0000 0.0000 1791.4107 -7320.2697 304.6051 -9111.6805 -7407.4220 300.4650 513.7670 502.5706 30438.9496 -41.3398 19.4892
ENERGY: 1200000 7.8575 4.3897 13.4666 0.0000 -10683.9569 1429.8755 0.0000 0.0000 1826.9792 -7401.3884 310.6531 -9228.3676 -7403.3044 301.6988 -48.2757 32.2635 30220.9135 -40.0273 30.3931
ENERGY: 1500000 6.5181 7.3136 11.3107 0.0000 -10563.6158 1349.0082 0.0000 0.0000 1766.9037 -7422.5616 300.4380 -9189.4652 -7415.0168 301.1975 -646.3886 -621.3373 30521.8443 -113.1011 -44.8296
TCL: Running FEP window   5: Lambda1 0.2    Lambda2 0.25   [dLambda 0.04999999999999999]
TCL: Setting parameter firsttimestep to 0
TCL: Setting parameter alchLambda to 0.2
Info: NONBONDED TABLE R-SQUARED SPACING: 0.0625
Info: NONBONDED TABLE SIZE: 705 POINTS
TCL: Setting parameter alchLambda2 to 0.25
Info: NONBONDED TABLE R-SQUARED SPACING: 0.0625
Info: NONBONDED TABLE SIZE: 705 POINTS
TCL: Running for 1500000 steps
ETITLE: TS BOND ANGLE DIHED IMPRP ELECT VDW BOUNDARY MISC KINETIC TOTAL TEMP POTENTIAL TOTALAVG TEMPAVG PRESSURE GPRESSURE VOLUME PRESSAVG GPRESSAVG
ENERGY: 0 6.5181 7.3136 11.3107 0.0000 -10563.6164 1351.1578 0.0000 0.0000 1766.0501 -7421.2662 300.2929 -9187.3163 -7421.2662 300.2929 -671.9051 -603.1031 30521.8443 -671.9051 -603.1031
ENERGY: 300000 6.5835 6.1353 15.1278 0.0000 -10636.2242 1430.1296 0.0000 0.0000 1779.5482 -7398.6998 302.5881 -9178.2480 -7409.4235 301.5912 182.6104 275.7497 29945.1098 -297.9660 -231.3092
ENERGY: 600000 8.0553 5.1026 11.6553 0.0000 -10543.3896 1433.8579 0.0000 0.0000 1754.6975 -7330.0210 298.3625 -9084.7184 -7398.6637 301.1072 -152.3013 -50.8402 31086.0339 -257.7286 -192.5768
ENERGY: 900000 4.5160 9.1618 12.2689 0.0000 -10578.6160 1393.1449 0.0000 0.0000 1736.1728 -7423.3517 295.2127 -9159.5245 -7402.6975 301.4795 -286.8543 -284.8592 30583.2182 -175.7202 -123.8722
ENERGY: 1200000 7.2847 5.9699 14.9545 0.0000 -10551.5056 1401.4896 0.0000 0.0000 1852.0291 -7269.7778 314.9125 -9121.8069 -7393.8831 302.0462 -449.3143 -417.4661 30921.6108 -223.6693 -171.9634
ENERGY: 1500000 5.2569 6.0683 11.1608 0.0000 -10635.5199 1408.9958 0.0000 0.0000 1746.1324 -7457.9057 296.9062 -9204.0381 -7402.8628 301.5503 -420.0423 -362.2029 30635.5426 -258.9438 -213.0374
TCL: Running FEP window   6: Lambda1 0.25   Lambda2 0.3    [dLambda 0.04999999999999999]
TCL: Setting parameter firsttimestep to 0
TCL: Setting parameter alchLambda to 0.25
Info: NONBONDED TABLE R-SQUARED SPACING: 0.0625
Info: NONBONDED TABLE SIZE: 705 POINTS
TCL: Setting parameter alchLambda2 to 0.3
Info: NONBONDED TABLE R-SQUARED SPACING: 0.0625
Info: NONBONDED TABLE SIZE: 705 POINTS
TCL: Running for 1500000 steps
ETITLE: TS BOND ANGLE DIHED IMPRP ELECT VDW BOUNDARY MISC KINETIC TOTAL TEMP POTENTIAL TOTALAVG TEMPAVG PRESSURE GPRESSURE VOLUME PRESSAVG GPRESSAVG
ENERGY: 0 5.2569 6.0683 11.1608 0.0000 -10635.5194 1409.6612 0.0000 0.0000 1745.2614 -7458.1109 296.7581 -9203.3723 -7458.1109 296.7581 -438.4290 -351.8992 30635.5426 -438.4290 -351.8992
ENERGY: 300000 7.0548 5.2955 13.6626 0.0000 -10679.2933 1508.7104 0.0000 0.0000 1765.1962 -7379.3739 300.1477 -9144.5700 -7429.1022 302.7494 607.1727 650.6882 30543.5156 227.2689 284.3765
ENERGY: 600000 7.0431 2.9249 14.7405 0.0000 -10550.5830 1365.1145 0.0000 0.0000 1759.0360 -7401.7240 299.1002 -9160.7600 -7412.8927 301.7671 -560.7027 -556.8603 30364.2928 65.4360 120.9420
ENERGY: 900000 9.4564 5.5661 18.0816 0.0000 -10689.5529 1449.4362 0.0000 0.0000 1770.7125 -7436.3001 301.0857 -9207.0126 -7427.4337 300.2340 -192.8325 -94.2088 30672.4808 -5.6185 52.7861
ENERGY: 1200000 9.3363 5.0816 12.0597 0.0000 -10619.0860 1405.8476 0.0000 0.0000 1784.8618 -7401.8991 303.4916 -9186.7609 -7432.6305 300.3009 -444.2576 -405.8448 30670.9269 -111.0676 -54.4981
ENERGY: 1500000 4.3051 4.6771 19.0569 0.0000 -10782.5165 1476.7292 0.0000 0.0000 1821.8463 -7455.9019 309.7803 -9277.7482 -7426.8025 300.5609 328.7148 369.2207 29808.7215 -144.6763 -83.8482
TCL: Running FEP window   7: Lambda1 0.3    Lambda2 0.35   [dLambda 0.04999999999999999]
TCL: Setting parameter firsttimestep to 0
TCL: Setting parameter alchLambda to 0.3
Info: NONBONDED TABLE R-SQUARED SPACING: 0.0625
Info: NONBONDED TABLE SIZE: 705 POINTS
TCL: Setting parameter alchLambda2 to 0.35
Info: NONBONDED TABLE R-SQUARED SPACING: 0.0625
Info: NONBONDED TABLE SIZE: 705 POINTS
TCL: Running for 1500000 steps
ETITLE: TS BOND ANGLE DIHED IMPRP ELECT VDW BOUNDARY MISC KINETIC TOTAL TEMP POTENTIAL TOTALAVG TEMPAVG PRESSURE GPRESSURE VOLUME PRESSAVG GPRESSAVG
ENERGY: 0 4.3051 4.6771 19.0569 0.0000 -10782.5163 1476.2479 0.0000 0.0000 1820.9918 -7457.2374 309.6350 -9278.2292 -7457.2374 309.6350 276.5207 375.1617 29808.7215 276.5207 375.1617
ENERGY: 300000 6.0059 6.6028 13.5461 0.0000 -10687.7058 1461.0273 0.0000 0.0000 1691.8834 -7508.6403 287.6819 -9200.5237 -7457.1964 300.1281 88.3309 102.7166 30367.3502 184.5923 227.6311
ENERGY: 600000 7.1982 5.7837 10.7267 0.0000 -10634.7295 1454.4275 0.0000 0.0000 1772.3892 -7384.2042 301.3708 -9156.5933 -7431.5102 298.9514 311.7394 346.4940 30256.0213 59.6822 107.7143
ENERGY: 900000 8.7506 6.6009 14.6168 0.0000 -10654.4184 1434.8760 0.0000 0.0000 1750.8716 -7438.7026 297.7120 -9189.5742 -7425.2639 299.8263 -7.0664 103.5697 30352.8780 114.5142 164.2698
ENERGY: 1200000 9.9603 4.6003 10.9054 0.0000 -10573.6057 1414.6102 0.0000 0.0000 1704.0408 -7429.4888 289.7491 -9133.5296 -7424.0150 299.3064 -71.7325 -0.0739 30431.7611 149.5067 202.4631
ENERGY: 1500000 5.0039 6.3084 12.6052 0.0000 -10569.3986 1344.2312 0.0000 0.0000 1771.4822 -7429.7678 301.2166 -9201.2501 -7416.9001 299.8646 -1026.1370 -929.9203 30708.0581 64.9380 125.7987
TCL: Running FEP window   8: Lambda1 0.35   Lambda2 0.39999999999999997 [dLambda 0.04999999999999999]
TCL: Setting parameter firsttimestep to 0
TCL: Setting parameter alchLambda to 0.35
Info: NONBONDED TABLE R-SQUARED SPACING: 0.0625
Info: NONBONDED TABLE SIZE: 705 POINTS
TCL: Setting parameter alchLambda2 to 0.39999999999999997
Info: NONBONDED TABLE R-SQUARED SPACING: 0.0625
Info: NONBONDED TABLE SIZE: 705 POINTS
TCL: Running for 1500000 steps
ETITLE: TS BOND ANGLE DIHED IMPRP ELECT VDW BOUNDARY MISC KINETIC TOTAL TEMP POTENTIAL TOTALAVG TEMPAVG PRESSURE GPRESSURE VOLUME PRESSAVG GPRESSAVG
ENERGY: 0 5.0039 6.3084 12.6052 0.0000 -10569.3983 1345.5558 0.0000 0.0000 1770.6105 -7429.3147 301.0683 -9199.9252 -7429.3147 301.0683 -991.9764 -908.1849 30708.0581 -991.9764 -908.1849
ENERGY: 300000 4.6759 3.9306 11.3446 0.0000 -10622.8168 1446.9232 0.0000 0.0000 1774.2090 -7381.7335 301.6802 -9155.9425 -7402.9333 302.5284 258.6989 335.8500 30294.4458 -81.4452 -50.4265
ENERGY: 600000 3.7284 8.3419 12.9665 0.0000 -10586.7984 1444.0097 0.0000 0.0000 1718.6198 -7399.1320 292.2280 -9117.7518 -7395.3418 301.1808 437.9687 479.3790 30119.4519 -61.1518 -21.1093
ENERGY: 900000 6.2673 5.0882 10.8618 0.0000 -10580.7968 1407.7972 0.0000 0.0000 1779.2657 -7371.5167 302.5400 -9150.7824 -7406.4053 301.1933 -245.5042 -216.4177 30660.7308 -26.3533 14.5317
ENERGY: 1200000 6.9558 5.2724 9.9656 0.0000 -10670.5101 1449.8539 0.0000 0.0000 1731.4955 -7466.9669 294.4174 -9198.4623 -7417.1147 300.3518 -58.7814 -21.8743 30267.3389 -34.8908 12.2529
ENERGY: 1500000 6.9468 3.7972 12.2343 0.0000 -10625.8574 1443.3235 0.0000 0.0000 1764.6863 -7394.8693 300.0610 -9159.5555 -7413.0867 300.8548 -58.3653 48.2864 30447.9412 -31.4777 19.8698
TCL: Running FEP window   9: Lambda1 0.39999999999999997 Lambda2 0.44999999999999996 [dLambda 0.04999999999999999]
TCL: Setting parameter firsttimestep to 0
TCL: Setting parameter alchLambda to 0.39999999999999997
Info: NONBONDED TABLE R-SQUARED SPACING: 0.0625
Info: NONBONDED TABLE SIZE: 705 POINTS
TCL: Setting parameter alchLambda2 to 0.44999999999999996
Info: NONBONDED TABLE R-SQUARED SPACING: 0.0625
Info: NONBONDED TABLE SIZE: 705 POINTS
TCL: Running for 1500000 steps
ETITLE: TS BOND ANGLE DIHED IMPRP ELECT VDW BOUNDARY MISC KINETIC TOTAL TEMP POTENTIAL TOTALAVG TEMPAVG PRESSURE GPRESSURE VOLUME PRESSAVG GPRESSAVG
ENERGY: 0 6.9468 3.7972 12.2343 0.0000 -10625.8575 1442.8001 0.0000 0.0000 1763.8451 -7396.2340 299.9180 -9160.0791 -7396.2340 299.9180 -29.9332 53.2909 30447.9412 -29.9332 53.2909
ENERGY: 300000 6.4625 5.0140 17.5331 0.0000 -10462.9657 1329.1471 0.0000 0.0000 1755.8991 -7348.9099 298.5669 -9104.8090 -7429.2688 301.5657 -928.6293 -854.1726 31018.6130 -349.5948 -287.9318
ENERGY: 600000 5.8476 4.8258 10.6843 0.0000 -10541.9817 1347.2136 0.0000 0.0000 1695.8155 -7477.5949 288.3505 -9173.4104 -7435.4469 299.2446 -930.6489 -868.5375 30775.0866 -366.1428 -304.1775
ENERGY: 900000 6.2890 4.0305 12.3820 0.0000 -10602.6253 1409.6902 0.0000 0.0000 1727.4973 -7442.7362 293.7375 -9170.2335 -7440.1434 297.1907 -459.7119 -391.5014 30782.7893 -249.5458 -177.5222
ENERGY: 1200000 9.3859 4.1300 9.5418 0.0000 -10735.6508 1486.4556 0.0000 0.0000 1752.4916 -7473.6459 297.9875 -9226.1375 -7442.2155 298.3473 545.7587 592.3020 30300.2411 -184.2865 -118.3826
ENERGY: 1500000 9.1092 5.6296 16.9336 0.0000 -10653.9384 1405.7620 0.0000 0.0000 1787.7684 -7428.7356 303.9858 -9216.5040 -7436.5397 299.5216 -541.4878 -451.5273 30443.9437 -224.2536 -158.5106
TCL: Running FEP window  10: Lambda1 0.44999999999999996 Lambda2 0.49999999999999994 [dLambda 0.04999999999999999]
TCL: Setting parameter firsttimestep to 0
TCL: Setting parameter alchLambda to 0.44999999999999996
Info: NONBONDED TABLE R-SQUARED SPACING: 0.0625
Info: NONBONDED TABLE SIZE: 705 POINTS
TCL: Setting parameter alchLambda2 to 0.49999999999999994
Info: NONBONDED TABLE R-SQUARED SPACING: 0.0625
Info: NONBONDED TABLE SIZE: 705 POINTS
TCL: Running for 1500000 steps
ETITLE: TS BOND ANGLE DIHED IMPRP ELECT VDW BOUNDARY MISC KINETIC TOTAL TEMP POTENTIAL TOTALAVG TEMPAVG PRESSURE GPRESSURE VOLUME PRESSAVG GPRESSAVG
ENERGY: 0 9.1092 5.6296 16.9336 0.0000 -10653.9391 1405.6737 0.0000 0.0000 1786.8843 -7429.7087 303.8355 -9216.5930 -7429.7087 303.8355 -524.3397 -440.8604 30443.9437 -524.3397 -440.8604
ENERGY: 300000 3.7459 9.6600 11.1999 0.0000 -10637.3155 1437.3363 0.0000 0.0000 1780.6525 -7394.7209 302.7758 -9175.3733 -7426.1348 301.0234 40.4695 135.4386 30327.1599 68.2708 123.1724
ENERGY: 600000 3.5037 6.4047 13.3310 0.0000 -10686.7785 1468.0489 0.0000 0.0000 1797.3093 -7398.1808 305.6081 -9195.4901 -7420.9334 300.7571 176.6270 247.8120 30293.5292 -37.9232 30.8874
ENERGY: 900000 6.2601 4.1807 9.8835 0.0000 -10685.1088 1468.6755 0.0000 0.0000 1778.0338 -7418.0752 302.3306 -9196.1090 -7436.6108 300.8336 259.8841 292.9106 30494.3500 65.2986 130.0715
ENERGY: 1200000 3.5966 5.3944 11.0049 0.0000 -10796.0761 1543.6041 0.0000 0.0000 1723.5887 -7508.8876 293.0729 -9232.4762 -7448.5098 299.5346 1019.3915 1113.8921 30057.7665 140.1430 194.3983
ENERGY: 1500000 7.9435 5.1188 9.9037 0.0000 -10647.4528 1477.9995 0.0000 0.0000 1792.1186 -7354.3686 304.7255 -9146.4872 -7429.2683 300.6792 272.4665 356.5327 30548.7274 173.5112 234.2017
TCL: Running FEP window  11: Lambda1 0.49999999999999994 Lambda2 0.5499999999999999 [dLambda 0.04999999999999999]
TCL: Setting parameter firsttimestep to 0
TCL: Setting parameter alchLambda to 0.49999999999999994
Info: NONBONDED TABLE R-SQUARED SPACING: 0.0625
Info: NONBONDED TABLE SIZE: 705 POINTS
TCL: Setting parameter alchLambda2 to 0.5499999999999999
Info: NONBONDED TABLE R-SQUARED SPACING: 0.0625
Info: NONBONDED TABLE SIZE: 705 POINTS
TCL: Running for 1500000 steps
ETITLE: TS BOND ANGLE DIHED IMPRP ELECT VDW BOUNDARY MISC KINETIC TOTAL TEMP POTENTIAL TOTALAVG TEMPAVG PRESSURE GPRESSURE VOLUME PRESSAVG GPRESSAVG
ENERGY: 0 7.9435 5.1189 9.9037 0.0000 -10647.4543 1477.4529 0.0000 0.0000 1791.2653 -7355.7700 304.5804 -9147.0353 -7355.7700 304.5804 284.9679 363.4405 30548.7274 284.9679 363.4405
ENERGY: 300000 5.2652 3.3171 14.4312 0.0000 -10647.8860 1413.5644 0.0000 0.0000 1782.8874 -7428.4206 303.1559 -9211.3080 -7412.3566 302.1250 -354.8175 -354.6534 30686.2888 316.5208 337.1627
ENERGY: 600000 7.3452 3.7100 13.7159 0.0000 -10574.8296 1393.2610 0.0000 0.0000 1862.3482 -7294.4494 316.6671 -9156.7976 -7400.3813 305.8404 -116.3497 -8.2807 30358.3676 263.2024 317.0983
ENERGY: 900000 4.0656 4.1037 15.0603 0.0000 -10638.8240 1404.4330 0.0000 0.0000 1771.4853 -7439.6759 301.2171 -9211.1613 -7408.9025 304.5581 -613.7135 -499.0994 30787.7089 56.4952 122.4562
ENERGY: 1200000 9.7180 5.6759 14.3321 0.0000 -10596.3542 1419.5259 0.0000 0.0000 1726.4438 -7420.6585 293.5584 -9147.1023 -7412.2817 303.3959 -440.3547 -382.2828 31107.9180 -22.9633 38.5161
ENERGY: 1500000 5.6993 3.4996 16.5690 0.0000 -10766.4013 1495.1920 0.0000 0.0000 1775.9496 -7469.4918 301.9762 -9245.4414 -7424.9738 302.6900 483.9617 560.1032 29976.0433 67.4999 130.0211
TCL: Running FEP window  12: Lambda1 0.5499999999999999 Lambda2 0.6    [dLambda 0.050000000000000044]
TCL: Setting parameter firsttimestep to 0
TCL: Setting parameter alchLambda to 0.5499999999999999
Info: NONBONDED TABLE R-SQUARED SPACING: 0.0625
Info: NONBONDED TABLE SIZE: 705 POINTS
TCL: Setting parameter alchLambda2 to 0.6
Info: NONBONDED TABLE R-SQUARED SPACING: 0.0625
Info: NONBONDED TABLE SIZE: 705 POINTS
TCL: Running for 1500000 steps
ETITLE: TS BOND ANGLE DIHED IMPRP ELECT VDW BOUNDARY MISC KINETIC TOTAL TEMP POTENTIAL TOTALAVG TEMPAVG PRESSURE GPRESSURE VOLUME PRESSAVG GPRESSAVG
ENERGY: 0 5.6993 3.4996 16.5690 0.0000 -10766.2886 1495.7520 0.0000 0.0000 1775.0776 -7469.6911 301.8279 -9244.7687 -7469.6911 301.8279 514.5565 579.1326 29976.0433 514.5565 579.1326
ENERGY: 300000 6.5104 5.0569 12.4632 0.0000 -10535.8471 1324.4334 0.0000 0.0000 1782.3095 -7405.0737 303.0576 -9187.3832 -7450.9474 298.0950 -746.4613 -716.0976 30681.4815 -296.3143 -241.0586
ENERGY: 600000 6.7342 6.4813 12.0994 0.0000 -10538.3743 1359.2184 0.0000 0.0000 1825.1250 -7328.7160 310.3378 -9153.8410 -7427.5184 298.8777 -471.9705 -426.9109 30574.3014 -263.4992 -216.7387
ENERGY: 900000 5.3149 5.4559 11.4609 0.0000 -10861.6576 1583.2022 0.0000 0.0000 1766.7318 -7489.4919 300.4088 -9256.2237 -7424.7318 299.6898 1262.5920 1334.0518 29998.2475 5.8572 44.1091
ENERGY: 1200000 4.7157 3.3519 15.9853 0.0000 -10530.3031 1303.4207 0.0000 0.0000 1789.3393 -7413.4901 304.2529 -9202.8294 -7419.2981 300.3063 -1095.4234 -984.8454 30734.7071 -81.8534 -27.6101
ENERGY: 1500000 6.7214 3.1609 11.4475 0.0000 -10661.3738 1408.2457 0.0000 0.0000 1767.2133 -7464.5849 300.4907 -9231.7982 -7426.5078 300.3547 -362.6274 -382.4613 30613.0228 -116.7210 -70.3183
TCL: Running FEP window  13: Lambda1 0.6    Lambda2 0.65   [dLambda 0.050000000000000044]
TCL: Setting parameter firsttimestep to 0
TCL: Setting parameter alchLambda to 0.6
Info: NONBONDED TABLE R-SQUARED SPACING: 0.0625
Info: NONBONDED TABLE SIZE: 705 POINTS
TCL: Setting parameter alchLambda2 to 0.65
Info: NONBONDED TABLE R-SQUARED SPACING: 0.0625
Info: NONBONDED TABLE SIZE: 705 POINTS
TCL: Running for 1500000 steps
ETITLE: TS BOND ANGLE DIHED IMPRP ELECT VDW BOUNDARY MISC KINETIC TOTAL TEMP POTENTIAL TOTALAVG TEMPAVG PRESSURE GPRESSURE VOLUME PRESSAVG GPRESSAVG
ENERGY: 0 6.7214 3.1609 11.4475 0.0000 -10661.4654 1408.6522 0.0000 0.0000 1766.3577 -7465.1257 300.3452 -9231.4834 -7465.1257 300.3452 -439.6748 -367.8875 30613.0228 -439.6748 -367.8875
ENERGY: 300000 7.7988 10.2190 13.0195 0.0000 -10505.6495 1336.1903 0.0000 0.0000 1726.3843 -7412.0377 293.5483 -9138.4220 -7424.6111 298.1228 -1013.1680 -925.6434 30950.3281 -140.1779 -80.6167
ENERGY: 600000 5.2189 6.6186 15.3730 0.0000 -10791.0870 1495.7296 0.0000 0.0000 1771.2458 -7496.9011 301.1764 -9268.1469 -7436.2120 299.1225 585.1615 646.1199 29731.6726 -64.8873 -4.6474
ENERGY: 900000 6.4597 4.4137 11.9965 0.0000 -10501.8884 1306.8586 0.0000 0.0000 1736.9030 -7435.2568 295.3368 -9172.1597 -7428.9113 299.1449 -1144.2685 -1094.5692 31020.3495 -157.2178 -91.1704
ENERGY: 1200000 13.0732 4.9557 10.9631 0.0000 -10783.0582 1459.0948 0.0000 0.0000 1790.8499 -7504.1214 304.5098 -9294.9713 -7440.5260 299.6054 -69.8345 -5.9001 30255.9195 -60.7333 6.0785
ENERGY: 1500000 8.1283 6.9928 7.2229 0.0000 -10767.0023 1481.9394 0.0000 0.0000 1846.7960 -7415.9230 314.0226 -9262.7189 -7437.0945 300.2827 208.9719 249.5652 30335.6536 -97.7965 -26.6973
TCL: Running FEP window  14: Lambda1 0.65   Lambda2 0.7000000000000001 [dLambda 0.050000000000000044]
TCL: Setting parameter firsttimestep to 0
TCL: Setting parameter alchLambda to 0.65
Info: NONBONDED TABLE R-SQUARED SPACING: 0.0625
Info: NONBONDED TABLE SIZE: 705 POINTS
TCL: Setting parameter alchLambda2 to 0.7000000000000001
Info: NONBONDED TABLE R-SQUARED SPACING: 0.0625
Info: NONBONDED TABLE SIZE: 705 POINTS
TCL: Running for 1500000 steps
ETITLE: TS BOND ANGLE DIHED IMPRP ELECT VDW BOUNDARY MISC KINETIC TOTAL TEMP POTENTIAL TOTALAVG TEMPAVG PRESSURE GPRESSURE VOLUME PRESSAVG GPRESSAVG
ENERGY: 0 8.1283 6.9928 7.2229 0.0000 -10766.8729 1482.8693 0.0000 0.0000 1845.9148 -7415.7449 313.8728 -9261.6597 -7415.7449 313.8728 182.4173 272.1406 30335.6536 182.4173 272.1406
ENERGY: 300000 7.5454 6.9840 11.4380 0.0000 -10670.3807 1505.2842 0.0000 0.0000 1721.6485 -7417.4806 292.7430 -9139.1291 -7448.2498 301.1596 337.2000 440.2990 30687.5554 -80.3169 -21.9700
ENERGY: 600000 5.3035 6.4183 8.1019 0.0000 -10532.5136 1379.5040 0.0000 0.0000 1777.9612 -7355.2246 302.3182 -9133.1858 -7402.9779 301.3964 -253.2113 -210.3045 30774.7890 -205.3273 -140.8880
ENERGY: 900000 9.2102 3.3742 9.1416 0.0000 -10651.0876 1418.8503 0.0000 0.0000 1767.0036 -7443.5076 300.4550 -9210.5113 -7416.0948 300.8675 -415.9884 -413.7562 30663.3063 -266.8204 -217.6516
ENERGY: 1200000 7.5644 4.0644 12.0474 0.0000 -10654.3639 1427.8279 0.0000 0.0000 1782.8225 -7420.0373 303.1448 -9202.8599 -7414.1233 301.2423 54.8268 86.3646 30302.9394 -332.7169 -279.4241
ENERGY: 1500000 5.3082 4.2288 11.1720 0.0000 -10454.0473 1308.6055 0.0000 0.0000 1741.6383 -7383.0945 296.1420 -9124.7328 -7410.6246 300.8762 -946.2015 -839.5648 31131.5318 -352.0191 -298.8514
TCL: Running FEP window  15: Lambda1 0.7000000000000001 Lambda2 0.7500000000000001 [dLambda 0.050000000000000044]
TCL: Setting parameter firsttimestep to 0
TCL: Setting parameter alchLambda to 0.7000000000000001
Info: NONBONDED TABLE R-SQUARED SPACING: 0.0625
Info: NONBONDED TABLE SIZE: 705 POINTS
TCL: Setting parameter alchLambda2 to 0.7500000000000001
Info: NONBONDED TABLE R-SQUARED SPACING: 0.0625
Info: NONBONDED TABLE SIZE: 705 POINTS
TCL: Running for 1500000 steps
ETITLE: TS BOND ANGLE DIHED IMPRP ELECT VDW BOUNDARY MISC KINETIC TOTAL TEMP POTENTIAL TOTALAVG TEMPAVG PRESSURE GPRESSURE VOLUME PRESSAVG GPRESSAVG
ENERGY: 0 5.3082 4.2288 11.1720 0.0000 -10454.3791 1307.8820 0.0000 0.0000 1740.7494 -7385.0388 295.9909 -9125.7882 -7385.0388 295.9909 -902.2053 -831.9473 31131.5318 -902.2053 -831.9473
ENERGY: 300000 4.0927 4.1700 12.3825 0.0000 -10751.2951 1528.9120 0.0000 0.0000 1783.3910 -7418.3470 303.2415 -9201.7380 -7423.5685 297.2595 869.6525 903.6383 30466.9807 -535.2477 -480.4459
ENERGY: 600000 6.1565 6.9035 9.7235 0.0000 -10717.1703 1485.2610 0.0000 0.0000 1812.6313 -7396.4945 308.2134 -9209.1258 -7423.7774 299.0760 245.4530 286.4809 30612.9837 -305.3501 -252.4288
ENERGY: 900000 5.3237 6.5641 9.9295 0.0000 -10731.0650 1457.3645 0.0000 0.0000 1772.3097 -7479.5735 301.3573 -9251.8832 -7428.1709 299.5897 257.7291 284.8015 29975.7190 -72.4265 -25.7924
ENERGY: 1200000 7.1608 5.8720 14.0693 0.0000 -10502.0807 1283.7450 0.0000 0.0000 1759.4158 -7431.8177 299.1648 -9191.2335 -7431.8378 299.2997 -1126.7909 -1065.0914 30605.9026 -168.0868 -116.3749
ENERGY: 1500000 7.8412 4.1313 9.9482 0.0000 -10610.7656 1399.6668 0.0000 0.0000 1751.8317 -7437.3464 297.8753 -9189.1781 -7430.8131 299.0599 -310.6102 -245.1530 30743.0956 -207.7582 -152.4886
TCL: Running FEP window  16: Lambda1 0.7500000000000001 Lambda2 0.8000000000000002 [dLambda 0.050000000000000044]
TCL: Setting parameter firsttimestep to 0
TCL: Setting parameter alchLambda to 0.7500000000000001
Info: NONBONDED TABLE R-SQUARED SPACING: 0.0625
Info: NONBONDED TABLE SIZE: 705 POINTS
TCL: Setting parameter alchLambda2 to 0.8000000000000002
Info: NONBONDED TABLE R-SQUARED SPACING: 0.0625
Info: NONBONDED TABLE SIZE: 705 POINTS
TCL: Running for 1500000 steps
ETITLE: TS BOND ANGLE DIHED IMPRP ELECT VDW BOUNDARY MISC KINETIC TOTAL TEMP POTENTIAL TOTALAVG TEMPAVG PRESSURE GPRESSURE VOLUME PRESSAVG GPRESSAVG
ENERGY: 0 7.8412 4.1313 9.9482 0.0000 -10610.7609 1399.4298 0.0000 0.0000 1750.9765 -7438.4339 297.7298 -9189.4104 -7438.4339 297.7298 -318.7285 -229.4901 30743.0956 -318.7285 -229.4901
ENERGY: 300000 7.6395 3.9915 12.9743 0.0000 -10679.6249 1444.9925 0.0000 0.0000 1753.2528 -7456.7744 298.1169 -9210.0272 -7408.9849 300.2001 -64.0470 -42.2173 30358.2403 44.0484 105.3152
ENERGY: 600000 7.9343 2.4602 12.6897 0.0000 -10624.8241 1411.0332 0.0000 0.0000 1763.5601 -7427.1465 299.8695 -9190.7067 -7429.1612 299.3935 -156.2940 -123.6634 30827.6907 143.1181 202.8517
ENERGY: 900000 6.8337 8.6593 16.2330 0.0000 -10660.1276 1395.8743 0.0000 0.0000 1742.9060 -7489.6213 296.3576 -9232.5273 -7424.8434 300.7010 -420.0802 -313.3817 30742.8601 20.6342 83.4235
ENERGY: 1200000 12.8823 4.7672 11.8795 0.0000 -10622.0999 1408.9253 0.0000 0.0000 1722.8240 -7460.8215 292.9429 -9183.6455 -7424.9881 300.5933 -279.0127 -158.8881 30207.0840 -2.2758 52.8512
ENERGY: 1500000 7.2499 4.5144 9.9530 0.0000 -10775.7100 1559.1613 0.0000 0.0000 1803.1239 -7391.7074 306.5968 -9194.8314 -7417.6809 301.4205 994.5586 1058.3701 30506.5778 111.2154 165.1523
TCL: Running FEP window  17: Lambda1 0.8000000000000002 Lambda2 0.8500000000000002 [dLambda 0.050000000000000044]
TCL: Setting parameter firsttimestep to 0
TCL: Setting parameter alchLambda to 0.8000000000000002
Info: NONBONDED TABLE R-SQUARED SPACING: 0.0625
Info: NONBONDED TABLE SIZE: 705 POINTS
TCL: Setting parameter alchLambda2 to 0.8500000000000002
Info: NONBONDED TABLE R-SQUARED SPACING: 0.0625
Info: NONBONDED TABLE SIZE: 705 POINTS
TCL: Running for 1500000 steps
ETITLE: TS BOND ANGLE DIHED IMPRP ELECT VDW BOUNDARY MISC KINETIC TOTAL TEMP POTENTIAL TOTALAVG TEMPAVG PRESSURE GPRESSURE VOLUME PRESSAVG GPRESSAVG
ENERGY: 0 7.2499 4.5144 9.9530 0.0000 -10775.8454 1560.2448 0.0000 0.0000 1802.2599 -7391.6233 306.4499 -9193.8833 -7391.6233 306.4499 994.9723 1085.9364 30506.5778 994.9723 1085.9364
ENERGY: 300000 8.7527 2.8763 14.8477 0.0000 -10491.1182 1367.0328 0.0000 0.0000 1757.6650 -7339.9437 298.8671 -9097.6087 -7390.0962 301.4977 -3.0961 28.0215 30418.4490 208.2777 263.0112
ENERGY: 600000 10.4645 4.4440 10.2264 0.0000 -10805.0731 1483.4812 0.0000 0.0000 1715.4531 -7581.0040 291.6896 -9296.4570 -7438.9066 298.2397 -290.1949 -220.2362 30750.2734 -25.0986 27.1367
ENERGY: 900000 4.0080 5.0814 10.3454 0.0000 -10726.7065 1498.3504 0.0000 0.0000 1783.1618 -7425.7595 303.2025 -9208.9212 -7435.7281 298.7932 633.2001 673.2424 30098.7745 -24.0460 36.8455
ENERGY: 1200000 6.6400 4.3029 11.6605 0.0000 -10655.7663 1395.9957 0.0000 0.0000 1775.9781 -7461.1891 301.9810 -9237.1671 -7426.2249 300.6831 -259.0028 -289.8043 30337.7861 -40.1080 8.9675
ENERGY: 1500000 5.5166 3.9139 12.0558 0.0000 -10614.9643 1411.7472 0.0000 0.0000 1780.7131 -7401.0177 302.7861 -9181.7308 -7424.0403 300.8360 45.4552 115.8152 30088.9493 -17.4903 31.4718
TCL: Running FEP window  18: Lambda1 0.8500000000000002 Lambda2 0.9000000000000002 [dLambda 0.050000000000000044]
TCL: Setting parameter firsttimestep to 0
TCL: Setting parameter alchLambda to 0.8500000000000002
Info: NONBONDED TABLE R-SQUARED SPACING: 0.0625
Info: NONBONDED TABLE SIZE: 705 POINTS
TCL: Setting parameter alchLambda2 to 0.9000000000000002
Info: NONBONDED TABLE R-SQUARED SPACING: 0.0625
Info: NONBONDED TABLE SIZE: 705 POINTS
TCL: Running for 1500000 steps
ETITLE: TS BOND ANGLE DIHED IMPRP ELECT VDW BOUNDARY MISC KINETIC TOTAL TEMP POTENTIAL TOTALAVG TEMPAVG PRESSURE GPRESSURE VOLUME PRESSAVG GPRESSAVG
ENERGY: 0 5.5166 3.9139 12.0558 0.0000 -10615.2392 1411.1565 0.0000 0.0000 1779.8442 -7402.7521 302.6384 -9182.5964 -7402.7521 302.6384 62.6873 132.6849 30088.9493 62.6873 132.6849
ENERGY: 300000 4.3397 4.7509 14.6608 0.0000 -10650.9021 1453.1540 0.0000 0.0000 1798.2167 -7375.7799 305.7624 -9173.9965 -7382.9878 305.1816 294.9257 417.5834 30781.7734 62.9981 136.0205
ENERGY: 600000 3.8295 6.4907 16.6215 0.0000 -10652.9405 1448.8202 0.0000 0.0000 1734.2629 -7442.9157 294.8879 -9177.1785 -7415.3741 302.1486 290.6325 282.0259 30707.8545 60.6401 129.3654
ENERGY: 900000 7.4577 8.7514 14.9959 0.0000 -10562.4887 1405.3713 0.0000 0.0000 1786.3080 -7339.6043 303.7375 -9125.9123 -7404.0505 303.1287 -213.7880 -180.2237 30538.8661 147.1828 205.3509
ENERGY: 1200000 10.5695 4.3272 10.6328 0.0000 -10611.7845 1393.2905 0.0000 0.0000 1784.0910 -7408.8735 303.3605 -9192.9645 -7407.0689 303.2577 -434.8804 -392.5138 30602.0268 74.4454 139.3021
ENERGY: 1500000 7.6767 6.4425 14.5471 0.0000 -10602.2191 1411.4413 0.0000 0.0000 1762.5889 -7399.5226 299.7044 -9162.1115 -7404.7502 302.5224 -308.4485 -200.8641 30988.0143 -5.5906 59.1076
TCL: Running FEP window  19: Lambda1 0.9000000000000002 Lambda2 0.9500000000000003 [dLambda 0.050000000000000044]
TCL: Setting parameter firsttimestep to 0
TCL: Setting parameter alchLambda to 0.9000000000000002
Info: NONBONDED TABLE R-SQUARED SPACING: 0.0625
Info: NONBONDED TABLE SIZE: 705 POINTS
TCL: Setting parameter alchLambda2 to 0.9500000000000003
Info: NONBONDED TABLE R-SQUARED SPACING: 0.0625
Info: NONBONDED TABLE SIZE: 705 POINTS
TCL: Running for 1500000 steps
ETITLE: TS BOND ANGLE DIHED IMPRP ELECT VDW BOUNDARY MISC KINETIC TOTAL TEMP POTENTIAL TOTALAVG TEMPAVG PRESSURE GPRESSURE VOLUME PRESSAVG GPRESSAVG
ENERGY: 0 7.6767 6.4425 14.5471 0.0000 -10602.5076 1411.1259 0.0000 0.0000 1761.7002 -7401.0152 299.5533 -9162.7154 -7401.0152 299.5533 -277.2968 -188.7003 30988.0143 -277.2968 -188.7003
ENERGY: 300000 2.8957 6.6706 10.4132 0.0000 -10559.8884 1413.6307 0.0000 0.0000 1804.0651 -7322.2131 306.7568 -9126.2782 -7388.0532 303.2297 221.9720 304.1934 30727.9119 -266.5281 -158.3529
ENERGY: 600000 7.3911 7.1843 13.5825 0.0000 -10561.4434 1332.4535 0.0000 0.0000 1780.1074 -7420.7246 302.6832 -9200.8320 -7383.7287 302.7513 -879.2479 -822.9039 30890.8613 -280.1073 -185.5965
ENERGY: 900000 5.8041 5.7455 10.2907 0.0000 -10649.0939 1403.5496 0.0000 0.0000 1750.0899 -7473.6142 297.5791 -9223.7041 -7385.7951 302.7190 -128.0178 -52.8416 30455.3067 -184.5973 -104.3190
ENERGY: 1200000 7.6514 3.5506 11.9510 0.0000 -10625.5734 1397.4517 0.0000 0.0000 1750.5753 -7454.3934 297.6616 -9204.9687 -7394.1747 302.3306 -466.6519 -460.8688 30546.7902 -240.9869 -172.9516
ENERGY: 1500000 6.2446 5.5263 11.1077 0.0000 -10737.1905 1471.4350 0.0000 0.0000 1735.0275 -7507.8493 295.0179 -9242.8768 -7403.6419 301.7648 531.6114 529.8418 29935.7323 -202.9071 -144.8964
TCL: Running FEP window  20: Lambda1 0.9500000000000003 Lambda2 1.0    [dLambda 0.04999999999999971]
TCL: Setting parameter firsttimestep to 0
TCL: Setting parameter alchLambda to 0.9500000000000003
Info: NONBONDED TABLE R-SQUARED SPACING: 0.0625
Info: NONBONDED TABLE SIZE: 705 POINTS
TCL: Setting parameter alchLambda2 to 1.0
Info: NONBONDED TABLE R-SQUARED SPACING: 0.0625
Info: NONBONDED TABLE SIZE: 705 POINTS
TCL: Running for 1500000 steps
ETITLE: TS BOND ANGLE DIHED IMPRP ELECT VDW BOUNDARY MISC KINETIC TOTAL TEMP POTENTIAL TOTALAVG TEMPAVG PRESSURE GPRESSURE VOLUME PRESSAVG GPRESSAVG
ENERGY: 0 6.2446 5.5263 11.1077 0.0000 -10737.4015 1471.8738 0.0000 0.0000 1734.1859 -7508.4631 294.8748 -9242.6491 -7508.4631 294.8748 483.0084 562.4841 29935.7323 483.0084 562.4841
ENERGY: 300000 3.6333 6.0234 9.8375 0.0000 -10632.6327 1360.0232 0.0000 0.0000 1806.8134 -7446.3019 307.2241 -9253.1153 -7469.5900 300.2939 -648.3193 -536.8304 30409.1202 137.2420 203.0782
ENERGY: 600000 7.3607 5.2581 10.3514 0.0000 -10687.6740 1438.4278 0.0000 0.0000 1782.1999 -7444.0761 303.0390 -9226.2760 -7462.9981 300.4462 53.1191 148.2387 30675.5786 149.1830 213.8125
ENERGY: 900000 6.7746 4.9405 13.2035 0.0000 -10689.0143 1445.0484 0.0000 0.0000 1744.1113 -7474.9361 296.5625 -9219.0474 -7453.0705 300.3989 246.6020 232.5721 30162.2058 215.6227 263.7566
ENERGY: 1200000 6.1748 7.5393 12.5634 0.0000 -10572.7272 1385.0762 0.0000 0.0000 1788.4442 -7372.9293 304.1007 -9161.3734 -7439.0140 300.3675 -131.4244 -85.6398 30208.4167 204.5689 255.0667
ENERGY: 1500000 10.9359 2.5787 11.6818 0.0000 -10601.9198 1403.5431 0.0000 0.0000 1749.6572 -7423.5232 297.5055 -9173.1804 -7437.9644 300.3422 -380.6248 -288.5335 30737.0777 208.7144 267.8764
TCL: Exiting due to exit command.
