Info: SIMULATION PARAMETERS:
Info: TIMESTEP               2
Info: NUMBER OF STEPS        0
Info: STEPS PER CYCLE        10
Info: PERIODIC CELL BASIS 1  30.7456 0 0
Info: PERIODIC CELL BASIS 2  0 31.4425 0
Info: PERIODIC CELL BASIS 3  0 0 31.3238
Info: PERIODIC CELL CENTER   0 0 0
Info: WRAPPING WATERS AROUND PERIODIC BOUNDARIES ON OUTPUT.
Info: WRAPPING ALL CLUSTERS AROUND PERIODIC BOUNDARIES ON OUTPUT.
Info: FIRST LDB TIMESTEP     50
Info: LAST LDB TIMESTEP     -1
Info: HOM BACKGROUND SCALING 1
Info: PME BACKGROUND SCALING 1
Info: MIN ATOMS PER PATCH    40
Info: EMPTY PATCH LOAD       40 ATOMS
Info: VELOCITY FILE          mobley_8427539_equil.vel
Info: CENTER OF MASS MOVING INITIALLY? NO
Info: DIELECTRIC             1
Info: EXCLUDE                SCALED ONE-FOUR
Info: 1-4 ELECTROSTATICS SCALED BY 0.833333
Info: MODIFIED 1-4 VDW PARAMETERS WILL BE USED
Info: DCD FILENAME           mobley_8427539_prod.dcd
Info: DCD FREQUENCY          100000
Info: DCD FIRST STEP         100000
Info: DCD FILE WILL CONTAIN UNIT CELL DATA
Info: XST FILENAME           mobley_8427539_prod.xst
Info: XST FREQUENCY          100000
Info: NO VELOCITY DCD OUTPUT
Info: NO FORCE DCD OUTPUT
Info: OUTPUT FILENAME        mobley_8427539_prod
Info: BINARY OUTPUT FILES WILL BE USED
Info: RESTART FILENAME       mobley_8427539_prod.restart
Info: RESTART FREQUENCY      100000
Info: BINARY RESTART FILES WILL BE USED
Info: CUTOFF                 9
Info: PAIRLIST DISTANCE      11
Info: PAIRLIST SHRINK RATE   0.01
Info: PAIRLIST GROW RATE     0.01
Info: PAIRLIST TRIGGER       0.3
Info: PAIRLISTS PER CYCLE    2
Info: PAIRLISTS ENABLED
Info: MARGIN                 2
Info: HYDROGEN GROUP CUTOFF  2.5
Info: PATCH DIMENSION        15.5
Info: ENERGY OUTPUT STEPS    100000
Info: ENERGY EVALUATION STEPS    100000
Info: OUTPUT ENERGY PRECISION 4
Info: CROSSTERM ENERGY INCLUDED IN DIHEDRAL
Info: TIMING OUTPUT STEPS    1000000
Info: PRESSURE OUTPUT STEPS  100000
Info: ALCHEMICAL FEP ON
Info: FEP CURRENT LAMBDA VALUE     0
Info: FEP COMPARISON LAMBDA VALUE  0.05
Info: FEP INTRA-ALCHEMICAL NON-BONDED INTERACTIONS WILL BE RETAINED
Info: FEP INTRA-ALCHEMICAL BONDED INTERACTIONS WILL BE RETAINED
Info: FEP VDW SHIFTING COEFFICIENT 5
Info: FEP ELEC. ACTIVE FOR ANNIHILATED PARTICLES BETWEEN LAMBDA = 0 AND LAMBDA = 0.5
Info: FEP ELEC. ACTIVE FOR EXNIHILATED PARTICLES BETWEEN LAMBDA = 0.5 AND LAMBDA = 1
Info: FEP VDW ACTIVE FOR ANNIHILATED PARTICLES BETWEEN LAMBDA = 0 AND LAMBDA = 1
Info: FEP VDW ACTIVE FOR EXNIHILATED PARTICLES BETWEEN LAMBDA = 0 AND LAMBDA = 1
Info: FEP BOND ACTIVE FOR ANNIHILATED PARTICLES BETWEEN LAMBDA = 1 AND LAMBDA = 1
Info: FEP BOND ACTIVE FOR EXNIHILATED PARTICLES BETWEEN LAMBDA = 0 AND LAMBDA = 0
Info: LANGEVIN DYNAMICS ACTIVE
Info: LANGEVIN TEMPERATURE   300
Info: LANGEVIN USING BBK INTEGRATOR
Info: LANGEVIN DAMPING COEFFICIENT IS 1 INVERSE PS
Info: LANGEVIN DYNAMICS APPLIED TO HYDROGENS
Info: LANGEVIN PISTON PRESSURE CONTROL ACTIVE
Info:        TARGET PRESSURE IS 1.01325 BAR
Info:     OSCILLATION PERIOD IS 50 FS
Info:             DECAY TIME IS 25 FS
Info:     PISTON TEMPERATURE IS 300 K
Info:       PRESSURE CONTROL IS GROUP-BASED
Info:    INITIAL STRAIN RATE IS 0.000352404 0.000352404 0.000352404
Info:       CELL FLUCTUATION IS ISOTROPIC
Info: PARTICLE MESH EWALD (PME) ACTIVE
Info: PME TOLERANCE               1e-06
Info: PME EWALD COEFFICIENT       0.348832
Info: PME INTERPOLATION ORDER     4
Info: PME GRID DIMENSIONS         32 32 32
Info: PME MAXIMUM GRID SPACING    1
Info: PME CALCULATION WILL BE PERFORMED ON GPU
Info: FULL ELECTROSTATIC EVALUATION FREQUENCY      2
Info: USING VERLET I (r-RESPA) MTS SCHEME.
Info: C1 SPLITTING OF LONG RANGE ELECTROSTATICS
Info: PLACING ATOMS IN PATCHES BY HYDROGEN GROUPS
Info: RIGID BONDS TO HYDROGEN : ALL
Info:         ERROR TOLERANCE : 1e-08
Info:          MAX ITERATIONS : 100
Info: RIGID WATER USING SETTLE ALGORITHM
Info: RANDOM NUMBER SEED     1743725535
Info: USE HYDROGEN BONDS?    NO
Info: Using AMBER format force field!
Info: AMBER PARM FILE        mobley_8427539.prmtop
Info: COORDINATE PDB         mobley_8427539.pdb
Info: Exclusions will be read from PARM file!
Info: SCNB (VDW SCALING)     2
Info: USING ARITHMETIC MEAN TO COMBINE L-J SIGMA PARAMETERS
Info: BINARY COORDINATES     mobley_8427539_equil.coor
Info: SUMMARY OF PARAMETERS:
Info: 8 BONDS
Info: 9 ANGLES
Info:   9 HARMONIC
Info:   0 COSINE-BASED
Info: 12 DIHEDRAL
Info: 0 IMPROPER
Info: 0 CROSSTERM
Info: 0 VDW
Info: 36 VDW_PAIRS
Info: 0 NBTHOLE_PAIRS
Info: To read alchdata from file: mobley_8427539.pdb
Info: To read alchflag data from column: 5
Info: STRUCTURE SUMMARY:
Info: 2973 ATOMS
Info: 2972 BONDS
Info: 18 ANGLES
Info: 28 DIHEDRALS
Info: 0 IMPROPERS
Info: 0 CROSSTERMS
Info: 3009 EXCLUSIONS
Info: 2968 RIGID BONDS
Info: ALCH: 0 ATOMS TO DISAPPEAR IN FINAL STATE
Info: ALCH: 12 ATOMS TO APPEAR IN FINAL STATE
Info: 5951 DEGREES OF FREEDOM
Info: 992 HYDROGEN GROUPS
Info: 4 ATOMS IN LARGEST HYDROGEN GROUP
Info: 992 MIGRATION GROUPS
Info: 4 ATOMS IN LARGEST MIGRATION GROUP
Info: TOTAL MASS = 17854.9 amu
Info: TOTAL CHARGE = 0.00019991 e
Info: MASS DENSITY = 0.979135 g/cm^3
Info: ATOM DENSITY = 0.0981795 atoms/A^3
Info: ADDED 0 IMPLICIT EXCLUSIONS
Info: NONBONDED TABLE R-SQUARED SPACING: 0.0625
Info: NONBONDED TABLE SIZE: 705 POINTS
Info: REMOVING COM VELOCITY -0.024431 -0.233284 0.300096
Info: Use 3D box decompostion in PME FFT.
Info: Updated CUDA force table with 4096 elements.
Info: Updated CUDA LJ table with 8 x 8 elements.
Info: Found 15 unique exclusion lists needing 28 bytes
TCL: Running for 1500000 steps
ETITLE: TS BOND ANGLE DIHED IMPRP ELECT VDW BOUNDARY MISC KINETIC TOTAL TEMP POTENTIAL TOTALAVG TEMPAVG PRESSURE GPRESSURE VOLUME PRESSAVG GPRESSAVG
ENERGY: 0 0.3263 2.8018 8.0813 0.0000 -10758.4483 1440.4977 0.0000 0.0000 1800.1524 -7506.5888 304.4456 -9306.7412 -7506.5888 304.4456 136.5526 223.5132 30281.2570 136.5526 223.5132
ENERGY: 300000 1.4688 8.0281 7.5660 0.0000 -10835.2998 1484.3664 0.0000 0.0000 1801.2469 -7532.6237 304.6307 -9333.8705 -7573.5708 302.6262 313.2341 399.0048 30455.5070 -171.2906 -82.5148
ENERGY: 600000 1.9687 3.1438 7.6945 0.0000 -10816.8404 1450.3214 0.0000 0.0000 1752.6324 -7601.0797 296.4089 -9353.7121 -7588.9381 298.8300 -58.1388 -41.6884 30546.6319 -216.5139 -156.0576
ENERGY: 900000 0.4215 9.1330 6.5713 0.0000 -10611.6071 1359.0498 0.0000 0.0000 1852.2031 -7384.2285 313.2485 -9236.4316 -7569.2087 301.6070 -274.1588 -176.7818 30399.4201 -254.9291 -194.9531
ENERGY: 1200000 3.7920 7.5074 6.4241 0.0000 -10758.1303 1393.2548 0.0000 0.0000 1764.4828 -7582.6691 298.4131 -9347.1520 -7574.2883 300.2748 -457.4393 -408.7065 30543.3793 -224.0103 -164.5025
ENERGY: 1500000 0.4678 7.0612 6.0047 0.0000 -10933.0741 1500.8799 0.0000 0.0000 1743.7875 -7674.8730 294.9131 -9418.6606 -7567.4615 300.6418 92.1107 139.3618 30483.4986 -142.2825 -87.2696
TCL: Running FEP window   2: Lambda1 0.05   Lambda2 0.1    [dLambda 0.05  ]
TCL: Setting parameter firsttimestep to 0
TCL: Setting parameter alchLambda to 0.05
Info: NONBONDED TABLE R-SQUARED SPACING: 0.0625
Info: NONBONDED TABLE SIZE: 705 POINTS
TCL: Setting parameter alchLambda2 to 0.1
Info: NONBONDED TABLE R-SQUARED SPACING: 0.0625
Info: NONBONDED TABLE SIZE: 705 POINTS
TCL: Running for 1500000 steps
ETITLE: TS BOND ANGLE DIHED IMPRP ELECT VDW BOUNDARY MISC KINETIC TOTAL TEMP POTENTIAL TOTALAVG TEMPAVG PRESSURE GPRESSURE VOLUME PRESSAVG GPRESSAVG
ENERGY: 0 0.4678 7.0612 6.0047 0.0000 -10933.0743 1501.5018 0.0000 0.0000 1742.8876 -7675.1512 294.7609 -9418.0388 -7675.1512 294.7609 67.7702 142.8477 30483.4986 67.7702 142.8477
ENERGY: 300000 0.3553 5.0262 8.6144 0.0000 -10805.8258 1399.0916 0.0000 0.0000 1771.7388 -7620.9995 299.6402 -9392.7384 -7636.6909 300.4164 -601.4118 -540.9714 30705.6480 -163.6656 -83.7043
ENERGY: 600000 2.5119 2.0975 7.9255 0.0000 -10713.6145 1393.5308 0.0000 0.0000 1746.6221 -7560.9267 295.3924 -9307.5488 -7634.3566 297.7639 -410.2700 -312.3342 30831.1100 -148.9406 -73.1723
ENERGY: 900000 0.6965 5.3003 8.1952 0.0000 -10769.9099 1429.3708 0.0000 0.0000 1808.4821 -7517.8650 305.8543 -9326.3471 -7605.3384 299.1642 -26.0897 9.4308 30519.9827 -133.6204 -58.2714
ENERGY: 1200000 0.4303 3.6725 7.9717 0.0000 -10807.5807 1452.7518 0.0000 0.0000 1737.4796 -7605.2748 293.8462 -9342.7544 -7599.0776 299.3312 -114.2355 7.3991 30496.7154 -69.2671 7.5586
ENERGY: 1500000 0.3177 2.8122 8.2042 0.0000 -10699.8062 1427.0750 0.0000 0.0000 1714.8903 -7546.5068 290.0259 -9261.3971 -7586.8668 299.6042 118.5044 199.8921 30119.7822 -66.6694 9.5849
TCL: Running FEP window   3: Lambda1 0.1    Lambda2 0.15000000000000002 [dLambda 0.05000000000000002]
TCL: Setting parameter firsttimestep to 0
TCL: Setting parameter alchLambda to 0.1
Info: NONBONDED TABLE R-SQUARED SPACING: 0.0625
Info: NONBONDED TABLE SIZE: 705 POINTS
TCL: Setting parameter alchLambda2 to 0.15000000000000002
Info: NONBONDED TABLE R-SQUARED SPACING: 0.0625
Info: NONBONDED TABLE SIZE: 705 POINTS
TCL: Running for 1500000 steps
ETITLE: TS BOND ANGLE DIHED IMPRP ELECT VDW BOUNDARY MISC KINETIC TOTAL TEMP POTENTIAL TOTALAVG TEMPAVG PRESSURE GPRESSURE VOLUME PRESSAVG GPRESSAVG
ENERGY: 0 0.3177 2.8122 8.2042 0.0000 -10699.8062 1426.6971 0.0000 0.0000 1713.9992 -7547.7757 289.8752 -9261.7750 -7547.7757 289.8752 116.5718 199.3175 30119.7822 116.5718 199.3175
ENERGY: 300000 0.1413 4.7497 6.5461 0.0000 -10805.0590 1378.3947 0.0000 0.0000 1777.7942 -7637.4329 300.6643 -9415.2272 -7612.6952 295.5198 -770.6964 -670.2918 30403.8670 -14.3769 68.3787
ENERGY: 600000 0.9750 2.7727 8.9039 0.0000 -10776.4022 1392.9099 0.0000 0.0000 1772.3369 -7598.5038 299.7414 -9370.8408 -7623.0901 296.2156 -754.2084 -715.0889 30831.0577 -49.6186 28.7067
ENERGY: 900000 0.7150 7.7952 6.4379 0.0000 -10789.1270 1418.4440 0.0000 0.0000 1781.2872 -7574.4478 301.2551 -9355.7350 -7596.7342 298.8301 -314.4433 -236.6763 30740.0477 -82.8009 -16.9227
ENERGY: 1200000 1.3283 3.3983 6.5778 0.0000 -11021.7836 1616.0169 0.0000 0.0000 1766.8460 -7627.6163 298.8127 -9394.4623 -7608.0716 297.7144 1273.4491 1348.2311 30359.8739 -12.1617 46.5639
ENERGY: 1500000 3.3430 8.3043 6.5044 0.0000 -10825.3214 1383.3618 0.0000 0.0000 1751.8592 -7671.9487 296.2782 -9423.8079 -7605.4436 298.3861 -646.6261 -632.5470 30703.2699 12.9801 68.9467
TCL: Running FEP window   4: Lambda1 0.15000000000000002 Lambda2 0.2    [dLambda 0.04999999999999999]
TCL: Setting parameter firsttimestep to 0
TCL: Setting parameter alchLambda to 0.15000000000000002
Info: NONBONDED TABLE R-SQUARED SPACING: 0.0625
Info: NONBONDED TABLE SIZE: 705 POINTS
TCL: Setting parameter alchLambda2 to 0.2
Info: NONBONDED TABLE R-SQUARED SPACING: 0.0625
Info: NONBONDED TABLE SIZE: 705 POINTS
TCL: Running for 1500000 steps
ETITLE: TS BOND ANGLE DIHED IMPRP ELECT VDW BOUNDARY MISC KINETIC TOTAL TEMP POTENTIAL TOTALAVG TEMPAVG PRESSURE GPRESSURE VOLUME PRESSAVG GPRESSAVG
ENERGY: 0 3.3430 8.3043 6.5044 0.0000 -10825.3221 1384.3799 0.0000 0.0000 1750.9576 -7671.8329 296.1257 -9422.7905 -7671.8329 296.1257 -694.6957 -623.0296 30703.2699 -694.6957 -623.0296
ENERGY: 300000 2.4502 4.9255 5.3504 0.0000 -10895.2596 1530.3865 0.0000 0.0000 1772.1878 -7579.9592 299.7162 -9352.1470 -7622.0836 301.5054 791.6987 852.9812 30481.3019 92.3934 130.9737
ENERGY: 600000 1.3623 7.0975 7.8395 0.0000 -10817.4009 1434.7609 0.0000 0.0000 1761.8728 -7604.4679 297.9717 -9366.3406 -7614.8410 300.7286 -228.9811 -154.6355 30550.1193 14.5514 61.4936
ENERGY: 900000 0.6250 3.2810 5.7606 0.0000 -10825.2390 1489.9252 0.0000 0.0000 1736.9444 -7588.7029 293.7557 -9325.6472 -7605.6073 301.0807 112.0983 158.3263 30932.6981 -39.7757 5.7305
ENERGY: 1200000 1.3042 5.3550 7.1562 0.0000 -10686.9775 1378.2441 0.0000 0.0000 1801.8667 -7493.0513 304.7355 -9294.9180 -7586.2814 301.3901 -537.1684 -429.0134 30935.7786 -40.2320 2.5310
ENERGY: 1500000 1.5380 4.3706 6.6028 0.0000 -10670.0979 1361.1995 0.0000 0.0000 1766.2399 -7530.1469 298.7103 -9296.3868 -7575.8078 301.0659 -600.3799 -520.7919 30507.9051 -117.8481 -67.7879
TCL: Running FEP window   5: Lambda1 0.2    Lambda2 0.25   [dLambda 0.04999999999999999]
TCL: Setting parameter firsttimestep to 0
TCL: Setting parameter alchLambda to 0.2
Info: NONBONDED TABLE R-SQUARED SPACING: 0.0625
Info: NONBONDED TABLE SIZE: 705 POINTS
TCL: Setting parameter alchLambda2 to 0.25
Info: NONBONDED TABLE R-SQUARED SPACING: 0.0625
Info: NONBONDED TABLE SIZE: 705 POINTS
TCL: Running for 1500000 steps
ETITLE: TS BOND ANGLE DIHED IMPRP ELECT VDW BOUNDARY MISC KINETIC TOTAL TEMP POTENTIAL TOTALAVG TEMPAVG PRESSURE GPRESSURE VOLUME PRESSAVG GPRESSAVG
ENERGY: 0 1.5380 4.3707 6.6028 0.0000 -10670.0972 1363.2053 0.0000 0.0000 1765.3354 -7529.0450 298.5573 -9294.3804 -7529.0450 298.5573 -581.5182 -510.3980 30507.9051 -581.5182 -510.3980
ENERGY: 300000 1.3163 3.5740 6.3658 0.0000 -10921.8568 1497.0578 0.0000 0.0000 1804.3751 -7609.1677 305.1598 -9413.5428 -7582.1122 302.0810 225.0714 325.6521 30406.2909 3.3785 63.5504
ENERGY: 600000 0.3462 5.1885 5.9590 0.0000 -11031.5727 1596.8419 0.0000 0.0000 1695.3778 -7727.8592 286.7259 -9423.2371 -7598.0483 298.8305 877.5694 935.7101 30404.7181 69.2270 127.0907
ENERGY: 900000 0.6529 8.8503 6.6721 0.0000 -10867.9559 1430.1524 0.0000 0.0000 1754.0872 -7667.5410 296.6550 -9421.6282 -7595.9286 300.1980 -107.8950 -0.5631 29994.4118 58.2772 106.1615
ENERGY: 1200000 2.2912 3.5262 6.7778 0.0000 -10593.6939 1332.0889 0.0000 0.0000 1797.4011 -7451.6087 303.9803 -9249.0098 -7572.3165 301.0452 -746.4128 -669.6019 30870.0741 27.4199 77.7379
ENERGY: 1500000 1.6716 4.4644 6.9024 0.0000 -10797.7956 1404.2302 0.0000 0.0000 1799.9120 -7580.6150 304.4049 -9380.5269 -7568.5020 300.8445 -280.5327 -234.7375 30627.9687 49.4759 106.0892
TCL: Running FEP window   6: Lambda1 0.25   Lambda2 0.3    [dLambda 0.04999999999999999]
TCL: Setting parameter firsttimestep to 0
TCL: Setting parameter alchLambda to 0.25
Info: NONBONDED TABLE R-SQUARED SPACING: 0.0625
Info: NONBONDED TABLE SIZE: 705 POINTS
TCL: Setting parameter alchLambda2 to 0.3
Info: NONBONDED TABLE R-SQUARED SPACING: 0.0625
Info: NONBONDED TABLE SIZE: 705 POINTS
TCL: Running for 1500000 steps
ETITLE: TS BOND ANGLE DIHED IMPRP ELECT VDW BOUNDARY MISC KINETIC TOTAL TEMP POTENTIAL TOTALAVG TEMPAVG PRESSURE GPRESSURE VOLUME PRESSAVG GPRESSAVG
ENERGY: 0 1.6716 4.4644 6.9024 0.0000 -10797.7951 1404.3495 0.0000 0.0000 1799.0494 -7581.3579 304.2591 -9380.4072 -7581.3579 304.2591 -299.1566 -230.5487 30627.9687 -299.1566 -230.5487
ENERGY: 300000 0.6012 3.6254 7.6612 0.0000 -10965.9940 1578.9671 0.0000 0.0000 1718.8365 -7656.3026 290.6933 -9375.1391 -7635.8709 297.0945 812.7326 923.4642 30572.0210 309.2866 373.8509
ENERGY: 600000 0.9829 4.7501 8.5477 0.0000 -10788.4359 1475.4991 0.0000 0.0000 1792.7926 -7505.8636 303.2009 -9298.6562 -7587.1505 299.1305 563.9694 617.5770 30368.5971 251.8520 308.7269
ENERGY: 900000 1.1145 5.7627 5.6374 0.0000 -10998.8741 1544.3478 0.0000 0.0000 1742.0112 -7700.0004 294.6126 -9442.0116 -7602.4496 298.4885 421.1882 470.1815 30572.9309 245.4302 303.1108
ENERGY: 1200000 0.5691 2.4973 6.9022 0.0000 -10947.3563 1515.5841 0.0000 0.0000 1796.1510 -7625.6526 303.7689 -9421.8036 -7607.0280 298.8216 310.2319 447.6069 30246.8109 166.1260 233.6048
ENERGY: 1500000 1.5832 2.7924 6.9006 0.0000 -10838.2838 1445.0181 0.0000 0.0000 1768.1797 -7613.8098 299.0383 -9381.9895 -7605.5543 299.3176 -300.8173 -226.4024 30963.2005 60.3308 127.5302
TCL: Running FEP window   7: Lambda1 0.3    Lambda2 0.35   [dLambda 0.04999999999999999]
TCL: Setting parameter firsttimestep to 0
TCL: Setting parameter alchLambda to 0.3
Info: NONBONDED TABLE R-SQUARED SPACING: 0.0625
Info: NONBONDED TABLE SIZE: 705 POINTS
TCL: Setting parameter alchLambda2 to 0.35
Info: NONBONDED TABLE R-SQUARED SPACING: 0.0625
Info: NONBONDED TABLE SIZE: 705 POINTS
TCL: Running for 1500000 steps
ETITLE: TS BOND ANGLE DIHED IMPRP ELECT VDW BOUNDARY MISC KINETIC TOTAL TEMP POTENTIAL TOTALAVG TEMPAVG PRESSURE GPRESSURE VOLUME PRESSAVG GPRESSAVG
ENERGY: 0 1.5832 2.7924 6.9006 0.0000 -10838.2841 1445.1113 0.0000 0.0000 1767.2818 -7614.6148 298.8865 -9381.8965 -7614.6148 298.8865 -313.5395 -223.7704 30963.2005 -313.5395 -223.7704
ENERGY: 300000 0.5032 3.2854 7.1388 0.0000 -10836.3530 1423.0162 0.0000 0.0000 1771.3116 -7631.0978 299.5680 -9402.4094 -7591.5579 300.4927 -375.5729 -274.7598 30527.2628 -256.5522 -176.8077
ENERGY: 600000 0.2480 7.0666 6.6105 0.0000 -10910.4807 1510.2162 0.0000 0.0000 1695.4291 -7690.9103 286.7346 -9386.3394 -7617.4398 298.5003 335.3801 424.6616 30525.7231 24.7859 111.4313
ENERGY: 900000 0.1933 5.0780 6.3942 0.0000 -10723.3994 1377.1986 0.0000 0.0000 1782.7663 -7551.7690 301.5052 -9334.5353 -7613.6194 299.8115 -557.2993 -518.7411 30644.8574 20.8127 99.6951
ENERGY: 1200000 1.3920 5.4236 7.4294 0.0000 -10808.5053 1453.0602 0.0000 0.0000 1822.6631 -7518.5371 308.2527 -9341.2002 -7603.7922 300.6484 129.4754 174.1244 30806.8681 98.6218 173.1424
ENERGY: 1500000 1.1451 5.2361 7.3093 0.0000 -10694.7247 1439.6167 0.0000 0.0000 1735.6603 -7505.7571 293.5386 -9241.4174 -7595.4542 299.8932 -2.2376 77.4518 30793.0399 88.9472 156.3167
TCL: Running FEP window   8: Lambda1 0.35   Lambda2 0.39999999999999997 [dLambda 0.04999999999999999]
TCL: Setting parameter firsttimestep to 0
TCL: Setting parameter alchLambda to 0.35
Info: NONBONDED TABLE R-SQUARED SPACING: 0.0625
Info: NONBONDED TABLE SIZE: 705 POINTS
TCL: Setting parameter alchLambda2 to 0.39999999999999997
Info: NONBONDED TABLE R-SQUARED SPACING: 0.0625
Info: NONBONDED TABLE SIZE: 705 POINTS
TCL: Running for 1500000 steps
ETITLE: TS BOND ANGLE DIHED IMPRP ELECT VDW BOUNDARY MISC KINETIC TOTAL TEMP POTENTIAL TOTALAVG TEMPAVG PRESSURE GPRESSURE VOLUME PRESSAVG GPRESSAVG
ENERGY: 0 1.1451 5.2361 7.3093 0.0000 -10694.7256 1439.7908 0.0000 0.0000 1734.7598 -7506.4844 293.3863 -9241.2443 -7506.4844 293.3863 -2.8387 82.3158 30793.0399 -2.8387 82.3158
ENERGY: 300000 0.7697 2.0917 6.2156 0.0000 -10855.5676 1464.0555 0.0000 0.0000 1754.4505 -7627.9846 296.7164 -9382.4351 -7612.5009 295.0391 84.6017 151.2091 30463.8340 -168.4584 -100.4390
ENERGY: 600000 0.8462 8.7676 6.3239 0.0000 -10798.0403 1409.8042 0.0000 0.0000 1798.1099 -7574.1885 304.1002 -9372.2984 -7600.5911 297.2415 -208.0766 -186.0479 30547.1329 -303.2634 -243.4791
ENERGY: 900000 0.9477 4.9221 6.9851 0.0000 -10845.4148 1467.7153 0.0000 0.0000 1749.9755 -7614.8691 295.9596 -9364.8447 -7589.3045 298.2704 -23.4792 -8.5327 30985.1166 -138.2804 -86.3875
ENERGY: 1200000 2.5450 5.4408 5.7909 0.0000 -10882.7238 1515.0366 0.0000 0.0000 1764.0626 -7589.8480 298.3420 -9353.9105 -7589.5627 298.3549 235.9655 308.7333 30756.7063 -225.1160 -168.8516
ENERGY: 1500000 1.6457 7.1272 6.7681 0.0000 -10790.5294 1436.2309 0.0000 0.0000 1764.7164 -7574.0410 298.4526 -9338.7574 -7595.4272 298.5886 -21.0137 15.2083 30641.8082 -193.5880 -139.2250
TCL: Running FEP window   9: Lambda1 0.39999999999999997 Lambda2 0.44999999999999996 [dLambda 0.04999999999999999]
TCL: Setting parameter firsttimestep to 0
TCL: Setting parameter alchLambda to 0.39999999999999997
Info: NONBONDED TABLE R-SQUARED SPACING: 0.0625
Info: NONBONDED TABLE SIZE: 705 POINTS
TCL: Setting parameter alchLambda2 to 0.44999999999999996
Info: NONBONDED TABLE R-SQUARED SPACING: 0.0625
Info: NONBONDED TABLE SIZE: 705 POINTS
TCL: Running for 1500000 steps
ETITLE: TS BOND ANGLE DIHED IMPRP ELECT VDW BOUNDARY MISC KINETIC TOTAL TEMP POTENTIAL TOTALAVG TEMPAVG PRESSURE GPRESSURE VOLUME PRESSAVG GPRESSAVG
ENERGY: 0 1.6457 7.1272 6.7681 0.0000 -10790.5301 1436.5477 0.0000 0.0000 1763.8223 -7574.6190 298.3014 -9338.4413 -7574.6190 298.3014 -47.6353 22.0072 30641.8082 -47.6353 22.0072
ENERGY: 300000 1.5787 4.5882 8.7638 0.0000 -10842.1705 1454.0287 0.0000 0.0000 1806.4075 -7566.8037 305.5035 -9373.2111 -7577.1576 300.1071 -42.6416 15.7721 30675.2334 -218.8709 -142.8839
ENERGY: 600000 0.9196 5.2489 6.0605 0.0000 -10755.4958 1356.0409 0.0000 0.0000 1813.4088 -7573.8171 306.6876 -9387.2259 -7584.5376 299.8630 -864.8573 -805.9879 30621.7021 -388.9424 -326.0419
ENERGY: 900000 0.9050 8.6188 7.1381 0.0000 -10768.6908 1467.8667 0.0000 0.0000 1871.2963 -7412.8660 316.4776 -9284.1623 -7571.2568 303.1331 405.9444 496.5904 30816.7145 -271.9110 -212.7616
ENERGY: 1200000 0.3970 4.9862 6.6155 0.0000 -10868.9807 1475.6014 0.0000 0.0000 1819.4558 -7561.9249 307.7102 -9381.3807 -7567.8739 303.0261 403.3204 520.7699 29979.6243 -283.9538 -216.9748
ENERGY: 1500000 1.1521 5.3159 6.0404 0.0000 -10932.3312 1524.3806 0.0000 0.0000 1759.0378 -7636.4044 297.4922 -9395.4422 -7569.5389 301.9611 348.4020 406.8196 30648.6620 -306.2130 -237.6238
TCL: Running FEP window  10: Lambda1 0.44999999999999996 Lambda2 0.49999999999999994 [dLambda 0.04999999999999999]
TCL: Setting parameter firsttimestep to 0
TCL: Setting parameter alchLambda to 0.44999999999999996
Info: NONBONDED TABLE R-SQUARED SPACING: 0.0625
Info: NONBONDED TABLE SIZE: 705 POINTS
TCL: Setting parameter alchLambda2 to 0.49999999999999994
Info: NONBONDED TABLE R-SQUARED SPACING: 0.0625
Info: NONBONDED TABLE SIZE: 705 POINTS
TCL: Running for 1500000 steps
ETITLE: TS BOND ANGLE DIHED IMPRP ELECT VDW BOUNDARY MISC KINETIC TOTAL TEMP POTENTIAL TOTALAVG TEMPAVG PRESSURE GPRESSURE VOLUME PRESSAVG GPRESSAVG
ENERGY: 0 1.1521 5.3159 6.0404 0.0000 -10932.3308 1524.3139 0.0000 0.0000 1758.1923 -7637.3160 297.3492 -9395.5083 -7637.3160 297.3492 329.5831 409.5312 30648.6620 329.5831 409.5312
ENERGY: 300000 0.4995 7.5908 7.4206 0.0000 -10874.9263 1529.3589 0.0000 0.0000 1772.5752 -7557.4812 299.7817 -9330.0564 -7588.0536 300.6465 433.7717 552.1948 30951.1385 126.2366 189.5589
ENERGY: 600000 1.5081 6.6542 7.5834 0.0000 -10813.9844 1414.1030 0.0000 0.0000 1763.1655 -7620.9702 298.1903 -9384.1357 -7580.1782 300.6143 -483.5794 -404.0198 30573.5003 -67.1496 -9.5004
ENERGY: 900000 0.6919 3.2431 7.5014 0.0000 -10904.5220 1447.2377 0.0000 0.0000 1726.7967 -7719.0512 292.0395 -9445.8479 -7585.7038 301.2019 -198.7449 -134.2665 30500.8993 -173.8786 -117.3324
ENERGY: 1200000 1.6522 4.8379 9.2679 0.0000 -10820.5291 1420.5623 0.0000 0.0000 1753.7496 -7630.4592 296.5979 -9384.2089 -7580.3894 300.4016 -83.6525 -47.5816 30166.6741 -282.7932 -225.3399
ENERGY: 1500000 0.6796 5.9848 6.9205 0.0000 -10929.9068 1468.9959 0.0000 0.0000 1806.6484 -7640.6776 305.5442 -9447.3261 -7591.0971 300.4089 -27.9659 -1.7444 30457.9644 -248.6514 -193.3784
TCL: Running FEP window  11: Lambda1 0.49999999999999994 Lambda2 0.5499999999999999 [dLambda 0.04999999999999999]
TCL: Setting parameter firsttimestep to 0
TCL: Setting parameter alchLambda to 0.49999999999999994
Info: NONBONDED TABLE R-SQUARED SPACING: 0.0625
Info: NONBONDED TABLE SIZE: 705 POINTS
TCL: Setting parameter alchLambda2 to 0.5499999999999999
Info: NONBONDED TABLE R-SQUARED SPACING: 0.0625
Info: NONBONDED TABLE SIZE: 705 POINTS
TCL: Running for 1500000 steps
ETITLE: TS BOND ANGLE DIHED IMPRP ELECT VDW BOUNDARY MISC KINETIC TOTAL TEMP POTENTIAL TOTALAVG TEMPAVG PRESSURE GPRESSURE VOLUME PRESSAVG GPRESSAVG
ENERGY: 0 0.6796 5.9847 6.9205 0.0000 -10929.9085 1468.7405 0.0000 0.0000 1805.7549 -7641.8283 305.3931 -9447.5831 -7641.8283 305.3931 -87.7706 -1.3242 30457.9644 -87.7706 -1.3242
ENERGY: 300000 3.2040 4.1076 8.4072 0.0000 -10759.3089 1430.5458 0.0000 0.0000 1799.4532 -7513.5912 304.3274 -9313.0444 -7595.2450 300.3086 -84.4329 -33.8612 30536.8078 178.5266 244.7535
ENERGY: 600000 0.8516 5.0157 8.7969 0.0000 -10690.5804 1388.3576 0.0000 0.0000 1765.3242 -7522.2343 298.5554 -9287.5585 -7585.6689 300.6615 -374.6359 -322.5557 30898.8037 123.2629 182.8660
ENERGY: 900000 2.0329 4.9978 7.9417 0.0000 -10782.1542 1415.1060 0.0000 0.0000 1833.0273 -7519.0484 310.0055 -9352.0757 -7582.0844 303.2271 -94.9691 -46.3204 30255.0570 -20.7635 36.6877
ENERGY: 1200000 1.0028 6.4654 6.5567 0.0000 -10917.3058 1480.4910 0.0000 0.0000 1732.3152 -7690.4748 292.9728 -9422.7900 -7600.1602 301.1546 59.1226 182.8439 30512.9217 52.0630 117.4095
ENERGY: 1500000 1.7942 7.2681 7.1038 0.0000 -10839.2707 1456.2015 0.0000 0.0000 1729.1385 -7637.7646 292.4356 -9366.9031 -7606.6500 300.0141 -244.2697 -151.7580 30683.3093 23.2215 87.5093
TCL: Running FEP window  12: Lambda1 0.5499999999999999 Lambda2 0.6    [dLambda 0.050000000000000044]
TCL: Setting parameter firsttimestep to 0
TCL: Setting parameter alchLambda to 0.5499999999999999
Info: NONBONDED TABLE R-SQUARED SPACING: 0.0625
Info: NONBONDED TABLE SIZE: 705 POINTS
TCL: Setting parameter alchLambda2 to 0.6
Info: NONBONDED TABLE R-SQUARED SPACING: 0.0625
Info: NONBONDED TABLE SIZE: 705 POINTS
TCL: Running for 1500000 steps
ETITLE: TS BOND ANGLE DIHED IMPRP ELECT VDW BOUNDARY MISC KINETIC TOTAL TEMP POTENTIAL TOTALAVG TEMPAVG PRESSURE GPRESSURE VOLUME PRESSAVG GPRESSAVG
ENERGY: 0 1.7942 7.2681 7.1038 0.0000 -10839.2786 1456.3873 0.0000 0.0000 1728.2851 -7638.4401 292.2913 -9366.7252 -7638.4401 292.2913 -240.7994 -145.1278 30683.3093 -240.7994 -145.1278
ENERGY: 300000 2.8353 8.3302 8.0308 0.0000 -10838.0098 1507.3668 0.0000 0.0000 1798.8691 -7512.5776 304.2286 -9311.4467 -7600.0076 300.1739 705.4178 763.5050 30262.7127 481.7199 549.3514
ENERGY: 600000 0.9850 3.5299 5.8015 0.0000 -10787.3316 1411.7955 0.0000 0.0000 1779.5684 -7585.6513 300.9644 -9365.2197 -7576.3353 300.8061 -384.4198 -319.5454 30626.4419 136.3764 208.7264
ENERGY: 900000 2.4346 7.0530 6.7958 0.0000 -10758.4049 1397.4081 0.0000 0.0000 1791.9301 -7552.7833 303.0550 -9344.7133 -7588.5886 300.2534 -552.3305 -417.7234 31020.7422 100.7487 173.2166
ENERGY: 1200000 2.4811 7.9718 6.8458 0.0000 -10637.0461 1344.9151 0.0000 0.0000 1774.9367 -7499.8956 300.1811 -9274.8322 -7591.3663 299.6300 -802.3519 -694.0561 31112.3015 49.3858 120.1565
ENERGY: 1500000 0.8944 8.3220 6.0431 0.0000 -10704.1301 1363.9160 0.0000 0.0000 1734.9200 -7590.0344 293.4134 -9324.9544 -7580.6109 299.3482 -738.8169 -678.2419 30674.3660 -46.5969 21.2228
TCL: Running FEP window  13: Lambda1 0.6    Lambda2 0.65   [dLambda 0.050000000000000044]
TCL: Setting parameter firsttimestep to 0
TCL: Setting parameter alchLambda to 0.6
Info: NONBONDED TABLE R-SQUARED SPACING: 0.0625
Info: NONBONDED TABLE SIZE: 705 POINTS
TCL: Setting parameter alchLambda2 to 0.65
Info: NONBONDED TABLE R-SQUARED SPACING: 0.0625
Info: NONBONDED TABLE SIZE: 705 POINTS
TCL: Running for 1500000 steps
ETITLE: TS BOND ANGLE DIHED IMPRP ELECT VDW BOUNDARY MISC KINETIC TOTAL TEMP POTENTIAL TOTALAVG TEMPAVG PRESSURE GPRESSURE VOLUME PRESSAVG GPRESSAVG
ENERGY: 0 0.8944 8.3220 6.0431 0.0000 -10704.2522 1364.1502 0.0000 0.0000 1734.0589 -7590.7835 293.2677 -9324.8424 -7590.7835 293.2677 -756.3390 -672.2099 30674.3660 -756.3390 -672.2099
ENERGY: 300000 0.8111 2.2759 5.3526 0.0000 -10927.2698 1497.8573 0.0000 0.0000 1718.9909 -7701.9821 290.7194 -9420.9730 -7607.7407 296.2893 249.8338 280.6264 30456.4972 -156.3082 -88.2386
ENERGY: 600000 0.8234 4.2407 6.2288 0.0000 -10831.1807 1419.2417 0.0000 0.0000 1768.9628 -7631.6834 299.1707 -9400.6462 -7627.7599 295.5382 -329.5954 -248.9923 30536.0649 -184.2789 -114.5788
ENERGY: 900000 0.7608 4.9427 8.1338 0.0000 -10728.6222 1403.5487 0.0000 0.0000 1746.7957 -7564.4405 295.4218 -9311.2362 -7608.5617 297.8611 -382.4862 -315.0177 30957.5260 -161.4414 -93.3332
ENERGY: 1200000 2.2248 5.1653 6.6086 0.0000 -10761.0326 1436.2756 0.0000 0.0000 1755.9617 -7554.7967 296.9720 -9310.7583 -7611.1269 297.6677 345.9561 430.6726 29910.0771 -112.8879 -39.7086
ENERGY: 1500000 3.9932 8.4565 5.9432 0.0000 -10910.7990 1510.3135 0.0000 0.0000 1745.5085 -7636.5842 295.2041 -9382.0927 -7602.8422 297.6061 401.2369 484.4484 30141.8912 90.4135 161.9370
TCL: Running FEP window  14: Lambda1 0.65   Lambda2 0.7000000000000001 [dLambda 0.050000000000000044]
TCL: Setting parameter firsttimestep to 0
TCL: Setting parameter alchLambda to 0.65
Info: NONBONDED TABLE R-SQUARED SPACING: 0.0625
Info: NONBONDED TABLE SIZE: 705 POINTS
TCL: Setting parameter alchLambda2 to 0.7000000000000001
Info: NONBONDED TABLE R-SQUARED SPACING: 0.0625
Info: NONBONDED TABLE SIZE: 705 POINTS
TCL: Running for 1500000 steps
ETITLE: TS BOND ANGLE DIHED IMPRP ELECT VDW BOUNDARY MISC KINETIC TOTAL TEMP POTENTIAL TOTALAVG TEMPAVG PRESSURE GPRESSURE VOLUME PRESSAVG GPRESSAVG
ENERGY: 0 3.9932 8.4565 5.9432 0.0000 -10910.9170 1509.9435 0.0000 0.0000 1744.6544 -7637.9262 295.0597 -9382.5806 -7637.9262 295.0597 405.9620 485.7233 30141.8912 405.9620 485.7233
ENERGY: 300000 0.6924 3.6924 6.5951 0.0000 -10850.9658 1436.1812 0.0000 0.0000 1794.5109 -7609.2939 303.4915 -9403.8047 -7655.7979 297.2242 -311.2341 -209.4986 30533.3013 278.5305 385.5886
ENERGY: 600000 0.7318 6.7984 8.2198 0.0000 -10993.4941 1560.9915 0.0000 0.0000 1774.2059 -7642.5467 300.0575 -9416.7526 -7634.3670 298.2117 749.8510 804.4784 30325.7582 324.3340 396.5795
ENERGY: 900000 0.1772 5.5045 5.9194 0.0000 -10774.2657 1366.8846 0.0000 0.0000 1798.1414 -7597.6387 304.1055 -9395.7801 -7617.2685 299.4794 -860.2127 -809.9483 30894.0231 108.5607 175.6650
ENERGY: 1200000 0.5962 6.4934 6.6079 0.0000 -10888.9652 1500.6071 0.0000 0.0000 1745.9134 -7628.7472 295.2726 -9374.6605 -7620.7023 298.4002 460.8859 599.1326 30026.0699 95.6785 162.3005
ENERGY: 1500000 0.1666 3.5021 10.6036 0.0000 -10868.9135 1455.0381 0.0000 0.0000 1792.8764 -7606.7267 303.2151 -9399.6031 -7611.7687 298.3184 85.2010 141.9706 30307.1658 74.9668 137.8673
TCL: Running FEP window  15: Lambda1 0.7000000000000001 Lambda2 0.7500000000000001 [dLambda 0.050000000000000044]
TCL: Setting parameter firsttimestep to 0
TCL: Setting parameter alchLambda to 0.7000000000000001
Info: NONBONDED TABLE R-SQUARED SPACING: 0.0625
Info: NONBONDED TABLE SIZE: 705 POINTS
TCL: Setting parameter alchLambda2 to 0.7500000000000001
Info: NONBONDED TABLE R-SQUARED SPACING: 0.0625
Info: NONBONDED TABLE SIZE: 705 POINTS
TCL: Running for 1500000 steps
ETITLE: TS BOND ANGLE DIHED IMPRP ELECT VDW BOUNDARY MISC KINETIC TOTAL TEMP POTENTIAL TOTALAVG TEMPAVG PRESSURE GPRESSURE VOLUME PRESSAVG GPRESSAVG
ENERGY: 0 0.1666 3.5021 10.6036 0.0000 -10871.0710 1456.0139 0.0000 0.0000 1792.0055 -7608.7792 303.0678 -9400.7847 -7608.7792 303.0678 60.7428 149.1355 30307.1658 60.7428 149.1355
ENERGY: 300000 1.5331 4.8091 7.0889 0.0000 -10760.8115 1446.9576 0.0000 0.0000 1771.2880 -7529.1347 299.5640 -9300.4227 -7586.6671 299.7886 -97.4789 -35.8492 31129.1349 164.9019 243.9617
ENERGY: 600000 0.9957 3.7727 7.0353 0.0000 -10883.5210 1479.5194 0.0000 0.0000 1777.5177 -7614.6803 300.6176 -9392.1980 -7582.0540 300.1603 217.5419 342.6999 30229.9487 23.3103 98.1201
ENERGY: 900000 3.9163 2.9497 5.9374 0.0000 -10935.8794 1492.1192 0.0000 0.0000 1773.2560 -7657.7007 299.8968 -9430.9568 -7597.5483 300.3426 134.4852 214.0421 30734.8908 -61.7156 8.1898
ENERGY: 1200000 0.4370 1.7654 6.6684 0.0000 -10787.6316 1439.5029 0.0000 0.0000 1728.1943 -7611.0636 292.2759 -9339.2579 -7589.5556 301.1430 -56.1304 53.9217 30408.1260 -36.2423 33.8196
ENERGY: 1500000 5.0952 3.3754 5.7914 0.0000 -10911.2580 1478.7444 0.0000 0.0000 1810.6220 -7607.6296 306.2163 -9418.2517 -7582.8060 302.2202 376.6006 371.7442 30450.6503 -24.1014 34.4242
TCL: Running FEP window  16: Lambda1 0.7500000000000001 Lambda2 0.8000000000000002 [dLambda 0.050000000000000044]
TCL: Setting parameter firsttimestep to 0
TCL: Setting parameter alchLambda to 0.7500000000000001
Info: NONBONDED TABLE R-SQUARED SPACING: 0.0625
Info: NONBONDED TABLE SIZE: 705 POINTS
TCL: Setting parameter alchLambda2 to 0.8000000000000002
Info: NONBONDED TABLE R-SQUARED SPACING: 0.0625
Info: NONBONDED TABLE SIZE: 705 POINTS
TCL: Running for 1500000 steps
ETITLE: TS BOND ANGLE DIHED IMPRP ELECT VDW BOUNDARY MISC KINETIC TOTAL TEMP POTENTIAL TOTALAVG TEMPAVG PRESSURE GPRESSURE VOLUME PRESSAVG GPRESSAVG
ENERGY: 0 5.0952 3.3754 5.7914 0.0000 -10912.7107 1479.4616 0.0000 0.0000 1809.7124 -7609.2747 306.0624 -9418.9871 -7609.2747 306.0624 316.7676 379.7722 30450.6503 316.7676 379.7722
ENERGY: 300000 3.2812 4.3771 6.1548 0.0000 -10754.1283 1397.2063 0.0000 0.0000 1731.5845 -7611.5244 292.8493 -9343.1089 -7633.8718 299.5669 -364.3175 -301.5300 30464.2232 -136.3695 -71.5089
ENERGY: 600000 1.4331 2.8097 9.1563 0.0000 -10877.3341 1471.3596 0.0000 0.0000 1796.1413 -7596.4341 303.7672 -9392.5754 -7611.1773 300.2013 43.4696 78.7402 30476.6876 -91.8226 -43.1121
ENERGY: 900000 1.1483 4.2354 6.0144 0.0000 -10882.5189 1497.4333 0.0000 0.0000 1752.9642 -7620.7233 296.4650 -9373.6874 -7613.6015 298.7190 420.1371 500.8216 30238.4831 -57.7907 -3.3255
ENERGY: 1200000 2.4565 4.5717 8.3133 0.0000 -10878.5972 1544.5900 0.0000 0.0000 1746.6870 -7571.9788 295.4034 -9318.6658 -7608.2752 297.9744 859.8389 942.8238 30659.2625 -27.6624 24.8033
ENERGY: 1500000 3.3400 4.4759 5.5575 0.0000 -10835.3384 1449.0026 0.0000 0.0000 1812.0664 -7560.8961 306.4605 -9372.9625 -7601.1140 299.3536 132.0292 157.1694 30631.9822 8.3504 64.9640
TCL: Running FEP window  17: Lambda1 0.8000000000000002 Lambda2 0.8500000000000002 [dLambda 0.050000000000000044]
TCL: Setting parameter firsttimestep to 0
TCL: Setting parameter alchLambda to 0.8000000000000002
Info: NONBONDED TABLE R-SQUARED SPACING: 0.0625
Info: NONBONDED TABLE SIZE: 705 POINTS
TCL: Setting parameter alchLambda2 to 0.8500000000000002
Info: NONBONDED TABLE R-SQUARED SPACING: 0.0625
Info: NONBONDED TABLE SIZE: 705 POINTS
TCL: Running for 1500000 steps
ETITLE: TS BOND ANGLE DIHED IMPRP ELECT VDW BOUNDARY MISC KINETIC TOTAL TEMP POTENTIAL TOTALAVG TEMPAVG PRESSURE GPRESSURE VOLUME PRESSAVG GPRESSAVG
ENERGY: 0 3.3400 4.4759 5.5575 0.0000 -10837.2104 1449.3938 0.0000 0.0000 1811.1984 -7563.2448 306.3137 -9374.4432 -7563.2448 306.3137 71.6235 163.2365 30631.9822 71.6235 163.2365
ENERGY: 300000 0.8652 4.7690 7.0676 0.0000 -10841.8341 1488.3310 0.0000 0.0000 1796.6661 -7544.1351 303.8560 -9340.8013 -7536.0288 302.8349 238.5123 323.4685 30828.5176 0.6155 87.1694
ENERGY: 600000 3.4320 6.9802 5.5116 0.0000 -10777.0180 1368.9952 0.0000 0.0000 1714.7740 -7677.3250 290.0062 -9392.0990 -7584.1384 300.4865 -1012.9330 -946.5392 30607.2780 -35.4081 26.2388
ENERGY: 900000 0.5358 5.2545 7.5890 0.0000 -10749.3215 1385.4704 0.0000 0.0000 1765.7679 -7584.7039 298.6304 -9350.4718 -7588.5325 300.7275 -318.1100 -233.8029 30301.8385 -76.7435 -10.8795
ENERGY: 1200000 2.4886 5.4164 7.1176 0.0000 -10694.5775 1433.7832 0.0000 0.0000 1761.8718 -7483.8999 297.9715 -9245.7717 -7561.8044 301.2334 140.7281 248.7927 30728.8310 -92.5861 -19.6156
ENERGY: 1500000 0.3182 3.7174 5.8388 0.0000 -10863.7427 1490.5551 0.0000 0.0000 1805.0380 -7558.2751 305.2719 -9363.3132 -7574.1439 301.0133 295.5044 376.1420 30716.6760 -20.9287 51.9980
TCL: Running FEP window  18: Lambda1 0.8500000000000002 Lambda2 0.9000000000000002 [dLambda 0.050000000000000044]
TCL: Setting parameter firsttimestep to 0
TCL: Setting parameter alchLambda to 0.8500000000000002
Info: NONBONDED TABLE R-SQUARED SPACING: 0.0625
Info: NONBONDED TABLE SIZE: 705 POINTS
TCL: Setting parameter alchLambda2 to 0.9000000000000002
Info: NONBONDED TABLE R-SQUARED SPACING: 0.0625
Info: NONBONDED TABLE SIZE: 705 POINTS
TCL: Running for 1500000 steps
ETITLE: TS BOND ANGLE DIHED IMPRP ELECT VDW BOUNDARY MISC KINETIC TOTAL TEMP POTENTIAL TOTALAVG TEMPAVG PRESSURE GPRESSURE VOLUME PRESSAVG GPRESSAVG
ENERGY: 0 0.3182 3.7174 5.8388 0.0000 -10865.9730 1490.9918 0.0000 0.0000 1804.1564 -7560.9503 305.1228 -9365.1067 -7560.9503 305.1228 309.1676 385.7249 30716.6760 309.1676 385.7249
ENERGY: 300000 3.6828 4.1795 6.4473 0.0000 -10719.8109 1388.7428 0.0000 0.0000 1767.7732 -7548.9853 298.9696 -9316.7585 -7580.4272 300.6637 -861.9402 -742.8046 31429.2789 -209.5676 -139.7298
ENERGY: 600000 0.2725 6.0662 8.0567 0.0000 -10853.6408 1479.6456 0.0000 0.0000 1769.7304 -7589.8693 299.3006 -9359.5998 -7570.2652 301.2891 480.2861 526.4023 30176.8573 -85.3056 -23.7645
ENERGY: 900000 0.4336 8.1053 7.8968 0.0000 -10827.5520 1390.4057 0.0000 0.0000 1776.3276 -7644.3830 300.4163 -9420.7106 -7584.5121 300.5976 -498.5095 -443.2555 30489.9890 -72.9102 -14.0100
ENERGY: 1200000 0.5822 4.4102 7.0097 0.0000 -10801.8619 1393.4002 0.0000 0.0000 1777.6570 -7618.8027 300.6411 -9396.4597 -7587.8916 299.8686 -571.3699 -500.2184 30755.0496 -75.7171 -20.7292
ENERGY: 1500000 1.4626 5.3499 6.0830 0.0000 -10721.9430 1386.4778 0.0000 0.0000 1816.5680 -7506.0016 307.2219 -9322.5696 -7585.8745 300.4705 -297.3806 -215.2279 30609.8673 -27.2221 26.3333
TCL: Running FEP window  19: Lambda1 0.9000000000000002 Lambda2 0.9500000000000003 [dLambda 0.050000000000000044]
TCL: Setting parameter firsttimestep to 0
TCL: Setting parameter alchLambda to 0.9000000000000002
Info: NONBONDED TABLE R-SQUARED SPACING: 0.0625
Info: NONBONDED TABLE SIZE: 705 POINTS
TCL: Setting parameter alchLambda2 to 0.9500000000000003
Info: NONBONDED TABLE R-SQUARED SPACING: 0.0625
Info: NONBONDED TABLE SIZE: 705 POINTS
TCL: Running for 1500000 steps
ETITLE: TS BOND ANGLE DIHED IMPRP ELECT VDW BOUNDARY MISC KINETIC TOTAL TEMP POTENTIAL TOTALAVG TEMPAVG PRESSURE GPRESSURE VOLUME PRESSAVG GPRESSAVG
ENERGY: 0 1.4626 5.3499 6.0830 0.0000 -10724.5510 1387.6162 0.0000 0.0000 1815.6806 -7508.3585 307.0718 -9324.0391 -7508.3585 307.0718 -281.4579 -200.7537 30609.8673 -281.4579 -200.7537
ENERGY: 300000 0.1280 5.4730 6.1768 0.0000 -10780.9979 1434.8744 0.0000 0.0000 1792.6752 -7541.6706 303.1810 -9334.3458 -7576.9537 300.0215 -101.3737 -47.9371 30901.5914 -521.6927 -445.1588
ENERGY: 600000 0.4205 3.2770 7.1723 0.0000 -10913.7835 1493.3883 0.0000 0.0000 1807.5523 -7601.9732 305.6971 -9409.5255 -7592.2800 299.6226 306.5210 394.9389 30529.3546 -297.0799 -216.0230
ENERGY: 900000 0.6711 6.9983 7.3713 0.0000 -10815.5165 1472.1865 0.0000 0.0000 1763.3615 -7564.9279 298.2234 -9328.2894 -7601.3924 299.5069 371.8810 401.2929 30439.5511 -289.0343 -224.9597
ENERGY: 1200000 2.6715 6.8942 6.6256 0.0000 -10946.9464 1476.7823 0.0000 0.0000 1747.0747 -7706.8979 295.4690 -9453.9726 -7615.6429 299.1260 55.6425 85.0802 30287.0202 -194.8619 -131.8767
ENERGY: 1500000 1.5198 4.7942 7.0135 0.0000 -10710.4622 1393.1156 0.0000 0.0000 1778.8455 -7525.1738 300.8421 -9304.0192 -7613.0550 299.2323 -342.1035 -330.3142 31070.9186 -189.9531 -133.2296
TCL: Running FEP window  20: Lambda1 0.9500000000000003 Lambda2 1.0    [dLambda 0.04999999999999971]
TCL: Setting parameter firsttimestep to 0
TCL: Setting parameter alchLambda to 0.9500000000000003
Info: NONBONDED TABLE R-SQUARED SPACING: 0.0625
Info: NONBONDED TABLE SIZE: 705 POINTS
TCL: Setting parameter alchLambda2 to 1.0
Info: NONBONDED TABLE R-SQUARED SPACING: 0.0625
Info: NONBONDED TABLE SIZE: 705 POINTS
TCL: Running for 1500000 steps
ETITLE: TS BOND ANGLE DIHED IMPRP ELECT VDW BOUNDARY MISC KINETIC TOTAL TEMP POTENTIAL TOTALAVG TEMPAVG PRESSURE GPRESSURE VOLUME PRESSAVG GPRESSAVG
ENERGY: 0 1.5198 4.7942 7.0135 0.0000 -10711.6390 1393.2148 0.0000 0.0000 1777.9462 -7527.1506 300.6900 -9305.0968 -7527.1506 300.6900 -392.3247 -319.7666 31070.9186 -392.3247 -319.7666
ENERGY: 300000 2.1499 4.9331 7.3206 0.0000 -10753.5338 1374.6151 0.0000 0.0000 1796.2747 -7568.2405 303.7898 -9364.5152 -7581.0745 301.8200 -524.1781 -451.4761 30665.6101 -432.0787 -361.5429
ENERGY: 600000 2.9915 3.1785 6.5643 0.0000 -10704.8847 1404.0435 0.0000 0.0000 1773.2716 -7514.8353 299.8995 -9288.1070 -7584.6058 299.7567 -116.0437 -71.9183 30759.9957 -333.8401 -260.7569
ENERGY: 900000 2.2108 3.3369 6.7918 0.0000 -10833.3869 1485.2432 0.0000 0.0000 1756.4477 -7579.3565 297.0542 -9335.8041 -7588.0803 300.4336 347.1770 427.1135 30662.3601 -155.4267 -82.4822
ENERGY: 1200000 0.6771 3.1547 7.8653 0.0000 -10926.4956 1570.2053 0.0000 0.0000 1805.0664 -7539.5269 305.2767 -9344.5932 -7578.2919 301.2723 1008.8114 1050.7964 30790.2522 -89.2703 -22.8352
ENERGY: 1500000 2.8978 1.8797 8.3425 0.0000 -10842.2133 1474.1916 0.0000 0.0000 1784.5626 -7570.3391 301.8090 -9354.9018 -7577.6047 302.0426 99.8736 196.4774 30789.8478 -79.6591 -14.4796
TCL: Exiting due to exit command.
