Info: SIMULATION PARAMETERS:
Info: TIMESTEP               2
Info: NUMBER OF STEPS        0
Info: STEPS PER CYCLE        10
Info: PERIODIC CELL BASIS 1  30.9764 0 0
Info: PERIODIC CELL BASIS 2  0 29.5713 0
Info: PERIODIC CELL BASIS 3  0 0 33.1589
Info: PERIODIC CELL CENTER   0 0 0
Info: WRAPPING WATERS AROUND PERIODIC BOUNDARIES ON OUTPUT.
Info: WRAPPING ALL CLUSTERS AROUND PERIODIC BOUNDARIES ON OUTPUT.
Info: FIRST LDB TIMESTEP     50
Info: LAST LDB TIMESTEP     -1
Info: HOM BACKGROUND SCALING 1
Info: PME BACKGROUND SCALING 1
Info: MIN ATOMS PER PATCH    40
Info: EMPTY PATCH LOAD       40 ATOMS
Info: VELOCITY FILE          mobley_3969312_equil.vel
Info: CENTER OF MASS MOVING INITIALLY? NO
Info: DIELECTRIC             1
Info: EXCLUDE                SCALED ONE-FOUR
Info: 1-4 ELECTROSTATICS SCALED BY 0.833333
Info: MODIFIED 1-4 VDW PARAMETERS WILL BE USED
Info: DCD FILENAME           mobley_3969312_prod.dcd
Info: DCD FREQUENCY          100000
Info: DCD FIRST STEP         100000
Info: DCD FILE WILL CONTAIN UNIT CELL DATA
Info: XST FILENAME           mobley_3969312_prod.xst
Info: XST FREQUENCY          100000
Info: NO VELOCITY DCD OUTPUT
Info: NO FORCE DCD OUTPUT
Info: OUTPUT FILENAME        mobley_3969312_prod
Info: BINARY OUTPUT FILES WILL BE USED
Info: RESTART FILENAME       mobley_3969312_prod.restart
Info: RESTART FREQUENCY      100000
Info: BINARY RESTART FILES WILL BE USED
Info: CUTOFF                 9
Info: PAIRLIST DISTANCE      11
Info: PAIRLIST SHRINK RATE   0.01
Info: PAIRLIST GROW RATE     0.01
Info: PAIRLIST TRIGGER       0.3
Info: PAIRLISTS PER CYCLE    2
Info: PAIRLISTS ENABLED
Info: MARGIN                 2
Info: HYDROGEN GROUP CUTOFF  2.5
Info: PATCH DIMENSION        15.5
Info: ENERGY OUTPUT STEPS    100000
Info: ENERGY EVALUATION STEPS    100000
Info: OUTPUT ENERGY PRECISION 4
Info: CROSSTERM ENERGY INCLUDED IN DIHEDRAL
Info: TIMING OUTPUT STEPS    1000000
Info: PRESSURE OUTPUT STEPS  100000
Info: ALCHEMICAL FEP ON
Info: FEP CURRENT LAMBDA VALUE     1
Info: FEP COMPARISON LAMBDA VALUE  0.95
Info: FEP INTRA-ALCHEMICAL NON-BONDED INTERACTIONS WILL BE RETAINED
Info: FEP INTRA-ALCHEMICAL BONDED INTERACTIONS WILL BE RETAINED
Info: FEP VDW SHIFTING COEFFICIENT 5
Info: FEP ELEC. ACTIVE FOR ANNIHILATED PARTICLES BETWEEN LAMBDA = 0 AND LAMBDA = 0.5
Info: FEP ELEC. ACTIVE FOR EXNIHILATED PARTICLES BETWEEN LAMBDA = 0.5 AND LAMBDA = 1
Info: FEP VDW ACTIVE FOR ANNIHILATED PARTICLES BETWEEN LAMBDA = 0 AND LAMBDA = 1
Info: FEP VDW ACTIVE FOR EXNIHILATED PARTICLES BETWEEN LAMBDA = 0 AND LAMBDA = 1
Info: FEP BOND ACTIVE FOR ANNIHILATED PARTICLES BETWEEN LAMBDA = 1 AND LAMBDA = 1
Info: FEP BOND ACTIVE FOR EXNIHILATED PARTICLES BETWEEN LAMBDA = 0 AND LAMBDA = 0
Info: LANGEVIN DYNAMICS ACTIVE
Info: LANGEVIN TEMPERATURE   300
Info: LANGEVIN USING BBK INTEGRATOR
Info: LANGEVIN DAMPING COEFFICIENT IS 1 INVERSE PS
Info: LANGEVIN DYNAMICS APPLIED TO HYDROGENS
Info: LANGEVIN PISTON PRESSURE CONTROL ACTIVE
Info:        TARGET PRESSURE IS 1.01325 BAR
Info:     OSCILLATION PERIOD IS 50 FS
Info:             DECAY TIME IS 25 FS
Info:     PISTON TEMPERATURE IS 300 K
Info:       PRESSURE CONTROL IS GROUP-BASED
Info:    INITIAL STRAIN RATE IS -6.29953e-05 -6.29953e-05 -6.29953e-05
Info:       CELL FLUCTUATION IS ISOTROPIC
Info: PARTICLE MESH EWALD (PME) ACTIVE
Info: PME TOLERANCE               1e-06
Info: PME EWALD COEFFICIENT       0.348832
Info: PME INTERPOLATION ORDER     4
Info: PME GRID DIMENSIONS         32 32 36
Info: PME MAXIMUM GRID SPACING    1
Info: PME CALCULATION WILL BE PERFORMED ON GPU
Info: FULL ELECTROSTATIC EVALUATION FREQUENCY      2
Info: USING VERLET I (r-RESPA) MTS SCHEME.
Info: C1 SPLITTING OF LONG RANGE ELECTROSTATICS
Info: PLACING ATOMS IN PATCHES BY HYDROGEN GROUPS
Info: RIGID BONDS TO HYDROGEN : ALL
Info:         ERROR TOLERANCE : 1e-08
Info:          MAX ITERATIONS : 100
Info: RIGID WATER USING SETTLE ALGORITHM
Info: RANDOM NUMBER SEED     1743765206
Info: USE HYDROGEN BONDS?    NO
Info: Using AMBER format force field!
Info: AMBER PARM FILE        mobley_3969312.prmtop
Info: COORDINATE PDB         mobley_3969312.pdb
Info: Exclusions will be read from PARM file!
Info: SCNB (VDW SCALING)     2
Info: USING ARITHMETIC MEAN TO COMBINE L-J SIGMA PARAMETERS
Info: BINARY COORDINATES     mobley_3969312_equil.coor
Info: SUMMARY OF PARAMETERS:
Info: 7 BONDS
Info: 6 ANGLES
Info:   6 HARMONIC
Info:   0 COSINE-BASED
Info: 4 DIHEDRAL
Info: 0 IMPROPER
Info: 0 CROSSTERM
Info: 0 VDW
Info: 21 VDW_PAIRS
Info: 0 NBTHOLE_PAIRS
Info: To read alchdata from file: mobley_3969312.pdb
Info: To read alchflag data from column: 5
Info: STRUCTURE SUMMARY:
Info: 2951 ATOMS
Info: 2951 BONDS
Info: 21 ANGLES
Info: 35 DIHEDRALS
Info: 0 IMPROPERS
Info: 0 CROSSTERMS
Info: 2997 EXCLUSIONS
Info: 2943 RIGID BONDS
Info: ALCH: 0 ATOMS TO DISAPPEAR IN FINAL STATE
Info: ALCH: 14 ATOMS TO APPEAR IN FINAL STATE
Info: 5910 DEGREES OF FREEDOM
Info: 987 HYDROGEN GROUPS
Info: 3 ATOMS IN LARGEST HYDROGEN GROUP
Info: 987 MIGRATION GROUPS
Info: 3 ATOMS IN LARGEST MIGRATION GROUP
Info: TOTAL MASS = 17743.8 amu
Info: TOTAL CHARGE = 4.42378e-09 e
Info: MASS DENSITY = 0.970075 g/cm^3
Info: ATOM DENSITY = 0.0971559 atoms/A^3
Info: ADDED 0 IMPLICIT EXCLUSIONS
Info: NONBONDED TABLE R-SQUARED SPACING: 0.0625
Info: NONBONDED TABLE SIZE: 705 POINTS
Info: REMOVING COM VELOCITY 0.105575 0.00326246 0.254492
Info: Use 3D box decompostion in PME FFT.
Info: Updated CUDA force table with 4096 elements.
Info: Updated CUDA LJ table with 6 x 6 elements.
Info: Found 16 unique exclusion lists needing 32 bytes
TCL: Running for 1500000 steps
ETITLE: TS BOND ANGLE DIHED IMPRP ELECT VDW BOUNDARY MISC KINETIC TOTAL TEMP POTENTIAL TOTALAVG TEMPAVG PRESSURE GPRESSURE VOLUME PRESSAVG GPRESSAVG
ENERGY: 0 5.8221 2.3843 1.9993 0.0000 -10692.0552 1396.8341 0.0000 0.0000 1771.1946 -7513.8208 301.6263 -9285.0154 -7513.8208 301.6263 -351.9713 -270.3657 30373.8587 -351.9713 -270.3657
ENERGY: 300000 1.3855 5.0712 4.7724 0.0000 -10492.0819 1327.2331 0.0000 0.0000 1709.0864 -7444.5333 291.0495 -9153.6197 -7485.4973 295.8640 -927.1870 -805.1167 31147.5155 -689.7710 -603.7622
ENERGY: 600000 5.3760 3.0902 3.3453 0.0000 -10618.1778 1350.6611 0.0000 0.0000 1791.7807 -7463.9246 305.1320 -9255.7053 -7450.9107 300.4060 -889.5537 -824.9983 30659.0907 -569.6093 -488.5477
ENERGY: 900000 3.7946 2.3379 3.0788 0.0000 -10622.9662 1368.7513 0.0000 0.0000 1830.2098 -7414.7937 311.6763 -9245.0035 -7445.9916 302.9514 -435.5736 -357.1171 30283.4551 -345.9191 -262.4166
ENERGY: 1200000 1.9136 2.6638 3.5990 0.0000 -10680.5776 1459.0022 0.0000 0.0000 1764.2202 -7449.1787 300.4386 -9213.3989 -7440.2086 302.3350 286.2634 397.1069 30238.3424 -234.1051 -156.4280
ENERGY: 1500000 4.6470 5.3016 2.8874 0.0000 -10567.2674 1342.8135 0.0000 0.0000 1838.5074 -7373.1104 313.0893 -9211.6178 -7449.6639 302.6077 -704.2605 -631.6226 30520.8259 -189.2493 -116.5560
TCL: Running FEP window   2: Lambda1 0.95   Lambda2 0.8999999999999999 [dLambda -0.050000000000000044]
TCL: Setting parameter firsttimestep to 0
TCL: Setting parameter alchLambda to 0.95
Info: NONBONDED TABLE R-SQUARED SPACING: 0.0625
Info: NONBONDED TABLE SIZE: 705 POINTS
TCL: Setting parameter alchLambda2 to 0.8999999999999999
Info: NONBONDED TABLE R-SQUARED SPACING: 0.0625
Info: NONBONDED TABLE SIZE: 705 POINTS
TCL: Running for 1500000 steps
ETITLE: TS BOND ANGLE DIHED IMPRP ELECT VDW BOUNDARY MISC KINETIC TOTAL TEMP POTENTIAL TOTALAVG TEMPAVG PRESSURE GPRESSURE VOLUME PRESSAVG GPRESSAVG
ENERGY: 0 4.6471 5.3016 2.8874 0.0000 -10565.5082 1342.3962 0.0000 0.0000 1837.6606 -7372.6153 312.9451 -9210.2759 -7372.6153 312.9451 -737.1472 -645.3807 30520.8259 -737.1472 -645.3807
ENERGY: 300000 0.8247 2.9443 2.4645 0.0000 -10633.6180 1389.3641 0.0000 0.0000 1803.3834 -7434.6370 307.1079 -9238.0204 -7461.8536 302.2643 -340.6151 -279.4603 30392.4077 -444.6020 -370.5761
ENERGY: 600000 2.3885 2.3205 2.6314 0.0000 -10509.6945 1303.6620 0.0000 0.0000 1728.8115 -7469.8807 294.4086 -9198.6921 -7453.8384 300.4410 -1106.4311 -1068.3881 30683.7827 -385.4596 -334.1758
ENERGY: 900000 1.9880 4.1911 5.0398 0.0000 -10729.7534 1432.8294 0.0000 0.0000 1805.3035 -7480.4015 307.4349 -9285.7050 -7465.9687 300.4478 -150.1292 -40.7315 30201.1426 -175.5755 -126.0380
ENERGY: 1200000 2.2958 4.2304 5.0485 0.0000 -10747.4386 1403.7298 0.0000 0.0000 1723.6700 -7608.4641 293.5331 -9332.1341 -7489.9325 298.9895 -332.6045 -326.7279 30151.1436 -234.1528 -181.2863
ENERGY: 1500000 1.9065 3.9999 1.5768 0.0000 -10722.6926 1485.1338 0.0000 0.0000 1763.5066 -7466.5691 300.3170 -9230.0757 -7483.3300 299.4026 595.8398 658.6305 30406.8482 -191.8328 -138.1430
TCL: Running FEP window   3: Lambda1 0.8999999999999999 Lambda2 0.8499999999999999 [dLambda -0.050000000000000044]
TCL: Setting parameter firsttimestep to 0
TCL: Setting parameter alchLambda to 0.8999999999999999
Info: NONBONDED TABLE R-SQUARED SPACING: 0.0625
Info: NONBONDED TABLE SIZE: 705 POINTS
TCL: Setting parameter alchLambda2 to 0.8499999999999999
Info: NONBONDED TABLE R-SQUARED SPACING: 0.0625
Info: NONBONDED TABLE SIZE: 705 POINTS
TCL: Running for 1500000 steps
ETITLE: TS BOND ANGLE DIHED IMPRP ELECT VDW BOUNDARY MISC KINETIC TOTAL TEMP POTENTIAL TOTALAVG TEMPAVG PRESSURE GPRESSURE VOLUME PRESSAVG GPRESSAVG
ENERGY: 0 1.9065 3.9999 1.5768 0.0000 -10720.9544 1484.7850 0.0000 0.0000 1762.6534 -7466.0329 300.1718 -9228.6863 -7466.0329 300.1718 561.7772 647.9512 30406.8482 561.7772 647.9512
ENERGY: 300000 2.4210 4.1329 4.6066 0.0000 -10676.8630 1479.8583 0.0000 0.0000 1755.9097 -7429.9345 299.0233 -9185.8442 -7481.9914 299.7908 622.6800 698.6418 30375.2113 176.6533 253.9771
ENERGY: 600000 1.3400 6.4612 1.3567 0.0000 -10732.1971 1423.9354 0.0000 0.0000 1732.2384 -7566.8655 294.9922 -9299.1039 -7495.8869 299.6327 -346.6477 -301.6373 30532.6394 29.4210 105.1076
ENERGY: 900000 3.4722 4.4417 2.3107 0.0000 -10724.7915 1486.8783 0.0000 0.0000 1743.2281 -7484.4604 296.8637 -9227.6885 -7485.9227 299.9799 422.5456 477.6648 30214.9737 -12.4806 62.5168
ENERGY: 1200000 1.0196 1.7850 1.9107 0.0000 -10697.7404 1386.1327 0.0000 0.0000 1770.4021 -7536.4904 301.4913 -9306.8924 -7503.6629 299.4744 -693.9716 -661.9136 30335.9814 -1.2016 68.2075
ENERGY: 1500000 5.5452 2.0867 2.2991 0.0000 -10656.5397 1392.2531 0.0000 0.0000 1733.8774 -7520.4782 295.2713 -9254.3555 -7497.2841 300.3603 -700.8231 -639.3290 30538.4014 -2.9708 67.1494
TCL: Running FEP window   4: Lambda1 0.8499999999999999 Lambda2 0.7999999999999998 [dLambda -0.050000000000000044]
TCL: Setting parameter firsttimestep to 0
TCL: Setting parameter alchLambda to 0.8499999999999999
Info: NONBONDED TABLE R-SQUARED SPACING: 0.0625
Info: NONBONDED TABLE SIZE: 705 POINTS
TCL: Setting parameter alchLambda2 to 0.7999999999999998
Info: NONBONDED TABLE R-SQUARED SPACING: 0.0625
Info: NONBONDED TABLE SIZE: 705 POINTS
TCL: Running for 1500000 steps
ETITLE: TS BOND ANGLE DIHED IMPRP ELECT VDW BOUNDARY MISC KINETIC TOTAL TEMP POTENTIAL TOTALAVG TEMPAVG PRESSURE GPRESSURE VOLUME PRESSAVG GPRESSAVG
ENERGY: 0 5.5452 2.0867 2.2991 0.0000 -10654.8573 1391.7378 0.0000 0.0000 1733.0284 -7520.1601 295.1268 -9253.1884 -7520.1601 295.1268 -740.7329 -652.3040 30538.4014 -740.7329 -652.3040
ENERGY: 300000 3.0006 1.6510 3.5179 0.0000 -10609.4503 1382.3383 0.0000 0.0000 1818.1459 -7400.7966 309.6219 -9218.9425 -7467.6984 300.2959 -37.2348 -0.8190 30092.7189 -661.8250 -613.9124
ENERGY: 600000 1.8527 3.4416 4.4894 0.0000 -10787.3804 1487.9299 0.0000 0.0000 1780.9845 -7508.6823 303.2935 -9289.6668 -7485.1280 301.2213 326.5995 383.4037 30204.4538 -285.6678 -237.9913
ENERGY: 900000 2.6146 4.5797 4.2203 0.0000 -10799.5015 1512.5940 0.0000 0.0000 1775.9803 -7499.5127 302.4413 -9275.4929 -7493.2286 300.4570 693.3808 755.5587 29893.5819 -53.6424 -8.5959
ENERGY: 1200000 4.0339 6.6466 4.6885 0.0000 -10682.6130 1418.6157 0.0000 0.0000 1787.2061 -7461.4223 304.3530 -9248.6283 -7489.6796 300.3224 -367.2470 -271.2978 30609.4988 -21.2746 18.2812
ENERGY: 1500000 3.1825 4.2728 2.7891 0.0000 -10699.2284 1426.7109 0.0000 0.0000 1801.1000 -7461.1730 306.7190 -9262.2730 -7480.2109 301.2744 300.5098 324.2163 30030.8996 -48.2631 -5.5069
TCL: Running FEP window   5: Lambda1 0.7999999999999998 Lambda2 0.7499999999999998 [dLambda -0.050000000000000044]
TCL: Setting parameter firsttimestep to 0
TCL: Setting parameter alchLambda to 0.7999999999999998
Info: NONBONDED TABLE R-SQUARED SPACING: 0.0625
Info: NONBONDED TABLE SIZE: 705 POINTS
TCL: Setting parameter alchLambda2 to 0.7499999999999998
Info: NONBONDED TABLE R-SQUARED SPACING: 0.0625
Info: NONBONDED TABLE SIZE: 705 POINTS
TCL: Running for 1500000 steps
ETITLE: TS BOND ANGLE DIHED IMPRP ELECT VDW BOUNDARY MISC KINETIC TOTAL TEMP POTENTIAL TOTALAVG TEMPAVG PRESSURE GPRESSURE VOLUME PRESSAVG GPRESSAVG
ENERGY: 0 3.1825 4.2728 2.7891 0.0000 -10697.9709 1426.7604 0.0000 0.0000 1800.2025 -7460.7636 306.5662 -9260.9660 -7460.7636 306.5662 224.5601 317.9274 30030.8996 224.5601 317.9274
ENERGY: 300000 3.2890 3.9062 2.5952 0.0000 -10820.9660 1550.4545 0.0000 0.0000 1753.8911 -7506.8301 298.6796 -9260.7212 -7477.7937 300.8734 1083.1923 1089.1892 29802.8835 258.7171 306.5397
ENERGY: 600000 1.3295 2.8032 3.3786 0.0000 -10732.7205 1484.1507 0.0000 0.0000 1689.0560 -7552.0025 287.6385 -9241.0585 -7491.5013 298.4734 152.8117 205.1119 30653.5387 112.2543 161.9601
ENERGY: 900000 3.1350 2.9914 3.8843 0.0000 -10551.1498 1354.9468 0.0000 0.0000 1760.3027 -7425.8896 299.7714 -9186.1923 -7479.9818 298.7035 -609.8491 -551.7917 30441.1854 -22.2232 34.8608
ENERGY: 1200000 1.0695 2.5038 2.6476 0.0000 -10606.1563 1396.3334 0.0000 0.0000 1690.9938 -7512.6081 287.9685 -9203.6019 -7486.3493 297.2881 -225.2518 -135.7452 30302.2482 -76.9264 -18.5707
ENERGY: 1500000 1.6450 2.9071 3.3876 0.0000 -10665.1055 1449.0529 0.0000 0.0000 1770.6749 -7437.4381 301.5378 -9208.1130 -7471.6034 297.7642 219.5864 253.1542 30415.2456 -121.4960 -62.1828
TCL: Running FEP window   6: Lambda1 0.7499999999999998 Lambda2 0.6999999999999997 [dLambda -0.050000000000000044]
TCL: Setting parameter firsttimestep to 0
TCL: Setting parameter alchLambda to 0.7499999999999998
Info: NONBONDED TABLE R-SQUARED SPACING: 0.0625
Info: NONBONDED TABLE SIZE: 705 POINTS
TCL: Setting parameter alchLambda2 to 0.6999999999999997
Info: NONBONDED TABLE R-SQUARED SPACING: 0.0625
Info: NONBONDED TABLE SIZE: 705 POINTS
TCL: Running for 1500000 steps
ETITLE: TS BOND ANGLE DIHED IMPRP ELECT VDW BOUNDARY MISC KINETIC TOTAL TEMP POTENTIAL TOTALAVG TEMPAVG PRESSURE GPRESSURE VOLUME PRESSAVG GPRESSAVG
ENERGY: 0 1.6450 2.9071 3.3876 0.0000 -10663.5307 1448.3107 0.0000 0.0000 1769.7793 -7437.5009 301.3853 -9207.2802 -7437.5009 301.3853 148.0750 238.2838 30415.2456 148.0750 238.2838
ENERGY: 300000 4.7296 3.5603 4.0419 0.0000 -10670.0589 1477.8777 0.0000 0.0000 1788.0557 -7391.7936 304.4976 -9179.8493 -7473.4975 301.6886 705.4678 726.6660 30126.0128 212.1297 276.4906
ENERGY: 600000 1.4139 2.0589 3.3174 0.0000 -10706.2712 1421.5362 0.0000 0.0000 1736.0032 -7541.9417 295.6333 -9277.9448 -7497.1532 300.0719 -109.8617 -35.2821 30309.2523 239.0173 305.9087
ENERGY: 900000 2.9681 3.1514 2.7957 0.0000 -10756.5678 1489.7907 0.0000 0.0000 1792.3272 -7465.5348 305.2251 -9257.8620 -7493.2545 299.4534 280.4130 308.6403 30514.4371 214.8415 264.4726
ENERGY: 1200000 4.7611 2.4331 2.3804 0.0000 -10710.1346 1429.3674 0.0000 0.0000 1770.6420 -7500.5505 301.5322 -9271.1925 -7497.6259 299.1891 -372.5706 -232.4825 30312.4952 89.7825 149.5589
ENERGY: 1500000 4.1846 6.2099 1.9010 0.0000 -10568.7919 1365.8050 0.0000 0.0000 1804.3028 -7386.3884 307.2645 -9190.6913 -7483.8655 299.9650 -275.6218 -227.0857 30496.7586 51.4399 118.9391
TCL: Running FEP window   7: Lambda1 0.6999999999999997 Lambda2 0.6499999999999997 [dLambda -0.050000000000000044]
TCL: Setting parameter firsttimestep to 0
TCL: Setting parameter alchLambda to 0.6999999999999997
Info: NONBONDED TABLE R-SQUARED SPACING: 0.0625
Info: NONBONDED TABLE SIZE: 705 POINTS
TCL: Setting parameter alchLambda2 to 0.6499999999999997
Info: NONBONDED TABLE R-SQUARED SPACING: 0.0625
Info: NONBONDED TABLE SIZE: 705 POINTS
TCL: Running for 1500000 steps
ETITLE: TS BOND ANGLE DIHED IMPRP ELECT VDW BOUNDARY MISC KINETIC TOTAL TEMP POTENTIAL TOTALAVG TEMPAVG PRESSURE GPRESSURE VOLUME PRESSAVG GPRESSAVG
ENERGY: 0 4.1846 6.2099 1.9010 0.0000 -10568.0850 1365.9214 0.0000 0.0000 1803.4068 -7386.4612 307.1119 -9189.8680 -7386.4612 307.1119 -304.2351 -232.3589 30496.7586 -304.2351 -232.3589
ENERGY: 300000 3.0878 3.5308 7.5528 0.0000 -10695.1761 1426.0908 0.0000 0.0000 1825.2510 -7429.6628 310.8318 -9254.9138 -7449.3322 305.0062 130.2837 168.6137 29966.1211 -204.3584 -136.8995
ENERGY: 600000 3.0953 1.0764 4.0716 0.0000 -10592.1241 1323.9683 0.0000 0.0000 1776.1132 -7483.7993 302.4639 -9259.9125 -7473.6764 301.0838 -684.7729 -627.6177 30059.3251 -274.2215 -201.9713
ENERGY: 900000 1.3873 2.4603 5.0185 0.0000 -10687.2592 1403.8282 0.0000 0.0000 1798.8437 -7475.7212 306.3348 -9274.5648 -7478.6347 300.4119 -535.2030 -417.5793 30556.2857 -309.7328 -230.4838
ENERGY: 1200000 2.3236 6.6522 1.7939 0.0000 -10727.4504 1426.9307 0.0000 0.0000 1795.0472 -7494.7028 305.6883 -9289.7500 -7482.0126 300.0916 -209.1388 -68.7561 30049.9211 -318.2341 -239.3671
ENERGY: 1500000 3.1247 4.5280 4.4144 0.0000 -10667.9496 1411.5042 0.0000 0.0000 1765.8054 -7478.5728 300.7085 -9244.3781 -7485.3101 299.8932 -410.4033 -311.1007 30654.1759 -282.8230 -205.0728
TCL: Running FEP window   8: Lambda1 0.6499999999999997 Lambda2 0.5999999999999996 [dLambda -0.050000000000000044]
TCL: Setting parameter firsttimestep to 0
TCL: Setting parameter alchLambda to 0.6499999999999997
Info: NONBONDED TABLE R-SQUARED SPACING: 0.0625
Info: NONBONDED TABLE SIZE: 705 POINTS
TCL: Setting parameter alchLambda2 to 0.5999999999999996
Info: NONBONDED TABLE R-SQUARED SPACING: 0.0625
Info: NONBONDED TABLE SIZE: 705 POINTS
TCL: Running for 1500000 steps
ETITLE: TS BOND ANGLE DIHED IMPRP ELECT VDW BOUNDARY MISC KINETIC TOTAL TEMP POTENTIAL TOTALAVG TEMPAVG PRESSURE GPRESSURE VOLUME PRESSAVG GPRESSAVG
ENERGY: 0 3.1247 4.5280 4.4144 0.0000 -10666.5850 1411.1019 0.0000 0.0000 1764.9341 -7478.4819 300.5601 -9243.4160 -7478.4819 300.5601 -401.1036 -321.2716 30654.1759 -401.1036 -321.2716
ENERGY: 300000 1.9371 2.6325 4.6433 0.0000 -10620.0192 1397.2342 0.0000 0.0000 1708.2831 -7505.2890 290.9127 -9213.5720 -7497.3679 298.0698 -292.4001 -186.1123 30429.6492 0.4059 76.8467
ENERGY: 600000 2.3457 5.7839 4.1093 0.0000 -10542.1176 1314.4965 0.0000 0.0000 1766.2447 -7449.1375 300.7833 -9215.3821 -7492.5020 298.9442 -1012.0588 -939.4693 30457.7489 -268.8434 -198.0641
ENERGY: 900000 4.4116 4.4551 4.3852 0.0000 -10725.1638 1488.5826 0.0000 0.0000 1820.4203 -7402.9090 310.0092 -9223.3292 -7490.9413 298.8381 698.7038 738.7837 30061.2270 4.2978 62.8526
ENERGY: 1200000 6.4937 1.4801 2.0777 0.0000 -10706.3837 1435.3492 0.0000 0.0000 1790.8576 -7470.1254 304.9748 -9260.9830 -7488.0337 299.5741 -370.1799 -389.4455 30888.0074 23.9280 76.4760
ENERGY: 1500000 3.6263 4.1133 3.1822 0.0000 -10639.3743 1364.5886 0.0000 0.0000 1732.1372 -7531.7268 294.9750 -9263.8640 -7486.4424 299.2445 -956.4609 -907.5461 30740.3866 -62.9869 -1.6889
TCL: Running FEP window   9: Lambda1 0.5999999999999996 Lambda2 0.5499999999999996 [dLambda -0.050000000000000044]
TCL: Setting parameter firsttimestep to 0
TCL: Setting parameter alchLambda to 0.5999999999999996
Info: NONBONDED TABLE R-SQUARED SPACING: 0.0625
Info: NONBONDED TABLE SIZE: 705 POINTS
TCL: Setting parameter alchLambda2 to 0.5499999999999996
Info: NONBONDED TABLE R-SQUARED SPACING: 0.0625
Info: NONBONDED TABLE SIZE: 705 POINTS
TCL: Running for 1500000 steps
ETITLE: TS BOND ANGLE DIHED IMPRP ELECT VDW BOUNDARY MISC KINETIC TOTAL TEMP POTENTIAL TOTALAVG TEMPAVG PRESSURE GPRESSURE VOLUME PRESSAVG GPRESSAVG
ENERGY: 0 3.6262 4.1133 3.1822 0.0000 -10638.4927 1364.1212 0.0000 0.0000 1731.2624 -7532.1873 294.8260 -9263.4498 -7532.1873 294.8260 -996.2355 -919.4030 30740.3866 -996.2355 -919.4030
ENERGY: 300000 2.0829 2.9247 3.5837 0.0000 -10643.0698 1440.6923 0.0000 0.0000 1763.3968 -7430.3894 300.2984 -9193.7863 -7464.5783 298.9362 123.0498 110.6334 30471.7941 -354.8530 -310.9763
ENERGY: 600000 3.5201 3.8488 3.3281 0.0000 -10692.2859 1429.7400 0.0000 0.0000 1808.8700 -7442.9788 308.0422 -9251.8488 -7454.3869 300.9025 -80.5555 -59.9202 30354.4010 25.9013 52.7837
ENERGY: 900000 5.7822 2.3841 1.2210 0.0000 -10882.9428 1613.8417 0.0000 0.0000 1802.7068 -7457.0069 306.9927 -9259.7137 -7466.9077 300.4274 1552.5496 1565.8061 29646.8114 209.3874 246.7302
ENERGY: 1200000 3.1805 3.7797 3.1716 0.0000 -10742.0794 1531.4880 0.0000 0.0000 1695.7602 -7504.6993 288.7802 -9200.4595 -7468.7156 299.3519 665.9383 738.6753 30321.4747 133.7522 176.2588
ENERGY: 1500000 3.1384 4.3319 3.1966 0.0000 -10618.2641 1438.3298 0.0000 0.0000 1784.4857 -7384.7817 303.8897 -9169.2673 -7464.7298 299.5170 413.1112 484.2853 30091.5725 101.8068 153.1831
TCL: Running FEP window  10: Lambda1 0.5499999999999996 Lambda2 0.4999999999999996 [dLambda -0.04999999999999999]
TCL: Setting parameter firsttimestep to 0
TCL: Setting parameter alchLambda to 0.5499999999999996
Info: NONBONDED TABLE R-SQUARED SPACING: 0.0625
Info: NONBONDED TABLE SIZE: 705 POINTS
TCL: Setting parameter alchLambda2 to 0.4999999999999996
Info: NONBONDED TABLE R-SQUARED SPACING: 0.0625
Info: NONBONDED TABLE SIZE: 705 POINTS
TCL: Running for 1500000 steps
ETITLE: TS BOND ANGLE DIHED IMPRP ELECT VDW BOUNDARY MISC KINETIC TOTAL TEMP POTENTIAL TOTALAVG TEMPAVG PRESSURE GPRESSURE VOLUME PRESSAVG GPRESSAVG
ENERGY: 0 3.1384 4.3319 3.1966 0.0000 -10618.3376 1438.8428 0.0000 0.0000 1783.5874 -7385.2405 303.7367 -9168.8279 -7385.2405 303.7367 389.0987 480.2587 30091.5725 389.0987 480.2587
ENERGY: 300000 3.9265 2.7430 1.7373 0.0000 -10809.0694 1486.5772 0.0000 0.0000 1714.9772 -7599.1083 292.0527 -9314.0855 -7485.1838 299.3609 201.9759 198.4263 30173.9763 178.9909 230.9570
ENERGY: 600000 2.0519 3.5757 5.5505 0.0000 -10568.7467 1312.0661 0.0000 0.0000 1783.4497 -7462.0528 303.7133 -9245.5025 -7471.9149 300.5669 -1043.8297 -994.3896 30605.0030 29.5273 79.2387
ENERGY: 900000 2.0656 1.7751 5.0122 0.0000 -10665.7260 1443.0741 0.0000 0.0000 1750.2736 -7463.5255 298.0635 -9213.7991 -7467.2105 300.8098 -346.3481 -271.2010 30945.8621 -98.5571 -40.5027
ENERGY: 1200000 1.3901 2.3474 4.1461 0.0000 -10549.7111 1341.2284 0.0000 0.0000 1782.5309 -7418.0682 303.5568 -9200.5991 -7466.0881 301.6191 -411.0434 -428.8279 30162.0212 -103.5259 -51.4121
ENERGY: 1500000 2.7848 4.3321 6.9543 0.0000 -10609.6085 1378.5742 0.0000 0.0000 1792.0929 -7424.8702 305.1852 -9216.9631 -7458.2038 301.6184 -453.5975 -409.4328 30637.2372 -57.1755 -11.3409
TCL: Running FEP window  11: Lambda1 0.4999999999999996 Lambda2 0.4499999999999996 [dLambda -0.04999999999999999]
TCL: Setting parameter firsttimestep to 0
TCL: Setting parameter alchLambda to 0.4999999999999996
Info: NONBONDED TABLE R-SQUARED SPACING: 0.0625
Info: NONBONDED TABLE SIZE: 705 POINTS
TCL: Setting parameter alchLambda2 to 0.4499999999999996
Info: NONBONDED TABLE R-SQUARED SPACING: 0.0625
Info: NONBONDED TABLE SIZE: 705 POINTS
TCL: Running for 1500000 steps
ETITLE: TS BOND ANGLE DIHED IMPRP ELECT VDW BOUNDARY MISC KINETIC TOTAL TEMP POTENTIAL TOTALAVG TEMPAVG PRESSURE GPRESSURE VOLUME PRESSAVG GPRESSAVG
ENERGY: 0 2.7848 4.3321 6.9543 0.0000 -10609.6147 1378.8753 0.0000 0.0000 1791.1580 -7425.5102 305.0260 -9216.6682 -7425.5102 305.0260 -488.3179 -413.0437 30637.2372 -488.3179 -413.0437
ENERGY: 300000 4.3532 2.8091 0.6675 0.0000 -10616.5826 1421.6409 0.0000 0.0000 1777.4132 -7409.6988 302.6853 -9187.1120 -7426.9021 299.8989 -105.0970 -16.4422 30700.2598 -90.0228 -47.7084
ENERGY: 600000 1.2486 3.7628 3.3125 0.0000 -10762.9336 1495.2649 0.0000 0.0000 1760.9698 -7498.3751 299.8851 -9259.3449 -7452.4189 299.9592 340.3672 395.9617 30315.6845 -12.0047 50.7189
ENERGY: 900000 2.4572 4.8065 3.9758 0.0000 -10621.8626 1396.0389 0.0000 0.0000 1692.4183 -7522.1660 288.2110 -9214.5842 -7461.6903 298.7606 -314.8417 -230.9688 30447.3921 -68.2802 -17.1133
ENERGY: 1200000 1.8566 2.4939 2.9794 0.0000 -10642.6898 1391.0591 0.0000 0.0000 1721.2760 -7523.0247 293.1254 -9244.3007 -7476.2534 297.6597 -682.9343 -584.2740 30742.1376 -132.2329 -67.4596
ENERGY: 1500000 1.6510 4.1167 6.9825 0.0000 -10800.4239 1499.7796 0.0000 0.0000 1786.2097 -7501.6843 304.1833 -9287.8940 -7476.5752 299.1153 333.0681 390.3438 30082.1820 46.6772 110.2485
TCL: Running FEP window  12: Lambda1 0.4499999999999996 Lambda2 0.39999999999999963 [dLambda -0.04999999999999999]
TCL: Setting parameter firsttimestep to 0
TCL: Setting parameter alchLambda to 0.4499999999999996
Info: NONBONDED TABLE R-SQUARED SPACING: 0.0625
Info: NONBONDED TABLE SIZE: 705 POINTS
TCL: Setting parameter alchLambda2 to 0.39999999999999963
Info: NONBONDED TABLE R-SQUARED SPACING: 0.0625
Info: NONBONDED TABLE SIZE: 705 POINTS
TCL: Running for 1500000 steps
ETITLE: TS BOND ANGLE DIHED IMPRP ELECT VDW BOUNDARY MISC KINETIC TOTAL TEMP POTENTIAL TOTALAVG TEMPAVG PRESSURE GPRESSURE VOLUME PRESSAVG GPRESSAVG
ENERGY: 0 1.6511 4.1167 6.9825 0.0000 -10800.4236 1499.8903 0.0000 0.0000 1785.3249 -7502.4581 304.0326 -9287.7829 -7502.4581 304.0326 299.5935 382.5943 30082.1820 299.5935 382.5943
ENERGY: 300000 2.3748 4.4760 2.9241 0.0000 -10599.4152 1440.8040 0.0000 0.0000 1772.3656 -7376.4705 301.8257 -9148.8362 -7449.6565 301.3773 369.5141 429.6820 30301.7105 166.2928 218.8390
ENERGY: 600000 2.0457 4.5796 3.9575 0.0000 -10677.8785 1406.9463 0.0000 0.0000 1742.1547 -7518.1948 296.6809 -9260.3495 -7464.9632 302.6000 -418.8037 -384.6231 30431.0482 -72.5118 -20.5176
ENERGY: 900000 4.8101 3.7900 4.4998 0.0000 -10648.5851 1413.4117 0.0000 0.0000 1821.7058 -7400.3676 310.2281 -9222.0735 -7455.4153 303.2069 -633.7534 -608.9765 30957.3606 -85.2258 -24.3848
ENERGY: 1200000 2.8821 4.4698 4.7574 0.0000 -10688.9428 1431.6886 0.0000 0.0000 1804.2255 -7440.9195 307.2513 -9245.1450 -7462.4833 302.7327 27.2998 55.4406 30001.9810 -153.2134 -97.6205
ENERGY: 1500000 2.7731 3.8933 4.5211 0.0000 -10734.3857 1476.1824 0.0000 0.0000 1764.6862 -7482.3297 300.5179 -9247.0158 -7465.6788 301.9254 550.4630 639.8962 30114.1466 -44.4635 11.2023
TCL: Running FEP window  13: Lambda1 0.39999999999999963 Lambda2 0.34999999999999964 [dLambda -0.04999999999999999]
TCL: Setting parameter firsttimestep to 0
TCL: Setting parameter alchLambda to 0.39999999999999963
Info: NONBONDED TABLE R-SQUARED SPACING: 0.0625
Info: NONBONDED TABLE SIZE: 705 POINTS
TCL: Setting parameter alchLambda2 to 0.34999999999999964
Info: NONBONDED TABLE R-SQUARED SPACING: 0.0625
Info: NONBONDED TABLE SIZE: 705 POINTS
TCL: Running for 1500000 steps
ETITLE: TS BOND ANGLE DIHED IMPRP ELECT VDW BOUNDARY MISC KINETIC TOTAL TEMP POTENTIAL TOTALAVG TEMPAVG PRESSURE GPRESSURE VOLUME PRESSAVG GPRESSAVG
ENERGY: 0 2.7731 3.8933 4.5211 0.0000 -10734.3859 1476.7596 0.0000 0.0000 1763.7425 -7482.6963 300.3572 -9246.4389 -7482.6963 300.3572 566.5672 645.3920 30114.1466 566.5672 645.3920
ENERGY: 300000 4.2144 2.3830 2.6783 0.0000 -10601.1124 1388.5874 0.0000 0.0000 1759.8856 -7443.3638 299.7004 -9203.2494 -7472.8594 301.2382 -307.3834 -279.1070 30216.8806 96.1094 180.7303
ENERGY: 600000 2.8342 6.0589 2.6598 0.0000 -10684.2462 1422.0569 0.0000 0.0000 1795.6518 -7454.9847 305.7912 -9250.6364 -7487.7743 301.2732 -164.9564 -70.4414 30158.8436 94.1491 156.1795
ENERGY: 900000 1.7583 2.2094 4.0200 0.0000 -10515.2662 1434.2971 0.0000 0.0000 1746.0953 -7326.8862 297.3520 -9072.9814 -7463.8302 300.9163 37.8150 87.2957 30867.9855 54.8044 110.4923
ENERGY: 1200000 3.0471 3.8007 3.5309 0.0000 -10739.0668 1440.6069 0.0000 0.0000 1790.3004 -7497.7808 304.8799 -9288.0812 -7466.5250 300.8621 -475.8210 -441.5603 30848.3607 -108.5157 -54.5336
ENERGY: 1500000 1.4095 2.7247 4.3289 0.0000 -10712.9148 1483.8054 0.0000 0.0000 1775.1303 -7445.5159 302.2965 -9220.6462 -7456.4601 301.1099 441.6352 514.8661 30093.4155 -102.0860 -47.6612
TCL: Running FEP window  14: Lambda1 0.34999999999999964 Lambda2 0.29999999999999966 [dLambda -0.04999999999999999]
TCL: Setting parameter firsttimestep to 0
TCL: Setting parameter alchLambda to 0.34999999999999964
Info: NONBONDED TABLE R-SQUARED SPACING: 0.0625
Info: NONBONDED TABLE SIZE: 705 POINTS
TCL: Setting parameter alchLambda2 to 0.29999999999999966
Info: NONBONDED TABLE R-SQUARED SPACING: 0.0625
Info: NONBONDED TABLE SIZE: 705 POINTS
TCL: Running for 1500000 steps
ETITLE: TS BOND ANGLE DIHED IMPRP ELECT VDW BOUNDARY MISC KINETIC TOTAL TEMP POTENTIAL TOTALAVG TEMPAVG PRESSURE GPRESSURE VOLUME PRESSAVG GPRESSAVG
ENERGY: 0 1.4095 2.7247 4.3289 0.0000 -10712.9154 1484.0676 0.0000 0.0000 1774.2530 -7446.1317 302.1471 -9220.3847 -7446.1317 302.1471 428.3533 512.2787 30093.4155 428.3533 512.2787
ENERGY: 300000 2.4800 3.5772 3.2355 0.0000 -10703.4549 1433.9088 0.0000 0.0000 1777.5878 -7482.6656 302.7150 -9260.2535 -7473.0727 300.4050 -42.3226 -20.3833 30262.7078 309.5621 375.5426
ENERGY: 600000 3.7937 4.4908 2.5920 0.0000 -10830.5231 1565.9997 0.0000 0.0000 1782.7712 -7470.8757 303.5977 -9253.6469 -7505.1876 301.3330 655.2872 722.5164 30480.8250 155.9581 212.8756
ENERGY: 900000 4.5199 5.2914 1.4738 0.0000 -10679.5521 1451.9629 0.0000 0.0000 1717.4982 -7498.8059 292.4820 -9216.3041 -7494.8130 300.0087 243.6959 271.6550 29954.5842 33.2098 88.7635
ENERGY: 1200000 1.7109 2.6921 2.9815 0.0000 -10576.6377 1362.3570 0.0000 0.0000 1815.1334 -7391.7628 309.1089 -9206.8962 -7471.3950 300.7883 -473.7797 -398.0195 30426.0004 24.9489 77.5991
ENERGY: 1500000 5.3233 1.4322 5.3549 0.0000 -10753.3876 1513.4312 0.0000 0.0000 1806.2016 -7421.6444 307.5878 -9227.8460 -7471.1871 300.6023 612.9111 613.0326 30228.3927 52.0462 100.1435
TCL: Running FEP window  15: Lambda1 0.29999999999999966 Lambda2 0.24999999999999967 [dLambda -0.04999999999999999]
TCL: Setting parameter firsttimestep to 0
TCL: Setting parameter alchLambda to 0.29999999999999966
Info: NONBONDED TABLE R-SQUARED SPACING: 0.0625
Info: NONBONDED TABLE SIZE: 705 POINTS
TCL: Setting parameter alchLambda2 to 0.24999999999999967
Info: NONBONDED TABLE R-SQUARED SPACING: 0.0625
Info: NONBONDED TABLE SIZE: 705 POINTS
TCL: Running for 1500000 steps
ETITLE: TS BOND ANGLE DIHED IMPRP ELECT VDW BOUNDARY MISC KINETIC TOTAL TEMP POTENTIAL TOTALAVG TEMPAVG PRESSURE GPRESSURE VOLUME PRESSAVG GPRESSAVG
ENERGY: 0 5.3233 1.4322 5.3550 0.0000 -10753.3881 1512.9206 0.0000 0.0000 1805.3242 -7423.0328 307.4384 -9228.3570 -7423.0328 307.4384 533.8693 605.6096 30228.3927 533.8693 605.6096
ENERGY: 300000 1.1453 2.3619 1.6278 0.0000 -10758.0889 1491.1504 0.0000 0.0000 1785.5180 -7476.2854 304.0655 -9261.8034 -7411.4735 301.7900 691.4100 727.1383 29982.9379 270.3757 324.7690
ENERGY: 600000 3.5953 2.9111 4.9289 0.0000 -10577.6107 1344.9249 0.0000 0.0000 1787.0445 -7434.2061 304.3254 -9221.2505 -7429.9670 301.7374 -752.2589 -655.9387 30320.9720 191.2101 258.2863
ENERGY: 900000 1.0579 3.0102 2.1325 0.0000 -10797.6870 1506.0731 0.0000 0.0000 1806.8513 -7478.5621 307.6984 -9285.4134 -7439.1449 301.5805 772.6882 902.1565 29555.6644 222.1637 300.8512
ENERGY: 1200000 5.1250 1.7506 3.3644 0.0000 -10686.0375 1428.4439 0.0000 0.0000 1803.1050 -7444.2486 307.0605 -9247.3536 -7432.7283 302.9270 -62.2025 -52.4813 30246.1780 153.8431 229.9188
ENERGY: 1500000 2.0921 1.6986 1.0478 0.0000 -10546.7551 1320.6676 0.0000 0.0000 1718.6395 -7502.6095 292.6764 -9221.2491 -7446.4026 301.5057 -976.9327 -933.8022 30368.4607 95.0143 168.1758
TCL: Running FEP window  16: Lambda1 0.24999999999999967 Lambda2 0.19999999999999968 [dLambda -0.04999999999999999]
TCL: Setting parameter firsttimestep to 0
TCL: Setting parameter alchLambda to 0.24999999999999967
Info: NONBONDED TABLE R-SQUARED SPACING: 0.0625
Info: NONBONDED TABLE SIZE: 705 POINTS
TCL: Setting parameter alchLambda2 to 0.19999999999999968
Info: NONBONDED TABLE R-SQUARED SPACING: 0.0625
Info: NONBONDED TABLE SIZE: 705 POINTS
TCL: Running for 1500000 steps
ETITLE: TS BOND ANGLE DIHED IMPRP ELECT VDW BOUNDARY MISC KINETIC TOTAL TEMP POTENTIAL TOTALAVG TEMPAVG PRESSURE GPRESSURE VOLUME PRESSAVG GPRESSAVG
ENERGY: 0 2.0921 1.6986 1.0478 0.0000 -10546.7551 1320.9725 0.0000 0.0000 1717.7454 -7503.1988 292.5241 -9220.9442 -7503.1988 292.5241 -1014.4604 -938.2115 30368.4607 -1014.4604 -938.2115
ENERGY: 300000 3.8167 2.6923 1.7422 0.0000 -10588.1548 1358.6739 0.0000 0.0000 1797.5962 -7423.6336 306.1223 -9221.2298 -7450.3756 301.0758 -769.2403 -768.8329 30303.9537 -343.4485 -286.0239
ENERGY: 600000 0.6764 4.2163 2.7621 0.0000 -10617.5190 1385.4796 0.0000 0.0000 1781.2301 -7443.1544 303.3353 -9224.3845 -7450.5629 300.2392 -476.0589 -454.2782 30643.1258 -356.6984 -299.7795
ENERGY: 900000 3.1552 2.7335 3.5223 0.0000 -10655.3733 1391.5721 0.0000 0.0000 1807.7830 -7446.6073 307.8571 -9254.3903 -7454.6519 300.1849 -388.5776 -388.8545 30275.3289 -238.5971 -190.8004
ENERGY: 1200000 2.2469 5.7114 2.7781 0.0000 -10611.9376 1388.3783 0.0000 0.0000 1746.3397 -7466.4832 297.3936 -9212.8229 -7463.9078 299.4358 -351.8863 -248.5984 30477.5636 -208.6421 -148.5650
ENERGY: 1500000 0.9029 4.3834 3.1038 0.0000 -10765.8601 1539.2390 0.0000 0.0000 1669.8625 -7548.3684 284.3699 -9218.2309 -7464.1253 298.7256 606.6598 673.4804 30417.4571 -68.2536 -10.9075
TCL: Running FEP window  17: Lambda1 0.19999999999999968 Lambda2 0.1499999999999997 [dLambda -0.04999999999999999]
TCL: Setting parameter firsttimestep to 0
TCL: Setting parameter alchLambda to 0.19999999999999968
Info: NONBONDED TABLE R-SQUARED SPACING: 0.0625
Info: NONBONDED TABLE SIZE: 705 POINTS
TCL: Setting parameter alchLambda2 to 0.1499999999999997
Info: NONBONDED TABLE R-SQUARED SPACING: 0.0625
Info: NONBONDED TABLE SIZE: 705 POINTS
TCL: Running for 1500000 steps
ETITLE: TS BOND ANGLE DIHED IMPRP ELECT VDW BOUNDARY MISC KINETIC TOTAL TEMP POTENTIAL TOTALAVG TEMPAVG PRESSURE GPRESSURE VOLUME PRESSAVG GPRESSAVG
ENERGY: 0 0.9029 4.3834 3.1038 0.0000 -10765.8586 1539.1346 0.0000 0.0000 1669.0009 -7549.3330 284.2232 -9218.3339 -7549.3330 284.2232 587.7300 666.8566 30417.4571 587.7300 666.8566
ENERGY: 300000 1.8331 2.3345 1.2381 0.0000 -10628.9604 1361.0945 0.0000 0.0000 1725.9471 -7536.5131 293.9208 -9262.4602 -7488.0011 297.6564 -340.0933 -438.6112 30039.4691 253.4536 295.3848
ENERGY: 600000 1.8957 1.7504 2.5977 0.0000 -10614.9372 1373.3170 0.0000 0.0000 1785.3525 -7450.0239 304.0373 -9235.3765 -7478.9445 300.3948 -441.4358 -360.7687 30076.7581 -9.6524 42.1249
ENERGY: 900000 2.8276 1.7437 3.0871 0.0000 -10649.5374 1442.4275 0.0000 0.0000 1821.6573 -7377.7942 310.2199 -9199.4515 -7457.7511 301.3361 -296.5152 -268.0523 30632.9310 -76.5357 -15.2982
ENERGY: 1200000 4.4069 3.8782 2.5466 0.0000 -10703.0597 1512.8142 0.0000 0.0000 1728.2012 -7451.2126 294.3047 -9179.4138 -7446.8253 301.5462 460.4096 442.7754 30642.8136 -40.1450 21.0295
ENERGY: 1500000 1.9932 3.2494 8.2901 0.0000 -10627.0513 1473.4167 0.0000 0.0000 1727.8543 -7412.2476 294.2456 -9140.1019 -7439.4773 300.8400 759.5095 813.7924 29978.3186 2.7120 69.0378
TCL: Running FEP window  18: Lambda1 0.1499999999999997 Lambda2 0.09999999999999969 [dLambda -0.05 ]
TCL: Setting parameter firsttimestep to 0
TCL: Setting parameter alchLambda to 0.1499999999999997
Info: NONBONDED TABLE R-SQUARED SPACING: 0.0625
Info: NONBONDED TABLE SIZE: 705 POINTS
TCL: Setting parameter alchLambda2 to 0.09999999999999969
Info: NONBONDED TABLE R-SQUARED SPACING: 0.0625
Info: NONBONDED TABLE SIZE: 705 POINTS
TCL: Running for 1500000 steps
ETITLE: TS BOND ANGLE DIHED IMPRP ELECT VDW BOUNDARY MISC KINETIC TOTAL TEMP POTENTIAL TOTALAVG TEMPAVG PRESSURE GPRESSURE VOLUME PRESSAVG GPRESSAVG
ENERGY: 0 1.9932 3.2494 8.2901 0.0000 -10627.0502 1473.1010 0.0000 0.0000 1726.9740 -7413.4426 294.0957 -9140.4165 -7413.4426 294.0957 729.7204 810.4328 29978.3186 729.7204 810.4328
ENERGY: 300000 4.2934 3.2277 2.1979 0.0000 -10716.3020 1542.6623 0.0000 0.0000 1741.5723 -7422.3483 296.5817 -9163.9207 -7424.3221 297.7687 757.3083 814.1053 30493.4337 442.5981 505.9030
ENERGY: 600000 3.6046 4.1340 1.8974 0.0000 -10721.6632 1440.2213 0.0000 0.0000 1784.9400 -7486.8659 303.9671 -9271.8059 -7435.7619 298.4998 -233.6499 -113.9292 30292.1795 307.6725 380.7398
ENERGY: 900000 3.1906 4.5042 4.1340 0.0000 -10706.8734 1487.9859 0.0000 0.0000 1765.2052 -7441.8536 300.6063 -9207.0588 -7452.9830 297.7400 183.1623 247.2765 30315.4259 302.0114 370.1209
ENERGY: 1200000 5.3853 2.9427 5.4187 0.0000 -10545.8329 1299.1746 0.0000 0.0000 1724.8182 -7508.0934 293.7286 -9232.9116 -7463.6050 298.0720 -1049.5808 -1091.0392 30199.1056 165.8927 227.5070
ENERGY: 1500000 1.8448 5.3260 4.8433 0.0000 -10632.0569 1390.0698 0.0000 0.0000 1767.0134 -7462.9596 300.9142 -9229.9730 -7458.1068 299.0876 -545.0744 -474.6554 30547.4370 115.6361 176.2367
TCL: Running FEP window  19: Lambda1 0.09999999999999969 Lambda2 0.049999999999999684 [dLambda -0.05 ]
TCL: Setting parameter firsttimestep to 0
TCL: Setting parameter alchLambda to 0.09999999999999969
Info: NONBONDED TABLE R-SQUARED SPACING: 0.0625
Info: NONBONDED TABLE SIZE: 705 POINTS
TCL: Setting parameter alchLambda2 to 0.049999999999999684
Info: NONBONDED TABLE R-SQUARED SPACING: 0.0625
Info: NONBONDED TABLE SIZE: 705 POINTS
TCL: Running for 1500000 steps
ETITLE: TS BOND ANGLE DIHED IMPRP ELECT VDW BOUNDARY MISC KINETIC TOTAL TEMP POTENTIAL TOTALAVG TEMPAVG PRESSURE GPRESSURE VOLUME PRESSAVG GPRESSAVG
ENERGY: 0 1.8448 5.3260 4.8433 0.0000 -10632.0586 1389.1822 0.0000 0.0000 1766.1029 -7464.7593 300.7592 -9230.8623 -7464.7593 300.7592 -565.5573 -481.9174 30547.4370 -565.5573 -481.9174
ENERGY: 300000 2.3185 3.4753 2.5283 0.0000 -10591.3016 1472.0769 0.0000 0.0000 1823.1498 -7287.7527 310.4740 -9110.9026 -7404.3295 303.8313 404.6870 451.2334 30680.0370 99.6446 146.6300
ENERGY: 600000 1.2110 4.5174 2.0375 0.0000 -10598.7269 1377.5193 0.0000 0.0000 1684.0051 -7529.4365 286.7783 -9213.4416 -7448.9743 299.4426 -730.8754 -660.6088 30853.0140 -164.2422 -121.5340
ENERGY: 900000 1.7258 3.4600 2.2437 0.0000 -10710.5766 1446.9005 0.0000 0.0000 1743.2087 -7513.0378 296.8604 -9256.2464 -7463.0955 299.5108 -120.7695 -80.6477 30408.2580 -182.2006 -141.9019
ENERGY: 1200000 3.5606 7.7466 2.6118 0.0000 -10691.9224 1429.8659 0.0000 0.0000 1800.2262 -7447.9114 306.5702 -9248.1376 -7462.8237 300.6701 23.2628 101.9658 29940.0421 -136.3468 -91.2333
ENERGY: 1500000 1.6427 3.9526 5.8325 0.0000 -10770.6215 1529.2797 0.0000 0.0000 1747.7928 -7482.1213 297.6411 -9229.9141 -7469.2126 300.7400 730.0443 824.4188 30141.4970 -67.0689 -13.4706
TCL: Running FEP window  20: Lambda1 0.049999999999999684 Lambda2 0.0    [dLambda -0.049999999999999684]
TCL: Setting parameter firsttimestep to 0
TCL: Setting parameter alchLambda to 0.049999999999999684
Info: NONBONDED TABLE R-SQUARED SPACING: 0.0625
Info: NONBONDED TABLE SIZE: 705 POINTS
TCL: Setting parameter alchLambda2 to 0.0
Info: NONBONDED TABLE R-SQUARED SPACING: 0.0625
Info: NONBONDED TABLE SIZE: 705 POINTS
TCL: Running for 1500000 steps
ETITLE: TS BOND ANGLE DIHED IMPRP ELECT VDW BOUNDARY MISC KINETIC TOTAL TEMP POTENTIAL TOTALAVG TEMPAVG PRESSURE GPRESSURE VOLUME PRESSAVG GPRESSAVG
ENERGY: 0 1.6427 3.9526 5.8325 0.0000 -10770.6218 1529.4692 0.0000 0.0000 1746.9310 -7482.7939 297.4943 -9229.7249 -7482.7939 297.4943 730.8591 820.1554 30141.4970 730.8591 820.1554
ENERGY: 300000 2.6442 2.4281 3.1680 0.0000 -10674.6922 1453.1694 0.0000 0.0000 1718.7308 -7494.5517 292.6919 -9213.2825 -7509.8181 294.5451 127.6173 170.1091 30475.4885 286.4562 362.4495
ENERGY: 600000 1.2782 2.7244 3.4526 0.0000 -10647.5024 1481.7941 0.0000 0.0000 1745.8508 -7412.4024 297.3103 -9158.2531 -7487.8426 295.9812 403.9104 457.1910 30428.0806 81.2525 148.3004
ENERGY: 900000 2.1829 2.4646 4.5069 0.0000 -10652.6150 1407.4143 0.0000 0.0000 1727.6345 -7508.4118 294.2082 -9236.0463 -7487.2801 295.9099 -532.7469 -439.4057 30814.1902 -12.6835 59.2845
ENERGY: 1200000 1.1994 1.2562 2.2082 0.0000 -10710.2319 1494.6722 0.0000 0.0000 1805.9415 -7404.9544 307.5435 -9210.8959 -7487.7765 297.6636 132.5495 248.6169 30757.4312 -17.1839 64.9773
ENERGY: 1500000 2.9761 3.6539 4.8669 0.0000 -10666.5604 1460.1921 0.0000 0.0000 1720.4041 -7474.4673 292.9769 -9194.8715 -7482.9770 298.2878 -50.4413 3.3207 30383.6941 -57.1999 18.3690
TCL: Exiting due to exit command.
