Info: SIMULATION PARAMETERS:
Info: TIMESTEP               2
Info: NUMBER OF STEPS        0
Info: STEPS PER CYCLE        10
Info: PERIODIC CELL BASIS 1  30.6655 0 0
Info: PERIODIC CELL BASIS 2  0 30.0694 0
Info: PERIODIC CELL BASIS 3  0 0 33.5737
Info: PERIODIC CELL CENTER   0 0 0
Info: WRAPPING WATERS AROUND PERIODIC BOUNDARIES ON OUTPUT.
Info: WRAPPING ALL CLUSTERS AROUND PERIODIC BOUNDARIES ON OUTPUT.
Info: FIRST LDB TIMESTEP     50
Info: LAST LDB TIMESTEP     -1
Info: HOM BACKGROUND SCALING 1
Info: PME BACKGROUND SCALING 1
Info: MIN ATOMS PER PATCH    40
Info: EMPTY PATCH LOAD       40 ATOMS
Info: VELOCITY FILE          mobley_5445548_equil.vel
Info: CENTER OF MASS MOVING INITIALLY? NO
Info: DIELECTRIC             1
Info: EXCLUDE                SCALED ONE-FOUR
Info: 1-4 ELECTROSTATICS SCALED BY 0.833333
Info: MODIFIED 1-4 VDW PARAMETERS WILL BE USED
Info: DCD FILENAME           mobley_5445548_prod.dcd
Info: DCD FREQUENCY          100000
Info: DCD FIRST STEP         100000
Info: DCD FILE WILL CONTAIN UNIT CELL DATA
Info: XST FILENAME           mobley_5445548_prod.xst
Info: XST FREQUENCY          100000
Info: NO VELOCITY DCD OUTPUT
Info: NO FORCE DCD OUTPUT
Info: OUTPUT FILENAME        mobley_5445548_prod
Info: BINARY OUTPUT FILES WILL BE USED
Info: RESTART FILENAME       mobley_5445548_prod.restart
Info: RESTART FREQUENCY      100000
Info: BINARY RESTART FILES WILL BE USED
Info: CUTOFF                 9
Info: PAIRLIST DISTANCE      11
Info: PAIRLIST SHRINK RATE   0.01
Info: PAIRLIST GROW RATE     0.01
Info: PAIRLIST TRIGGER       0.3
Info: PAIRLISTS PER CYCLE    2
Info: PAIRLISTS ENABLED
Info: MARGIN                 2
Info: HYDROGEN GROUP CUTOFF  2.5
Info: PATCH DIMENSION        15.5
Info: ENERGY OUTPUT STEPS    100000
Info: ENERGY EVALUATION STEPS    100000
Info: OUTPUT ENERGY PRECISION 4
Info: CROSSTERM ENERGY INCLUDED IN DIHEDRAL
Info: TIMING OUTPUT STEPS    1000000
Info: PRESSURE OUTPUT STEPS  100000
Info: ALCHEMICAL FEP ON
Info: FEP CURRENT LAMBDA VALUE     1
Info: FEP COMPARISON LAMBDA VALUE  0.95
Info: FEP INTRA-ALCHEMICAL NON-BONDED INTERACTIONS WILL BE RETAINED
Info: FEP INTRA-ALCHEMICAL BONDED INTERACTIONS WILL BE RETAINED
Info: FEP VDW SHIFTING COEFFICIENT 5
Info: FEP ELEC. ACTIVE FOR ANNIHILATED PARTICLES BETWEEN LAMBDA = 0 AND LAMBDA = 0.5
Info: FEP ELEC. ACTIVE FOR EXNIHILATED PARTICLES BETWEEN LAMBDA = 0.5 AND LAMBDA = 1
Info: FEP VDW ACTIVE FOR ANNIHILATED PARTICLES BETWEEN LAMBDA = 0 AND LAMBDA = 1
Info: FEP VDW ACTIVE FOR EXNIHILATED PARTICLES BETWEEN LAMBDA = 0 AND LAMBDA = 1
Info: FEP BOND ACTIVE FOR ANNIHILATED PARTICLES BETWEEN LAMBDA = 1 AND LAMBDA = 1
Info: FEP BOND ACTIVE FOR EXNIHILATED PARTICLES BETWEEN LAMBDA = 0 AND LAMBDA = 0
Info: LANGEVIN DYNAMICS ACTIVE
Info: LANGEVIN TEMPERATURE   300
Info: LANGEVIN USING BBK INTEGRATOR
Info: LANGEVIN DAMPING COEFFICIENT IS 1 INVERSE PS
Info: LANGEVIN DYNAMICS APPLIED TO HYDROGENS
Info: LANGEVIN PISTON PRESSURE CONTROL ACTIVE
Info:        TARGET PRESSURE IS 1.01325 BAR
Info:     OSCILLATION PERIOD IS 50 FS
Info:             DECAY TIME IS 25 FS
Info:     PISTON TEMPERATURE IS 300 K
Info:       PRESSURE CONTROL IS GROUP-BASED
Info:    INITIAL STRAIN RATE IS 0.000166587 0.000166587 0.000166587
Info:       CELL FLUCTUATION IS ISOTROPIC
Info: PARTICLE MESH EWALD (PME) ACTIVE
Info: PME TOLERANCE               1e-06
Info: PME EWALD COEFFICIENT       0.348832
Info: PME INTERPOLATION ORDER     4
Info: PME GRID DIMENSIONS         32 32 36
Info: PME MAXIMUM GRID SPACING    1
Info: PME CALCULATION WILL BE PERFORMED ON GPU
Info: FULL ELECTROSTATIC EVALUATION FREQUENCY      2
Info: USING VERLET I (r-RESPA) MTS SCHEME.
Info: C1 SPLITTING OF LONG RANGE ELECTROSTATICS
Info: PLACING ATOMS IN PATCHES BY HYDROGEN GROUPS
Info: RIGID BONDS TO HYDROGEN : ALL
Info:         ERROR TOLERANCE : 1e-08
Info:          MAX ITERATIONS : 100
Info: RIGID WATER USING SETTLE ALGORITHM
Info: RANDOM NUMBER SEED     1743787309
Info: USE HYDROGEN BONDS?    NO
Info: Using AMBER format force field!
Info: AMBER PARM FILE        mobley_5445548.prmtop
Info: COORDINATE PDB         mobley_5445548.pdb
Info: Exclusions will be read from PARM file!
Info: SCNB (VDW SCALING)     2
Info: USING ARITHMETIC MEAN TO COMBINE L-J SIGMA PARAMETERS
Info: BINARY COORDINATES     mobley_5445548_equil.coor
Info: SUMMARY OF PARAMETERS:
Info: 7 BONDS
Info: 8 ANGLES
Info:   8 HARMONIC
Info:   0 COSINE-BASED
Info: 6 DIHEDRAL
Info: 0 IMPROPER
Info: 0 CROSSTERM
Info: 0 VDW
Info: 21 VDW_PAIRS
Info: 0 NBTHOLE_PAIRS
Info: To read alchdata from file: mobley_5445548.pdb
Info: To read alchflag data from column: 5
Info: STRUCTURE SUMMARY:
Info: 2967 ATOMS
Info: 2967 BONDS
Info: 36 ANGLES
Info: 54 DIHEDRALS
Info: 0 IMPROPERS
Info: 0 CROSSTERMS
Info: 3048 EXCLUSIONS
Info: 2958 RIGID BONDS
Info: ALCH: 0 ATOMS TO DISAPPEAR IN FINAL STATE
Info: ALCH: 21 ATOMS TO APPEAR IN FINAL STATE
Info: 5943 DEGREES OF FREEDOM
Info: 991 HYDROGEN GROUPS
Info: 4 ATOMS IN LARGEST HYDROGEN GROUP
Info: 991 MIGRATION GROUPS
Info: 4 ATOMS IN LARGEST MIGRATION GROUP
Info: TOTAL MASS = 17811.9 amu
Info: TOTAL CHARGE = -0.000100028 e
Info: MASS DENSITY = 0.955423 g/cm^3
Info: ATOM DENSITY = 0.0958393 atoms/A^3
Info: ADDED 0 IMPLICIT EXCLUSIONS
Info: NONBONDED TABLE R-SQUARED SPACING: 0.0625
Info: NONBONDED TABLE SIZE: 705 POINTS
Info: REMOVING COM VELOCITY -0.0240099 0.157796 0.0172236
Info: Use 3D box decompostion in PME FFT.
Info: Updated CUDA force table with 4096 elements.
Info: Updated CUDA LJ table with 6 x 6 elements.
Info: Found 20 unique exclusion lists needing 60 bytes
TCL: Running for 1500000 steps
ETITLE: TS BOND ANGLE DIHED IMPRP ELECT VDW BOUNDARY MISC KINETIC TOTAL TEMP POTENTIAL TOTALAVG TEMPAVG PRESSURE GPRESSURE VOLUME PRESSAVG GPRESSAVG
ENERGY: 0 1.7758 6.3664 4.0963 0.0000 -10769.1128 1484.1922 0.0000 0.0000 1783.2099 -7489.4722 301.9862 -9272.6821 -7489.4722 301.9862 113.5501 196.6120 30958.0721 113.5501 196.6120
ENERGY: 300000 3.0672 5.1000 2.6218 0.0000 -10728.3096 1415.7450 0.0000 0.0000 1751.1806 -7550.5950 296.5621 -9301.7756 -7484.7071 298.4888 -362.4796 -431.0560 30807.9878 76.2028 116.8409
ENERGY: 600000 1.4449 5.6892 4.5987 0.0000 -10679.8517 1413.1141 0.0000 0.0000 1720.8479 -7534.1569 291.4252 -9255.0048 -7477.5143 298.4831 -250.7080 -206.1640 30654.1398 -115.3667 -68.0606
ENERGY: 900000 2.8012 5.1798 3.1855 0.0000 -10779.6660 1416.9981 0.0000 0.0000 1748.8299 -7602.6713 296.1640 -9351.5013 -7479.0914 299.6173 -114.8822 -143.8297 30220.2946 -122.8941 -78.8087
ENERGY: 1200000 3.3594 5.2414 4.8556 0.0000 -10727.7433 1448.4388 0.0000 0.0000 1706.3167 -7559.5314 288.9644 -9265.8481 -7480.0608 299.4900 -212.7254 -143.0759 30833.6339 -62.3432 -13.7490
ENERGY: 1500000 1.4310 8.5006 3.8387 0.0000 -10847.3730 1513.8261 0.0000 0.0000 1753.1819 -7566.5947 296.9010 -9319.7766 -7482.4202 299.5858 361.2600 453.0114 30531.9950 -91.3157 -38.8340
TCL: Running FEP window   2: Lambda1 0.95   Lambda2 0.8999999999999999 [dLambda -0.050000000000000044]
TCL: Setting parameter firsttimestep to 0
TCL: Setting parameter alchLambda to 0.95
Info: NONBONDED TABLE R-SQUARED SPACING: 0.0625
Info: NONBONDED TABLE SIZE: 705 POINTS
TCL: Setting parameter alchLambda2 to 0.8999999999999999
Info: NONBONDED TABLE R-SQUARED SPACING: 0.0625
Info: NONBONDED TABLE SIZE: 705 POINTS
TCL: Running for 1500000 steps
ETITLE: TS BOND ANGLE DIHED IMPRP ELECT VDW BOUNDARY MISC KINETIC TOTAL TEMP POTENTIAL TOTALAVG TEMPAVG PRESSURE GPRESSURE VOLUME PRESSAVG GPRESSAVG
ENERGY: 0 1.4310 8.5006 3.8387 0.0000 -10846.3942 1512.7786 0.0000 0.0000 1752.2897 -7567.5557 296.7499 -9319.8453 -7567.5557 296.7499 333.5454 420.2714 30531.9950 333.5454 420.2714
ENERGY: 300000 3.3013 7.2627 1.8461 0.0000 -10781.4201 1464.8186 0.0000 0.0000 1747.4819 -7556.7096 295.9357 -9304.1914 -7513.4971 302.6580 -16.2979 79.8864 30530.1497 7.2164 105.5785
ENERGY: 600000 5.5102 8.2841 3.6346 0.0000 -10751.9701 1435.8710 0.0000 0.0000 1792.9590 -7505.7112 303.6372 -9298.6702 -7534.1914 300.5163 -74.5416 5.2770 30411.8481 -228.7445 -147.8908
ENERGY: 900000 3.1281 7.0098 4.6603 0.0000 -10825.2234 1458.8396 0.0000 0.0000 1696.0939 -7655.4916 287.2331 -9351.5856 -7548.3632 298.1195 79.1752 118.5174 30066.0330 -189.7378 -121.3489
ENERGY: 1200000 1.2823 10.4389 3.3483 0.0000 -10758.5303 1447.7988 0.0000 0.0000 1768.8821 -7526.7799 299.5598 -9295.6620 -7536.8364 297.6603 -195.6178 -163.5227 30941.1331 -178.3808 -115.9922
ENERGY: 1500000 4.9029 6.5550 3.9906 0.0000 -10619.3895 1389.6454 0.0000 0.0000 1772.1540 -7442.1415 300.1139 -9214.2955 -7532.7212 297.1763 -190.0173 -163.9369 30649.0793 -158.3330 -99.8777
TCL: Running FEP window   3: Lambda1 0.8999999999999999 Lambda2 0.8499999999999999 [dLambda -0.050000000000000044]
TCL: Setting parameter firsttimestep to 0
TCL: Setting parameter alchLambda to 0.8999999999999999
Info: NONBONDED TABLE R-SQUARED SPACING: 0.0625
Info: NONBONDED TABLE SIZE: 705 POINTS
TCL: Setting parameter alchLambda2 to 0.8499999999999999
Info: NONBONDED TABLE R-SQUARED SPACING: 0.0625
Info: NONBONDED TABLE SIZE: 705 POINTS
TCL: Running for 1500000 steps
ETITLE: TS BOND ANGLE DIHED IMPRP ELECT VDW BOUNDARY MISC KINETIC TOTAL TEMP POTENTIAL TOTALAVG TEMPAVG PRESSURE GPRESSURE VOLUME PRESSAVG GPRESSAVG
ENERGY: 0 4.9029 6.5550 3.9906 0.0000 -10618.8130 1389.7535 0.0000 0.0000 1771.2715 -7442.3394 299.9645 -9213.6109 -7442.3394 299.9645 -259.4797 -176.7015 30649.0793 -259.4797 -176.7015
ENERGY: 300000 2.8819 7.7996 4.3136 0.0000 -10749.3496 1490.0328 0.0000 0.0000 1812.2839 -7432.0378 306.9099 -9244.3217 -7506.6599 299.0803 295.4810 358.9829 30961.3702 -138.8514 -71.8156
ENERGY: 600000 6.3611 7.8761 1.5729 0.0000 -10719.4759 1398.8683 0.0000 0.0000 1753.8437 -7550.9539 297.0131 -9304.7976 -7510.2266 298.4597 -425.3926 -427.0755 30205.3738 -315.8589 -264.5867
ENERGY: 900000 2.6901 12.3084 7.3496 0.0000 -10829.9507 1501.8026 0.0000 0.0000 1806.9692 -7498.8308 306.0099 -9305.8000 -7492.7123 299.7346 379.3110 507.1043 30410.7350 -210.3599 -153.2532
ENERGY: 1200000 2.5497 3.9308 3.5482 0.0000 -10706.6542 1402.0468 0.0000 0.0000 1785.5596 -7509.0192 302.3841 -9294.5788 -7495.8932 299.4791 -374.9413 -341.7796 30664.9475 -105.0258 -48.7791
ENERGY: 1500000 3.2425 5.6922 1.7515 0.0000 -10691.1469 1430.5050 0.0000 0.0000 1807.1081 -7442.8477 306.0334 -9249.9558 -7486.2512 300.3606 -97.1714 10.7607 30750.6096 -96.3657 -35.1001
TCL: Running FEP window   4: Lambda1 0.8499999999999999 Lambda2 0.7999999999999998 [dLambda -0.050000000000000044]
TCL: Setting parameter firsttimestep to 0
TCL: Setting parameter alchLambda to 0.8499999999999999
Info: NONBONDED TABLE R-SQUARED SPACING: 0.0625
Info: NONBONDED TABLE SIZE: 705 POINTS
TCL: Setting parameter alchLambda2 to 0.7999999999999998
Info: NONBONDED TABLE R-SQUARED SPACING: 0.0625
Info: NONBONDED TABLE SIZE: 705 POINTS
TCL: Running for 1500000 steps
ETITLE: TS BOND ANGLE DIHED IMPRP ELECT VDW BOUNDARY MISC KINETIC TOTAL TEMP POTENTIAL TOTALAVG TEMPAVG PRESSURE GPRESSURE VOLUME PRESSAVG GPRESSAVG
ENERGY: 0 3.2425 5.6922 1.7515 0.0000 -10690.4963 1430.1571 0.0000 0.0000 1806.2465 -7443.4066 305.8875 -9249.6531 -7443.4066 305.8875 -92.0656 -6.9080 30750.6096 -92.0656 -6.9080
ENERGY: 300000 0.7872 9.1108 5.2478 0.0000 -10773.5202 1469.5048 0.0000 0.0000 1695.6082 -7593.2615 287.1509 -9288.8697 -7506.7103 298.1566 437.1539 466.2511 30044.5860 242.7780 311.2641
ENERGY: 600000 1.9132 6.5393 2.4956 0.0000 -10729.9501 1414.4091 0.0000 0.0000 1779.5073 -7525.0857 301.3592 -9304.5929 -7500.0233 299.8921 -222.0542 -124.3808 30391.5046 79.5194 150.8058
ENERGY: 900000 3.3842 7.0921 4.1248 0.0000 -10835.0544 1443.3033 0.0000 0.0000 1773.8744 -7603.2756 300.4053 -9377.1500 -7515.7282 298.4763 -215.6366 -151.2937 30528.5867 97.9833 167.3639
ENERGY: 1200000 1.9605 8.2611 3.7229 0.0000 -10866.1833 1480.6096 0.0000 0.0000 1774.1969 -7597.4323 300.4599 -9371.6291 -7517.5785 299.1752 264.2723 306.9906 30059.6431 86.6749 151.1269
ENERGY: 1500000 2.1397 8.4058 2.4480 0.0000 -10648.4032 1424.6216 0.0000 0.0000 1779.7208 -7431.0673 301.3953 -9210.7881 -7510.0614 299.2295 174.9052 202.5840 30404.6176 102.4714 167.4176
TCL: Running FEP window   5: Lambda1 0.7999999999999998 Lambda2 0.7499999999999998 [dLambda -0.050000000000000044]
TCL: Setting parameter firsttimestep to 0
TCL: Setting parameter alchLambda to 0.7999999999999998
Info: NONBONDED TABLE R-SQUARED SPACING: 0.0625
Info: NONBONDED TABLE SIZE: 705 POINTS
TCL: Setting parameter alchLambda2 to 0.7499999999999998
Info: NONBONDED TABLE R-SQUARED SPACING: 0.0625
Info: NONBONDED TABLE SIZE: 705 POINTS
TCL: Running for 1500000 steps
ETITLE: TS BOND ANGLE DIHED IMPRP ELECT VDW BOUNDARY MISC KINETIC TOTAL TEMP POTENTIAL TOTALAVG TEMPAVG PRESSURE GPRESSURE VOLUME PRESSAVG GPRESSAVG
ENERGY: 0 2.1397 8.4058 2.4480 0.0000 -10647.8618 1424.8513 0.0000 0.0000 1778.8429 -7431.1741 301.2467 -9210.0170 -7431.1741 301.2467 115.5812 196.7291 30404.6176 115.5812 196.7291
ENERGY: 300000 2.2231 9.0550 3.4791 0.0000 -10731.6707 1523.0574 0.0000 0.0000 1753.9446 -7439.9115 297.0301 -9193.8561 -7485.7577 298.3975 474.5414 532.8346 30875.4639 487.3283 520.1438
ENERGY: 600000 0.9312 6.2129 3.4683 0.0000 -10528.3088 1320.5757 0.0000 0.0000 1769.3043 -7427.8164 299.6313 -9197.1207 -7460.6124 301.1254 -926.4682 -821.2179 30901.6289 116.6780 163.8291
ENERGY: 900000 3.0523 10.3565 2.6443 0.0000 -10742.6144 1409.8789 0.0000 0.0000 1767.1359 -7549.5466 299.2641 -9316.6825 -7482.7133 300.2055 -830.9156 -667.4462 31220.7545 38.5319 96.6409
ENERGY: 1200000 3.8780 13.2822 4.2031 0.0000 -10699.5896 1400.4822 0.0000 0.0000 1756.4494 -7521.2948 297.4543 -9277.7442 -7477.6274 300.6170 -640.9358 -585.8166 30651.8902 -2.0764 50.6342
ENERGY: 1500000 6.8860 7.2150 1.2746 0.0000 -10717.9744 1480.7711 0.0000 0.0000 1776.0634 -7445.7642 300.7760 -9221.8276 -7484.0982 300.0399 538.6357 582.4141 30299.7540 -32.0745 29.9675
TCL: Running FEP window   6: Lambda1 0.7499999999999998 Lambda2 0.6999999999999997 [dLambda -0.050000000000000044]
TCL: Setting parameter firsttimestep to 0
TCL: Setting parameter alchLambda to 0.7499999999999998
Info: NONBONDED TABLE R-SQUARED SPACING: 0.0625
Info: NONBONDED TABLE SIZE: 705 POINTS
TCL: Setting parameter alchLambda2 to 0.6999999999999997
Info: NONBONDED TABLE R-SQUARED SPACING: 0.0625
Info: NONBONDED TABLE SIZE: 705 POINTS
TCL: Running for 1500000 steps
ETITLE: TS BOND ANGLE DIHED IMPRP ELECT VDW BOUNDARY MISC KINETIC TOTAL TEMP POTENTIAL TOTALAVG TEMPAVG PRESSURE GPRESSURE VOLUME PRESSAVG GPRESSAVG
ENERGY: 0 6.8860 7.2150 1.2746 0.0000 -10717.3630 1480.6378 0.0000 0.0000 1775.1865 -7446.1631 300.6274 -9221.3496 -7446.1631 300.6274 487.6018 571.4384 30299.7540 487.6018 571.4384
ENERGY: 300000 4.3158 5.6536 2.4649 0.0000 -10781.9411 1457.9520 0.0000 0.0000 1794.9549 -7516.5998 303.9752 -9311.5548 -7491.8270 301.4544 133.7427 158.6359 30190.6181 97.7902 162.6699
ENERGY: 600000 5.1500 7.2974 4.3421 0.0000 -10737.3740 1457.2705 0.0000 0.0000 1728.6579 -7534.6562 292.7478 -9263.3140 -7491.5515 297.4707 91.6174 176.7552 30797.7528 -92.0632 -3.7070
ENERGY: 900000 1.4310 8.7493 5.5946 0.0000 -10678.5533 1447.9759 0.0000 0.0000 1819.2777 -7395.5248 308.0943 -9214.8025 -7469.2625 300.3213 146.7733 265.4727 30751.6816 -18.3284 69.8338
ENERGY: 1200000 2.4866 10.0865 2.5898 0.0000 -10596.9958 1387.0920 0.0000 0.0000 1757.3323 -7437.4086 297.6038 -9194.7409 -7457.2975 300.6793 -432.0482 -304.8764 30750.2484 -87.2116 0.6898
ENERGY: 1500000 2.7314 6.3167 2.1783 0.0000 -10555.8654 1359.0544 0.0000 0.0000 1783.1639 -7402.4206 301.9784 -9185.5846 -7450.7475 301.5119 -891.8589 -840.5900 31243.2165 -102.4813 -22.2710
TCL: Running FEP window   7: Lambda1 0.6999999999999997 Lambda2 0.6499999999999997 [dLambda -0.050000000000000044]
TCL: Setting parameter firsttimestep to 0
TCL: Setting parameter alchLambda to 0.6999999999999997
Info: NONBONDED TABLE R-SQUARED SPACING: 0.0625
Info: NONBONDED TABLE SIZE: 705 POINTS
TCL: Setting parameter alchLambda2 to 0.6499999999999997
Info: NONBONDED TABLE R-SQUARED SPACING: 0.0625
Info: NONBONDED TABLE SIZE: 705 POINTS
TCL: Running for 1500000 steps
ETITLE: TS BOND ANGLE DIHED IMPRP ELECT VDW BOUNDARY MISC KINETIC TOTAL TEMP POTENTIAL TOTALAVG TEMPAVG PRESSURE GPRESSURE VOLUME PRESSAVG GPRESSAVG
ENERGY: 0 2.7314 6.3167 2.1783 0.0000 -10555.1717 1358.5820 0.0000 0.0000 1782.2704 -7403.0928 301.8271 -9185.3632 -7403.0928 301.8271 -946.0794 -853.8102 31243.2165 -946.0794 -853.8102
ENERGY: 300000 1.2434 7.7791 5.2735 0.0000 -10862.8666 1566.8521 0.0000 0.0000 1725.5797 -7556.1387 292.2266 -9281.7185 -7498.0558 297.0879 700.1031 716.3142 30824.1173 -255.4417 -198.8177
ENERGY: 600000 2.7026 6.2771 1.6088 0.0000 -10618.3892 1440.3645 0.0000 0.0000 1779.8851 -7387.5510 301.4232 -9167.4361 -7480.9880 298.1235 283.0114 353.5185 30515.2070 -236.9049 -181.9651
ENERGY: 900000 2.7831 7.6216 3.3798 0.0000 -10815.5434 1506.0392 0.0000 0.0000 1773.1875 -7522.5323 300.2889 -9295.7197 -7487.8930 298.9266 231.8390 299.9447 30569.0191 25.1452 77.5962
ENERGY: 1200000 2.0756 5.4584 0.9690 0.0000 -10801.3123 1527.2534 0.0000 0.0000 1776.3361 -7489.2199 300.8221 -9265.5559 -7499.7581 298.6555 615.1941 727.4979 30408.7821 57.4612 111.6355
ENERGY: 1500000 5.1532 7.8298 2.1418 0.0000 -10793.6028 1501.4330 0.0000 0.0000 1742.2759 -7534.7691 295.0540 -9277.0449 -7506.8165 298.2181 394.8315 442.3902 30567.5101 71.9402 126.1583
TCL: Running FEP window   8: Lambda1 0.6499999999999997 Lambda2 0.5999999999999996 [dLambda -0.050000000000000044]
TCL: Setting parameter firsttimestep to 0
TCL: Setting parameter alchLambda to 0.6499999999999997
Info: NONBONDED TABLE R-SQUARED SPACING: 0.0625
Info: NONBONDED TABLE SIZE: 705 POINTS
TCL: Setting parameter alchLambda2 to 0.5999999999999996
Info: NONBONDED TABLE R-SQUARED SPACING: 0.0625
Info: NONBONDED TABLE SIZE: 705 POINTS
TCL: Running for 1500000 steps
ETITLE: TS BOND ANGLE DIHED IMPRP ELECT VDW BOUNDARY MISC KINETIC TOTAL TEMP POTENTIAL TOTALAVG TEMPAVG PRESSURE GPRESSURE VOLUME PRESSAVG GPRESSAVG
ENERGY: 0 5.1532 7.8298 2.1418 0.0000 -10793.3284 1501.9562 0.0000 0.0000 1741.3408 -7534.9065 294.8957 -9276.2473 -7534.9065 294.8957 347.8120 437.6994 30567.5101 347.8120 437.6994
ENERGY: 300000 3.2680 8.2992 5.7820 0.0000 -10800.4187 1530.0539 0.0000 0.0000 1762.5103 -7490.5054 298.4807 -9253.0157 -7509.7822 298.8872 487.0493 575.9318 30684.0967 331.6392 406.9060
ENERGY: 600000 6.5474 4.1063 3.3215 0.0000 -10733.5676 1386.9430 0.0000 0.0000 1813.4663 -7519.1832 307.1101 -9332.6494 -7525.8208 299.2553 -525.0215 -478.3825 30141.7996 107.5100 169.5642
ENERGY: 900000 1.0491 7.5234 3.4863 0.0000 -10810.7713 1480.3039 0.0000 0.0000 1794.8435 -7523.5651 303.9564 -9318.4086 -7520.9527 300.4043 -205.2155 -124.8010 31133.1621 5.5027 66.6054
ENERGY: 1200000 2.4122 8.2758 5.1328 0.0000 -10698.3847 1439.0957 0.0000 0.0000 1800.6019 -7442.8663 304.9315 -9243.4682 -7509.6970 300.6956 16.8310 103.2876 30775.1797 19.4766 81.0955
ENERGY: 1500000 3.4524 5.8203 3.5365 0.0000 -10678.8372 1441.5825 0.0000 0.0000 1792.1663 -7432.2791 303.5030 -9224.4455 -7498.0385 300.5387 398.8067 376.9059 30336.0837 -43.1086 12.1782
TCL: Running FEP window   9: Lambda1 0.5999999999999996 Lambda2 0.5499999999999996 [dLambda -0.050000000000000044]
TCL: Setting parameter firsttimestep to 0
TCL: Setting parameter alchLambda to 0.5999999999999996
Info: NONBONDED TABLE R-SQUARED SPACING: 0.0625
Info: NONBONDED TABLE SIZE: 705 POINTS
TCL: Setting parameter alchLambda2 to 0.5499999999999996
Info: NONBONDED TABLE R-SQUARED SPACING: 0.0625
Info: NONBONDED TABLE SIZE: 705 POINTS
TCL: Running for 1500000 steps
ETITLE: TS BOND ANGLE DIHED IMPRP ELECT VDW BOUNDARY MISC KINETIC TOTAL TEMP POTENTIAL TOTALAVG TEMPAVG PRESSURE GPRESSURE VOLUME PRESSAVG GPRESSAVG
ENERGY: 0 3.4524 5.8203 3.5365 0.0000 -10678.1083 1441.9574 0.0000 0.0000 1791.2378 -7432.1039 303.3457 -9223.3417 -7432.1039 303.3457 290.8964 375.1853 30336.0837 290.8964 375.1853
ENERGY: 300000 1.7210 3.8028 2.9831 0.0000 -10749.3591 1458.3730 0.0000 0.0000 1737.3856 -7545.0937 294.2259 -9282.4793 -7462.3796 300.3823 -144.0884 -27.7516 30686.7681 65.2975 169.3334
ENERGY: 600000 5.0201 8.1570 6.2714 0.0000 -10784.7978 1513.4813 0.0000 0.0000 1772.4323 -7479.4357 300.1610 -9251.8681 -7490.1092 299.6380 629.3802 652.7540 30247.8404 98.9991 192.1749
ENERGY: 900000 1.8264 8.0529 3.3583 0.0000 -10690.5063 1379.1670 0.0000 0.0000 1783.9929 -7514.1088 302.1188 -9298.1016 -7484.5354 300.5836 -754.5288 -578.4674 30556.8126 -112.2655 -14.5932
ENERGY: 1200000 3.6135 10.7351 1.5088 0.0000 -10787.2867 1468.0931 0.0000 0.0000 1760.3786 -7542.9576 298.1197 -9303.3362 -7495.0943 298.8603 176.7882 214.8944 30418.6286 -29.6400 57.1844
ENERGY: 1500000 2.4858 7.8618 2.6495 0.0000 -10492.7107 1353.3229 0.0000 0.0000 1761.2338 -7365.1569 298.2646 -9126.3907 -7484.4123 299.0620 -475.7839 -386.4025 30925.2364 -83.0701 -4.4177
TCL: Running FEP window  10: Lambda1 0.5499999999999996 Lambda2 0.4999999999999996 [dLambda -0.04999999999999999]
TCL: Setting parameter firsttimestep to 0
TCL: Setting parameter alchLambda to 0.5499999999999996
Info: NONBONDED TABLE R-SQUARED SPACING: 0.0625
Info: NONBONDED TABLE SIZE: 705 POINTS
TCL: Setting parameter alchLambda2 to 0.4999999999999996
Info: NONBONDED TABLE R-SQUARED SPACING: 0.0625
Info: NONBONDED TABLE SIZE: 705 POINTS
TCL: Running for 1500000 steps
ETITLE: TS BOND ANGLE DIHED IMPRP ELECT VDW BOUNDARY MISC KINETIC TOTAL TEMP POTENTIAL TOTALAVG TEMPAVG PRESSURE GPRESSURE VOLUME PRESSAVG GPRESSAVG
ENERGY: 0 2.4858 7.8618 2.6495 0.0000 -10492.6206 1353.7482 0.0000 0.0000 1760.3593 -7365.5160 298.1165 -9125.8753 -7365.5160 298.1165 -465.1593 -390.4340 30925.2364 -465.1593 -390.4340
ENERGY: 300000 4.9090 9.1537 4.3138 0.0000 -10911.3607 1581.5309 0.0000 0.0000 1741.9823 -7569.4710 295.0043 -9311.4533 -7465.9723 299.5946 960.6744 1020.2893 30122.1710 186.9402 242.4506
ENERGY: 600000 2.9043 6.9409 3.8361 0.0000 -10727.0122 1456.2441 0.0000 0.0000 1763.2345 -7493.8523 298.6034 -9257.0867 -7482.9636 297.5297 138.2270 166.6752 30528.6467 104.1543 160.1517
ENERGY: 900000 4.0424 9.7251 4.3089 0.0000 -10808.9998 1483.8314 0.0000 0.0000 1752.5762 -7554.5158 296.7984 -9307.0921 -7479.4935 298.9874 35.0120 82.6579 30727.7858 122.2714 185.6410
ENERGY: 1200000 1.9550 7.3618 4.2074 0.0000 -10674.1069 1396.4635 0.0000 0.0000 1747.1488 -7516.9704 295.8793 -9264.1192 -7483.1883 298.7032 -383.7045 -329.2139 30463.3192 145.9972 211.2237
ENERGY: 1500000 2.1953 11.3575 2.5209 0.0000 -10671.1679 1413.0754 0.0000 0.0000 1805.6462 -7436.3725 305.7858 -9242.0187 -7484.8488 298.8260 -127.5042 -92.6420 30888.9104 75.0365 133.2433
TCL: Running FEP window  11: Lambda1 0.4999999999999996 Lambda2 0.4499999999999996 [dLambda -0.04999999999999999]
TCL: Setting parameter firsttimestep to 0
TCL: Setting parameter alchLambda to 0.4999999999999996
Info: NONBONDED TABLE R-SQUARED SPACING: 0.0625
Info: NONBONDED TABLE SIZE: 705 POINTS
TCL: Setting parameter alchLambda2 to 0.4499999999999996
Info: NONBONDED TABLE R-SQUARED SPACING: 0.0625
Info: NONBONDED TABLE SIZE: 705 POINTS
TCL: Running for 1500000 steps
ETITLE: TS BOND ANGLE DIHED IMPRP ELECT VDW BOUNDARY MISC KINETIC TOTAL TEMP POTENTIAL TOTALAVG TEMPAVG PRESSURE GPRESSURE VOLUME PRESSAVG GPRESSAVG
ENERGY: 0 2.1953 11.3575 2.5209 0.0000 -10670.7519 1413.5615 0.0000 0.0000 1804.7569 -7436.3597 305.6352 -9241.1166 -7436.3597 305.6352 -175.5850 -96.7525 30888.9104 -175.5850 -96.7525
ENERGY: 300000 3.3488 7.4705 4.2861 0.0000 -10753.9648 1448.7142 0.0000 0.0000 1808.1446 -7482.0006 306.2089 -9290.1452 -7488.6159 303.3146 315.0092 333.2337 30227.8488 18.0373 54.5267
ENERGY: 600000 1.6114 8.2608 3.5782 0.0000 -10768.7771 1418.0417 0.0000 0.0000 1766.5746 -7570.7104 299.1690 -9337.2850 -7510.3561 301.1468 -393.4972 -256.3363 30422.7939 -206.3341 -151.4676
ENERGY: 900000 3.8877 6.8762 2.2482 0.0000 -10668.0835 1430.9781 0.0000 0.0000 1799.4766 -7424.6168 304.7410 -9224.0934 -7506.0999 300.0705 46.9427 77.6028 30554.4946 -232.0469 -179.9023
ENERGY: 1200000 2.0032 9.1444 2.5751 0.0000 -10810.5254 1488.2824 0.0000 0.0000 1761.9601 -7546.5603 298.3876 -9308.5204 -7498.2435 300.5140 279.1695 371.7903 30607.5011 -175.2764 -117.1176
ENERGY: 1500000 2.6062 6.4546 4.4224 0.0000 -10745.2956 1466.6349 0.0000 0.0000 1783.3228 -7481.8547 302.0053 -9265.1776 -7496.2141 300.4670 175.2817 225.4999 30217.0268 -143.7585 -85.1037
TCL: Running FEP window  12: Lambda1 0.4499999999999996 Lambda2 0.39999999999999963 [dLambda -0.04999999999999999]
TCL: Setting parameter firsttimestep to 0
TCL: Setting parameter alchLambda to 0.4499999999999996
Info: NONBONDED TABLE R-SQUARED SPACING: 0.0625
Info: NONBONDED TABLE SIZE: 705 POINTS
TCL: Setting parameter alchLambda2 to 0.39999999999999963
Info: NONBONDED TABLE R-SQUARED SPACING: 0.0625
Info: NONBONDED TABLE SIZE: 705 POINTS
TCL: Running for 1500000 steps
ETITLE: TS BOND ANGLE DIHED IMPRP ELECT VDW BOUNDARY MISC KINETIC TOTAL TEMP POTENTIAL TOTALAVG TEMPAVG PRESSURE GPRESSURE VOLUME PRESSAVG GPRESSAVG
ENERGY: 0 2.6062 6.4546 4.4224 0.0000 -10745.2943 1466.3320 0.0000 0.0000 1782.4397 -7483.0395 301.8558 -9265.4791 -7483.0395 301.8558 112.9509 216.6382 30217.0268 112.9509 216.6382
ENERGY: 300000 1.4547 9.4272 4.6271 0.0000 -10628.8391 1433.4726 0.0000 0.0000 1709.2095 -7470.6480 289.4543 -9179.8575 -7485.8961 297.9382 217.5858 261.6217 30582.2373 288.4919 372.4348
ENERGY: 600000 0.9467 9.9511 3.5688 0.0000 -10561.2211 1389.3596 0.0000 0.0000 1707.4182 -7449.9768 289.1509 -9157.3949 -7488.7522 296.7706 -430.4185 -367.3781 30938.6783 55.7054 135.3875
ENERGY: 900000 2.4408 8.9183 2.8196 0.0000 -10840.6483 1484.2419 0.0000 0.0000 1721.7604 -7620.4672 291.5798 -9342.2276 -7497.4947 297.4361 69.4141 141.2833 30274.5870 32.1054 109.3245
ENERGY: 1200000 4.3109 7.3497 2.4692 0.0000 -10661.8478 1369.1118 0.0000 0.0000 1801.0078 -7477.5984 305.0003 -9278.6062 -7494.7416 298.6439 -872.2282 -809.3692 30680.4063 -64.6993 8.5666
ENERGY: 1500000 2.9169 6.1642 1.7763 0.0000 -10581.2684 1401.2068 0.0000 0.0000 1799.6328 -7369.5714 304.7674 -9169.2042 -7482.9156 300.2129 -20.9588 60.8600 30372.7389 -6.3843 61.4840
TCL: Running FEP window  13: Lambda1 0.39999999999999963 Lambda2 0.34999999999999964 [dLambda -0.04999999999999999]
TCL: Setting parameter firsttimestep to 0
TCL: Setting parameter alchLambda to 0.39999999999999963
Info: NONBONDED TABLE R-SQUARED SPACING: 0.0625
Info: NONBONDED TABLE SIZE: 705 POINTS
TCL: Setting parameter alchLambda2 to 0.34999999999999964
Info: NONBONDED TABLE R-SQUARED SPACING: 0.0625
Info: NONBONDED TABLE SIZE: 705 POINTS
TCL: Running for 1500000 steps
ETITLE: TS BOND ANGLE DIHED IMPRP ELECT VDW BOUNDARY MISC KINETIC TOTAL TEMP POTENTIAL TOTALAVG TEMPAVG PRESSURE GPRESSURE VOLUME PRESSAVG GPRESSAVG
ENERGY: 0 2.9169 6.1642 1.7763 0.0000 -10581.2677 1401.1283 0.0000 0.0000 1798.7207 -7370.5612 304.6130 -9169.2820 -7370.5612 304.6130 -21.6728 52.6342 30372.7389 -21.6728 52.6342
ENERGY: 300000 6.0744 5.6120 2.2169 0.0000 -10675.0222 1395.1083 0.0000 0.0000 1794.7517 -7471.2589 303.9408 -9266.0106 -7444.7063 302.5626 -448.9920 -338.3551 30431.5706 -471.6580 -401.6687
ENERGY: 600000 2.9067 7.0291 4.1075 0.0000 -10809.3554 1456.6475 0.0000 0.0000 1782.4527 -7556.2118 301.8580 -9338.6645 -7479.0508 301.7892 -31.5846 19.6596 30161.7027 -213.5336 -151.4052
ENERGY: 900000 1.6464 6.4048 4.0843 0.0000 -10615.0181 1392.8730 0.0000 0.0000 1781.3591 -7428.6505 301.6728 -9210.0096 -7490.5266 301.3094 -157.5726 -125.0577 30437.4418 -149.9308 -86.3861
ENERGY: 1200000 2.7625 8.6925 3.7383 0.0000 -10820.6838 1455.4928 0.0000 0.0000 1756.8597 -7593.1381 297.5238 -9349.9978 -7506.2816 300.2801 -19.1590 11.6582 30048.1702 -220.4655 -154.2990
ENERGY: 1500000 1.4753 10.0262 2.9629 0.0000 -10754.0706 1465.9590 0.0000 0.0000 1749.2882 -7524.3590 296.2416 -9273.6472 -7507.1814 299.2733 44.3771 96.6999 30461.2638 -155.6905 -92.1479
TCL: Running FEP window  14: Lambda1 0.34999999999999964 Lambda2 0.29999999999999966 [dLambda -0.04999999999999999]
TCL: Setting parameter firsttimestep to 0
TCL: Setting parameter alchLambda to 0.34999999999999964
Info: NONBONDED TABLE R-SQUARED SPACING: 0.0625
Info: NONBONDED TABLE SIZE: 705 POINTS
TCL: Setting parameter alchLambda2 to 0.29999999999999966
Info: NONBONDED TABLE R-SQUARED SPACING: 0.0625
Info: NONBONDED TABLE SIZE: 705 POINTS
TCL: Running for 1500000 steps
ETITLE: TS BOND ANGLE DIHED IMPRP ELECT VDW BOUNDARY MISC KINETIC TOTAL TEMP POTENTIAL TOTALAVG TEMPAVG PRESSURE GPRESSURE VOLUME PRESSAVG GPRESSAVG
ENERGY: 0 1.4753 10.0262 2.9629 0.0000 -10754.0684 1465.9323 0.0000 0.0000 1748.3944 -7525.2773 296.0902 -9273.6717 -7525.2773 296.0902 1.5887 89.2959 30461.2638 1.5887 89.2959
ENERGY: 300000 2.5814 6.2641 3.4343 0.0000 -10738.3292 1428.0139 0.0000 0.0000 1740.0385 -7557.9971 294.6751 -9298.0356 -7516.7704 296.1106 -360.7347 -291.2005 30627.6601 -108.7341 -31.4029
ENERGY: 600000 4.7004 5.0795 3.5335 0.0000 -10647.4471 1367.1754 0.0000 0.0000 1836.0516 -7430.9067 310.9350 -9266.9584 -7504.0313 299.7027 -664.5292 -594.0549 30727.6378 -92.1232 -20.7879
ENERGY: 900000 2.1845 5.2556 2.0691 0.0000 -10780.6145 1476.4522 0.0000 0.0000 1787.1783 -7507.4748 302.6583 -9294.6531 -7513.8461 298.9061 203.4387 291.8602 30245.5927 -9.6831 61.3501
ENERGY: 1200000 3.3430 6.5659 2.6916 0.0000 -10664.7433 1388.6865 0.0000 0.0000 1795.6761 -7467.7802 304.0974 -9263.4564 -7507.9778 299.5510 -553.7034 -501.2287 30591.7000 -52.6453 23.7906
ENERGY: 1500000 1.3158 4.3731 2.1634 0.0000 -10784.6397 1510.2199 0.0000 0.0000 1774.8161 -7491.7513 300.5647 -9266.5674 -7511.6399 299.3018 973.9223 1067.8967 29726.3996 62.1621 136.8512
TCL: Running FEP window  15: Lambda1 0.29999999999999966 Lambda2 0.24999999999999967 [dLambda -0.04999999999999999]
TCL: Setting parameter firsttimestep to 0
TCL: Setting parameter alchLambda to 0.29999999999999966
Info: NONBONDED TABLE R-SQUARED SPACING: 0.0625
Info: NONBONDED TABLE SIZE: 705 POINTS
TCL: Setting parameter alchLambda2 to 0.24999999999999967
Info: NONBONDED TABLE R-SQUARED SPACING: 0.0625
Info: NONBONDED TABLE SIZE: 705 POINTS
TCL: Running for 1500000 steps
ETITLE: TS BOND ANGLE DIHED IMPRP ELECT VDW BOUNDARY MISC KINETIC TOTAL TEMP POTENTIAL TOTALAVG TEMPAVG PRESSURE GPRESSURE VOLUME PRESSAVG GPRESSAVG
ENERGY: 0 1.3159 4.3731 2.1634 0.0000 -10784.6378 1509.1733 0.0000 0.0000 1773.9457 -7493.6665 300.4173 -9267.6121 -7493.6665 300.4173 981.7644 1053.6777 29726.3996 981.7644 1053.6777
ENERGY: 300000 3.8154 8.4420 4.6398 0.0000 -10653.4665 1352.9756 0.0000 0.0000 1786.6414 -7496.9523 302.5673 -9283.5938 -7458.8852 303.1969 -1004.1594 -925.5768 30605.9801 -129.3786 -50.4454
ENERGY: 600000 1.4480 9.3131 3.0194 0.0000 -10528.8530 1333.7687 0.0000 0.0000 1790.7679 -7390.5359 303.2662 -9181.3037 -7455.9472 301.6984 -905.8273 -837.6658 30964.9925 -264.5883 -194.3870
ENERGY: 900000 1.7662 7.2791 5.6123 0.0000 -10676.1528 1385.1858 0.0000 0.0000 1787.5548 -7488.7546 302.7220 -9276.3094 -7465.6243 302.0301 -338.0015 -289.4241 30403.7982 -156.0838 -78.1694
ENERGY: 1200000 2.6488 10.6917 4.3234 0.0000 -10801.2899 1518.3984 0.0000 0.0000 1804.8054 -7460.4221 305.6434 -9265.2275 -7470.3126 301.8867 653.8045 699.2937 30125.3342 -91.2423 -18.1734
ENERGY: 1500000 3.6624 11.0256 3.2492 0.0000 -10839.0076 1605.9620 0.0000 0.0000 1796.4683 -7418.6400 304.2315 -9215.1083 -7463.4644 302.0395 1565.7422 1593.5292 29994.6130 -8.9979 60.2268
TCL: Running FEP window  16: Lambda1 0.24999999999999967 Lambda2 0.19999999999999968 [dLambda -0.04999999999999999]
TCL: Setting parameter firsttimestep to 0
TCL: Setting parameter alchLambda to 0.24999999999999967
Info: NONBONDED TABLE R-SQUARED SPACING: 0.0625
Info: NONBONDED TABLE SIZE: 705 POINTS
TCL: Setting parameter alchLambda2 to 0.19999999999999968
Info: NONBONDED TABLE R-SQUARED SPACING: 0.0625
Info: NONBONDED TABLE SIZE: 705 POINTS
TCL: Running for 1500000 steps
ETITLE: TS BOND ANGLE DIHED IMPRP ELECT VDW BOUNDARY MISC KINETIC TOTAL TEMP POTENTIAL TOTALAVG TEMPAVG PRESSURE GPRESSURE VOLUME PRESSAVG GPRESSAVG
ENERGY: 0 3.6624 11.0256 3.2492 0.0000 -10839.0080 1606.2360 0.0000 0.0000 1795.5471 -7419.2876 304.0755 -9214.8347 -7419.2876 304.0755 1498.8406 1591.5939 29994.6130 1498.8406 1591.5939
ENERGY: 300000 3.9784 11.7376 1.3566 0.0000 -10618.5545 1451.3088 0.0000 0.0000 1801.4708 -7348.7024 305.0787 -9150.1732 -7420.2165 300.8172 335.2268 352.8703 30695.8643 279.0443 364.4310
ENERGY: 600000 4.4624 5.9613 3.4156 0.0000 -10701.4516 1445.2974 0.0000 0.0000 1746.7234 -7495.5915 295.8072 -9242.3149 -7471.8514 298.8246 105.9564 109.1032 30197.4118 190.0105 252.7109
ENERGY: 900000 3.5624 7.5224 0.5772 0.0000 -10797.8423 1543.5233 0.0000 0.0000 1743.9836 -7498.6734 295.3432 -9242.6570 -7484.0613 298.4787 445.4330 494.3331 30707.5874 94.1554 148.5924
ENERGY: 1200000 3.7896 5.9400 3.8516 0.0000 -10759.0631 1501.5150 0.0000 0.0000 1783.8617 -7460.1053 302.0966 -9243.9670 -7466.4407 300.2086 175.6588 248.1506 30516.8379 91.0539 155.7223
ENERGY: 1500000 0.3773 5.9179 5.9264 0.0000 -10864.0543 1575.2138 0.0000 0.0000 1779.0294 -7497.5894 301.2783 -9276.6188 -7476.2409 299.9414 1083.0353 1156.6652 30194.4382 141.0082 198.7718
TCL: Running FEP window  17: Lambda1 0.19999999999999968 Lambda2 0.1499999999999997 [dLambda -0.04999999999999999]
TCL: Setting parameter firsttimestep to 0
TCL: Setting parameter alchLambda to 0.19999999999999968
Info: NONBONDED TABLE R-SQUARED SPACING: 0.0625
Info: NONBONDED TABLE SIZE: 705 POINTS
TCL: Setting parameter alchLambda2 to 0.1499999999999997
Info: NONBONDED TABLE R-SQUARED SPACING: 0.0625
Info: NONBONDED TABLE SIZE: 705 POINTS
TCL: Running for 1500000 steps
ETITLE: TS BOND ANGLE DIHED IMPRP ELECT VDW BOUNDARY MISC KINETIC TOTAL TEMP POTENTIAL TOTALAVG TEMPAVG PRESSURE GPRESSURE VOLUME PRESSAVG GPRESSAVG
ENERGY: 0 0.3773 5.9179 5.9264 0.0000 -10864.0548 1575.4240 0.0000 0.0000 1778.1323 -7498.2769 301.1263 -9276.4091 -7498.2769 301.1263 1050.3389 1152.2852 30194.4382 1050.3389 1152.2852
ENERGY: 300000 1.4400 7.4613 2.8765 0.0000 -10769.3901 1485.5683 0.0000 0.0000 1718.5259 -7553.5181 291.0320 -9272.0440 -7474.4950 299.9585 1.4518 112.6044 30946.0150 181.0522 241.8879
ENERGY: 600000 1.7308 6.9132 2.2983 0.0000 -10622.0909 1360.6440 0.0000 0.0000 1761.7183 -7488.7864 298.3466 -9250.5047 -7463.5502 299.9032 -693.4760 -667.5426 30744.2471 -116.9756 -59.0184
ENERGY: 900000 3.3035 11.0770 3.4359 0.0000 -10620.2936 1387.4539 0.0000 0.0000 1782.4772 -7432.5460 301.8621 -9215.0233 -7460.5112 299.6721 -627.3857 -535.7958 30945.5851 -53.7455 -2.8174
ENERGY: 1200000 2.7734 8.3365 3.2483 0.0000 -10693.2776 1423.0657 0.0000 0.0000 1757.3010 -7498.5527 297.5986 -9255.8537 -7468.2556 300.0371 -308.1607 -258.4010 30607.2520 -1.7909 49.3510
ENERGY: 1500000 3.6609 9.8052 1.9598 0.0000 -10880.1598 1563.0884 0.0000 0.0000 1710.0243 -7591.6212 289.5922 -9301.6454 -7474.6620 299.3985 1013.3690 1161.2244 29949.5510 129.6762 189.9435
TCL: Running FEP window  18: Lambda1 0.1499999999999997 Lambda2 0.09999999999999969 [dLambda -0.05 ]
TCL: Setting parameter firsttimestep to 0
TCL: Setting parameter alchLambda to 0.1499999999999997
Info: NONBONDED TABLE R-SQUARED SPACING: 0.0625
Info: NONBONDED TABLE SIZE: 705 POINTS
TCL: Setting parameter alchLambda2 to 0.09999999999999969
Info: NONBONDED TABLE R-SQUARED SPACING: 0.0625
Info: NONBONDED TABLE SIZE: 705 POINTS
TCL: Running for 1500000 steps
ETITLE: TS BOND ANGLE DIHED IMPRP ELECT VDW BOUNDARY MISC KINETIC TOTAL TEMP POTENTIAL TOTALAVG TEMPAVG PRESSURE GPRESSURE VOLUME PRESSAVG GPRESSAVG
ENERGY: 0 3.6609 9.8052 1.9598 0.0000 -10880.1605 1563.4192 0.0000 0.0000 1709.1280 -7592.1874 289.4405 -9301.3154 -7592.1874 289.4405 1065.8906 1160.3184 29949.5510 1065.8906 1160.3184
ENERGY: 300000 2.3198 7.7156 4.3836 0.0000 -10668.3665 1408.5586 0.0000 0.0000 1770.7696 -7474.6193 299.8795 -9245.3889 -7516.0585 294.4225 -489.9382 -437.7279 30748.8290 134.5109 204.4745
ENERGY: 600000 0.9055 9.9986 0.8689 0.0000 -10861.6829 1523.2226 0.0000 0.0000 1787.7422 -7538.9451 302.7538 -9326.6873 -7527.2519 294.9624 597.1234 622.7809 30161.0215 229.7482 294.4508
ENERGY: 900000 1.9152 8.3060 2.9398 0.0000 -10720.7845 1455.9465 0.0000 0.0000 1757.5365 -7494.1404 297.6384 -9251.6769 -7523.5461 296.1443 194.3040 249.2564 30130.4276 88.0761 144.6543
ENERGY: 1200000 3.2985 5.4808 5.4047 0.0000 -10750.7663 1452.8133 0.0000 0.0000 1776.3679 -7507.4011 300.8275 -9283.7690 -7500.5560 297.5189 21.9345 86.8461 30293.9571 205.5594 258.6627
ENERGY: 1500000 3.1666 6.1551 2.2661 0.0000 -10709.9049 1401.6625 0.0000 0.0000 1771.0349 -7525.6197 299.9244 -9296.6546 -7491.7859 298.1289 -722.4826 -645.6249 30730.6610 150.7498 202.8824
TCL: Running FEP window  19: Lambda1 0.09999999999999969 Lambda2 0.049999999999999684 [dLambda -0.05 ]
TCL: Setting parameter firsttimestep to 0
TCL: Setting parameter alchLambda to 0.09999999999999969
Info: NONBONDED TABLE R-SQUARED SPACING: 0.0625
Info: NONBONDED TABLE SIZE: 705 POINTS
TCL: Setting parameter alchLambda2 to 0.049999999999999684
Info: NONBONDED TABLE R-SQUARED SPACING: 0.0625
Info: NONBONDED TABLE SIZE: 705 POINTS
TCL: Running for 1500000 steps
ETITLE: TS BOND ANGLE DIHED IMPRP ELECT VDW BOUNDARY MISC KINETIC TOTAL TEMP POTENTIAL TOTALAVG TEMPAVG PRESSURE GPRESSURE VOLUME PRESSAVG GPRESSAVG
ENERGY: 0 3.1666 6.1551 2.2661 0.0000 -10709.9039 1401.6738 0.0000 0.0000 1770.1666 -7526.4757 299.7773 -9296.6423 -7526.4757 299.7773 -738.4920 -647.9638 30730.6610 -738.4920 -647.9638
ENERGY: 300000 0.8444 5.5203 1.9157 0.0000 -10630.1100 1380.3818 0.0000 0.0000 1718.8707 -7522.5772 291.0904 -9241.4478 -7514.3587 298.0819 -389.5625 -318.8376 30172.6516 -227.9935 -170.7553
ENERGY: 600000 2.6625 7.8869 5.2573 0.0000 -10591.1617 1452.8614 0.0000 0.0000 1726.2217 -7396.2720 292.3353 -9122.4936 -7495.1472 295.9184 324.0782 398.7614 30528.7207 -77.0731 -25.6459
ENERGY: 900000 4.6224 6.0294 6.0654 0.0000 -10647.7939 1390.7158 0.0000 0.0000 1817.6297 -7422.7313 307.8152 -9240.3609 -7473.9908 298.1808 -222.0474 -146.0698 29780.4113 -76.4533 -14.7686
ENERGY: 1200000 2.1266 5.6721 3.9336 0.0000 -10628.2626 1348.3882 0.0000 0.0000 1716.3922 -7551.7500 290.6707 -9268.1422 -7478.1742 298.0089 -1081.1155 -1008.1556 30886.4987 -114.2796 -49.5257
ENERGY: 1500000 1.7971 7.8506 8.4379 0.0000 -10798.8991 1480.9675 0.0000 0.0000 1818.5008 -7481.3451 307.9627 -9299.8459 -7480.1190 298.5251 62.7372 127.0752 30236.5368 -96.5780 -30.7958
TCL: Running FEP window  20: Lambda1 0.049999999999999684 Lambda2 0.0    [dLambda -0.049999999999999684]
TCL: Setting parameter firsttimestep to 0
TCL: Setting parameter alchLambda to 0.049999999999999684
Info: NONBONDED TABLE R-SQUARED SPACING: 0.0625
Info: NONBONDED TABLE SIZE: 705 POINTS
TCL: Setting parameter alchLambda2 to 0.0
Info: NONBONDED TABLE R-SQUARED SPACING: 0.0625
Info: NONBONDED TABLE SIZE: 705 POINTS
TCL: Running for 1500000 steps
ETITLE: TS BOND ANGLE DIHED IMPRP ELECT VDW BOUNDARY MISC KINETIC TOTAL TEMP POTENTIAL TOTALAVG TEMPAVG PRESSURE GPRESSURE VOLUME PRESSAVG GPRESSAVG
ENERGY: 0 1.7971 7.8506 8.4379 0.0000 -10798.9008 1479.7873 0.0000 0.0000 1817.5971 -7483.4307 307.8097 -9301.0279 -7483.4307 307.8097 46.2746 123.6551 30236.5368 46.2746 123.6551
ENERGY: 300000 3.7835 9.7747 3.8992 0.0000 -10764.2358 1496.8706 0.0000 0.0000 1777.6207 -7472.2871 301.0397 -9249.9078 -7480.0943 302.0439 219.0314 224.5028 30435.6622 32.3594 84.2602
ENERGY: 600000 2.7465 5.9999 2.3088 0.0000 -10704.4978 1401.5159 0.0000 0.0000 1765.2343 -7526.6923 298.9421 -9291.9267 -7513.2580 300.3133 -664.6388 -699.1909 30610.3498 -64.0948 -14.2057
ENERGY: 900000 2.9547 5.1950 2.8419 0.0000 -10850.8330 1491.4292 0.0000 0.0000 1795.9712 -7552.4409 304.1473 -9348.4121 -7513.5425 300.4214 159.1695 202.4530 30057.2412 -26.0610 31.2764
ENERGY: 1200000 1.4752 8.2092 4.1190 0.0000 -10610.8478 1312.0062 0.0000 0.0000 1831.0225 -7454.0157 310.0833 -9285.0382 -7505.9155 300.3865 -1116.7602 -1022.8865 30310.2736 -138.5117 -77.2834
ENERGY: 1500000 4.0712 9.6964 5.4314 0.0000 -10788.6479 1480.9218 0.0000 0.0000 1733.5418 -7554.9852 293.5749 -9288.5270 -7501.8663 299.7877 317.7320 348.5308 29829.7763 -127.4919 -60.1107
TCL: Exiting due to exit command.
