Info: SIMULATION PARAMETERS:
Info: TIMESTEP               2
Info: NUMBER OF STEPS        0
Info: STEPS PER CYCLE        10
Info: PERIODIC CELL BASIS 1  30.4432 0 0
Info: PERIODIC CELL BASIS 2  0 29.8514 0
Info: PERIODIC CELL BASIS 3  0 0 33.4967
Info: PERIODIC CELL CENTER   0 0 0
Info: WRAPPING WATERS AROUND PERIODIC BOUNDARIES ON OUTPUT.
Info: WRAPPING ALL CLUSTERS AROUND PERIODIC BOUNDARIES ON OUTPUT.
Info: FIRST LDB TIMESTEP     50
Info: LAST LDB TIMESTEP     -1
Info: HOM BACKGROUND SCALING 1
Info: PME BACKGROUND SCALING 1
Info: MIN ATOMS PER PATCH    40
Info: EMPTY PATCH LOAD       40 ATOMS
Info: VELOCITY FILE          mobley_1449384_equil.vel
Info: CENTER OF MASS MOVING INITIALLY? NO
Info: DIELECTRIC             1
Info: EXCLUDE                SCALED ONE-FOUR
Info: 1-4 ELECTROSTATICS SCALED BY 0.833333
Info: MODIFIED 1-4 VDW PARAMETERS WILL BE USED
Info: DCD FILENAME           mobley_1449384_prod.dcd
Info: DCD FREQUENCY          100000
Info: DCD FIRST STEP         100000
Info: DCD FILE WILL CONTAIN UNIT CELL DATA
Info: XST FILENAME           mobley_1449384_prod.xst
Info: XST FREQUENCY          100000
Info: NO VELOCITY DCD OUTPUT
Info: NO FORCE DCD OUTPUT
Info: OUTPUT FILENAME        mobley_1449384_prod
Info: BINARY OUTPUT FILES WILL BE USED
Info: RESTART FILENAME       mobley_1449384_prod.restart
Info: RESTART FREQUENCY      100000
Info: BINARY RESTART FILES WILL BE USED
Info: CUTOFF                 9
Info: PAIRLIST DISTANCE      11
Info: PAIRLIST SHRINK RATE   0.01
Info: PAIRLIST GROW RATE     0.01
Info: PAIRLIST TRIGGER       0.3
Info: PAIRLISTS PER CYCLE    2
Info: PAIRLISTS ENABLED
Info: MARGIN                 2
Info: HYDROGEN GROUP CUTOFF  2.5
Info: PATCH DIMENSION        15.5
Info: ENERGY OUTPUT STEPS    100000
Info: ENERGY EVALUATION STEPS    100000
Info: OUTPUT ENERGY PRECISION 4
Info: CROSSTERM ENERGY INCLUDED IN DIHEDRAL
Info: TIMING OUTPUT STEPS    1000000
Info: PRESSURE OUTPUT STEPS  100000
Info: ALCHEMICAL FEP ON
Info: FEP CURRENT LAMBDA VALUE     1
Info: FEP COMPARISON LAMBDA VALUE  0.95
Info: FEP INTRA-ALCHEMICAL NON-BONDED INTERACTIONS WILL BE RETAINED
Info: FEP INTRA-ALCHEMICAL BONDED INTERACTIONS WILL BE RETAINED
Info: FEP VDW SHIFTING COEFFICIENT 5
Info: FEP ELEC. ACTIVE FOR ANNIHILATED PARTICLES BETWEEN LAMBDA = 0 AND LAMBDA = 0.5
Info: FEP ELEC. ACTIVE FOR EXNIHILATED PARTICLES BETWEEN LAMBDA = 0.5 AND LAMBDA = 1
Info: FEP VDW ACTIVE FOR ANNIHILATED PARTICLES BETWEEN LAMBDA = 0 AND LAMBDA = 1
Info: FEP VDW ACTIVE FOR EXNIHILATED PARTICLES BETWEEN LAMBDA = 0 AND LAMBDA = 1
Info: FEP BOND ACTIVE FOR ANNIHILATED PARTICLES BETWEEN LAMBDA = 1 AND LAMBDA = 1
Info: FEP BOND ACTIVE FOR EXNIHILATED PARTICLES BETWEEN LAMBDA = 0 AND LAMBDA = 0
Info: LANGEVIN DYNAMICS ACTIVE
Info: LANGEVIN TEMPERATURE   300
Info: LANGEVIN USING BBK INTEGRATOR
Info: LANGEVIN DAMPING COEFFICIENT IS 1 INVERSE PS
Info: LANGEVIN DYNAMICS APPLIED TO HYDROGENS
Info: LANGEVIN PISTON PRESSURE CONTROL ACTIVE
Info:        TARGET PRESSURE IS 1.01325 BAR
Info:     OSCILLATION PERIOD IS 50 FS
Info:             DECAY TIME IS 25 FS
Info:     PISTON TEMPERATURE IS 300 K
Info:       PRESSURE CONTROL IS GROUP-BASED
Info:    INITIAL STRAIN RATE IS 0.000407624 0.000407624 0.000407624
Info:       CELL FLUCTUATION IS ISOTROPIC
Info: PARTICLE MESH EWALD (PME) ACTIVE
Info: PME TOLERANCE               1e-06
Info: PME EWALD COEFFICIENT       0.348832
Info: PME INTERPOLATION ORDER     4
Info: PME GRID DIMENSIONS         32 32 36
Info: PME MAXIMUM GRID SPACING    1
Info: PME CALCULATION WILL BE PERFORMED ON GPU
Info: FULL ELECTROSTATIC EVALUATION FREQUENCY      2
Info: USING VERLET I (r-RESPA) MTS SCHEME.
Info: C1 SPLITTING OF LONG RANGE ELECTROSTATICS
Info: PLACING ATOMS IN PATCHES BY HYDROGEN GROUPS
Info: RIGID BONDS TO HYDROGEN : ALL
Info:         ERROR TOLERANCE : 1e-08
Info:          MAX ITERATIONS : 100
Info: RIGID WATER USING SETTLE ALGORITHM
Info: RANDOM NUMBER SEED     1743812787
Info: USE HYDROGEN BONDS?    NO
Info: Using AMBER format force field!
Info: AMBER PARM FILE        mobley_1449384.prmtop
Info: COORDINATE PDB         mobley_1449384.pdb
Info: Exclusions will be read from PARM file!
Info: SCNB (VDW SCALING)     2
Info: USING ARITHMETIC MEAN TO COMBINE L-J SIGMA PARAMETERS
Info: BINARY COORDINATES     mobley_1449384_equil.coor
Info: SUMMARY OF PARAMETERS:
Info: 7 BONDS
Info: 8 ANGLES
Info:   8 HARMONIC
Info:   0 COSINE-BASED
Info: 6 DIHEDRAL
Info: 0 IMPROPER
Info: 0 CROSSTERM
Info: 0 VDW
Info: 21 VDW_PAIRS
Info: 0 NBTHOLE_PAIRS
Info: To read alchdata from file: mobley_1449384.pdb
Info: To read alchflag data from column: 5
Info: STRUCTURE SUMMARY:
Info: 2964 ATOMS
Info: 2964 BONDS
Info: 42 ANGLES
Info: 60 DIHEDRALS
Info: 0 IMPROPERS
Info: 0 CROSSTERMS
Info: 3057 EXCLUSIONS
Info: 2954 RIGID BONDS
Info: ALCH: 0 ATOMS TO DISAPPEAR IN FINAL STATE
Info: ALCH: 24 ATOMS TO APPEAR IN FINAL STATE
Info: 5938 DEGREES OF FREEDOM
Info: 990 HYDROGEN GROUPS
Info: 4 ATOMS IN LARGEST HYDROGEN GROUP
Info: 990 MIGRATION GROUPS
Info: 4 ATOMS IN LARGEST MIGRATION GROUP
Info: TOTAL MASS = 17789.9 amu
Info: TOTAL CHARGE = 5.21541e-08 e
Info: MASS DENSITY = 0.970456 g/cm^3
Info: ATOM DENSITY = 0.0973691 atoms/A^3
Info: ADDED 0 IMPLICIT EXCLUSIONS
Info: NONBONDED TABLE R-SQUARED SPACING: 0.0625
Info: NONBONDED TABLE SIZE: 705 POINTS
Info: REMOVING COM VELOCITY -0.109042 -0.0777376 -0.13411
Info: Use 3D box decompostion in PME FFT.
Info: Updated CUDA force table with 4096 elements.
Info: Updated CUDA LJ table with 6 x 6 elements.
Info: Found 26 unique exclusion lists needing 80 bytes
TCL: Running for 1500000 steps
ETITLE: TS BOND ANGLE DIHED IMPRP ELECT VDW BOUNDARY MISC KINETIC TOTAL TEMP POTENTIAL TOTALAVG TEMPAVG PRESSURE GPRESSURE VOLUME PRESSAVG GPRESSAVG
ENERGY: 0 4.6408 12.2705 6.0613 0.0000 -10674.0558 1373.2280 0.0000 0.0000 1760.9527 -7516.9025 298.4681 -9277.8552 -7516.9025 298.4681 -697.3693 -606.7958 30440.8603 -697.3693 -606.7958
ENERGY: 300000 3.5577 8.4813 4.0023 0.0000 -10738.7223 1465.1400 0.0000 0.0000 1822.6069 -7434.9341 308.9180 -9257.5410 -7481.7028 299.7157 73.5321 115.7146 30791.9214 -438.0920 -351.2426
ENERGY: 600000 1.7687 8.2359 2.1606 0.0000 -10876.9298 1559.9832 0.0000 0.0000 1709.0785 -7595.7029 289.6758 -9304.7814 -7504.6391 298.2349 990.0368 1079.6605 30006.7662 -72.7400 6.5610
ENERGY: 900000 0.9982 7.5453 3.0056 0.0000 -10816.5125 1528.1485 0.0000 0.0000 1717.5458 -7559.2691 291.1109 -9276.8149 -7514.7411 296.3972 580.7765 693.9299 30702.8951 6.8326 81.6949
ENERGY: 1200000 3.1540 9.9687 3.2212 0.0000 -10548.8573 1347.6976 0.0000 0.0000 1729.9347 -7454.8811 293.2108 -9184.8158 -7506.6717 296.6690 -399.7947 -350.7293 30595.8397 -81.9289 -11.8419
ENERGY: 1500000 4.1730 7.5836 3.4120 0.0000 -10669.5470 1403.8908 0.0000 0.0000 1761.4528 -7489.0348 298.5528 -9250.4876 -7505.5573 297.6180 -276.8933 -197.1155 30768.3025 -60.4476 15.6999
TCL: Running FEP window   2: Lambda1 0.95   Lambda2 0.8999999999999999 [dLambda -0.050000000000000044]
TCL: Setting parameter firsttimestep to 0
TCL: Setting parameter alchLambda to 0.95
Info: NONBONDED TABLE R-SQUARED SPACING: 0.0625
Info: NONBONDED TABLE SIZE: 705 POINTS
TCL: Setting parameter alchLambda2 to 0.8999999999999999
Info: NONBONDED TABLE R-SQUARED SPACING: 0.0625
Info: NONBONDED TABLE SIZE: 705 POINTS
TCL: Running for 1500000 steps
ETITLE: TS BOND ANGLE DIHED IMPRP ELECT VDW BOUNDARY MISC KINETIC TOTAL TEMP POTENTIAL TOTALAVG TEMPAVG PRESSURE GPRESSURE VOLUME PRESSAVG GPRESSAVG
ENERGY: 0 4.1730 7.5836 3.4120 0.0000 -10668.5962 1404.2017 0.0000 0.0000 1760.5734 -7488.6525 298.4038 -9249.2259 -7488.6525 298.4038 -302.9223 -207.6185 30768.3025 -302.9223 -207.6185
ENERGY: 300000 4.8726 10.4167 1.8639 0.0000 -10726.9165 1414.4352 0.0000 0.0000 1756.3972 -7538.9309 297.6960 -9295.3281 -7495.6283 300.2696 -356.2865 -272.9753 30538.6387 98.4013 170.2567
ENERGY: 600000 3.1423 6.2329 3.9084 0.0000 -10792.7886 1540.2091 0.0000 0.0000 1784.0170 -7455.2789 302.3773 -9239.2959 -7489.5310 299.3282 908.8993 982.4437 30563.0172 147.6215 207.0413
ENERGY: 900000 4.2890 12.3568 2.5832 0.0000 -10699.0850 1416.2007 0.0000 0.0000 1774.7413 -7488.9141 300.8051 -9263.6554 -7493.1325 300.3770 -450.3440 -413.1600 31019.8194 118.2756 173.7010
ENERGY: 1200000 2.7981 12.3622 4.9812 0.0000 -10657.2972 1366.4637 0.0000 0.0000 1712.1516 -7558.5404 290.1967 -9270.6920 -7498.4854 298.3846 -778.5776 -620.1933 30598.8539 41.5682 107.6599
ENERGY: 1500000 4.0051 10.6594 4.7970 0.0000 -10628.9501 1404.0564 0.0000 0.0000 1735.0435 -7470.3886 294.0767 -9205.4321 -7500.6879 297.6736 -216.1174 -99.4359 30696.3778 80.8389 148.4294
TCL: Running FEP window   3: Lambda1 0.8999999999999999 Lambda2 0.8499999999999999 [dLambda -0.050000000000000044]
TCL: Setting parameter firsttimestep to 0
TCL: Setting parameter alchLambda to 0.8999999999999999
Info: NONBONDED TABLE R-SQUARED SPACING: 0.0625
Info: NONBONDED TABLE SIZE: 705 POINTS
TCL: Setting parameter alchLambda2 to 0.8499999999999999
Info: NONBONDED TABLE R-SQUARED SPACING: 0.0625
Info: NONBONDED TABLE SIZE: 705 POINTS
TCL: Running for 1500000 steps
ETITLE: TS BOND ANGLE DIHED IMPRP ELECT VDW BOUNDARY MISC KINETIC TOTAL TEMP POTENTIAL TOTALAVG TEMPAVG PRESSURE GPRESSURE VOLUME PRESSAVG GPRESSAVG
ENERGY: 0 4.0051 10.6594 4.7970 0.0000 -10628.4702 1404.2044 0.0000 0.0000 1734.1888 -7470.6154 293.9318 -9204.8042 -7470.6154 293.9318 -198.3736 -112.8066 30696.3778 -198.3736 -112.8066
ENERGY: 300000 2.2644 12.6687 1.4260 0.0000 -10783.2588 1532.5663 0.0000 0.0000 1747.2705 -7487.0629 296.1490 -9234.3334 -7447.5104 300.5044 940.7679 977.0879 30197.3359 244.2408 325.6945
ENERGY: 600000 1.9768 3.2060 2.4776 0.0000 -10673.3196 1440.3665 0.0000 0.0000 1755.6421 -7469.6506 297.5680 -9225.2927 -7462.4145 298.7242 41.6723 157.2213 30609.0843 122.4998 198.2172
ENERGY: 900000 2.9953 8.6141 3.6048 0.0000 -10684.8014 1434.0721 0.0000 0.0000 1758.6240 -7476.8911 298.0734 -9235.5151 -7471.1871 299.5639 -39.7936 12.1917 30708.8686 82.6073 153.1403
ENERGY: 1200000 2.8395 7.7960 0.9656 0.0000 -10852.9166 1538.7579 0.0000 0.0000 1750.9263 -7551.6313 296.7687 -9302.5577 -7480.5702 299.5536 651.2049 694.4682 30608.8976 90.7703 151.9061
ENERGY: 1500000 1.9034 11.1326 2.9916 0.0000 -10583.7137 1422.6362 0.0000 0.0000 1735.1136 -7409.9364 294.0885 -9145.0499 -7474.6057 299.4593 367.1833 390.4397 30031.8412 -2.4248 55.4707
TCL: Running FEP window   4: Lambda1 0.8499999999999999 Lambda2 0.7999999999999998 [dLambda -0.050000000000000044]
TCL: Setting parameter firsttimestep to 0
TCL: Setting parameter alchLambda to 0.8499999999999999
Info: NONBONDED TABLE R-SQUARED SPACING: 0.0625
Info: NONBONDED TABLE SIZE: 705 POINTS
TCL: Setting parameter alchLambda2 to 0.7999999999999998
Info: NONBONDED TABLE R-SQUARED SPACING: 0.0625
Info: NONBONDED TABLE SIZE: 705 POINTS
TCL: Running for 1500000 steps
ETITLE: TS BOND ANGLE DIHED IMPRP ELECT VDW BOUNDARY MISC KINETIC TOTAL TEMP POTENTIAL TOTALAVG TEMPAVG PRESSURE GPRESSURE VOLUME PRESSAVG GPRESSAVG
ENERGY: 0 1.9034 11.1326 2.9916 0.0000 -10583.1078 1421.6209 0.0000 0.0000 1734.2537 -7411.2056 293.9428 -9145.4593 -7411.2056 293.9428 278.6405 367.8431 30031.8412 278.6405 367.8431
ENERGY: 300000 5.5877 8.0290 1.7375 0.0000 -10739.2049 1408.6200 0.0000 0.0000 1722.8400 -7592.3906 292.0083 -9315.2306 -7478.1420 296.3839 -373.3358 -349.2738 30039.1000 491.5422 543.9199
ENERGY: 600000 5.2420 8.0362 1.7112 0.0000 -10733.1571 1490.8676 0.0000 0.0000 1792.7007 -7434.5993 303.8491 -9227.3000 -7457.2568 300.3539 80.9655 145.9107 30960.2477 367.6083 421.4249
ENERGY: 900000 2.1632 5.3432 1.9498 0.0000 -10625.1478 1410.6558 0.0000 0.0000 1810.5915 -7394.4444 306.8815 -9205.0358 -7451.4184 301.3344 -4.4672 93.9351 30290.1577 156.4901 216.2091
ENERGY: 1200000 2.3221 13.1400 3.1182 0.0000 -10607.5345 1399.3460 0.0000 0.0000 1758.8490 -7430.7591 298.1115 -9189.6081 -7448.5826 300.8620 12.2730 64.1427 30210.0051 120.6080 179.6725
ENERGY: 1500000 3.5735 8.9567 3.2017 0.0000 -10760.4411 1462.9580 0.0000 0.0000 1767.4359 -7514.3152 299.5669 -9281.7511 -7457.4448 300.6003 293.4430 273.2946 30253.1495 56.9899 112.5386
TCL: Running FEP window   5: Lambda1 0.7999999999999998 Lambda2 0.7499999999999998 [dLambda -0.050000000000000044]
TCL: Setting parameter firsttimestep to 0
TCL: Setting parameter alchLambda to 0.7999999999999998
Info: NONBONDED TABLE R-SQUARED SPACING: 0.0625
Info: NONBONDED TABLE SIZE: 705 POINTS
TCL: Setting parameter alchLambda2 to 0.7499999999999998
Info: NONBONDED TABLE R-SQUARED SPACING: 0.0625
Info: NONBONDED TABLE SIZE: 705 POINTS
TCL: Running for 1500000 steps
ETITLE: TS BOND ANGLE DIHED IMPRP ELECT VDW BOUNDARY MISC KINETIC TOTAL TEMP POTENTIAL TOTALAVG TEMPAVG PRESSURE GPRESSURE VOLUME PRESSAVG GPRESSAVG
ENERGY: 0 3.5735 8.9567 3.2017 0.0000 -10760.1151 1462.7233 0.0000 0.0000 1766.5693 -7515.0906 299.4200 -9281.6598 -7515.0906 299.4200 167.7227 251.2556 30253.1495 167.7227 251.2556
ENERGY: 300000 5.5118 9.9372 4.6386 0.0000 -10722.1159 1395.8301 0.0000 0.0000 1824.1848 -7482.0133 309.1854 -9306.1981 -7492.8011 302.1768 -655.1785 -609.7096 30688.4244 -441.0601 -372.2017
ENERGY: 600000 2.1290 8.2767 3.6049 0.0000 -10622.3767 1377.2627 0.0000 0.0000 1767.8607 -7463.2427 299.6389 -9231.1034 -7475.5066 299.9796 -441.4215 -355.9379 30395.3901 -455.1878 -401.5325
ENERGY: 900000 2.4595 7.9047 4.5967 0.0000 -10637.3959 1415.9935 0.0000 0.0000 1792.2307 -7414.2107 303.7695 -9206.4414 -7433.7999 302.5481 -74.2173 -18.3529 30606.5998 -401.3874 -343.7158
ENERGY: 1200000 2.4132 5.8719 3.4828 0.0000 -10615.1543 1359.9277 0.0000 0.0000 1753.5649 -7489.8937 297.2159 -9243.4586 -7429.7925 302.7302 -532.1569 -503.2723 30308.4035 -360.0468 -307.1772
ENERGY: 1500000 1.8002 7.3231 2.7778 0.0000 -10640.4658 1374.1515 0.0000 0.0000 1762.0061 -7492.4072 298.6466 -9254.4133 -7443.2343 302.0222 -569.0570 -534.9585 30734.5531 -284.2697 -234.7711
TCL: Running FEP window   6: Lambda1 0.7499999999999998 Lambda2 0.6999999999999997 [dLambda -0.050000000000000044]
TCL: Setting parameter firsttimestep to 0
TCL: Setting parameter alchLambda to 0.7499999999999998
Info: NONBONDED TABLE R-SQUARED SPACING: 0.0625
Info: NONBONDED TABLE SIZE: 705 POINTS
TCL: Setting parameter alchLambda2 to 0.6999999999999997
Info: NONBONDED TABLE R-SQUARED SPACING: 0.0625
Info: NONBONDED TABLE SIZE: 705 POINTS
TCL: Running for 1500000 steps
ETITLE: TS BOND ANGLE DIHED IMPRP ELECT VDW BOUNDARY MISC KINETIC TOTAL TEMP POTENTIAL TOTALAVG TEMPAVG PRESSURE GPRESSURE VOLUME PRESSAVG GPRESSAVG
ENERGY: 0 1.8002 7.3231 2.7778 0.0000 -10640.2976 1374.1648 0.0000 0.0000 1761.1241 -7493.1076 298.4971 -9254.2317 -7493.1076 298.4971 -639.8547 -548.2712 30734.5531 -639.8547 -548.2712
ENERGY: 300000 2.3363 13.0242 3.9249 0.0000 -10795.0224 1533.9184 0.0000 0.0000 1789.3377 -7452.4810 303.2791 -9241.8187 -7486.6952 301.5614 843.2061 848.4060 30355.5318 136.2312 180.1474
ENERGY: 600000 4.8990 7.5630 3.1248 0.0000 -10703.1842 1431.5204 0.0000 0.0000 1727.4869 -7528.5901 292.7959 -9256.0770 -7479.1570 301.3616 -34.9100 31.1127 30063.9783 272.6074 323.5282
ENERGY: 900000 4.9382 9.0926 4.5672 0.0000 -10795.7530 1432.2492 0.0000 0.0000 1781.5446 -7563.3612 301.9582 -9344.9058 -7495.9892 300.5314 -395.4213 -387.2804 30603.1870 69.9274 111.5789
ENERGY: 1200000 3.2961 11.9513 5.9627 0.0000 -10648.2132 1361.4087 0.0000 0.0000 1798.0543 -7467.5401 304.7565 -9265.5944 -7490.4579 300.6868 -633.7733 -530.6780 30608.1829 -57.1314 1.4460
ENERGY: 1500000 1.7338 10.2409 3.3476 0.0000 -10689.6295 1399.0408 0.0000 0.0000 1743.5531 -7531.7133 295.5190 -9275.2664 -7492.8199 300.6400 -360.6309 -291.6186 30381.9188 -64.6484 -2.3231
TCL: Running FEP window   7: Lambda1 0.6999999999999997 Lambda2 0.6499999999999997 [dLambda -0.050000000000000044]
TCL: Setting parameter firsttimestep to 0
TCL: Setting parameter alchLambda to 0.6999999999999997
Info: NONBONDED TABLE R-SQUARED SPACING: 0.0625
Info: NONBONDED TABLE SIZE: 705 POINTS
TCL: Setting parameter alchLambda2 to 0.6499999999999997
Info: NONBONDED TABLE R-SQUARED SPACING: 0.0625
Info: NONBONDED TABLE SIZE: 705 POINTS
TCL: Running for 1500000 steps
ETITLE: TS BOND ANGLE DIHED IMPRP ELECT VDW BOUNDARY MISC KINETIC TOTAL TEMP POTENTIAL TOTALAVG TEMPAVG PRESSURE GPRESSURE VOLUME PRESSAVG GPRESSAVG
ENERGY: 0 1.7338 10.2409 3.3476 0.0000 -10689.4340 1399.4611 0.0000 0.0000 1742.6959 -7531.9547 295.3737 -9274.6506 -7531.9547 295.3737 -385.5378 -298.9056 30381.9188 -385.5378 -298.9056
ENERGY: 300000 2.0785 8.8415 2.1642 0.0000 -10688.3372 1399.1928 0.0000 0.0000 1757.9424 -7518.1178 297.9579 -9276.0602 -7506.2276 299.5351 -474.0991 -466.5943 30893.2587 -659.4885 -607.2260
ENERGY: 600000 4.3882 12.8703 3.9730 0.0000 -10703.5566 1474.0905 0.0000 0.0000 1809.1242 -7399.1104 306.6328 -9208.2346 -7499.5648 300.1223 331.1200 391.7154 30296.5290 -437.9483 -378.8424
ENERGY: 900000 3.2697 11.6283 3.6026 0.0000 -10794.3575 1503.8334 0.0000 0.0000 1816.8692 -7455.1543 307.9455 -9272.0236 -7495.7759 301.0304 550.1379 652.8825 30242.6974 -301.4144 -238.9498
ENERGY: 1200000 2.3457 9.7751 2.9243 0.0000 -10767.1529 1422.1941 0.0000 0.0000 1751.6881 -7578.2257 296.8978 -9329.9137 -7508.9218 300.0502 -390.4313 -271.3618 30513.1919 -324.8734 -257.4803
ENERGY: 1500000 2.8262 8.1633 3.9466 0.0000 -10678.7691 1439.7490 0.0000 0.0000 1735.1172 -7488.9668 294.0892 -9224.0841 -7512.0495 298.7545 276.1487 325.2519 30180.6878 -294.9844 -230.6272
TCL: Running FEP window   8: Lambda1 0.6499999999999997 Lambda2 0.5999999999999996 [dLambda -0.050000000000000044]
TCL: Setting parameter firsttimestep to 0
TCL: Setting parameter alchLambda to 0.6499999999999997
Info: NONBONDED TABLE R-SQUARED SPACING: 0.0625
Info: NONBONDED TABLE SIZE: 705 POINTS
TCL: Setting parameter alchLambda2 to 0.5999999999999996
Info: NONBONDED TABLE R-SQUARED SPACING: 0.0625
Info: NONBONDED TABLE SIZE: 705 POINTS
TCL: Running for 1500000 steps
ETITLE: TS BOND ANGLE DIHED IMPRP ELECT VDW BOUNDARY MISC KINETIC TOTAL TEMP POTENTIAL TOTALAVG TEMPAVG PRESSURE GPRESSURE VOLUME PRESSAVG GPRESSAVG
ENERGY: 0 2.8262 8.1633 3.9466 0.0000 -10678.2326 1439.7676 0.0000 0.0000 1734.2442 -7489.2847 293.9412 -9223.5289 -7489.2847 293.9412 234.4372 313.8080 30180.6878 234.4372 313.8080
ENERGY: 300000 1.4536 11.8178 1.1616 0.0000 -10841.1882 1507.2663 0.0000 0.0000 1801.4326 -7518.0563 305.3291 -9319.4889 -7495.7703 298.0511 425.9635 548.8304 30230.9875 67.3448 151.1805
ENERGY: 600000 4.5060 9.5641 3.5755 0.0000 -10769.0430 1418.3922 0.0000 0.0000 1734.8755 -7598.1298 294.0482 -9333.0052 -7506.4411 298.2866 -634.1185 -618.3941 30792.8528 -138.0830 -54.5113
ENERGY: 900000 2.3474 10.1626 3.6726 0.0000 -10638.6815 1396.4284 0.0000 0.0000 1753.6442 -7472.4264 297.2293 -9226.0706 -7498.3307 298.3326 -434.1861 -370.8632 30594.2715 -171.3195 -96.0902
ENERGY: 1200000 3.3820 6.9126 1.8594 0.0000 -10481.1240 1338.2198 0.0000 0.0000 1808.5191 -7322.2310 306.5302 -9130.7501 -7481.3811 299.2679 -599.0965 -576.4279 30785.1720 -236.6660 -167.1340
ENERGY: 1500000 4.1711 7.1878 1.2354 0.0000 -10755.9514 1461.9603 0.0000 0.0000 1794.2140 -7487.1828 304.1056 -9281.3967 -7476.8879 300.3471 46.3149 146.7242 30182.5423 -263.2329 -196.3838
TCL: Running FEP window   9: Lambda1 0.5999999999999996 Lambda2 0.5499999999999996 [dLambda -0.050000000000000044]
TCL: Setting parameter firsttimestep to 0
TCL: Setting parameter alchLambda to 0.5999999999999996
Info: NONBONDED TABLE R-SQUARED SPACING: 0.0625
Info: NONBONDED TABLE SIZE: 705 POINTS
TCL: Setting parameter alchLambda2 to 0.5499999999999996
Info: NONBONDED TABLE R-SQUARED SPACING: 0.0625
Info: NONBONDED TABLE SIZE: 705 POINTS
TCL: Running for 1500000 steps
ETITLE: TS BOND ANGLE DIHED IMPRP ELECT VDW BOUNDARY MISC KINETIC TOTAL TEMP POTENTIAL TOTALAVG TEMPAVG PRESSURE GPRESSURE VOLUME PRESSAVG GPRESSAVG
ENERGY: 0 4.1711 7.1878 1.2354 0.0000 -10755.7588 1461.9684 0.0000 0.0000 1793.3295 -7487.8666 303.9557 -9281.1961 -7487.8666 303.9557 65.1655 140.0723 30182.5423 65.1655 140.0723
ENERGY: 300000 3.6933 11.2451 2.3275 0.0000 -10708.3266 1471.1865 0.0000 0.0000 1755.3725 -7464.5018 297.5223 -9219.8743 -7472.5571 300.9347 178.6420 268.7244 30334.9157 352.0141 411.0097
ENERGY: 600000 2.1950 9.6543 4.8270 0.0000 -10779.3673 1461.4239 0.0000 0.0000 1832.5286 -7468.7385 310.5996 -9301.2671 -7483.8178 301.1226 125.4330 169.6344 30424.7213 257.5271 317.8755
ENERGY: 900000 1.6253 10.3202 5.2173 0.0000 -10788.4120 1517.6437 0.0000 0.0000 1741.2300 -7512.3756 295.1252 -9253.6056 -7489.9026 299.9140 398.7545 536.5514 30477.7890 151.5468 224.5012
ENERGY: 1200000 3.1870 6.4929 2.8747 0.0000 -10790.7402 1476.6221 0.0000 0.0000 1717.2931 -7584.2703 291.0681 -9301.5634 -7495.1356 299.5160 28.8521 93.4246 30534.1824 108.5205 177.7233
ENERGY: 1500000 4.2136 11.9871 4.4405 0.0000 -10532.7270 1364.2966 0.0000 0.0000 1756.8515 -7390.9378 297.7730 -9147.7893 -7478.0493 299.6650 -569.5140 -531.7607 30851.5599 41.6153 101.2611
TCL: Running FEP window  10: Lambda1 0.5499999999999996 Lambda2 0.4999999999999996 [dLambda -0.04999999999999999]
TCL: Setting parameter firsttimestep to 0
TCL: Setting parameter alchLambda to 0.5499999999999996
Info: NONBONDED TABLE R-SQUARED SPACING: 0.0625
Info: NONBONDED TABLE SIZE: 705 POINTS
TCL: Setting parameter alchLambda2 to 0.4999999999999996
Info: NONBONDED TABLE R-SQUARED SPACING: 0.0625
Info: NONBONDED TABLE SIZE: 705 POINTS
TCL: Running for 1500000 steps
ETITLE: TS BOND ANGLE DIHED IMPRP ELECT VDW BOUNDARY MISC KINETIC TOTAL TEMP POTENTIAL TOTALAVG TEMPAVG PRESSURE GPRESSURE VOLUME PRESSAVG GPRESSAVG
ENERGY: 0 4.2136 11.9871 4.4405 0.0000 -10532.3062 1364.4328 0.0000 0.0000 1755.9846 -7391.2477 297.6260 -9147.2322 -7391.2477 297.6260 -623.0862 -538.3841 30851.5599 -623.0862 -538.3841
ENERGY: 300000 3.0595 9.4382 3.8560 0.0000 -10892.7917 1563.7773 0.0000 0.0000 1769.2202 -7543.4404 299.8694 -9312.6606 -7439.9968 301.0525 1014.9363 1057.3294 30113.1223 122.0536 163.9962
ENERGY: 600000 2.2908 11.4274 1.8282 0.0000 -10703.0973 1446.8850 0.0000 0.0000 1780.4544 -7460.2116 301.7735 -9240.6659 -7449.8024 301.8295 127.3243 217.0464 30188.9895 100.8904 142.1128
ENERGY: 900000 1.7664 9.4978 2.2413 0.0000 -10699.0696 1466.6099 0.0000 0.0000 1773.5599 -7445.3944 300.6049 -9218.9542 -7438.3560 301.8246 416.4606 474.0090 30286.6425 123.1532 172.0811
ENERGY: 1200000 3.7062 9.0019 2.5910 0.0000 -10500.2359 1293.2520 0.0000 0.0000 1812.3575 -7379.3273 307.1808 -9191.6848 -7429.0837 303.2503 -1136.0517 -1115.2757 30975.1127 -60.2671 -2.4900
ENERGY: 1500000 2.2359 9.6372 4.1233 0.0000 -10690.0141 1479.3971 0.0000 0.0000 1688.3536 -7506.2670 286.1631 -9194.6206 -7446.0406 301.4697 395.9591 527.0288 30526.4206 50.1666 112.3103
TCL: Running FEP window  11: Lambda1 0.4999999999999996 Lambda2 0.4499999999999996 [dLambda -0.04999999999999999]
TCL: Setting parameter firsttimestep to 0
TCL: Setting parameter alchLambda to 0.4999999999999996
Info: NONBONDED TABLE R-SQUARED SPACING: 0.0625
Info: NONBONDED TABLE SIZE: 705 POINTS
TCL: Setting parameter alchLambda2 to 0.4499999999999996
Info: NONBONDED TABLE R-SQUARED SPACING: 0.0625
Info: NONBONDED TABLE SIZE: 705 POINTS
TCL: Running for 1500000 steps
ETITLE: TS BOND ANGLE DIHED IMPRP ELECT VDW BOUNDARY MISC KINETIC TOTAL TEMP POTENTIAL TOTALAVG TEMPAVG PRESSURE GPRESSURE VOLUME PRESSAVG GPRESSAVG
ENERGY: 0 2.2359 9.6372 4.1233 0.0000 -10689.9532 1479.4866 0.0000 0.0000 1687.4443 -7507.0259 286.0090 -9194.4702 -7507.0259 286.0090 434.9107 520.2422 30526.4206 434.9107 520.2422
ENERGY: 300000 3.3095 6.2924 2.5266 0.0000 -10645.0009 1427.3845 0.0000 0.0000 1786.4905 -7418.9974 302.7965 -9205.4878 -7440.2373 296.9931 -48.3284 9.0750 30601.6616 -9.7872 55.3252
ENERGY: 600000 5.9357 8.1402 2.3303 0.0000 -10826.5681 1417.8458 0.0000 0.0000 1779.8347 -7612.4815 301.6684 -9392.3162 -7468.1467 299.9705 -538.6537 -425.1924 29825.7514 -35.2161 44.3222
ENERGY: 900000 2.6050 10.5971 1.3955 0.0000 -10849.9245 1541.4429 0.0000 0.0000 1803.0764 -7490.8076 305.6077 -9293.8840 -7464.8629 301.7191 655.0974 700.2729 30271.9500 40.1558 102.0519
ENERGY: 1200000 3.0526 8.1178 7.8738 0.0000 -10842.5173 1541.7595 0.0000 0.0000 1844.8342 -7436.8794 312.6853 -9281.7136 -7471.3288 301.2384 955.1074 957.0406 30204.2080 118.0855 180.8409
ENERGY: 1500000 1.6295 11.1763 1.1637 0.0000 -10574.7404 1392.0823 0.0000 0.0000 1783.9918 -7384.6969 302.3730 -9168.6887 -7459.1026 302.1204 -416.6096 -369.5423 30838.3901 96.8393 157.8417
TCL: Running FEP window  12: Lambda1 0.4499999999999996 Lambda2 0.39999999999999963 [dLambda -0.04999999999999999]
TCL: Setting parameter firsttimestep to 0
TCL: Setting parameter alchLambda to 0.4499999999999996
Info: NONBONDED TABLE R-SQUARED SPACING: 0.0625
Info: NONBONDED TABLE SIZE: 705 POINTS
TCL: Setting parameter alchLambda2 to 0.39999999999999963
Info: NONBONDED TABLE R-SQUARED SPACING: 0.0625
Info: NONBONDED TABLE SIZE: 705 POINTS
TCL: Running for 1500000 steps
ETITLE: TS BOND ANGLE DIHED IMPRP ELECT VDW BOUNDARY MISC KINETIC TOTAL TEMP POTENTIAL TOTALAVG TEMPAVG PRESSURE GPRESSURE VOLUME PRESSAVG GPRESSAVG
ENERGY: 0 1.6295 11.1763 1.1637 0.0000 -10574.7403 1392.0375 0.0000 0.0000 1783.1568 -7385.5765 302.2315 -9168.7333 -7385.5765 302.2315 -462.6317 -377.9814 30838.3901 -462.6317 -377.9814
ENERGY: 300000 4.0946 9.1071 4.6150 0.0000 -10715.1268 1415.1212 0.0000 0.0000 1770.2718 -7511.9171 300.0476 -9282.1890 -7429.1851 303.0280 -183.2300 -144.9746 30291.7288 -440.2675 -379.7227
ENERGY: 600000 2.3528 7.6387 3.8058 0.0000 -10718.9594 1434.9947 0.0000 0.0000 1715.0470 -7555.1205 290.6874 -9270.1675 -7454.0124 299.7850 -62.2648 -26.7604 30000.7034 -237.9648 -184.4863
ENERGY: 900000 6.3011 11.9230 1.3381 0.0000 -10643.8382 1442.0821 0.0000 0.0000 1729.7333 -7452.4607 293.1766 -9182.1940 -7466.8687 298.0682 261.3219 327.0430 30098.2318 -237.2593 -182.3071
ENERGY: 1200000 3.5893 12.3645 2.2203 0.0000 -10812.0974 1495.0146 0.0000 0.0000 1754.5479 -7544.3607 297.3825 -9298.9086 -7477.3793 297.9525 119.5142 194.2133 30578.5068 -192.0619 -130.0807
ENERGY: 1500000 2.3618 13.6862 4.3739 0.0000 -10721.6455 1412.5906 0.0000 0.0000 1734.4997 -7554.1333 293.9845 -9288.6330 -7480.0332 298.3737 -374.4288 -287.0039 30490.5516 -186.9888 -126.6324
TCL: Running FEP window  13: Lambda1 0.39999999999999963 Lambda2 0.34999999999999964 [dLambda -0.04999999999999999]
TCL: Setting parameter firsttimestep to 0
TCL: Setting parameter alchLambda to 0.39999999999999963
Info: NONBONDED TABLE R-SQUARED SPACING: 0.0625
Info: NONBONDED TABLE SIZE: 705 POINTS
TCL: Setting parameter alchLambda2 to 0.34999999999999964
Info: NONBONDED TABLE R-SQUARED SPACING: 0.0625
Info: NONBONDED TABLE SIZE: 705 POINTS
TCL: Running for 1500000 steps
ETITLE: TS BOND ANGLE DIHED IMPRP ELECT VDW BOUNDARY MISC KINETIC TOTAL TEMP POTENTIAL TOTALAVG TEMPAVG PRESSURE GPRESSURE VOLUME PRESSAVG GPRESSAVG
ENERGY: 0 2.3618 13.6863 4.3739 0.0000 -10721.6459 1412.7425 0.0000 0.0000 1733.6100 -7554.8715 293.8337 -9288.4815 -7554.8715 293.8337 -366.9857 -292.3230 30490.5516 -366.9857 -292.3230
ENERGY: 300000 1.9012 15.8688 2.9692 0.0000 -10693.3773 1488.5690 0.0000 0.0000 1783.3713 -7400.6979 302.2679 -9184.0692 -7486.4567 300.7644 389.6065 536.4332 30673.4780 110.3713 203.8147
ENERGY: 600000 2.9595 7.4877 4.6779 0.0000 -10745.3792 1423.8920 0.0000 0.0000 1757.6750 -7548.6870 297.9125 -9306.3620 -7486.5508 299.6268 -433.8043 -330.1523 30482.7225 184.5420 261.6546
ENERGY: 900000 4.5798 8.6008 3.9698 0.0000 -10599.3257 1349.8006 0.0000 0.0000 1841.3224 -7391.0523 312.0901 -9232.3747 -7472.1616 301.7258 -623.1749 -574.3509 30227.8115 178.6758 248.1279
ENERGY: 1200000 4.1495 11.6029 3.9429 0.0000 -10784.9024 1574.6008 0.0000 0.0000 1760.5587 -7430.0476 298.4013 -9190.6064 -7469.1918 301.8328 1014.7711 1061.5621 30599.6995 235.3177 303.6869
ENERGY: 1500000 4.4479 14.3115 1.8945 0.0000 -10703.9786 1445.1591 0.0000 0.0000 1795.0839 -7443.0815 304.2531 -9238.1655 -7472.9937 300.9713 -190.8071 -85.4387 30450.3544 192.5288 259.9852
TCL: Running FEP window  14: Lambda1 0.34999999999999964 Lambda2 0.29999999999999966 [dLambda -0.04999999999999999]
TCL: Setting parameter firsttimestep to 0
TCL: Setting parameter alchLambda to 0.34999999999999964
Info: NONBONDED TABLE R-SQUARED SPACING: 0.0625
Info: NONBONDED TABLE SIZE: 705 POINTS
TCL: Setting parameter alchLambda2 to 0.29999999999999966
Info: NONBONDED TABLE R-SQUARED SPACING: 0.0625
Info: NONBONDED TABLE SIZE: 705 POINTS
TCL: Running for 1500000 steps
ETITLE: TS BOND ANGLE DIHED IMPRP ELECT VDW BOUNDARY MISC KINETIC TOTAL TEMP POTENTIAL TOTALAVG TEMPAVG PRESSURE GPRESSURE VOLUME PRESSAVG GPRESSAVG
ENERGY: 0 4.4479 14.3115 1.8945 0.0000 -10703.9790 1445.2927 0.0000 0.0000 1794.2075 -7443.8247 304.1045 -9238.0323 -7443.8247 304.1045 -168.6840 -93.1181 30450.3544 -168.6840 -93.1181
ENERGY: 300000 6.7755 7.6945 2.3369 0.0000 -10587.8827 1327.4299 0.0000 0.0000 1747.8887 -7495.7571 296.2538 -9243.6458 -7442.5407 299.5742 -1353.9069 -1271.6492 30704.3865 -495.1902 -425.5608
ENERGY: 600000 2.7576 9.7636 2.8727 0.0000 -10736.3701 1468.6193 0.0000 0.0000 1737.6531 -7514.7038 294.5190 -9252.3569 -7461.5493 300.1518 149.8474 256.1916 30342.4147 -291.4135 -226.3066
ENERGY: 900000 2.2121 6.1846 5.0189 0.0000 -10699.6821 1484.8653 0.0000 0.0000 1770.1706 -7431.2304 300.0304 -9201.4011 -7450.2047 299.9945 441.3215 507.1112 30235.5821 -220.8880 -157.5445
ENERGY: 1200000 3.7786 6.8731 2.8168 0.0000 -10884.0930 1531.7882 0.0000 0.0000 1789.8126 -7549.0237 303.3596 -9338.8364 -7473.6390 299.4457 559.6541 636.0803 30100.9800 -155.3189 -94.5216
ENERGY: 1500000 8.6331 7.2337 3.7460 0.0000 -10753.7242 1481.9373 0.0000 0.0000 1743.3854 -7508.7886 295.4905 -9252.1740 -7472.2428 300.2706 -0.6280 159.6793 30095.5292 -70.9184 -2.8714
TCL: Running FEP window  15: Lambda1 0.29999999999999966 Lambda2 0.24999999999999967 [dLambda -0.04999999999999999]
TCL: Setting parameter firsttimestep to 0
TCL: Setting parameter alchLambda to 0.29999999999999966
Info: NONBONDED TABLE R-SQUARED SPACING: 0.0625
Info: NONBONDED TABLE SIZE: 705 POINTS
TCL: Setting parameter alchLambda2 to 0.24999999999999967
Info: NONBONDED TABLE R-SQUARED SPACING: 0.0625
Info: NONBONDED TABLE SIZE: 705 POINTS
TCL: Running for 1500000 steps
ETITLE: TS BOND ANGLE DIHED IMPRP ELECT VDW BOUNDARY MISC KINETIC TOTAL TEMP POTENTIAL TOTALAVG TEMPAVG PRESSURE GPRESSURE VOLUME PRESSAVG GPRESSAVG
ENERGY: 0 8.6331 7.2337 3.7460 0.0000 -10753.7231 1481.5366 0.0000 0.0000 1742.5268 -7510.0469 295.3450 -9252.5737 -7510.0469 295.3450 48.9310 152.1764 30095.5292 48.9310 152.1764
ENERGY: 300000 1.5031 10.8709 10.6748 0.0000 -10776.8350 1529.2780 0.0000 0.0000 1815.0833 -7409.4248 307.6428 -9224.5081 -7457.1485 300.6545 937.3395 1038.2475 29967.8693 246.9071 335.7517
ENERGY: 600000 4.8430 9.6199 4.2016 0.0000 -10711.2972 1453.7594 0.0000 0.0000 1782.3866 -7456.4867 302.1010 -9238.8733 -7462.9100 301.0559 -105.0648 13.9994 30340.6384 180.1046 270.0365
ENERGY: 900000 6.2006 7.8188 3.3829 0.0000 -10634.5671 1425.4843 0.0000 0.0000 1752.8354 -7438.8451 297.0922 -9191.6805 -7467.9475 300.6563 -143.2873 -64.6371 30559.1625 14.6336 90.0426
ENERGY: 1200000 4.6912 8.3295 4.3780 0.0000 -10933.9420 1595.8141 0.0000 0.0000 1744.0912 -7576.6379 295.6102 -9320.7291 -7468.0226 300.3932 998.3708 1055.4725 30221.6824 47.6518 120.4343
ENERGY: 1500000 2.5934 12.0863 3.5789 0.0000 -10656.7679 1424.2035 0.0000 0.0000 1742.1657 -7472.1400 295.2838 -9214.3057 -7470.7866 299.8995 -307.2195 -176.0874 30577.9234 -1.3507 69.0799
TCL: Running FEP window  16: Lambda1 0.24999999999999967 Lambda2 0.19999999999999968 [dLambda -0.04999999999999999]
TCL: Setting parameter firsttimestep to 0
TCL: Setting parameter alchLambda to 0.24999999999999967
Info: NONBONDED TABLE R-SQUARED SPACING: 0.0625
Info: NONBONDED TABLE SIZE: 705 POINTS
TCL: Setting parameter alchLambda2 to 0.19999999999999968
Info: NONBONDED TABLE R-SQUARED SPACING: 0.0625
Info: NONBONDED TABLE SIZE: 705 POINTS
TCL: Running for 1500000 steps
ETITLE: TS BOND ANGLE DIHED IMPRP ELECT VDW BOUNDARY MISC KINETIC TOTAL TEMP POTENTIAL TOTALAVG TEMPAVG PRESSURE GPRESSURE VOLUME PRESSAVG GPRESSAVG
ENERGY: 0 2.5934 12.0863 3.5789 0.0000 -10656.7668 1424.4939 0.0000 0.0000 1741.2789 -7472.7354 295.1335 -9214.0143 -7472.7354 295.1335 -259.6066 -178.5565 30577.9234 -259.6066 -178.5565
ENERGY: 300000 4.9047 6.8847 3.8875 0.0000 -10718.4368 1430.3084 0.0000 0.0000 1746.6953 -7525.7561 296.0516 -9272.4514 -7511.1963 293.2323 -300.9812 -227.9289 30163.6563 -245.2323 -154.5997
ENERGY: 600000 5.1705 6.8342 2.9540 0.0000 -10580.4433 1335.6165 0.0000 0.0000 1754.5579 -7475.3103 297.3842 -9229.8682 -7507.7804 294.6935 -867.6078 -769.7303 30263.4539 -146.7128 -41.5383
ENERGY: 900000 1.5465 5.5698 3.2314 0.0000 -10699.9326 1508.1533 0.0000 0.0000 1819.7610 -7361.6706 308.4356 -9181.4316 -7480.8557 297.8463 542.1671 608.3716 30785.7435 -35.7026 54.0629
ENERGY: 1200000 2.7111 5.2077 3.1064 0.0000 -10747.0179 1380.4247 0.0000 0.0000 1776.4817 -7579.0864 301.1001 -9355.5680 -7494.0385 297.9619 -782.2813 -674.6419 30238.5490 -107.8213 -24.5382
ENERGY: 1500000 2.2097 16.5951 2.6203 0.0000 -10762.2358 1501.2869 0.0000 0.0000 1751.1794 -7488.3444 296.8116 -9239.5238 -7495.9481 298.1139 659.6029 716.2238 30028.7485 -86.4280 -1.4385
TCL: Running FEP window  17: Lambda1 0.19999999999999968 Lambda2 0.1499999999999997 [dLambda -0.04999999999999999]
TCL: Setting parameter firsttimestep to 0
TCL: Setting parameter alchLambda to 0.19999999999999968
Info: NONBONDED TABLE R-SQUARED SPACING: 0.0625
Info: NONBONDED TABLE SIZE: 705 POINTS
TCL: Setting parameter alchLambda2 to 0.1499999999999997
Info: NONBONDED TABLE R-SQUARED SPACING: 0.0625
Info: NONBONDED TABLE SIZE: 705 POINTS
TCL: Running for 1500000 steps
ETITLE: TS BOND ANGLE DIHED IMPRP ELECT VDW BOUNDARY MISC KINETIC TOTAL TEMP POTENTIAL TOTALAVG TEMPAVG PRESSURE GPRESSURE VOLUME PRESSAVG GPRESSAVG
ENERGY: 0 2.2097 16.5951 2.6203 0.0000 -10762.2362 1500.9923 0.0000 0.0000 1750.3249 -7489.4939 296.6667 -9239.8188 -7489.4939 296.6667 618.3333 706.8900 30028.7485 618.3333 706.8900
ENERGY: 300000 4.0287 7.5949 2.8240 0.0000 -10777.6677 1500.7247 0.0000 0.0000 1786.9644 -7475.5309 302.8769 -9262.4954 -7493.4236 297.6813 322.3632 368.9207 30576.2493 80.9804 153.3352
ENERGY: 600000 3.2777 8.8768 1.8722 0.0000 -10676.5171 1397.4385 0.0000 0.0000 1762.2037 -7502.8482 298.6801 -9265.0519 -7489.5710 297.7110 -314.0351 -284.3606 30199.4637 46.1274 105.6181
ENERGY: 900000 5.3725 11.7741 2.2450 0.0000 -10792.3531 1505.4308 0.0000 0.0000 1803.2529 -7464.2778 305.6376 -9267.5307 -7501.9779 299.3933 545.5730 559.7220 30145.9110 49.8419 108.5251
ENERGY: 1200000 1.5145 6.5742 3.3985 0.0000 -10623.7289 1421.1117 0.0000 0.0000 1738.8214 -7452.3084 294.7170 -9191.1299 -7497.2071 299.6786 23.4979 53.7345 30167.9411 16.5406 75.5284
ENERGY: 1500000 2.1025 14.3802 2.5906 0.0000 -10791.5592 1477.1148 0.0000 0.0000 1774.6759 -7520.6952 300.7941 -9295.3711 -7492.2080 299.7890 294.0136 278.0803 30170.7469 26.5605 74.1463
TCL: Running FEP window  18: Lambda1 0.1499999999999997 Lambda2 0.09999999999999969 [dLambda -0.05 ]
TCL: Setting parameter firsttimestep to 0
TCL: Setting parameter alchLambda to 0.1499999999999997
Info: NONBONDED TABLE R-SQUARED SPACING: 0.0625
Info: NONBONDED TABLE SIZE: 705 POINTS
TCL: Setting parameter alchLambda2 to 0.09999999999999969
Info: NONBONDED TABLE R-SQUARED SPACING: 0.0625
Info: NONBONDED TABLE SIZE: 705 POINTS
TCL: Running for 1500000 steps
ETITLE: TS BOND ANGLE DIHED IMPRP ELECT VDW BOUNDARY MISC KINETIC TOTAL TEMP POTENTIAL TOTALAVG TEMPAVG PRESSURE GPRESSURE VOLUME PRESSAVG GPRESSAVG
ENERGY: 0 2.1025 14.3802 2.5906 0.0000 -10791.5602 1477.1475 0.0000 0.0000 1773.7727 -7521.5667 300.6410 -9295.3394 -7521.5667 300.6410 203.6473 272.5345 30170.7469 203.6473 272.5345
ENERGY: 300000 4.6161 8.9208 4.4401 0.0000 -10693.9405 1438.7376 0.0000 0.0000 1753.6176 -7483.6084 297.2248 -9237.2259 -7480.2368 298.9813 -96.0451 1.7702 30291.4182 103.1535 167.6506
ENERGY: 600000 3.2119 7.2816 3.4017 0.0000 -10593.3424 1294.9669 0.0000 0.0000 1749.6924 -7534.7879 296.5595 -9284.4803 -7478.2361 299.7294 -1431.7291 -1359.9268 30539.1544 -112.4444 -38.4669
ENERGY: 900000 3.8873 10.0323 3.7367 0.0000 -10619.9326 1434.4046 0.0000 0.0000 1776.1435 -7391.7282 301.0428 -9167.8718 -7475.1487 300.3656 146.7808 233.6735 30763.7388 -140.4088 -66.2150
ENERGY: 1200000 0.4099 7.5747 2.0965 0.0000 -10757.0222 1494.6344 0.0000 0.0000 1797.9366 -7454.3701 304.7366 -9252.3067 -7475.4787 301.0664 415.0756 463.8483 30364.4671 -19.2458 51.6988
ENERGY: 1500000 2.6293 12.1454 3.2499 0.0000 -10719.5112 1435.7110 0.0000 0.0000 1789.3010 -7476.4745 303.2729 -9265.7755 -7476.5594 301.5908 33.2127 106.6379 30171.0016 -16.6018 53.5153
TCL: Running FEP window  19: Lambda1 0.09999999999999969 Lambda2 0.049999999999999684 [dLambda -0.05 ]
TCL: Setting parameter firsttimestep to 0
TCL: Setting parameter alchLambda to 0.09999999999999969
Info: NONBONDED TABLE R-SQUARED SPACING: 0.0625
Info: NONBONDED TABLE SIZE: 705 POINTS
TCL: Setting parameter alchLambda2 to 0.049999999999999684
Info: NONBONDED TABLE R-SQUARED SPACING: 0.0625
Info: NONBONDED TABLE SIZE: 705 POINTS
TCL: Running for 1500000 steps
ETITLE: TS BOND ANGLE DIHED IMPRP ELECT VDW BOUNDARY MISC KINETIC TOTAL TEMP POTENTIAL TOTALAVG TEMPAVG PRESSURE GPRESSURE VOLUME PRESSAVG GPRESSAVG
ENERGY: 0 2.6293 12.1454 3.2499 0.0000 -10719.5145 1435.3961 0.0000 0.0000 1788.4283 -7477.6654 303.1250 -9266.0937 -7477.6654 303.1250 7.3525 103.0782 30171.0016 7.3525 103.0782
ENERGY: 300000 4.3004 9.4883 4.4886 0.0000 -10657.2146 1429.5939 0.0000 0.0000 1793.4533 -7415.8901 303.9767 -9209.3434 -7490.1762 301.4062 -324.5071 -254.1619 30503.5415 -31.4882 59.6887
ENERGY: 600000 2.7195 10.5366 1.4871 0.0000 -10673.7135 1396.8679 0.0000 0.0000 1816.9406 -7445.1619 307.9576 -9262.1025 -7458.2558 303.8420 -294.3774 -244.7433 30145.8794 -187.1669 -102.5852
ENERGY: 900000 4.8348 6.8443 1.9898 0.0000 -10629.9086 1401.7309 0.0000 0.0000 1761.6463 -7452.8623 298.5856 -9214.5087 -7453.9997 301.2666 -397.3590 -252.8921 30129.8609 -191.9282 -110.3548
ENERGY: 1200000 4.4323 9.0369 3.8461 0.0000 -10734.9133 1472.5891 0.0000 0.0000 1755.2001 -7489.8088 297.4931 -9245.0089 -7466.6311 300.1856 210.7262 284.9040 30485.2714 -181.6177 -103.0514
ENERGY: 1500000 2.1922 9.5614 4.1431 0.0000 -10718.9981 1468.1246 0.0000 0.0000 1761.2455 -7473.7312 298.5177 -9234.9767 -7473.7176 299.4744 448.0621 532.1754 29808.3255 -133.3554 -56.4154
TCL: Running FEP window  20: Lambda1 0.049999999999999684 Lambda2 0.0    [dLambda -0.049999999999999684]
TCL: Setting parameter firsttimestep to 0
TCL: Setting parameter alchLambda to 0.049999999999999684
Info: NONBONDED TABLE R-SQUARED SPACING: 0.0625
Info: NONBONDED TABLE SIZE: 705 POINTS
TCL: Setting parameter alchLambda2 to 0.0
Info: NONBONDED TABLE R-SQUARED SPACING: 0.0625
Info: NONBONDED TABLE SIZE: 705 POINTS
TCL: Running for 1500000 steps
ETITLE: TS BOND ANGLE DIHED IMPRP ELECT VDW BOUNDARY MISC KINETIC TOTAL TEMP POTENTIAL TOTALAVG TEMPAVG PRESSURE GPRESSURE VOLUME PRESSAVG GPRESSAVG
ENERGY: 0 2.1922 9.5614 4.1431 0.0000 -10718.9984 1467.3596 0.0000 0.0000 1760.3382 -7475.4039 298.3639 -9235.7421 -7475.4039 298.3639 430.4106 528.0951 29808.3255 430.4106 528.0951
ENERGY: 300000 2.9828 11.1334 0.7800 0.0000 -10690.9814 1482.9456 0.0000 0.0000 1754.3650 -7438.7745 297.3515 -9193.1396 -7484.0175 298.0773 546.8133 565.1242 30090.8624 35.6550 102.2918
ENERGY: 600000 3.8855 8.9413 5.8550 0.0000 -10656.9078 1421.9461 0.0000 0.0000 1726.5942 -7489.6856 292.6446 -9216.2798 -7486.6890 296.8590 167.3644 254.9379 29780.5183 193.8738 263.8661
ENERGY: 900000 2.4266 9.8571 2.1546 0.0000 -10629.0257 1421.7624 0.0000 0.0000 1765.8429 -7426.9822 299.2969 -9192.8250 -7485.4236 298.0769 76.3151 176.0633 30220.3136 53.1026 121.1076
ENERGY: 1200000 2.0729 10.2415 10.9672 0.0000 -10668.4067 1397.8900 0.0000 0.0000 1719.2326 -7528.0024 291.3968 -9247.2351 -7492.3971 297.3852 -439.8435 -335.4536 30352.9621 5.9891 74.5947
ENERGY: 1500000 1.8106 7.5467 3.5571 0.0000 -10796.9273 1504.4570 0.0000 0.0000 1773.2083 -7506.3477 300.5453 -9279.5559 -7488.6343 298.5490 516.2948 636.5889 30017.2149 40.4207 111.5861
TCL: Exiting due to exit command.
