Info: SIMULATION PARAMETERS:
Info: TIMESTEP               2
Info: NUMBER OF STEPS        0
Info: STEPS PER CYCLE        10
Info: PERIODIC CELL BASIS 1  30.92 0 0
Info: PERIODIC CELL BASIS 2  0 31.6209 0
Info: PERIODIC CELL BASIS 3  0 0 31.6889
Info: PERIODIC CELL CENTER   0 0 0
Info: WRAPPING WATERS AROUND PERIODIC BOUNDARIES ON OUTPUT.
Info: WRAPPING ALL CLUSTERS AROUND PERIODIC BOUNDARIES ON OUTPUT.
Info: FIRST LDB TIMESTEP     50
Info: LAST LDB TIMESTEP     -1
Info: HOM BACKGROUND SCALING 1
Info: PME BACKGROUND SCALING 1
Info: MIN ATOMS PER PATCH    40
Info: EMPTY PATCH LOAD       40 ATOMS
Info: VELOCITY FILE          mobley_2294995_equil.vel
Info: CENTER OF MASS MOVING INITIALLY? NO
Info: DIELECTRIC             1
Info: EXCLUDE                SCALED ONE-FOUR
Info: 1-4 ELECTROSTATICS SCALED BY 0.833333
Info: MODIFIED 1-4 VDW PARAMETERS WILL BE USED
Info: DCD FILENAME           mobley_2294995_prod.dcd
Info: DCD FREQUENCY          100000
Info: DCD FIRST STEP         100000
Info: DCD FILE WILL CONTAIN UNIT CELL DATA
Info: XST FILENAME           mobley_2294995_prod.xst
Info: XST FREQUENCY          100000
Info: NO VELOCITY DCD OUTPUT
Info: NO FORCE DCD OUTPUT
Info: OUTPUT FILENAME        mobley_2294995_prod
Info: BINARY OUTPUT FILES WILL BE USED
Info: RESTART FILENAME       mobley_2294995_prod.restart
Info: RESTART FREQUENCY      100000
Info: BINARY RESTART FILES WILL BE USED
Info: CUTOFF                 9
Info: PAIRLIST DISTANCE      11
Info: PAIRLIST SHRINK RATE   0.01
Info: PAIRLIST GROW RATE     0.01
Info: PAIRLIST TRIGGER       0.3
Info: PAIRLISTS PER CYCLE    2
Info: PAIRLISTS ENABLED
Info: MARGIN                 2
Info: HYDROGEN GROUP CUTOFF  2.5
Info: PATCH DIMENSION        15.5
Info: ENERGY OUTPUT STEPS    100000
Info: ENERGY EVALUATION STEPS    100000
Info: OUTPUT ENERGY PRECISION 4
Info: CROSSTERM ENERGY INCLUDED IN DIHEDRAL
Info: TIMING OUTPUT STEPS    1000000
Info: PRESSURE OUTPUT STEPS  100000
Info: ALCHEMICAL FEP ON
Info: FEP CURRENT LAMBDA VALUE     0
Info: FEP COMPARISON LAMBDA VALUE  0.05
Info: FEP INTRA-ALCHEMICAL NON-BONDED INTERACTIONS WILL BE RETAINED
Info: FEP INTRA-ALCHEMICAL BONDED INTERACTIONS WILL BE RETAINED
Info: FEP VDW SHIFTING COEFFICIENT 5
Info: FEP ELEC. ACTIVE FOR ANNIHILATED PARTICLES BETWEEN LAMBDA = 0 AND LAMBDA = 0.5
Info: FEP ELEC. ACTIVE FOR EXNIHILATED PARTICLES BETWEEN LAMBDA = 0.5 AND LAMBDA = 1
Info: FEP VDW ACTIVE FOR ANNIHILATED PARTICLES BETWEEN LAMBDA = 0 AND LAMBDA = 1
Info: FEP VDW ACTIVE FOR EXNIHILATED PARTICLES BETWEEN LAMBDA = 0 AND LAMBDA = 1
Info: FEP BOND ACTIVE FOR ANNIHILATED PARTICLES BETWEEN LAMBDA = 1 AND LAMBDA = 1
Info: FEP BOND ACTIVE FOR EXNIHILATED PARTICLES BETWEEN LAMBDA = 0 AND LAMBDA = 0
Info: LANGEVIN DYNAMICS ACTIVE
Info: LANGEVIN TEMPERATURE   300
Info: LANGEVIN USING BBK INTEGRATOR
Info: LANGEVIN DAMPING COEFFICIENT IS 1 INVERSE PS
Info: LANGEVIN DYNAMICS APPLIED TO HYDROGENS
Info: LANGEVIN PISTON PRESSURE CONTROL ACTIVE
Info:        TARGET PRESSURE IS 1.01325 BAR
Info:     OSCILLATION PERIOD IS 50 FS
Info:             DECAY TIME IS 25 FS
Info:     PISTON TEMPERATURE IS 300 K
Info:       PRESSURE CONTROL IS GROUP-BASED
Info:    INITIAL STRAIN RATE IS -0.000430929 -0.000430929 -0.000430929
Info:       CELL FLUCTUATION IS ISOTROPIC
Info: PARTICLE MESH EWALD (PME) ACTIVE
Info: PME TOLERANCE               1e-06
Info: PME EWALD COEFFICIENT       0.348832
Info: PME INTERPOLATION ORDER     4
Info: PME GRID DIMENSIONS         32 32 32
Info: PME MAXIMUM GRID SPACING    1
Info: PME CALCULATION WILL BE PERFORMED ON GPU
Info: FULL ELECTROSTATIC EVALUATION FREQUENCY      2
Info: USING VERLET I (r-RESPA) MTS SCHEME.
Info: C1 SPLITTING OF LONG RANGE ELECTROSTATICS
Info: PLACING ATOMS IN PATCHES BY HYDROGEN GROUPS
Info: RIGID BONDS TO HYDROGEN : ALL
Info:         ERROR TOLERANCE : 1e-08
Info:          MAX ITERATIONS : 100
Info: RIGID WATER USING SETTLE ALGORITHM
Info: RANDOM NUMBER SEED     1743820033
Info: USE HYDROGEN BONDS?    NO
Info: Using AMBER format force field!
Info: AMBER PARM FILE        mobley_2294995.prmtop
Info: COORDINATE PDB         mobley_2294995.pdb
Info: Exclusions will be read from PARM file!
Info: SCNB (VDW SCALING)     2
Info: USING ARITHMETIC MEAN TO COMBINE L-J SIGMA PARAMETERS
Info: BINARY COORDINATES     mobley_2294995_equil.coor
Info: SUMMARY OF PARAMETERS:
Info: 9 BONDS
Info: 10 ANGLES
Info:   10 HARMONIC
Info:   0 COSINE-BASED
Info: 9 DIHEDRAL
Info: 0 IMPROPER
Info: 0 CROSSTERM
Info: 0 VDW
Info: 45 VDW_PAIRS
Info: 0 NBTHOLE_PAIRS
Info: To read alchdata from file: mobley_2294995.pdb
Info: To read alchflag data from column: 5
Info: STRUCTURE SUMMARY:
Info: 2999 ATOMS
Info: 2998 BONDS
Info: 16 ANGLES
Info: 20 DIHEDRALS
Info: 0 IMPROPERS
Info: 0 CROSSTERMS
Info: 3028 EXCLUSIONS
Info: 2994 RIGID BONDS
Info: ALCH: 0 ATOMS TO DISAPPEAR IN FINAL STATE
Info: ALCH: 11 ATOMS TO APPEAR IN FINAL STATE
Info: 6003 DEGREES OF FREEDOM
Info: 1001 HYDROGEN GROUPS
Info: 4 ATOMS IN LARGEST HYDROGEN GROUP
Info: 1001 MIGRATION GROUPS
Info: 4 ATOMS IN LARGEST MIGRATION GROUP
Info: TOTAL MASS = 18018 amu
Info: TOTAL CHARGE = 0.000200029 e
Info: MASS DENSITY = 0.965707 g/cm^3
Info: ATOM DENSITY = 0.0967956 atoms/A^3
Info: ADDED 0 IMPLICIT EXCLUSIONS
Info: NONBONDED TABLE R-SQUARED SPACING: 0.0625
Info: NONBONDED TABLE SIZE: 705 POINTS
Info: REMOVING COM VELOCITY 0.028327 -0.124978 0.101639
Info: Use 3D box decompostion in PME FFT.
Info: Updated CUDA force table with 4096 elements.
Info: Updated CUDA LJ table with 9 x 9 elements.
Info: Found 14 unique exclusion lists needing 24 bytes
TCL: Running for 1500000 steps
ETITLE: TS BOND ANGLE DIHED IMPRP ELECT VDW BOUNDARY MISC KINETIC TOTAL TEMP POTENTIAL TOTALAVG TEMPAVG PRESSURE GPRESSURE VOLUME PRESSAVG GPRESSAVG
ENERGY: 0 1.2150 3.5809 2.2054 0.0000 -10877.0399 1531.6503 0.0000 0.0000 1752.3565 -7586.0317 293.7951 -9338.3883 -7586.0317 293.7951 532.6173 620.4716 30982.8078 532.6173 620.4716
ENERGY: 300000 4.7403 4.6081 3.4434 0.0000 -10709.3746 1374.6039 0.0000 0.0000 1803.3302 -7518.6487 302.3412 -9321.9789 -7601.0412 298.7576 -585.3625 -547.3807 30915.0921 -181.6715 -94.8764
ENERGY: 600000 1.3200 6.8399 4.3135 0.0000 -11052.4131 1528.1469 0.0000 0.0000 1782.3435 -7729.4493 298.8226 -9511.7928 -7614.5821 299.9316 235.4736 334.9341 30533.8428 -142.3800 -64.1847
ENERGY: 900000 0.6838 2.1105 2.1766 0.0000 -10852.3967 1437.2778 0.0000 0.0000 1792.5443 -7617.6038 300.5328 -9410.1481 -7613.4778 301.1047 -272.4878 -163.1956 30724.6289 -219.7748 -150.1004
ENERGY: 1200000 0.5553 2.5047 3.7879 0.0000 -10868.9265 1501.0426 0.0000 0.0000 1773.4627 -7587.5733 297.3337 -9361.0360 -7601.9847 300.5299 641.2480 734.5504 30119.6659 -181.9325 -111.9521
ENERGY: 1500000 1.9625 5.0455 3.0832 0.0000 -10975.1564 1526.6396 0.0000 0.0000 1796.9641 -7641.4615 301.2739 -9438.4256 -7604.4434 300.5062 497.4801 529.2795 30503.3346 -75.7875 -5.0141
TCL: Running FEP window   2: Lambda1 0.05   Lambda2 0.1    [dLambda 0.05  ]
TCL: Setting parameter firsttimestep to 0
TCL: Setting parameter alchLambda to 0.05
Info: NONBONDED TABLE R-SQUARED SPACING: 0.0625
Info: NONBONDED TABLE SIZE: 705 POINTS
TCL: Setting parameter alchLambda2 to 0.1
Info: NONBONDED TABLE R-SQUARED SPACING: 0.0625
Info: NONBONDED TABLE SIZE: 705 POINTS
TCL: Running for 1500000 steps
ETITLE: TS BOND ANGLE DIHED IMPRP ELECT VDW BOUNDARY MISC KINETIC TOTAL TEMP POTENTIAL TOTALAVG TEMPAVG PRESSURE GPRESSURE VOLUME PRESSAVG GPRESSAVG
ENERGY: 0 1.9625 5.0455 3.0832 0.0000 -10975.1561 1528.2401 0.0000 0.0000 1796.0783 -7640.7465 301.1253 -9436.8248 -7640.7465 301.1253 445.1163 534.6640 30503.3346 445.1163 534.6640
ENERGY: 300000 3.3278 3.4808 2.9861 0.0000 -10734.8302 1394.8636 0.0000 0.0000 1816.4945 -7513.6774 304.5483 -9330.1719 -7617.5540 299.5740 -501.7026 -386.8067 31101.4186 -42.9274 27.2480
ENERGY: 600000 1.1171 4.7899 3.0596 0.0000 -10768.9897 1436.3626 0.0000 0.0000 1816.7798 -7506.8806 304.5961 -9323.6604 -7614.1393 300.3543 -155.9680 -55.3186 31181.1292 -160.6035 -79.7895
ENERGY: 900000 1.6474 4.6749 4.0516 0.0000 -10882.7679 1449.0246 0.0000 0.0000 1756.6042 -7666.7651 294.5072 -9423.3694 -7616.5400 299.9487 -27.7444 -21.6090 30578.7038 -185.2375 -117.5776
ENERGY: 1200000 1.4676 2.5788 1.6127 0.0000 -11083.4390 1591.7355 0.0000 0.0000 1806.6212 -7679.4232 302.8929 -9486.0443 -7622.7939 300.9291 559.0297 631.5354 30904.9225 -124.7948 -59.6512
ENERGY: 1500000 0.4443 6.3444 3.8471 0.0000 -10982.3303 1557.9808 0.0000 0.0000 1790.2855 -7623.4282 300.1541 -9413.7137 -7617.7405 301.2871 774.4249 828.5825 30581.4511 -107.6078 -41.5047
TCL: Running FEP window   3: Lambda1 0.1    Lambda2 0.15000000000000002 [dLambda 0.05000000000000002]
TCL: Setting parameter firsttimestep to 0
TCL: Setting parameter alchLambda to 0.1
Info: NONBONDED TABLE R-SQUARED SPACING: 0.0625
Info: NONBONDED TABLE SIZE: 705 POINTS
TCL: Setting parameter alchLambda2 to 0.15000000000000002
Info: NONBONDED TABLE R-SQUARED SPACING: 0.0625
Info: NONBONDED TABLE SIZE: 705 POINTS
TCL: Running for 1500000 steps
ETITLE: TS BOND ANGLE DIHED IMPRP ELECT VDW BOUNDARY MISC KINETIC TOTAL TEMP POTENTIAL TOTALAVG TEMPAVG PRESSURE GPRESSURE VOLUME PRESSAVG GPRESSAVG
ENERGY: 0 0.4443 6.3444 3.8471 0.0000 -10982.3303 1558.7977 0.0000 0.0000 1789.3693 -7623.5275 300.0005 -9412.8968 -7623.5275 300.0005 738.8184 835.5881 30581.4511 738.8184 835.5881
ENERGY: 300000 2.3697 5.4449 2.9212 0.0000 -10997.6769 1518.0131 0.0000 0.0000 1714.4082 -7754.5197 287.4328 -9468.9279 -7685.7773 294.3976 628.2639 548.4097 30426.9480 274.8946 306.8723
ENERGY: 600000 0.6111 6.5682 2.5321 0.0000 -10897.0568 1423.6255 0.0000 0.0000 1804.1473 -7659.5727 302.4782 -9463.7200 -7679.3490 296.7266 -571.3516 -479.8440 30800.3580 146.9597 184.0911
ENERGY: 900000 0.1088 4.1294 2.9726 0.0000 -10798.9920 1391.1939 0.0000 0.0000 1842.3019 -7558.2854 308.8751 -9400.5873 -7655.3588 298.6946 -603.2234 -500.1492 30884.9735 62.3423 110.7179
ENERGY: 1200000 1.4122 3.9907 3.5214 0.0000 -11030.3081 1570.1359 0.0000 0.0000 1768.1835 -7683.0644 296.4486 -9451.2479 -7644.0284 299.8253 509.7868 544.5878 30896.1980 95.9688 143.2203
ENERGY: 1500000 2.0347 1.5104 3.4026 0.0000 -10963.9235 1470.3000 0.0000 0.0000 1789.1097 -7697.5660 299.9570 -9486.6757 -7644.5833 300.3308 -12.3451 -73.6293 30744.8121 49.9712 92.3355
TCL: Running FEP window   4: Lambda1 0.15000000000000002 Lambda2 0.2    [dLambda 0.04999999999999999]
TCL: Setting parameter firsttimestep to 0
TCL: Setting parameter alchLambda to 0.15000000000000002
Info: NONBONDED TABLE R-SQUARED SPACING: 0.0625
Info: NONBONDED TABLE SIZE: 705 POINTS
TCL: Setting parameter alchLambda2 to 0.2
Info: NONBONDED TABLE R-SQUARED SPACING: 0.0625
Info: NONBONDED TABLE SIZE: 705 POINTS
TCL: Running for 1500000 steps
ETITLE: TS BOND ANGLE DIHED IMPRP ELECT VDW BOUNDARY MISC KINETIC TOTAL TEMP POTENTIAL TOTALAVG TEMPAVG PRESSURE GPRESSURE VOLUME PRESSAVG GPRESSAVG
ENERGY: 0 2.0347 1.5104 3.4026 0.0000 -10963.9230 1470.0922 0.0000 0.0000 1788.1820 -7698.7011 299.8015 -9486.8830 -7698.7011 299.8015 -137.4959 -73.3992 30744.8121 -137.4959 -73.3992
ENERGY: 300000 2.3919 4.4629 1.6113 0.0000 -10928.3412 1509.3694 0.0000 0.0000 1764.4557 -7646.0499 295.8236 -9410.5057 -7629.8065 299.6151 471.9474 601.1990 30345.5017 560.1455 612.2826
ENERGY: 600000 1.6165 3.0039 3.6159 0.0000 -10864.7776 1505.0183 0.0000 0.0000 1737.9936 -7613.5295 291.3870 -9351.5231 -7612.9468 300.5889 419.2460 473.8222 30982.2100 390.2345 456.3214
ENERGY: 900000 1.2198 3.2252 3.7441 0.0000 -10928.6797 1481.4616 0.0000 0.0000 1795.7151 -7643.3138 301.0645 -9439.0290 -7612.7566 299.4482 357.4651 375.2571 30280.8025 328.3578 380.8687
ENERGY: 1200000 1.0428 3.3943 3.5906 0.0000 -10928.9554 1482.8063 0.0000 0.0000 1808.9687 -7629.1528 303.2865 -9438.1215 -7605.0674 300.2203 -16.5359 52.0224 30720.2123 221.4106 272.3273
ENERGY: 1500000 0.8497 5.1416 4.0272 0.0000 -10945.6692 1478.9786 0.0000 0.0000 1794.5329 -7662.1391 300.8662 -9456.6720 -7610.8227 300.2322 -193.2749 -155.4567 31013.6857 132.3852 190.2108
TCL: Running FEP window   5: Lambda1 0.2    Lambda2 0.25   [dLambda 0.04999999999999999]
TCL: Setting parameter firsttimestep to 0
TCL: Setting parameter alchLambda to 0.2
Info: NONBONDED TABLE R-SQUARED SPACING: 0.0625
Info: NONBONDED TABLE SIZE: 705 POINTS
TCL: Setting parameter alchLambda2 to 0.25
Info: NONBONDED TABLE R-SQUARED SPACING: 0.0625
Info: NONBONDED TABLE SIZE: 705 POINTS
TCL: Running for 1500000 steps
ETITLE: TS BOND ANGLE DIHED IMPRP ELECT VDW BOUNDARY MISC KINETIC TOTAL TEMP POTENTIAL TOTALAVG TEMPAVG PRESSURE GPRESSURE VOLUME PRESSAVG GPRESSAVG
ENERGY: 0 0.8497 5.1416 4.0272 0.0000 -10945.6693 1479.4193 0.0000 0.0000 1793.6542 -7662.5773 300.7189 -9456.2315 -7662.5773 300.7189 -227.4267 -149.2882 31013.6857 -227.4267 -149.2882
ENERGY: 300000 0.6527 5.2330 4.5852 0.0000 -10769.7139 1404.8423 0.0000 0.0000 1817.9363 -7536.4643 304.7900 -9354.4007 -7576.6837 301.7781 -465.6278 -423.0174 31168.9372 -270.8901 -212.5919
ENERGY: 600000 1.3686 4.2889 2.9864 0.0000 -10807.8576 1412.4526 0.0000 0.0000 1820.8496 -7565.9116 305.2784 -9386.7611 -7580.9311 302.1248 -267.9354 -209.1572 30859.3361 -386.4038 -317.9684
ENERGY: 900000 2.8043 5.9579 2.3133 0.0000 -10861.4662 1462.1744 0.0000 0.0000 1751.4537 -7636.7627 293.6437 -9388.2164 -7608.5957 301.3809 10.6811 27.5747 30725.1684 -352.9962 -291.0981
ENERGY: 1200000 3.9375 3.8648 2.1497 0.0000 -10714.6291 1345.0858 0.0000 0.0000 1771.8091 -7587.7823 297.0564 -9359.5913 -7598.9866 301.2485 -1099.3695 -1056.9959 31757.5791 -381.3115 -323.2318
ENERGY: 1500000 0.5226 2.9997 3.4303 0.0000 -10798.2979 1466.1263 0.0000 0.0000 1758.5276 -7566.6913 294.8297 -9325.2189 -7594.0952 301.3291 -66.0901 63.1798 31269.7328 -297.2787 -235.4202
TCL: Running FEP window   6: Lambda1 0.25   Lambda2 0.3    [dLambda 0.04999999999999999]
TCL: Setting parameter firsttimestep to 0
TCL: Setting parameter alchLambda to 0.25
Info: NONBONDED TABLE R-SQUARED SPACING: 0.0625
Info: NONBONDED TABLE SIZE: 705 POINTS
TCL: Setting parameter alchLambda2 to 0.3
Info: NONBONDED TABLE R-SQUARED SPACING: 0.0625
Info: NONBONDED TABLE SIZE: 705 POINTS
TCL: Running for 1500000 steps
ETITLE: TS BOND ANGLE DIHED IMPRP ELECT VDW BOUNDARY MISC KINETIC TOTAL TEMP POTENTIAL TOTALAVG TEMPAVG PRESSURE GPRESSURE VOLUME PRESSAVG GPRESSAVG
ENERGY: 0 0.5226 2.9997 3.4303 0.0000 -10798.2977 1466.4400 0.0000 0.0000 1757.6087 -7567.2964 294.6756 -9324.9051 -7567.2964 294.6756 -24.2907 68.2549 31269.7328 -24.2907 68.2549
ENERGY: 300000 0.8152 3.8509 3.5463 0.0000 -10844.8293 1440.9079 0.0000 0.0000 1767.7889 -7627.9202 296.3824 -9395.7091 -7615.3612 297.0922 -115.4725 -46.9415 30661.6991 169.7979 239.1086
ENERGY: 600000 0.6235 5.3681 3.3296 0.0000 -10789.2127 1440.3185 0.0000 0.0000 1687.5822 -7651.9908 282.9352 -9339.5731 -7632.4520 294.7994 -46.6740 -93.4149 31393.9118 52.0197 93.0452
ENERGY: 900000 4.6299 2.8817 2.6130 0.0000 -10931.8638 1445.4452 0.0000 0.0000 1766.5944 -7709.6996 296.1821 -9476.2939 -7640.7324 295.2425 -182.5851 -156.0201 30599.9558 1.5561 47.0287
ENERGY: 1200000 0.4895 2.0730 3.6904 0.0000 -10715.3393 1357.4521 0.0000 0.0000 1791.5705 -7560.0638 300.3696 -9351.6343 -7624.2513 297.5102 -777.4404 -697.7191 31303.2447 -97.7709 -44.1404
ENERGY: 1500000 0.6820 6.0903 2.7702 0.0000 -10919.7220 1491.6197 0.0000 0.0000 1753.9663 -7664.5935 294.0650 -9418.5598 -7629.8118 297.3033 421.8355 477.6643 30364.0746 -111.9741 -59.6071
TCL: Running FEP window   7: Lambda1 0.3    Lambda2 0.35   [dLambda 0.04999999999999999]
TCL: Setting parameter firsttimestep to 0
TCL: Setting parameter alchLambda to 0.3
Info: NONBONDED TABLE R-SQUARED SPACING: 0.0625
Info: NONBONDED TABLE SIZE: 705 POINTS
TCL: Setting parameter alchLambda2 to 0.35
Info: NONBONDED TABLE R-SQUARED SPACING: 0.0625
Info: NONBONDED TABLE SIZE: 705 POINTS
TCL: Running for 1500000 steps
ETITLE: TS BOND ANGLE DIHED IMPRP ELECT VDW BOUNDARY MISC KINETIC TOTAL TEMP POTENTIAL TOTALAVG TEMPAVG PRESSURE GPRESSURE VOLUME PRESSAVG GPRESSAVG
ENERGY: 0 0.6820 6.0903 2.7702 0.0000 -10919.7239 1491.3905 0.0000 0.0000 1753.0849 -7665.7061 293.9172 -9418.7910 -7665.7061 293.9172 397.5190 479.2908 30364.0746 397.5190 479.2908
ENERGY: 300000 0.8413 3.8172 2.6562 0.0000 -10952.5436 1509.5694 0.0000 0.0000 1838.8622 -7596.7972 308.2984 -9435.6595 -7616.1274 302.4821 410.5849 474.9083 30453.1268 237.2760 311.0718
ENERGY: 600000 1.2895 3.4533 1.3468 0.0000 -10877.6834 1433.4070 0.0000 0.0000 1820.1563 -7618.0305 305.1622 -9438.1868 -7599.5465 302.9681 -240.5714 -201.7958 30807.0728 104.2004 151.4476
ENERGY: 900000 2.8548 4.6470 3.1423 0.0000 -10836.3980 1454.2976 0.0000 0.0000 1786.1183 -7585.3380 299.4555 -9371.4563 -7599.9607 301.8907 -157.4100 -108.1827 31273.9071 154.1822 205.1400
ENERGY: 1200000 0.4050 4.5516 3.5029 0.0000 -10747.1924 1369.7984 0.0000 0.0000 1821.7201 -7547.2144 305.4244 -9368.9345 -7595.0733 302.6801 -635.2220 -507.9881 30896.2795 101.0011 164.7887
ENERGY: 1500000 2.0310 3.5720 2.7643 0.0000 -10852.6067 1467.7982 0.0000 0.0000 1763.0166 -7613.4247 295.5823 -9376.4413 -7585.1576 302.7004 162.1368 234.3526 31059.0295 35.0006 101.6435
TCL: Running FEP window   8: Lambda1 0.35   Lambda2 0.39999999999999997 [dLambda 0.04999999999999999]
TCL: Setting parameter firsttimestep to 0
TCL: Setting parameter alchLambda to 0.35
Info: NONBONDED TABLE R-SQUARED SPACING: 0.0625
Info: NONBONDED TABLE SIZE: 705 POINTS
TCL: Setting parameter alchLambda2 to 0.39999999999999997
Info: NONBONDED TABLE R-SQUARED SPACING: 0.0625
Info: NONBONDED TABLE SIZE: 705 POINTS
TCL: Running for 1500000 steps
ETITLE: TS BOND ANGLE DIHED IMPRP ELECT VDW BOUNDARY MISC KINETIC TOTAL TEMP POTENTIAL TOTALAVG TEMPAVG PRESSURE GPRESSURE VOLUME PRESSAVG GPRESSAVG
ENERGY: 0 2.0310 3.5720 2.7643 0.0000 -10852.6070 1468.5222 0.0000 0.0000 1762.1277 -7613.5899 295.4333 -9375.7176 -7613.5899 295.4333 176.6111 242.4540 31059.0295 176.6111 242.4540
ENERGY: 300000 2.0809 3.7276 5.2560 0.0000 -10827.1198 1450.9858 0.0000 0.0000 1801.6540 -7563.4155 302.0601 -9365.0694 -7592.0316 302.4626 278.1225 346.7291 30580.3698 291.3187 348.3139
ENERGY: 600000 0.7065 3.2388 2.2451 0.0000 -10841.6756 1460.8924 0.0000 0.0000 1772.5964 -7601.9964 297.1884 -9374.5928 -7610.8028 300.6628 -104.7764 -6.7698 31303.3272 262.2677 330.5865
ENERGY: 900000 2.0452 2.1953 3.0140 0.0000 -10979.5850 1490.2615 0.0000 0.0000 1778.0029 -7704.0662 298.0949 -9482.0690 -7622.1735 300.8082 -1.0910 137.6010 30541.0796 322.4928 387.7598
ENERGY: 1200000 0.2818 3.9926 3.0776 0.0000 -10945.3110 1466.5144 0.0000 0.0000 1786.7146 -7684.7300 299.5554 -9471.4445 -7619.6200 301.9638 -155.4540 -115.8877 30818.3843 267.7171 332.9845
ENERGY: 1500000 1.2771 2.1649 2.5108 0.0000 -10859.9216 1452.7966 0.0000 0.0000 1846.7499 -7554.4223 309.6208 -9401.1722 -7610.1767 302.3407 -171.6379 -125.5321 31131.7318 164.5707 224.2600
TCL: Running FEP window   9: Lambda1 0.39999999999999997 Lambda2 0.44999999999999996 [dLambda 0.04999999999999999]
TCL: Setting parameter firsttimestep to 0
TCL: Setting parameter alchLambda to 0.39999999999999997
Info: NONBONDED TABLE R-SQUARED SPACING: 0.0625
Info: NONBONDED TABLE SIZE: 705 POINTS
TCL: Setting parameter alchLambda2 to 0.44999999999999996
Info: NONBONDED TABLE R-SQUARED SPACING: 0.0625
Info: NONBONDED TABLE SIZE: 705 POINTS
TCL: Running for 1500000 steps
ETITLE: TS BOND ANGLE DIHED IMPRP ELECT VDW BOUNDARY MISC KINETIC TOTAL TEMP POTENTIAL TOTALAVG TEMPAVG PRESSURE GPRESSURE VOLUME PRESSAVG GPRESSAVG
ENERGY: 0 1.2771 2.1649 2.5108 0.0000 -10859.9203 1453.2462 0.0000 0.0000 1845.8760 -7554.8452 309.4743 -9400.7213 -7554.8452 309.4743 -207.4903 -122.1553 31131.7318 -207.4903 -122.1553
ENERGY: 300000 0.2510 5.1123 3.6311 0.0000 -10689.4958 1349.2496 0.0000 0.0000 1802.8675 -7528.3842 302.2636 -9331.2517 -7552.9216 302.9014 -740.1498 -677.0712 31009.9579 -299.2933 -215.5065
ENERGY: 600000 1.6966 3.9304 4.4870 0.0000 -10806.1128 1362.4835 0.0000 0.0000 1804.7649 -7628.7504 302.5817 -9433.5153 -7591.6192 301.7823 -413.2030 -390.0590 30425.6135 -116.3983 -43.3895
ENERGY: 900000 0.2756 2.9032 3.3347 0.0000 -10844.0892 1432.5740 0.0000 0.0000 1850.4411 -7554.5607 310.2397 -9405.0018 -7608.2082 301.4029 -169.1834 -97.1561 31017.1114 -231.9327 -164.2477
ENERGY: 1200000 1.6102 6.1029 4.2580 0.0000 -10815.2358 1409.5831 0.0000 0.0000 1791.2781 -7602.4035 300.3206 -9393.6816 -7599.3773 300.7442 -67.1934 -87.1026 30425.0731 -191.7486 -132.7539
ENERGY: 1500000 1.1844 2.8033 3.2911 0.0000 -10860.2009 1479.7309 0.0000 0.0000 1788.0603 -7585.1310 299.7811 -9373.1912 -7602.5197 300.3275 114.3565 102.0878 31189.0355 -109.8855 -48.8690
TCL: Running FEP window  10: Lambda1 0.44999999999999996 Lambda2 0.49999999999999994 [dLambda 0.04999999999999999]
TCL: Setting parameter firsttimestep to 0
TCL: Setting parameter alchLambda to 0.44999999999999996
Info: NONBONDED TABLE R-SQUARED SPACING: 0.0625
Info: NONBONDED TABLE SIZE: 705 POINTS
TCL: Setting parameter alchLambda2 to 0.49999999999999994
Info: NONBONDED TABLE R-SQUARED SPACING: 0.0625
Info: NONBONDED TABLE SIZE: 705 POINTS
TCL: Running for 1500000 steps
ETITLE: TS BOND ANGLE DIHED IMPRP ELECT VDW BOUNDARY MISC KINETIC TOTAL TEMP POTENTIAL TOTALAVG TEMPAVG PRESSURE GPRESSURE VOLUME PRESSAVG GPRESSAVG
ENERGY: 0 1.1844 2.8033 3.2911 0.0000 -10860.2001 1479.8680 0.0000 0.0000 1787.1605 -7585.8928 299.6302 -9373.0534 -7585.8928 299.6302 35.5053 110.7266 31189.0355 35.5053 110.7266
ENERGY: 300000 2.1816 6.5849 2.3461 0.0000 -10969.1929 1530.4077 0.0000 0.0000 1798.4028 -7629.2698 301.5151 -9427.6726 -7641.1653 299.8561 306.0391 468.1839 31101.0219 177.7828 262.3606
ENERGY: 600000 0.3242 5.0501 3.4164 0.0000 -10930.0312 1460.2479 0.0000 0.0000 1806.7495 -7654.2430 302.9145 -9460.9926 -7635.3992 298.8884 -333.5505 -255.1495 30875.2288 186.0056 257.4725
ENERGY: 900000 5.5843 2.6217 1.8847 0.0000 -10919.1250 1469.4553 0.0000 0.0000 1816.7580 -7622.8209 304.5924 -9439.5789 -7634.2078 300.2265 -233.1352 -167.0540 31007.1129 196.5127 262.7923
ENERGY: 1200000 2.0200 7.8063 2.2886 0.0000 -10965.6743 1589.5738 0.0000 0.0000 1778.5551 -7585.4305 298.1875 -9363.9856 -7623.4114 299.6745 1037.1171 1110.7167 30736.3938 291.6811 354.8400
ENERGY: 1500000 1.2019 2.1410 2.8631 0.0000 -10850.1323 1422.2008 0.0000 0.0000 1820.7582 -7600.9674 305.2631 -9421.7255 -7621.5787 299.8177 -287.5822 -267.4918 30901.7937 147.4538 207.8172
TCL: Running FEP window  11: Lambda1 0.49999999999999994 Lambda2 0.5499999999999999 [dLambda 0.04999999999999999]
TCL: Setting parameter firsttimestep to 0
TCL: Setting parameter alchLambda to 0.49999999999999994
Info: NONBONDED TABLE R-SQUARED SPACING: 0.0625
Info: NONBONDED TABLE SIZE: 705 POINTS
TCL: Setting parameter alchLambda2 to 0.5499999999999999
Info: NONBONDED TABLE R-SQUARED SPACING: 0.0625
Info: NONBONDED TABLE SIZE: 705 POINTS
TCL: Running for 1500000 steps
ETITLE: TS BOND ANGLE DIHED IMPRP ELECT VDW BOUNDARY MISC KINETIC TOTAL TEMP POTENTIAL TOTALAVG TEMPAVG PRESSURE GPRESSURE VOLUME PRESSAVG GPRESSAVG
ENERGY: 0 1.2019 2.1410 2.8631 0.0000 -10850.1329 1422.3008 0.0000 0.0000 1819.8753 -7601.7508 305.1151 -9421.6261 -7601.7508 305.1151 -336.5873 -262.3618 30901.7937 -336.5873 -262.3618
ENERGY: 300000 1.1598 3.6832 3.3419 0.0000 -10969.0584 1549.6056 0.0000 0.0000 1829.3464 -7581.9215 306.7030 -9411.2679 -7596.6380 302.3799 882.1716 851.4318 30476.5899 63.1576 101.2896
ENERGY: 600000 1.1686 2.0803 4.3585 0.0000 -10898.3672 1416.9159 0.0000 0.0000 1816.3251 -7657.5189 304.5199 -9473.8439 -7597.9274 302.1993 -446.2377 -340.9068 30693.9648 30.1295 84.2244
ENERGY: 900000 1.3967 2.4783 2.2272 0.0000 -10833.4968 1434.2135 0.0000 0.0000 1836.3150 -7556.8661 307.8713 -9393.1811 -7609.8269 301.9809 -267.4824 -214.2294 30944.5512 -110.3210 -54.4951
ENERGY: 1200000 0.3644 5.0140 3.0481 0.0000 -10792.0974 1418.3622 0.0000 0.0000 1784.0461 -7581.2627 299.1081 -9365.3087 -7616.6865 302.0533 -190.0109 -141.8019 30828.0896 -46.1398 7.7450
ENERGY: 1500000 2.2934 3.3232 2.6606 0.0000 -11030.2329 1536.1678 0.0000 0.0000 1754.0568 -7731.7311 294.0801 -9485.7879 -7623.9688 300.9021 381.2546 430.3204 30632.0803 -24.6660 29.6116
TCL: Running FEP window  12: Lambda1 0.5499999999999999 Lambda2 0.6    [dLambda 0.050000000000000044]
TCL: Setting parameter firsttimestep to 0
TCL: Setting parameter alchLambda to 0.5499999999999999
Info: NONBONDED TABLE R-SQUARED SPACING: 0.0625
Info: NONBONDED TABLE SIZE: 705 POINTS
TCL: Setting parameter alchLambda2 to 0.6
Info: NONBONDED TABLE R-SQUARED SPACING: 0.0625
Info: NONBONDED TABLE SIZE: 705 POINTS
TCL: Running for 1500000 steps
ETITLE: TS BOND ANGLE DIHED IMPRP ELECT VDW BOUNDARY MISC KINETIC TOTAL TEMP POTENTIAL TOTALAVG TEMPAVG PRESSURE GPRESSURE VOLUME PRESSAVG GPRESSAVG
ENERGY: 0 2.2934 3.3232 2.6606 0.0000 -11029.7065 1536.5667 0.0000 0.0000 1753.1827 -7731.6799 293.9336 -9484.8627 -7731.6799 293.9336 370.4008 440.0962 30632.0803 370.4008 440.0962
ENERGY: 300000 3.6540 2.7901 2.0629 0.0000 -10916.1808 1501.1059 0.0000 0.0000 1755.1706 -7651.3974 294.2669 -9406.5680 -7676.8854 297.3786 59.1499 90.4708 31118.8199 274.3461 322.4340
ENERGY: 600000 1.1497 3.4538 2.5735 0.0000 -11091.6569 1551.3682 0.0000 0.0000 1814.2508 -7718.8609 304.1721 -9533.1117 -7655.5210 300.5277 402.7629 421.3964 30457.4055 189.1453 244.5344
ENERGY: 900000 1.4548 4.2345 3.8828 0.0000 -11012.8607 1552.1530 0.0000 0.0000 1784.5057 -7666.6300 299.1851 -9451.1356 -7640.6747 300.1856 611.4633 639.6472 30718.9754 165.9868 221.1001
ENERGY: 1200000 3.5180 3.6201 3.3278 0.0000 -10936.8215 1452.8913 0.0000 0.0000 1799.7452 -7673.7191 301.7401 -9473.4643 -7644.2644 300.3111 -143.7746 -52.8622 30468.2848 130.3103 186.8041
ENERGY: 1500000 0.9746 3.2247 2.8065 0.0000 -10937.2281 1454.7452 0.0000 0.0000 1706.4393 -7769.0378 286.0967 -9475.4771 -7652.2766 299.6841 -351.1915 -296.8721 30951.3215 57.0668 115.4336
TCL: Running FEP window  13: Lambda1 0.6    Lambda2 0.65   [dLambda 0.050000000000000044]
TCL: Setting parameter firsttimestep to 0
TCL: Setting parameter alchLambda to 0.6
Info: NONBONDED TABLE R-SQUARED SPACING: 0.0625
Info: NONBONDED TABLE SIZE: 705 POINTS
TCL: Setting parameter alchLambda2 to 0.65
Info: NONBONDED TABLE R-SQUARED SPACING: 0.0625
Info: NONBONDED TABLE SIZE: 705 POINTS
TCL: Running for 1500000 steps
ETITLE: TS BOND ANGLE DIHED IMPRP ELECT VDW BOUNDARY MISC KINETIC TOTAL TEMP POTENTIAL TOTALAVG TEMPAVG PRESSURE GPRESSURE VOLUME PRESSAVG GPRESSAVG
ENERGY: 0 0.9746 3.2247 2.8065 0.0000 -10937.7356 1454.9928 0.0000 0.0000 1705.5854 -7770.1516 285.9536 -9475.7370 -7770.1516 285.9536 -364.0019 -288.8417 30951.3215 -364.0019 -288.8417
ENERGY: 300000 0.2246 3.3710 3.2555 0.0000 -10790.7412 1459.7079 0.0000 0.0000 1785.6100 -7538.5722 299.3703 -9324.1822 -7651.0968 297.0214 341.5655 397.8804 30823.4335 276.7422 339.5615
ENERGY: 600000 1.2150 2.5561 3.1106 0.0000 -10789.6162 1359.0934 0.0000 0.0000 1776.3173 -7647.3238 297.8123 -9423.6410 -7634.8597 298.1915 -907.0174 -871.3817 31185.8527 75.8937 131.5515
ENERGY: 900000 1.9661 2.7806 3.6124 0.0000 -10988.8774 1514.1853 0.0000 0.0000 1805.2585 -7661.0745 302.6645 -9466.3330 -7623.4466 300.6921 -71.6871 -24.2058 31179.4683 71.6113 132.8084
ENERGY: 1200000 0.5378 3.5383 4.0481 0.0000 -10893.8192 1426.5861 0.0000 0.0000 1822.0132 -7637.0956 305.4735 -9459.1089 -7618.4260 302.3440 -255.7869 -205.9645 30564.9444 66.8123 129.8828
ENERGY: 1500000 1.9406 3.3591 3.3885 0.0000 -10938.8174 1468.3300 0.0000 0.0000 1776.2211 -7685.5781 297.7961 -9461.7992 -7623.8648 302.4689 -31.6568 -50.2254 30983.4215 52.1645 106.8806
TCL: Running FEP window  14: Lambda1 0.65   Lambda2 0.7000000000000001 [dLambda 0.050000000000000044]
TCL: Setting parameter firsttimestep to 0
TCL: Setting parameter alchLambda to 0.65
Info: NONBONDED TABLE R-SQUARED SPACING: 0.0625
Info: NONBONDED TABLE SIZE: 705 POINTS
TCL: Setting parameter alchLambda2 to 0.7000000000000001
Info: NONBONDED TABLE R-SQUARED SPACING: 0.0625
Info: NONBONDED TABLE SIZE: 705 POINTS
TCL: Running for 1500000 steps
ETITLE: TS BOND ANGLE DIHED IMPRP ELECT VDW BOUNDARY MISC KINETIC TOTAL TEMP POTENTIAL TOTALAVG TEMPAVG PRESSURE GPRESSURE VOLUME PRESSAVG GPRESSAVG
ENERGY: 0 1.9406 3.3591 3.3885 0.0000 -10938.7470 1468.5025 0.0000 0.0000 1775.3362 -7686.2200 297.6478 -9461.5563 -7686.2200 297.6478 -119.7253 -45.6200 30983.4215 -119.7253 -45.6200
ENERGY: 300000 1.1325 4.9970 2.9253 0.0000 -10794.5609 1353.2396 0.0000 0.0000 1791.7163 -7640.5503 300.3940 -9432.2665 -7654.1059 300.8804 -882.7015 -834.5024 31033.9236 -185.3525 -110.4301
ENERGY: 600000 0.5018 3.4774 2.7090 0.0000 -11051.3913 1516.8087 0.0000 0.0000 1761.6911 -7766.2033 295.3601 -9527.8944 -7680.9963 299.6594 34.0296 116.6767 30513.9384 -117.8418 -41.8164
ENERGY: 900000 1.0632 7.9265 3.4355 0.0000 -10932.9832 1499.4824 0.0000 0.0000 1753.3807 -7667.6948 293.9668 -9421.0755 -7662.1510 299.1047 336.9968 471.5168 30232.8156 -26.0883 57.7437
ENERGY: 1200000 0.4051 4.3860 2.5061 0.0000 -10833.4484 1457.5909 0.0000 0.0000 1778.1366 -7590.4238 298.1173 -9368.5604 -7648.4064 298.4344 89.4415 176.0673 30747.8310 -13.2747 69.7191
ENERGY: 1500000 1.6248 5.8130 2.7627 0.0000 -10722.6240 1415.2902 0.0000 0.0000 1785.5607 -7511.5726 299.3620 -9297.1333 -7638.8657 299.0251 -41.4322 -1.6414 31289.0952 -71.1285 5.2178
TCL: Running FEP window  15: Lambda1 0.7000000000000001 Lambda2 0.7500000000000001 [dLambda 0.050000000000000044]
TCL: Setting parameter firsttimestep to 0
TCL: Setting parameter alchLambda to 0.7000000000000001
Info: NONBONDED TABLE R-SQUARED SPACING: 0.0625
Info: NONBONDED TABLE SIZE: 705 POINTS
TCL: Setting parameter alchLambda2 to 0.7500000000000001
Info: NONBONDED TABLE R-SQUARED SPACING: 0.0625
Info: NONBONDED TABLE SIZE: 705 POINTS
TCL: Running for 1500000 steps
ETITLE: TS BOND ANGLE DIHED IMPRP ELECT VDW BOUNDARY MISC KINETIC TOTAL TEMP POTENTIAL TOTALAVG TEMPAVG PRESSURE GPRESSURE VOLUME PRESSAVG GPRESSAVG
ENERGY: 0 1.6248 5.8130 2.7627 0.0000 -10723.9704 1415.5427 0.0000 0.0000 1784.6608 -7513.5665 299.2111 -9298.2273 -7513.5665 299.2111 -89.5525 3.0355 31289.0952 -89.5525 3.0355
ENERGY: 300000 3.6019 4.8283 2.6568 0.0000 -10912.6730 1516.6342 0.0000 0.0000 1775.4288 -7609.5231 297.6633 -9384.9519 -7620.3472 299.0845 654.7718 689.5143 30624.7659 152.7407 197.5704
ENERGY: 600000 1.0757 5.3727 3.1934 0.0000 -10973.2541 1530.4182 0.0000 0.0000 1852.8470 -7580.3471 310.6430 -9433.1942 -7608.7718 301.2764 365.9854 358.8138 31148.9916 221.2327 267.4525
ENERGY: 900000 0.4072 2.1809 3.0157 0.0000 -10787.3565 1356.5868 0.0000 0.0000 1770.6188 -7654.5470 296.8569 -9425.1658 -7622.1887 301.1147 -814.0646 -704.7465 30921.5391 85.7525 137.6017
ENERGY: 1200000 1.0657 4.1105 2.0596 0.0000 -10799.7080 1403.5989 0.0000 0.0000 1849.0607 -7539.8127 310.0082 -9388.8734 -7606.6115 302.1500 -376.0103 -320.0756 31120.6422 40.0873 89.8606
ENERGY: 1500000 2.5441 1.6946 2.0965 0.0000 -10984.7482 1580.0761 0.0000 0.0000 1829.5143 -7568.8227 306.7311 -9398.3370 -7616.3859 301.7700 1150.4210 1205.9298 30363.7688 155.6002 207.7281
TCL: Running FEP window  16: Lambda1 0.7500000000000001 Lambda2 0.8000000000000002 [dLambda 0.050000000000000044]
TCL: Setting parameter firsttimestep to 0
TCL: Setting parameter alchLambda to 0.7500000000000001
Info: NONBONDED TABLE R-SQUARED SPACING: 0.0625
Info: NONBONDED TABLE SIZE: 705 POINTS
TCL: Setting parameter alchLambda2 to 0.8000000000000002
Info: NONBONDED TABLE R-SQUARED SPACING: 0.0625
Info: NONBONDED TABLE SIZE: 705 POINTS
TCL: Running for 1500000 steps
ETITLE: TS BOND ANGLE DIHED IMPRP ELECT VDW BOUNDARY MISC KINETIC TOTAL TEMP POTENTIAL TOTALAVG TEMPAVG PRESSURE GPRESSURE VOLUME PRESSAVG GPRESSAVG
ENERGY: 0 2.5441 1.6946 2.0965 0.0000 -10985.7307 1580.0501 0.0000 0.0000 1828.6359 -7570.7095 306.5839 -9399.3454 -7570.7095 306.5839 1128.8872 1209.3556 30363.7688 1128.8872 1209.3556
ENERGY: 300000 0.8802 3.5911 3.4198 0.0000 -10884.2652 1440.6366 0.0000 0.0000 1781.6652 -7654.0723 298.7089 -9435.7374 -7610.1263 303.6734 -296.9034 -246.7556 31168.1008 159.9000 239.2701
ENERGY: 600000 1.4840 6.1417 1.9089 0.0000 -10990.3380 1512.8122 0.0000 0.0000 1799.5786 -7668.4125 301.7122 -9467.9912 -7595.7985 303.2899 378.2420 410.4636 30579.7276 94.6836 180.4542
ENERGY: 900000 0.1974 3.7444 3.0199 0.0000 -10979.1836 1461.1518 0.0000 0.0000 1727.5366 -7783.5334 289.6338 -9511.0700 -7615.8524 301.7557 -138.6112 -73.2301 30451.9402 13.1149 92.8041
ENERGY: 1200000 0.7343 5.9013 1.9380 0.0000 -10784.6206 1384.4905 0.0000 0.0000 1814.3344 -7577.2221 304.1861 -9391.5565 -7610.4930 302.4644 -654.2915 -565.1729 31051.8516 -123.1356 -41.5920
ENERGY: 1500000 2.8692 7.3274 2.5355 0.0000 -10709.8768 1390.1647 0.0000 0.0000 1815.0102 -7491.9697 304.2994 -9306.9799 -7604.5201 302.5389 -367.7423 -272.5833 31024.4836 -161.1019 -81.2940
TCL: Running FEP window  17: Lambda1 0.8000000000000002 Lambda2 0.8500000000000002 [dLambda 0.050000000000000044]
TCL: Setting parameter firsttimestep to 0
TCL: Setting parameter alchLambda to 0.8000000000000002
Info: NONBONDED TABLE R-SQUARED SPACING: 0.0625
Info: NONBONDED TABLE SIZE: 705 POINTS
TCL: Setting parameter alchLambda2 to 0.8500000000000002
Info: NONBONDED TABLE R-SQUARED SPACING: 0.0625
Info: NONBONDED TABLE SIZE: 705 POINTS
TCL: Running for 1500000 steps
ETITLE: TS BOND ANGLE DIHED IMPRP ELECT VDW BOUNDARY MISC KINETIC TOTAL TEMP POTENTIAL TOTALAVG TEMPAVG PRESSURE GPRESSURE VOLUME PRESSAVG GPRESSAVG
ENERGY: 0 2.8692 7.3274 2.5355 0.0000 -10710.9702 1390.2177 0.0000 0.0000 1814.1045 -7493.9158 304.1476 -9308.0204 -7493.9158 304.1476 -350.3788 -264.9431 31024.4836 -350.3788 -264.9431
ENERGY: 300000 0.7846 2.7918 3.0442 0.0000 -11025.1394 1518.1897 0.0000 0.0000 1762.0945 -7738.2347 295.4277 -9500.3291 -7634.3581 299.7426 173.3000 273.2662 30526.8590 74.5460 140.4944
ENERGY: 600000 0.6872 4.9390 4.4804 0.0000 -10820.6192 1462.1568 0.0000 0.0000 1808.8814 -7539.4744 303.2719 -9348.3559 -7617.4381 299.1155 -30.6609 49.1198 31377.7711 -27.7125 42.4779
ENERGY: 900000 1.6900 2.6399 3.3883 0.0000 -10857.4975 1424.6779 0.0000 0.0000 1796.7716 -7628.3298 301.2416 -9425.1014 -7615.2225 300.1782 -246.4746 -228.4190 30575.5699 -196.3482 -132.5298
ENERGY: 1200000 0.7205 6.5627 3.6615 0.0000 -10791.2359 1406.6112 0.0000 0.0000 1812.0331 -7561.6469 303.8003 -9373.6800 -7622.9325 300.5574 -319.0796 -151.2470 30883.5455 -213.9152 -143.6568
ENERGY: 1500000 1.4825 6.9893 3.6626 0.0000 -10846.3214 1483.8892 0.0000 0.0000 1747.1220 -7603.1758 292.9175 -9350.2978 -7618.3912 300.4587 475.6977 508.6292 30595.0291 -183.8497 -123.6444
TCL: Running FEP window  18: Lambda1 0.8500000000000002 Lambda2 0.9000000000000002 [dLambda 0.050000000000000044]
TCL: Setting parameter firsttimestep to 0
TCL: Setting parameter alchLambda to 0.8500000000000002
Info: NONBONDED TABLE R-SQUARED SPACING: 0.0625
Info: NONBONDED TABLE SIZE: 705 POINTS
TCL: Setting parameter alchLambda2 to 0.9000000000000002
Info: NONBONDED TABLE R-SQUARED SPACING: 0.0625
Info: NONBONDED TABLE SIZE: 705 POINTS
TCL: Running for 1500000 steps
ETITLE: TS BOND ANGLE DIHED IMPRP ELECT VDW BOUNDARY MISC KINETIC TOTAL TEMP POTENTIAL TOTALAVG TEMPAVG PRESSURE GPRESSURE VOLUME PRESSAVG GPRESSAVG
ENERGY: 0 1.4825 6.9893 3.6626 0.0000 -10847.6439 1484.1031 0.0000 0.0000 1746.2241 -7605.1824 292.7669 -9351.4065 -7605.1824 292.7669 436.6079 518.1200 30595.0291 436.6079 518.1200
ENERGY: 300000 1.5204 2.0559 4.2982 0.0000 -10797.7686 1334.5406 0.0000 0.0000 1773.8692 -7681.4842 297.4018 -9455.3534 -7635.9163 295.3835 -1216.6378 -1115.5582 31108.6809 -73.3566 0.9408
ENERGY: 600000 1.2616 3.2239 2.7062 0.0000 -11000.8907 1518.4329 0.0000 0.0000 1726.1798 -7749.0864 289.4064 -9475.2662 -7670.1857 296.3187 218.9406 318.1965 30819.5047 9.5015 95.5971
ENERGY: 900000 0.5418 4.9109 3.2878 0.0000 -10905.6627 1456.4369 0.0000 0.0000 1782.2894 -7658.1959 298.8135 -9440.4853 -7660.2571 297.6351 -182.6168 -124.4202 30861.8152 -17.9379 63.5979
ENERGY: 1200000 0.3538 7.3463 3.5577 0.0000 -10916.3777 1434.5906 0.0000 0.0000 1777.7516 -7692.7776 298.0527 -9470.5293 -7650.8079 299.4193 -271.8571 -240.3613 30710.1490 -17.1194 56.5141
ENERGY: 1500000 2.3692 2.5835 2.8763 0.0000 -10903.8667 1515.0445 0.0000 0.0000 1797.3542 -7583.6390 301.3393 -9380.9932 -7643.7193 300.5563 247.1934 303.0169 31179.7438 60.0588 126.0987
TCL: Running FEP window  19: Lambda1 0.9000000000000002 Lambda2 0.9500000000000003 [dLambda 0.050000000000000044]
TCL: Setting parameter firsttimestep to 0
TCL: Setting parameter alchLambda to 0.9000000000000002
Info: NONBONDED TABLE R-SQUARED SPACING: 0.0625
Info: NONBONDED TABLE SIZE: 705 POINTS
TCL: Setting parameter alchLambda2 to 0.9500000000000003
Info: NONBONDED TABLE R-SQUARED SPACING: 0.0625
Info: NONBONDED TABLE SIZE: 705 POINTS
TCL: Running for 1500000 steps
ETITLE: TS BOND ANGLE DIHED IMPRP ELECT VDW BOUNDARY MISC KINETIC TOTAL TEMP POTENTIAL TOTALAVG TEMPAVG PRESSURE GPRESSURE VOLUME PRESSAVG GPRESSAVG
ENERGY: 0 2.3692 2.5835 2.8763 0.0000 -10905.1036 1515.7886 0.0000 0.0000 1796.4487 -7585.0374 301.1874 -9381.4861 -7585.0374 301.1874 233.7382 318.7909 31179.7438 233.7382 318.7909
ENERGY: 300000 2.1757 4.6701 2.7738 0.0000 -10857.7181 1435.2714 0.0000 0.0000 1808.5225 -7604.3045 303.2117 -9412.8271 -7600.0187 301.3552 -370.3872 -265.8110 31124.8276 -158.0953 -83.6657
ENERGY: 600000 1.2483 4.9802 3.3600 0.0000 -10933.1696 1485.6862 0.0000 0.0000 1776.0136 -7661.8813 297.7614 -9437.8950 -7624.6028 300.0347 308.9829 307.2084 30604.7791 -109.7630 -46.9654
ENERGY: 900000 2.7664 5.5349 1.7097 0.0000 -10734.9682 1341.8565 0.0000 0.0000 1798.9601 -7584.1406 301.6085 -9383.1007 -7643.8479 298.7152 -798.4869 -767.8470 31242.6085 -293.6258 -222.9722
ENERGY: 1200000 1.6128 1.8173 3.1018 0.0000 -10859.1466 1438.5434 0.0000 0.0000 1726.2240 -7687.8473 289.4138 -9414.0713 -7639.2185 298.8663 -178.4792 -117.6049 30848.3337 -196.8375 -116.2792
ENERGY: 1500000 5.1885 5.1631 4.6650 0.0000 -10856.2552 1444.9569 0.0000 0.0000 1798.1325 -7598.1492 301.4697 -9396.2816 -7641.7322 298.3211 -294.6467 -216.4787 31034.2955 -181.1133 -101.1927
TCL: Running FEP window  20: Lambda1 0.9500000000000003 Lambda2 1.0    [dLambda 0.04999999999999971]
TCL: Setting parameter firsttimestep to 0
TCL: Setting parameter alchLambda to 0.9500000000000003
Info: NONBONDED TABLE R-SQUARED SPACING: 0.0625
Info: NONBONDED TABLE SIZE: 705 POINTS
TCL: Setting parameter alchLambda2 to 1.0
Info: NONBONDED TABLE R-SQUARED SPACING: 0.0625
Info: NONBONDED TABLE SIZE: 705 POINTS
TCL: Running for 1500000 steps
ETITLE: TS BOND ANGLE DIHED IMPRP ELECT VDW BOUNDARY MISC KINETIC TOTAL TEMP POTENTIAL TOTALAVG TEMPAVG PRESSURE GPRESSURE VOLUME PRESSAVG GPRESSAVG
ENERGY: 0 5.1885 5.1631 4.6650 0.0000 -10858.4549 1446.8655 0.0000 0.0000 1797.2427 -7599.3300 301.3206 -9396.5727 -7599.3300 301.3206 -265.7531 -194.6395 31034.2955 -265.7531 -194.6395
ENERGY: 300000 0.6752 4.0359 1.8610 0.0000 -10968.4937 1494.4107 0.0000 0.0000 1778.4719 -7689.0390 298.1735 -9467.5108 -7646.0888 300.8860 249.5631 241.1317 30572.8722 -27.3266 31.6681
ENERGY: 600000 1.2815 3.6245 4.8319 0.0000 -10906.8181 1453.7121 0.0000 0.0000 1785.7303 -7657.6378 299.3904 -9443.3681 -7660.3962 299.7147 -133.7075 0.7562 30856.8972 25.0658 89.1781
ENERGY: 900000 0.9666 2.6992 3.4283 0.0000 -10932.9663 1477.5396 0.0000 0.0000 1800.9430 -7647.3896 301.9410 -9448.3327 -7661.6567 300.1870 -121.5016 -47.0347 31044.5968 -97.1730 -19.8852
ENERGY: 1200000 1.5173 3.8293 3.1757 0.0000 -10885.6919 1437.7054 0.0000 0.0000 1794.9069 -7644.5572 300.9289 -9439.4641 -7661.4099 299.9674 -40.5617 13.0845 30452.9791 -80.0540 -2.6724
ENERGY: 1500000 0.0478 7.0738 3.1068 0.0000 -10774.6365 1390.1247 0.0000 0.0000 1800.4551 -7573.8282 301.8591 -9374.2833 -7645.9667 300.7056 -351.8845 -253.4029 30815.4629 -40.7853 33.0442
TCL: Exiting due to exit command.
