Info: SIMULATION PARAMETERS:
Info: TIMESTEP               2
Info: NUMBER OF STEPS        0
Info: STEPS PER CYCLE        10
Info: PERIODIC CELL BASIS 1  30.9105 0 0
Info: PERIODIC CELL BASIS 2  0 30.2691 0
Info: PERIODIC CELL BASIS 3  0 0 31.9822
Info: PERIODIC CELL CENTER   0 0 0
Info: WRAPPING WATERS AROUND PERIODIC BOUNDARIES ON OUTPUT.
Info: WRAPPING ALL CLUSTERS AROUND PERIODIC BOUNDARIES ON OUTPUT.
Info: FIRST LDB TIMESTEP     50
Info: LAST LDB TIMESTEP     -1
Info: HOM BACKGROUND SCALING 1
Info: PME BACKGROUND SCALING 1
Info: MIN ATOMS PER PATCH    40
Info: EMPTY PATCH LOAD       40 ATOMS
Info: VELOCITY FILE          mobley_820789_equil.vel
Info: CENTER OF MASS MOVING INITIALLY? NO
Info: DIELECTRIC             1
Info: EXCLUDE                SCALED ONE-FOUR
Info: 1-4 ELECTROSTATICS SCALED BY 0.833333
Info: MODIFIED 1-4 VDW PARAMETERS WILL BE USED
Info: DCD FILENAME           mobley_820789_prod.dcd
Info: DCD FREQUENCY          100000
Info: DCD FIRST STEP         100000
Info: DCD FILE WILL CONTAIN UNIT CELL DATA
Info: XST FILENAME           mobley_820789_prod.xst
Info: XST FREQUENCY          100000
Info: NO VELOCITY DCD OUTPUT
Info: NO FORCE DCD OUTPUT
Info: OUTPUT FILENAME        mobley_820789_prod
Info: BINARY OUTPUT FILES WILL BE USED
Info: RESTART FILENAME       mobley_820789_prod.restart
Info: RESTART FREQUENCY      100000
Info: BINARY RESTART FILES WILL BE USED
Info: CUTOFF                 9
Info: PAIRLIST DISTANCE      11
Info: PAIRLIST SHRINK RATE   0.01
Info: PAIRLIST GROW RATE     0.01
Info: PAIRLIST TRIGGER       0.3
Info: PAIRLISTS PER CYCLE    2
Info: PAIRLISTS ENABLED
Info: MARGIN                 2
Info: HYDROGEN GROUP CUTOFF  2.5
Info: PATCH DIMENSION        15.5
Info: ENERGY OUTPUT STEPS    100000
Info: ENERGY EVALUATION STEPS    100000
Info: OUTPUT ENERGY PRECISION 4
Info: CROSSTERM ENERGY INCLUDED IN DIHEDRAL
Info: TIMING OUTPUT STEPS    1000000
Info: PRESSURE OUTPUT STEPS  100000
Info: ALCHEMICAL FEP ON
Info: FEP CURRENT LAMBDA VALUE     0
Info: FEP COMPARISON LAMBDA VALUE  0.05
Info: FEP INTRA-ALCHEMICAL NON-BONDED INTERACTIONS WILL BE RETAINED
Info: FEP INTRA-ALCHEMICAL BONDED INTERACTIONS WILL BE RETAINED
Info: FEP VDW SHIFTING COEFFICIENT 5
Info: FEP ELEC. ACTIVE FOR ANNIHILATED PARTICLES BETWEEN LAMBDA = 0 AND LAMBDA = 0.5
Info: FEP ELEC. ACTIVE FOR EXNIHILATED PARTICLES BETWEEN LAMBDA = 0.5 AND LAMBDA = 1
Info: FEP VDW ACTIVE FOR ANNIHILATED PARTICLES BETWEEN LAMBDA = 0 AND LAMBDA = 1
Info: FEP VDW ACTIVE FOR EXNIHILATED PARTICLES BETWEEN LAMBDA = 0 AND LAMBDA = 1
Info: FEP BOND ACTIVE FOR ANNIHILATED PARTICLES BETWEEN LAMBDA = 1 AND LAMBDA = 1
Info: FEP BOND ACTIVE FOR EXNIHILATED PARTICLES BETWEEN LAMBDA = 0 AND LAMBDA = 0
Info: LANGEVIN DYNAMICS ACTIVE
Info: LANGEVIN TEMPERATURE   300
Info: LANGEVIN USING BBK INTEGRATOR
Info: LANGEVIN DAMPING COEFFICIENT IS 1 INVERSE PS
Info: LANGEVIN DYNAMICS APPLIED TO HYDROGENS
Info: LANGEVIN PISTON PRESSURE CONTROL ACTIVE
Info:        TARGET PRESSURE IS 1.01325 BAR
Info:     OSCILLATION PERIOD IS 50 FS
Info:             DECAY TIME IS 25 FS
Info:     PISTON TEMPERATURE IS 300 K
Info:       PRESSURE CONTROL IS GROUP-BASED
Info:    INITIAL STRAIN RATE IS -0.000137688 -0.000137688 -0.000137688
Info:       CELL FLUCTUATION IS ISOTROPIC
Info: PARTICLE MESH EWALD (PME) ACTIVE
Info: PME TOLERANCE               1e-06
Info: PME EWALD COEFFICIENT       0.348832
Info: PME INTERPOLATION ORDER     4
Info: PME GRID DIMENSIONS         32 32 32
Info: PME MAXIMUM GRID SPACING    1
Info: PME CALCULATION WILL BE PERFORMED ON GPU
Info: FULL ELECTROSTATIC EVALUATION FREQUENCY      2
Info: USING VERLET I (r-RESPA) MTS SCHEME.
Info: C1 SPLITTING OF LONG RANGE ELECTROSTATICS
Info: PLACING ATOMS IN PATCHES BY HYDROGEN GROUPS
Info: RIGID BONDS TO HYDROGEN : ALL
Info:         ERROR TOLERANCE : 1e-08
Info:          MAX ITERATIONS : 100
Info: RIGID WATER USING SETTLE ALGORITHM
Info: RANDOM NUMBER SEED     1743831024
Info: USE HYDROGEN BONDS?    NO
Info: Using AMBER format force field!
Info: AMBER PARM FILE        mobley_820789.prmtop
Info: COORDINATE PDB         mobley_820789.pdb
Info: Exclusions will be read from PARM file!
Info: SCNB (VDW SCALING)     2
Info: USING ARITHMETIC MEAN TO COMBINE L-J SIGMA PARAMETERS
Info: BINARY COORDINATES     mobley_820789_equil.coor
Info: SUMMARY OF PARAMETERS:
Info: 8 BONDS
Info: 9 ANGLES
Info:   9 HARMONIC
Info:   0 COSINE-BASED
Info: 10 DIHEDRAL
Info: 0 IMPROPER
Info: 0 CROSSTERM
Info: 0 VDW
Info: 28 VDW_PAIRS
Info: 0 NBTHOLE_PAIRS
Info: To read alchdata from file: mobley_820789.pdb
Info: To read alchflag data from column: 5
Info: STRUCTURE SUMMARY:
Info: 2930 ATOMS
Info: 2929 BONDS
Info: 22 ANGLES
Info: 32 DIHEDRALS
Info: 0 IMPROPERS
Info: 0 CROSSTERMS
Info: 2977 EXCLUSIONS
Info: 2924 RIGID BONDS
Info: ALCH: 0 ATOMS TO DISAPPEAR IN FINAL STATE
Info: ALCH: 14 ATOMS TO APPEAR IN FINAL STATE
Info: 5866 DEGREES OF FREEDOM
Info: 978 HYDROGEN GROUPS
Info: 4 ATOMS IN LARGEST HYDROGEN GROUP
Info: 978 MIGRATION GROUPS
Info: 4 ATOMS IN LARGEST MIGRATION GROUP
Info: TOTAL MASS = 17599.7 amu
Info: TOTAL CHARGE = 0.000199962 e
Info: MASS DENSITY = 0.976675 g/cm^3
Info: ATOM DENSITY = 0.0979161 atoms/A^3
Info: ADDED 0 IMPLICIT EXCLUSIONS
Info: NONBONDED TABLE R-SQUARED SPACING: 0.0625
Info: NONBONDED TABLE SIZE: 705 POINTS
Info: REMOVING COM VELOCITY -0.0545737 -0.0712204 0.193466
Info: Use 3D box decompostion in PME FFT.
Info: Updated CUDA force table with 4096 elements.
Info: Updated CUDA LJ table with 7 x 7 elements.
Info: Found 17 unique exclusion lists needing 36 bytes
TCL: Running for 1500000 steps
ETITLE: TS BOND ANGLE DIHED IMPRP ELECT VDW BOUNDARY MISC KINETIC TOTAL TEMP POTENTIAL TOTALAVG TEMPAVG PRESSURE GPRESSURE VOLUME PRESSAVG GPRESSAVG
ENERGY: 0 1.2256 9.1112 3.9459 0.0000 -10660.4074 1520.9207 0.0000 0.0000 1772.6253 -7352.5787 304.1342 -9125.2040 -7352.5787 304.1342 912.3010 990.7594 29923.5667 912.3010 990.7594
ENERGY: 300000 2.6620 3.8053 1.3761 0.0000 -10616.1200 1427.7284 0.0000 0.0000 1747.0519 -7433.4964 299.7465 -9180.5482 -7408.6784 303.6198 140.2231 249.8728 29562.0927 233.6096 320.0730
ENERGY: 600000 0.9583 5.4571 2.4465 0.0000 -10499.5199 1330.1335 0.0000 0.0000 1711.6349 -7448.8896 293.6699 -9160.5245 -7447.0954 299.9138 -984.8542 -883.4051 30713.4701 8.1611 87.4907
ENERGY: 900000 1.1328 4.7058 3.0410 0.0000 -10577.6284 1458.4215 0.0000 0.0000 1763.0639 -7347.2634 302.4937 -9110.3273 -7440.0439 299.5069 380.6374 482.0164 30312.9568 61.3773 138.7283
ENERGY: 1200000 3.2821 4.3391 5.0353 0.0000 -10790.7500 1478.9978 0.0000 0.0000 1760.7136 -7538.3821 302.0905 -9299.0957 -7454.2445 300.6963 41.6372 102.0355 29962.6693 40.2099 110.6682
ENERGY: 1500000 0.9672 3.7541 4.7793 0.0000 -10525.6647 1327.0329 0.0000 0.0000 1718.5616 -7470.5695 294.8584 -9189.1312 -7455.0271 299.6567 -494.7394 -502.3200 29666.0017 45.4014 111.2770
TCL: Running FEP window   2: Lambda1 0.05   Lambda2 0.1    [dLambda 0.05  ]
TCL: Setting parameter firsttimestep to 0
TCL: Setting parameter alchLambda to 0.05
Info: NONBONDED TABLE R-SQUARED SPACING: 0.0625
Info: NONBONDED TABLE SIZE: 705 POINTS
TCL: Setting parameter alchLambda2 to 0.1
Info: NONBONDED TABLE R-SQUARED SPACING: 0.0625
Info: NONBONDED TABLE SIZE: 705 POINTS
TCL: Running for 1500000 steps
ETITLE: TS BOND ANGLE DIHED IMPRP ELECT VDW BOUNDARY MISC KINETIC TOTAL TEMP POTENTIAL TOTALAVG TEMPAVG PRESSURE GPRESSURE VOLUME PRESSAVG GPRESSAVG
ENERGY: 0 0.9672 3.7541 4.7793 0.0000 -10525.6648 1330.1238 0.0000 0.0000 1717.6807 -7468.3597 294.7072 -9186.0404 -7468.3597 294.7072 -589.2383 -499.7284 29666.0017 -589.2383 -499.7284
ENERGY: 300000 1.7058 7.2683 5.0421 0.0000 -10852.2084 1609.7290 0.0000 0.0000 1719.1068 -7509.3564 294.9519 -9228.4632 -7462.1133 295.7119 869.3763 983.9492 30346.6846 -184.5219 -88.8348
ENERGY: 600000 3.0805 9.5331 3.5943 0.0000 -10799.6315 1512.8391 0.0000 0.0000 1752.2907 -7518.2938 300.6453 -9270.5845 -7470.3932 297.4795 531.2104 672.6816 29758.1404 71.6876 166.1413
ENERGY: 900000 1.6431 4.6984 2.2197 0.0000 -10775.2325 1493.8268 0.0000 0.0000 1706.3133 -7566.5312 292.7569 -9272.8445 -7483.7297 296.4975 243.6341 304.1032 30083.4436 130.5865 210.7568
ENERGY: 1200000 2.0263 5.0676 2.7924 0.0000 -10619.1493 1382.9559 0.0000 0.0000 1734.8024 -7491.5047 297.6448 -9226.3071 -7477.7676 296.9026 -388.2133 -326.5568 29875.8645 4.5195 86.0674
ENERGY: 1500000 0.7591 4.6173 2.5711 0.0000 -10585.4054 1391.5387 0.0000 0.0000 1746.7149 -7439.2042 299.6887 -9185.9191 -7481.0678 297.1774 -73.5598 -3.2683 29849.9114 -33.5034 45.5013
TCL: Running FEP window   3: Lambda1 0.1    Lambda2 0.15000000000000002 [dLambda 0.05000000000000002]
TCL: Setting parameter firsttimestep to 0
TCL: Setting parameter alchLambda to 0.1
Info: NONBONDED TABLE R-SQUARED SPACING: 0.0625
Info: NONBONDED TABLE SIZE: 705 POINTS
TCL: Setting parameter alchLambda2 to 0.15000000000000002
Info: NONBONDED TABLE R-SQUARED SPACING: 0.0625
Info: NONBONDED TABLE SIZE: 705 POINTS
TCL: Running for 1500000 steps
ETITLE: TS BOND ANGLE DIHED IMPRP ELECT VDW BOUNDARY MISC KINETIC TOTAL TEMP POTENTIAL TOTALAVG TEMPAVG PRESSURE GPRESSURE VOLUME PRESSAVG GPRESSAVG
ENERGY: 0 0.7591 4.6173 2.5711 0.0000 -10585.4050 1391.4174 0.0000 0.0000 1745.8724 -7440.1677 299.5441 -9186.0401 -7440.1677 299.5441 -100.7420 0.3602 29849.9114 -100.7420 0.3602
ENERGY: 300000 2.6839 8.5107 2.8326 0.0000 -10642.8864 1416.5626 0.0000 0.0000 1761.5061 -7450.7904 302.2265 -9212.2965 -7431.6037 304.6873 -337.3132 -262.1813 30551.3434 -331.7912 -272.6607
ENERGY: 600000 0.5863 5.7111 3.8644 0.0000 -10589.1806 1418.2453 0.0000 0.0000 1737.6890 -7423.0845 298.1401 -9160.7735 -7447.6989 301.7517 -156.3037 -101.3445 30323.0953 -328.7060 -270.3461
ENERGY: 900000 0.4130 2.9580 1.9759 0.0000 -10562.6722 1360.6870 0.0000 0.0000 1726.9819 -7469.6564 296.3030 -9196.6383 -7439.8733 301.0789 -737.0178 -662.7191 30602.5992 -393.3028 -333.6993
ENERGY: 1200000 2.6741 6.8089 3.4496 0.0000 -10634.8019 1432.4288 0.0000 0.0000 1729.1109 -7460.3296 296.6683 -9189.4406 -7446.1828 300.5462 -359.6052 -246.1512 30715.0065 -296.6584 -237.2051
ENERGY: 1500000 1.9890 7.5231 2.6994 0.0000 -10616.5030 1418.7610 0.0000 0.0000 1782.8271 -7402.7035 305.8846 -9185.5306 -7448.5483 300.7717 151.6564 181.0417 29392.9833 -247.9179 -187.6696
TCL: Running FEP window   4: Lambda1 0.15000000000000002 Lambda2 0.2    [dLambda 0.04999999999999999]
TCL: Setting parameter firsttimestep to 0
TCL: Setting parameter alchLambda to 0.15000000000000002
Info: NONBONDED TABLE R-SQUARED SPACING: 0.0625
Info: NONBONDED TABLE SIZE: 705 POINTS
TCL: Setting parameter alchLambda2 to 0.2
Info: NONBONDED TABLE R-SQUARED SPACING: 0.0625
Info: NONBONDED TABLE SIZE: 705 POINTS
TCL: Running for 1500000 steps
ETITLE: TS BOND ANGLE DIHED IMPRP ELECT VDW BOUNDARY MISC KINETIC TOTAL TEMP POTENTIAL TOTALAVG TEMPAVG PRESSURE GPRESSURE VOLUME PRESSAVG GPRESSAVG
ENERGY: 0 1.9890 7.5231 2.6994 0.0000 -10616.5035 1421.2547 0.0000 0.0000 1781.9694 -7401.0679 305.7374 -9183.0373 -7401.0679 305.7374 110.9353 192.8014 29392.9833 110.9353 192.8014
ENERGY: 300000 1.0973 6.3126 2.7074 0.0000 -10740.2799 1521.4955 0.0000 0.0000 1793.0972 -7415.5700 307.6466 -9208.6672 -7453.1249 302.1172 812.6785 917.4189 29829.5916 10.5824 90.4828
ENERGY: 600000 0.1544 3.3369 1.9703 0.0000 -10799.2750 1515.4718 0.0000 0.0000 1792.4956 -7485.8459 307.5434 -9278.3415 -7449.9447 302.6068 471.1039 541.3840 30094.3932 108.6927 181.7827
ENERGY: 900000 0.6221 6.1739 6.3008 0.0000 -10618.4509 1443.4772 0.0000 0.0000 1755.5811 -7406.2958 301.2099 -9161.8769 -7450.6130 302.0245 204.0121 179.1213 30211.7132 175.5116 239.7837
ENERGY: 1200000 0.5596 3.2919 6.8510 0.0000 -10770.2630 1501.7593 0.0000 0.0000 1768.1641 -7489.6370 303.3688 -9257.8011 -7459.0752 301.7781 235.2757 242.2078 30346.3807 193.9099 252.6324
ENERGY: 1500000 0.4558 8.0530 6.0050 0.0000 -10771.4892 1479.7285 0.0000 0.0000 1738.9033 -7538.3436 298.3484 -9277.2469 -7465.1901 301.1270 175.0572 235.7265 30043.1858 160.7949 224.0031
TCL: Running FEP window   5: Lambda1 0.2    Lambda2 0.25   [dLambda 0.04999999999999999]
TCL: Setting parameter firsttimestep to 0
TCL: Setting parameter alchLambda to 0.2
Info: NONBONDED TABLE R-SQUARED SPACING: 0.0625
Info: NONBONDED TABLE SIZE: 705 POINTS
TCL: Setting parameter alchLambda2 to 0.25
Info: NONBONDED TABLE R-SQUARED SPACING: 0.0625
Info: NONBONDED TABLE SIZE: 705 POINTS
TCL: Running for 1500000 steps
ETITLE: TS BOND ANGLE DIHED IMPRP ELECT VDW BOUNDARY MISC KINETIC TOTAL TEMP POTENTIAL TOTALAVG TEMPAVG PRESSURE GPRESSURE VOLUME PRESSAVG GPRESSAVG
ENERGY: 0 0.4558 8.0530 6.0050 0.0000 -10771.4898 1479.5770 0.0000 0.0000 1738.0359 -7539.3631 298.1996 -9277.3990 -7539.3631 298.1996 145.4316 238.3317 30043.1858 145.4316 238.3317
ENERGY: 300000 0.5794 8.8765 5.5655 0.0000 -10772.7878 1449.4885 0.0000 0.0000 1736.1483 -7572.1296 297.8757 -9308.2779 -7528.6841 296.5884 6.7342 -15.1527 29619.0617 41.2581 114.9224
ENERGY: 600000 1.1833 9.3869 5.4407 0.0000 -10632.8482 1415.2509 0.0000 0.0000 1784.3368 -7417.2496 306.1436 -9201.5864 -7493.7682 298.2377 -24.2706 92.6200 29899.1558 12.9112 91.3670
ENERGY: 900000 1.5644 3.5719 6.7749 0.0000 -10505.6752 1340.1475 0.0000 0.0000 1765.8359 -7387.7806 302.9693 -9153.6164 -7480.4387 298.8188 -637.0650 -539.6175 30279.6585 -103.4697 -26.8189
ENERGY: 1200000 2.5597 7.8013 6.9793 0.0000 -10712.0718 1463.7825 0.0000 0.0000 1725.0532 -7505.8958 295.9721 -9230.9490 -7474.6074 299.7054 317.4398 328.2352 30049.7781 -28.3292 41.0478
ENERGY: 1500000 1.8072 4.1271 5.2649 0.0000 -10495.6731 1307.3804 0.0000 0.0000 1727.7107 -7449.3828 296.4281 -9177.0935 -7456.1938 300.1944 -1146.4287 -1069.4645 30374.3682 -144.5524 -76.2239
TCL: Running FEP window   6: Lambda1 0.25   Lambda2 0.3    [dLambda 0.04999999999999999]
TCL: Setting parameter firsttimestep to 0
TCL: Setting parameter alchLambda to 0.25
Info: NONBONDED TABLE R-SQUARED SPACING: 0.0625
Info: NONBONDED TABLE SIZE: 705 POINTS
TCL: Setting parameter alchLambda2 to 0.3
Info: NONBONDED TABLE R-SQUARED SPACING: 0.0625
Info: NONBONDED TABLE SIZE: 705 POINTS
TCL: Running for 1500000 steps
ETITLE: TS BOND ANGLE DIHED IMPRP ELECT VDW BOUNDARY MISC KINETIC TOTAL TEMP POTENTIAL TOTALAVG TEMPAVG PRESSURE GPRESSURE VOLUME PRESSAVG GPRESSAVG
ENERGY: 0 1.8072 4.1271 5.2649 0.0000 -10495.6723 1307.4384 0.0000 0.0000 1726.8182 -7450.2165 296.2750 -9177.0347 -7450.2165 296.2750 -1168.9828 -1067.7922 30374.3682 -1168.9828 -1067.7922
ENERGY: 300000 0.8688 7.0913 6.0985 0.0000 -10563.5391 1346.9369 0.0000 0.0000 1775.4369 -7427.1067 304.6166 -9202.5437 -7436.2767 298.8935 -985.3090 -916.5262 30529.0232 -576.2850 -518.6587
ENERGY: 600000 0.1765 3.5986 5.1803 0.0000 -10670.4714 1423.6837 0.0000 0.0000 1721.4269 -7516.4053 295.3500 -9237.8323 -7475.4020 297.6623 -83.4808 -19.0198 29990.8479 -312.9996 -252.4570
ENERGY: 900000 2.1441 4.4227 6.8046 0.0000 -10648.1460 1443.6726 0.0000 0.0000 1731.0370 -7460.0650 296.9988 -9191.1019 -7454.8102 298.3459 324.1881 384.1023 29667.4491 -251.8066 -193.4443
ENERGY: 1200000 1.6447 7.6448 6.9428 0.0000 -10658.8588 1437.5785 0.0000 0.0000 1741.5759 -7463.4720 298.8070 -9205.0479 -7462.1761 298.8061 -300.1678 -235.0965 30649.6275 -193.5231 -132.9338
ENERGY: 1500000 1.9261 3.3024 7.6129 0.0000 -10688.8730 1475.5923 0.0000 0.0000 1758.1730 -7442.2663 301.6546 -9200.4393 -7466.1433 299.1684 284.3568 340.8361 30132.1726 -179.7541 -119.5184
TCL: Running FEP window   7: Lambda1 0.3    Lambda2 0.35   [dLambda 0.04999999999999999]
TCL: Setting parameter firsttimestep to 0
TCL: Setting parameter alchLambda to 0.3
Info: NONBONDED TABLE R-SQUARED SPACING: 0.0625
Info: NONBONDED TABLE SIZE: 705 POINTS
TCL: Setting parameter alchLambda2 to 0.35
Info: NONBONDED TABLE R-SQUARED SPACING: 0.0625
Info: NONBONDED TABLE SIZE: 705 POINTS
TCL: Running for 1500000 steps
ETITLE: TS BOND ANGLE DIHED IMPRP ELECT VDW BOUNDARY MISC KINETIC TOTAL TEMP POTENTIAL TOTALAVG TEMPAVG PRESSURE GPRESSURE VOLUME PRESSAVG GPRESSAVG
ENERGY: 0 1.9260 3.3024 7.6129 0.0000 -10688.8724 1475.1195 0.0000 0.0000 1757.3030 -7443.6085 301.5053 -9200.9115 -7443.6085 301.5053 260.5158 342.4452 30132.1726 260.5158 342.4452
ENERGY: 300000 1.2440 6.7011 5.2923 0.0000 -10548.9709 1368.3422 0.0000 0.0000 1729.8916 -7437.4997 296.8023 -9167.3914 -7466.7948 300.0749 -617.5266 -450.6977 30260.1732 147.9393 236.8461
ENERGY: 600000 0.6691 7.5053 5.6718 0.0000 -10513.4603 1337.5559 0.0000 0.0000 1726.3438 -7435.7143 296.1936 -9162.0582 -7467.2426 298.6408 -662.7440 -611.1416 30428.7970 13.4400 92.7790
ENERGY: 900000 2.6666 8.7251 7.5938 0.0000 -10712.3651 1456.3092 0.0000 0.0000 1787.8414 -7449.2290 306.7449 -9237.0704 -7469.8452 299.6518 452.0809 447.3420 29631.7276 102.7086 177.2677
ENERGY: 1200000 3.4958 5.9389 5.1467 0.0000 -10722.6305 1485.6027 0.0000 0.0000 1739.9893 -7482.4572 298.5348 -9222.4464 -7467.2969 299.6656 715.0072 798.7203 29588.3011 128.9841 206.1185
ENERGY: 1500000 4.0026 6.4694 6.3536 0.0000 -10683.2620 1451.9933 0.0000 0.0000 1713.8231 -7500.6200 294.0454 -9214.4431 -7465.3522 299.6669 36.6877 142.3817 30062.2511 97.1284 174.3020
TCL: Running FEP window   8: Lambda1 0.35   Lambda2 0.39999999999999997 [dLambda 0.04999999999999999]
TCL: Setting parameter firsttimestep to 0
TCL: Setting parameter alchLambda to 0.35
Info: NONBONDED TABLE R-SQUARED SPACING: 0.0625
Info: NONBONDED TABLE SIZE: 705 POINTS
TCL: Setting parameter alchLambda2 to 0.39999999999999997
Info: NONBONDED TABLE R-SQUARED SPACING: 0.0625
Info: NONBONDED TABLE SIZE: 705 POINTS
TCL: Running for 1500000 steps
ETITLE: TS BOND ANGLE DIHED IMPRP ELECT VDW BOUNDARY MISC KINETIC TOTAL TEMP POTENTIAL TOTALAVG TEMPAVG PRESSURE GPRESSURE VOLUME PRESSAVG GPRESSAVG
ENERGY: 0 4.0026 6.4694 6.3536 0.0000 -10683.2619 1452.5104 0.0000 0.0000 1712.9692 -7500.9568 293.8988 -9213.9260 -7500.9568 293.8988 61.2836 150.9823 30062.2511 61.2836 150.9823
ENERGY: 300000 1.5660 8.7869 7.0770 0.0000 -10629.9451 1376.6968 0.0000 0.0000 1743.4168 -7492.4017 299.1228 -9235.8185 -7491.5697 296.8835 -596.3290 -560.3182 30119.2918 119.1391 172.1107
ENERGY: 600000 0.7545 7.1321 5.8235 0.0000 -10627.4115 1422.3868 0.0000 0.0000 1739.7927 -7451.5219 298.5010 -9191.3146 -7471.2881 297.5124 241.8193 321.9042 29590.4752 273.5566 337.6589
ENERGY: 900000 0.5969 7.5470 5.8139 0.0000 -10652.7256 1420.4778 0.0000 0.0000 1758.6715 -7459.6184 301.7401 -9218.2899 -7469.9797 298.4094 109.5193 157.5702 29780.3612 170.0840 244.5620
ENERGY: 1200000 2.0365 8.1858 5.8214 0.0000 -10656.2909 1478.3615 0.0000 0.0000 1771.5232 -7390.3625 303.9451 -9161.8856 -7454.4066 299.3273 614.5915 644.5280 30174.2458 199.3707 266.1781
ENERGY: 1500000 0.6992 6.9357 6.5488 0.0000 -10589.4850 1389.3546 0.0000 0.0000 1691.7395 -7494.2071 290.2564 -9185.9466 -7458.7179 298.8246 -331.7924 -281.6743 30149.4760 134.0631 195.3641
TCL: Running FEP window   9: Lambda1 0.39999999999999997 Lambda2 0.44999999999999996 [dLambda 0.04999999999999999]
TCL: Setting parameter firsttimestep to 0
TCL: Setting parameter alchLambda to 0.39999999999999997
Info: NONBONDED TABLE R-SQUARED SPACING: 0.0625
Info: NONBONDED TABLE SIZE: 705 POINTS
TCL: Setting parameter alchLambda2 to 0.44999999999999996
Info: NONBONDED TABLE R-SQUARED SPACING: 0.0625
Info: NONBONDED TABLE SIZE: 705 POINTS
TCL: Running for 1500000 steps
ETITLE: TS BOND ANGLE DIHED IMPRP ELECT VDW BOUNDARY MISC KINETIC TOTAL TEMP POTENTIAL TOTALAVG TEMPAVG PRESSURE GPRESSURE VOLUME PRESSAVG GPRESSAVG
ENERGY: 0 0.6992 6.9357 6.5488 0.0000 -10589.4842 1389.1229 0.0000 0.0000 1690.8833 -7495.2943 290.1095 -9186.1777 -7495.2943 290.1095 -361.5859 -280.1819 30149.4760 -361.5859 -280.1819
ENERGY: 300000 1.7706 5.2389 6.2025 0.0000 -10646.1662 1427.4954 0.0000 0.0000 1761.0982 -7444.3606 302.1565 -9205.4587 -7478.2998 297.3680 -308.4099 -262.0403 30314.6862 -242.8841 -170.9805
ENERGY: 600000 0.3274 7.5292 8.5558 0.0000 -10630.0841 1346.1578 0.0000 0.0000 1734.3991 -7533.1147 297.5756 -9267.5138 -7481.9025 297.1158 -943.9038 -865.3927 30469.5448 -376.9178 -306.7814
ENERGY: 900000 3.6638 7.0443 7.7487 0.0000 -10570.1591 1398.8294 0.0000 0.0000 1789.5013 -7363.3717 307.0297 -9152.8730 -7469.7383 299.4479 -224.1649 -206.1583 30328.9136 -382.6111 -316.2407
ENERGY: 1200000 2.2024 5.2560 5.6908 0.0000 -10466.7703 1331.2733 0.0000 0.0000 1740.3256 -7382.0221 298.5925 -9122.3477 -7457.8282 300.1518 -647.1431 -612.9122 30387.4467 -302.1509 -243.8806
ENERGY: 1500000 1.0733 9.6558 6.4629 0.0000 -10499.4735 1326.0622 0.0000 0.0000 1686.2897 -7469.9295 289.3214 -9156.2192 -7452.1946 299.9353 -799.1430 -768.2678 30665.9351 -291.7479 -233.0876
TCL: Running FEP window  10: Lambda1 0.44999999999999996 Lambda2 0.49999999999999994 [dLambda 0.04999999999999999]
TCL: Setting parameter firsttimestep to 0
TCL: Setting parameter alchLambda to 0.44999999999999996
Info: NONBONDED TABLE R-SQUARED SPACING: 0.0625
Info: NONBONDED TABLE SIZE: 705 POINTS
TCL: Setting parameter alchLambda2 to 0.49999999999999994
Info: NONBONDED TABLE R-SQUARED SPACING: 0.0625
Info: NONBONDED TABLE SIZE: 705 POINTS
TCL: Running for 1500000 steps
ETITLE: TS BOND ANGLE DIHED IMPRP ELECT VDW BOUNDARY MISC KINETIC TOTAL TEMP POTENTIAL TOTALAVG TEMPAVG PRESSURE GPRESSURE VOLUME PRESSAVG GPRESSAVG
ENERGY: 0 1.0733 9.6558 6.4629 0.0000 -10499.4725 1326.2449 0.0000 0.0000 1685.4518 -7470.5836 289.1776 -9156.0355 -7470.5836 289.1776 -841.3886 -762.4635 30665.9351 -841.3886 -762.4635
ENERGY: 300000 0.9180 5.2930 7.5758 0.0000 -10666.3568 1462.3187 0.0000 0.0000 1745.2452 -7445.0062 299.4365 -9190.2514 -7457.8901 298.3539 452.2700 488.6926 30139.2589 -64.9043 2.7052
ENERGY: 600000 1.5267 6.6027 6.4125 0.0000 -10658.6058 1420.7070 0.0000 0.0000 1755.1776 -7468.1793 301.1407 -9223.3569 -7465.2006 299.6120 -143.1498 -54.1247 30029.2083 13.7076 89.9865
ENERGY: 900000 2.9130 7.7355 5.9764 0.0000 -10537.9667 1370.6886 0.0000 0.0000 1763.1579 -7387.4951 302.5099 -9150.6531 -7459.2716 300.5536 -198.5780 -141.3628 30268.4495 -10.0669 63.0784
ENERGY: 1200000 2.7471 14.8995 5.1089 0.0000 -10644.2111 1410.9647 0.0000 0.0000 1712.0856 -7498.4054 293.7472 -9210.4910 -7471.7624 300.0752 -352.7966 -271.8804 30114.0352 -53.7528 26.3742
ENERGY: 1500000 1.1086 13.1941 5.8812 0.0000 -10581.9791 1407.4135 0.0000 0.0000 1742.5736 -7411.8082 298.9781 -9154.3817 -7464.1321 300.5244 56.4043 95.9259 29972.7354 -113.5331 -39.2442
TCL: Running FEP window  11: Lambda1 0.49999999999999994 Lambda2 0.5499999999999999 [dLambda 0.04999999999999999]
TCL: Setting parameter firsttimestep to 0
TCL: Setting parameter alchLambda to 0.49999999999999994
Info: NONBONDED TABLE R-SQUARED SPACING: 0.0625
Info: NONBONDED TABLE SIZE: 705 POINTS
TCL: Setting parameter alchLambda2 to 0.5499999999999999
Info: NONBONDED TABLE R-SQUARED SPACING: 0.0625
Info: NONBONDED TABLE SIZE: 705 POINTS
TCL: Running for 1500000 steps
ETITLE: TS BOND ANGLE DIHED IMPRP ELECT VDW BOUNDARY MISC KINETIC TOTAL TEMP POTENTIAL TOTALAVG TEMPAVG PRESSURE GPRESSURE VOLUME PRESSAVG GPRESSAVG
ENERGY: 0 1.1086 13.1941 5.8812 0.0000 -10581.9786 1409.1876 0.0000 0.0000 1741.7348 -7410.8723 298.8342 -9152.6070 -7410.8723 298.8342 27.4261 118.5424 29972.7354 27.4261 118.5424
ENERGY: 300000 0.4972 9.2073 6.6699 0.0000 -10670.0323 1356.9076 0.0000 0.0000 1753.5500 -7543.2003 300.8614 -9296.7503 -7470.0156 301.2273 -575.4702 -518.6454 29794.1451 -127.5831 -48.4697
ENERGY: 600000 0.9961 6.2383 5.9052 0.0000 -10508.8660 1331.3611 0.0000 0.0000 1782.6432 -7381.7221 305.8530 -9164.3652 -7446.6971 301.4427 -959.2138 -917.8097 30841.3821 -103.0752 -25.1271
ENERGY: 900000 3.6907 12.3227 6.0793 0.0000 -10710.8772 1529.1652 0.0000 0.0000 1770.8874 -7388.7318 303.8360 -9159.6192 -7446.4502 301.5689 1185.4490 1217.8709 29833.4522 136.9876 208.4493
ENERGY: 1200000 1.9019 3.3594 5.8105 0.0000 -10765.6823 1505.3749 0.0000 0.0000 1722.4244 -7526.8112 295.5211 -9249.2355 -7463.7656 300.1278 572.2723 643.5825 29974.7920 132.2100 204.0435
ENERGY: 1500000 1.0900 8.7438 5.7152 0.0000 -10651.2593 1389.2734 0.0000 0.0000 1755.3925 -7491.0443 301.1775 -9246.4368 -7467.2793 300.7689 -417.5742 -320.8406 30219.2026 90.3681 160.8865
TCL: Running FEP window  12: Lambda1 0.5499999999999999 Lambda2 0.6    [dLambda 0.050000000000000044]
TCL: Setting parameter firsttimestep to 0
TCL: Setting parameter alchLambda to 0.5499999999999999
Info: NONBONDED TABLE R-SQUARED SPACING: 0.0625
Info: NONBONDED TABLE SIZE: 705 POINTS
TCL: Setting parameter alchLambda2 to 0.6
Info: NONBONDED TABLE R-SQUARED SPACING: 0.0625
Info: NONBONDED TABLE SIZE: 705 POINTS
TCL: Running for 1500000 steps
ETITLE: TS BOND ANGLE DIHED IMPRP ELECT VDW BOUNDARY MISC KINETIC TOTAL TEMP POTENTIAL TOTALAVG TEMPAVG PRESSURE GPRESSURE VOLUME PRESSAVG GPRESSAVG
ENERGY: 0 1.0900 8.7438 5.7152 0.0000 -10652.1692 1389.2729 0.0000 0.0000 1754.5288 -7492.8185 301.0293 -9247.3473 -7492.8185 301.0293 -412.7333 -319.8770 30219.2026 -412.7333 -319.8770
ENERGY: 300000 0.6735 6.0127 6.3452 0.0000 -10618.6397 1443.8620 0.0000 0.0000 1803.4714 -7358.2749 309.4266 -9161.7463 -7453.4980 301.4855 235.9359 322.3702 30140.3684 -61.5755 28.2003
ENERGY: 600000 0.2033 7.4819 5.7119 0.0000 -10664.0944 1453.5210 0.0000 0.0000 1784.5252 -7412.6511 306.1759 -9197.1763 -7451.3373 301.0946 257.3707 411.3365 30120.3795 -52.0873 37.2938
ENERGY: 900000 0.2080 9.3005 4.9410 0.0000 -10910.7384 1583.5974 0.0000 0.0000 1771.0486 -7541.6428 303.8637 -9312.6915 -7472.0170 300.7732 1193.7754 1226.2338 29360.1837 14.9324 99.8728
ENERGY: 1200000 0.5193 7.4408 6.7351 0.0000 -10541.6541 1405.0336 0.0000 0.0000 1776.3082 -7345.6171 304.7661 -9121.9253 -7459.8806 300.1028 22.9797 110.4087 30290.7751 -50.1813 29.4580
ENERGY: 1500000 0.8139 6.1964 4.8376 0.0000 -10627.4671 1367.8934 0.0000 0.0000 1691.1470 -7556.5788 290.1548 -9247.7258 -7466.4188 299.1916 -732.9013 -711.1923 30327.8245 -76.7221 -6.1946
TCL: Running FEP window  13: Lambda1 0.6    Lambda2 0.65   [dLambda 0.050000000000000044]
TCL: Setting parameter firsttimestep to 0
TCL: Setting parameter alchLambda to 0.6
Info: NONBONDED TABLE R-SQUARED SPACING: 0.0625
Info: NONBONDED TABLE SIZE: 705 POINTS
TCL: Setting parameter alchLambda2 to 0.65
Info: NONBONDED TABLE R-SQUARED SPACING: 0.0625
Info: NONBONDED TABLE SIZE: 705 POINTS
TCL: Running for 1500000 steps
ETITLE: TS BOND ANGLE DIHED IMPRP ELECT VDW BOUNDARY MISC KINETIC TOTAL TEMP POTENTIAL TOTALAVG TEMPAVG PRESSURE GPRESSURE VOLUME PRESSAVG GPRESSAVG
ENERGY: 0 0.8139 6.1964 4.8376 0.0000 -10627.2698 1368.0749 0.0000 0.0000 1690.2594 -7557.0876 290.0025 -9247.3470 -7557.0876 290.0025 -775.8030 -697.7949 30327.8245 -775.8030 -697.7949
ENERGY: 300000 1.4844 12.4284 5.6975 0.0000 -10651.6744 1400.7946 0.0000 0.0000 1699.1199 -7532.1496 291.5227 -9231.2695 -7513.7741 295.7528 -381.0412 -317.2820 30113.2256 -364.4270 -299.2311
ENERGY: 600000 2.9995 5.4470 5.6346 0.0000 -10613.7067 1438.2252 0.0000 0.0000 1750.2162 -7411.1841 300.2894 -9161.4003 -7499.6620 297.0675 112.6531 152.1810 30218.1038 -48.5876 11.1177
ENERGY: 900000 1.9040 6.8744 5.5521 0.0000 -10703.7095 1465.0301 0.0000 0.0000 1783.2586 -7441.0904 305.9586 -9224.3490 -7500.8905 298.5439 425.9710 462.4594 29791.8746 -95.8451 -31.0378
ENERGY: 1200000 1.9198 6.2823 6.5498 0.0000 -10705.7782 1422.2147 0.0000 0.0000 1779.8846 -7488.9269 305.3797 -9268.8115 -7490.0844 299.6530 -31.8591 28.2579 29879.0481 -130.2425 -63.3908
ENERGY: 1500000 0.4641 4.9171 6.2897 0.0000 -10485.5091 1306.9178 0.0000 0.0000 1803.9156 -7363.0048 309.5028 -9166.9204 -7483.1683 299.8263 -896.1378 -836.4859 30424.8468 -185.2614 -122.8407
TCL: Running FEP window  14: Lambda1 0.65   Lambda2 0.7000000000000001 [dLambda 0.050000000000000044]
TCL: Setting parameter firsttimestep to 0
TCL: Setting parameter alchLambda to 0.65
Info: NONBONDED TABLE R-SQUARED SPACING: 0.0625
Info: NONBONDED TABLE SIZE: 705 POINTS
TCL: Setting parameter alchLambda2 to 0.7000000000000001
Info: NONBONDED TABLE R-SQUARED SPACING: 0.0625
Info: NONBONDED TABLE SIZE: 705 POINTS
TCL: Running for 1500000 steps
ETITLE: TS BOND ANGLE DIHED IMPRP ELECT VDW BOUNDARY MISC KINETIC TOTAL TEMP POTENTIAL TOTALAVG TEMPAVG PRESSURE GPRESSURE VOLUME PRESSAVG GPRESSAVG
ENERGY: 0 0.4641 4.9171 6.2897 0.0000 -10486.1643 1307.7559 0.0000 0.0000 1803.0864 -7363.6510 309.3605 -9166.7375 -7363.6510 309.3605 -908.4338 -827.2605 30424.8468 -908.4338 -827.2605
ENERGY: 300000 2.2785 4.3603 8.0440 0.0000 -10564.8249 1406.5959 0.0000 0.0000 1719.1765 -7424.3698 294.9638 -9143.5463 -7427.9596 301.2739 -72.3871 36.9804 30111.0027 -419.8710 -326.2240
ENERGY: 600000 1.1207 7.1481 6.0755 0.0000 -10754.0639 1483.3842 0.0000 0.0000 1778.8537 -7477.4818 305.2028 -9256.3355 -7459.3575 300.3827 474.3154 485.5691 29943.5340 -176.9626 -104.4577
ENERGY: 900000 2.6490 10.0546 5.8371 0.0000 -10537.3816 1369.9252 0.0000 0.0000 1772.0390 -7376.8767 304.0336 -9148.9157 -7455.0066 300.3318 -293.9828 -234.5594 30423.4356 -232.6831 -162.4065
ENERGY: 1200000 2.8003 5.0069 6.0086 0.0000 -10798.5146 1545.3076 0.0000 0.0000 1783.6580 -7455.7332 306.0271 -9239.3912 -7448.6595 301.3034 1071.2624 1091.6719 30127.3922 -167.1901 -105.5006
ENERGY: 1500000 0.5608 9.8528 6.8301 0.0000 -10718.4990 1449.1568 0.0000 0.0000 1703.8670 -7548.2315 292.3371 -9252.0984 -7455.8357 300.0182 -149.7576 -86.8020 30363.9239 -157.0475 -94.0558
TCL: Running FEP window  15: Lambda1 0.7000000000000001 Lambda2 0.7500000000000001 [dLambda 0.050000000000000044]
TCL: Setting parameter firsttimestep to 0
TCL: Setting parameter alchLambda to 0.7000000000000001
Info: NONBONDED TABLE R-SQUARED SPACING: 0.0625
Info: NONBONDED TABLE SIZE: 705 POINTS
TCL: Setting parameter alchLambda2 to 0.7500000000000001
Info: NONBONDED TABLE R-SQUARED SPACING: 0.0625
Info: NONBONDED TABLE SIZE: 705 POINTS
TCL: Running for 1500000 steps
ETITLE: TS BOND ANGLE DIHED IMPRP ELECT VDW BOUNDARY MISC KINETIC TOTAL TEMP POTENTIAL TOTALAVG TEMPAVG PRESSURE GPRESSURE VOLUME PRESSAVG GPRESSAVG
ENERGY: 0 0.5608 9.8528 6.8301 0.0000 -10718.8262 1448.6964 0.0000 0.0000 1703.0633 -7549.8228 292.1993 -9252.8861 -7549.8228 292.1993 -177.9231 -84.2452 30363.9239 -177.9231 -84.2452
ENERGY: 300000 1.6699 8.0044 5.3392 0.0000 -10698.6686 1467.7137 0.0000 0.0000 1760.6345 -7455.3068 302.0769 -9215.9413 -7473.9771 294.8233 635.8772 713.2278 29860.0235 94.4997 164.1417
ENERGY: 600000 2.2820 6.2911 7.0528 0.0000 -10603.1165 1396.2392 0.0000 0.0000 1742.1862 -7449.0652 298.9117 -9191.2514 -7466.8332 297.6376 -401.1827 -352.6092 30544.0483 -109.3983 -36.2020
ENERGY: 900000 0.8079 4.9607 5.7993 0.0000 -10777.4792 1449.0477 0.0000 0.0000 1721.8644 -7594.9992 295.4250 -9316.8636 -7477.1759 298.2068 55.9698 18.6528 29711.7202 -153.5055 -88.2654
ENERGY: 1200000 1.0248 10.4493 6.1426 0.0000 -10693.9220 1411.6666 0.0000 0.0000 1729.2391 -7535.3997 296.6903 -9264.6388 -7469.5351 299.3140 -258.2288 -122.7033 29755.1485 -141.5282 -68.8959
ENERGY: 1500000 0.4280 3.7709 5.7624 0.0000 -10662.5789 1472.2939 0.0000 0.0000 1746.1631 -7434.1606 299.5940 -9180.3237 -7469.6909 299.0863 331.8269 390.9300 30161.7816 -65.5403 4.5086
TCL: Running FEP window  16: Lambda1 0.7500000000000001 Lambda2 0.8000000000000002 [dLambda 0.050000000000000044]
TCL: Setting parameter firsttimestep to 0
TCL: Setting parameter alchLambda to 0.7500000000000001
Info: NONBONDED TABLE R-SQUARED SPACING: 0.0625
Info: NONBONDED TABLE SIZE: 705 POINTS
TCL: Setting parameter alchLambda2 to 0.8000000000000002
Info: NONBONDED TABLE R-SQUARED SPACING: 0.0625
Info: NONBONDED TABLE SIZE: 705 POINTS
TCL: Running for 1500000 steps
ETITLE: TS BOND ANGLE DIHED IMPRP ELECT VDW BOUNDARY MISC KINETIC TOTAL TEMP POTENTIAL TOTALAVG TEMPAVG PRESSURE GPRESSURE VOLUME PRESSAVG GPRESSAVG
ENERGY: 0 0.4280 3.7709 5.7624 0.0000 -10663.6568 1473.5514 0.0000 0.0000 1745.2741 -7434.8700 299.4415 -9180.1440 -7434.8700 299.4415 331.5304 413.0133 30161.7816 331.5304 413.0133
ENERGY: 300000 1.2629 10.6466 8.0319 0.0000 -10556.0436 1296.2056 0.0000 0.0000 1790.4208 -7449.4759 307.1874 -9239.8967 -7471.7127 298.4394 -1197.9582 -1153.8299 30344.0018 -176.8555 -109.9856
ENERGY: 600000 1.9169 10.9150 7.3752 0.0000 -10699.2606 1447.7344 0.0000 0.0000 1699.1719 -7532.1472 291.5316 -9231.3191 -7494.7464 296.4980 -189.9755 -64.1018 30355.9013 -156.3113 -73.1078
ENERGY: 900000 0.9173 6.9657 6.8456 0.0000 -10648.5039 1427.5539 0.0000 0.0000 1738.5944 -7467.6270 298.2954 -9206.2214 -7476.6872 299.2056 78.2756 130.3731 30225.0654 -93.6994 -24.2783
ENERGY: 1200000 0.5415 10.7131 6.5109 0.0000 -10545.0709 1284.5863 0.0000 0.0000 1768.1757 -7474.5434 303.3708 -9242.7191 -7481.0708 299.7053 -1010.0286 -993.3779 30089.9062 -185.3210 -121.9029
ENERGY: 1500000 2.9697 7.8196 5.8346 0.0000 -10684.9555 1438.2630 0.0000 0.0000 1717.6185 -7512.4501 294.6965 -9230.0685 -7480.5413 300.5214 -166.2054 -64.4779 30697.8806 -206.5835 -144.7764
TCL: Running FEP window  17: Lambda1 0.8000000000000002 Lambda2 0.8500000000000002 [dLambda 0.050000000000000044]
TCL: Setting parameter firsttimestep to 0
TCL: Setting parameter alchLambda to 0.8000000000000002
Info: NONBONDED TABLE R-SQUARED SPACING: 0.0625
Info: NONBONDED TABLE SIZE: 705 POINTS
TCL: Setting parameter alchLambda2 to 0.8500000000000002
Info: NONBONDED TABLE R-SQUARED SPACING: 0.0625
Info: NONBONDED TABLE SIZE: 705 POINTS
TCL: Running for 1500000 steps
ETITLE: TS BOND ANGLE DIHED IMPRP ELECT VDW BOUNDARY MISC KINETIC TOTAL TEMP POTENTIAL TOTALAVG TEMPAVG PRESSURE GPRESSURE VOLUME PRESSAVG GPRESSAVG
ENERGY: 0 2.9697 7.8196 5.8346 0.0000 -10686.0270 1438.5379 0.0000 0.0000 1716.7006 -7514.1645 294.5391 -9230.8651 -7514.1645 294.5391 -142.7576 -54.1868 30697.8806 -142.7576 -54.1868
ENERGY: 300000 1.3341 5.9822 6.3325 0.0000 -10613.0636 1399.8804 0.0000 0.0000 1790.4546 -7409.0798 307.1932 -9199.5344 -7450.5986 301.9876 -233.0357 -152.3486 30327.6590 -68.4071 -18.9918
ENERGY: 600000 1.3173 9.1634 5.2604 0.0000 -10660.2731 1434.9852 0.0000 0.0000 1780.0259 -7429.5209 305.4039 -9209.5468 -7450.1156 302.4841 -299.8768 -212.1899 30696.2406 -16.5571 28.5256
ENERGY: 900000 0.7749 10.9762 5.1792 0.0000 -10719.0196 1474.6824 0.0000 0.0000 1774.4684 -7452.9385 304.4504 -9227.4069 -7452.8742 302.1474 537.8632 530.4824 29871.6766 -11.3031 27.7640
ENERGY: 1200000 1.0604 6.3351 5.4412 0.0000 -10803.3938 1565.2207 0.0000 0.0000 1767.8555 -7457.4809 303.3158 -9225.3364 -7451.7799 302.4470 822.7001 858.5173 30520.8613 136.0350 178.5174
ENERGY: 1500000 3.0157 9.2549 5.6051 0.0000 -10676.1484 1468.0942 0.0000 0.0000 1785.1272 -7405.0514 306.2792 -9190.1786 -7453.4432 302.4654 403.3676 494.8757 29883.4345 64.0369 110.1312
TCL: Running FEP window  18: Lambda1 0.8500000000000002 Lambda2 0.9000000000000002 [dLambda 0.050000000000000044]
TCL: Setting parameter firsttimestep to 0
TCL: Setting parameter alchLambda to 0.8500000000000002
Info: NONBONDED TABLE R-SQUARED SPACING: 0.0625
Info: NONBONDED TABLE SIZE: 705 POINTS
TCL: Setting parameter alchLambda2 to 0.9000000000000002
Info: NONBONDED TABLE R-SQUARED SPACING: 0.0625
Info: NONBONDED TABLE SIZE: 705 POINTS
TCL: Running for 1500000 steps
ETITLE: TS BOND ANGLE DIHED IMPRP ELECT VDW BOUNDARY MISC KINETIC TOTAL TEMP POTENTIAL TOTALAVG TEMPAVG PRESSURE GPRESSURE VOLUME PRESSAVG GPRESSAVG
ENERGY: 0 3.0157 9.2549 5.6051 0.0000 -10678.0399 1470.0504 0.0000 0.0000 1784.2832 -7405.8307 306.1344 -9190.1139 -7405.8307 306.1344 422.3601 515.8949 29883.4345 422.3601 515.8949
ENERGY: 300000 0.4965 7.7288 6.4645 0.0000 -10699.7034 1453.1116 0.0000 0.0000 1727.9844 -7503.9176 296.4750 -9231.9020 -7475.6554 299.1286 -32.3425 59.6388 30292.4948 176.4541 253.9120
ENERGY: 600000 2.1116 4.8019 7.5435 0.0000 -10648.9247 1385.2844 0.0000 0.0000 1761.8418 -7487.3415 302.2841 -9249.1834 -7467.9362 300.1449 -575.4564 -440.8669 30115.8184 -80.5771 0.0842
ENERGY: 900000 2.3216 5.1817 6.5719 0.0000 -10645.8856 1421.2344 0.0000 0.0000 1748.8187 -7461.7574 300.0496 -9210.5760 -7461.2370 301.0053 80.3655 148.6345 30103.5762 -82.6681 -7.7123
ENERGY: 1200000 0.8623 8.8964 7.3301 0.0000 -10646.5119 1409.8640 0.0000 0.0000 1694.0524 -7525.5068 290.6532 -9219.5591 -7458.1874 300.0466 -295.1728 -250.5155 29978.1719 -112.7975 -47.5173
ENERGY: 1500000 0.6954 8.2697 6.8646 0.0000 -10767.2338 1488.3238 0.0000 0.0000 1719.0332 -7544.0471 294.9393 -9263.0803 -7466.3005 298.1629 578.3372 573.0986 29903.5602 -88.1820 -22.2722
TCL: Running FEP window  19: Lambda1 0.9000000000000002 Lambda2 0.9500000000000003 [dLambda 0.050000000000000044]
TCL: Setting parameter firsttimestep to 0
TCL: Setting parameter alchLambda to 0.9000000000000002
Info: NONBONDED TABLE R-SQUARED SPACING: 0.0625
Info: NONBONDED TABLE SIZE: 705 POINTS
TCL: Setting parameter alchLambda2 to 0.9500000000000003
Info: NONBONDED TABLE R-SQUARED SPACING: 0.0625
Info: NONBONDED TABLE SIZE: 705 POINTS
TCL: Running for 1500000 steps
ETITLE: TS BOND ANGLE DIHED IMPRP ELECT VDW BOUNDARY MISC KINETIC TOTAL TEMP POTENTIAL TOTALAVG TEMPAVG PRESSURE GPRESSURE VOLUME PRESSAVG GPRESSAVG
ENERGY: 0 0.6954 8.2697 6.8646 0.0000 -10769.2091 1489.0923 0.0000 0.0000 1718.1854 -7546.1017 294.7938 -9264.2871 -7546.1017 294.7938 510.6329 586.0021 29903.5602 510.6329 586.0021
ENERGY: 300000 1.0337 6.5275 6.8686 0.0000 -10578.5439 1387.8744 0.0000 0.0000 1756.8433 -7419.3964 301.4265 -9176.2397 -7422.5403 304.9978 -564.8264 -480.6168 30757.5458 79.5184 156.4446
ENERGY: 600000 1.3337 7.3598 6.0655 0.0000 -10658.6589 1366.2984 0.0000 0.0000 1737.7669 -7539.8346 298.1535 -9277.6015 -7473.5522 302.9908 -613.9537 -521.2667 30043.4918 -143.4599 -66.0351
ENERGY: 900000 1.0615 7.6358 8.6572 0.0000 -10642.8432 1442.6809 0.0000 0.0000 1731.8341 -7450.9736 297.1355 -9182.8077 -7456.7999 302.3099 51.3272 105.0573 30303.2728 -42.7536 33.6977
ENERGY: 1200000 1.7144 6.2350 6.7623 0.0000 -10620.9612 1393.3714 0.0000 0.0000 1789.8711 -7423.0069 307.0931 -9212.8780 -7452.0264 302.0425 -249.2707 -81.7969 29974.8644 -113.3190 -32.2205
ENERGY: 1500000 2.4984 6.2562 6.6426 0.0000 -10652.3836 1386.8485 0.0000 0.0000 1751.9799 -7498.1581 300.5920 -9250.1380 -7461.2190 300.8516 -499.5633 -470.1811 30191.9253 -160.0075 -76.5755
TCL: Running FEP window  20: Lambda1 0.9500000000000003 Lambda2 1.0    [dLambda 0.04999999999999971]
TCL: Setting parameter firsttimestep to 0
TCL: Setting parameter alchLambda to 0.9500000000000003
Info: NONBONDED TABLE R-SQUARED SPACING: 0.0625
Info: NONBONDED TABLE SIZE: 705 POINTS
TCL: Setting parameter alchLambda2 to 1.0
Info: NONBONDED TABLE R-SQUARED SPACING: 0.0625
Info: NONBONDED TABLE SIZE: 705 POINTS
TCL: Running for 1500000 steps
ETITLE: TS BOND ANGLE DIHED IMPRP ELECT VDW BOUNDARY MISC KINETIC TOTAL TEMP POTENTIAL TOTALAVG TEMPAVG PRESSURE GPRESSURE VOLUME PRESSAVG GPRESSAVG
ENERGY: 0 2.4984 6.2562 6.6426 0.0000 -10652.9321 1387.7414 0.0000 0.0000 1751.1165 -7498.6771 300.4439 -9249.7936 -7498.6771 300.4439 -506.3055 -446.5772 30191.9253 -506.3055 -446.5772
ENERGY: 300000 1.3770 9.1147 5.7038 0.0000 -10623.9739 1406.7411 0.0000 0.0000 1722.3537 -7478.6836 295.5090 -9201.0373 -7493.9443 298.7889 -216.0583 -187.0151 30397.0230 -158.1507 -98.4054
ENERGY: 600000 1.9309 5.8793 6.8918 0.0000 -10513.6470 1311.7243 0.0000 0.0000 1746.1968 -7441.0241 299.5998 -9187.2208 -7487.4312 299.3042 -950.8784 -881.1772 30636.9390 -404.1812 -346.7476
ENERGY: 900000 1.4296 5.7258 6.0624 0.0000 -10632.5373 1363.3950 0.0000 0.0000 1735.6801 -7520.2444 297.7954 -9255.9244 -7488.6091 299.0007 -371.9531 -331.5374 29914.7326 -378.8829 -318.8747
ENERGY: 1200000 1.2366 9.2193 6.2022 0.0000 -10651.5030 1401.2474 0.0000 0.0000 1746.1612 -7487.4363 299.5937 -9233.5975 -7498.6868 299.1149 -233.6346 -150.2712 29892.1898 -320.4375 -258.4928
ENERGY: 1500000 1.6773 9.1210 6.0584 0.0000 -10701.2310 1481.9136 0.0000 0.0000 1755.1282 -7447.3326 301.1322 -9202.4608 -7487.7560 299.6669 576.0917 672.1274 29987.4974 -247.8192 -183.8277
TCL: Exiting due to exit command.
