Info: SIMULATION PARAMETERS:
Info: TIMESTEP               2
Info: NUMBER OF STEPS        0
Info: STEPS PER CYCLE        10
Info: PERIODIC CELL BASIS 1  30.7818 0 0
Info: PERIODIC CELL BASIS 2  0 30.2958 0
Info: PERIODIC CELL BASIS 3  0 0 33.273
Info: PERIODIC CELL CENTER   0 0 0
Info: WRAPPING WATERS AROUND PERIODIC BOUNDARIES ON OUTPUT.
Info: WRAPPING ALL CLUSTERS AROUND PERIODIC BOUNDARIES ON OUTPUT.
Info: FIRST LDB TIMESTEP     50
Info: LAST LDB TIMESTEP     -1
Info: HOM BACKGROUND SCALING 1
Info: PME BACKGROUND SCALING 1
Info: MIN ATOMS PER PATCH    40
Info: EMPTY PATCH LOAD       40 ATOMS
Info: VELOCITY FILE          mobley_1905088_equil.vel
Info: CENTER OF MASS MOVING INITIALLY? NO
Info: DIELECTRIC             1
Info: EXCLUDE                SCALED ONE-FOUR
Info: 1-4 ELECTROSTATICS SCALED BY 0.833333
Info: MODIFIED 1-4 VDW PARAMETERS WILL BE USED
Info: DCD FILENAME           mobley_1905088_prod.dcd
Info: DCD FREQUENCY          100000
Info: DCD FIRST STEP         100000
Info: DCD FILE WILL CONTAIN UNIT CELL DATA
Info: XST FILENAME           mobley_1905088_prod.xst
Info: XST FREQUENCY          100000
Info: NO VELOCITY DCD OUTPUT
Info: NO FORCE DCD OUTPUT
Info: OUTPUT FILENAME        mobley_1905088_prod
Info: BINARY OUTPUT FILES WILL BE USED
Info: RESTART FILENAME       mobley_1905088_prod.restart
Info: RESTART FREQUENCY      100000
Info: BINARY RESTART FILES WILL BE USED
Info: CUTOFF                 9
Info: PAIRLIST DISTANCE      11
Info: PAIRLIST SHRINK RATE   0.01
Info: PAIRLIST GROW RATE     0.01
Info: PAIRLIST TRIGGER       0.3
Info: PAIRLISTS PER CYCLE    2
Info: PAIRLISTS ENABLED
Info: MARGIN                 2
Info: HYDROGEN GROUP CUTOFF  2.5
Info: PATCH DIMENSION        15.5
Info: ENERGY OUTPUT STEPS    100000
Info: ENERGY EVALUATION STEPS    100000
Info: OUTPUT ENERGY PRECISION 4
Info: CROSSTERM ENERGY INCLUDED IN DIHEDRAL
Info: TIMING OUTPUT STEPS    1000000
Info: PRESSURE OUTPUT STEPS  100000
Info: ALCHEMICAL FEP ON
Info: FEP CURRENT LAMBDA VALUE     0
Info: FEP COMPARISON LAMBDA VALUE  0.05
Info: FEP INTRA-ALCHEMICAL NON-BONDED INTERACTIONS WILL BE RETAINED
Info: FEP INTRA-ALCHEMICAL BONDED INTERACTIONS WILL BE RETAINED
Info: FEP VDW SHIFTING COEFFICIENT 5
Info: FEP ELEC. ACTIVE FOR ANNIHILATED PARTICLES BETWEEN LAMBDA = 0 AND LAMBDA = 0.5
Info: FEP ELEC. ACTIVE FOR EXNIHILATED PARTICLES BETWEEN LAMBDA = 0.5 AND LAMBDA = 1
Info: FEP VDW ACTIVE FOR ANNIHILATED PARTICLES BETWEEN LAMBDA = 0 AND LAMBDA = 1
Info: FEP VDW ACTIVE FOR EXNIHILATED PARTICLES BETWEEN LAMBDA = 0 AND LAMBDA = 1
Info: FEP BOND ACTIVE FOR ANNIHILATED PARTICLES BETWEEN LAMBDA = 1 AND LAMBDA = 1
Info: FEP BOND ACTIVE FOR EXNIHILATED PARTICLES BETWEEN LAMBDA = 0 AND LAMBDA = 0
Info: LANGEVIN DYNAMICS ACTIVE
Info: LANGEVIN TEMPERATURE   300
Info: LANGEVIN USING BBK INTEGRATOR
Info: LANGEVIN DAMPING COEFFICIENT IS 1 INVERSE PS
Info: LANGEVIN DYNAMICS APPLIED TO HYDROGENS
Info: LANGEVIN PISTON PRESSURE CONTROL ACTIVE
Info:        TARGET PRESSURE IS 1.01325 BAR
Info:     OSCILLATION PERIOD IS 50 FS
Info:             DECAY TIME IS 25 FS
Info:     PISTON TEMPERATURE IS 300 K
Info:       PRESSURE CONTROL IS GROUP-BASED
Info:    INITIAL STRAIN RATE IS -0.000161053 -0.000161053 -0.000161053
Info:       CELL FLUCTUATION IS ISOTROPIC
Info: PARTICLE MESH EWALD (PME) ACTIVE
Info: PME TOLERANCE               1e-06
Info: PME EWALD COEFFICIENT       0.348832
Info: PME INTERPOLATION ORDER     4
Info: PME GRID DIMENSIONS         32 32 36
Info: PME MAXIMUM GRID SPACING    1
Info: PME CALCULATION WILL BE PERFORMED ON GPU
Info: FULL ELECTROSTATIC EVALUATION FREQUENCY      2
Info: USING VERLET I (r-RESPA) MTS SCHEME.
Info: C1 SPLITTING OF LONG RANGE ELECTROSTATICS
Info: PLACING ATOMS IN PATCHES BY HYDROGEN GROUPS
Info: RIGID BONDS TO HYDROGEN : ALL
Info:         ERROR TOLERANCE : 1e-08
Info:          MAX ITERATIONS : 100
Info: RIGID WATER USING SETTLE ALGORITHM
Info: RANDOM NUMBER SEED     1743744364
Info: USE HYDROGEN BONDS?    NO
Info: Using AMBER format force field!
Info: AMBER PARM FILE        mobley_1905088.prmtop
Info: COORDINATE PDB         mobley_1905088.pdb
Info: Exclusions will be read from PARM file!
Info: SCNB (VDW SCALING)     2
Info: USING ARITHMETIC MEAN TO COMBINE L-J SIGMA PARAMETERS
Info: BINARY COORDINATES     mobley_1905088_equil.coor
Info: SUMMARY OF PARAMETERS:
Info: 7 BONDS
Info: 7 ANGLES
Info:   7 HARMONIC
Info:   0 COSINE-BASED
Info: 3 DIHEDRAL
Info: 0 IMPROPER
Info: 0 CROSSTERM
Info: 0 VDW
Info: 28 VDW_PAIRS
Info: 0 NBTHOLE_PAIRS
Info: To read alchdata from file: mobley_1905088.pdb
Info: To read alchflag data from column: 5
Info: STRUCTURE SUMMARY:
Info: 2982 ATOMS
Info: 2982 BONDS
Info: 24 ANGLES
Info: 36 DIHEDRALS
Info: 0 IMPROPERS
Info: 0 CROSSTERMS
Info: 3033 EXCLUSIONS
Info: 2974 RIGID BONDS
Info: ALCH: 0 ATOMS TO DISAPPEAR IN FINAL STATE
Info: ALCH: 15 ATOMS TO APPEAR IN FINAL STATE
Info: 5972 DEGREES OF FREEDOM
Info: 997 HYDROGEN GROUPS
Info: 3 ATOMS IN LARGEST HYDROGEN GROUP
Info: 997 MIGRATION GROUPS
Info: 3 ATOMS IN LARGEST MIGRATION GROUP
Info: TOTAL MASS = 17988.9 amu
Info: TOTAL CHARGE = -1.86265e-08 e
Info: MASS DENSITY = 0.962709 g/cm^3
Info: ATOM DENSITY = 0.0961037 atoms/A^3
Info: ADDED 0 IMPLICIT EXCLUSIONS
Info: NONBONDED TABLE R-SQUARED SPACING: 0.0625
Info: NONBONDED TABLE SIZE: 705 POINTS
Info: REMOVING COM VELOCITY -0.025999 0.136009 -0.223428
Info: Use 3D box decompostion in PME FFT.
Info: Updated CUDA force table with 4096 elements.
Info: Updated CUDA LJ table with 7 x 7 elements.
Info: Found 17 unique exclusion lists needing 36 bytes
TCL: Running for 1500000 steps
ETITLE: TS BOND ANGLE DIHED IMPRP ELECT VDW BOUNDARY MISC KINETIC TOTAL TEMP POTENTIAL TOTALAVG TEMPAVG PRESSURE GPRESSURE VOLUME PRESSAVG GPRESSAVG
ENERGY: 0 2.6874 4.8489 1.4008 0.0000 -10771.2604 1441.5767 0.0000 0.0000 1701.6122 -7619.1344 286.7683 -9320.7466 -7619.1344 286.7683 -273.3023 -197.5665 31028.9960 -273.3023 -197.5665
ENERGY: 300000 2.1625 3.8188 2.9212 0.0000 -10858.4147 1506.6455 0.0000 0.0000 1789.3657 -7553.5010 301.5572 -9342.8667 -7608.0366 296.1157 312.4341 435.0320 30275.7023 -119.3869 -45.6305
ENERGY: 600000 0.8828 2.2556 3.8717 0.0000 -10865.2450 1489.9245 0.0000 0.0000 1765.3856 -7602.9248 297.5159 -9368.3105 -7581.6559 298.3865 66.2437 168.0544 30448.2191 -52.9310 19.8318
ENERGY: 900000 4.1405 3.1224 5.2616 0.0000 -10845.6521 1455.6461 0.0000 0.0000 1861.2712 -7516.2103 313.6752 -9377.4815 -7565.2237 299.9857 -331.8626 -230.4160 30530.6346 -121.0240 -53.0334
ENERGY: 1200000 2.0921 3.6182 2.2721 0.0000 -10762.8349 1403.4921 0.0000 0.0000 1792.6724 -7558.6880 302.1145 -9351.3604 -7568.8021 299.6137 -601.3597 -576.2074 30731.5087 -133.3840 -65.7378
ENERGY: 1500000 1.8649 4.6038 3.1069 0.0000 -10923.9621 1467.0224 0.0000 0.0000 1753.6238 -7693.7403 295.5337 -9447.3641 -7576.0702 299.4407 -257.7626 -134.8783 30300.3860 -101.6437 -31.9690
TCL: Running FEP window   2: Lambda1 0.05   Lambda2 0.1    [dLambda 0.05  ]
TCL: Setting parameter firsttimestep to 0
TCL: Setting parameter alchLambda to 0.05
Info: NONBONDED TABLE R-SQUARED SPACING: 0.0625
Info: NONBONDED TABLE SIZE: 705 POINTS
TCL: Setting parameter alchLambda2 to 0.1
Info: NONBONDED TABLE R-SQUARED SPACING: 0.0625
Info: NONBONDED TABLE SIZE: 705 POINTS
TCL: Running for 1500000 steps
ETITLE: TS BOND ANGLE DIHED IMPRP ELECT VDW BOUNDARY MISC KINETIC TOTAL TEMP POTENTIAL TOTALAVG TEMPAVG PRESSURE GPRESSURE VOLUME PRESSAVG GPRESSAVG
ENERGY: 0 1.8649 4.6038 3.1069 0.0000 -10923.9622 1469.3180 0.0000 0.0000 1752.7388 -7692.3297 295.3846 -9445.0685 -7692.3297 295.3846 -231.1200 -131.8377 30300.3860 -231.1200 -131.8377
ENERGY: 300000 1.7638 4.4673 1.4988 0.0000 -10762.4449 1482.8677 0.0000 0.0000 1713.5771 -7558.2703 288.7847 -9271.8474 -7573.2832 295.4563 410.7336 451.9052 30525.7069 -15.7102 39.1284
ENERGY: 600000 2.9229 3.9568 1.7328 0.0000 -10759.3888 1436.9611 0.0000 0.0000 1751.1062 -7562.7091 295.1094 -9313.8153 -7559.3762 298.2240 -441.4351 -396.9951 31166.0055 19.5146 71.0849
ENERGY: 900000 0.8099 2.9602 1.8665 0.0000 -10688.2257 1368.9378 0.0000 0.0000 1808.0429 -7505.6084 304.7048 -9313.6513 -7555.2141 298.5583 -736.7564 -646.5163 30760.1723 -26.3714 30.2098
ENERGY: 1200000 1.5471 5.2431 1.4918 0.0000 -10765.4439 1373.9909 0.0000 0.0000 1852.3162 -7530.8548 312.1661 -9383.1710 -7565.8448 299.5012 -594.6869 -534.3313 30162.7916 19.1918 73.5585
ENERGY: 1500000 1.2827 6.9835 2.2251 0.0000 -10792.6673 1478.2628 0.0000 0.0000 1767.7169 -7536.1963 297.9088 -9303.9131 -7546.3300 301.1555 567.9501 567.3967 30043.9349 49.4158 97.8786
TCL: Running FEP window   3: Lambda1 0.1    Lambda2 0.15000000000000002 [dLambda 0.05000000000000002]
TCL: Setting parameter firsttimestep to 0
TCL: Setting parameter alchLambda to 0.1
Info: NONBONDED TABLE R-SQUARED SPACING: 0.0625
Info: NONBONDED TABLE SIZE: 705 POINTS
TCL: Setting parameter alchLambda2 to 0.15000000000000002
Info: NONBONDED TABLE R-SQUARED SPACING: 0.0625
Info: NONBONDED TABLE SIZE: 705 POINTS
TCL: Running for 1500000 steps
ETITLE: TS BOND ANGLE DIHED IMPRP ELECT VDW BOUNDARY MISC KINETIC TOTAL TEMP POTENTIAL TOTALAVG TEMPAVG PRESSURE GPRESSURE VOLUME PRESSAVG GPRESSAVG
ENERGY: 0 1.2827 6.9835 2.2251 0.0000 -10792.6670 1483.4091 0.0000 0.0000 1766.8028 -7531.9637 297.7547 -9298.7665 -7531.9637 297.7547 504.5813 584.4067 30043.9349 504.5813 584.4067
ENERGY: 300000 4.1550 5.4440 3.6491 0.0000 -10848.7763 1489.6940 0.0000 0.0000 1786.4641 -7559.3700 301.0682 -9345.8342 -7536.3378 300.1606 -113.8926 -20.9286 30781.0518 -339.7165 -246.7667
ENERGY: 600000 2.8901 5.5347 2.8675 0.0000 -10856.5139 1466.8348 0.0000 0.0000 1788.8856 -7589.5011 301.4763 -9378.3867 -7558.2482 299.1433 298.1757 345.8639 30117.1489 -73.6898 14.7753
ENERGY: 900000 2.8598 3.4935 0.9678 0.0000 -10720.1292 1416.3627 0.0000 0.0000 1794.6198 -7501.8257 302.4427 -9296.4455 -7551.8870 300.0524 -270.6310 -204.3343 30927.2719 -96.4782 -17.5270
ENERGY: 1200000 1.2395 3.7889 7.2710 0.0000 -11072.8774 1623.3954 0.0000 0.0000 1829.3381 -7607.8445 308.2936 -9437.1826 -7561.7040 299.8497 1119.5263 1134.5827 30136.1012 -0.1087 73.2840
ENERGY: 1500000 1.7062 3.9269 3.5915 0.0000 -10745.7785 1457.3128 0.0000 0.0000 1789.6213 -7489.6197 301.6003 -9279.2410 -7542.6463 301.0531 268.4969 339.3164 30393.8529 53.3320 125.1837
TCL: Running FEP window   4: Lambda1 0.15000000000000002 Lambda2 0.2    [dLambda 0.04999999999999999]
TCL: Setting parameter firsttimestep to 0
TCL: Setting parameter alchLambda to 0.15000000000000002
Info: NONBONDED TABLE R-SQUARED SPACING: 0.0625
Info: NONBONDED TABLE SIZE: 705 POINTS
TCL: Setting parameter alchLambda2 to 0.2
Info: NONBONDED TABLE R-SQUARED SPACING: 0.0625
Info: NONBONDED TABLE SIZE: 705 POINTS
TCL: Running for 1500000 steps
ETITLE: TS BOND ANGLE DIHED IMPRP ELECT VDW BOUNDARY MISC KINETIC TOTAL TEMP POTENTIAL TOTALAVG TEMPAVG PRESSURE GPRESSURE VOLUME PRESSAVG GPRESSAVG
ENERGY: 0 1.7062 3.9269 3.5915 0.0000 -10745.7818 1460.2535 0.0000 0.0000 1788.7327 -7487.5709 301.4505 -9276.3036 -7487.5709 301.4505 268.6958 352.5071 30393.8529 268.6958 352.5071
ENERGY: 300000 3.1523 2.4142 4.4203 0.0000 -10839.8520 1473.0313 0.0000 0.0000 1774.1688 -7582.6651 298.9961 -9356.8339 -7518.8239 299.1707 283.1980 308.2770 30153.8690 241.9363 292.9133
ENERGY: 600000 2.9542 3.0470 1.2396 0.0000 -10741.6368 1504.0118 0.0000 0.0000 1764.6434 -7465.7408 297.3908 -9230.3842 -7498.4210 301.6035 757.3766 738.8108 30463.4518 268.6040 298.8109
ENERGY: 900000 2.2242 3.4433 0.4597 0.0000 -10718.0614 1365.4490 0.0000 0.0000 1785.1884 -7561.2968 300.8532 -9346.4852 -7512.4767 301.8634 -903.4147 -803.7079 30783.9068 111.8441 156.8970
ENERGY: 1200000 3.3057 4.9690 1.7855 0.0000 -10668.1881 1384.5580 0.0000 0.0000 1761.6995 -7511.8705 296.8947 -9273.5699 -7520.2157 301.0567 -264.9827 -171.3157 30501.5497 16.3696 62.1104
ENERGY: 1500000 1.7960 5.1161 1.1383 0.0000 -10824.3784 1452.5060 0.0000 0.0000 1777.7317 -7586.0902 299.5965 -9363.8220 -7533.4591 300.8268 -147.4583 -58.7962 30606.2617 9.9280 60.9775
TCL: Running FEP window   5: Lambda1 0.2    Lambda2 0.25   [dLambda 0.04999999999999999]
TCL: Setting parameter firsttimestep to 0
TCL: Setting parameter alchLambda to 0.2
Info: NONBONDED TABLE R-SQUARED SPACING: 0.0625
Info: NONBONDED TABLE SIZE: 705 POINTS
TCL: Setting parameter alchLambda2 to 0.25
Info: NONBONDED TABLE R-SQUARED SPACING: 0.0625
Info: NONBONDED TABLE SIZE: 705 POINTS
TCL: Running for 1500000 steps
ETITLE: TS BOND ANGLE DIHED IMPRP ELECT VDW BOUNDARY MISC KINETIC TOTAL TEMP POTENTIAL TOTALAVG TEMPAVG PRESSURE GPRESSURE VOLUME PRESSAVG GPRESSAVG
ENERGY: 0 1.7960 5.1161 1.1383 0.0000 -10824.3780 1452.6823 0.0000 0.0000 1776.8231 -7586.8221 299.4434 -9363.6452 -7586.8221 299.4434 -140.2925 -51.6979 30606.2617 -140.2925 -51.6979
ENERGY: 300000 3.2282 6.0986 0.9951 0.0000 -10769.8739 1398.3955 0.0000 0.0000 1779.6950 -7581.4615 299.9274 -9361.1564 -7607.4570 297.6865 -343.1811 -248.1771 30153.1292 -63.1889 10.4826
ENERGY: 600000 1.9124 3.7324 1.1289 0.0000 -10797.6218 1439.8116 0.0000 0.0000 1737.3631 -7613.6734 292.7933 -9351.0365 -7608.6589 297.0667 -260.4273 -161.2879 30570.2309 -120.6785 -50.8679
ENERGY: 900000 2.1253 6.8719 3.2844 0.0000 -10785.5859 1474.5245 0.0000 0.0000 1702.1076 -7596.6723 286.8518 -9298.7799 -7598.4376 297.4893 451.3580 488.1044 30381.8021 -39.8992 24.6618
ENERGY: 1200000 2.8244 4.6725 3.4329 0.0000 -10884.9330 1466.4815 0.0000 0.0000 1804.9333 -7602.5884 304.1808 -9407.5217 -7585.2245 299.0492 -3.2314 74.5460 30103.0910 -75.5297 -13.6337
ENERGY: 1500000 5.4767 6.5124 0.9854 0.0000 -10756.6803 1407.4295 0.0000 0.0000 1828.1606 -7508.1157 308.0952 -9336.2763 -7577.7331 299.4314 -242.6674 -142.9097 30367.2324 -130.4956 -62.2052
TCL: Running FEP window   6: Lambda1 0.25   Lambda2 0.3    [dLambda 0.04999999999999999]
TCL: Setting parameter firsttimestep to 0
TCL: Setting parameter alchLambda to 0.25
Info: NONBONDED TABLE R-SQUARED SPACING: 0.0625
Info: NONBONDED TABLE SIZE: 705 POINTS
TCL: Setting parameter alchLambda2 to 0.3
Info: NONBONDED TABLE R-SQUARED SPACING: 0.0625
Info: NONBONDED TABLE SIZE: 705 POINTS
TCL: Running for 1500000 steps
ETITLE: TS BOND ANGLE DIHED IMPRP ELECT VDW BOUNDARY MISC KINETIC TOTAL TEMP POTENTIAL TOTALAVG TEMPAVG PRESSURE GPRESSURE VOLUME PRESSAVG GPRESSAVG
ENERGY: 0 5.4767 6.5124 0.9854 0.0000 -10756.6800 1408.3279 0.0000 0.0000 1827.3162 -7508.0615 307.9529 -9335.3777 -7508.0615 307.9529 -229.4283 -131.3129 30367.2324 -229.4283 -131.3129
ENERGY: 300000 1.7730 3.8423 3.8565 0.0000 -10839.4020 1496.9333 0.0000 0.0000 1747.1087 -7585.8881 294.4357 -9332.9968 -7532.5658 298.8890 465.0114 485.6282 30383.0323 -273.9726 -207.7071
ENERGY: 600000 3.4145 3.9026 4.1193 0.0000 -10946.6207 1497.4251 0.0000 0.0000 1776.7329 -7661.0262 299.4282 -9437.7591 -7539.7107 301.5255 114.0004 239.1423 30548.3436 -36.6836 23.9564
ENERGY: 900000 1.8810 3.9706 4.7263 0.0000 -10765.7436 1393.6851 0.0000 0.0000 1778.0729 -7583.4077 299.6541 -9361.4806 -7542.6113 300.5037 -603.6871 -511.2848 30538.5789 -113.0966 -41.6692
ENERGY: 1200000 1.6003 2.2036 3.6667 0.0000 -10807.3335 1494.0583 0.0000 0.0000 1785.6798 -7520.1248 300.9360 -9305.8046 -7530.2887 301.2847 391.1342 458.3970 30587.5090 -216.6648 -142.0614
ENERGY: 1500000 1.1374 3.6920 2.2591 0.0000 -10887.3896 1523.6450 0.0000 0.0000 1755.0600 -7601.5962 295.7757 -9356.6562 -7538.4553 301.1693 612.6454 708.3841 30190.2897 -160.5176 -90.1672
TCL: Running FEP window   7: Lambda1 0.3    Lambda2 0.35   [dLambda 0.04999999999999999]
TCL: Setting parameter firsttimestep to 0
TCL: Setting parameter alchLambda to 0.3
Info: NONBONDED TABLE R-SQUARED SPACING: 0.0625
Info: NONBONDED TABLE SIZE: 705 POINTS
TCL: Setting parameter alchLambda2 to 0.35
Info: NONBONDED TABLE R-SQUARED SPACING: 0.0625
Info: NONBONDED TABLE SIZE: 705 POINTS
TCL: Running for 1500000 steps
ETITLE: TS BOND ANGLE DIHED IMPRP ELECT VDW BOUNDARY MISC KINETIC TOTAL TEMP POTENTIAL TOTALAVG TEMPAVG PRESSURE GPRESSURE VOLUME PRESSAVG GPRESSAVG
ENERGY: 0 1.1374 3.6920 2.2591 0.0000 -10887.3886 1523.9807 0.0000 0.0000 1754.1801 -7602.1393 295.6275 -9356.3194 -7602.1393 295.6275 631.5204 714.5961 30190.2897 631.5204 714.5961
ENERGY: 300000 1.1864 3.8767 4.1831 0.0000 -10825.9737 1463.1274 0.0000 0.0000 1802.3511 -7551.2489 303.7456 -9353.6001 -7512.8827 301.3183 -62.3981 -12.4584 30901.8960 -46.8568 25.3027
ENERGY: 600000 1.2180 5.3255 2.8087 0.0000 -10729.4062 1434.9070 0.0000 0.0000 1763.3740 -7521.7731 297.1769 -9285.1471 -7525.0828 301.4903 -233.2048 -201.4376 31179.8433 217.7444 267.8548
ENERGY: 900000 2.2308 5.3955 3.3293 0.0000 -10759.0039 1406.0600 0.0000 0.0000 1829.6890 -7512.2994 308.3528 -9341.9884 -7527.3213 303.1936 -568.4169 -504.2721 31080.3459 190.2446 247.6657
ENERGY: 1200000 3.6641 4.4861 5.0078 0.0000 -10847.9712 1512.1648 0.0000 0.0000 1777.5189 -7545.1294 299.5607 -9322.6483 -7530.2349 303.1776 539.0833 541.0687 30455.8107 133.2847 188.4298
ENERGY: 1500000 2.5372 3.5464 1.3675 0.0000 -10809.4442 1410.1524 0.0000 0.0000 1795.2319 -7596.6087 302.5458 -9391.8406 -7535.5289 303.3629 -497.5478 -389.3449 30238.3322 76.7014 135.3196
TCL: Running FEP window   8: Lambda1 0.35   Lambda2 0.39999999999999997 [dLambda 0.04999999999999999]
TCL: Setting parameter firsttimestep to 0
TCL: Setting parameter alchLambda to 0.35
Info: NONBONDED TABLE R-SQUARED SPACING: 0.0625
Info: NONBONDED TABLE SIZE: 705 POINTS
TCL: Setting parameter alchLambda2 to 0.39999999999999997
Info: NONBONDED TABLE R-SQUARED SPACING: 0.0625
Info: NONBONDED TABLE SIZE: 705 POINTS
TCL: Running for 1500000 steps
ETITLE: TS BOND ANGLE DIHED IMPRP ELECT VDW BOUNDARY MISC KINETIC TOTAL TEMP POTENTIAL TOTALAVG TEMPAVG PRESSURE GPRESSURE VOLUME PRESSAVG GPRESSAVG
ENERGY: 0 2.5372 3.5464 1.3675 0.0000 -10809.4444 1410.9223 0.0000 0.0000 1794.3319 -7596.7391 302.3941 -9391.0710 -7596.7391 302.3941 -459.5097 -377.3586 30238.3322 -459.5097 -377.3586
ENERGY: 300000 2.0925 6.6170 2.7217 0.0000 -10767.6702 1396.3452 0.0000 0.0000 1772.7506 -7587.1432 298.7571 -9359.8938 -7567.1316 302.5223 -378.6364 -327.0926 30599.3581 19.5512 82.2426
ENERGY: 600000 3.3929 7.7753 3.3568 0.0000 -10977.5980 1560.6672 0.0000 0.0000 1790.2192 -7612.1866 301.7010 -9402.4058 -7558.6644 303.0908 609.1173 664.7703 30321.1818 245.9679 296.7893
ENERGY: 900000 4.8635 4.6990 3.3295 0.0000 -10890.3529 1551.5805 0.0000 0.0000 1751.5949 -7574.2856 295.1918 -9325.8805 -7555.2837 302.7566 801.0874 855.9617 30268.3102 232.5038 277.5468
ENERGY: 1200000 1.2893 2.5938 3.8068 0.0000 -10746.2733 1452.2560 0.0000 0.0000 1786.8677 -7499.4596 301.1362 -9286.3274 -7544.4216 301.8028 196.1421 319.0128 30494.6589 76.8280 136.8762
ENERGY: 1500000 3.2055 4.3221 3.8099 0.0000 -10602.1331 1296.1197 0.0000 0.0000 1799.2015 -7495.4745 303.2148 -9294.6760 -7545.7250 301.7094 -1192.2597 -1098.6843 30876.6063 -29.9806 29.9136
TCL: Running FEP window   9: Lambda1 0.39999999999999997 Lambda2 0.44999999999999996 [dLambda 0.04999999999999999]
TCL: Setting parameter firsttimestep to 0
TCL: Setting parameter alchLambda to 0.39999999999999997
Info: NONBONDED TABLE R-SQUARED SPACING: 0.0625
Info: NONBONDED TABLE SIZE: 705 POINTS
TCL: Setting parameter alchLambda2 to 0.44999999999999996
Info: NONBONDED TABLE R-SQUARED SPACING: 0.0625
Info: NONBONDED TABLE SIZE: 705 POINTS
TCL: Running for 1500000 steps
ETITLE: TS BOND ANGLE DIHED IMPRP ELECT VDW BOUNDARY MISC KINETIC TOTAL TEMP POTENTIAL TOTALAVG TEMPAVG PRESSURE GPRESSURE VOLUME PRESSAVG GPRESSAVG
ENERGY: 0 3.2055 4.3221 3.8099 0.0000 -10602.1331 1296.0355 0.0000 0.0000 1798.2801 -7496.4801 303.0595 -9294.7601 -7496.4801 303.0595 -1172.5365 -1093.1039 30876.6063 -1172.5365 -1093.1039
ENERGY: 300000 2.9359 4.7223 2.7948 0.0000 -10788.7134 1431.7154 0.0000 0.0000 1795.2898 -7551.2552 302.5556 -9346.5450 -7520.5213 300.8368 -113.8747 21.0245 30190.0473 -179.6387 -104.0411
ENERGY: 600000 2.0766 4.6317 2.6619 0.0000 -10834.5796 1499.1254 0.0000 0.0000 1793.4693 -7532.6146 302.2488 -9326.0839 -7544.2268 300.0468 557.7381 685.0237 30649.1933 -196.1890 -118.4802
ENERGY: 900000 3.5191 4.2763 6.2057 0.0000 -10700.7820 1387.2493 0.0000 0.0000 1753.8556 -7545.6759 295.5728 -9299.5315 -7537.5762 300.1864 -604.6364 -520.5502 30869.2701 -241.6041 -171.1593
ENERGY: 1200000 1.4775 4.7851 3.6883 0.0000 -10699.2122 1428.4419 0.0000 0.0000 1782.1449 -7478.6746 300.3403 -9260.8194 -7533.9376 300.2309 -249.9141 -159.1762 31082.0513 -249.3848 -173.7070
ENERGY: 1500000 3.6020 3.8667 6.7708 0.0000 -10835.9388 1468.4017 0.0000 0.0000 1802.7448 -7550.5529 303.8119 -9353.2977 -7539.8394 300.4415 -60.6115 3.0726 31133.8185 -156.6023 -84.8559
TCL: Running FEP window  10: Lambda1 0.44999999999999996 Lambda2 0.49999999999999994 [dLambda 0.04999999999999999]
TCL: Setting parameter firsttimestep to 0
TCL: Setting parameter alchLambda to 0.44999999999999996
Info: NONBONDED TABLE R-SQUARED SPACING: 0.0625
Info: NONBONDED TABLE SIZE: 705 POINTS
TCL: Setting parameter alchLambda2 to 0.49999999999999994
Info: NONBONDED TABLE R-SQUARED SPACING: 0.0625
Info: NONBONDED TABLE SIZE: 705 POINTS
TCL: Running for 1500000 steps
ETITLE: TS BOND ANGLE DIHED IMPRP ELECT VDW BOUNDARY MISC KINETIC TOTAL TEMP POTENTIAL TOTALAVG TEMPAVG PRESSURE GPRESSURE VOLUME PRESSAVG GPRESSAVG
ENERGY: 0 3.6020 3.8667 6.7708 0.0000 -10835.9405 1468.2024 0.0000 0.0000 1801.8667 -7551.6320 303.6639 -9353.4987 -7551.6320 303.6639 -68.5035 8.6402 31133.8185 -68.5035 8.6402
ENERGY: 300000 1.1391 6.6568 6.7049 0.0000 -10919.7772 1511.5443 0.0000 0.0000 1789.0606 -7604.6715 301.5058 -9393.7321 -7586.4895 300.9130 112.3030 219.9582 30801.3541 40.5519 112.2074
ENERGY: 600000 2.6979 6.0849 0.2618 0.0000 -10936.6137 1572.9335 0.0000 0.0000 1789.9927 -7564.6429 301.6629 -9354.6356 -7585.9262 300.2355 921.6847 1004.6896 30430.0368 51.6480 116.7584
ENERGY: 900000 1.5947 4.9688 2.1927 0.0000 -10833.2504 1421.8467 0.0000 0.0000 1775.3998 -7627.2477 299.2036 -9402.6476 -7576.4886 300.4862 -168.4259 -107.0917 30548.3915 -50.2775 24.5596
ENERGY: 1200000 1.9338 4.7577 5.4801 0.0000 -10757.0750 1464.9464 0.0000 0.0000 1808.2744 -7471.6827 304.7438 -9279.9571 -7565.4957 300.6288 411.8282 502.6549 30404.9444 -32.3385 37.8906
ENERGY: 1500000 3.1824 2.7088 3.8011 0.0000 -10809.7619 1485.3286 0.0000 0.0000 1805.0975 -7509.6435 304.2084 -9314.7410 -7572.5578 300.0873 443.5316 508.0328 30508.6444 -26.0908 40.3812
TCL: Running FEP window  11: Lambda1 0.49999999999999994 Lambda2 0.5499999999999999 [dLambda 0.04999999999999999]
TCL: Setting parameter firsttimestep to 0
TCL: Setting parameter alchLambda to 0.49999999999999994
Info: NONBONDED TABLE R-SQUARED SPACING: 0.0625
Info: NONBONDED TABLE SIZE: 705 POINTS
TCL: Setting parameter alchLambda2 to 0.5499999999999999
Info: NONBONDED TABLE R-SQUARED SPACING: 0.0625
Info: NONBONDED TABLE SIZE: 705 POINTS
TCL: Running for 1500000 steps
ETITLE: TS BOND ANGLE DIHED IMPRP ELECT VDW BOUNDARY MISC KINETIC TOTAL TEMP POTENTIAL TOTALAVG TEMPAVG PRESSURE GPRESSURE VOLUME PRESSAVG GPRESSAVG
ENERGY: 0 3.1823 2.7088 3.8011 0.0000 -10809.7616 1485.7262 0.0000 0.0000 1804.2133 -7510.1298 304.0594 -9314.3432 -7510.1298 304.0594 426.9886 518.6995 30508.6444 426.9886 518.6995
ENERGY: 300000 1.1135 3.8148 1.4214 0.0000 -10629.7690 1385.7058 0.0000 0.0000 1785.2362 -7452.4774 300.8613 -9237.7135 -7499.4436 301.7655 -172.7755 -115.1268 30768.6987 120.2604 191.1358
ENERGY: 600000 0.6988 2.4178 3.3032 0.0000 -10679.4449 1322.8300 0.0000 0.0000 1735.2143 -7614.9809 292.4312 -9350.1952 -7521.8610 301.1692 -1110.1969 -1064.0368 30926.6860 20.2575 76.5566
ENERGY: 900000 1.4724 2.0813 3.5006 0.0000 -11026.4423 1574.4320 0.0000 0.0000 1827.1375 -7617.8185 307.9228 -9444.9560 -7549.2907 300.1687 726.7498 787.7873 30451.2329 101.3810 172.1944
ENERGY: 1200000 2.6518 2.9080 5.7105 0.0000 -10874.8360 1518.1857 0.0000 0.0000 1803.1571 -7542.2228 303.8814 -9345.3799 -7541.6700 300.6065 464.0128 563.5041 30499.8611 141.7861 212.8755
ENERGY: 1500000 3.0976 8.7354 1.9952 0.0000 -10697.6030 1381.1094 0.0000 0.0000 1825.9038 -7476.7615 307.7149 -9302.6653 -7533.8657 301.4057 -440.0272 -401.0742 30798.4898 28.5652 90.8992
TCL: Running FEP window  12: Lambda1 0.5499999999999999 Lambda2 0.6    [dLambda 0.050000000000000044]
TCL: Setting parameter firsttimestep to 0
TCL: Setting parameter alchLambda to 0.5499999999999999
Info: NONBONDED TABLE R-SQUARED SPACING: 0.0625
Info: NONBONDED TABLE SIZE: 705 POINTS
TCL: Setting parameter alchLambda2 to 0.6
Info: NONBONDED TABLE R-SQUARED SPACING: 0.0625
Info: NONBONDED TABLE SIZE: 705 POINTS
TCL: Running for 1500000 steps
ETITLE: TS BOND ANGLE DIHED IMPRP ELECT VDW BOUNDARY MISC KINETIC TOTAL TEMP POTENTIAL TOTALAVG TEMPAVG PRESSURE GPRESSURE VOLUME PRESSAVG GPRESSAVG
ENERGY: 0 3.0975 8.7354 1.9952 0.0000 -10697.8674 1380.5694 0.0000 0.0000 1825.0247 -7478.4451 307.5667 -9303.4698 -7478.4451 307.5667 -492.6175 -399.8888 30798.4898 -492.6175 -399.8888
ENERGY: 300000 3.0112 4.7466 2.5579 0.0000 -10903.4645 1486.3824 0.0000 0.0000 1810.3513 -7596.4152 305.0938 -9406.7665 -7568.2131 303.0999 32.9851 122.1107 30415.3311 -33.2139 29.6280
ENERGY: 600000 1.5696 7.0472 6.7947 0.0000 -10793.2592 1452.4913 0.0000 0.0000 1769.9204 -7555.4361 298.2801 -9325.3564 -7549.3171 304.4148 86.8018 99.4374 30575.0361 -107.7033 -50.1265
ENERGY: 900000 3.8877 5.0940 2.9686 0.0000 -10715.0798 1436.3562 0.0000 0.0000 1762.1882 -7504.5852 296.9770 -9266.7734 -7535.6550 304.4035 10.9565 152.7150 30992.9375 103.2110 172.0542
ENERGY: 1200000 6.0832 2.3730 1.2335 0.0000 -10735.4731 1424.0999 0.0000 0.0000 1753.2544 -7548.4291 295.4714 -9301.6835 -7540.8906 303.1996 7.6382 116.1552 30263.4384 -8.1457 60.7794
ENERGY: 1500000 2.4970 8.7306 2.4252 0.0000 -10827.2524 1485.5033 0.0000 0.0000 1698.8757 -7629.2206 286.3072 -9328.0963 -7551.0061 302.1225 160.6536 270.2962 30472.9124 42.4759 109.5051
TCL: Running FEP window  13: Lambda1 0.6    Lambda2 0.65   [dLambda 0.050000000000000044]
TCL: Setting parameter firsttimestep to 0
TCL: Setting parameter alchLambda to 0.6
Info: NONBONDED TABLE R-SQUARED SPACING: 0.0625
Info: NONBONDED TABLE SIZE: 705 POINTS
TCL: Setting parameter alchLambda2 to 0.65
Info: NONBONDED TABLE R-SQUARED SPACING: 0.0625
Info: NONBONDED TABLE SIZE: 705 POINTS
TCL: Running for 1500000 steps
ETITLE: TS BOND ANGLE DIHED IMPRP ELECT VDW BOUNDARY MISC KINETIC TOTAL TEMP POTENTIAL TOTALAVG TEMPAVG PRESSURE GPRESSURE VOLUME PRESSAVG GPRESSAVG
ENERGY: 0 2.4970 8.7306 2.4252 0.0000 -10827.3243 1486.2445 0.0000 0.0000 1698.0046 -7629.4224 286.1603 -9327.4270 -7629.4224 286.1603 197.6856 286.0776 30472.9124 197.6856 286.0776
ENERGY: 300000 3.5368 4.0779 1.5737 0.0000 -10765.2940 1395.2819 0.0000 0.0000 1831.0336 -7529.7901 308.5794 -9360.8236 -7558.2630 296.6353 -701.7576 -679.6710 31098.7535 -268.3998 -216.2218
ENERGY: 600000 1.3945 8.3456 3.8539 0.0000 -10903.4598 1531.7091 0.0000 0.0000 1867.2079 -7490.9488 314.6757 -9358.1567 -7549.1173 300.9351 661.8725 782.0101 30501.3090 -67.1207 -5.9127
ENERGY: 900000 1.2012 3.0303 2.3182 0.0000 -10926.0551 1553.2702 0.0000 0.0000 1858.8801 -7507.3551 313.2723 -9366.2352 -7543.3605 302.0743 1002.4032 1141.4358 30345.4980 127.0707 187.8755
ENERGY: 1200000 2.7464 1.8217 3.0680 0.0000 -10798.0348 1451.5064 0.0000 0.0000 1788.0642 -7550.8282 301.3378 -9338.8923 -7540.9571 302.7021 -25.2408 34.0970 30619.0645 41.8296 100.3238
ENERGY: 1500000 2.3364 7.8181 3.3137 0.0000 -10616.5295 1313.8800 0.0000 0.0000 1792.9616 -7496.2197 302.1632 -9289.1813 -7536.0511 302.4889 -1175.4947 -1144.3280 30943.8421 -88.6488 -24.8518
TCL: Running FEP window  14: Lambda1 0.65   Lambda2 0.7000000000000001 [dLambda 0.050000000000000044]
TCL: Setting parameter firsttimestep to 0
TCL: Setting parameter alchLambda to 0.65
Info: NONBONDED TABLE R-SQUARED SPACING: 0.0625
Info: NONBONDED TABLE SIZE: 705 POINTS
TCL: Setting parameter alchLambda2 to 0.7000000000000001
Info: NONBONDED TABLE R-SQUARED SPACING: 0.0625
Info: NONBONDED TABLE SIZE: 705 POINTS
TCL: Running for 1500000 steps
ETITLE: TS BOND ANGLE DIHED IMPRP ELECT VDW BOUNDARY MISC KINETIC TOTAL TEMP POTENTIAL TOTALAVG TEMPAVG PRESSURE GPRESSURE VOLUME PRESSAVG GPRESSAVG
ENERGY: 0 2.3364 7.8181 3.3137 0.0000 -10617.2732 1314.6492 0.0000 0.0000 1792.0960 -7497.0598 302.0173 -9289.1558 -7497.0598 302.0173 -1191.7352 -1129.0400 30943.8421 -1191.7352 -1129.0400
ENERGY: 300000 1.6701 4.4149 1.8862 0.0000 -10912.1546 1514.8747 0.0000 0.0000 1759.8847 -7629.4240 296.5888 -9389.3087 -7562.5041 296.7162 194.8866 316.4889 30758.8722 -431.4714 -350.9017
ENERGY: 600000 1.1823 5.1136 4.4498 0.0000 -10733.1061 1406.7099 0.0000 0.0000 1696.2753 -7619.3752 285.8689 -9315.6505 -7555.6260 295.0022 -299.5337 -192.9001 30585.1102 -437.0626 -355.8583
ENERGY: 900000 1.7625 5.3785 1.9685 0.0000 -10886.8478 1508.4685 0.0000 0.0000 1762.6301 -7606.6396 297.0515 -9369.2697 -7560.8640 297.2132 335.5437 403.5977 30584.2499 -271.4905 -195.3390
ENERGY: 1200000 3.7222 4.3586 1.3357 0.0000 -10767.8330 1471.8549 0.0000 0.0000 1789.3452 -7497.2165 301.5537 -9286.5617 -7550.3445 298.1440 15.1557 130.0175 31017.7392 -190.1509 -113.6863
ENERGY: 1500000 3.9012 6.5488 3.4869 0.0000 -10798.0587 1454.4506 0.0000 0.0000 1734.0559 -7595.6153 292.2360 -9329.6712 -7558.3400 298.1129 -105.1049 -60.0781 30880.9205 -154.9486 -87.5376
TCL: Running FEP window  15: Lambda1 0.7000000000000001 Lambda2 0.7500000000000001 [dLambda 0.050000000000000044]
TCL: Setting parameter firsttimestep to 0
TCL: Setting parameter alchLambda to 0.7000000000000001
Info: NONBONDED TABLE R-SQUARED SPACING: 0.0625
Info: NONBONDED TABLE SIZE: 705 POINTS
TCL: Setting parameter alchLambda2 to 0.7500000000000001
Info: NONBONDED TABLE R-SQUARED SPACING: 0.0625
Info: NONBONDED TABLE SIZE: 705 POINTS
TCL: Running for 1500000 steps
ETITLE: TS BOND ANGLE DIHED IMPRP ELECT VDW BOUNDARY MISC KINETIC TOTAL TEMP POTENTIAL TOTALAVG TEMPAVG PRESSURE GPRESSURE VOLUME PRESSAVG GPRESSAVG
ENERGY: 0 3.9012 6.5488 3.4869 0.0000 -10798.8523 1455.1854 0.0000 0.0000 1733.1571 -7596.5728 292.0845 -9329.7299 -7596.5728 292.0845 -115.2501 -44.6617 30880.9205 -115.2501 -44.6617
ENERGY: 300000 2.8840 6.1594 5.6047 0.0000 -10735.4339 1432.3963 0.0000 0.0000 1798.9502 -7489.4393 303.1724 -9288.3894 -7576.2363 296.9019 -5.2756 57.1495 30549.4159 -128.0222 -56.3414
ENERGY: 600000 1.7036 3.8692 3.7916 0.0000 -10528.4425 1324.1807 0.0000 0.0000 1791.0428 -7403.8546 301.8398 -9194.8974 -7543.1972 298.3021 -679.2659 -646.2880 30983.9436 -123.7267 -59.9679
ENERGY: 900000 2.5717 3.5106 0.7256 0.0000 -10855.8105 1532.7409 0.0000 0.0000 1797.5360 -7518.7257 302.9341 -9316.2617 -7537.5380 298.5380 346.6290 420.4768 31488.7111 -178.1228 -113.8351
ENERGY: 1200000 2.0684 2.3668 1.4291 0.0000 -10672.7077 1384.7915 0.0000 0.0000 1762.1201 -7519.9318 296.9656 -9282.0519 -7535.7198 298.5712 -293.7472 -237.5230 30601.3141 -164.9014 -104.2864
ENERGY: 1500000 0.3525 4.2215 2.3087 0.0000 -10732.6477 1428.1096 0.0000 0.0000 1745.9802 -7551.6752 294.2456 -9297.6554 -7537.8234 298.1650 -90.2828 -70.1954 30854.2031 -167.4316 -112.9614
TCL: Running FEP window  16: Lambda1 0.7500000000000001 Lambda2 0.8000000000000002 [dLambda 0.050000000000000044]
TCL: Setting parameter firsttimestep to 0
TCL: Setting parameter alchLambda to 0.7500000000000001
Info: NONBONDED TABLE R-SQUARED SPACING: 0.0625
Info: NONBONDED TABLE SIZE: 705 POINTS
TCL: Setting parameter alchLambda2 to 0.8000000000000002
Info: NONBONDED TABLE R-SQUARED SPACING: 0.0625
Info: NONBONDED TABLE SIZE: 705 POINTS
TCL: Running for 1500000 steps
ETITLE: TS BOND ANGLE DIHED IMPRP ELECT VDW BOUNDARY MISC KINETIC TOTAL TEMP POTENTIAL TOTALAVG TEMPAVG PRESSURE GPRESSURE VOLUME PRESSAVG GPRESSAVG
ENERGY: 0 0.3525 4.2215 2.3088 0.0000 -10733.2584 1428.0338 0.0000 0.0000 1745.1106 -7553.2312 294.0990 -9298.3418 -7553.2312 294.0990 -134.0683 -65.8059 30854.2031 -134.0683 -65.8059
ENERGY: 300000 3.0182 5.1720 4.0197 0.0000 -10703.9257 1416.7291 0.0000 0.0000 1763.3914 -7511.5953 297.1798 -9274.9867 -7556.8780 296.8879 -496.7349 -454.8632 31260.9045 -579.0415 -532.3071
ENERGY: 600000 3.4513 3.6051 4.4659 0.0000 -11000.5138 1554.1109 0.0000 0.0000 1746.3524 -7688.5282 294.3083 -9434.8805 -7606.4634 294.8925 710.0695 780.3168 30497.2886 -236.8110 -178.4037
ENERGY: 900000 2.4363 3.8385 4.4630 0.0000 -10908.3017 1517.7342 0.0000 0.0000 1867.3055 -7512.5242 314.6922 -9379.8297 -7602.8013 297.6485 591.4868 671.6267 30882.6778 -242.0079 -183.8377
ENERGY: 1200000 2.0304 4.4782 2.2469 0.0000 -10908.4775 1500.8110 0.0000 0.0000 1792.1763 -7606.7347 302.0309 -9398.9110 -7604.2274 298.2289 321.5847 406.6347 30547.9051 -158.1617 -101.0749
ENERGY: 1500000 6.2162 6.9613 1.7218 0.0000 -10884.2465 1431.2506 0.0000 0.0000 1743.2489 -7694.8476 293.7852 -9438.0965 -7602.7346 298.7071 -128.0084 -163.8285 30353.6604 -118.6610 -69.7939
TCL: Running FEP window  17: Lambda1 0.8000000000000002 Lambda2 0.8500000000000002 [dLambda 0.050000000000000044]
TCL: Setting parameter firsttimestep to 0
TCL: Setting parameter alchLambda to 0.8000000000000002
Info: NONBONDED TABLE R-SQUARED SPACING: 0.0625
Info: NONBONDED TABLE SIZE: 705 POINTS
TCL: Setting parameter alchLambda2 to 0.8500000000000002
Info: NONBONDED TABLE R-SQUARED SPACING: 0.0625
Info: NONBONDED TABLE SIZE: 705 POINTS
TCL: Running for 1500000 steps
ETITLE: TS BOND ANGLE DIHED IMPRP ELECT VDW BOUNDARY MISC KINETIC TOTAL TEMP POTENTIAL TOTALAVG TEMPAVG PRESSURE GPRESSURE VOLUME PRESSAVG GPRESSAVG
ENERGY: 0 6.2163 6.9613 1.7218 0.0000 -10884.2957 1431.0773 0.0000 0.0000 1742.3545 -7695.9645 293.6345 -9438.3190 -7695.9645 293.6345 -247.8471 -157.3370 30353.6604 -247.8471 -157.3370
ENERGY: 300000 0.9721 3.7749 3.6422 0.0000 -10728.5825 1457.1028 0.0000 0.0000 1784.8751 -7478.2154 300.8004 -9263.0905 -7557.4132 297.6742 -23.7044 57.2692 31037.9599 -112.3360 -72.6338
ENERGY: 600000 1.7558 2.2107 3.1035 0.0000 -10696.4522 1431.4781 0.0000 0.0000 1746.6347 -7511.2694 294.3558 -9257.9041 -7545.9715 298.7876 -173.1060 -57.8944 30862.1109 -35.7288 28.7465
ENERGY: 900000 2.2612 5.6952 2.9923 0.0000 -10847.4289 1447.9396 0.0000 0.0000 1784.6981 -7603.8424 300.7706 -9388.5406 -7558.0175 299.1534 -311.7795 -305.9505 30881.7171 -64.2181 -13.0775
ENERGY: 1200000 2.8796 5.5209 2.4376 0.0000 -10734.0438 1385.4539 0.0000 0.0000 1755.1308 -7582.6211 295.7877 -9337.7518 -7554.6481 299.7621 -146.9793 -154.6224 30324.5643 -15.5666 30.7942
ENERGY: 1500000 3.2506 6.6267 1.2637 0.0000 -10829.9309 1450.6146 0.0000 0.0000 1776.1754 -7591.9998 299.3343 -9368.1752 -7558.0321 299.2992 -41.5943 3.3132 30613.8803 -46.2689 1.6933
TCL: Running FEP window  18: Lambda1 0.8500000000000002 Lambda2 0.9000000000000002 [dLambda 0.050000000000000044]
TCL: Setting parameter firsttimestep to 0
TCL: Setting parameter alchLambda to 0.8500000000000002
Info: NONBONDED TABLE R-SQUARED SPACING: 0.0625
Info: NONBONDED TABLE SIZE: 705 POINTS
TCL: Setting parameter alchLambda2 to 0.9000000000000002
Info: NONBONDED TABLE R-SQUARED SPACING: 0.0625
Info: NONBONDED TABLE SIZE: 705 POINTS
TCL: Running for 1500000 steps
ETITLE: TS BOND ANGLE DIHED IMPRP ELECT VDW BOUNDARY MISC KINETIC TOTAL TEMP POTENTIAL TOTALAVG TEMPAVG PRESSURE GPRESSURE VOLUME PRESSAVG GPRESSAVG
ENERGY: 0 3.2506 6.6267 1.2637 0.0000 -10830.7871 1450.4610 0.0000 0.0000 1775.3022 -7593.8827 299.1871 -9369.1849 -7593.8827 299.1871 -73.4530 12.6093 30613.8803 -73.4530 12.6093
ENERGY: 300000 3.7637 5.4997 1.9177 0.0000 -10918.1495 1493.2798 0.0000 0.0000 1766.8681 -7646.8206 297.7657 -9413.6887 -7586.9777 300.3114 260.0252 324.0464 30449.1556 -86.4114 -2.2642
ENERGY: 600000 1.8405 4.6343 1.0480 0.0000 -10877.6630 1491.2508 0.0000 0.0000 1778.8605 -7600.0289 299.7868 -9378.8894 -7580.6980 299.6860 94.1267 165.3116 30625.1719 -134.9335 -47.6412
ENERGY: 900000 0.3932 3.4924 1.0040 0.0000 -10879.8795 1540.4736 0.0000 0.0000 1805.2718 -7529.2445 304.2378 -9334.5163 -7559.7040 300.2912 580.6399 693.5710 30957.5700 24.4181 106.2025
ENERGY: 1200000 3.5940 7.2520 2.3599 0.0000 -10778.3238 1408.0755 0.0000 0.0000 1728.6276 -7628.4148 291.3212 -9357.0424 -7564.0294 299.3281 -150.9849 -23.1815 30221.8827 26.0263 108.7046
ENERGY: 1500000 1.2768 2.5773 1.1815 0.0000 -10914.4410 1516.7706 0.0000 0.0000 1756.9568 -7635.6779 296.0954 -9392.6347 -7563.5447 299.9177 314.3936 316.8178 30848.6308 111.6597 192.5346
TCL: Running FEP window  19: Lambda1 0.9000000000000002 Lambda2 0.9500000000000003 [dLambda 0.050000000000000044]
TCL: Setting parameter firsttimestep to 0
TCL: Setting parameter alchLambda to 0.9000000000000002
Info: NONBONDED TABLE R-SQUARED SPACING: 0.0625
Info: NONBONDED TABLE SIZE: 705 POINTS
TCL: Setting parameter alchLambda2 to 0.9500000000000003
Info: NONBONDED TABLE R-SQUARED SPACING: 0.0625
Info: NONBONDED TABLE SIZE: 705 POINTS
TCL: Running for 1500000 steps
ETITLE: TS BOND ANGLE DIHED IMPRP ELECT VDW BOUNDARY MISC KINETIC TOTAL TEMP POTENTIAL TOTALAVG TEMPAVG PRESSURE GPRESSURE VOLUME PRESSAVG GPRESSAVG
ENERGY: 0 1.2768 2.5774 1.1815 0.0000 -10914.9453 1516.8145 0.0000 0.0000 1756.1124 -7636.9827 295.9531 -9393.0951 -7636.9827 295.9531 247.7817 328.4751 30848.6308 247.7817 328.4751
ENERGY: 300000 2.7991 3.5549 2.8612 0.0000 -10690.4040 1372.1375 0.0000 0.0000 1749.9508 -7559.1005 294.9147 -9309.0514 -7586.2809 299.6872 -717.2333 -661.1853 31248.7896 -389.5048 -321.8763
ENERGY: 600000 1.0553 2.9520 2.0396 0.0000 -10829.5890 1390.2530 0.0000 0.0000 1759.6105 -7673.6786 296.5426 -9433.2891 -7589.7761 299.5238 -745.1612 -675.8612 30618.0415 -292.1950 -231.0980
ENERGY: 900000 2.3431 3.9107 1.8182 0.0000 -10711.5142 1376.2309 0.0000 0.0000 1733.1121 -7594.0993 292.0769 -9327.2113 -7586.7087 299.2218 -703.9499 -608.9338 30857.1441 -184.9199 -120.4595
ENERGY: 1200000 1.9872 4.8872 2.1743 0.0000 -10689.1033 1343.0748 0.0000 0.0000 1793.0330 -7543.9470 302.1752 -9336.9799 -7593.6958 298.6246 -1008.9171 -969.0387 31228.8602 -167.9266 -108.1269
ENERGY: 1500000 3.9832 6.3492 1.7920 0.0000 -10926.5525 1570.8934 0.0000 0.0000 1791.6920 -7551.8427 301.9492 -9343.5347 -7574.0823 299.2913 980.6369 1076.2830 30313.4155 -77.2598 -16.7059
TCL: Running FEP window  20: Lambda1 0.9500000000000003 Lambda2 1.0    [dLambda 0.04999999999999971]
TCL: Setting parameter firsttimestep to 0
TCL: Setting parameter alchLambda to 0.9500000000000003
Info: NONBONDED TABLE R-SQUARED SPACING: 0.0625
Info: NONBONDED TABLE SIZE: 705 POINTS
TCL: Setting parameter alchLambda2 to 1.0
Info: NONBONDED TABLE R-SQUARED SPACING: 0.0625
Info: NONBONDED TABLE SIZE: 705 POINTS
TCL: Running for 1500000 steps
ETITLE: TS BOND ANGLE DIHED IMPRP ELECT VDW BOUNDARY MISC KINETIC TOTAL TEMP POTENTIAL TOTALAVG TEMPAVG PRESSURE GPRESSURE VOLUME PRESSAVG GPRESSAVG
ENERGY: 0 3.9831 6.3492 1.7920 0.0000 -10927.2902 1570.6219 0.0000 0.0000 1790.8084 -7553.7355 301.8003 -9344.5439 -7553.7355 301.8003 995.4670 1083.8279 30313.4155 995.4670 1083.8279
ENERGY: 300000 3.4595 4.8764 4.3518 0.0000 -10797.2982 1440.4166 0.0000 0.0000 1760.9815 -7583.2124 296.7737 -9344.1939 -7575.9538 302.5871 -78.8010 41.7357 30552.8171 83.4033 173.8540
ENERGY: 600000 2.2680 4.7786 3.9638 0.0000 -10779.4583 1434.4564 0.0000 0.0000 1744.0961 -7589.8953 293.9280 -9333.9915 -7579.0360 298.8228 -278.2103 -158.1264 31132.8438 -115.3646 -27.6467
ENERGY: 900000 4.1415 3.1913 2.1901 0.0000 -10737.4539 1387.1183 0.0000 0.0000 1776.5045 -7564.3082 299.3897 -9340.8127 -7567.2705 300.1455 -521.9229 -391.2430 31008.2596 -234.2307 -155.2173
ENERGY: 1200000 2.8658 6.1382 2.8123 0.0000 -10790.3888 1414.3749 0.0000 0.0000 1807.7839 -7556.4136 304.6612 -9364.1974 -7564.5461 300.7357 -386.3790 -346.9097 31109.3538 -184.9377 -112.7769
ENERGY: 1500000 5.5188 4.3708 2.1145 0.0000 -10947.9495 1585.1306 0.0000 0.0000 1810.9530 -7539.8618 305.1952 -9350.8148 -7572.3452 300.1321 997.4083 1065.0774 30262.7389 -42.3555 26.6282
TCL: Exiting due to exit command.
