Info: SIMULATION PARAMETERS:
Info: TIMESTEP               2
Info: NUMBER OF STEPS        0
Info: STEPS PER CYCLE        10
Info: PERIODIC CELL BASIS 1  31.788 0 0
Info: PERIODIC CELL BASIS 2  0 31.3637 0
Info: PERIODIC CELL BASIS 3  0 0 30.9589
Info: PERIODIC CELL CENTER   0 0 0
Info: WRAPPING WATERS AROUND PERIODIC BOUNDARIES ON OUTPUT.
Info: WRAPPING ALL CLUSTERS AROUND PERIODIC BOUNDARIES ON OUTPUT.
Info: FIRST LDB TIMESTEP     50
Info: LAST LDB TIMESTEP     -1
Info: HOM BACKGROUND SCALING 1
Info: PME BACKGROUND SCALING 1
Info: MIN ATOMS PER PATCH    40
Info: EMPTY PATCH LOAD       40 ATOMS
Info: VELOCITY FILE          mobley_4561957_equil.vel
Info: CENTER OF MASS MOVING INITIALLY? NO
Info: DIELECTRIC             1
Info: EXCLUDE                SCALED ONE-FOUR
Info: 1-4 ELECTROSTATICS SCALED BY 0.833333
Info: MODIFIED 1-4 VDW PARAMETERS WILL BE USED
Info: DCD FILENAME           mobley_4561957_prod.dcd
Info: DCD FREQUENCY          100000
Info: DCD FIRST STEP         100000
Info: DCD FILE WILL CONTAIN UNIT CELL DATA
Info: XST FILENAME           mobley_4561957_prod.xst
Info: XST FREQUENCY          100000
Info: NO VELOCITY DCD OUTPUT
Info: NO FORCE DCD OUTPUT
Info: OUTPUT FILENAME        mobley_4561957_prod
Info: BINARY OUTPUT FILES WILL BE USED
Info: RESTART FILENAME       mobley_4561957_prod.restart
Info: RESTART FREQUENCY      100000
Info: BINARY RESTART FILES WILL BE USED
Info: CUTOFF                 9
Info: PAIRLIST DISTANCE      11
Info: PAIRLIST SHRINK RATE   0.01
Info: PAIRLIST GROW RATE     0.01
Info: PAIRLIST TRIGGER       0.3
Info: PAIRLISTS PER CYCLE    2
Info: PAIRLISTS ENABLED
Info: MARGIN                 2
Info: HYDROGEN GROUP CUTOFF  2.5
Info: PATCH DIMENSION        15.5
Info: ENERGY OUTPUT STEPS    100000
Info: ENERGY EVALUATION STEPS    100000
Info: OUTPUT ENERGY PRECISION 4
Info: CROSSTERM ENERGY INCLUDED IN DIHEDRAL
Info: TIMING OUTPUT STEPS    1000000
Info: PRESSURE OUTPUT STEPS  100000
Info: ALCHEMICAL FEP ON
Info: FEP CURRENT LAMBDA VALUE     1
Info: FEP COMPARISON LAMBDA VALUE  0.95
Info: FEP INTRA-ALCHEMICAL NON-BONDED INTERACTIONS WILL BE RETAINED
Info: FEP INTRA-ALCHEMICAL BONDED INTERACTIONS WILL BE RETAINED
Info: FEP VDW SHIFTING COEFFICIENT 5
Info: FEP ELEC. ACTIVE FOR ANNIHILATED PARTICLES BETWEEN LAMBDA = 0 AND LAMBDA = 0.5
Info: FEP ELEC. ACTIVE FOR EXNIHILATED PARTICLES BETWEEN LAMBDA = 0.5 AND LAMBDA = 1
Info: FEP VDW ACTIVE FOR ANNIHILATED PARTICLES BETWEEN LAMBDA = 0 AND LAMBDA = 1
Info: FEP VDW ACTIVE FOR EXNIHILATED PARTICLES BETWEEN LAMBDA = 0 AND LAMBDA = 1
Info: FEP BOND ACTIVE FOR ANNIHILATED PARTICLES BETWEEN LAMBDA = 1 AND LAMBDA = 1
Info: FEP BOND ACTIVE FOR EXNIHILATED PARTICLES BETWEEN LAMBDA = 0 AND LAMBDA = 0
Info: LANGEVIN DYNAMICS ACTIVE
Info: LANGEVIN TEMPERATURE   300
Info: LANGEVIN USING BBK INTEGRATOR
Info: LANGEVIN DAMPING COEFFICIENT IS 1 INVERSE PS
Info: LANGEVIN DYNAMICS APPLIED TO HYDROGENS
Info: LANGEVIN PISTON PRESSURE CONTROL ACTIVE
Info:        TARGET PRESSURE IS 1.01325 BAR
Info:     OSCILLATION PERIOD IS 50 FS
Info:             DECAY TIME IS 25 FS
Info:     PISTON TEMPERATURE IS 300 K
Info:       PRESSURE CONTROL IS GROUP-BASED
Info:    INITIAL STRAIN RATE IS 9.41165e-05 9.41165e-05 9.41165e-05
Info:       CELL FLUCTUATION IS ISOTROPIC
Info: PARTICLE MESH EWALD (PME) ACTIVE
Info: PME TOLERANCE               1e-06
Info: PME EWALD COEFFICIENT       0.348832
Info: PME INTERPOLATION ORDER     4
Info: PME GRID DIMENSIONS         32 32 32
Info: PME MAXIMUM GRID SPACING    1
Info: PME CALCULATION WILL BE PERFORMED ON GPU
Info: FULL ELECTROSTATIC EVALUATION FREQUENCY      2
Info: USING VERLET I (r-RESPA) MTS SCHEME.
Info: C1 SPLITTING OF LONG RANGE ELECTROSTATICS
Info: PLACING ATOMS IN PATCHES BY HYDROGEN GROUPS
Info: RIGID BONDS TO HYDROGEN : ALL
Info:         ERROR TOLERANCE : 1e-08
Info:          MAX ITERATIONS : 100
Info: RIGID WATER USING SETTLE ALGORITHM
Info: RANDOM NUMBER SEED     1743786033
Info: USE HYDROGEN BONDS?    NO
Info: Using AMBER format force field!
Info: AMBER PARM FILE        mobley_4561957.prmtop
Info: COORDINATE PDB         mobley_4561957.pdb
Info: Exclusions will be read from PARM file!
Info: SCNB (VDW SCALING)     2
Info: USING ARITHMETIC MEAN TO COMBINE L-J SIGMA PARAMETERS
Info: BINARY COORDINATES     mobley_4561957_equil.coor
Info: SUMMARY OF PARAMETERS:
Info: 4 BONDS
Info: 3 ANGLES
Info:   3 HARMONIC
Info:   0 COSINE-BASED
Info: 5 DIHEDRAL
Info: 0 IMPROPER
Info: 0 CROSSTERM
Info: 0 VDW
Info: 10 VDW_PAIRS
Info: 0 NBTHOLE_PAIRS
Info: To read alchdata from file: mobley_4561957.pdb
Info: To read alchflag data from column: 5
Info: STRUCTURE SUMMARY:
Info: 2921 ATOMS
Info: 2920 BONDS
Info: 36 ANGLES
Info: 53 DIHEDRALS
Info: 0 IMPROPERS
Info: 0 CROSSTERMS
Info: 3001 EXCLUSIONS
Info: 2915 RIGID BONDS
Info: ALCH: 0 ATOMS TO DISAPPEAR IN FINAL STATE
Info: ALCH: 20 ATOMS TO APPEAR IN FINAL STATE
Info: 5848 DEGREES OF FREEDOM
Info: 973 HYDROGEN GROUPS
Info: 4 ATOMS IN LARGEST HYDROGEN GROUP
Info: 973 MIGRATION GROUPS
Info: 4 ATOMS IN LARGEST MIGRATION GROUP
Info: TOTAL MASS = 17507.6 amu
Info: TOTAL CHARGE = 0.00060001 e
Info: MASS DENSITY = 0.941914 g/cm^3
Info: ATOM DENSITY = 0.0946358 atoms/A^3
Info: ADDED 0 IMPLICIT EXCLUSIONS
Info: NONBONDED TABLE R-SQUARED SPACING: 0.0625
Info: NONBONDED TABLE SIZE: 705 POINTS
Info: REDUCING NUMBER OF PATCHES TO IMPROVE LOAD BALANCE
Info: REMOVING COM VELOCITY 0.00310508 -0.171755 -0.220339
Info: Use 3D box decompostion in PME FFT.
Info: Updated CUDA force table with 4096 elements.
Info: Updated CUDA LJ table with 4 x 4 elements.
Info: Found 23 unique exclusion lists needing 64 bytes
TCL: Running for 1500000 steps
ETITLE: TS BOND ANGLE DIHED IMPRP ELECT VDW BOUNDARY MISC KINETIC TOTAL TEMP POTENTIAL TOTALAVG TEMPAVG PRESSURE GPRESSURE VOLUME PRESSAVG GPRESSAVG
ENERGY: 0 2.6411 7.2139 3.4932 0.0000 -10499.3437 1366.7972 0.0000 0.0000 1791.2048 -7327.9933 308.2679 -9119.1982 -7327.9933 308.2679 -813.4693 -743.9623 30865.6823 -813.4693 -743.9623
ENERGY: 300000 1.3584 10.0376 3.6661 0.0000 -10580.1548 1469.0835 0.0000 0.0000 1733.0967 -7362.9125 298.2674 -9096.0093 -7356.4416 303.9140 534.7339 566.6742 29848.9583 -96.8437 -43.8262
ENERGY: 600000 1.8279 8.9595 3.2314 0.0000 -10618.6257 1480.1238 0.0000 0.0000 1737.3203 -7387.1628 298.9943 -9124.4831 -7361.6331 301.8473 276.7315 358.6217 30136.7023 -51.0585 8.7060
ENERGY: 900000 0.1001 8.1484 6.3532 0.0000 -10532.5593 1420.3229 0.0000 0.0000 1741.7564 -7355.8783 299.7578 -9097.6348 -7355.3990 301.1108 120.7119 138.7892 30306.4931 -46.0447 8.5185
ENERGY: 1200000 1.3580 10.8167 3.5429 0.0000 -10497.9555 1367.1258 0.0000 0.0000 1777.6065 -7337.5055 305.9276 -9115.1121 -7362.9248 301.3725 -177.3466 -154.6867 30037.4473 -26.4368 28.8708
ENERGY: 1500000 3.5810 6.9587 4.3427 0.0000 -10416.7965 1328.9683 0.0000 0.0000 1723.0247 -7349.9211 296.5340 -9072.9458 -7361.0080 301.3630 -465.7471 -403.4763 29957.6342 0.0839 60.1281
TCL: Running FEP window   2: Lambda1 0.95   Lambda2 0.8999999999999999 [dLambda -0.050000000000000044]
TCL: Setting parameter firsttimestep to 0
TCL: Setting parameter alchLambda to 0.95
Info: NONBONDED TABLE R-SQUARED SPACING: 0.0625
Info: NONBONDED TABLE SIZE: 705 POINTS
TCL: Setting parameter alchLambda2 to 0.8999999999999999
Info: NONBONDED TABLE R-SQUARED SPACING: 0.0625
Info: NONBONDED TABLE SIZE: 705 POINTS
TCL: Running for 1500000 steps
ETITLE: TS BOND ANGLE DIHED IMPRP ELECT VDW BOUNDARY MISC KINETIC TOTAL TEMP POTENTIAL TOTALAVG TEMPAVG PRESSURE GPRESSURE VOLUME PRESSAVG GPRESSAVG
ENERGY: 0 3.5810 6.9587 4.3427 0.0000 -10416.8193 1328.9426 0.0000 0.0000 1722.1616 -7350.8327 296.3855 -9072.9943 -7350.8327 296.3855 -492.2406 -417.1251 29957.6342 -492.2406 -417.1251
ENERGY: 300000 5.3694 10.8204 2.9775 0.0000 -10423.0615 1347.7912 0.0000 0.0000 1707.3719 -7348.7310 293.8402 -9056.1029 -7395.8394 296.5914 -643.5367 -555.9882 30451.3256 -769.7359 -688.6017
ENERGY: 600000 1.9237 8.8151 3.6711 0.0000 -10579.4572 1439.9481 0.0000 0.0000 1772.2506 -7352.8486 305.0058 -9125.0992 -7372.4179 300.0825 115.9195 140.8155 29939.5964 -395.0895 -320.1574
ENERGY: 900000 2.0795 14.5920 3.6908 0.0000 -10595.4651 1418.6161 0.0000 0.0000 1772.6710 -7383.8156 305.0782 -9156.4866 -7384.2642 299.1634 13.3578 -32.0427 29763.0900 -280.5054 -213.1421
ENERGY: 1200000 1.8750 12.1171 4.3722 0.0000 -10632.4760 1484.3797 0.0000 0.0000 1713.1772 -7416.5547 294.8393 -9129.7319 -7384.0451 299.3201 616.7564 677.5634 29782.9168 -109.6612 -42.9247
ENERGY: 1500000 0.9989 12.8473 4.1773 0.0000 -10541.6936 1384.9594 0.0000 0.0000 1735.1679 -7403.5428 298.6239 -9138.7108 -7387.9585 298.9212 -31.3462 3.6910 29566.0200 -146.5984 -85.2261
TCL: Running FEP window   3: Lambda1 0.8999999999999999 Lambda2 0.8499999999999999 [dLambda -0.050000000000000044]
TCL: Setting parameter firsttimestep to 0
TCL: Setting parameter alchLambda to 0.8999999999999999
Info: NONBONDED TABLE R-SQUARED SPACING: 0.0625
Info: NONBONDED TABLE SIZE: 705 POINTS
TCL: Setting parameter alchLambda2 to 0.8499999999999999
Info: NONBONDED TABLE R-SQUARED SPACING: 0.0625
Info: NONBONDED TABLE SIZE: 705 POINTS
TCL: Running for 1500000 steps
ETITLE: TS BOND ANGLE DIHED IMPRP ELECT VDW BOUNDARY MISC KINETIC TOTAL TEMP POTENTIAL TOTALAVG TEMPAVG PRESSURE GPRESSURE VOLUME PRESSAVG GPRESSAVG
ENERGY: 0 0.9989 12.8473 4.1773 0.0000 -10541.7130 1385.3980 0.0000 0.0000 1734.2794 -7404.0121 298.4710 -9138.2915 -7404.0121 298.4710 -85.8007 -2.6560 29566.0200 -85.8007 -2.6560
ENERGY: 300000 5.3404 10.1391 2.4999 0.0000 -10567.9666 1423.2484 0.0000 0.0000 1706.3673 -7420.3716 293.6673 -9126.7389 -7433.1370 296.3409 -71.1796 13.4929 30108.0449 -208.7801 -152.0364
ENERGY: 600000 3.0570 12.2947 4.0126 0.0000 -10565.0427 1454.8791 0.0000 0.0000 1780.8199 -7309.9793 306.4806 -9090.7992 -7401.2829 297.6938 386.3055 459.9058 29989.5980 -61.8793 5.8184
ENERGY: 900000 2.1198 8.4525 4.2885 0.0000 -10596.9131 1469.4257 0.0000 0.0000 1728.0721 -7384.5545 297.4027 -9112.6266 -7394.1583 297.6133 341.7885 420.4703 29970.1403 62.7118 129.2044
ENERGY: 1200000 0.4171 9.5416 3.6390 0.0000 -10494.8750 1358.5456 0.0000 0.0000 1704.5367 -7418.1950 293.3522 -9122.7317 -7391.6450 297.0335 -291.4865 -156.5683 29655.9691 23.3063 95.1780
ENERGY: 1500000 3.7818 11.2698 3.7214 0.0000 -10606.8421 1433.3108 0.0000 0.0000 1802.6056 -7352.1526 310.2300 -9154.7582 -7389.4762 298.1434 -140.1442 -127.9520 30110.5028 -8.1739 57.6052
TCL: Running FEP window   4: Lambda1 0.8499999999999999 Lambda2 0.7999999999999998 [dLambda -0.050000000000000044]
TCL: Setting parameter firsttimestep to 0
TCL: Setting parameter alchLambda to 0.8499999999999999
Info: NONBONDED TABLE R-SQUARED SPACING: 0.0625
Info: NONBONDED TABLE SIZE: 705 POINTS
TCL: Setting parameter alchLambda2 to 0.7999999999999998
Info: NONBONDED TABLE R-SQUARED SPACING: 0.0625
Info: NONBONDED TABLE SIZE: 705 POINTS
TCL: Running for 1500000 steps
ETITLE: TS BOND ANGLE DIHED IMPRP ELECT VDW BOUNDARY MISC KINETIC TOTAL TEMP POTENTIAL TOTALAVG TEMPAVG PRESSURE GPRESSURE VOLUME PRESSAVG GPRESSAVG
ENERGY: 0 3.7818 11.2698 3.7214 0.0000 -10606.8369 1433.3434 0.0000 0.0000 1801.7516 -7352.9688 310.0830 -9154.7204 -7352.9688 310.0830 -221.1730 -140.9766 30110.5028 -221.1730 -140.9766
ENERGY: 300000 2.5007 13.1908 4.1173 0.0000 -10430.8849 1358.7828 0.0000 0.0000 1730.8352 -7321.4580 297.8782 -9052.2932 -7344.8480 303.5852 -243.9666 -182.5027 30159.8350 -51.5362 -15.6564
ENERGY: 600000 0.6722 12.7040 3.4798 0.0000 -10530.2176 1378.9315 0.0000 0.0000 1735.1062 -7399.3239 298.6133 -9134.4300 -7366.4392 299.8193 -280.2574 -245.6473 29888.7808 -69.6373 -36.2532
ENERGY: 900000 1.3237 7.8958 2.9820 0.0000 -10519.2228 1341.7435 0.0000 0.0000 1748.5284 -7416.7493 300.9232 -9165.2777 -7368.8262 299.1012 -709.6776 -632.8885 30079.9669 -112.8514 -62.9573
ENERGY: 1200000 2.0611 7.4876 3.0476 0.0000 -10464.3013 1373.3136 0.0000 0.0000 1745.8304 -7332.5609 300.4589 -9078.3913 -7376.3766 299.5519 -325.8343 -224.5373 30159.9196 -97.1093 -41.1587
ENERGY: 1500000 2.1903 14.7039 2.7901 0.0000 -10437.8847 1333.8549 0.0000 0.0000 1748.5930 -7335.7525 300.9343 -9084.3455 -7373.6847 299.6259 -1012.3084 -951.6085 30740.7458 -188.7613 -133.8945
TCL: Running FEP window   5: Lambda1 0.7999999999999998 Lambda2 0.7499999999999998 [dLambda -0.050000000000000044]
TCL: Setting parameter firsttimestep to 0
TCL: Setting parameter alchLambda to 0.7999999999999998
Info: NONBONDED TABLE R-SQUARED SPACING: 0.0625
Info: NONBONDED TABLE SIZE: 705 POINTS
TCL: Setting parameter alchLambda2 to 0.7499999999999998
Info: NONBONDED TABLE R-SQUARED SPACING: 0.0625
Info: NONBONDED TABLE SIZE: 705 POINTS
TCL: Running for 1500000 steps
ETITLE: TS BOND ANGLE DIHED IMPRP ELECT VDW BOUNDARY MISC KINETIC TOTAL TEMP POTENTIAL TOTALAVG TEMPAVG PRESSURE GPRESSURE VOLUME PRESSAVG GPRESSAVG
ENERGY: 0 2.1903 14.7039 2.7901 0.0000 -10437.8645 1334.3579 0.0000 0.0000 1747.6938 -7336.1285 300.7796 -9083.8223 -7336.1285 300.7796 -1035.6367 -953.7619 30740.7458 -1035.6367 -953.7619
ENERGY: 300000 2.1126 9.1875 3.4506 0.0000 -10663.8294 1503.6169 0.0000 0.0000 1713.5701 -7431.8917 294.9069 -9145.4618 -7362.9806 300.1987 634.9095 717.1610 29788.7855 -92.7846 -9.9846
ENERGY: 600000 0.9852 9.5125 3.8220 0.0000 -10749.6317 1523.5098 0.0000 0.0000 1745.0193 -7466.7829 300.3193 -9211.8022 -7378.3031 299.9360 627.0688 732.6712 29759.8919 -61.3228 22.2025
ENERGY: 900000 3.3694 16.2542 2.9245 0.0000 -10510.9096 1345.6614 0.0000 0.0000 1755.1342 -7387.5659 302.0601 -9142.7001 -7378.2359 299.8808 -445.6651 -367.4023 29656.7852 -215.9494 -132.7914
ENERGY: 1200000 1.6820 11.0004 2.3142 0.0000 -10487.7541 1375.1467 0.0000 0.0000 1724.0302 -7373.5807 296.7071 -9097.6109 -7374.2607 300.1161 -401.5091 -321.0663 30115.2642 -203.0124 -127.5220
ENERGY: 1500000 0.8439 15.1579 3.1043 0.0000 -10620.7391 1537.0339 0.0000 0.0000 1774.2573 -7290.3418 305.3512 -9064.5991 -7360.7764 300.5371 1281.5261 1282.0693 29907.4122 -158.7163 -93.3138
TCL: Running FEP window   6: Lambda1 0.7499999999999998 Lambda2 0.6999999999999997 [dLambda -0.050000000000000044]
TCL: Setting parameter firsttimestep to 0
TCL: Setting parameter alchLambda to 0.7499999999999998
Info: NONBONDED TABLE R-SQUARED SPACING: 0.0625
Info: NONBONDED TABLE SIZE: 705 POINTS
TCL: Setting parameter alchLambda2 to 0.6999999999999997
Info: NONBONDED TABLE R-SQUARED SPACING: 0.0625
Info: NONBONDED TABLE SIZE: 705 POINTS
TCL: Running for 1500000 steps
ETITLE: TS BOND ANGLE DIHED IMPRP ELECT VDW BOUNDARY MISC KINETIC TOTAL TEMP POTENTIAL TOTALAVG TEMPAVG PRESSURE GPRESSURE VOLUME PRESSAVG GPRESSAVG
ENERGY: 0 0.8439 15.1579 3.1043 0.0000 -10620.7366 1537.2892 0.0000 0.0000 1773.3877 -7290.9536 305.2015 -9064.3413 -7290.9536 305.2015 1202.5427 1278.0311 29907.4122 1202.5427 1278.0311
ENERGY: 300000 2.6695 11.2613 3.9842 0.0000 -10420.8126 1329.7364 0.0000 0.0000 1727.5224 -7345.6388 297.3081 -9073.1612 -7329.0948 303.8671 -812.3446 -755.1871 30380.7964 134.3041 184.5388
ENERGY: 600000 2.3959 11.8159 3.0097 0.0000 -10686.3578 1519.1655 0.0000 0.0000 1726.2349 -7423.7359 297.0865 -9149.9708 -7354.2467 301.7680 499.2949 540.3217 30113.7742 129.1332 192.6199
ENERGY: 900000 0.7055 9.8655 3.2997 0.0000 -10612.5217 1439.5456 0.0000 0.0000 1685.1852 -7473.9201 290.0218 -9159.1053 -7358.9169 301.5839 158.0964 267.8452 29538.8971 41.5121 96.5276
ENERGY: 1200000 1.9564 10.2981 2.7409 0.0000 -10557.2483 1404.6563 0.0000 0.0000 1768.7013 -7368.8953 304.3950 -9137.5966 -7376.9623 301.0887 134.0058 228.0355 29434.9979 86.9477 143.9031
ENERGY: 1500000 1.4851 13.7371 3.0555 0.0000 -10673.2330 1486.1902 0.0000 0.0000 1724.7789 -7443.9862 296.8359 -9168.7651 -7386.5156 300.4054 396.8357 439.2061 30157.3490 63.8116 118.1096
TCL: Running FEP window   7: Lambda1 0.6999999999999997 Lambda2 0.6499999999999997 [dLambda -0.050000000000000044]
TCL: Setting parameter firsttimestep to 0
TCL: Setting parameter alchLambda to 0.6999999999999997
Info: NONBONDED TABLE R-SQUARED SPACING: 0.0625
Info: NONBONDED TABLE SIZE: 705 POINTS
TCL: Setting parameter alchLambda2 to 0.6499999999999997
Info: NONBONDED TABLE R-SQUARED SPACING: 0.0625
Info: NONBONDED TABLE SIZE: 705 POINTS
TCL: Running for 1500000 steps
ETITLE: TS BOND ANGLE DIHED IMPRP ELECT VDW BOUNDARY MISC KINETIC TOTAL TEMP POTENTIAL TOTALAVG TEMPAVG PRESSURE GPRESSURE VOLUME PRESSAVG GPRESSAVG
ENERGY: 0 1.4851 13.7371 3.0555 0.0000 -10673.2491 1486.5996 0.0000 0.0000 1723.9214 -7444.4504 296.6883 -9168.3718 -7444.4504 296.6883 347.7003 432.4520 30157.3490 347.7003 432.4520
ENERGY: 300000 1.6312 10.2851 2.5814 0.0000 -10350.0102 1304.7220 0.0000 0.0000 1742.3061 -7288.4843 299.8524 -9030.7904 -7312.7028 301.9558 -726.4628 -692.9677 30189.7947 -61.2913 -16.7295
ENERGY: 600000 2.4779 10.5355 3.4926 0.0000 -10544.0340 1429.6684 0.0000 0.0000 1712.1776 -7385.6820 294.6672 -9097.8596 -7330.7673 300.8647 101.1850 50.6852 30097.0172 25.8809 55.0336
ENERGY: 900000 4.3923 8.6228 3.5416 0.0000 -10598.4676 1476.5560 0.0000 0.0000 1723.3515 -7382.0034 296.5903 -9105.3550 -7337.2261 300.4981 390.0190 447.8838 30037.8558 84.7483 124.7606
ENERGY: 1200000 2.4040 11.6124 4.3234 0.0000 -10348.2746 1328.5893 0.0000 0.0000 1726.5666 -7274.7789 297.1436 -9001.3455 -7342.8286 300.3002 -483.1750 -406.2099 30316.5266 -52.0924 -7.1933
ENERGY: 1500000 3.7694 13.3921 5.3486 0.0000 -10521.6357 1399.6148 0.0000 0.0000 1755.3876 -7344.1233 302.1037 -9099.5108 -7345.6423 300.9862 -284.4010 -221.2664 30198.4662 -27.6285 18.0408
TCL: Running FEP window   8: Lambda1 0.6499999999999997 Lambda2 0.5999999999999996 [dLambda -0.050000000000000044]
TCL: Setting parameter firsttimestep to 0
TCL: Setting parameter alchLambda to 0.6499999999999997
Info: NONBONDED TABLE R-SQUARED SPACING: 0.0625
Info: NONBONDED TABLE SIZE: 705 POINTS
TCL: Setting parameter alchLambda2 to 0.5999999999999996
Info: NONBONDED TABLE R-SQUARED SPACING: 0.0625
Info: NONBONDED TABLE SIZE: 705 POINTS
TCL: Running for 1500000 steps
ETITLE: TS BOND ANGLE DIHED IMPRP ELECT VDW BOUNDARY MISC KINETIC TOTAL TEMP POTENTIAL TOTALAVG TEMPAVG PRESSURE GPRESSURE VOLUME PRESSAVG GPRESSAVG
ENERGY: 0 3.7693 13.3921 5.3486 0.0000 -10521.6310 1399.8312 0.0000 0.0000 1754.5174 -7344.7723 301.9539 -9099.2897 -7344.7723 301.9539 -318.1468 -230.5807 30198.4662 -318.1468 -230.5807
ENERGY: 300000 0.3937 8.5816 3.8689 0.0000 -10533.1442 1408.8405 0.0000 0.0000 1815.4717 -7295.9879 312.4442 -9111.4595 -7359.6338 304.7854 83.2649 136.8923 29935.7553 190.9185 244.8643
ENERGY: 600000 2.5189 8.3774 2.7958 0.0000 -10579.5890 1422.1671 0.0000 0.0000 1747.8549 -7395.8748 300.8073 -9143.7297 -7351.2975 303.9965 -281.4873 -176.5754 30176.6614 -50.1076 21.4506
ENERGY: 900000 1.1431 10.7018 4.1863 0.0000 -10532.6971 1344.5377 0.0000 0.0000 1771.1446 -7400.9835 304.8155 -9172.1281 -7362.3979 304.2824 -815.0573 -741.9103 30284.5496 -151.0730 -79.4723
ENERGY: 1200000 2.8613 8.6711 3.6812 0.0000 -10437.7593 1327.7899 0.0000 0.0000 1701.5656 -7393.1901 292.8409 -9094.7558 -7373.9026 302.3856 -708.8093 -713.0507 30230.4805 -162.2015 -95.6863
ENERGY: 1500000 2.2332 10.2833 2.7618 0.0000 -10441.7422 1324.0875 0.0000 0.0000 1712.5380 -7389.8384 294.7293 -9102.3764 -7376.8658 301.2297 -556.9158 -493.5581 29684.1776 -200.0464 -137.1107
TCL: Running FEP window   9: Lambda1 0.5999999999999996 Lambda2 0.5499999999999996 [dLambda -0.050000000000000044]
TCL: Setting parameter firsttimestep to 0
TCL: Setting parameter alchLambda to 0.5999999999999996
Info: NONBONDED TABLE R-SQUARED SPACING: 0.0625
Info: NONBONDED TABLE SIZE: 705 POINTS
TCL: Setting parameter alchLambda2 to 0.5499999999999996
Info: NONBONDED TABLE R-SQUARED SPACING: 0.0625
Info: NONBONDED TABLE SIZE: 705 POINTS
TCL: Running for 1500000 steps
ETITLE: TS BOND ANGLE DIHED IMPRP ELECT VDW BOUNDARY MISC KINETIC TOTAL TEMP POTENTIAL TOTALAVG TEMPAVG PRESSURE GPRESSURE VOLUME PRESSAVG GPRESSAVG
ENERGY: 0 2.2332 10.2833 2.7618 0.0000 -10441.7539 1324.2315 0.0000 0.0000 1711.6627 -7390.5814 294.5786 -9102.2441 -7390.5814 294.5786 -590.3737 -503.7700 29684.1776 -590.3737 -503.7700
ENERGY: 300000 3.0350 11.7875 4.4484 0.0000 -10556.2704 1445.4399 0.0000 0.0000 1721.9764 -7369.5832 296.3536 -9091.5596 -7395.6075 295.7161 129.3520 179.4745 30183.5542 -65.7968 23.6287
ENERGY: 600000 0.3081 11.6265 4.2054 0.0000 -10483.3322 1350.3081 0.0000 0.0000 1735.6688 -7381.2154 298.7101 -9116.8841 -7369.6722 298.5201 -486.6253 -370.1374 29707.7329 -258.0681 -172.7256
ENERGY: 900000 4.0231 15.0783 4.3220 0.0000 -10662.0533 1464.9704 0.0000 0.0000 1722.9178 -7450.7417 296.5156 -9173.6595 -7379.7023 298.2084 -188.8230 -101.2859 30125.2530 -222.1012 -151.5326
ENERGY: 1200000 1.3749 12.1764 3.3279 0.0000 -10594.2785 1414.3303 0.0000 0.0000 1784.0066 -7379.0623 307.0291 -9163.0690 -7376.5426 298.5984 -156.7102 -130.5464 30167.1060 -178.1773 -109.2276
ENERGY: 1500000 3.0066 8.0149 2.6564 0.0000 -10639.7604 1511.9357 0.0000 0.0000 1726.4788 -7387.6679 297.1285 -9114.1467 -7379.7729 298.6256 419.0376 489.0885 30357.4632 -42.1376 21.6565
TCL: Running FEP window  10: Lambda1 0.5499999999999996 Lambda2 0.4999999999999996 [dLambda -0.04999999999999999]
TCL: Setting parameter firsttimestep to 0
TCL: Setting parameter alchLambda to 0.5499999999999996
Info: NONBONDED TABLE R-SQUARED SPACING: 0.0625
Info: NONBONDED TABLE SIZE: 705 POINTS
TCL: Setting parameter alchLambda2 to 0.4999999999999996
Info: NONBONDED TABLE R-SQUARED SPACING: 0.0625
Info: NONBONDED TABLE SIZE: 705 POINTS
TCL: Running for 1500000 steps
ETITLE: TS BOND ANGLE DIHED IMPRP ELECT VDW BOUNDARY MISC KINETIC TOTAL TEMP POTENTIAL TOTALAVG TEMPAVG PRESSURE GPRESSURE VOLUME PRESSAVG GPRESSAVG
ENERGY: 0 3.0066 8.0149 2.6564 0.0000 -10639.7528 1512.4055 0.0000 0.0000 1725.5951 -7388.0742 296.9764 -9113.6693 -7388.0742 296.9764 403.3927 488.2975 30357.4632 403.3927 488.2975
ENERGY: 300000 1.3525 18.1436 5.8446 0.0000 -10535.8041 1411.5173 0.0000 0.0000 1725.2550 -7373.6910 296.9179 -9098.9460 -7386.5703 297.6270 -99.6099 -52.9100 29812.4385 -211.7193 -142.7933
ENERGY: 600000 2.0192 9.0231 3.4254 0.0000 -10549.0813 1400.4789 0.0000 0.0000 1755.0840 -7379.0507 302.0515 -9134.1348 -7377.8150 298.5701 -400.9958 -339.9399 30551.8982 -70.5244 5.6616
ENERGY: 900000 1.6344 11.0391 2.6184 0.0000 -10603.3519 1444.2612 0.0000 0.0000 1731.4495 -7412.3492 297.9839 -9143.7987 -7366.6221 299.7756 128.9219 268.1259 29666.3481 53.3091 125.0229
ENERGY: 1200000 2.7981 10.4924 3.2307 0.0000 -10505.6337 1413.6026 0.0000 0.0000 1703.4336 -7372.0763 293.1624 -9075.5099 -7362.0234 300.0537 148.0095 241.7745 29749.3891 21.7018 87.0707
ENERGY: 1500000 2.0038 15.5378 3.7718 0.0000 -10571.7251 1386.7748 0.0000 0.0000 1701.8891 -7461.7478 292.8966 -9163.6368 -7364.1445 299.9039 -204.7192 -134.5339 29832.0112 13.7949 83.6996
TCL: Running FEP window  11: Lambda1 0.4999999999999996 Lambda2 0.4499999999999996 [dLambda -0.04999999999999999]
TCL: Setting parameter firsttimestep to 0
TCL: Setting parameter alchLambda to 0.4999999999999996
Info: NONBONDED TABLE R-SQUARED SPACING: 0.0625
Info: NONBONDED TABLE SIZE: 705 POINTS
TCL: Setting parameter alchLambda2 to 0.4499999999999996
Info: NONBONDED TABLE R-SQUARED SPACING: 0.0625
Info: NONBONDED TABLE SIZE: 705 POINTS
TCL: Running for 1500000 steps
ETITLE: TS BOND ANGLE DIHED IMPRP ELECT VDW BOUNDARY MISC KINETIC TOTAL TEMP POTENTIAL TOTALAVG TEMPAVG PRESSURE GPRESSURE VOLUME PRESSAVG GPRESSAVG
ENERGY: 0 2.0038 15.5378 3.7718 0.0000 -10571.7428 1386.7588 0.0000 0.0000 1701.0217 -7462.6489 292.7473 -9163.6705 -7462.6489 292.7473 -217.4987 -140.0524 29832.0112 -217.4987 -140.0524
ENERGY: 300000 2.9007 7.9163 3.8659 0.0000 -10604.2042 1395.5547 0.0000 0.0000 1724.1476 -7469.8190 296.7273 -9193.9666 -7411.5182 296.4279 -717.2038 -653.5441 30173.7414 -379.8397 -319.4656
ENERGY: 600000 4.7694 10.9901 2.5045 0.0000 -10639.5804 1496.2082 0.0000 0.0000 1715.0315 -7410.0767 295.1584 -9125.1082 -7413.0499 296.5045 528.6719 620.6575 30018.8891 -130.3475 -77.1289
ENERGY: 900000 2.5452 9.7826 3.3497 0.0000 -10556.2263 1393.6819 0.0000 0.0000 1713.1316 -7433.7354 294.8314 -9146.8670 -7422.0026 296.1789 -400.0406 -290.6903 29772.1316 -172.1672 -108.9719
ENERGY: 1200000 1.1695 8.0870 4.0735 0.0000 -10439.9124 1393.1806 0.0000 0.0000 1806.1069 -7227.2950 310.8325 -9033.4019 -7408.4785 297.1016 -52.3614 59.0682 30098.7777 -46.2823 21.7586
ENERGY: 1500000 2.5511 13.1752 3.8432 0.0000 -10626.5272 1422.2096 0.0000 0.0000 1748.5873 -7436.1608 300.9334 -9184.7481 -7403.6547 298.0045 -30.3685 -42.2877 29673.5525 -82.8227 -18.1480
TCL: Running FEP window  12: Lambda1 0.4499999999999996 Lambda2 0.39999999999999963 [dLambda -0.04999999999999999]
TCL: Setting parameter firsttimestep to 0
TCL: Setting parameter alchLambda to 0.4499999999999996
Info: NONBONDED TABLE R-SQUARED SPACING: 0.0625
Info: NONBONDED TABLE SIZE: 705 POINTS
TCL: Setting parameter alchLambda2 to 0.39999999999999963
Info: NONBONDED TABLE R-SQUARED SPACING: 0.0625
Info: NONBONDED TABLE SIZE: 705 POINTS
TCL: Running for 1500000 steps
ETITLE: TS BOND ANGLE DIHED IMPRP ELECT VDW BOUNDARY MISC KINETIC TOTAL TEMP POTENTIAL TOTALAVG TEMPAVG PRESSURE GPRESSURE VOLUME PRESSAVG GPRESSAVG
ENERGY: 0 2.5511 13.1752 3.8432 0.0000 -10626.5270 1422.3463 0.0000 0.0000 1747.7298 -7436.8815 300.7858 -9184.6113 -7436.8815 300.7858 -120.9489 -47.7129 29673.5525 -120.9489 -47.7129
ENERGY: 300000 2.1374 9.1194 3.5105 0.0000 -10688.3890 1448.0792 0.0000 0.0000 1728.3269 -7497.2157 297.4465 -9225.5425 -7409.5598 297.8510 -198.6257 -68.0829 30012.1581 70.5581 148.9440
ENERGY: 600000 0.1955 10.8193 3.2981 0.0000 -10591.9529 1460.0043 0.0000 0.0000 1702.8201 -7414.8156 293.0568 -9117.6356 -7411.7762 297.7789 372.1164 398.1359 29804.7588 47.6817 124.4456
ENERGY: 900000 2.0529 11.6197 3.4932 0.0000 -10702.9169 1543.1902 0.0000 0.0000 1718.9080 -7423.6530 295.8255 -9142.5610 -7419.9155 297.4717 952.4808 998.9944 29869.6113 235.1948 305.5053
ENERGY: 1200000 2.5970 6.2209 3.1382 0.0000 -10556.4783 1420.4368 0.0000 0.0000 1719.4385 -7404.6469 295.9168 -9124.0855 -7401.1364 297.6933 -12.5959 22.6229 30007.7761 230.3217 294.3731
ENERGY: 1500000 1.9978 6.8769 3.5294 0.0000 -10502.3491 1350.8022 0.0000 0.0000 1739.4405 -7399.7023 299.3592 -9139.1428 -7391.5874 298.1354 -855.6835 -742.9298 30035.9521 92.3806 148.2282
TCL: Running FEP window  13: Lambda1 0.39999999999999963 Lambda2 0.34999999999999964 [dLambda -0.04999999999999999]
TCL: Setting parameter firsttimestep to 0
TCL: Setting parameter alchLambda to 0.39999999999999963
Info: NONBONDED TABLE R-SQUARED SPACING: 0.0625
Info: NONBONDED TABLE SIZE: 705 POINTS
TCL: Setting parameter alchLambda2 to 0.34999999999999964
Info: NONBONDED TABLE R-SQUARED SPACING: 0.0625
Info: NONBONDED TABLE SIZE: 705 POINTS
TCL: Running for 1500000 steps
ETITLE: TS BOND ANGLE DIHED IMPRP ELECT VDW BOUNDARY MISC KINETIC TOTAL TEMP POTENTIAL TOTALAVG TEMPAVG PRESSURE GPRESSURE VOLUME PRESSAVG GPRESSAVG
ENERGY: 0 1.9978 6.8769 3.5294 0.0000 -10502.3485 1350.2194 0.0000 0.0000 1738.6331 -7401.0920 299.2202 -9139.7251 -7401.0920 299.2202 -839.3902 -752.5360 30035.9521 -839.3902 -752.5360
ENERGY: 300000 1.8442 7.0058 4.0545 0.0000 -10518.8274 1367.5475 0.0000 0.0000 1744.0958 -7394.2795 300.1604 -9138.3753 -7394.4550 299.9323 -349.2727 -257.7283 29823.1915 -92.0440 -27.2564
ENERGY: 600000 2.0481 7.7641 3.1754 0.0000 -10438.2733 1373.5745 0.0000 0.0000 1738.8122 -7312.8989 299.2511 -9051.7111 -7384.0717 299.5927 11.9961 110.9522 29596.0975 -203.9755 -139.3451
ENERGY: 900000 3.4946 10.3824 2.6022 0.0000 -10464.0485 1391.1485 0.0000 0.0000 1722.9269 -7333.4940 296.5172 -9056.4208 -7382.7416 299.0011 -470.7041 -371.0700 30550.7333 -258.1017 -191.2877
ENERGY: 1200000 2.7132 15.2481 3.1422 0.0000 -10411.0262 1322.0610 0.0000 0.0000 1778.6102 -7289.2515 306.1003 -9067.8616 -7380.2770 299.6542 -578.2441 -504.0123 30106.8778 -201.7846 -128.2766
ENERGY: 1500000 2.6789 11.6166 3.5454 0.0000 -10545.8681 1408.5323 0.0000 0.0000 1745.4020 -7374.0930 300.3852 -9119.4949 -7384.3916 299.1013 -375.9976 -350.0829 30567.0335 -173.7428 -102.7754
TCL: Running FEP window  14: Lambda1 0.34999999999999964 Lambda2 0.29999999999999966 [dLambda -0.04999999999999999]
TCL: Setting parameter firsttimestep to 0
TCL: Setting parameter alchLambda to 0.34999999999999964
Info: NONBONDED TABLE R-SQUARED SPACING: 0.0625
Info: NONBONDED TABLE SIZE: 705 POINTS
TCL: Setting parameter alchLambda2 to 0.29999999999999966
Info: NONBONDED TABLE R-SQUARED SPACING: 0.0625
Info: NONBONDED TABLE SIZE: 705 POINTS
TCL: Running for 1500000 steps
ETITLE: TS BOND ANGLE DIHED IMPRP ELECT VDW BOUNDARY MISC KINETIC TOTAL TEMP POTENTIAL TOTALAVG TEMPAVG PRESSURE GPRESSURE VOLUME PRESSAVG GPRESSAVG
ENERGY: 0 2.6789 11.6166 3.5454 0.0000 -10545.8664 1408.6307 0.0000 0.0000 1744.5369 -7374.8580 300.2363 -9119.3948 -7374.8580 300.2363 -424.5614 -355.4939 30567.0335 -424.5614 -355.4939
ENERGY: 300000 1.4212 7.9871 3.6021 0.0000 -10420.5179 1328.1258 0.0000 0.0000 1762.8441 -7316.5376 303.3870 -9079.3817 -7374.2262 299.9255 -628.0790 -527.0410 30099.6177 -545.6159 -458.1664
ENERGY: 600000 2.1475 5.2642 3.6831 0.0000 -10530.8151 1396.5893 0.0000 0.0000 1717.8330 -7405.2980 295.6405 -9123.1310 -7388.2482 299.2729 -141.6736 -75.7463 29803.8431 -261.0584 -181.2395
ENERGY: 900000 1.0169 8.0693 4.5581 0.0000 -10663.1734 1431.2306 0.0000 0.0000 1763.7280 -7454.5704 303.5391 -9218.2984 -7403.6969 299.3010 -64.1644 3.7838 29605.8911 -148.5432 -78.2409
ENERGY: 1200000 0.8555 14.9300 3.1013 0.0000 -10471.4780 1382.4292 0.0000 0.0000 1776.2528 -7293.9092 305.6946 -9070.1620 -7390.6937 300.6201 -356.7001 -253.0384 30233.6409 -180.2002 -105.1875
ENERGY: 1500000 1.2050 8.5132 2.8626 0.0000 -10544.7203 1418.4693 0.0000 0.0000 1749.2855 -7364.3847 301.0535 -9113.6702 -7390.0527 300.1870 -198.6592 -165.6432 30157.2249 -159.1372 -91.0870
TCL: Running FEP window  15: Lambda1 0.29999999999999966 Lambda2 0.24999999999999967 [dLambda -0.04999999999999999]
TCL: Setting parameter firsttimestep to 0
TCL: Setting parameter alchLambda to 0.29999999999999966
Info: NONBONDED TABLE R-SQUARED SPACING: 0.0625
Info: NONBONDED TABLE SIZE: 705 POINTS
TCL: Setting parameter alchLambda2 to 0.24999999999999967
Info: NONBONDED TABLE R-SQUARED SPACING: 0.0625
Info: NONBONDED TABLE SIZE: 705 POINTS
TCL: Running for 1500000 steps
ETITLE: TS BOND ANGLE DIHED IMPRP ELECT VDW BOUNDARY MISC KINETIC TOTAL TEMP POTENTIAL TOTALAVG TEMPAVG PRESSURE GPRESSURE VOLUME PRESSAVG GPRESSAVG
ENERGY: 0 1.2050 8.5132 2.8625 0.0000 -10544.7184 1418.0501 0.0000 0.0000 1748.4252 -7365.6624 300.9055 -9114.0875 -7365.6624 300.9055 -263.5121 -173.4156 30157.2249 -263.5121 -173.4156
ENERGY: 300000 2.1513 10.5312 2.8946 0.0000 -10444.9504 1402.0890 0.0000 0.0000 1763.5039 -7263.7803 303.5005 -9027.2843 -7369.9884 301.4056 184.2355 208.3746 29979.1786 -32.2955 17.8787
ENERGY: 600000 2.7661 11.1876 4.2040 0.0000 -10493.8160 1376.6008 0.0000 0.0000 1732.5567 -7366.5008 298.1745 -9099.0576 -7365.8658 300.1140 -392.5932 -269.1732 29694.4446 -162.5145 -102.6811
ENERGY: 900000 1.2050 10.2017 3.4171 0.0000 -10467.8414 1373.4637 0.0000 0.0000 1732.7648 -7346.7892 298.2103 -9079.5539 -7357.2200 300.1165 -297.7035 -232.4855 30046.0560 -189.0873 -127.8471
ENERGY: 1200000 1.7489 9.9110 2.6134 0.0000 -10562.8652 1382.3359 0.0000 0.0000 1733.1295 -7433.1264 298.2731 -9166.2560 -7367.5127 300.5013 -250.8753 -130.7601 29555.9482 -149.3052 -83.2903
ENERGY: 1500000 2.1080 7.3462 3.4522 0.0000 -10729.0271 1546.6591 0.0000 0.0000 1767.3742 -7402.0874 304.1666 -9169.4616 -7376.8279 300.5038 851.6529 904.2385 29864.0977 -60.9306 -1.0406
TCL: Running FEP window  16: Lambda1 0.24999999999999967 Lambda2 0.19999999999999968 [dLambda -0.04999999999999999]
TCL: Setting parameter firsttimestep to 0
TCL: Setting parameter alchLambda to 0.24999999999999967
Info: NONBONDED TABLE R-SQUARED SPACING: 0.0625
Info: NONBONDED TABLE SIZE: 705 POINTS
TCL: Setting parameter alchLambda2 to 0.19999999999999968
Info: NONBONDED TABLE R-SQUARED SPACING: 0.0625
Info: NONBONDED TABLE SIZE: 705 POINTS
TCL: Running for 1500000 steps
ETITLE: TS BOND ANGLE DIHED IMPRP ELECT VDW BOUNDARY MISC KINETIC TOTAL TEMP POTENTIAL TOTALAVG TEMPAVG PRESSURE GPRESSURE VOLUME PRESSAVG GPRESSAVG
ENERGY: 0 2.1080 7.3462 3.4522 0.0000 -10729.0255 1546.7543 0.0000 0.0000 1766.5014 -7402.8634 304.0164 -9169.3648 -7402.8634 304.0164 828.7565 897.1894 29864.0977 828.7565 897.1894
ENERGY: 300000 0.5724 10.6493 3.9661 0.0000 -10518.2970 1375.5721 0.0000 0.0000 1754.5935 -7372.9436 301.9670 -9127.5370 -7355.9229 304.4325 -563.4570 -496.7160 30190.2889 -191.7362 -147.3256
ENERGY: 600000 1.4746 13.1142 3.8357 0.0000 -10579.6302 1439.0508 0.0000 0.0000 1772.2719 -7349.8830 305.0095 -9122.1548 -7356.3761 302.5087 83.3931 219.3879 30066.1943 -65.9868 -10.9984
ENERGY: 900000 1.5654 8.5278 3.8312 0.0000 -10401.2033 1381.5815 0.0000 0.0000 1671.7787 -7333.9186 287.7145 -9005.6973 -7347.1079 301.5272 -79.7618 -62.0847 30312.8697 -16.0083 37.8278
ENERGY: 1200000 2.5570 8.3398 2.6941 0.0000 -10502.8420 1412.3882 0.0000 0.0000 1751.0871 -7325.7757 301.3636 -9076.8628 -7349.6911 300.9488 227.8128 317.6910 29925.1343 -16.5013 43.1167
ENERGY: 1500000 1.0680 12.6645 2.4390 0.0000 -10484.7980 1396.8998 0.0000 0.0000 1724.4343 -7347.2924 296.7766 -9071.7267 -7354.9679 300.5645 -63.7420 8.9970 30081.6085 -16.0798 48.9142
TCL: Running FEP window  17: Lambda1 0.19999999999999968 Lambda2 0.1499999999999997 [dLambda -0.04999999999999999]
TCL: Setting parameter firsttimestep to 0
TCL: Setting parameter alchLambda to 0.19999999999999968
Info: NONBONDED TABLE R-SQUARED SPACING: 0.0625
Info: NONBONDED TABLE SIZE: 705 POINTS
TCL: Setting parameter alchLambda2 to 0.1499999999999997
Info: NONBONDED TABLE R-SQUARED SPACING: 0.0625
Info: NONBONDED TABLE SIZE: 705 POINTS
TCL: Running for 1500000 steps
ETITLE: TS BOND ANGLE DIHED IMPRP ELECT VDW BOUNDARY MISC KINETIC TOTAL TEMP POTENTIAL TOTALAVG TEMPAVG PRESSURE GPRESSURE VOLUME PRESSAVG GPRESSAVG
ENERGY: 0 1.0680 12.6645 2.4390 0.0000 -10484.7971 1396.6126 0.0000 0.0000 1723.5340 -7348.4790 296.6217 -9072.0130 -7348.4790 296.6217 -90.1379 2.7725 30081.6085 -90.1379 2.7725
ENERGY: 300000 2.7240 12.9172 2.4385 0.0000 -10320.8094 1312.8010 0.0000 0.0000 1730.5040 -7259.4247 297.8212 -8989.9287 -7350.6344 297.9529 -686.2384 -654.9182 30307.2272 68.9234 139.9892
ENERGY: 600000 4.1309 10.4139 5.0924 0.0000 -10556.6413 1372.4962 0.0000 0.0000 1716.2794 -7448.2284 295.3732 -9164.5078 -7377.0128 298.9935 -631.9683 -533.5651 29903.9028 -264.9834 -181.6906
ENERGY: 900000 3.2627 12.0885 3.2605 0.0000 -10546.1874 1409.0855 0.0000 0.0000 1771.6311 -7346.8591 304.8992 -9118.4902 -7378.6219 299.1651 -209.5754 -243.0497 29959.6622 -195.4240 -123.2494
ENERGY: 1200000 0.5196 9.8800 4.1052 0.0000 -10671.5015 1431.7024 0.0000 0.0000 1753.4089 -7471.8854 301.7632 -9225.2943 -7376.3334 300.9867 -242.7768 -140.6384 29929.9485 -177.3280 -104.4398
ENERGY: 1500000 1.0966 11.0737 3.2498 0.0000 -10797.3394 1553.6805 0.0000 0.0000 1760.9473 -7467.2915 303.0605 -9228.2388 -7386.9839 300.6271 1156.1522 1251.5559 29039.6252 -47.1448 23.1555
TCL: Running FEP window  18: Lambda1 0.1499999999999997 Lambda2 0.09999999999999969 [dLambda -0.05 ]
TCL: Setting parameter firsttimestep to 0
TCL: Setting parameter alchLambda to 0.1499999999999997
Info: NONBONDED TABLE R-SQUARED SPACING: 0.0625
Info: NONBONDED TABLE SIZE: 705 POINTS
TCL: Setting parameter alchLambda2 to 0.09999999999999969
Info: NONBONDED TABLE R-SQUARED SPACING: 0.0625
Info: NONBONDED TABLE SIZE: 705 POINTS
TCL: Running for 1500000 steps
ETITLE: TS BOND ANGLE DIHED IMPRP ELECT VDW BOUNDARY MISC KINETIC TOTAL TEMP POTENTIAL TOTALAVG TEMPAVG PRESSURE GPRESSURE VOLUME PRESSAVG GPRESSAVG
ENERGY: 0 1.0966 11.0737 3.2498 0.0000 -10797.3402 1553.9814 0.0000 0.0000 1760.0736 -7467.8650 302.9102 -9227.9386 -7467.8650 302.9102 1158.9189 1250.3614 29039.6252 1158.9189 1250.3614
ENERGY: 300000 1.0252 10.7749 4.4102 0.0000 -10683.2547 1469.1962 0.0000 0.0000 1773.6809 -7424.1672 305.2520 -9197.8481 -7420.8339 303.2656 432.4032 453.6796 29475.7349 531.0371 604.6372
ENERGY: 600000 1.3290 14.5880 3.8686 0.0000 -10466.3748 1411.0210 0.0000 0.0000 1744.3418 -7291.2265 300.2027 -9035.5683 -7390.4065 301.7944 -63.4655 3.6914 30416.1335 304.0390 377.4934
ENERGY: 900000 0.3557 10.2623 3.7117 0.0000 -10380.7241 1333.8427 0.0000 0.0000 1716.1350 -7316.4167 295.3483 -9032.5518 -7386.8640 299.7745 -665.8731 -584.7535 30296.9097 179.7156 249.5249
ENERGY: 1200000 4.0225 8.5839 3.6927 0.0000 -10510.7170 1380.8943 0.0000 0.0000 1712.9907 -7400.5330 294.8072 -9113.5237 -7383.9641 300.1313 -335.7744 -228.2248 30065.0543 123.6244 191.6063
ENERGY: 1500000 2.2699 10.1265 3.7428 0.0000 -10691.7829 1521.1372 0.0000 0.0000 1722.3763 -7432.1301 296.4224 -9154.5064 -7383.8333 300.2168 618.7762 673.8593 29796.8543 121.5452 187.3635
TCL: Running FEP window  19: Lambda1 0.09999999999999969 Lambda2 0.049999999999999684 [dLambda -0.05 ]
TCL: Setting parameter firsttimestep to 0
TCL: Setting parameter alchLambda to 0.09999999999999969
Info: NONBONDED TABLE R-SQUARED SPACING: 0.0625
Info: NONBONDED TABLE SIZE: 705 POINTS
TCL: Setting parameter alchLambda2 to 0.049999999999999684
Info: NONBONDED TABLE R-SQUARED SPACING: 0.0625
Info: NONBONDED TABLE SIZE: 705 POINTS
TCL: Running for 1500000 steps
ETITLE: TS BOND ANGLE DIHED IMPRP ELECT VDW BOUNDARY MISC KINETIC TOTAL TEMP POTENTIAL TOTALAVG TEMPAVG PRESSURE GPRESSURE VOLUME PRESSAVG GPRESSAVG
ENERGY: 0 2.2699 10.1265 3.7428 0.0000 -10691.7827 1521.5875 0.0000 0.0000 1721.5202 -7432.5357 296.2751 -9154.0560 -7432.5357 296.2751 599.5498 674.9980 29796.8543 599.5498 674.9980
ENERGY: 300000 0.7036 6.7646 2.8614 0.0000 -10523.7438 1450.3969 0.0000 0.0000 1721.6493 -7341.3679 296.2973 -9063.0172 -7369.9728 299.8403 333.1745 367.6546 29887.3522 303.2768 352.7493
ENERGY: 600000 2.2050 12.9068 3.0758 0.0000 -10594.5494 1428.6219 0.0000 0.0000 1749.0694 -7398.6706 301.0163 -9147.7400 -7392.3768 299.6669 -172.2924 -94.3840 29756.2663 256.6851 325.4946
ENERGY: 900000 0.9028 14.3284 2.9768 0.0000 -10672.2146 1544.1729 0.0000 0.0000 1770.5251 -7339.3085 304.7089 -9109.8336 -7387.1570 300.1341 818.6033 870.1306 30335.4617 411.3518 476.9061
ENERGY: 1200000 2.5685 11.0158 3.6871 0.0000 -10616.9797 1465.3795 0.0000 0.0000 1755.4912 -7378.8376 302.1215 -9134.3288 -7389.5663 300.7238 292.3746 390.4314 29783.7964 411.8313 473.7801
ENERGY: 1500000 2.1494 9.8705 3.8404 0.0000 -10586.8628 1432.8092 0.0000 0.0000 1724.2886 -7413.9046 296.7515 -9138.1933 -7394.0845 300.5386 -92.5949 -27.3932 29994.9047 272.5770 336.0164
TCL: Running FEP window  20: Lambda1 0.049999999999999684 Lambda2 0.0    [dLambda -0.049999999999999684]
TCL: Setting parameter firsttimestep to 0
TCL: Setting parameter alchLambda to 0.049999999999999684
Info: NONBONDED TABLE R-SQUARED SPACING: 0.0625
Info: NONBONDED TABLE SIZE: 705 POINTS
TCL: Setting parameter alchLambda2 to 0.0
Info: NONBONDED TABLE R-SQUARED SPACING: 0.0625
Info: NONBONDED TABLE SIZE: 705 POINTS
TCL: Running for 1500000 steps
ETITLE: TS BOND ANGLE DIHED IMPRP ELECT VDW BOUNDARY MISC KINETIC TOTAL TEMP POTENTIAL TOTALAVG TEMPAVG PRESSURE GPRESSURE VOLUME PRESSAVG GPRESSAVG
ENERGY: 0 2.1494 9.8705 3.8404 0.0000 -10586.8640 1432.5597 0.0000 0.0000 1723.4457 -7414.9983 296.6065 -9138.4440 -7414.9983 296.6065 -114.8948 -30.7706 29994.9047 -114.8948 -30.7706
ENERGY: 300000 2.4816 9.6558 3.6758 0.0000 -10541.2267 1438.7035 0.0000 0.0000 1743.9571 -7342.7528 300.1365 -9086.7099 -7383.1854 298.5906 184.8479 277.6689 29890.2042 -19.9667 64.1647
ENERGY: 600000 1.6324 12.0112 3.9273 0.0000 -10485.1606 1384.1536 0.0000 0.0000 1721.2279 -7362.2083 296.2248 -9083.4361 -7367.5014 298.9192 -307.5867 -233.7558 29838.4665 -149.3289 -64.3409
ENERGY: 900000 3.5261 8.1053 2.5955 0.0000 -10588.1778 1450.1754 0.0000 0.0000 1780.5502 -7343.2253 306.4342 -9123.7755 -7367.1004 299.4369 -37.6942 26.6431 30242.3598 -165.1719 -85.2568
ENERGY: 1200000 1.4970 12.6306 3.8485 0.0000 -10692.1606 1525.6610 0.0000 0.0000 1727.4329 -7421.0905 297.2927 -9148.5235 -7364.7932 300.1452 551.7948 612.3059 29993.1922 -31.6747 46.8674
ENERGY: 1500000 0.8980 7.0643 3.1475 0.0000 -10620.3459 1446.3928 0.0000 0.0000 1701.5010 -7461.3423 292.8298 -9162.8433 -7380.5401 299.3854 349.8179 362.4975 29337.2077 -52.1782 14.2567
TCL: Exiting due to exit command.
