Info: SIMULATION PARAMETERS:
Info: TIMESTEP               2
Info: NUMBER OF STEPS        0
Info: STEPS PER CYCLE        10
Info: PERIODIC CELL BASIS 1  28.7269 0 0
Info: PERIODIC CELL BASIS 2  0 30.5031 0
Info: PERIODIC CELL BASIS 3  0 0 34.8293
Info: PERIODIC CELL CENTER   0 0 0
Info: WRAPPING WATERS AROUND PERIODIC BOUNDARIES ON OUTPUT.
Info: WRAPPING ALL CLUSTERS AROUND PERIODIC BOUNDARIES ON OUTPUT.
Info: FIRST LDB TIMESTEP     50
Info: LAST LDB TIMESTEP     -1
Info: HOM BACKGROUND SCALING 1
Info: PME BACKGROUND SCALING 1
Info: MIN ATOMS PER PATCH    40
Info: EMPTY PATCH LOAD       40 ATOMS
Info: VELOCITY FILE          mobley_9510785_equil.vel
Info: CENTER OF MASS MOVING INITIALLY? NO
Info: DIELECTRIC             1
Info: EXCLUDE                SCALED ONE-FOUR
Info: 1-4 ELECTROSTATICS SCALED BY 0.833333
Info: MODIFIED 1-4 VDW PARAMETERS WILL BE USED
Info: DCD FILENAME           mobley_9510785_prod.dcd
Info: DCD FREQUENCY          100000
Info: DCD FIRST STEP         100000
Info: DCD FILE WILL CONTAIN UNIT CELL DATA
Info: XST FILENAME           mobley_9510785_prod.xst
Info: XST FREQUENCY          100000
Info: NO VELOCITY DCD OUTPUT
Info: NO FORCE DCD OUTPUT
Info: OUTPUT FILENAME        mobley_9510785_prod
Info: BINARY OUTPUT FILES WILL BE USED
Info: RESTART FILENAME       mobley_9510785_prod.restart
Info: RESTART FREQUENCY      100000
Info: BINARY RESTART FILES WILL BE USED
Info: CUTOFF                 9
Info: PAIRLIST DISTANCE      11
Info: PAIRLIST SHRINK RATE   0.01
Info: PAIRLIST GROW RATE     0.01
Info: PAIRLIST TRIGGER       0.3
Info: PAIRLISTS PER CYCLE    2
Info: PAIRLISTS ENABLED
Info: MARGIN                 2
Info: HYDROGEN GROUP CUTOFF  2.5
Info: PATCH DIMENSION        15.5
Info: ENERGY OUTPUT STEPS    100000
Info: ENERGY EVALUATION STEPS    100000
Info: OUTPUT ENERGY PRECISION 4
Info: CROSSTERM ENERGY INCLUDED IN DIHEDRAL
Info: TIMING OUTPUT STEPS    1000000
Info: PRESSURE OUTPUT STEPS  100000
Info: ALCHEMICAL FEP ON
Info: FEP CURRENT LAMBDA VALUE     0
Info: FEP COMPARISON LAMBDA VALUE  0.05
Info: FEP INTRA-ALCHEMICAL NON-BONDED INTERACTIONS WILL BE RETAINED
Info: FEP INTRA-ALCHEMICAL BONDED INTERACTIONS WILL BE RETAINED
Info: FEP VDW SHIFTING COEFFICIENT 5
Info: FEP ELEC. ACTIVE FOR ANNIHILATED PARTICLES BETWEEN LAMBDA = 0 AND LAMBDA = 0.5
Info: FEP ELEC. ACTIVE FOR EXNIHILATED PARTICLES BETWEEN LAMBDA = 0.5 AND LAMBDA = 1
Info: FEP VDW ACTIVE FOR ANNIHILATED PARTICLES BETWEEN LAMBDA = 0 AND LAMBDA = 1
Info: FEP VDW ACTIVE FOR EXNIHILATED PARTICLES BETWEEN LAMBDA = 0 AND LAMBDA = 1
Info: FEP BOND ACTIVE FOR ANNIHILATED PARTICLES BETWEEN LAMBDA = 1 AND LAMBDA = 1
Info: FEP BOND ACTIVE FOR EXNIHILATED PARTICLES BETWEEN LAMBDA = 0 AND LAMBDA = 0
Info: LANGEVIN DYNAMICS ACTIVE
Info: LANGEVIN TEMPERATURE   300
Info: LANGEVIN USING BBK INTEGRATOR
Info: LANGEVIN DAMPING COEFFICIENT IS 1 INVERSE PS
Info: LANGEVIN DYNAMICS APPLIED TO HYDROGENS
Info: LANGEVIN PISTON PRESSURE CONTROL ACTIVE
Info:        TARGET PRESSURE IS 1.01325 BAR
Info:     OSCILLATION PERIOD IS 50 FS
Info:             DECAY TIME IS 25 FS
Info:     PISTON TEMPERATURE IS 300 K
Info:       PRESSURE CONTROL IS GROUP-BASED
Info:    INITIAL STRAIN RATE IS -0.000202116 -0.000202116 -0.000202116
Info:       CELL FLUCTUATION IS ISOTROPIC
Info: PARTICLE MESH EWALD (PME) ACTIVE
Info: PME TOLERANCE               1e-06
Info: PME EWALD COEFFICIENT       0.348832
Info: PME INTERPOLATION ORDER     4
Info: PME GRID DIMENSIONS         32 32 36
Info: PME MAXIMUM GRID SPACING    1
Info: PME CALCULATION WILL BE PERFORMED ON GPU
Info: FULL ELECTROSTATIC EVALUATION FREQUENCY      2
Info: USING VERLET I (r-RESPA) MTS SCHEME.
Info: C1 SPLITTING OF LONG RANGE ELECTROSTATICS
Info: PLACING ATOMS IN PATCHES BY HYDROGEN GROUPS
Info: RIGID BONDS TO HYDROGEN : ALL
Info:         ERROR TOLERANCE : 1e-08
Info:          MAX ITERATIONS : 100
Info: RIGID WATER USING SETTLE ALGORITHM
Info: RANDOM NUMBER SEED     1743803847
Info: USE HYDROGEN BONDS?    NO
Info: Using AMBER format force field!
Info: AMBER PARM FILE        mobley_9510785.prmtop
Info: COORDINATE PDB         mobley_9510785.pdb
Info: Exclusions will be read from PARM file!
Info: SCNB (VDW SCALING)     2
Info: USING ARITHMETIC MEAN TO COMBINE L-J SIGMA PARAMETERS
Info: BINARY COORDINATES     mobley_9510785_equil.coor
Info: SUMMARY OF PARAMETERS:
Info: 7 BONDS
Info: 8 ANGLES
Info:   8 HARMONIC
Info:   0 COSINE-BASED
Info: 3 DIHEDRAL
Info: 0 IMPROPER
Info: 0 CROSSTERM
Info: 0 VDW
Info: 15 VDW_PAIRS
Info: 0 NBTHOLE_PAIRS
Info: To read alchdata from file: mobley_9510785.pdb
Info: To read alchflag data from column: 5
Info: STRUCTURE SUMMARY:
Info: 2917 ATOMS
Info: 2918 BONDS
Info: 36 ANGLES
Info: 64 DIHEDRALS
Info: 0 IMPROPERS
Info: 0 CROSSTERMS
Info: 3000 EXCLUSIONS
Info: 2901 RIGID BONDS
Info: ALCH: 0 ATOMS TO DISAPPEAR IN FINAL STATE
Info: ALCH: 22 ATOMS TO APPEAR IN FINAL STATE
Info: 5850 DEGREES OF FREEDOM
Info: 981 HYDROGEN GROUPS
Info: 3 ATOMS IN LARGEST HYDROGEN GROUP
Info: 981 MIGRATION GROUPS
Info: 3 ATOMS IN LARGEST MIGRATION GROUP
Info: TOTAL MASS = 17677.4 amu
Info: TOTAL CHARGE = 5.02914e-08 e
Info: MASS DENSITY = 0.961837 g/cm^3
Info: ATOM DENSITY = 0.0955784 atoms/A^3
Info: ADDED 0 IMPLICIT EXCLUSIONS
Info: NONBONDED TABLE R-SQUARED SPACING: 0.0625
Info: NONBONDED TABLE SIZE: 705 POINTS
Info: REMOVING COM VELOCITY -0.115737 0.309268 -0.143084
Info: Use 3D box decompostion in PME FFT.
Info: Updated CUDA force table with 4096 elements.
Info: Updated CUDA LJ table with 5 x 5 elements.
Info: Found 24 unique exclusion lists needing 72 bytes
TCL: Running for 1500000 steps
ETITLE: TS BOND ANGLE DIHED IMPRP ELECT VDW BOUNDARY MISC KINETIC TOTAL TEMP POTENTIAL TOTALAVG TEMPAVG PRESSURE GPRESSURE VOLUME PRESSAVG GPRESSAVG
ENERGY: 0 2.1252 3.3691 8.4751 0.0000 -10546.0858 1515.8422 0.0000 0.0000 1748.7936 -7267.4806 300.8660 -9016.2742 -7267.4806 300.8660 793.3495 877.5643 30519.4356 793.3495 877.5643
ENERGY: 300000 7.9009 4.6682 10.0508 0.0000 -10449.3247 1431.9542 0.0000 0.0000 1751.4938 -7243.2568 301.3305 -8994.7506 -7284.4193 302.5340 440.0477 443.0021 30068.9320 254.4777 293.9140
ENERGY: 600000 4.1853 6.3122 10.0835 0.0000 -10465.9923 1350.5338 0.0000 0.0000 1755.2012 -7339.6762 301.9684 -9094.8774 -7302.5360 300.9652 -636.6536 -608.6551 29739.6525 40.8195 88.4526
ENERGY: 900000 5.6688 4.2185 11.3624 0.0000 -10466.9940 1364.5459 0.0000 0.0000 1762.9180 -7318.2804 303.2960 -9081.1984 -7300.1699 301.9650 -601.9785 -589.4203 29751.4640 -94.4658 -55.9774
ENERGY: 1200000 9.1058 5.2244 11.4295 0.0000 -10668.8729 1513.4515 0.0000 0.0000 1669.6874 -7459.9743 287.2564 -9129.6617 -7318.5631 300.9068 387.7659 459.0877 29955.0151 5.2648 43.5241
ENERGY: 1500000 5.3730 7.6461 10.5438 0.0000 -10616.4820 1467.4259 0.0000 0.0000 1767.3875 -7358.1057 304.0649 -9125.4933 -7315.3267 301.7381 531.6124 530.9069 29547.5203 58.3708 100.8633
TCL: Running FEP window   2: Lambda1 0.05   Lambda2 0.1    [dLambda 0.05  ]
TCL: Setting parameter firsttimestep to 0
TCL: Setting parameter alchLambda to 0.05
Info: NONBONDED TABLE R-SQUARED SPACING: 0.0625
Info: NONBONDED TABLE SIZE: 705 POINTS
TCL: Setting parameter alchLambda2 to 0.1
Info: NONBONDED TABLE R-SQUARED SPACING: 0.0625
Info: NONBONDED TABLE SIZE: 705 POINTS
TCL: Running for 1500000 steps
ETITLE: TS BOND ANGLE DIHED IMPRP ELECT VDW BOUNDARY MISC KINETIC TOTAL TEMP POTENTIAL TOTALAVG TEMPAVG PRESSURE GPRESSURE VOLUME PRESSAVG GPRESSAVG
ENERGY: 0 5.3730 7.6461 10.5438 0.0000 -10616.4823 1475.4427 0.0000 0.0000 1766.5350 -7350.9416 303.9182 -9117.4766 -7350.9416 303.9182 468.1125 547.6415 29547.5203 468.1125 547.6415
ENERGY: 300000 3.7462 4.1368 13.1696 0.0000 -10699.0533 1545.0653 0.0000 0.0000 1726.6877 -7406.2476 297.0628 -9132.9354 -7373.7240 297.2178 1082.2888 1127.7895 29529.4308 454.2881 509.4300
ENERGY: 600000 4.0983 3.2063 11.0256 0.0000 -10493.8879 1448.1109 0.0000 0.0000 1735.5123 -7291.9346 298.5810 -9027.4468 -7358.9294 296.4466 250.2278 243.6149 30277.5832 293.5435 345.2579
ENERGY: 900000 5.3318 8.4338 9.0330 0.0000 -10622.4906 1513.6910 0.0000 0.0000 1720.1136 -7365.8874 295.9318 -9086.0009 -7351.7407 296.1644 995.0620 1107.7066 29538.0885 253.1600 316.5524
ENERGY: 1200000 2.6273 5.2710 11.0137 0.0000 -10387.9426 1415.1870 0.0000 0.0000 1752.0524 -7201.7911 301.4266 -8953.8435 -7335.2425 297.3975 293.3561 357.6471 30276.2298 234.0478 299.1328
ENERGY: 1500000 3.9060 4.8618 7.4472 0.0000 -10545.9998 1438.3540 0.0000 0.0000 1691.6665 -7399.7642 291.0377 -9091.4307 -7340.7091 297.4628 57.2843 109.7669 29866.9991 153.2817 217.6330
TCL: Running FEP window   3: Lambda1 0.1    Lambda2 0.15000000000000002 [dLambda 0.05000000000000002]
TCL: Setting parameter firsttimestep to 0
TCL: Setting parameter alchLambda to 0.1
Info: NONBONDED TABLE R-SQUARED SPACING: 0.0625
Info: NONBONDED TABLE SIZE: 705 POINTS
TCL: Setting parameter alchLambda2 to 0.15000000000000002
Info: NONBONDED TABLE R-SQUARED SPACING: 0.0625
Info: NONBONDED TABLE SIZE: 705 POINTS
TCL: Running for 1500000 steps
ETITLE: TS BOND ANGLE DIHED IMPRP ELECT VDW BOUNDARY MISC KINETIC TOTAL TEMP POTENTIAL TOTALAVG TEMPAVG PRESSURE GPRESSURE VOLUME PRESSAVG GPRESSAVG
ENERGY: 0 3.9060 4.8618 7.4472 0.0000 -10545.9999 1444.5714 0.0000 0.0000 1690.7946 -7394.4189 290.8877 -9085.2135 -7394.4189 290.8877 48.9374 129.5238 29866.9991 48.9374 129.5238
ENERGY: 300000 3.2918 10.5958 11.4623 0.0000 -10704.0322 1513.3099 0.0000 0.0000 1767.7937 -7397.5786 304.1348 -9165.3723 -7364.1605 300.3887 461.0368 526.3500 29886.9950 -116.5924 -29.5861
ENERGY: 600000 7.1164 7.1802 12.5224 0.0000 -10559.4016 1439.9843 0.0000 0.0000 1758.2674 -7334.3309 302.4959 -9092.5983 -7361.3473 299.6874 -224.4863 -147.7810 30125.1392 -265.2774 -196.6781
ENERGY: 900000 5.2864 6.2691 11.1993 0.0000 -10386.8240 1350.2738 0.0000 0.0000 1776.8294 -7236.9659 305.6893 -9013.7953 -7338.0528 301.2424 -664.2262 -541.3009 30188.9260 -267.7611 -191.6671
ENERGY: 1200000 4.6455 4.1047 9.8194 0.0000 -10537.3854 1429.4622 0.0000 0.0000 1754.4483 -7334.9053 301.8388 -9089.3536 -7330.5650 301.8524 -272.4674 -222.8489 30273.4395 -108.7005 -46.7402
ENERGY: 1500000 1.9593 4.8043 12.9549 0.0000 -10497.1886 1367.6967 0.0000 0.0000 1755.6590 -7354.1145 302.0471 -9109.7735 -7334.4283 301.6097 -509.2537 -358.9780 30182.0009 -93.2300 -29.8765
TCL: Running FEP window   4: Lambda1 0.15000000000000002 Lambda2 0.2    [dLambda 0.04999999999999999]
TCL: Setting parameter firsttimestep to 0
TCL: Setting parameter alchLambda to 0.15000000000000002
Info: NONBONDED TABLE R-SQUARED SPACING: 0.0625
Info: NONBONDED TABLE SIZE: 705 POINTS
TCL: Setting parameter alchLambda2 to 0.2
Info: NONBONDED TABLE R-SQUARED SPACING: 0.0625
Info: NONBONDED TABLE SIZE: 705 POINTS
TCL: Running for 1500000 steps
ETITLE: TS BOND ANGLE DIHED IMPRP ELECT VDW BOUNDARY MISC KINETIC TOTAL TEMP POTENTIAL TOTALAVG TEMPAVG PRESSURE GPRESSURE VOLUME PRESSAVG GPRESSAVG
ENERGY: 0 1.9593 4.8043 12.9549 0.0000 -10497.1893 1368.1481 0.0000 0.0000 1754.7527 -7354.5699 301.8912 -9109.3227 -7354.5699 301.8912 -428.8978 -351.8253 30182.0009 -428.8978 -351.8253
ENERGY: 300000 5.6044 5.0386 7.7950 0.0000 -10563.1503 1434.1204 0.0000 0.0000 1801.5740 -7309.0179 309.9464 -9110.5919 -7318.6975 304.1538 221.8209 299.0500 29513.0460 124.1239 179.4574
ENERGY: 600000 4.4239 5.1871 11.7010 0.0000 -10424.8137 1396.4660 0.0000 0.0000 1763.5430 -7243.4927 303.4035 -9007.0357 -7299.6322 304.2986 -18.5251 82.0930 30427.0682 86.9264 133.9040
ENERGY: 900000 4.8904 2.5806 12.5396 0.0000 -10585.9710 1462.5428 0.0000 0.0000 1744.0259 -7359.3916 300.0457 -9103.4176 -7292.6464 304.1396 345.4436 406.1915 29911.4613 105.5879 151.7522
ENERGY: 1200000 14.2808 4.3496 11.0252 0.0000 -10417.0998 1370.4836 0.0000 0.0000 1694.2022 -7322.7583 291.4740 -9016.9606 -7288.4908 303.1111 -338.0470 -226.5956 29704.3538 15.6516 70.1286
ENERGY: 1500000 7.6000 6.4021 10.1816 0.0000 -10475.9087 1447.7727 0.0000 0.0000 1757.5458 -7246.4066 302.3717 -9003.9524 -7296.0191 302.8922 350.8829 381.8358 30073.5757 1.2973 54.7253
TCL: Running FEP window   5: Lambda1 0.2    Lambda2 0.25   [dLambda 0.04999999999999999]
TCL: Setting parameter firsttimestep to 0
TCL: Setting parameter alchLambda to 0.2
Info: NONBONDED TABLE R-SQUARED SPACING: 0.0625
Info: NONBONDED TABLE SIZE: 705 POINTS
TCL: Setting parameter alchLambda2 to 0.25
Info: NONBONDED TABLE R-SQUARED SPACING: 0.0625
Info: NONBONDED TABLE SIZE: 705 POINTS
TCL: Running for 1500000 steps
ETITLE: TS BOND ANGLE DIHED IMPRP ELECT VDW BOUNDARY MISC KINETIC TOTAL TEMP POTENTIAL TOTALAVG TEMPAVG PRESSURE GPRESSURE VOLUME PRESSAVG GPRESSAVG
ENERGY: 0 7.6000 6.4021 10.1816 0.0000 -10475.9097 1448.4714 0.0000 0.0000 1756.7047 -7246.5500 302.2270 -9003.2547 -7246.5500 302.2270 323.6590 392.6260 30073.5757 323.6590 392.6260
ENERGY: 300000 8.9618 3.5188 9.2656 0.0000 -10387.4782 1388.0513 0.0000 0.0000 1707.0697 -7270.6110 293.6877 -8977.6807 -7301.9882 299.5202 173.0703 245.8063 29674.4588 -9.0293 50.3188
ENERGY: 600000 3.2666 6.3478 8.1805 0.0000 -10573.6248 1470.9072 0.0000 0.0000 1783.2972 -7301.6254 306.8020 -9084.9226 -7306.3139 301.1754 259.9252 304.9823 30026.7420 -247.1165 -180.8501
ENERGY: 900000 4.1755 4.4680 12.6592 0.0000 -10500.3290 1369.9550 0.0000 0.0000 1814.3391 -7294.7323 312.1425 -9109.0714 -7309.7502 302.5960 -340.4357 -285.2295 30133.9310 -208.0709 -141.2617
ENERGY: 1200000 11.1608 5.3657 11.8890 0.0000 -10590.8661 1450.4906 0.0000 0.0000 1735.1312 -7376.8287 298.5155 -9111.9599 -7319.5402 301.6788 -25.8423 -28.8026 29924.0566 -255.3521 -191.4439
ENERGY: 1500000 4.4313 6.6938 10.6256 0.0000 -10366.7705 1334.0960 0.0000 0.0000 1755.2692 -7255.6547 301.9800 -9010.9239 -7331.6083 301.4030 -376.6097 -343.4996 30262.6286 -217.0830 -158.9418
TCL: Running FEP window   6: Lambda1 0.25   Lambda2 0.3    [dLambda 0.04999999999999999]
TCL: Setting parameter firsttimestep to 0
TCL: Setting parameter alchLambda to 0.25
Info: NONBONDED TABLE R-SQUARED SPACING: 0.0625
Info: NONBONDED TABLE SIZE: 705 POINTS
TCL: Setting parameter alchLambda2 to 0.3
Info: NONBONDED TABLE R-SQUARED SPACING: 0.0625
Info: NONBONDED TABLE SIZE: 705 POINTS
TCL: Running for 1500000 steps
ETITLE: TS BOND ANGLE DIHED IMPRP ELECT VDW BOUNDARY MISC KINETIC TOTAL TEMP POTENTIAL TOTALAVG TEMPAVG PRESSURE GPRESSURE VOLUME PRESSAVG GPRESSAVG
ENERGY: 0 4.4313 6.6938 10.6256 0.0000 -10366.7705 1333.6975 0.0000 0.0000 1754.4370 -7256.8854 301.8369 -9011.3224 -7256.8854 301.8369 -412.5094 -337.7580 30262.6286 -412.5094 -337.7580
ENERGY: 300000 5.9489 4.1533 12.7944 0.0000 -10436.2185 1342.3743 0.0000 0.0000 1691.0680 -7379.8795 290.9347 -9070.9476 -7331.4340 297.6725 -688.4141 -598.4392 30236.6533 60.7783 109.1165
ENERGY: 600000 3.9476 7.0781 14.4258 0.0000 -10730.2949 1514.2010 0.0000 0.0000 1766.2831 -7424.3594 303.8749 -9190.6424 -7359.9300 299.2418 526.7309 595.2743 29407.6167 173.7577 218.1291
ENERGY: 900000 6.2975 6.8786 10.8779 0.0000 -10543.7278 1403.6432 0.0000 0.0000 1721.9089 -7394.1217 296.2407 -9116.0306 -7343.3760 299.8687 -423.6380 -367.1234 30191.4932 41.5404 97.6321
ENERGY: 1200000 6.0640 4.8883 9.6300 0.0000 -10553.0257 1442.4416 0.0000 0.0000 1834.6790 -7255.3229 315.6419 -9090.0019 -7342.2997 301.2506 -50.7900 45.2528 30020.0501 21.1686 86.3639
ENERGY: 1500000 4.2870 3.5737 11.6982 0.0000 -10553.0720 1420.7625 0.0000 0.0000 1726.1255 -7386.6250 296.9661 -9112.7505 -7342.4442 300.6470 51.0905 98.2327 29752.0621 33.4900 100.1314
TCL: Running FEP window   7: Lambda1 0.3    Lambda2 0.35   [dLambda 0.04999999999999999]
TCL: Setting parameter firsttimestep to 0
TCL: Setting parameter alchLambda to 0.3
Info: NONBONDED TABLE R-SQUARED SPACING: 0.0625
Info: NONBONDED TABLE SIZE: 705 POINTS
TCL: Setting parameter alchLambda2 to 0.35
Info: NONBONDED TABLE R-SQUARED SPACING: 0.0625
Info: NONBONDED TABLE SIZE: 705 POINTS
TCL: Running for 1500000 steps
ETITLE: TS BOND ANGLE DIHED IMPRP ELECT VDW BOUNDARY MISC KINETIC TOTAL TEMP POTENTIAL TOTALAVG TEMPAVG PRESSURE GPRESSURE VOLUME PRESSAVG GPRESSAVG
ENERGY: 0 4.2870 3.5737 11.6982 0.0000 -10553.0709 1420.3345 0.0000 0.0000 1725.2781 -7387.8993 296.8203 -9113.1774 -7387.8993 296.8203 19.3591 105.7172 29752.0621 19.3591 105.7172
ENERGY: 300000 8.3978 4.0244 11.6656 0.0000 -10531.2369 1454.9363 0.0000 0.0000 1787.8692 -7264.3436 307.5886 -9052.2128 -7312.0548 303.5049 228.4998 201.4789 29879.4358 77.6647 107.9918
ENERGY: 600000 5.6368 6.6354 11.0036 0.0000 -10454.9225 1364.6435 0.0000 0.0000 1755.3277 -7311.6756 301.9901 -9067.0033 -7290.0676 304.7483 -520.5372 -456.5069 29996.1169 9.8031 43.5921
ENERGY: 900000 5.3642 3.9038 13.0119 0.0000 -10525.7099 1358.6882 0.0000 0.0000 1785.6699 -7359.0720 307.2102 -9144.7419 -7311.8519 303.0792 -591.3456 -567.0213 29730.5601 -1.7832 38.0305
ENERGY: 1200000 7.0391 6.0062 12.2702 0.0000 -10610.1079 1485.0097 0.0000 0.0000 1784.0186 -7315.7643 306.9261 -9099.7828 -7313.5755 302.8695 591.5947 677.8405 29920.3000 69.4935 114.1006
ENERGY: 1500000 3.7534 4.0408 13.2099 0.0000 -10416.1442 1353.1352 0.0000 0.0000 1781.9664 -7260.0385 306.5731 -9042.0049 -7320.4122 302.4294 -521.0043 -368.8896 30130.7660 36.2234 88.7393
TCL: Running FEP window   8: Lambda1 0.35   Lambda2 0.39999999999999997 [dLambda 0.04999999999999999]
TCL: Setting parameter firsttimestep to 0
TCL: Setting parameter alchLambda to 0.35
Info: NONBONDED TABLE R-SQUARED SPACING: 0.0625
Info: NONBONDED TABLE SIZE: 705 POINTS
TCL: Setting parameter alchLambda2 to 0.39999999999999997
Info: NONBONDED TABLE R-SQUARED SPACING: 0.0625
Info: NONBONDED TABLE SIZE: 705 POINTS
TCL: Running for 1500000 steps
ETITLE: TS BOND ANGLE DIHED IMPRP ELECT VDW BOUNDARY MISC KINETIC TOTAL TEMP POTENTIAL TOTALAVG TEMPAVG PRESSURE GPRESSURE VOLUME PRESSAVG GPRESSAVG
ENERGY: 0 3.7534 4.0408 13.2099 0.0000 -10416.1432 1352.7077 0.0000 0.0000 1781.0421 -7261.3893 306.4141 -9042.4314 -7261.3893 306.4141 -454.2697 -361.3273 30130.7660 -454.2697 -361.3273
ENERGY: 300000 6.5395 6.3746 16.4749 0.0000 -10492.1660 1452.8849 0.0000 0.0000 1762.5354 -7247.3567 303.2301 -9009.8921 -7286.1541 304.7660 683.1883 768.6086 29830.8986 -42.9744 31.5496
ENERGY: 600000 4.3504 5.6627 11.4645 0.0000 -10368.6511 1337.4828 0.0000 0.0000 1710.9843 -7298.7064 294.3612 -9009.6907 -7308.2565 303.0791 -539.7557 -503.8809 30200.6089 -168.3617 -105.6117
ENERGY: 900000 5.9279 6.0689 10.2325 0.0000 -10529.3288 1391.9538 0.0000 0.0000 1767.0845 -7348.0611 304.0128 -9115.1456 -7316.4491 302.9549 -269.5240 -194.5305 29937.8781 -262.8431 -193.5537
ENERGY: 1200000 5.6463 6.1669 9.1788 0.0000 -10587.9132 1438.9662 0.0000 0.0000 1735.8035 -7392.1515 298.6311 -9127.9550 -7322.6871 302.9523 18.3961 80.4770 29862.4364 -179.3718 -101.3069
ENERGY: 1500000 7.7750 5.8702 11.1158 0.0000 -10466.7751 1418.0920 0.0000 0.0000 1779.4441 -7244.4779 306.1391 -9023.9220 -7320.0457 302.5873 -193.5265 -99.9714 30287.8429 -219.9704 -138.8594
TCL: Running FEP window   9: Lambda1 0.39999999999999997 Lambda2 0.44999999999999996 [dLambda 0.04999999999999999]
TCL: Setting parameter firsttimestep to 0
TCL: Setting parameter alchLambda to 0.39999999999999997
Info: NONBONDED TABLE R-SQUARED SPACING: 0.0625
Info: NONBONDED TABLE SIZE: 705 POINTS
TCL: Setting parameter alchLambda2 to 0.44999999999999996
Info: NONBONDED TABLE R-SQUARED SPACING: 0.0625
Info: NONBONDED TABLE SIZE: 705 POINTS
TCL: Running for 1500000 steps
ETITLE: TS BOND ANGLE DIHED IMPRP ELECT VDW BOUNDARY MISC KINETIC TOTAL TEMP POTENTIAL TOTALAVG TEMPAVG PRESSURE GPRESSURE VOLUME PRESSAVG GPRESSAVG
ENERGY: 0 7.7750 5.8701 11.1158 0.0000 -10466.7753 1417.4420 0.0000 0.0000 1778.5746 -7245.9978 305.9896 -9024.5724 -7245.9978 305.9896 -167.0629 -97.6997 30287.8429 -167.0629 -97.6997
ENERGY: 300000 6.7139 4.5549 10.2083 0.0000 -10475.7702 1318.2130 0.0000 0.0000 1715.7320 -7420.3481 295.1780 -9136.0801 -7352.8099 298.1570 -848.9060 -746.2018 29962.8520 -373.9926 -305.0759
ENERGY: 600000 5.6261 6.6169 11.3294 0.0000 -10457.2914 1322.1057 0.0000 0.0000 1713.3753 -7398.2378 294.7725 -9111.6132 -7342.5798 298.8526 -1144.4137 -1024.3633 30246.2850 -392.0432 -318.3267
ENERGY: 900000 6.2754 5.3785 19.2876 0.0000 -10534.5690 1465.0566 0.0000 0.0000 1735.4275 -7303.1434 298.5664 -9038.5709 -7343.6996 299.4838 403.7196 514.8497 30214.9799 -289.4140 -210.3231
ENERGY: 1200000 5.4450 5.4981 13.7982 0.0000 -10494.2550 1429.3925 0.0000 0.0000 1801.8827 -7238.2386 309.9995 -9040.1213 -7339.7824 299.6166 120.6578 178.3840 30043.5188 -184.1059 -107.9948
ENERGY: 1500000 3.8686 3.2813 12.1434 0.0000 -10606.3610 1422.6777 0.0000 0.0000 1721.8793 -7442.5106 296.2356 -9164.3899 -7343.1071 299.8473 87.1420 118.1184 29466.9955 -137.5962 -69.6783
TCL: Running FEP window  10: Lambda1 0.44999999999999996 Lambda2 0.49999999999999994 [dLambda 0.04999999999999999]
TCL: Setting parameter firsttimestep to 0
TCL: Setting parameter alchLambda to 0.44999999999999996
Info: NONBONDED TABLE R-SQUARED SPACING: 0.0625
Info: NONBONDED TABLE SIZE: 705 POINTS
TCL: Setting parameter alchLambda2 to 0.49999999999999994
Info: NONBONDED TABLE R-SQUARED SPACING: 0.0625
Info: NONBONDED TABLE SIZE: 705 POINTS
TCL: Running for 1500000 steps
ETITLE: TS BOND ANGLE DIHED IMPRP ELECT VDW BOUNDARY MISC KINETIC TOTAL TEMP POTENTIAL TOTALAVG TEMPAVG PRESSURE GPRESSURE VOLUME PRESSAVG GPRESSAVG
ENERGY: 0 3.8686 3.2813 12.1434 0.0000 -10606.3600 1423.3963 0.0000 0.0000 1721.0218 -7442.6486 296.0880 -9163.6703 -7442.6486 296.0880 39.6906 136.1307 29466.9955 39.6906 136.1307
ENERGY: 300000 5.6144 5.7406 11.5666 0.0000 -10509.1346 1392.0799 0.0000 0.0000 1733.4108 -7360.7223 298.2195 -9094.1331 -7381.5806 299.0271 -314.9832 -208.3179 29929.2253 -275.0562 -182.8399
ENERGY: 600000 10.1658 3.4092 12.8450 0.0000 -10439.2902 1374.2692 0.0000 0.0000 1721.7204 -7316.8804 296.2083 -9038.6009 -7362.7803 299.5840 -788.9878 -692.0445 30425.6457 -254.2895 -165.7177
ENERGY: 900000 6.3685 5.1134 10.7983 0.0000 -10497.1506 1455.6608 0.0000 0.0000 1791.7339 -7227.4757 308.2535 -9019.2096 -7341.9282 300.8620 468.2076 468.0931 30030.5018 -62.9187 12.6117
ENERGY: 1200000 4.0718 3.8173 10.1784 0.0000 -10508.0717 1369.4025 0.0000 0.0000 1710.9595 -7409.6422 294.3569 -9120.6017 -7349.0023 299.9455 -239.7587 -228.2221 29867.9653 -61.6774 6.2713
ENERGY: 1500000 2.8843 2.7590 8.8194 0.0000 -10538.8386 1416.9469 0.0000 0.0000 1735.8256 -7371.6034 298.6349 -9107.4290 -7341.8040 300.4614 -254.9686 -144.0621 30124.7219 -103.6494 -41.5621
TCL: Running FEP window  11: Lambda1 0.49999999999999994 Lambda2 0.5499999999999999 [dLambda 0.04999999999999999]
TCL: Setting parameter firsttimestep to 0
TCL: Setting parameter alchLambda to 0.49999999999999994
Info: NONBONDED TABLE R-SQUARED SPACING: 0.0625
Info: NONBONDED TABLE SIZE: 705 POINTS
TCL: Setting parameter alchLambda2 to 0.5499999999999999
Info: NONBONDED TABLE R-SQUARED SPACING: 0.0625
Info: NONBONDED TABLE SIZE: 705 POINTS
TCL: Running for 1500000 steps
ETITLE: TS BOND ANGLE DIHED IMPRP ELECT VDW BOUNDARY MISC KINETIC TOTAL TEMP POTENTIAL TOTALAVG TEMPAVG PRESSURE GPRESSURE VOLUME PRESSAVG GPRESSAVG
ENERGY: 0 2.8843 2.7590 8.8194 0.0000 -10538.8381 1416.2319 0.0000 0.0000 1734.9871 -7373.1564 298.4907 -9108.1435 -7373.1564 298.4907 -231.7891 -140.0870 30124.7219 -231.7891 -140.0870
ENERGY: 300000 2.8875 2.6996 11.1549 0.0000 -10586.8311 1486.6344 0.0000 0.0000 1721.6139 -7361.8408 296.1899 -9083.4547 -7372.3995 295.8696 803.5242 878.5448 29781.1832 41.8964 127.7658
ENERGY: 600000 10.3792 7.2892 14.4197 0.0000 -10681.7125 1513.9500 0.0000 0.0000 1737.0909 -7398.5834 298.8526 -9135.6743 -7371.9535 295.9889 263.5443 341.7634 30084.1727 111.6423 196.6895
ENERGY: 900000 6.2218 6.1641 13.1430 0.0000 -10543.2999 1390.4319 0.0000 0.0000 1765.5371 -7361.8020 303.7466 -9127.3391 -7368.1849 297.3948 -350.7868 -297.6856 29646.7318 150.1410 222.4237
ENERGY: 1200000 8.1861 4.7215 9.7734 0.0000 -10593.7021 1432.6517 0.0000 0.0000 1660.8624 -7477.5069 285.7381 -9138.3694 -7368.8231 296.6353 -32.6951 29.2599 30036.1694 50.6576 116.7604
ENERGY: 1500000 4.3932 7.7953 12.2272 0.0000 -10633.5298 1480.9999 0.0000 0.0000 1739.1812 -7388.9329 299.2122 -9128.1141 -7347.2474 298.1030 486.8367 578.7595 29737.5966 86.4832 152.4489
TCL: Running FEP window  12: Lambda1 0.5499999999999999 Lambda2 0.6    [dLambda 0.050000000000000044]
TCL: Setting parameter firsttimestep to 0
TCL: Setting parameter alchLambda to 0.5499999999999999
Info: NONBONDED TABLE R-SQUARED SPACING: 0.0625
Info: NONBONDED TABLE SIZE: 705 POINTS
TCL: Setting parameter alchLambda2 to 0.6
Info: NONBONDED TABLE R-SQUARED SPACING: 0.0625
Info: NONBONDED TABLE SIZE: 705 POINTS
TCL: Running for 1500000 steps
ETITLE: TS BOND ANGLE DIHED IMPRP ELECT VDW BOUNDARY MISC KINETIC TOTAL TEMP POTENTIAL TOTALAVG TEMPAVG PRESSURE GPRESSURE VOLUME PRESSAVG GPRESSAVG
ENERGY: 0 4.3932 7.7953 12.2272 0.0000 -10632.8935 1480.9260 0.0000 0.0000 1738.3572 -7389.1946 299.0705 -9127.5518 -7389.1946 299.0705 506.0013 590.0391 29737.5966 506.0013 590.0391
ENERGY: 300000 4.3345 6.7322 8.8487 0.0000 -10543.4097 1410.2501 0.0000 0.0000 1751.2086 -7362.0355 301.2815 -9113.2441 -7348.1581 300.7951 111.4309 182.8078 30006.5306 289.2089 379.7355
ENERGY: 600000 8.8481 3.3559 10.5284 0.0000 -10639.6432 1499.2166 0.0000 0.0000 1806.0775 -7311.6167 310.7212 -9117.6942 -7335.9076 303.4460 461.2638 503.0605 30140.6648 436.1484 499.0289
ENERGY: 900000 7.7940 7.0178 11.2161 0.0000 -10745.4915 1547.0072 0.0000 0.0000 1710.1205 -7462.3359 294.2126 -9172.4564 -7354.4734 301.8729 879.4596 929.0912 29773.2919 474.4589 544.7464
ENERGY: 1200000 4.4393 4.8610 12.8171 0.0000 -10658.9985 1479.4163 0.0000 0.0000 1758.2372 -7399.2275 302.4907 -9157.4647 -7345.5720 302.4026 281.8309 377.0434 29970.5784 353.4326 425.3185
ENERGY: 1500000 5.9122 5.2161 10.3273 0.0000 -10625.0769 1448.3596 0.0000 0.0000 1726.5920 -7428.6698 297.0464 -9155.2617 -7350.6463 301.7171 -46.4310 -2.0875 30163.0417 281.7810 351.7298
TCL: Running FEP window  13: Lambda1 0.6    Lambda2 0.65   [dLambda 0.050000000000000044]
TCL: Setting parameter firsttimestep to 0
TCL: Setting parameter alchLambda to 0.6
Info: NONBONDED TABLE R-SQUARED SPACING: 0.0625
Info: NONBONDED TABLE SIZE: 705 POINTS
TCL: Setting parameter alchLambda2 to 0.65
Info: NONBONDED TABLE R-SQUARED SPACING: 0.0625
Info: NONBONDED TABLE SIZE: 705 POINTS
TCL: Running for 1500000 steps
ETITLE: TS BOND ANGLE DIHED IMPRP ELECT VDW BOUNDARY MISC KINETIC TOTAL TEMP POTENTIAL TOTALAVG TEMPAVG PRESSURE GPRESSURE VOLUME PRESSAVG GPRESSAVG
ENERGY: 0 5.9122 5.2161 10.3272 0.0000 -10625.1846 1447.9168 0.0000 0.0000 1725.7577 -7430.0546 296.9028 -9155.8123 -7430.0546 296.9028 -67.9941 2.9758 30163.0417 -67.9941 2.9758
ENERGY: 300000 5.5979 5.5242 11.2746 0.0000 -10492.9059 1432.2580 0.0000 0.0000 1722.1571 -7316.0940 296.2834 -9038.2511 -7326.8117 302.9049 -63.2189 -20.8620 30835.7542 -277.0991 -225.6823
ENERGY: 600000 4.6630 6.1156 9.7236 0.0000 -10470.0873 1357.0239 0.0000 0.0000 1775.7967 -7316.7645 305.5116 -9092.5612 -7325.8415 302.4754 -408.6612 -401.8180 30019.2493 -197.2146 -154.8835
ENERGY: 900000 5.5549 4.8340 10.0723 0.0000 -10516.6476 1443.7891 0.0000 0.0000 1765.4539 -7286.9434 303.7322 -9052.3973 -7314.0815 304.4132 -51.1167 4.5477 30311.5622 -87.1172 -46.3146
ENERGY: 1200000 2.2988 6.2484 9.4733 0.0000 -10631.0821 1490.8647 0.0000 0.0000 1799.3032 -7322.8937 309.5557 -9122.1969 -7323.5291 304.6342 682.2183 757.0807 29944.1717 -78.2152 -32.8112
ENERGY: 1500000 6.9736 4.9448 9.4214 0.0000 -10511.5922 1402.4495 0.0000 0.0000 1738.7153 -7349.0876 299.1321 -9087.8029 -7322.7601 304.0041 -358.4752 -281.7278 30246.2098 -136.3759 -86.6063
TCL: Running FEP window  14: Lambda1 0.65   Lambda2 0.7000000000000001 [dLambda 0.050000000000000044]
TCL: Setting parameter firsttimestep to 0
TCL: Setting parameter alchLambda to 0.65
Info: NONBONDED TABLE R-SQUARED SPACING: 0.0625
Info: NONBONDED TABLE SIZE: 705 POINTS
TCL: Setting parameter alchLambda2 to 0.7000000000000001
Info: NONBONDED TABLE R-SQUARED SPACING: 0.0625
Info: NONBONDED TABLE SIZE: 705 POINTS
TCL: Running for 1500000 steps
ETITLE: TS BOND ANGLE DIHED IMPRP ELECT VDW BOUNDARY MISC KINETIC TOTAL TEMP POTENTIAL TOTALAVG TEMPAVG PRESSURE GPRESSURE VOLUME PRESSAVG GPRESSAVG
ENERGY: 0 6.9736 4.9448 9.4214 0.0000 -10512.2384 1402.3137 0.0000 0.0000 1737.8469 -7350.7379 298.9827 -9088.5848 -7350.7379 298.9827 -354.8827 -273.7178 30246.2098 -354.8827 -273.7178
ENERGY: 300000 7.9445 6.2704 11.7732 0.0000 -10478.1922 1432.9940 0.0000 0.0000 1745.5463 -7273.6639 300.3073 -9019.2102 -7333.6635 300.5992 207.8937 318.9837 30194.4939 21.0810 87.2948
ENERGY: 600000 6.6686 5.8982 11.6757 0.0000 -10445.8660 1348.2218 0.0000 0.0000 1696.5469 -7376.8548 291.8774 -9073.4017 -7340.5086 298.4536 -694.3047 -636.5352 30082.5965 -167.4937 -106.9908
ENERGY: 900000 7.4451 4.8420 8.1634 0.0000 -10411.0451 1378.4323 0.0000 0.0000 1746.5537 -7265.6086 300.4806 -9012.1623 -7331.8680 300.2077 -323.0205 -245.4423 30347.5431 -172.2638 -103.1341
ENERGY: 1200000 4.3799 3.4804 10.6326 0.0000 -10523.3087 1331.8765 0.0000 0.0000 1685.1662 -7487.7732 289.9194 -9172.9394 -7344.1697 299.3840 -989.1538 -914.5037 30107.9250 -166.5461 -95.4582
ENERGY: 1500000 1.7725 3.3313 13.7287 0.0000 -10586.9691 1479.9349 0.0000 0.0000 1704.0346 -7384.1672 293.1655 -9088.2017 -7345.5523 299.1723 711.9437 764.1538 29656.2245 -77.3416 -8.2273
TCL: Running FEP window  15: Lambda1 0.7000000000000001 Lambda2 0.7500000000000001 [dLambda 0.050000000000000044]
TCL: Setting parameter firsttimestep to 0
TCL: Setting parameter alchLambda to 0.7000000000000001
Info: NONBONDED TABLE R-SQUARED SPACING: 0.0625
Info: NONBONDED TABLE SIZE: 705 POINTS
TCL: Setting parameter alchLambda2 to 0.7500000000000001
Info: NONBONDED TABLE R-SQUARED SPACING: 0.0625
Info: NONBONDED TABLE SIZE: 705 POINTS
TCL: Running for 1500000 steps
ETITLE: TS BOND ANGLE DIHED IMPRP ELECT VDW BOUNDARY MISC KINETIC TOTAL TEMP POTENTIAL TOTALAVG TEMPAVG PRESSURE GPRESSURE VOLUME PRESSAVG GPRESSAVG
ENERGY: 0 1.7725 3.3313 13.7287 0.0000 -10586.8683 1480.5304 0.0000 0.0000 1703.1715 -7384.3339 293.0171 -9087.5054 -7384.3339 293.0171 708.7136 785.1244 29656.2245 708.7136 785.1244
ENERGY: 300000 6.4390 5.0021 10.2211 0.0000 -10601.2484 1472.9939 0.0000 0.0000 1749.9679 -7356.6243 301.0680 -9106.5922 -7352.9531 296.5835 467.8297 569.6587 30085.6940 218.4189 289.3122
ENERGY: 600000 4.3091 6.3718 15.3414 0.0000 -10597.3321 1424.8270 0.0000 0.0000 1757.0523 -7389.4305 302.2868 -9146.4828 -7339.8890 300.1462 54.7140 145.4851 29757.6552 101.6125 179.0742
ENERGY: 900000 6.3929 5.2984 9.2415 0.0000 -10491.6844 1363.2019 0.0000 0.0000 1774.8061 -7332.7437 305.3412 -9107.5498 -7344.6153 300.1184 -551.7659 -457.5637 30368.0055 54.1875 126.5557
ENERGY: 1200000 7.5382 5.3296 8.9892 0.0000 -10533.7910 1422.6004 0.0000 0.0000 1701.4991 -7387.8345 292.7293 -9089.3335 -7337.1741 300.1719 -237.7574 -268.2699 30644.2779 -111.6096 -51.9519
ENERGY: 1500000 5.7353 6.8722 10.6318 0.0000 -10414.4304 1344.2879 0.0000 0.0000 1744.2219 -7302.6813 300.0794 -9046.9032 -7332.0212 300.8599 -413.9739 -358.4862 30105.8656 -35.9410 22.7132
TCL: Running FEP window  16: Lambda1 0.7500000000000001 Lambda2 0.8000000000000002 [dLambda 0.050000000000000044]
TCL: Setting parameter firsttimestep to 0
TCL: Setting parameter alchLambda to 0.7500000000000001
Info: NONBONDED TABLE R-SQUARED SPACING: 0.0625
Info: NONBONDED TABLE SIZE: 705 POINTS
TCL: Setting parameter alchLambda2 to 0.8000000000000002
Info: NONBONDED TABLE R-SQUARED SPACING: 0.0625
Info: NONBONDED TABLE SIZE: 705 POINTS
TCL: Running for 1500000 steps
ETITLE: TS BOND ANGLE DIHED IMPRP ELECT VDW BOUNDARY MISC KINETIC TOTAL TEMP POTENTIAL TOTALAVG TEMPAVG PRESSURE GPRESSURE VOLUME PRESSAVG GPRESSAVG
ENERGY: 0 5.7353 6.8722 10.6319 0.0000 -10414.7739 1344.5239 0.0000 0.0000 1743.3649 -7303.6456 299.9320 -9047.0106 -7303.6456 299.9320 -413.4894 -339.8716 30105.8656 -413.4894 -339.8716
ENERGY: 300000 6.8099 8.8186 10.0749 0.0000 -10601.5116 1501.2638 0.0000 0.0000 1736.4167 -7338.1277 298.7366 -9074.5444 -7317.8534 298.8012 727.6376 781.2641 29919.6225 -32.3412 32.6404
ENERGY: 600000 3.3449 3.6584 10.9693 0.0000 -10493.9367 1405.2311 0.0000 0.0000 1789.1582 -7281.5748 307.8104 -9070.7330 -7325.6492 300.9104 345.5622 478.4541 29581.6541 -70.3156 9.3472
ENERGY: 900000 6.1251 4.0542 7.4484 0.0000 -10459.0470 1345.4338 0.0000 0.0000 1824.1149 -7271.8706 313.8244 -9095.9855 -7317.6043 302.6516 -564.0840 -496.0960 30405.3248 -101.6103 -27.0274
ENERGY: 1200000 5.2428 5.0321 10.1499 0.0000 -10485.7727 1445.1232 0.0000 0.0000 1648.0430 -7372.1816 283.5326 -9020.2246 -7326.0959 300.7777 209.6172 274.3113 30296.0796 -58.2381 17.9090
ENERGY: 1500000 4.7513 5.0800 12.7881 0.0000 -10530.5871 1416.4763 0.0000 0.0000 1729.3620 -7362.1293 297.5229 -9091.4913 -7329.2311 300.9845 258.4069 257.4702 30037.8536 -64.4611 1.4123
TCL: Running FEP window  17: Lambda1 0.8000000000000002 Lambda2 0.8500000000000002 [dLambda 0.050000000000000044]
TCL: Setting parameter firsttimestep to 0
TCL: Setting parameter alchLambda to 0.8000000000000002
Info: NONBONDED TABLE R-SQUARED SPACING: 0.0625
Info: NONBONDED TABLE SIZE: 705 POINTS
TCL: Setting parameter alchLambda2 to 0.8500000000000002
Info: NONBONDED TABLE R-SQUARED SPACING: 0.0625
Info: NONBONDED TABLE SIZE: 705 POINTS
TCL: Running for 1500000 steps
ETITLE: TS BOND ANGLE DIHED IMPRP ELECT VDW BOUNDARY MISC KINETIC TOTAL TEMP POTENTIAL TOTALAVG TEMPAVG PRESSURE GPRESSURE VOLUME PRESSAVG GPRESSAVG
ENERGY: 0 4.7513 5.0800 12.7881 0.0000 -10530.9221 1416.5389 0.0000 0.0000 1728.4951 -7363.2686 297.3738 -9091.7637 -7363.2686 297.3738 198.2388 273.9119 30037.8536 198.2388 273.9119
ENERGY: 300000 5.1343 7.0890 11.1166 0.0000 -10648.1028 1429.5769 0.0000 0.0000 1765.8483 -7429.3378 303.8001 -9195.1861 -7363.4148 298.8034 -326.8159 -263.8741 29878.6297 -71.1972 -10.4302
ENERGY: 600000 7.4815 2.5992 10.4440 0.0000 -10594.4571 1458.5638 0.0000 0.0000 1779.2229 -7336.1457 306.1011 -9115.3686 -7351.7537 300.8446 156.3057 216.8356 30284.4340 -125.7129 -74.1285
ENERGY: 900000 6.5661 2.9407 6.1548 0.0000 -10367.2215 1332.7030 0.0000 0.0000 1727.3639 -7291.4929 297.1792 -9018.8569 -7360.3206 300.1577 -699.8581 -615.6253 30678.2038 -105.5427 -40.7137
ENERGY: 1200000 2.9123 4.4017 9.1420 0.0000 -10568.4786 1450.6839 0.0000 0.0000 1742.7457 -7358.5930 299.8255 -9101.3387 -7367.3612 300.0538 -61.9527 -9.5695 30840.5161 -166.8545 -96.8099
ENERGY: 1500000 2.5856 5.7244 14.9686 0.0000 -10544.1068 1424.5274 0.0000 0.0000 1755.6835 -7340.6172 302.0513 -9096.3007 -7357.7249 300.8390 195.4181 294.9721 29862.7802 -122.3526 -55.9397
TCL: Running FEP window  18: Lambda1 0.8500000000000002 Lambda2 0.9000000000000002 [dLambda 0.050000000000000044]
TCL: Setting parameter firsttimestep to 0
TCL: Setting parameter alchLambda to 0.8500000000000002
Info: NONBONDED TABLE R-SQUARED SPACING: 0.0625
Info: NONBONDED TABLE SIZE: 705 POINTS
TCL: Setting parameter alchLambda2 to 0.9000000000000002
Info: NONBONDED TABLE R-SQUARED SPACING: 0.0625
Info: NONBONDED TABLE SIZE: 705 POINTS
TCL: Running for 1500000 steps
ETITLE: TS BOND ANGLE DIHED IMPRP ELECT VDW BOUNDARY MISC KINETIC TOTAL TEMP POTENTIAL TOTALAVG TEMPAVG PRESSURE GPRESSURE VOLUME PRESSAVG GPRESSAVG
ENERGY: 0 2.5856 5.7244 14.9686 0.0000 -10544.4533 1424.2689 0.0000 0.0000 1754.8129 -7342.0929 301.9015 -9096.9058 -7342.0929 301.9015 202.7000 310.2562 29862.7802 202.7000 310.2562
ENERGY: 300000 5.9245 9.0545 9.1967 0.0000 -10598.0615 1474.1195 0.0000 0.0000 1749.4273 -7350.3390 300.9750 -9099.7663 -7362.8434 301.0621 549.0520 581.2285 30218.9998 85.1411 132.1456
ENERGY: 600000 9.7637 3.3149 12.0879 0.0000 -10706.9613 1513.9087 0.0000 0.0000 1781.3395 -7386.5465 306.4652 -9167.8861 -7376.1565 299.7346 809.3181 841.7290 30184.3023 -94.1308 -32.8554
ENERGY: 900000 5.6844 6.5148 11.0499 0.0000 -10425.2311 1341.5342 0.0000 0.0000 1736.2243 -7324.2235 298.7035 -9060.4478 -7353.3681 300.3483 -408.1701 -397.4835 30325.8469 -87.3643 -27.3217
ENERGY: 1200000 7.2824 5.6507 11.0292 0.0000 -10510.3290 1440.1152 0.0000 0.0000 1749.7044 -7296.5471 301.0227 -9046.2514 -7347.2705 300.9441 219.7348 191.8714 30748.3589 -123.4716 -66.8631
ENERGY: 1500000 4.4700 4.0680 12.1346 0.0000 -10634.3950 1438.1393 0.0000 0.0000 1760.9855 -7414.5976 302.9635 -9175.5831 -7345.6603 302.2164 22.9437 62.5274 29826.5153 -70.3076 -14.2962
TCL: Running FEP window  19: Lambda1 0.9000000000000002 Lambda2 0.9500000000000003 [dLambda 0.050000000000000044]
TCL: Setting parameter firsttimestep to 0
TCL: Setting parameter alchLambda to 0.9000000000000002
Info: NONBONDED TABLE R-SQUARED SPACING: 0.0625
Info: NONBONDED TABLE SIZE: 705 POINTS
TCL: Setting parameter alchLambda2 to 0.9500000000000003
Info: NONBONDED TABLE R-SQUARED SPACING: 0.0625
Info: NONBONDED TABLE SIZE: 705 POINTS
TCL: Running for 1500000 steps
ETITLE: TS BOND ANGLE DIHED IMPRP ELECT VDW BOUNDARY MISC KINETIC TOTAL TEMP POTENTIAL TOTALAVG TEMPAVG PRESSURE GPRESSURE VOLUME PRESSAVG GPRESSAVG
ENERGY: 0 4.4700 4.0680 12.1346 0.0000 -10634.6178 1438.0037 0.0000 0.0000 1760.0837 -7415.8578 302.8083 -9175.9415 -7415.8578 302.8083 -15.9660 78.5584 29826.5153 -15.9660 78.5584
ENERGY: 300000 4.3263 5.1908 7.0006 0.0000 -10598.1041 1459.3749 0.0000 0.0000 1723.0347 -7399.1767 296.4344 -9122.2114 -7356.5131 303.6071 587.6727 623.4620 30043.2966 -251.1799 -180.7683
ENERGY: 600000 2.6987 3.5001 8.7708 0.0000 -10592.0520 1445.6357 0.0000 0.0000 1793.3717 -7338.0751 308.5353 -9131.4467 -7358.9063 302.5562 447.7311 463.8071 29999.1577 -298.2313 -235.2351
ENERGY: 900000 5.0663 9.1431 13.7413 0.0000 -10605.0719 1436.9237 0.0000 0.0000 1726.0904 -7414.1070 296.9601 -9140.1975 -7368.1656 300.8883 -219.9393 -130.8543 30567.9250 -165.8193 -94.3369
ENERGY: 1200000 6.7783 6.5934 13.1004 0.0000 -10430.7625 1325.1088 0.0000 0.0000 1745.3951 -7333.7864 300.2813 -9079.1815 -7354.8108 301.4746 -786.2229 -728.8068 30228.3625 -157.3993 -84.0415
ENERGY: 1500000 4.5209 6.4283 8.2306 0.0000 -10378.5555 1327.2782 0.0000 0.0000 1738.8075 -7293.2901 299.1479 -9032.0975 -7347.3245 301.3971 -554.9724 -485.8997 30364.8578 -162.5711 -91.4724
TCL: Running FEP window  20: Lambda1 0.9500000000000003 Lambda2 1.0    [dLambda 0.04999999999999971]
TCL: Setting parameter firsttimestep to 0
TCL: Setting parameter alchLambda to 0.9500000000000003
Info: NONBONDED TABLE R-SQUARED SPACING: 0.0625
Info: NONBONDED TABLE SIZE: 705 POINTS
TCL: Setting parameter alchLambda2 to 1.0
Info: NONBONDED TABLE R-SQUARED SPACING: 0.0625
Info: NONBONDED TABLE SIZE: 705 POINTS
TCL: Running for 1500000 steps
ETITLE: TS BOND ANGLE DIHED IMPRP ELECT VDW BOUNDARY MISC KINETIC TOTAL TEMP POTENTIAL TOTALAVG TEMPAVG PRESSURE GPRESSURE VOLUME PRESSAVG GPRESSAVG
ENERGY: 0 4.5209 6.4283 8.2306 0.0000 -10378.6099 1326.9549 0.0000 0.0000 1737.9493 -7294.5260 299.0003 -9032.4753 -7294.5260 299.0003 -539.7037 -466.9542 30364.8578 -539.7037 -466.9542
ENERGY: 300000 8.6374 3.4462 13.4824 0.0000 -10577.3458 1447.8865 0.0000 0.0000 1717.9479 -7385.9454 295.5592 -9103.8933 -7387.9631 297.9247 116.9671 185.2338 29951.3879 -286.0205 -216.4875
ENERGY: 600000 4.7105 5.4442 15.4834 0.0000 -10636.4800 1469.2694 0.0000 0.0000 1730.1476 -7411.4249 297.6581 -9141.5725 -7377.8969 297.3318 89.7911 224.8438 30153.3152 -267.0534 -183.4879
ENERGY: 900000 4.4701 6.8365 11.9199 0.0000 -10467.5084 1442.0876 0.0000 0.0000 1749.2953 -7252.8989 300.9523 -9002.1942 -7352.2834 297.1118 282.3202 374.6571 30414.0463 -164.1434 -93.8250
ENERGY: 1200000 5.8715 6.0494 7.9763 0.0000 -10583.0976 1432.9485 0.0000 0.0000 1714.9991 -7415.2528 295.0519 -9130.2519 -7350.0283 298.6195 56.5965 106.0159 29652.4281 -95.6352 -39.5305
ENERGY: 1500000 4.1647 8.5923 14.0313 0.0000 -10600.8652 1508.1113 0.0000 0.0000 1709.7349 -7356.2307 294.1462 -9065.9656 -7350.0226 297.8408 774.5182 827.4037 30185.2474 -14.3342 41.1221
TCL: Exiting due to exit command.
