Info: SIMULATION PARAMETERS:
Info: TIMESTEP               2
Info: NUMBER OF STEPS        0
Info: STEPS PER CYCLE        10
Info: PERIODIC CELL BASIS 1  30.3138 0 0
Info: PERIODIC CELL BASIS 2  0 30.3607 0
Info: PERIODIC CELL BASIS 3  0 0 32.9617
Info: PERIODIC CELL CENTER   0 0 0
Info: WRAPPING WATERS AROUND PERIODIC BOUNDARIES ON OUTPUT.
Info: WRAPPING ALL CLUSTERS AROUND PERIODIC BOUNDARIES ON OUTPUT.
Info: FIRST LDB TIMESTEP     50
Info: LAST LDB TIMESTEP     -1
Info: HOM BACKGROUND SCALING 1
Info: PME BACKGROUND SCALING 1
Info: MIN ATOMS PER PATCH    40
Info: EMPTY PATCH LOAD       40 ATOMS
Info: VELOCITY FILE          mobley_3746675_equil.vel
Info: CENTER OF MASS MOVING INITIALLY? NO
Info: DIELECTRIC             1
Info: EXCLUDE                SCALED ONE-FOUR
Info: 1-4 ELECTROSTATICS SCALED BY 0.833333
Info: MODIFIED 1-4 VDW PARAMETERS WILL BE USED
Info: DCD FILENAME           mobley_3746675_prod.dcd
Info: DCD FREQUENCY          100000
Info: DCD FIRST STEP         100000
Info: DCD FILE WILL CONTAIN UNIT CELL DATA
Info: XST FILENAME           mobley_3746675_prod.xst
Info: XST FREQUENCY          100000
Info: NO VELOCITY DCD OUTPUT
Info: NO FORCE DCD OUTPUT
Info: OUTPUT FILENAME        mobley_3746675_prod
Info: BINARY OUTPUT FILES WILL BE USED
Info: RESTART FILENAME       mobley_3746675_prod.restart
Info: RESTART FREQUENCY      100000
Info: BINARY RESTART FILES WILL BE USED
Info: CUTOFF                 9
Info: PAIRLIST DISTANCE      11
Info: PAIRLIST SHRINK RATE   0.01
Info: PAIRLIST GROW RATE     0.01
Info: PAIRLIST TRIGGER       0.3
Info: PAIRLISTS PER CYCLE    2
Info: PAIRLISTS ENABLED
Info: MARGIN                 2
Info: HYDROGEN GROUP CUTOFF  2.5
Info: PATCH DIMENSION        15.5
Info: ENERGY OUTPUT STEPS    100000
Info: ENERGY EVALUATION STEPS    100000
Info: OUTPUT ENERGY PRECISION 4
Info: CROSSTERM ENERGY INCLUDED IN DIHEDRAL
Info: TIMING OUTPUT STEPS    1000000
Info: PRESSURE OUTPUT STEPS  100000
Info: ALCHEMICAL FEP ON
Info: FEP CURRENT LAMBDA VALUE     1
Info: FEP COMPARISON LAMBDA VALUE  0.95
Info: FEP INTRA-ALCHEMICAL NON-BONDED INTERACTIONS WILL BE RETAINED
Info: FEP INTRA-ALCHEMICAL BONDED INTERACTIONS WILL BE RETAINED
Info: FEP VDW SHIFTING COEFFICIENT 5
Info: FEP ELEC. ACTIVE FOR ANNIHILATED PARTICLES BETWEEN LAMBDA = 0 AND LAMBDA = 0.5
Info: FEP ELEC. ACTIVE FOR EXNIHILATED PARTICLES BETWEEN LAMBDA = 0.5 AND LAMBDA = 1
Info: FEP VDW ACTIVE FOR ANNIHILATED PARTICLES BETWEEN LAMBDA = 0 AND LAMBDA = 1
Info: FEP VDW ACTIVE FOR EXNIHILATED PARTICLES BETWEEN LAMBDA = 0 AND LAMBDA = 1
Info: FEP BOND ACTIVE FOR ANNIHILATED PARTICLES BETWEEN LAMBDA = 1 AND LAMBDA = 1
Info: FEP BOND ACTIVE FOR EXNIHILATED PARTICLES BETWEEN LAMBDA = 0 AND LAMBDA = 0
Info: LANGEVIN DYNAMICS ACTIVE
Info: LANGEVIN TEMPERATURE   300
Info: LANGEVIN USING BBK INTEGRATOR
Info: LANGEVIN DAMPING COEFFICIENT IS 1 INVERSE PS
Info: LANGEVIN DYNAMICS APPLIED TO HYDROGENS
Info: LANGEVIN PISTON PRESSURE CONTROL ACTIVE
Info:        TARGET PRESSURE IS 1.01325 BAR
Info:     OSCILLATION PERIOD IS 50 FS
Info:             DECAY TIME IS 25 FS
Info:     PISTON TEMPERATURE IS 300 K
Info:       PRESSURE CONTROL IS GROUP-BASED
Info:    INITIAL STRAIN RATE IS -0.000181328 -0.000181328 -0.000181328
Info:       CELL FLUCTUATION IS ISOTROPIC
Info: PARTICLE MESH EWALD (PME) ACTIVE
Info: PME TOLERANCE               1e-06
Info: PME EWALD COEFFICIENT       0.348832
Info: PME INTERPOLATION ORDER     4
Info: PME GRID DIMENSIONS         32 32 36
Info: PME MAXIMUM GRID SPACING    1
Info: PME CALCULATION WILL BE PERFORMED ON GPU
Info: FULL ELECTROSTATIC EVALUATION FREQUENCY      2
Info: USING VERLET I (r-RESPA) MTS SCHEME.
Info: C1 SPLITTING OF LONG RANGE ELECTROSTATICS
Info: PLACING ATOMS IN PATCHES BY HYDROGEN GROUPS
Info: RIGID BONDS TO HYDROGEN : ALL
Info:         ERROR TOLERANCE : 1e-08
Info:          MAX ITERATIONS : 100
Info: RIGID WATER USING SETTLE ALGORITHM
Info: RANDOM NUMBER SEED     1743783825
Info: USE HYDROGEN BONDS?    NO
Info: Using AMBER format force field!
Info: AMBER PARM FILE        mobley_3746675.prmtop
Info: COORDINATE PDB         mobley_3746675.pdb
Info: Exclusions will be read from PARM file!
Info: SCNB (VDW SCALING)     2
Info: USING ARITHMETIC MEAN TO COMBINE L-J SIGMA PARAMETERS
Info: BINARY COORDINATES     mobley_3746675_equil.coor
Info: SUMMARY OF PARAMETERS:
Info: 9 BONDS
Info: 10 ANGLES
Info:   10 HARMONIC
Info:   0 COSINE-BASED
Info: 6 DIHEDRAL
Info: 0 IMPROPER
Info: 0 CROSSTERM
Info: 0 VDW
Info: 21 VDW_PAIRS
Info: 0 NBTHOLE_PAIRS
Info: To read alchdata from file: mobley_3746675.pdb
Info: To read alchflag data from column: 5
Info: STRUCTURE SUMMARY:
Info: 2956 ATOMS
Info: 2956 BONDS
Info: 30 ANGLES
Info: 52 DIHEDRALS
Info: 0 IMPROPERS
Info: 0 CROSSTERMS
Info: 3021 EXCLUSIONS
Info: 2947 RIGID BONDS
Info: ALCH: 0 ATOMS TO DISAPPEAR IN FINAL STATE
Info: ALCH: 19 ATOMS TO APPEAR IN FINAL STATE
Info: 5921 DEGREES OF FREEDOM
Info: 988 HYDROGEN GROUPS
Info: 4 ATOMS IN LARGEST HYDROGEN GROUP
Info: 988 MIGRATION GROUPS
Info: 4 ATOMS IN LARGEST MIGRATION GROUP
Info: TOTAL MASS = 17755.8 amu
Info: TOTAL CHARGE = 0.000199996 e
Info: MASS DENSITY = 0.971938 g/cm^3
Info: ATOM DENSITY = 0.0974412 atoms/A^3
Info: ADDED 0 IMPLICIT EXCLUSIONS
Info: NONBONDED TABLE R-SQUARED SPACING: 0.0625
Info: NONBONDED TABLE SIZE: 705 POINTS
Info: REMOVING COM VELOCITY 0.148956 0.14801 -0.0418103
Info: Use 3D box decompostion in PME FFT.
Info: Updated CUDA force table with 4096 elements.
Info: Updated CUDA LJ table with 6 x 6 elements.
Info: Found 18 unique exclusion lists needing 48 bytes
TCL: Running for 1500000 steps
ETITLE: TS BOND ANGLE DIHED IMPRP ELECT VDW BOUNDARY MISC KINETIC TOTAL TEMP POTENTIAL TOTALAVG TEMPAVG PRESSURE GPRESSURE VOLUME PRESSAVG GPRESSAVG
ENERGY: 0 3.5659 4.0055 18.2968 0.0000 -10549.5563 1412.4912 0.0000 0.0000 1731.3825 -7379.8143 294.2987 -9111.1968 -7379.8143 294.2987 308.9594 392.6323 30336.2440 308.9594 392.6323
ENERGY: 300000 5.2330 6.2109 14.5378 0.0000 -10752.2274 1424.1571 0.0000 0.0000 1750.9993 -7551.0894 297.6331 -9302.0887 -7457.9301 299.0485 -155.8350 -127.8012 30096.5641 126.5141 205.4413
ENERGY: 600000 3.3108 6.0376 16.8177 0.0000 -10718.0090 1473.5841 0.0000 0.0000 1753.3833 -7464.8756 298.0384 -9218.2589 -7473.5466 297.5628 728.7364 730.5193 29961.2529 310.6982 361.1853
ENERGY: 900000 3.0512 8.4852 14.6339 0.0000 -10640.9564 1399.3813 0.0000 0.0000 1741.5483 -7473.8564 296.0267 -9215.4047 -7479.0222 297.6446 -312.7553 -302.7803 30627.5138 181.7033 232.8001
ENERGY: 1200000 2.2955 5.5438 15.3164 0.0000 -10759.9488 1428.8355 0.0000 0.0000 1710.6192 -7597.3382 290.7694 -9307.9575 -7481.3877 297.3247 -284.9061 -216.4937 30497.9311 109.7983 165.9249
ENERGY: 1500000 3.6676 7.0310 13.8734 0.0000 -10834.6790 1458.3426 0.0000 0.0000 1789.2312 -7562.5332 304.1318 -9351.7644 -7486.3267 298.1685 -148.7688 -88.2988 30393.8924 92.3585 150.2860
TCL: Running FEP window   2: Lambda1 0.95   Lambda2 0.8999999999999999 [dLambda -0.050000000000000044]
TCL: Setting parameter firsttimestep to 0
TCL: Setting parameter alchLambda to 0.95
Info: NONBONDED TABLE R-SQUARED SPACING: 0.0625
Info: NONBONDED TABLE SIZE: 705 POINTS
TCL: Setting parameter alchLambda2 to 0.8999999999999999
Info: NONBONDED TABLE R-SQUARED SPACING: 0.0625
Info: NONBONDED TABLE SIZE: 705 POINTS
TCL: Running for 1500000 steps
ETITLE: TS BOND ANGLE DIHED IMPRP ELECT VDW BOUNDARY MISC KINETIC TOTAL TEMP POTENTIAL TOTALAVG TEMPAVG PRESSURE GPRESSURE VOLUME PRESSAVG GPRESSAVG
ENERGY: 0 3.6676 7.0310 13.8734 0.0000 -10834.0508 1458.1075 0.0000 0.0000 1788.3357 -7563.0356 303.9796 -9351.3713 -7563.0356 303.9796 -190.7879 -106.9218 30393.8924 -190.7879 -106.9218
ENERGY: 300000 5.1029 4.4633 17.7236 0.0000 -10674.2179 1387.2400 0.0000 0.0000 1771.0311 -7488.6570 301.0381 -9259.6881 -7507.6445 300.1743 -544.6639 -551.8884 30797.3521 -317.5660 -266.7373
ENERGY: 600000 4.5718 6.5435 16.2974 0.0000 -10790.6490 1491.9608 0.0000 0.0000 1815.6435 -7455.6320 308.6213 -9271.2755 -7477.0208 302.3830 306.0429 416.2104 30588.4931 -197.6176 -128.1564
ENERGY: 900000 4.8098 5.2114 16.9210 0.0000 -10740.5341 1442.2327 0.0000 0.0000 1743.2869 -7528.0723 296.3222 -9271.3592 -7481.5610 301.0487 -273.1010 -175.7466 30456.0641 -251.2715 -184.9983
ENERGY: 1200000 2.9377 4.8200 12.9802 0.0000 -10617.3800 1371.4578 0.0000 0.0000 1820.4105 -7404.7739 309.4316 -9225.1844 -7463.7167 301.7379 -632.0201 -537.7820 30619.5363 -267.4716 -198.2163
ENERGY: 1500000 5.4351 3.4745 13.8626 0.0000 -10767.9067 1480.3924 0.0000 0.0000 1788.5629 -7476.1792 304.0182 -9264.7422 -7467.7789 301.3848 85.2506 129.6052 30635.1237 -169.2084 -103.5727
TCL: Running FEP window   3: Lambda1 0.8999999999999999 Lambda2 0.8499999999999999 [dLambda -0.050000000000000044]
TCL: Setting parameter firsttimestep to 0
TCL: Setting parameter alchLambda to 0.8999999999999999
Info: NONBONDED TABLE R-SQUARED SPACING: 0.0625
Info: NONBONDED TABLE SIZE: 705 POINTS
TCL: Setting parameter alchLambda2 to 0.8499999999999999
Info: NONBONDED TABLE R-SQUARED SPACING: 0.0625
Info: NONBONDED TABLE SIZE: 705 POINTS
TCL: Running for 1500000 steps
ETITLE: TS BOND ANGLE DIHED IMPRP ELECT VDW BOUNDARY MISC KINETIC TOTAL TEMP POTENTIAL TOTALAVG TEMPAVG PRESSURE GPRESSURE VOLUME PRESSAVG GPRESSAVG
ENERGY: 0 5.4351 3.4745 13.8626 0.0000 -10767.0276 1480.4156 0.0000 0.0000 1787.6861 -7476.1538 303.8691 -9263.8399 -7476.1538 303.8691 31.4571 118.1586 30635.1237 31.4571 118.1586
ENERGY: 300000 3.6395 4.7778 15.0534 0.0000 -10794.6276 1442.2510 0.0000 0.0000 1769.9442 -7558.9617 300.8534 -9328.9059 -7459.4484 305.7400 4.5711 9.2888 30053.8988 -56.8147 5.6179
ENERGY: 600000 1.4946 3.4699 17.5002 0.0000 -10878.7419 1508.8373 0.0000 0.0000 1781.7477 -7565.6921 302.8597 -9347.4399 -7478.8264 305.0553 130.5519 282.5736 30332.6620 21.7939 93.8625
ENERGY: 900000 3.5152 4.1263 14.0967 0.0000 -10693.4932 1405.6768 0.0000 0.0000 1762.6136 -7503.4646 299.6073 -9266.0782 -7495.8567 302.6078 -315.9269 -221.6863 30361.3490 5.8865 74.0877
ENERGY: 1200000 2.7755 5.3340 18.1187 0.0000 -10658.6781 1423.4936 0.0000 0.0000 1790.8510 -7418.1053 304.4071 -9208.9563 -7479.0178 302.1248 187.1702 239.5583 29903.6972 -15.7040 51.2103
ENERGY: 1500000 3.6254 5.3825 13.7771 0.0000 -10729.0385 1480.9227 0.0000 0.0000 1740.0228 -7485.3081 295.7674 -9225.3308 -7476.6744 301.8366 267.7297 280.6620 30515.8790 29.4211 95.5375
TCL: Running FEP window   4: Lambda1 0.8499999999999999 Lambda2 0.7999999999999998 [dLambda -0.050000000000000044]
TCL: Setting parameter firsttimestep to 0
TCL: Setting parameter alchLambda to 0.8499999999999999
Info: NONBONDED TABLE R-SQUARED SPACING: 0.0625
Info: NONBONDED TABLE SIZE: 705 POINTS
TCL: Setting parameter alchLambda2 to 0.7999999999999998
Info: NONBONDED TABLE R-SQUARED SPACING: 0.0625
Info: NONBONDED TABLE SIZE: 705 POINTS
TCL: Running for 1500000 steps
ETITLE: TS BOND ANGLE DIHED IMPRP ELECT VDW BOUNDARY MISC KINETIC TOTAL TEMP POTENTIAL TOTALAVG TEMPAVG PRESSURE GPRESSURE VOLUME PRESSAVG GPRESSAVG
ENERGY: 0 3.6254 5.3825 13.7771 0.0000 -10728.9282 1481.5360 0.0000 0.0000 1739.1774 -7485.4297 295.6237 -9224.6072 -7485.4297 295.6237 191.3998 278.2101 30515.8790 191.3998 278.2101
ENERGY: 300000 1.3595 4.8696 17.2910 0.0000 -10783.8264 1508.2335 0.0000 0.0000 1748.5452 -7503.5277 297.2160 -9252.0728 -7451.1242 300.0169 727.8060 803.0961 29934.9292 -20.7762 26.8603
ENERGY: 600000 3.6180 5.7288 18.6259 0.0000 -10667.3960 1370.0362 0.0000 0.0000 1764.5754 -7504.8117 299.9408 -9269.3871 -7457.4162 300.5457 -604.6166 -502.0945 30661.1379 -176.1544 -106.3863
ENERGY: 900000 1.0442 6.8972 15.3239 0.0000 -10542.8057 1356.4938 0.0000 0.0000 1712.9600 -7450.0866 291.1673 -9163.0466 -7441.2775 301.4115 -288.3373 -255.3543 30335.0356 34.4820 87.0825
ENERGY: 1200000 1.6519 6.6551 15.1600 0.0000 -10756.5938 1519.4903 0.0000 0.0000 1790.1427 -7423.4937 304.2867 -9213.6364 -7433.7883 301.4597 894.0195 943.4289 30191.6433 76.4535 127.0837
ENERGY: 1500000 1.8303 5.9504 16.9563 0.0000 -10633.5631 1361.5950 0.0000 0.0000 1803.7072 -7443.5239 306.5924 -9247.2311 -7436.5094 301.6488 -284.5838 -227.1332 30059.3084 -25.0657 29.2011
TCL: Running FEP window   5: Lambda1 0.7999999999999998 Lambda2 0.7499999999999998 [dLambda -0.050000000000000044]
TCL: Setting parameter firsttimestep to 0
TCL: Setting parameter alchLambda to 0.7999999999999998
Info: NONBONDED TABLE R-SQUARED SPACING: 0.0625
Info: NONBONDED TABLE SIZE: 705 POINTS
TCL: Setting parameter alchLambda2 to 0.7499999999999998
Info: NONBONDED TABLE R-SQUARED SPACING: 0.0625
Info: NONBONDED TABLE SIZE: 705 POINTS
TCL: Running for 1500000 steps
ETITLE: TS BOND ANGLE DIHED IMPRP ELECT VDW BOUNDARY MISC KINETIC TOTAL TEMP POTENTIAL TOTALAVG TEMPAVG PRESSURE GPRESSURE VOLUME PRESSAVG GPRESSAVG
ENERGY: 0 1.8303 5.9504 16.9563 0.0000 -10632.9452 1361.5987 0.0000 0.0000 1802.8188 -7443.7906 306.4414 -9246.6094 -7443.7906 306.4414 -312.5212 -236.2434 30059.3084 -312.5212 -236.2434
ENERGY: 300000 3.4198 3.1391 17.3262 0.0000 -10808.8902 1504.4545 0.0000 0.0000 1805.5858 -7474.9648 306.9117 -9280.5506 -7456.1353 303.0128 442.6914 473.9427 30486.3155 86.5580 135.3272
ENERGY: 600000 4.8728 4.0519 14.4291 0.0000 -10744.1250 1496.2914 0.0000 0.0000 1724.6522 -7499.8276 293.1547 -9224.4797 -7478.2754 298.6722 277.8973 387.4556 30364.5453 -72.0500 -4.1021
ENERGY: 900000 0.7336 1.9303 17.1914 0.0000 -10689.8220 1476.4385 0.0000 0.0000 1733.4450 -7460.0832 294.6493 -9193.5281 -7484.2604 297.3488 603.2550 673.0062 30144.6639 0.4676 78.8683
ENERGY: 1200000 1.8545 4.1338 14.0555 0.0000 -10787.0268 1497.1081 0.0000 0.0000 1750.6040 -7519.2709 297.5659 -9269.8749 -7482.2796 298.9853 465.4908 577.3566 30031.1332 95.1202 171.5455
ENERGY: 1500000 1.5751 4.2267 14.1231 0.0000 -10682.0428 1451.9218 0.0000 0.0000 1798.3354 -7411.8607 305.6793 -9210.1961 -7476.7082 299.3234 78.2233 201.9784 30455.5753 46.6980 124.4221
TCL: Running FEP window   6: Lambda1 0.7499999999999998 Lambda2 0.6999999999999997 [dLambda -0.050000000000000044]
TCL: Setting parameter firsttimestep to 0
TCL: Setting parameter alchLambda to 0.7499999999999998
Info: NONBONDED TABLE R-SQUARED SPACING: 0.0625
Info: NONBONDED TABLE SIZE: 705 POINTS
TCL: Setting parameter alchLambda2 to 0.6999999999999997
Info: NONBONDED TABLE R-SQUARED SPACING: 0.0625
Info: NONBONDED TABLE SIZE: 705 POINTS
TCL: Running for 1500000 steps
ETITLE: TS BOND ANGLE DIHED IMPRP ELECT VDW BOUNDARY MISC KINETIC TOTAL TEMP POTENTIAL TOTALAVG TEMPAVG PRESSURE GPRESSURE VOLUME PRESSAVG GPRESSAVG
ENERGY: 0 1.5751 4.2267 14.1231 0.0000 -10681.8631 1452.2647 0.0000 0.0000 1797.4549 -7412.2185 305.5296 -9209.6734 -7412.2185 305.5296 91.0699 195.3613 30455.5753 91.0699 195.3613
ENERGY: 300000 2.7801 3.1201 17.9777 0.0000 -10661.1482 1439.3379 0.0000 0.0000 1798.5033 -7399.4291 305.7078 -9197.9324 -7442.8102 302.2509 183.5348 213.3889 30368.0990 161.0612 212.8545
ENERGY: 600000 1.0245 6.3632 13.2501 0.0000 -10723.3371 1513.2370 0.0000 0.0000 1784.8510 -7404.6113 303.3872 -9189.4623 -7436.6961 303.0195 925.2055 1003.9842 30109.8471 414.4011 465.7421
ENERGY: 900000 2.2970 5.3123 13.9719 0.0000 -10628.0478 1424.9686 0.0000 0.0000 1728.0776 -7453.4204 293.7369 -9181.4980 -7440.5121 303.5405 -168.6356 -151.4990 30672.1527 262.5737 313.3115
ENERGY: 1200000 3.3430 9.3109 12.9826 0.0000 -10630.6933 1409.5806 0.0000 0.0000 1735.0786 -7460.3976 294.9270 -9195.4762 -7446.2835 301.7388 -208.1745 -100.7421 30413.7152 122.6673 179.2500
ENERGY: 1500000 3.7576 5.9009 16.8033 0.0000 -10675.2677 1439.2359 0.0000 0.0000 1747.5696 -7462.0003 297.0502 -9209.5699 -7447.7539 301.9011 -33.7113 -61.2516 30475.2396 97.1617 149.9244
TCL: Running FEP window   7: Lambda1 0.6999999999999997 Lambda2 0.6499999999999997 [dLambda -0.050000000000000044]
TCL: Setting parameter firsttimestep to 0
TCL: Setting parameter alchLambda to 0.6999999999999997
Info: NONBONDED TABLE R-SQUARED SPACING: 0.0625
Info: NONBONDED TABLE SIZE: 705 POINTS
TCL: Setting parameter alchLambda2 to 0.6499999999999997
Info: NONBONDED TABLE R-SQUARED SPACING: 0.0625
Info: NONBONDED TABLE SIZE: 705 POINTS
TCL: Running for 1500000 steps
ETITLE: TS BOND ANGLE DIHED IMPRP ELECT VDW BOUNDARY MISC KINETIC TOTAL TEMP POTENTIAL TOTALAVG TEMPAVG PRESSURE GPRESSURE VOLUME PRESSAVG GPRESSAVG
ENERGY: 0 3.7576 5.9009 16.8033 0.0000 -10674.8350 1439.6097 0.0000 0.0000 1746.6808 -7462.0826 296.8991 -9208.7634 -7462.0826 296.8991 -136.9461 -65.3018 30475.2396 -136.9461 -65.3018
ENERGY: 300000 4.0632 5.5019 15.4003 0.0000 -10810.4185 1525.6080 0.0000 0.0000 1787.0519 -7472.7932 303.7613 -9259.8451 -7447.6299 299.8753 444.8619 529.1275 30431.9122 -109.2727 -29.0134
ENERGY: 600000 2.3286 5.9772 14.3035 0.0000 -10653.8639 1400.9149 0.0000 0.0000 1766.7972 -7463.5424 300.3185 -9230.3397 -7444.8641 300.2950 -324.5884 -285.6757 30384.7621 31.5846 87.6044
ENERGY: 900000 1.5517 7.4559 15.9947 0.0000 -10726.8014 1445.5654 0.0000 0.0000 1755.9761 -7500.2575 298.4791 -9256.2336 -7450.5186 300.6163 -117.7675 25.1121 30365.1518 -8.3722 50.5703
ENERGY: 1200000 5.1004 6.1180 16.5383 0.0000 -10815.9589 1524.8100 0.0000 0.0000 1777.6899 -7485.7023 302.1700 -9263.3923 -7458.3840 300.2097 707.9504 766.6489 30003.7579 91.9932 148.2714
ENERGY: 1500000 2.2819 9.5697 16.1973 0.0000 -10858.0582 1529.4603 0.0000 0.0000 1747.5258 -7553.0232 297.0427 -9300.5491 -7462.5633 299.6831 804.8665 782.7267 29724.8039 112.8095 166.9225
TCL: Running FEP window   8: Lambda1 0.6499999999999997 Lambda2 0.5999999999999996 [dLambda -0.050000000000000044]
TCL: Setting parameter firsttimestep to 0
TCL: Setting parameter alchLambda to 0.6499999999999997
Info: NONBONDED TABLE R-SQUARED SPACING: 0.0625
Info: NONBONDED TABLE SIZE: 705 POINTS
TCL: Setting parameter alchLambda2 to 0.5999999999999996
Info: NONBONDED TABLE R-SQUARED SPACING: 0.0625
Info: NONBONDED TABLE SIZE: 705 POINTS
TCL: Running for 1500000 steps
ETITLE: TS BOND ANGLE DIHED IMPRP ELECT VDW BOUNDARY MISC KINETIC TOTAL TEMP POTENTIAL TOTALAVG TEMPAVG PRESSURE GPRESSURE VOLUME PRESSAVG GPRESSAVG
ENERGY: 0 2.2819 9.5697 16.1973 0.0000 -10857.2166 1529.7080 0.0000 0.0000 1746.6809 -7552.7789 296.8991 -9299.4598 -7552.7789 296.8991 693.7085 779.6794 29724.8039 693.7085 779.6794
ENERGY: 300000 2.6211 5.1200 15.3847 0.0000 -10697.2128 1469.8013 0.0000 0.0000 1719.9844 -7484.3013 292.3613 -9204.2857 -7474.7988 295.5207 292.9933 379.0390 30476.3386 520.5107 596.1121
ENERGY: 600000 2.4980 4.3895 18.0341 0.0000 -10675.4331 1395.9320 0.0000 0.0000 1793.8325 -7460.7469 304.9139 -9254.5794 -7455.4701 298.3611 -419.6623 -414.8020 30415.7978 300.4348 366.6560
ENERGY: 900000 5.2336 3.5132 15.9086 0.0000 -10593.7267 1370.7780 0.0000 0.0000 1741.2877 -7457.0056 295.9824 -9198.2933 -7446.6831 298.2927 -644.6516 -569.9347 30994.2572 143.6238 205.1735
ENERGY: 1200000 1.8156 7.1440 16.1304 0.0000 -10820.8315 1554.3412 0.0000 0.0000 1733.1740 -7508.2264 294.6032 -9241.4004 -7450.4860 298.7435 872.2998 941.4103 30356.2401 117.5441 188.7516
ENERGY: 1500000 4.4884 6.2087 16.9709 0.0000 -10799.3444 1526.1919 0.0000 0.0000 1783.4722 -7462.0123 303.1529 -9245.4845 -7450.8845 298.5142 549.7283 601.5745 30284.8533 125.6058 198.6904
TCL: Running FEP window   9: Lambda1 0.5999999999999996 Lambda2 0.5499999999999996 [dLambda -0.050000000000000044]
TCL: Setting parameter firsttimestep to 0
TCL: Setting parameter alchLambda to 0.5999999999999996
Info: NONBONDED TABLE R-SQUARED SPACING: 0.0625
Info: NONBONDED TABLE SIZE: 705 POINTS
TCL: Setting parameter alchLambda2 to 0.5499999999999996
Info: NONBONDED TABLE R-SQUARED SPACING: 0.0625
Info: NONBONDED TABLE SIZE: 705 POINTS
TCL: Running for 1500000 steps
ETITLE: TS BOND ANGLE DIHED IMPRP ELECT VDW BOUNDARY MISC KINETIC TOTAL TEMP POTENTIAL TOTALAVG TEMPAVG PRESSURE GPRESSURE VOLUME PRESSAVG GPRESSAVG
ENERGY: 0 4.4883 6.2087 16.9709 0.0000 -10799.3974 1526.3319 0.0000 0.0000 1782.6461 -7462.7515 303.0124 -9245.3976 -7462.7515 303.0124 507.2735 593.9813 30284.8533 507.2735 593.9813
ENERGY: 300000 4.0445 5.6559 15.5137 0.0000 -10757.1716 1486.6867 0.0000 0.0000 1772.7702 -7472.5006 301.3337 -9245.2709 -7462.9164 299.7016 424.0214 474.5073 30126.1031 -72.1045 -14.1700
ENERGY: 600000 1.6465 6.6248 15.3500 0.0000 -10688.4182 1514.3001 0.0000 0.0000 1735.1042 -7415.3927 294.9313 -9150.4968 -7447.3567 299.6270 881.3175 945.7713 30066.2206 62.6718 124.5965
ENERGY: 900000 1.2519 7.1424 15.6828 0.0000 -10643.1780 1507.2572 0.0000 0.0000 1768.8278 -7343.0160 300.6636 -9111.8438 -7439.1297 300.0957 756.9918 861.8943 30474.6134 124.6871 186.0182
ENERGY: 1200000 1.4802 5.0484 17.5617 0.0000 -10580.2410 1367.2285 0.0000 0.0000 1738.8740 -7450.0482 295.5721 -9188.9222 -7452.6388 299.9640 -630.3174 -560.1546 30800.8260 99.7498 159.4239
ENERGY: 1500000 1.9829 6.5562 15.0240 0.0000 -10596.8363 1397.5293 0.0000 0.0000 1780.2132 -7395.5308 302.5989 -9175.7440 -7444.6986 300.7553 -243.4609 -143.1681 30537.3266 93.1825 155.6564
TCL: Running FEP window  10: Lambda1 0.5499999999999996 Lambda2 0.4999999999999996 [dLambda -0.04999999999999999]
TCL: Setting parameter firsttimestep to 0
TCL: Setting parameter alchLambda to 0.5499999999999996
Info: NONBONDED TABLE R-SQUARED SPACING: 0.0625
Info: NONBONDED TABLE SIZE: 705 POINTS
TCL: Setting parameter alchLambda2 to 0.4999999999999996
Info: NONBONDED TABLE R-SQUARED SPACING: 0.0625
Info: NONBONDED TABLE SIZE: 705 POINTS
TCL: Running for 1500000 steps
ETITLE: TS BOND ANGLE DIHED IMPRP ELECT VDW BOUNDARY MISC KINETIC TOTAL TEMP POTENTIAL TOTALAVG TEMPAVG PRESSURE GPRESSURE VOLUME PRESSAVG GPRESSAVG
ENERGY: 0 1.9829 6.5562 15.0240 0.0000 -10596.6465 1398.0896 0.0000 0.0000 1779.3368 -7395.6571 302.4499 -9174.9939 -7395.6571 302.4499 -234.2573 -146.7708 30537.3266 -234.2573 -146.7708
ENERGY: 300000 4.8497 4.8026 14.6582 0.0000 -10614.0731 1419.7789 0.0000 0.0000 1802.6698 -7367.3139 306.4160 -9169.9837 -7402.6722 301.1924 -136.2452 -56.9810 30701.5139 -309.8463 -225.5080
ENERGY: 600000 1.6830 5.2178 17.0983 0.0000 -10771.7556 1483.5458 0.0000 0.0000 1708.4435 -7555.7672 290.3996 -9264.2107 -7426.1550 301.3806 -132.9866 41.8943 30790.7296 -165.1627 -70.6417
ENERGY: 900000 2.2844 5.0318 20.0968 0.0000 -10728.1934 1440.3162 0.0000 0.0000 1743.4193 -7517.0449 296.3447 -9260.4642 -7450.9699 299.8759 -356.1312 -280.2567 30840.7969 -64.4451 31.7156
ENERGY: 1200000 0.7289 7.3163 15.1758 0.0000 -10767.9955 1471.6368 0.0000 0.0000 1841.4904 -7431.6473 313.0147 -9273.1377 -7458.2230 300.0347 179.2963 237.2961 30504.6055 -94.6930 -13.1325
ENERGY: 1500000 3.3626 10.5377 13.2707 0.0000 -10860.6438 1558.4492 0.0000 0.0000 1758.1773 -7516.8463 298.8533 -9275.0236 -7458.9689 299.8128 949.2055 1003.2990 30018.7231 -77.8799 -4.3488
TCL: Running FEP window  11: Lambda1 0.4999999999999996 Lambda2 0.4499999999999996 [dLambda -0.04999999999999999]
TCL: Setting parameter firsttimestep to 0
TCL: Setting parameter alchLambda to 0.4999999999999996
Info: NONBONDED TABLE R-SQUARED SPACING: 0.0625
Info: NONBONDED TABLE SIZE: 705 POINTS
TCL: Setting parameter alchLambda2 to 0.4499999999999996
Info: NONBONDED TABLE R-SQUARED SPACING: 0.0625
Info: NONBONDED TABLE SIZE: 705 POINTS
TCL: Running for 1500000 steps
ETITLE: TS BOND ANGLE DIHED IMPRP ELECT VDW BOUNDARY MISC KINETIC TOTAL TEMP POTENTIAL TOTALAVG TEMPAVG PRESSURE GPRESSURE VOLUME PRESSAVG GPRESSAVG
ENERGY: 0 3.3626 10.5377 13.2707 0.0000 -10860.2698 1559.0121 0.0000 0.0000 1757.3576 -7516.7290 298.7139 -9274.0866 -7516.7290 298.7139 921.6188 1002.8751 30018.7231 921.6188 1002.8751
ENERGY: 300000 1.8453 7.6551 18.2681 0.0000 -10517.4886 1339.4983 0.0000 0.0000 1799.0082 -7351.2135 305.7937 -9150.2218 -7469.2606 298.2524 -693.7397 -615.9477 31036.8750 110.9651 172.0197
ENERGY: 600000 4.0014 4.8371 16.4293 0.0000 -10783.6723 1483.8673 0.0000 0.0000 1758.4624 -7516.0748 298.9017 -9274.5372 -7481.2340 299.1284 120.3655 145.2052 30560.3972 -40.7665 18.1076
ENERGY: 900000 4.4235 9.2232 17.0197 0.0000 -10725.0025 1411.0498 0.0000 0.0000 1791.6427 -7491.6437 304.5417 -9283.2863 -7463.8793 300.3102 -288.5902 -294.2920 30144.6988 -40.7349 19.6235
ENERGY: 1200000 4.2425 5.5918 13.3967 0.0000 -10526.0668 1343.0883 0.0000 0.0000 1766.8246 -7392.9229 300.3231 -9159.7475 -7451.0874 300.1076 -684.0917 -643.7620 30746.8843 -12.4419 44.2292
ENERGY: 1500000 1.6487 9.5802 14.4947 0.0000 -10689.0661 1428.9518 0.0000 0.0000 1821.3809 -7413.0099 309.5965 -9234.3908 -7448.1930 300.9802 -74.3444 -17.3107 30520.9727 -39.5910 18.7069
TCL: Running FEP window  12: Lambda1 0.4499999999999996 Lambda2 0.39999999999999963 [dLambda -0.04999999999999999]
TCL: Setting parameter firsttimestep to 0
TCL: Setting parameter alchLambda to 0.4499999999999996
Info: NONBONDED TABLE R-SQUARED SPACING: 0.0625
Info: NONBONDED TABLE SIZE: 705 POINTS
TCL: Setting parameter alchLambda2 to 0.39999999999999963
Info: NONBONDED TABLE R-SQUARED SPACING: 0.0625
Info: NONBONDED TABLE SIZE: 705 POINTS
TCL: Running for 1500000 steps
ETITLE: TS BOND ANGLE DIHED IMPRP ELECT VDW BOUNDARY MISC KINETIC TOTAL TEMP POTENTIAL TOTALAVG TEMPAVG PRESSURE GPRESSURE VOLUME PRESSAVG GPRESSAVG
ENERGY: 0 1.6487 9.5802 14.4947 0.0000 -10689.0622 1428.5966 0.0000 0.0000 1820.5069 -7414.2350 309.4480 -9234.7419 -7414.2350 309.4480 -115.9981 -26.4407 30520.9727 -115.9981 -26.4407
ENERGY: 300000 2.3973 6.6792 15.6224 0.0000 -10776.3425 1477.0020 0.0000 0.0000 1737.3761 -7537.2656 295.3175 -9274.6416 -7475.1635 300.8905 -161.3692 -81.2368 30309.1970 65.9233 106.4300
ENERGY: 600000 1.7270 4.2642 15.5363 0.0000 -10647.8649 1373.5603 0.0000 0.0000 1802.7445 -7450.0326 306.4287 -9252.7771 -7471.8297 301.3493 -444.3061 -390.8202 30186.5978 72.6953 130.9930
ENERGY: 900000 0.6614 2.2030 15.1860 0.0000 -10619.1933 1370.8236 0.0000 0.0000 1759.0404 -7471.2789 299.0000 -9230.3193 -7469.7858 301.1771 -703.8995 -644.7369 30701.7791 -59.7132 -3.3921
ENERGY: 1200000 1.4404 7.4372 16.6814 0.0000 -10656.4707 1456.4983 0.0000 0.0000 1738.3307 -7436.0826 295.4798 -9174.4134 -7466.5448 300.4914 107.1538 230.0767 30698.3188 -11.4477 51.8846
ENERGY: 1500000 1.9563 4.1872 15.3555 0.0000 -10749.1801 1520.6642 0.0000 0.0000 1781.7446 -7425.2724 302.8592 -9207.0169 -7464.9372 301.2870 1016.2590 1032.3084 29904.8136 9.9088 69.0224
TCL: Running FEP window  13: Lambda1 0.39999999999999963 Lambda2 0.34999999999999964 [dLambda -0.04999999999999999]
TCL: Setting parameter firsttimestep to 0
TCL: Setting parameter alchLambda to 0.39999999999999963
Info: NONBONDED TABLE R-SQUARED SPACING: 0.0625
Info: NONBONDED TABLE SIZE: 705 POINTS
TCL: Setting parameter alchLambda2 to 0.34999999999999964
Info: NONBONDED TABLE R-SQUARED SPACING: 0.0625
Info: NONBONDED TABLE SIZE: 705 POINTS
TCL: Running for 1500000 steps
ETITLE: TS BOND ANGLE DIHED IMPRP ELECT VDW BOUNDARY MISC KINETIC TOTAL TEMP POTENTIAL TOTALAVG TEMPAVG PRESSURE GPRESSURE VOLUME PRESSAVG GPRESSAVG
ENERGY: 0 1.9563 4.1872 15.3555 0.0000 -10749.1799 1520.5415 0.0000 0.0000 1780.8688 -7426.2707 302.7103 -9207.1395 -7426.2707 302.7103 942.8995 1026.1731 29904.8136 942.8995 1026.1731
ENERGY: 300000 1.2820 4.9247 17.2542 0.0000 -10694.7880 1458.5817 0.0000 0.0000 1756.7756 -7455.9699 298.6150 -9212.7455 -7463.4719 298.6603 86.1088 183.7514 30387.2117 245.6595 314.7984
ENERGY: 600000 2.2957 6.6187 16.2717 0.0000 -10622.1407 1425.6819 0.0000 0.0000 1741.8080 -7429.4647 296.0708 -9171.2727 -7467.8187 299.6751 193.1203 215.8359 30018.8780 218.8148 276.8922
ENERGY: 900000 2.3813 7.1310 20.6469 0.0000 -10838.4329 1498.5066 0.0000 0.0000 1777.4242 -7532.3429 302.1248 -9309.7671 -7465.9344 301.0475 459.3744 488.2559 29959.9144 210.1139 264.1943
ENERGY: 1200000 2.1051 5.7205 15.8770 0.0000 -10742.7302 1479.7789 0.0000 0.0000 1807.6969 -7431.5519 307.2705 -9239.2488 -7465.7556 301.0942 333.3133 345.8604 30232.6294 168.7670 225.0055
ENERGY: 1500000 3.2467 7.5014 13.7119 0.0000 -10708.8936 1381.9736 0.0000 0.0000 1782.1099 -7520.3501 302.9213 -9302.4601 -7463.0604 301.3475 -505.1940 -394.8804 29905.6534 137.2198 203.2193
TCL: Running FEP window  14: Lambda1 0.34999999999999964 Lambda2 0.29999999999999966 [dLambda -0.04999999999999999]
TCL: Setting parameter firsttimestep to 0
TCL: Setting parameter alchLambda to 0.34999999999999964
Info: NONBONDED TABLE R-SQUARED SPACING: 0.0625
Info: NONBONDED TABLE SIZE: 705 POINTS
TCL: Setting parameter alchLambda2 to 0.29999999999999966
Info: NONBONDED TABLE R-SQUARED SPACING: 0.0625
Info: NONBONDED TABLE SIZE: 705 POINTS
TCL: Running for 1500000 steps
ETITLE: TS BOND ANGLE DIHED IMPRP ELECT VDW BOUNDARY MISC KINETIC TOTAL TEMP POTENTIAL TOTALAVG TEMPAVG PRESSURE GPRESSURE VOLUME PRESSAVG GPRESSAVG
ENERGY: 0 3.2467 7.5014 13.7119 0.0000 -10708.8947 1382.6188 0.0000 0.0000 1781.2186 -7520.5975 302.7698 -9301.8161 -7520.5975 302.7698 -473.5471 -392.9974 29905.6534 -473.5471 -392.9974
ENERGY: 300000 4.0863 6.4894 16.8148 0.0000 -10738.8541 1455.2605 0.0000 0.0000 1745.0618 -7511.1413 296.6239 -9256.2031 -7446.0467 305.0096 -362.7206 -308.0573 30927.0614 0.8608 49.4277
ENERGY: 600000 5.8724 5.3053 16.5375 0.0000 -10691.3858 1442.5098 0.0000 0.0000 1738.7075 -7482.4533 295.5438 -9221.1608 -7452.4997 302.9295 -198.4601 -150.3147 30646.1258 -229.8263 -181.3769
ENERGY: 900000 2.2746 5.5760 12.1008 0.0000 -10594.6655 1377.4334 0.0000 0.0000 1727.8322 -7469.4485 293.6952 -9197.2807 -7472.1023 299.7243 -650.0025 -546.1504 30719.7094 -210.1403 -158.2159
ENERGY: 1200000 3.2347 7.1512 17.3501 0.0000 -10654.7197 1381.5587 0.0000 0.0000 1799.0694 -7446.3555 305.8041 -9245.4249 -7468.0532 299.8207 -413.1718 -374.4553 30412.2953 -189.5059 -143.5803
ENERGY: 1500000 2.4958 4.7623 14.6571 0.0000 -10700.6459 1368.9334 0.0000 0.0000 1749.2783 -7560.5191 297.3406 -9309.7973 -7467.0596 299.8166 -805.2427 -776.6109 30148.4412 -227.8781 -186.4040
TCL: Running FEP window  15: Lambda1 0.29999999999999966 Lambda2 0.24999999999999967 [dLambda -0.04999999999999999]
TCL: Setting parameter firsttimestep to 0
TCL: Setting parameter alchLambda to 0.29999999999999966
Info: NONBONDED TABLE R-SQUARED SPACING: 0.0625
Info: NONBONDED TABLE SIZE: 705 POINTS
TCL: Setting parameter alchLambda2 to 0.24999999999999967
Info: NONBONDED TABLE R-SQUARED SPACING: 0.0625
Info: NONBONDED TABLE SIZE: 705 POINTS
TCL: Running for 1500000 steps
ETITLE: TS BOND ANGLE DIHED IMPRP ELECT VDW BOUNDARY MISC KINETIC TOTAL TEMP POTENTIAL TOTALAVG TEMPAVG PRESSURE GPRESSURE VOLUME PRESSAVG GPRESSAVG
ENERGY: 0 2.4958 4.7623 14.6571 0.0000 -10700.6467 1369.4821 0.0000 0.0000 1748.4000 -7560.8495 297.1913 -9309.2494 -7560.8495 297.1913 -858.1828 -777.3288 30148.4412 -858.1828 -777.3288
ENERGY: 300000 3.7851 6.0177 10.6325 0.0000 -10658.3308 1475.3692 0.0000 0.0000 1759.2508 -7403.2756 299.0357 -9162.5264 -7474.0023 299.5294 352.4187 426.1509 30377.7683 -293.1881 -250.5747
ENERGY: 600000 4.2057 8.9891 17.0834 0.0000 -10757.7472 1495.0213 0.0000 0.0000 1764.2644 -7468.1833 299.8879 -9232.4477 -7488.9854 298.7771 424.9263 467.3310 29934.0687 -125.5654 -74.6919
ENERGY: 900000 4.1325 6.7676 13.2219 0.0000 -10529.5217 1375.5271 0.0000 0.0000 1769.0228 -7360.8498 300.6968 -9129.8726 -7476.0844 298.6196 -156.8108 -82.2600 30242.7322 -251.6638 -200.5917
ENERGY: 1200000 2.5232 4.9463 20.7551 0.0000 -10663.4716 1442.1193 0.0000 0.0000 1750.6401 -7442.4876 297.5721 -9193.1277 -7478.4403 298.3709 109.6984 171.9221 30600.1813 -82.3517 -40.7449
ENERGY: 1500000 4.8349 7.0629 15.0903 0.0000 -10576.0053 1365.6957 0.0000 0.0000 1760.4932 -7422.8284 299.2469 -9183.3216 -7473.3949 298.3253 -819.1374 -738.7907 30791.1590 -120.8024 -73.2728
TCL: Running FEP window  16: Lambda1 0.24999999999999967 Lambda2 0.19999999999999968 [dLambda -0.04999999999999999]
TCL: Setting parameter firsttimestep to 0
TCL: Setting parameter alchLambda to 0.24999999999999967
Info: NONBONDED TABLE R-SQUARED SPACING: 0.0625
Info: NONBONDED TABLE SIZE: 705 POINTS
TCL: Setting parameter alchLambda2 to 0.19999999999999968
Info: NONBONDED TABLE R-SQUARED SPACING: 0.0625
Info: NONBONDED TABLE SIZE: 705 POINTS
TCL: Running for 1500000 steps
ETITLE: TS BOND ANGLE DIHED IMPRP ELECT VDW BOUNDARY MISC KINETIC TOTAL TEMP POTENTIAL TOTALAVG TEMPAVG PRESSURE GPRESSURE VOLUME PRESSAVG GPRESSAVG
ENERGY: 0 4.8349 7.0629 15.0903 0.0000 -10576.0048 1365.7550 0.0000 0.0000 1759.6138 -7423.6480 299.0974 -9183.2618 -7423.6480 299.0974 -826.2961 -744.9792 30791.1590 -826.2961 -744.9792
ENERGY: 300000 2.0701 3.5622 18.6112 0.0000 -10539.7325 1384.5774 0.0000 0.0000 1808.9526 -7321.9590 307.4840 -9130.9117 -7440.1711 300.9632 -283.1761 -183.7351 30580.2752 59.5490 129.8730
ENERGY: 600000 1.5636 4.0517 14.4018 0.0000 -10683.5618 1437.1121 0.0000 0.0000 1795.7546 -7430.6780 305.2406 -9226.4326 -7434.5477 301.5985 -135.8091 -71.9350 30565.2655 -35.6490 22.5793
ENERGY: 900000 2.2807 6.8059 16.2774 0.0000 -10689.5528 1461.3490 0.0000 0.0000 1827.3038 -7375.5360 310.6033 -9202.8398 -7433.6446 303.1774 153.3119 219.2632 30636.1558 -81.6659 -19.5726
ENERGY: 1200000 1.8284 5.3545 12.3928 0.0000 -10777.1710 1510.5593 0.0000 0.0000 1782.3108 -7464.7253 302.9554 -9247.0360 -7442.2131 302.5484 430.8533 486.1417 30354.8708 32.4922 89.0069
ENERGY: 1500000 1.4732 6.8688 15.1164 0.0000 -10818.8163 1472.5119 0.0000 0.0000 1786.6702 -7536.1758 303.6965 -9322.8460 -7459.8354 302.5429 -310.0145 -183.5197 30612.4177 58.4525 122.8955
TCL: Running FEP window  17: Lambda1 0.19999999999999968 Lambda2 0.1499999999999997 [dLambda -0.04999999999999999]
TCL: Setting parameter firsttimestep to 0
TCL: Setting parameter alchLambda to 0.19999999999999968
Info: NONBONDED TABLE R-SQUARED SPACING: 0.0625
Info: NONBONDED TABLE SIZE: 705 POINTS
TCL: Setting parameter alchLambda2 to 0.1499999999999997
Info: NONBONDED TABLE R-SQUARED SPACING: 0.0625
Info: NONBONDED TABLE SIZE: 705 POINTS
TCL: Running for 1500000 steps
ETITLE: TS BOND ANGLE DIHED IMPRP ELECT VDW BOUNDARY MISC KINETIC TOTAL TEMP POTENTIAL TOTALAVG TEMPAVG PRESSURE GPRESSURE VOLUME PRESSAVG GPRESSAVG
ENERGY: 0 1.4732 6.8688 15.1164 0.0000 -10818.8170 1472.5452 0.0000 0.0000 1785.7994 -7537.0138 303.5484 -9322.8133 -7537.0138 303.5484 -261.3720 -187.6632 30612.4177 -261.3720 -187.6632
ENERGY: 300000 2.9548 4.8825 13.8989 0.0000 -10769.3041 1514.8497 0.0000 0.0000 1809.7335 -7422.9848 307.6167 -9232.7182 -7464.5767 305.3614 538.3112 559.8335 30174.8993 -77.2641 -23.9572
ENERGY: 600000 2.8174 2.9282 14.5458 0.0000 -10566.0800 1341.9545 0.0000 0.0000 1763.7254 -7440.1087 299.7963 -9203.8341 -7447.4753 303.8526 -1064.5072 -957.7422 30839.6454 -306.7840 -254.7194
ENERGY: 900000 1.8240 7.9194 15.6502 0.0000 -10702.1918 1472.8967 0.0000 0.0000 1758.6842 -7445.2173 298.9394 -9203.9016 -7455.7825 302.9363 251.2201 290.8827 30377.4032 -187.0923 -139.1730
ENERGY: 1200000 3.5696 8.2729 14.2031 0.0000 -10668.6285 1426.5816 0.0000 0.0000 1766.3556 -7449.6457 300.2434 -9216.0012 -7454.2053 302.7525 -264.4260 -149.8712 30281.9379 -149.1629 -98.9281
ENERGY: 1500000 5.5588 3.5786 16.1647 0.0000 -10613.7865 1385.5150 0.0000 0.0000 1787.2418 -7415.7276 303.7936 -9202.9694 -7449.3536 302.8936 -359.1815 -316.6570 30630.2737 -96.8985 -48.0907
TCL: Running FEP window  18: Lambda1 0.1499999999999997 Lambda2 0.09999999999999969 [dLambda -0.05 ]
TCL: Setting parameter firsttimestep to 0
TCL: Setting parameter alchLambda to 0.1499999999999997
Info: NONBONDED TABLE R-SQUARED SPACING: 0.0625
Info: NONBONDED TABLE SIZE: 705 POINTS
TCL: Setting parameter alchLambda2 to 0.09999999999999969
Info: NONBONDED TABLE R-SQUARED SPACING: 0.0625
Info: NONBONDED TABLE SIZE: 705 POINTS
TCL: Running for 1500000 steps
ETITLE: TS BOND ANGLE DIHED IMPRP ELECT VDW BOUNDARY MISC KINETIC TOTAL TEMP POTENTIAL TOTALAVG TEMPAVG PRESSURE GPRESSURE VOLUME PRESSAVG GPRESSAVG
ENERGY: 0 5.5588 3.5786 16.1647 0.0000 -10613.7850 1385.7933 0.0000 0.0000 1786.3543 -7416.3352 303.6428 -9202.6895 -7416.3352 303.6428 -398.3890 -319.0519 30630.2737 -398.3890 -319.0519
ENERGY: 300000 1.8061 3.4616 12.9308 0.0000 -10733.9806 1483.3804 0.0000 0.0000 1736.8319 -7495.5697 295.2250 -9232.4016 -7440.4939 300.6415 353.5323 512.8544 30063.1376 -170.7433 -86.9605
ENERGY: 600000 3.4586 5.7301 16.6783 0.0000 -10771.3583 1485.6534 0.0000 0.0000 1829.6807 -7430.1573 311.0073 -9259.8380 -7439.2671 302.0407 53.6150 155.5695 30521.7862 -145.1812 -75.4156
ENERGY: 900000 3.6413 6.2419 16.8596 0.0000 -10644.4594 1424.8136 0.0000 0.0000 1758.4793 -7434.4237 298.9046 -9192.9030 -7425.5470 301.5652 -262.4944 -221.3119 30508.4774 -120.7936 -55.8459
ENERGY: 1200000 2.0652 3.3174 17.3164 0.0000 -10694.9548 1392.6655 0.0000 0.0000 1717.6469 -7561.9435 291.9639 -9279.5904 -7440.3903 300.4530 -741.2239 -696.7786 30433.2417 -167.5743 -100.8111
ENERGY: 1500000 2.9951 4.7427 17.5481 0.0000 -10662.1434 1380.1526 0.0000 0.0000 1805.8430 -7450.8620 306.9554 -9256.7051 -7449.7073 300.4820 -502.3909 -465.1796 30137.7276 -161.2464 -92.1566
TCL: Running FEP window  19: Lambda1 0.09999999999999969 Lambda2 0.049999999999999684 [dLambda -0.05 ]
TCL: Setting parameter firsttimestep to 0
TCL: Setting parameter alchLambda to 0.09999999999999969
Info: NONBONDED TABLE R-SQUARED SPACING: 0.0625
Info: NONBONDED TABLE SIZE: 705 POINTS
TCL: Setting parameter alchLambda2 to 0.049999999999999684
Info: NONBONDED TABLE R-SQUARED SPACING: 0.0625
Info: NONBONDED TABLE SIZE: 705 POINTS
TCL: Running for 1500000 steps
ETITLE: TS BOND ANGLE DIHED IMPRP ELECT VDW BOUNDARY MISC KINETIC TOTAL TEMP POTENTIAL TOTALAVG TEMPAVG PRESSURE GPRESSURE VOLUME PRESSAVG GPRESSAVG
ENERGY: 0 2.9951 4.7427 17.5481 0.0000 -10662.1431 1379.8227 0.0000 0.0000 1804.9318 -7452.1029 306.8005 -9257.0346 -7452.1029 306.8005 -542.4823 -467.3491 30137.7276 -542.4823 -467.3491
ENERGY: 300000 0.9306 3.4521 17.8067 0.0000 -10653.7492 1374.7493 0.0000 0.0000 1820.1471 -7436.6633 309.3868 -9256.8104 -7448.7192 306.1749 -697.4542 -607.2111 30623.5228 -450.7899 -375.4876
ENERGY: 600000 2.9484 5.4784 16.8165 0.0000 -10608.1756 1367.7452 0.0000 0.0000 1831.2329 -7383.9542 311.2712 -9215.1871 -7426.4853 305.8954 -575.9659 -566.8807 30580.2625 -510.4175 -448.4050
ENERGY: 900000 2.3963 6.3772 16.9322 0.0000 -10690.3516 1421.3749 0.0000 0.0000 1824.8587 -7418.4125 310.1877 -9243.2711 -7437.4008 303.8099 -143.1664 -97.2913 30035.8980 -513.1386 -452.8037
ENERGY: 1200000 1.8891 9.2195 13.6600 0.0000 -10671.4152 1438.5293 0.0000 0.0000 1732.4665 -7475.6508 294.4830 -9208.1173 -7433.7748 302.7509 -63.1547 -7.4647 30312.1757 -418.0403 -355.6032
ENERGY: 1500000 0.8935 6.6032 13.5459 0.0000 -10672.7695 1488.2665 0.0000 0.0000 1757.8221 -7405.6382 298.7929 -9163.4603 -7439.4102 301.6829 606.3759 674.2889 30301.3522 -236.0989 -170.8110
TCL: Running FEP window  20: Lambda1 0.049999999999999684 Lambda2 0.0    [dLambda -0.049999999999999684]
TCL: Setting parameter firsttimestep to 0
TCL: Setting parameter alchLambda to 0.049999999999999684
Info: NONBONDED TABLE R-SQUARED SPACING: 0.0625
Info: NONBONDED TABLE SIZE: 705 POINTS
TCL: Setting parameter alchLambda2 to 0.0
Info: NONBONDED TABLE R-SQUARED SPACING: 0.0625
Info: NONBONDED TABLE SIZE: 705 POINTS
TCL: Running for 1500000 steps
ETITLE: TS BOND ANGLE DIHED IMPRP ELECT VDW BOUNDARY MISC KINETIC TOTAL TEMP POTENTIAL TOTALAVG TEMPAVG PRESSURE GPRESSURE VOLUME PRESSAVG GPRESSAVG
ENERGY: 0 0.8935 6.6032 13.5459 0.0000 -10672.7702 1487.9645 0.0000 0.0000 1756.9458 -7406.8174 298.6439 -9163.7631 -7406.8174 298.6439 583.7090 670.0584 30301.3522 583.7090 670.0584
ENERGY: 300000 2.5762 4.3698 15.9442 0.0000 -10763.3726 1455.9464 0.0000 0.0000 1788.9444 -7495.5917 304.0830 -9284.5361 -7471.6799 301.5913 -98.7749 -25.6364 30252.8611 -10.7419 69.4102
ENERGY: 600000 2.9336 2.6786 17.7468 0.0000 -10732.5476 1477.5666 0.0000 0.0000 1744.6944 -7486.9275 296.5614 -9231.6219 -7482.0481 299.8666 186.8881 227.2572 30189.5026 -40.9395 22.5179
ENERGY: 900000 1.3571 3.7878 16.4891 0.0000 -10811.9704 1517.9656 0.0000 0.0000 1773.8366 -7498.5342 301.5150 -9272.3708 -7477.2036 300.3450 563.8763 623.2790 30026.3210 129.4010 184.6590
ENERGY: 1200000 2.7445 5.8902 15.3387 0.0000 -10784.1505 1459.6651 0.0000 0.0000 1766.5138 -7533.9983 300.2703 -9300.5121 -7475.9311 299.6621 -247.5911 -138.2130 30172.1033 -2.7519 60.4400
ENERGY: 1500000 3.4410 6.5179 16.4915 0.0000 -10825.0943 1496.9209 0.0000 0.0000 1763.5708 -7538.1522 299.7700 -9301.7230 -7471.2918 300.8259 -183.0805 -185.9688 30693.4235 -88.7584 -27.3725
TCL: Exiting due to exit command.
