Info: SIMULATION PARAMETERS:
Info: TIMESTEP               2
Info: NUMBER OF STEPS        0
Info: STEPS PER CYCLE        10
Info: PERIODIC CELL BASIS 1  32.1458 0 0
Info: PERIODIC CELL BASIS 2  0 30.0971 0
Info: PERIODIC CELL BASIS 3  0 0 31.313
Info: PERIODIC CELL CENTER   0 0 0
Info: WRAPPING WATERS AROUND PERIODIC BOUNDARIES ON OUTPUT.
Info: WRAPPING ALL CLUSTERS AROUND PERIODIC BOUNDARIES ON OUTPUT.
Info: FIRST LDB TIMESTEP     50
Info: LAST LDB TIMESTEP     -1
Info: HOM BACKGROUND SCALING 1
Info: PME BACKGROUND SCALING 1
Info: MIN ATOMS PER PATCH    40
Info: EMPTY PATCH LOAD       40 ATOMS
Info: VELOCITY FILE          mobley_2929847_equil.vel
Info: CENTER OF MASS MOVING INITIALLY? NO
Info: DIELECTRIC             1
Info: EXCLUDE                SCALED ONE-FOUR
Info: 1-4 ELECTROSTATICS SCALED BY 0.833333
Info: MODIFIED 1-4 VDW PARAMETERS WILL BE USED
Info: DCD FILENAME           mobley_2929847_prod.dcd
Info: DCD FREQUENCY          100000
Info: DCD FIRST STEP         100000
Info: DCD FILE WILL CONTAIN UNIT CELL DATA
Info: XST FILENAME           mobley_2929847_prod.xst
Info: XST FREQUENCY          100000
Info: NO VELOCITY DCD OUTPUT
Info: NO FORCE DCD OUTPUT
Info: OUTPUT FILENAME        mobley_2929847_prod
Info: BINARY OUTPUT FILES WILL BE USED
Info: RESTART FILENAME       mobley_2929847_prod.restart
Info: RESTART FREQUENCY      100000
Info: BINARY RESTART FILES WILL BE USED
Info: CUTOFF                 9
Info: PAIRLIST DISTANCE      11
Info: PAIRLIST SHRINK RATE   0.01
Info: PAIRLIST GROW RATE     0.01
Info: PAIRLIST TRIGGER       0.3
Info: PAIRLISTS PER CYCLE    2
Info: PAIRLISTS ENABLED
Info: MARGIN                 2
Info: HYDROGEN GROUP CUTOFF  2.5
Info: PATCH DIMENSION        15.5
Info: ENERGY OUTPUT STEPS    100000
Info: ENERGY EVALUATION STEPS    100000
Info: OUTPUT ENERGY PRECISION 4
Info: CROSSTERM ENERGY INCLUDED IN DIHEDRAL
Info: TIMING OUTPUT STEPS    1000000
Info: PRESSURE OUTPUT STEPS  100000
Info: ALCHEMICAL FEP ON
Info: FEP CURRENT LAMBDA VALUE     1
Info: FEP COMPARISON LAMBDA VALUE  0.95
Info: FEP INTRA-ALCHEMICAL NON-BONDED INTERACTIONS WILL BE RETAINED
Info: FEP INTRA-ALCHEMICAL BONDED INTERACTIONS WILL BE RETAINED
Info: FEP VDW SHIFTING COEFFICIENT 5
Info: FEP ELEC. ACTIVE FOR ANNIHILATED PARTICLES BETWEEN LAMBDA = 0 AND LAMBDA = 0.5
Info: FEP ELEC. ACTIVE FOR EXNIHILATED PARTICLES BETWEEN LAMBDA = 0.5 AND LAMBDA = 1
Info: FEP VDW ACTIVE FOR ANNIHILATED PARTICLES BETWEEN LAMBDA = 0 AND LAMBDA = 1
Info: FEP VDW ACTIVE FOR EXNIHILATED PARTICLES BETWEEN LAMBDA = 0 AND LAMBDA = 1
Info: FEP BOND ACTIVE FOR ANNIHILATED PARTICLES BETWEEN LAMBDA = 1 AND LAMBDA = 1
Info: FEP BOND ACTIVE FOR EXNIHILATED PARTICLES BETWEEN LAMBDA = 0 AND LAMBDA = 0
Info: LANGEVIN DYNAMICS ACTIVE
Info: LANGEVIN TEMPERATURE   300
Info: LANGEVIN USING BBK INTEGRATOR
Info: LANGEVIN DAMPING COEFFICIENT IS 1 INVERSE PS
Info: LANGEVIN DYNAMICS APPLIED TO HYDROGENS
Info: LANGEVIN PISTON PRESSURE CONTROL ACTIVE
Info:        TARGET PRESSURE IS 1.01325 BAR
Info:     OSCILLATION PERIOD IS 50 FS
Info:             DECAY TIME IS 25 FS
Info:     PISTON TEMPERATURE IS 300 K
Info:       PRESSURE CONTROL IS GROUP-BASED
Info:    INITIAL STRAIN RATE IS -0.000237688 -0.000237688 -0.000237688
Info:       CELL FLUCTUATION IS ISOTROPIC
Info: PARTICLE MESH EWALD (PME) ACTIVE
Info: PME TOLERANCE               1e-06
Info: PME EWALD COEFFICIENT       0.348832
Info: PME INTERPOLATION ORDER     4
Info: PME GRID DIMENSIONS         36 32 32
Info: PME MAXIMUM GRID SPACING    1
Info: PME CALCULATION WILL BE PERFORMED ON GPU
Info: FULL ELECTROSTATIC EVALUATION FREQUENCY      2
Info: USING VERLET I (r-RESPA) MTS SCHEME.
Info: C1 SPLITTING OF LONG RANGE ELECTROSTATICS
Info: PLACING ATOMS IN PATCHES BY HYDROGEN GROUPS
Info: RIGID BONDS TO HYDROGEN : ALL
Info:         ERROR TOLERANCE : 1e-08
Info:          MAX ITERATIONS : 100
Info: RIGID WATER USING SETTLE ALGORITHM
Info: RANDOM NUMBER SEED     1743847321
Info: USE HYDROGEN BONDS?    NO
Info: Using AMBER format force field!
Info: AMBER PARM FILE        mobley_2929847.prmtop
Info: COORDINATE PDB         mobley_2929847.pdb
Info: Exclusions will be read from PARM file!
Info: SCNB (VDW SCALING)     2
Info: USING ARITHMETIC MEAN TO COMBINE L-J SIGMA PARAMETERS
Info: BINARY COORDINATES     mobley_2929847_equil.coor
Info: SUMMARY OF PARAMETERS:
Info: 8 BONDS
Info: 9 ANGLES
Info:   9 HARMONIC
Info:   0 COSINE-BASED
Info: 10 DIHEDRAL
Info: 0 IMPROPER
Info: 0 CROSSTERM
Info: 0 VDW
Info: 28 VDW_PAIRS
Info: 0 NBTHOLE_PAIRS
Info: To read alchdata from file: mobley_2929847.pdb
Info: To read alchflag data from column: 5
Info: STRUCTURE SUMMARY:
Info: 2957 ATOMS
Info: 2956 BONDS
Info: 28 ANGLES
Info: 41 DIHEDRALS
Info: 0 IMPROPERS
Info: 0 CROSSTERMS
Info: 3019 EXCLUSIONS
Info: 2950 RIGID BONDS
Info: ALCH: 0 ATOMS TO DISAPPEAR IN FINAL STATE
Info: ALCH: 17 ATOMS TO APPEAR IN FINAL STATE
Info: 5921 DEGREES OF FREEDOM
Info: 987 HYDROGEN GROUPS
Info: 4 ATOMS IN LARGEST HYDROGEN GROUP
Info: 987 MIGRATION GROUPS
Info: 4 ATOMS IN LARGEST MIGRATION GROUP
Info: TOTAL MASS = 17757.8 amu
Info: TOTAL CHARGE = 0.000100002 e
Info: MASS DENSITY = 0.973364 g/cm^3
Info: ATOM DENSITY = 0.0976063 atoms/A^3
Info: ADDED 0 IMPLICIT EXCLUSIONS
Info: NONBONDED TABLE R-SQUARED SPACING: 0.0625
Info: NONBONDED TABLE SIZE: 705 POINTS
Info: REMOVING COM VELOCITY 0.0758472 -0.00420765 0.178863
Info: Use 3D box decompostion in PME FFT.
Info: Updated CUDA force table with 4096 elements.
Info: Updated CUDA LJ table with 7 x 7 elements.
Info: Found 20 unique exclusion lists needing 48 bytes
TCL: Running for 1500000 steps
ETITLE: TS BOND ANGLE DIHED IMPRP ELECT VDW BOUNDARY MISC KINETIC TOTAL TEMP POTENTIAL TOTALAVG TEMPAVG PRESSURE GPRESSURE VOLUME PRESSAVG GPRESSAVG
ENERGY: 0 0.7386 12.0991 3.2460 0.0000 -10910.5804 1504.8518 0.0000 0.0000 1742.8268 -7646.8182 296.2440 -9389.6451 -7646.8182 296.2440 312.6798 400.8285 30295.1781 312.6798 400.8285
ENERGY: 300000 2.8366 9.5905 3.4576 0.0000 -10756.2863 1424.8382 0.0000 0.0000 1805.1874 -7510.3760 306.8440 -9315.5633 -7540.7802 302.1007 -173.4517 -108.8141 30364.7408 -4.9986 53.4392
ENERGY: 600000 1.2946 10.4055 2.3151 0.0000 -10675.4610 1464.2160 0.0000 0.0000 1642.0360 -7555.1938 279.1117 -9197.2298 -7542.7621 296.8300 -10.0493 105.3733 31078.4550 -13.3598 53.0831
ENERGY: 900000 4.8068 7.7769 2.8954 0.0000 -10695.1831 1425.6446 0.0000 0.0000 1716.2456 -7537.8139 291.7257 -9254.0595 -7530.2506 297.8627 -307.9647 -244.1559 31058.3481 -81.2375 -23.0573
ENERGY: 1200000 1.0375 14.5381 3.6735 0.0000 -10740.9566 1456.1269 0.0000 0.0000 1738.2785 -7527.3022 295.4709 -9265.5807 -7519.9046 298.6185 3.0020 19.3379 30901.5692 -86.4629 -26.0784
ENERGY: 1500000 4.4219 9.0216 3.3961 0.0000 -10729.2227 1426.1974 0.0000 0.0000 1767.8296 -7518.3562 300.4940 -9286.1858 -7514.7206 298.8762 -354.4747 -323.5748 30822.6042 -119.3480 -60.2372
TCL: Running FEP window   2: Lambda1 0.95   Lambda2 0.8999999999999999 [dLambda -0.050000000000000044]
TCL: Setting parameter firsttimestep to 0
TCL: Setting parameter alchLambda to 0.95
Info: NONBONDED TABLE R-SQUARED SPACING: 0.0625
Info: NONBONDED TABLE SIZE: 705 POINTS
TCL: Setting parameter alchLambda2 to 0.8999999999999999
Info: NONBONDED TABLE R-SQUARED SPACING: 0.0625
Info: NONBONDED TABLE SIZE: 705 POINTS
TCL: Running for 1500000 steps
ETITLE: TS BOND ANGLE DIHED IMPRP ELECT VDW BOUNDARY MISC KINETIC TOTAL TEMP POTENTIAL TOTALAVG TEMPAVG PRESSURE GPRESSURE VOLUME PRESSAVG GPRESSAVG
ENERGY: 0 4.4219 9.0216 3.3961 0.0000 -10726.6624 1425.6848 0.0000 0.0000 1766.9371 -7517.2011 300.3422 -9284.1382 -7517.2011 300.3422 -412.8505 -337.1689 30822.6042 -412.8505 -337.1689
ENERGY: 300000 1.2790 6.0168 2.4484 0.0000 -10634.8423 1320.7260 0.0000 0.0000 1753.4703 -7550.9018 298.0532 -9304.3721 -7548.8950 299.3938 -1098.0196 -1019.1362 30505.9964 -534.9440 -478.7450
ENERGY: 600000 3.2968 9.4547 4.2265 0.0000 -10830.9845 1534.9163 0.0000 0.0000 1791.1457 -7487.9445 304.4572 -9279.0902 -7539.2532 300.9276 1067.0457 1156.0450 29998.3560 -141.8835 -66.8851
ENERGY: 900000 0.8899 8.5609 2.5660 0.0000 -10675.7920 1426.6243 0.0000 0.0000 1792.3049 -7444.8460 304.6542 -9237.1509 -7533.9174 301.4292 186.7458 250.6040 30374.0128 -70.0459 2.6968
ENERGY: 1200000 1.6320 4.7615 2.0353 0.0000 -10599.2422 1358.4363 0.0000 0.0000 1746.4348 -7485.9424 296.8573 -9232.3773 -7524.1290 301.5445 -456.4864 -420.3432 30552.2437 -66.0563 2.5402
ENERGY: 1500000 2.2435 5.9579 1.6480 0.0000 -10719.5321 1366.6699 0.0000 0.0000 1781.8927 -7561.1201 302.8844 -9343.0128 -7534.4263 301.7138 -346.9032 -362.9442 30258.9553 -85.2090 -20.2470
TCL: Running FEP window   3: Lambda1 0.8999999999999999 Lambda2 0.8499999999999999 [dLambda -0.050000000000000044]
TCL: Setting parameter firsttimestep to 0
TCL: Setting parameter alchLambda to 0.8999999999999999
Info: NONBONDED TABLE R-SQUARED SPACING: 0.0625
Info: NONBONDED TABLE SIZE: 705 POINTS
TCL: Setting parameter alchLambda2 to 0.8499999999999999
Info: NONBONDED TABLE R-SQUARED SPACING: 0.0625
Info: NONBONDED TABLE SIZE: 705 POINTS
TCL: Running for 1500000 steps
ETITLE: TS BOND ANGLE DIHED IMPRP ELECT VDW BOUNDARY MISC KINETIC TOTAL TEMP POTENTIAL TOTALAVG TEMPAVG PRESSURE GPRESSURE VOLUME PRESSAVG GPRESSAVG
ENERGY: 0 2.2435 5.9579 1.6480 0.0000 -10717.0286 1366.1864 0.0000 0.0000 1781.0341 -7559.9588 302.7384 -9340.9928 -7559.9588 302.7384 -447.0443 -372.4076 30258.9553 -447.0443 -372.4076
ENERGY: 300000 1.9980 6.6596 1.5214 0.0000 -10709.9086 1459.4979 0.0000 0.0000 1753.8857 -7486.3460 298.1238 -9240.2317 -7552.9004 298.2093 398.9036 492.9176 30523.3419 -68.1420 -18.8395
ENERGY: 600000 3.5386 5.8039 2.4856 0.0000 -10558.3892 1308.2428 0.0000 0.0000 1751.2102 -7487.1082 297.6690 -9238.3183 -7524.0533 300.1308 -733.7671 -715.0858 30617.1966 -181.2092 -139.7252
ENERGY: 900000 0.1997 4.8773 3.7318 0.0000 -10583.0556 1371.2900 0.0000 0.0000 1792.7877 -7410.1691 304.7363 -9202.9568 -7509.9538 299.9805 -366.8929 -320.7111 30724.3553 -199.2856 -159.1338
ENERGY: 1200000 1.9206 10.4627 4.1700 0.0000 -10660.1432 1371.7564 0.0000 0.0000 1720.9262 -7550.9075 292.5213 -9271.8337 -7519.1916 299.4388 -364.6936 -298.4500 30196.2490 -127.8770 -79.2266
ENERGY: 1500000 1.4457 6.8684 2.1813 0.0000 -10739.1800 1415.1294 0.0000 0.0000 1726.9483 -7586.6068 293.5450 -9313.5551 -7519.6030 299.8185 -406.9541 -387.0366 30866.0085 -103.9344 -53.7087
TCL: Running FEP window   4: Lambda1 0.8499999999999999 Lambda2 0.7999999999999998 [dLambda -0.050000000000000044]
TCL: Setting parameter firsttimestep to 0
TCL: Setting parameter alchLambda to 0.8499999999999999
Info: NONBONDED TABLE R-SQUARED SPACING: 0.0625
Info: NONBONDED TABLE SIZE: 705 POINTS
TCL: Setting parameter alchLambda2 to 0.7999999999999998
Info: NONBONDED TABLE R-SQUARED SPACING: 0.0625
Info: NONBONDED TABLE SIZE: 705 POINTS
TCL: Running for 1500000 steps
ETITLE: TS BOND ANGLE DIHED IMPRP ELECT VDW BOUNDARY MISC KINETIC TOTAL TEMP POTENTIAL TOTALAVG TEMPAVG PRESSURE GPRESSURE VOLUME PRESSAVG GPRESSAVG
ENERGY: 0 1.4457 6.8684 2.1813 0.0000 -10736.8198 1414.4961 0.0000 0.0000 1726.0753 -7585.7529 293.3966 -9311.8283 -7585.7529 293.3966 -481.7467 -399.9364 30866.0085 -481.7467 -399.9364
ENERGY: 300000 3.4006 8.7132 2.4312 0.0000 -10704.4280 1435.6747 0.0000 0.0000 1818.7947 -7435.4136 309.1569 -9254.2083 -7572.5865 296.6751 210.3743 218.8890 30395.7634 -138.2687 -90.2845
ENERGY: 600000 2.5865 9.9977 2.1025 0.0000 -10689.6591 1382.5077 0.0000 0.0000 1786.1009 -7506.3639 303.5997 -9292.4647 -7551.9400 298.1539 -554.5288 -533.9918 30522.7055 -218.2385 -164.7799
ENERGY: 900000 2.4965 6.1047 2.8671 0.0000 -10598.6510 1349.1963 0.0000 0.0000 1777.8777 -7460.1088 302.2019 -9237.9864 -7545.2171 298.5893 -575.3232 -517.6301 30326.5798 -255.8292 -201.4826
ENERGY: 1200000 1.5638 8.5140 3.9826 0.0000 -10725.9101 1453.3071 0.0000 0.0000 1806.1185 -7452.4241 307.0023 -9258.5426 -7536.6600 299.8262 360.1398 419.6862 30042.7004 -150.0422 -97.9336
ENERGY: 1500000 4.8014 4.7432 3.6481 0.0000 -10813.5204 1485.3282 0.0000 0.0000 1741.2796 -7573.7200 295.9810 -9314.9996 -7530.0336 300.3254 177.8611 235.2870 30420.2337 -171.7064 -118.9234
TCL: Running FEP window   5: Lambda1 0.7999999999999998 Lambda2 0.7499999999999998 [dLambda -0.050000000000000044]
TCL: Setting parameter firsttimestep to 0
TCL: Setting parameter alchLambda to 0.7999999999999998
Info: NONBONDED TABLE R-SQUARED SPACING: 0.0625
Info: NONBONDED TABLE SIZE: 705 POINTS
TCL: Setting parameter alchLambda2 to 0.7499999999999998
Info: NONBONDED TABLE R-SQUARED SPACING: 0.0625
Info: NONBONDED TABLE SIZE: 705 POINTS
TCL: Running for 1500000 steps
ETITLE: TS BOND ANGLE DIHED IMPRP ELECT VDW BOUNDARY MISC KINETIC TOTAL TEMP POTENTIAL TOTALAVG TEMPAVG PRESSURE GPRESSURE VOLUME PRESSAVG GPRESSAVG
ENERGY: 0 4.8014 4.7432 3.6481 0.0000 -10811.1741 1485.0306 0.0000 0.0000 1740.3724 -7572.5784 295.8268 -9312.9507 -7572.5784 295.8268 150.5738 226.0381 30420.2337 150.5738 226.0381
ENERGY: 300000 2.3840 7.0708 1.5116 0.0000 -10790.6769 1447.5663 0.0000 0.0000 1803.5144 -7528.6297 306.5596 -9332.1442 -7561.6194 301.2743 174.6888 273.3157 30140.5837 -43.8824 16.2899
ENERGY: 600000 0.8212 7.1552 3.2575 0.0000 -10694.3064 1437.4857 0.0000 0.0000 1821.7558 -7423.8310 309.6603 -9245.5867 -7517.8844 303.2230 114.8987 194.5524 30648.0302 151.0739 216.7974
ENERGY: 900000 0.8493 7.6537 2.3951 0.0000 -10709.0357 1374.2733 0.0000 0.0000 1762.3814 -7561.4829 299.5679 -9323.8644 -7508.4360 302.8309 -589.3447 -525.1174 30304.4146 48.6650 117.3326
ENERGY: 1200000 2.7377 8.5961 1.8211 0.0000 -10575.5572 1339.6937 0.0000 0.0000 1713.2194 -7509.4891 291.2114 -9222.7085 -7515.3726 300.7886 -558.9942 -528.3639 30693.1410 19.6566 87.2309
ENERGY: 1500000 0.4875 6.5845 4.5228 0.0000 -10688.8376 1371.9200 0.0000 0.0000 1759.9474 -7545.3755 299.1541 -9305.3229 -7518.4994 300.4773 -431.5520 -427.0970 30507.4342 -8.4863 55.7012
TCL: Running FEP window   6: Lambda1 0.7499999999999998 Lambda2 0.6999999999999997 [dLambda -0.050000000000000044]
TCL: Setting parameter firsttimestep to 0
TCL: Setting parameter alchLambda to 0.7499999999999998
Info: NONBONDED TABLE R-SQUARED SPACING: 0.0625
Info: NONBONDED TABLE SIZE: 705 POINTS
TCL: Setting parameter alchLambda2 to 0.6999999999999997
Info: NONBONDED TABLE R-SQUARED SPACING: 0.0625
Info: NONBONDED TABLE SIZE: 705 POINTS
TCL: Running for 1500000 steps
ETITLE: TS BOND ANGLE DIHED IMPRP ELECT VDW BOUNDARY MISC KINETIC TOTAL TEMP POTENTIAL TOTALAVG TEMPAVG PRESSURE GPRESSURE VOLUME PRESSAVG GPRESSAVG
ENERGY: 0 0.4875 6.5845 4.5228 0.0000 -10686.5300 1371.5309 0.0000 0.0000 1759.0756 -7544.3288 299.0059 -9303.4044 -7544.3288 299.0059 -526.0349 -437.5229 30507.4342 -526.0349 -437.5229
ENERGY: 300000 1.4645 7.8925 2.2825 0.0000 -10736.9741 1491.6878 0.0000 0.0000 1769.2434 -7464.4033 300.7343 -9233.6468 -7496.8670 301.7690 512.0691 581.2573 30455.8395 156.0354 203.6300
ENERGY: 600000 4.0866 7.4277 3.9211 0.0000 -10806.0807 1431.0974 0.0000 0.0000 1726.4420 -7633.1059 293.4589 -9359.5479 -7510.3283 300.0489 -145.2709 -74.9585 29993.2852 127.0403 184.6957
ENERGY: 900000 2.3499 3.2209 2.4374 0.0000 -10686.4014 1367.3415 0.0000 0.0000 1784.6915 -7526.3602 303.3601 -9311.0517 -7501.1464 301.3487 -400.1730 -354.4663 30018.2084 30.3357 88.7361
ENERGY: 1200000 1.3653 5.4147 2.4827 0.0000 -10725.5134 1407.8772 0.0000 0.0000 1800.9071 -7507.4665 306.1164 -9308.3735 -7493.2330 301.9328 -283.7907 -241.8197 30554.9268 -5.5760 49.4936
ENERGY: 1500000 0.8231 6.7959 3.7337 0.0000 -10741.9847 1413.3452 0.0000 0.0000 1802.3625 -7514.9243 306.3638 -9317.2868 -7489.6856 302.6097 -197.1755 -82.0670 30322.1468 -23.6972 40.8658
TCL: Running FEP window   7: Lambda1 0.6999999999999997 Lambda2 0.6499999999999997 [dLambda -0.050000000000000044]
TCL: Setting parameter firsttimestep to 0
TCL: Setting parameter alchLambda to 0.6999999999999997
Info: NONBONDED TABLE R-SQUARED SPACING: 0.0625
Info: NONBONDED TABLE SIZE: 705 POINTS
TCL: Setting parameter alchLambda2 to 0.6499999999999997
Info: NONBONDED TABLE R-SQUARED SPACING: 0.0625
Info: NONBONDED TABLE SIZE: 705 POINTS
TCL: Running for 1500000 steps
ETITLE: TS BOND ANGLE DIHED IMPRP ELECT VDW BOUNDARY MISC KINETIC TOTAL TEMP POTENTIAL TOTALAVG TEMPAVG PRESSURE GPRESSURE VOLUME PRESSAVG GPRESSAVG
ENERGY: 0 0.8231 6.7959 3.7337 0.0000 -10740.1519 1413.4139 0.0000 0.0000 1801.4633 -7513.9221 306.2110 -9315.3853 -7513.9221 306.2110 -171.8615 -84.5354 30322.1468 -171.8615 -84.5354
ENERGY: 300000 2.2026 7.3141 1.8083 0.0000 -10722.1594 1410.9013 0.0000 0.0000 1806.4745 -7493.4586 307.0628 -9299.9331 -7517.8454 306.7022 -526.4487 -427.5889 31015.9497 -170.0593 -80.9583
ENERGY: 600000 2.7609 7.3483 5.2264 0.0000 -10755.0737 1478.4048 0.0000 0.0000 1748.9061 -7512.4273 297.2773 -9261.3334 -7493.9691 303.7639 467.3760 558.1682 30105.2444 -114.0926 -27.6856
ENERGY: 900000 1.7159 8.6376 2.4915 0.0000 -10674.0874 1410.6208 0.0000 0.0000 1825.0083 -7425.6134 310.2131 -9250.6217 -7493.3292 303.6110 -9.4734 92.9623 30186.2672 -67.6778 20.3601
ENERGY: 1200000 0.6176 6.5391 4.0590 0.0000 -10887.2275 1492.6964 0.0000 0.0000 1784.9970 -7598.3184 303.4120 -9383.3154 -7497.9836 303.9638 295.5405 317.5954 30160.6985 -119.1121 -38.4961
ENERGY: 1500000 1.3848 9.1413 3.4266 0.0000 -10731.9800 1450.5852 0.0000 0.0000 1813.1358 -7454.3062 308.1951 -9267.4420 -7498.5887 303.7095 17.1408 65.1617 30474.5718 -50.7377 17.5421
TCL: Running FEP window   8: Lambda1 0.6499999999999997 Lambda2 0.5999999999999996 [dLambda -0.050000000000000044]
TCL: Setting parameter firsttimestep to 0
TCL: Setting parameter alchLambda to 0.6499999999999997
Info: NONBONDED TABLE R-SQUARED SPACING: 0.0625
Info: NONBONDED TABLE SIZE: 705 POINTS
TCL: Setting parameter alchLambda2 to 0.5999999999999996
Info: NONBONDED TABLE R-SQUARED SPACING: 0.0625
Info: NONBONDED TABLE SIZE: 705 POINTS
TCL: Running for 1500000 steps
ETITLE: TS BOND ANGLE DIHED IMPRP ELECT VDW BOUNDARY MISC KINETIC TOTAL TEMP POTENTIAL TOTALAVG TEMPAVG PRESSURE GPRESSURE VOLUME PRESSAVG GPRESSAVG
ENERGY: 0 1.3848 9.1413 3.4266 0.0000 -10727.9547 1447.9760 0.0000 0.0000 1812.2615 -7453.7644 308.0464 -9266.0260 -7453.7644 308.0464 -44.2349 47.0481 30474.5718 -44.2349 47.0481
ENERGY: 300000 2.0429 5.9758 2.7153 0.0000 -10670.3156 1379.7621 0.0000 0.0000 1771.0379 -7508.7815 301.0393 -9279.8195 -7480.6894 302.2269 -346.0446 -310.0607 30359.2893 -372.8538 -314.2873
ENERGY: 600000 2.1827 7.0006 3.7905 0.0000 -10603.9519 1363.0972 0.0000 0.0000 1747.3763 -7480.5047 297.0173 -9227.8810 -7491.4031 301.9964 -710.9178 -618.8957 30975.3418 -375.9430 -301.9191
ENERGY: 900000 0.8602 6.2539 5.3289 0.0000 -10736.2279 1457.9770 0.0000 0.0000 1785.0022 -7480.8058 303.4129 -9265.8079 -7480.7085 302.5887 325.1918 445.8550 30309.7723 -317.3124 -250.4281
ENERGY: 1200000 0.5077 7.5738 1.7526 0.0000 -10736.6094 1437.7344 0.0000 0.0000 1767.5322 -7521.5086 300.4434 -9289.0408 -7486.9466 302.2172 -132.2142 -57.8525 30543.5463 -206.4395 -149.3189
ENERGY: 1500000 0.8039 8.5715 3.0915 0.0000 -10632.6003 1371.1949 0.0000 0.0000 1763.1610 -7485.7775 299.7004 -9248.9385 -7495.4010 302.0021 -566.3686 -499.6931 30557.1543 -309.2746 -241.2428
TCL: Running FEP window   9: Lambda1 0.5999999999999996 Lambda2 0.5499999999999996 [dLambda -0.050000000000000044]
TCL: Setting parameter firsttimestep to 0
TCL: Setting parameter alchLambda to 0.5999999999999996
Info: NONBONDED TABLE R-SQUARED SPACING: 0.0625
Info: NONBONDED TABLE SIZE: 705 POINTS
TCL: Setting parameter alchLambda2 to 0.5499999999999996
Info: NONBONDED TABLE R-SQUARED SPACING: 0.0625
Info: NONBONDED TABLE SIZE: 705 POINTS
TCL: Running for 1500000 steps
ETITLE: TS BOND ANGLE DIHED IMPRP ELECT VDW BOUNDARY MISC KINETIC TOTAL TEMP POTENTIAL TOTALAVG TEMPAVG PRESSURE GPRESSURE VOLUME PRESSAVG GPRESSAVG
ENERGY: 0 0.8039 8.5715 3.0915 0.0000 -10631.4447 1371.4900 0.0000 0.0000 1762.2685 -7485.2193 299.5487 -9247.4879 -7485.2193 299.5487 -577.2295 -503.5669 30557.1543 -577.2295 -503.5669
ENERGY: 300000 1.3049 8.3121 2.7530 0.0000 -10607.4301 1356.2800 0.0000 0.0000 1775.3602 -7463.4200 301.7740 -9238.7802 -7478.6558 302.9330 -574.0114 -469.9916 30492.2716 -289.4435 -222.4012
ENERGY: 600000 0.7005 9.2835 5.2616 0.0000 -10661.2394 1439.7976 0.0000 0.0000 1770.6355 -7435.5607 300.9709 -9206.1962 -7486.1844 301.2634 212.2582 268.7540 30461.2247 -144.0419 -91.2786
ENERGY: 900000 1.0477 9.7046 5.0003 0.0000 -10795.0722 1463.5426 0.0000 0.0000 1736.9659 -7578.8111 295.2478 -9315.7770 -7502.4345 301.1279 103.4820 146.9626 30574.1183 -125.4203 -83.7770
ENERGY: 1200000 0.7633 4.4685 4.0397 0.0000 -10795.3764 1468.9765 0.0000 0.0000 1793.6068 -7523.5218 304.8755 -9317.1286 -7503.7644 301.3229 311.1924 343.7741 30267.4814 -106.0297 -61.3652
ENERGY: 1500000 2.5742 7.3644 3.5676 0.0000 -10713.1493 1431.1462 0.0000 0.0000 1782.5214 -7485.9755 302.9912 -9268.4969 -7512.6574 301.6741 13.7639 105.7495 30537.3745 -133.3864 -85.6173
TCL: Running FEP window  10: Lambda1 0.5499999999999996 Lambda2 0.4999999999999996 [dLambda -0.04999999999999999]
TCL: Setting parameter firsttimestep to 0
TCL: Setting parameter alchLambda to 0.5499999999999996
Info: NONBONDED TABLE R-SQUARED SPACING: 0.0625
Info: NONBONDED TABLE SIZE: 705 POINTS
TCL: Setting parameter alchLambda2 to 0.4999999999999996
Info: NONBONDED TABLE R-SQUARED SPACING: 0.0625
Info: NONBONDED TABLE SIZE: 705 POINTS
TCL: Running for 1500000 steps
ETITLE: TS BOND ANGLE DIHED IMPRP ELECT VDW BOUNDARY MISC KINETIC TOTAL TEMP POTENTIAL TOTALAVG TEMPAVG PRESSURE GPRESSURE VOLUME PRESSAVG GPRESSAVG
ENERGY: 0 2.5741 7.3644 3.5676 0.0000 -10712.4546 1431.6126 0.0000 0.0000 1781.6573 -7485.6785 302.8444 -9267.3359 -7485.6785 302.8444 34.6347 105.5485 30537.3745 34.6347 105.5485
ENERGY: 300000 0.3561 6.3962 1.8524 0.0000 -10790.4006 1463.1473 0.0000 0.0000 1811.1644 -7507.4842 307.8599 -9318.6486 -7494.7950 303.5118 -85.3104 -33.3247 30737.9697 -48.8472 24.0813
ENERGY: 600000 5.2593 7.3319 4.4870 0.0000 -10720.5303 1399.5035 0.0000 0.0000 1751.6445 -7552.3042 297.7428 -9303.9486 -7527.8706 300.4834 -591.0444 -510.4215 30712.5549 -198.0329 -125.2373
ENERGY: 900000 1.5335 7.2549 3.7928 0.0000 -10602.6052 1308.3801 0.0000 0.0000 1716.8822 -7564.7617 291.8339 -9281.6439 -7529.1726 299.8220 -1198.9371 -1144.4918 30727.9935 -215.2273 -139.9575
ENERGY: 1200000 0.6604 3.6631 3.2910 0.0000 -10679.1864 1387.5792 0.0000 0.0000 1778.1721 -7505.8206 302.2520 -9283.9927 -7538.2006 298.9033 -402.6681 -369.4403 30415.7723 -221.4406 -153.7581
ENERGY: 1500000 1.4607 11.2075 3.0455 0.0000 -10609.8618 1413.5389 0.0000 0.0000 1767.0354 -7413.5739 300.3590 -9180.6093 -7527.0003 298.6535 -239.4984 -155.9000 30965.4162 -228.9776 -162.7183
TCL: Running FEP window  11: Lambda1 0.4999999999999996 Lambda2 0.4499999999999996 [dLambda -0.04999999999999999]
TCL: Setting parameter firsttimestep to 0
TCL: Setting parameter alchLambda to 0.4999999999999996
Info: NONBONDED TABLE R-SQUARED SPACING: 0.0625
Info: NONBONDED TABLE SIZE: 705 POINTS
TCL: Setting parameter alchLambda2 to 0.4499999999999996
Info: NONBONDED TABLE R-SQUARED SPACING: 0.0625
Info: NONBONDED TABLE SIZE: 705 POINTS
TCL: Running for 1500000 steps
ETITLE: TS BOND ANGLE DIHED IMPRP ELECT VDW BOUNDARY MISC KINETIC TOTAL TEMP POTENTIAL TOTALAVG TEMPAVG PRESSURE GPRESSURE VOLUME PRESSAVG GPRESSAVG
ENERGY: 0 1.4607 11.2075 3.0455 0.0000 -10609.6760 1413.1553 0.0000 0.0000 1766.1888 -7414.6183 300.2150 -9180.8071 -7414.6183 300.2150 -227.1530 -163.3418 30965.4162 -227.1530 -163.3418
ENERGY: 300000 0.5830 7.3078 2.5150 0.0000 -10651.2176 1414.9542 0.0000 0.0000 1774.3679 -7451.4896 301.6053 -9225.8575 -7469.4563 300.6630 118.2306 80.4555 30367.4983 86.6961 103.4521
ENERGY: 600000 2.2523 8.0691 5.8270 0.0000 -10719.1490 1406.7918 0.0000 0.0000 1733.0230 -7563.1859 294.5775 -9296.2088 -7494.7107 298.7667 -443.1528 -393.3200 30511.2246 -220.0677 -173.7279
ENERGY: 900000 2.9573 9.8340 5.4715 0.0000 -10758.0571 1484.5156 0.0000 0.0000 1762.8676 -7492.4111 299.6505 -9255.2787 -7489.8056 298.2461 337.9013 504.4611 30120.2051 -78.5888 -23.8752
ENERGY: 1200000 1.3055 3.4652 3.0395 0.0000 -10670.9796 1340.5437 0.0000 0.0000 1792.5621 -7530.0637 304.6980 -9322.6258 -7499.6741 299.8518 -803.3024 -744.9440 30223.3410 -37.1717 19.7177
ENERGY: 1500000 0.6283 6.7882 3.9075 0.0000 -10648.5049 1342.6326 0.0000 0.0000 1741.3009 -7553.2473 295.9846 -9294.5483 -7507.4434 299.3037 -677.6583 -613.0957 30364.4983 -87.1392 -26.3349
TCL: Running FEP window  12: Lambda1 0.4499999999999996 Lambda2 0.39999999999999963 [dLambda -0.04999999999999999]
TCL: Setting parameter firsttimestep to 0
TCL: Setting parameter alchLambda to 0.4499999999999996
Info: NONBONDED TABLE R-SQUARED SPACING: 0.0625
Info: NONBONDED TABLE SIZE: 705 POINTS
TCL: Setting parameter alchLambda2 to 0.39999999999999963
Info: NONBONDED TABLE R-SQUARED SPACING: 0.0625
Info: NONBONDED TABLE SIZE: 705 POINTS
TCL: Running for 1500000 steps
ETITLE: TS BOND ANGLE DIHED IMPRP ELECT VDW BOUNDARY MISC KINETIC TOTAL TEMP POTENTIAL TOTALAVG TEMPAVG PRESSURE GPRESSURE VOLUME PRESSAVG GPRESSAVG
ENERGY: 0 0.6283 6.7882 3.9075 0.0000 -10648.5046 1342.4973 0.0000 0.0000 1740.4303 -7554.2530 295.8366 -9294.6833 -7554.2530 295.8366 -699.2696 -615.1634 30364.4983 -699.2696 -615.1634
ENERGY: 300000 1.3421 7.8462 3.6588 0.0000 -10748.3699 1368.5711 0.0000 0.0000 1756.6650 -7610.2868 298.5962 -9366.9518 -7485.8021 301.4377 -865.0100 -752.6037 30395.0466 -394.4810 -301.5567
ENERGY: 600000 1.5653 7.0775 3.5608 0.0000 -10869.7265 1511.3493 0.0000 0.0000 1824.8666 -7521.3070 310.1890 -9346.1736 -7493.5881 303.0492 322.7245 414.2988 30572.3757 77.1951 163.2670
ENERGY: 900000 2.4556 10.3617 2.5743 0.0000 -10824.1830 1507.4720 0.0000 0.0000 1794.5273 -7506.7920 305.0320 -9301.3194 -7487.1268 304.4596 663.9533 717.5601 30042.8831 182.8652 261.2622
ENERGY: 1200000 1.9144 6.3849 4.5774 0.0000 -10604.6533 1358.7344 0.0000 0.0000 1780.1101 -7452.9322 302.5814 -9233.0423 -7485.5642 303.0536 -745.7345 -612.0422 30525.3050 72.3123 149.4814
ENERGY: 1500000 1.9637 4.3081 2.4931 0.0000 -10669.7537 1406.0492 0.0000 0.0000 1798.4311 -7456.5085 305.6956 -9254.9396 -7495.7681 302.7078 -333.1761 -311.8977 30664.4153 53.4469 121.8309
TCL: Running FEP window  13: Lambda1 0.39999999999999963 Lambda2 0.34999999999999964 [dLambda -0.04999999999999999]
TCL: Setting parameter firsttimestep to 0
TCL: Setting parameter alchLambda to 0.39999999999999963
Info: NONBONDED TABLE R-SQUARED SPACING: 0.0625
Info: NONBONDED TABLE SIZE: 705 POINTS
TCL: Setting parameter alchLambda2 to 0.34999999999999964
Info: NONBONDED TABLE R-SQUARED SPACING: 0.0625
Info: NONBONDED TABLE SIZE: 705 POINTS
TCL: Running for 1500000 steps
ETITLE: TS BOND ANGLE DIHED IMPRP ELECT VDW BOUNDARY MISC KINETIC TOTAL TEMP POTENTIAL TOTALAVG TEMPAVG PRESSURE GPRESSURE VOLUME PRESSAVG GPRESSAVG
ENERGY: 0 1.9637 4.3081 2.4931 0.0000 -10669.7538 1406.6959 0.0000 0.0000 1797.5551 -7456.7379 305.5467 -9254.2930 -7456.7379 305.5467 -394.9231 -308.7561 30664.4153 -394.9231 -308.7561
ENERGY: 300000 1.8300 9.4052 5.4186 0.0000 -10776.0141 1449.8149 0.0000 0.0000 1754.9113 -7554.6341 298.2981 -9309.5454 -7490.9274 302.3181 214.9943 308.2438 29803.2718 -77.3927 5.1185
ENERGY: 600000 1.9727 6.8582 3.4519 0.0000 -10642.8118 1465.3944 0.0000 0.0000 1777.8658 -7387.2688 302.1999 -9165.1346 -7475.2330 301.3450 370.7829 464.2363 30693.0357 -200.6025 -119.8920
ENERGY: 900000 0.9217 4.5326 2.5667 0.0000 -10739.3993 1473.4559 0.0000 0.0000 1760.6625 -7497.2600 299.2757 -9257.9225 -7475.3620 300.9152 355.3868 436.3334 30169.3371 -39.3655 36.3546
ENERGY: 1200000 2.9395 6.5316 1.5714 0.0000 -10823.9034 1476.7997 0.0000 0.0000 1769.0726 -7566.9886 300.7052 -9336.0612 -7483.2605 301.2263 78.8178 155.4522 30440.3672 -78.8431 -6.1116
ENERGY: 1500000 1.9000 9.0957 2.0899 0.0000 -10836.8025 1501.7938 0.0000 0.0000 1759.2948 -7562.6284 299.0432 -9321.9231 -7496.5257 300.5047 350.8504 385.1744 30403.4514 -148.4434 -74.6362
TCL: Running FEP window  14: Lambda1 0.34999999999999964 Lambda2 0.29999999999999966 [dLambda -0.04999999999999999]
TCL: Setting parameter firsttimestep to 0
TCL: Setting parameter alchLambda to 0.34999999999999964
Info: NONBONDED TABLE R-SQUARED SPACING: 0.0625
Info: NONBONDED TABLE SIZE: 705 POINTS
TCL: Setting parameter alchLambda2 to 0.29999999999999966
Info: NONBONDED TABLE R-SQUARED SPACING: 0.0625
Info: NONBONDED TABLE SIZE: 705 POINTS
TCL: Running for 1500000 steps
ETITLE: TS BOND ANGLE DIHED IMPRP ELECT VDW BOUNDARY MISC KINETIC TOTAL TEMP POTENTIAL TOTALAVG TEMPAVG PRESSURE GPRESSURE VOLUME PRESSAVG GPRESSAVG
ENERGY: 0 1.9000 9.0957 2.0899 0.0000 -10836.8036 1502.0227 0.0000 0.0000 1758.4146 -7563.2807 298.8936 -9321.6954 -7563.2807 298.8936 292.7172 382.0097 30403.4514 292.7172 382.0097
ENERGY: 300000 3.2602 7.9409 1.8037 0.0000 -10783.5949 1465.5267 0.0000 0.0000 1751.5134 -7553.5502 297.7205 -9305.0635 -7526.3142 299.0104 194.3269 210.9018 30059.4479 299.6052 371.6024
ENERGY: 600000 2.8060 9.0798 3.5551 0.0000 -10743.0198 1397.3520 0.0000 0.0000 1779.3309 -7550.8961 302.4489 -9330.2270 -7514.4611 300.3754 -601.9672 -597.6413 30479.5687 54.8925 110.3041
ENERGY: 900000 2.1262 9.4983 3.7210 0.0000 -10673.4713 1391.9419 0.0000 0.0000 1790.0526 -7476.1314 304.2714 -9266.1839 -7516.5347 300.6544 -34.8652 63.2353 30160.5828 153.5403 213.5414
ENERGY: 1200000 0.6024 9.6732 3.3807 0.0000 -10791.4672 1484.5848 0.0000 0.0000 1780.3012 -7512.9248 302.6139 -9293.2260 -7513.7768 301.0302 331.3121 405.4044 30438.0749 93.5228 147.9389
ENERGY: 1500000 0.5301 7.6271 3.6793 0.0000 -10795.6712 1443.6708 0.0000 0.0000 1778.2874 -7561.8764 302.2716 -9340.1638 -7522.4199 300.4047 -38.7752 27.2912 30172.7213 51.6806 110.7220
TCL: Running FEP window  15: Lambda1 0.29999999999999966 Lambda2 0.24999999999999967 [dLambda -0.04999999999999999]
TCL: Setting parameter firsttimestep to 0
TCL: Setting parameter alchLambda to 0.29999999999999966
Info: NONBONDED TABLE R-SQUARED SPACING: 0.0625
Info: NONBONDED TABLE SIZE: 705 POINTS
TCL: Setting parameter alchLambda2 to 0.24999999999999967
Info: NONBONDED TABLE R-SQUARED SPACING: 0.0625
Info: NONBONDED TABLE SIZE: 705 POINTS
TCL: Running for 1500000 steps
ETITLE: TS BOND ANGLE DIHED IMPRP ELECT VDW BOUNDARY MISC KINETIC TOTAL TEMP POTENTIAL TOTALAVG TEMPAVG PRESSURE GPRESSURE VOLUME PRESSAVG GPRESSAVG
ENERGY: 0 0.5301 7.6271 3.6793 0.0000 -10795.6713 1444.1637 0.0000 0.0000 1777.4201 -7562.2511 302.1241 -9339.6712 -7562.2511 302.1241 -50.7009 25.4987 30172.7213 -50.7009 25.4987
ENERGY: 300000 1.5292 7.0508 4.3966 0.0000 -10793.0656 1446.3351 0.0000 0.0000 1757.2551 -7576.4988 298.6965 -9333.7539 -7515.3832 304.6692 -113.6905 -24.0742 30067.6969 -18.0513 61.4231
ENERGY: 600000 1.8970 9.1329 2.2697 0.0000 -10785.3692 1454.2605 0.0000 0.0000 1748.5865 -7569.2227 297.2230 -9317.8092 -7514.1259 303.2152 -132.7416 -49.4231 30504.7586 227.4282 288.7699
ENERGY: 900000 4.9938 8.6808 1.8936 0.0000 -10704.7574 1419.6978 0.0000 0.0000 1764.2560 -7505.2354 299.8865 -9269.4914 -7496.6690 302.7694 -202.4979 -130.6182 30443.6068 309.3200 375.1583
ENERGY: 1200000 1.5209 6.6049 2.4543 0.0000 -10726.4723 1431.4516 0.0000 0.0000 1802.9369 -7481.5037 306.4615 -9284.4406 -7488.3725 302.9017 -173.5518 -115.8439 30776.5077 232.2160 296.5845
ENERGY: 1500000 5.2050 8.1456 3.5256 0.0000 -10802.4825 1519.8098 0.0000 0.0000 1800.8495 -7464.9471 306.1066 -9265.7965 -7487.8227 302.6621 669.9635 731.8169 30114.5685 267.1290 329.8887
TCL: Running FEP window  16: Lambda1 0.24999999999999967 Lambda2 0.19999999999999968 [dLambda -0.04999999999999999]
TCL: Setting parameter firsttimestep to 0
TCL: Setting parameter alchLambda to 0.24999999999999967
Info: NONBONDED TABLE R-SQUARED SPACING: 0.0625
Info: NONBONDED TABLE SIZE: 705 POINTS
TCL: Setting parameter alchLambda2 to 0.19999999999999968
Info: NONBONDED TABLE R-SQUARED SPACING: 0.0625
Info: NONBONDED TABLE SIZE: 705 POINTS
TCL: Running for 1500000 steps
ETITLE: TS BOND ANGLE DIHED IMPRP ELECT VDW BOUNDARY MISC KINETIC TOTAL TEMP POTENTIAL TOTALAVG TEMPAVG PRESSURE GPRESSURE VOLUME PRESSAVG GPRESSAVG
ENERGY: 0 5.2050 8.1456 3.5256 0.0000 -10802.4832 1519.7092 0.0000 0.0000 1799.9556 -7465.9423 305.9547 -9265.8979 -7465.9423 305.9547 634.6047 728.2117 30114.5685 634.6047 728.2117
ENERGY: 300000 0.7533 5.2624 2.9417 0.0000 -10697.6042 1408.5121 0.0000 0.0000 1784.8871 -7495.2475 303.3934 -9280.1347 -7470.7816 302.8435 -281.4390 -240.0933 30409.3334 212.6731 292.5229
ENERGY: 600000 1.6273 6.2955 2.2182 0.0000 -10708.5210 1404.8026 0.0000 0.0000 1795.4219 -7498.1555 305.1840 -9293.5774 -7493.8439 301.7707 -367.9335 -284.8168 30305.2529 15.4477 97.5844
ENERGY: 900000 1.5727 9.7630 3.9030 0.0000 -10624.2077 1357.9921 0.0000 0.0000 1740.9536 -7510.0233 295.9256 -9250.9770 -7496.9645 301.7015 -202.8185 -155.2402 29812.8192 -183.0756 -108.5269
ENERGY: 1200000 1.8368 6.9474 3.6817 0.0000 -10630.5309 1395.2002 0.0000 0.0000 1787.2335 -7435.6312 303.7922 -9222.8647 -7501.0239 301.4010 -198.1990 -182.9474 30527.9087 -144.7721 -81.2266
ENERGY: 1500000 0.9159 7.0041 5.6254 0.0000 -10682.7321 1434.9397 0.0000 0.0000 1815.2832 -7418.9637 308.5601 -9234.2470 -7493.5191 301.8942 77.9998 191.2976 30534.4242 -21.6633 42.5725
TCL: Running FEP window  17: Lambda1 0.19999999999999968 Lambda2 0.1499999999999997 [dLambda -0.04999999999999999]
TCL: Setting parameter firsttimestep to 0
TCL: Setting parameter alchLambda to 0.19999999999999968
Info: NONBONDED TABLE R-SQUARED SPACING: 0.0625
Info: NONBONDED TABLE SIZE: 705 POINTS
TCL: Setting parameter alchLambda2 to 0.1499999999999997
Info: NONBONDED TABLE R-SQUARED SPACING: 0.0625
Info: NONBONDED TABLE SIZE: 705 POINTS
TCL: Running for 1500000 steps
ETITLE: TS BOND ANGLE DIHED IMPRP ELECT VDW BOUNDARY MISC KINETIC TOTAL TEMP POTENTIAL TOTALAVG TEMPAVG PRESSURE GPRESSURE VOLUME PRESSAVG GPRESSAVG
ENERGY: 0 0.9159 7.0041 5.6254 0.0000 -10682.7309 1435.4200 0.0000 0.0000 1814.3689 -7419.3965 308.4046 -9233.7654 -7419.3965 308.4046 109.2122 190.8103 30534.4242 109.2122 190.8103
ENERGY: 300000 1.5961 5.7704 1.9567 0.0000 -10842.3899 1526.6892 0.0000 0.0000 1734.4136 -7571.9640 294.8139 -9306.3776 -7536.9633 298.6871 439.2747 484.0578 30259.6806 15.8740 83.8004
ENERGY: 600000 3.6292 9.4294 2.5856 0.0000 -10744.8442 1387.4997 0.0000 0.0000 1749.8804 -7591.8198 297.4430 -9341.7002 -7531.3428 300.0690 -611.7271 -510.0740 30148.6474 -28.1689 45.6946
ENERGY: 900000 1.6046 6.8199 4.4599 0.0000 -10670.2850 1360.8591 0.0000 0.0000 1724.0297 -7572.5117 293.0489 -9296.5414 -7535.2065 298.7091 -488.5486 -415.8879 29914.2686 -117.4403 -38.7761
ENERGY: 1200000 1.6807 7.9285 3.7554 0.0000 -10675.7709 1422.1315 0.0000 0.0000 1776.1026 -7464.1722 301.9002 -9240.2748 -7529.1791 298.4783 -38.2717 63.4341 30409.9240 -86.2076 -2.4147
ENERGY: 1500000 3.3897 12.9877 1.6022 0.0000 -10781.5079 1462.2891 0.0000 0.0000 1759.4381 -7541.8011 299.0676 -9301.2392 -7537.6269 298.1592 -72.7989 -18.8658 30310.1136 -59.7575 16.9498
TCL: Running FEP window  18: Lambda1 0.1499999999999997 Lambda2 0.09999999999999969 [dLambda -0.05 ]
TCL: Setting parameter firsttimestep to 0
TCL: Setting parameter alchLambda to 0.1499999999999997
Info: NONBONDED TABLE R-SQUARED SPACING: 0.0625
Info: NONBONDED TABLE SIZE: 705 POINTS
TCL: Setting parameter alchLambda2 to 0.09999999999999969
Info: NONBONDED TABLE R-SQUARED SPACING: 0.0625
Info: NONBONDED TABLE SIZE: 705 POINTS
TCL: Running for 1500000 steps
ETITLE: TS BOND ANGLE DIHED IMPRP ELECT VDW BOUNDARY MISC KINETIC TOTAL TEMP POTENTIAL TOTALAVG TEMPAVG PRESSURE GPRESSURE VOLUME PRESSAVG GPRESSAVG
ENERGY: 0 3.3896 12.9877 1.6022 0.0000 -10781.5075 1462.4730 0.0000 0.0000 1758.5942 -7542.4608 298.9241 -9301.0550 -7542.4608 298.9241 -101.0481 -19.4840 30310.1136 -101.0481 -19.4840
ENERGY: 300000 2.9498 5.9384 3.1427 0.0000 -10862.5804 1502.3525 0.0000 0.0000 1827.5288 -7520.6681 310.6416 -9348.1970 -7544.3615 300.7126 161.2106 247.6718 30288.0424 -60.3284 9.1177
ENERGY: 600000 1.0058 5.4727 3.5980 0.0000 -10755.8884 1469.4121 0.0000 0.0000 1756.5900 -7519.8098 298.5834 -9276.3998 -7546.1241 299.2302 54.7538 63.8644 30368.1982 -87.3164 -27.9680
ENERGY: 900000 1.2825 8.7069 5.2626 0.0000 -10608.7230 1389.8143 0.0000 0.0000 1789.1100 -7414.5467 304.1112 -9203.6566 -7528.3865 299.6667 -265.5106 -219.5254 30505.2752 -26.5828 33.4011
ENERGY: 1200000 2.0521 8.0695 2.1983 0.0000 -10821.6857 1522.8055 0.0000 0.0000 1787.8712 -7498.6890 303.9006 -9286.5602 -7527.5770 299.9366 489.2841 583.5923 30586.5026 -92.9937 -23.8977
ENERGY: 1500000 0.9056 5.1730 5.3622 0.0000 -10717.0518 1447.6159 0.0000 0.0000 1807.0209 -7450.9741 307.1556 -9257.9950 -7528.1556 298.8056 118.7288 124.3133 30333.0065 -21.4269 46.7238
TCL: Running FEP window  19: Lambda1 0.09999999999999969 Lambda2 0.049999999999999684 [dLambda -0.05 ]
TCL: Setting parameter firsttimestep to 0
TCL: Setting parameter alchLambda to 0.09999999999999969
Info: NONBONDED TABLE R-SQUARED SPACING: 0.0625
Info: NONBONDED TABLE SIZE: 705 POINTS
TCL: Setting parameter alchLambda2 to 0.049999999999999684
Info: NONBONDED TABLE R-SQUARED SPACING: 0.0625
Info: NONBONDED TABLE SIZE: 705 POINTS
TCL: Running for 1500000 steps
ETITLE: TS BOND ANGLE DIHED IMPRP ELECT VDW BOUNDARY MISC KINETIC TOTAL TEMP POTENTIAL TOTALAVG TEMPAVG PRESSURE GPRESSURE VOLUME PRESSAVG GPRESSAVG
ENERGY: 0 0.9056 5.1730 5.3622 0.0000 -10717.0523 1446.0510 0.0000 0.0000 1806.1472 -7453.4131 307.0071 -9259.5604 -7453.4131 307.0071 42.7576 115.6910 30333.0065 42.7576 115.6910
ENERGY: 300000 1.4910 4.1805 4.2400 0.0000 -10662.0554 1379.4852 0.0000 0.0000 1758.4312 -7514.2275 298.8964 -9272.6587 -7527.1965 299.6011 -394.4017 -309.0777 30167.2362 -240.8713 -158.8961
ENERGY: 600000 1.4577 10.4333 3.4068 0.0000 -10571.0781 1354.3708 0.0000 0.0000 1717.1835 -7484.2261 291.8852 -9201.4095 -7528.8755 299.2126 -775.9997 -719.7683 30661.9085 -309.5943 -239.6289
ENERGY: 900000 2.1499 6.2515 2.5152 0.0000 -10719.5029 1431.5439 0.0000 0.0000 1749.0768 -7527.9655 297.3064 -9277.0423 -7506.4752 300.6205 -249.3692 -171.1660 30510.7462 -278.1520 -215.0237
ENERGY: 1200000 3.0635 10.8098 2.9891 0.0000 -10803.3519 1450.5271 0.0000 0.0000 1752.9300 -7583.0324 297.9613 -9335.9624 -7527.1840 298.9440 30.2445 79.2161 29840.9945 -206.4422 -144.7810
ENERGY: 1500000 2.1094 13.4095 3.4156 0.0000 -10776.2041 1396.0737 0.0000 0.0000 1766.0418 -7595.1540 300.1901 -9361.1959 -7530.1192 299.2878 -699.5922 -645.0978 30031.9367 -201.2895 -143.6312
TCL: Running FEP window  20: Lambda1 0.049999999999999684 Lambda2 0.0    [dLambda -0.049999999999999684]
TCL: Setting parameter firsttimestep to 0
TCL: Setting parameter alchLambda to 0.049999999999999684
Info: NONBONDED TABLE R-SQUARED SPACING: 0.0625
Info: NONBONDED TABLE SIZE: 705 POINTS
TCL: Setting parameter alchLambda2 to 0.0
Info: NONBONDED TABLE R-SQUARED SPACING: 0.0625
Info: NONBONDED TABLE SIZE: 705 POINTS
TCL: Running for 1500000 steps
ETITLE: TS BOND ANGLE DIHED IMPRP ELECT VDW BOUNDARY MISC KINETIC TOTAL TEMP POTENTIAL TOTALAVG TEMPAVG PRESSURE GPRESSURE VOLUME PRESSAVG GPRESSAVG
ENERGY: 0 2.1094 13.4095 3.4156 0.0000 -10776.2037 1395.4954 0.0000 0.0000 1765.1723 -7596.6014 300.0423 -9361.7737 -7596.6014 300.0423 -726.5107 -648.8333 30031.9367 -726.5107 -648.8333
ENERGY: 300000 1.4145 6.4156 5.0532 0.0000 -10666.0881 1463.2656 0.0000 0.0000 1830.9807 -7358.9585 311.2283 -9189.9392 -7490.1402 301.6514 165.9257 249.0133 30834.8388 -302.1074 -206.9649
ENERGY: 600000 5.0250 11.9959 3.0538 0.0000 -10683.4263 1385.4260 0.0000 0.0000 1792.9042 -7485.0214 304.7561 -9277.9256 -7487.0564 301.9532 -316.8703 -256.0187 30227.8849 -66.2341 17.8127
ENERGY: 900000 4.8307 8.6662 4.2749 0.0000 -10615.0260 1351.2919 0.0000 0.0000 1840.0259 -7405.9364 312.7658 -9245.9622 -7485.2411 302.4193 -658.4412 -536.1623 29988.3371 -38.2916 40.9760
ENERGY: 1200000 3.4236 5.6018 3.4336 0.0000 -10807.3727 1468.6393 0.0000 0.0000 1806.3975 -7519.8769 307.0497 -9326.2744 -7487.4606 302.9699 -8.9899 65.7643 30318.8821 -63.9173 8.6545
ENERGY: 1500000 3.1932 7.3457 4.5870 0.0000 -10690.7870 1393.7709 0.0000 0.0000 1812.5922 -7469.2980 308.1026 -9281.8902 -7486.5656 303.2930 -192.2609 -154.3462 29980.3447 -3.5800 61.4058
TCL: Exiting due to exit command.
