Info: SIMULATION PARAMETERS:
Info: TIMESTEP               2
Info: NUMBER OF STEPS        0
Info: STEPS PER CYCLE        10
Info: PERIODIC CELL BASIS 1  30.1408 0 0
Info: PERIODIC CELL BASIS 2  0 33.3032 0
Info: PERIODIC CELL BASIS 3  0 0 30.7991
Info: PERIODIC CELL CENTER   0 0 0
Info: WRAPPING WATERS AROUND PERIODIC BOUNDARIES ON OUTPUT.
Info: WRAPPING ALL CLUSTERS AROUND PERIODIC BOUNDARIES ON OUTPUT.
Info: FIRST LDB TIMESTEP     50
Info: LAST LDB TIMESTEP     -1
Info: HOM BACKGROUND SCALING 1
Info: PME BACKGROUND SCALING 1
Info: MIN ATOMS PER PATCH    40
Info: EMPTY PATCH LOAD       40 ATOMS
Info: VELOCITY FILE          mobley_3414356_equil.vel
Info: CENTER OF MASS MOVING INITIALLY? NO
Info: DIELECTRIC             1
Info: EXCLUDE                SCALED ONE-FOUR
Info: 1-4 ELECTROSTATICS SCALED BY 0.833333
Info: MODIFIED 1-4 VDW PARAMETERS WILL BE USED
Info: DCD FILENAME           mobley_3414356_prod.dcd
Info: DCD FREQUENCY          100000
Info: DCD FIRST STEP         100000
Info: DCD FILE WILL CONTAIN UNIT CELL DATA
Info: XST FILENAME           mobley_3414356_prod.xst
Info: XST FREQUENCY          100000
Info: NO VELOCITY DCD OUTPUT
Info: NO FORCE DCD OUTPUT
Info: OUTPUT FILENAME        mobley_3414356_prod
Info: BINARY OUTPUT FILES WILL BE USED
Info: RESTART FILENAME       mobley_3414356_prod.restart
Info: RESTART FREQUENCY      100000
Info: BINARY RESTART FILES WILL BE USED
Info: CUTOFF                 9
Info: PAIRLIST DISTANCE      11
Info: PAIRLIST SHRINK RATE   0.01
Info: PAIRLIST GROW RATE     0.01
Info: PAIRLIST TRIGGER       0.3
Info: PAIRLISTS PER CYCLE    2
Info: PAIRLISTS ENABLED
Info: MARGIN                 2
Info: HYDROGEN GROUP CUTOFF  2.5
Info: PATCH DIMENSION        15.5
Info: ENERGY OUTPUT STEPS    100000
Info: ENERGY EVALUATION STEPS    100000
Info: OUTPUT ENERGY PRECISION 4
Info: CROSSTERM ENERGY INCLUDED IN DIHEDRAL
Info: TIMING OUTPUT STEPS    1000000
Info: PRESSURE OUTPUT STEPS  100000
Info: ALCHEMICAL FEP ON
Info: FEP CURRENT LAMBDA VALUE     1
Info: FEP COMPARISON LAMBDA VALUE  0.95
Info: FEP INTRA-ALCHEMICAL NON-BONDED INTERACTIONS WILL BE RETAINED
Info: FEP INTRA-ALCHEMICAL BONDED INTERACTIONS WILL BE RETAINED
Info: FEP VDW SHIFTING COEFFICIENT 5
Info: FEP ELEC. ACTIVE FOR ANNIHILATED PARTICLES BETWEEN LAMBDA = 0 AND LAMBDA = 0.5
Info: FEP ELEC. ACTIVE FOR EXNIHILATED PARTICLES BETWEEN LAMBDA = 0.5 AND LAMBDA = 1
Info: FEP VDW ACTIVE FOR ANNIHILATED PARTICLES BETWEEN LAMBDA = 0 AND LAMBDA = 1
Info: FEP VDW ACTIVE FOR EXNIHILATED PARTICLES BETWEEN LAMBDA = 0 AND LAMBDA = 1
Info: FEP BOND ACTIVE FOR ANNIHILATED PARTICLES BETWEEN LAMBDA = 1 AND LAMBDA = 1
Info: FEP BOND ACTIVE FOR EXNIHILATED PARTICLES BETWEEN LAMBDA = 0 AND LAMBDA = 0
Info: LANGEVIN DYNAMICS ACTIVE
Info: LANGEVIN TEMPERATURE   300
Info: LANGEVIN USING BBK INTEGRATOR
Info: LANGEVIN DAMPING COEFFICIENT IS 1 INVERSE PS
Info: LANGEVIN DYNAMICS APPLIED TO HYDROGENS
Info: LANGEVIN PISTON PRESSURE CONTROL ACTIVE
Info:        TARGET PRESSURE IS 1.01325 BAR
Info:     OSCILLATION PERIOD IS 50 FS
Info:             DECAY TIME IS 25 FS
Info:     PISTON TEMPERATURE IS 300 K
Info:       PRESSURE CONTROL IS GROUP-BASED
Info:    INITIAL STRAIN RATE IS 0.000226623 0.000226623 0.000226623
Info:       CELL FLUCTUATION IS ISOTROPIC
Info: PARTICLE MESH EWALD (PME) ACTIVE
Info: PME TOLERANCE               1e-06
Info: PME EWALD COEFFICIENT       0.348832
Info: PME INTERPOLATION ORDER     4
Info: PME GRID DIMENSIONS         32 36 32
Info: PME MAXIMUM GRID SPACING    1
Info: PME CALCULATION WILL BE PERFORMED ON GPU
Info: FULL ELECTROSTATIC EVALUATION FREQUENCY      2
Info: USING VERLET I (r-RESPA) MTS SCHEME.
Info: C1 SPLITTING OF LONG RANGE ELECTROSTATICS
Info: PLACING ATOMS IN PATCHES BY HYDROGEN GROUPS
Info: RIGID BONDS TO HYDROGEN : ALL
Info:         ERROR TOLERANCE : 1e-08
Info:          MAX ITERATIONS : 100
Info: RIGID WATER USING SETTLE ALGORITHM
Info: RANDOM NUMBER SEED     1743867927
Info: USE HYDROGEN BONDS?    NO
Info: Using AMBER format force field!
Info: AMBER PARM FILE        mobley_3414356.prmtop
Info: COORDINATE PDB         mobley_3414356.pdb
Info: Exclusions will be read from PARM file!
Info: SCNB (VDW SCALING)     2
Info: USING ARITHMETIC MEAN TO COMBINE L-J SIGMA PARAMETERS
Info: BINARY COORDINATES     mobley_3414356_equil.coor
Info: SUMMARY OF PARAMETERS:
Info: 6 BONDS
Info: 5 ANGLES
Info:   5 HARMONIC
Info:   0 COSINE-BASED
Info: 8 DIHEDRAL
Info: 0 IMPROPER
Info: 0 CROSSTERM
Info: 0 VDW
Info: 15 VDW_PAIRS
Info: 0 NBTHOLE_PAIRS
Info: To read alchdata from file: mobley_3414356.pdb
Info: To read alchflag data from column: 5
Info: STRUCTURE SUMMARY:
Info: 2970 ATOMS
Info: 2969 BONDS
Info: 37 ANGLES
Info: 65 DIHEDRALS
Info: 0 IMPROPERS
Info: 0 CROSSTERMS
Info: 3054 EXCLUSIONS
Info: 2963 RIGID BONDS
Info: ALCH: 0 ATOMS TO DISAPPEAR IN FINAL STATE
Info: ALCH: 21 ATOMS TO APPEAR IN FINAL STATE
Info: 5947 DEGREES OF FREEDOM
Info: 990 HYDROGEN GROUPS
Info: 4 ATOMS IN LARGEST HYDROGEN GROUP
Info: 990 MIGRATION GROUPS
Info: 4 ATOMS IN LARGEST MIGRATION GROUP
Info: TOTAL MASS = 17811.9 amu
Info: TOTAL CHARGE = 0.00029999 e
Info: MASS DENSITY = 0.956732 g/cm^3
Info: ATOM DENSITY = 0.0960677 atoms/A^3
Info: ADDED 0 IMPLICIT EXCLUSIONS
Info: NONBONDED TABLE R-SQUARED SPACING: 0.0625
Info: NONBONDED TABLE SIZE: 705 POINTS
Info: REMOVING COM VELOCITY 0.033849 -0.045906 0.0645543
Info: Use 3D box decompostion in PME FFT.
Info: Updated CUDA force table with 4096 elements.
Info: Updated CUDA LJ table with 5 x 5 elements.
Info: Found 24 unique exclusion lists needing 72 bytes
TCL: Running for 1500000 steps
ETITLE: TS BOND ANGLE DIHED IMPRP ELECT VDW BOUNDARY MISC KINETIC TOTAL TEMP POTENTIAL TOTALAVG TEMPAVG PRESSURE GPRESSURE VOLUME PRESSAVG GPRESSAVG
ENERGY: 0 2.2875 9.5375 5.9279 0.0000 -10649.7238 1382.4579 0.0000 0.0000 1792.9306 -7456.5823 303.4282 -9249.5129 -7456.5823 303.4282 -628.9638 -541.8261 30915.7106 -628.9638 -541.8261
ENERGY: 300000 3.5852 7.3502 4.3619 0.0000 -10646.7182 1482.8989 0.0000 0.0000 1802.7979 -7345.7241 305.0981 -9148.5220 -7471.2219 300.0160 506.5971 559.6261 30736.4556 -409.6059 -316.5521
ENERGY: 600000 2.4665 9.8012 6.4173 0.0000 -10685.4292 1390.2303 0.0000 0.0000 1781.6004 -7494.9136 301.5107 -9276.5140 -7479.9052 301.1647 -705.2416 -711.6264 31381.8133 -443.7887 -386.2391
ENERGY: 900000 1.8521 11.3581 5.5489 0.0000 -10768.4893 1466.3764 0.0000 0.0000 1796.7489 -7486.6049 304.0744 -9283.3538 -7500.2806 300.2833 339.0454 376.4968 30629.5165 -230.9663 -175.5116
ENERGY: 1200000 2.6818 8.7193 6.5114 0.0000 -10772.2614 1410.3193 0.0000 0.0000 1753.5002 -7590.5294 296.7551 -9344.0296 -7504.8977 300.2516 -266.2641 -215.8091 30536.2990 -216.8279 -165.6410
ENERGY: 1500000 2.9844 4.6154 5.1467 0.0000 -10806.0714 1510.8571 0.0000 0.0000 1740.6267 -7541.8412 294.5765 -9282.4679 -7511.7273 300.2172 417.6473 508.7791 30637.3020 -99.3063 -49.5960
TCL: Running FEP window   2: Lambda1 0.95   Lambda2 0.8999999999999999 [dLambda -0.050000000000000044]
TCL: Setting parameter firsttimestep to 0
TCL: Setting parameter alchLambda to 0.95
Info: NONBONDED TABLE R-SQUARED SPACING: 0.0625
Info: NONBONDED TABLE SIZE: 705 POINTS
TCL: Setting parameter alchLambda2 to 0.8999999999999999
Info: NONBONDED TABLE R-SQUARED SPACING: 0.0625
Info: NONBONDED TABLE SIZE: 705 POINTS
TCL: Running for 1500000 steps
ETITLE: TS BOND ANGLE DIHED IMPRP ELECT VDW BOUNDARY MISC KINETIC TOTAL TEMP POTENTIAL TOTALAVG TEMPAVG PRESSURE GPRESSURE VOLUME PRESSAVG GPRESSAVG
ENERGY: 0 2.9844 4.6154 5.1467 0.0000 -10804.8470 1510.7931 0.0000 0.0000 1739.7683 -7541.5390 294.4312 -9281.3074 -7541.5390 294.4312 418.7059 500.3624 30637.3020 418.7059 500.3624
ENERGY: 300000 2.4039 8.9657 5.2088 0.0000 -10862.3620 1533.5714 0.0000 0.0000 1807.2596 -7504.9527 305.8532 -9312.2122 -7528.0845 296.3958 775.9223 834.0053 30329.7338 102.7734 164.9957
ENERGY: 600000 1.7363 15.1670 5.0907 0.0000 -10696.0458 1421.9655 0.0000 0.0000 1759.0862 -7493.0000 297.7005 -9252.0863 -7529.7407 298.3190 -543.5891 -413.1453 31698.3808 -73.1034 -5.1813
ENERGY: 900000 3.0476 10.7890 5.7268 0.0000 -10703.1830 1477.8106 0.0000 0.0000 1810.8514 -7394.9577 306.4610 -9205.8091 -7525.4502 298.6648 484.5788 564.7823 30475.1263 38.7592 98.1590
ENERGY: 1200000 4.2492 9.6044 5.1473 0.0000 -10721.9796 1444.6732 0.0000 0.0000 1787.0619 -7471.2435 302.4350 -9258.3054 -7527.4097 298.7055 262.8991 260.6388 30725.9961 94.0262 153.0461
ENERGY: 1500000 1.2192 9.2323 5.8843 0.0000 -10870.1711 1555.8764 0.0000 0.0000 1785.2792 -7512.6798 302.1333 -9297.9590 -7528.1124 298.4245 955.4611 959.6935 30462.4675 129.3970 183.9044
TCL: Running FEP window   3: Lambda1 0.8999999999999999 Lambda2 0.8499999999999999 [dLambda -0.050000000000000044]
TCL: Setting parameter firsttimestep to 0
TCL: Setting parameter alchLambda to 0.8999999999999999
Info: NONBONDED TABLE R-SQUARED SPACING: 0.0625
Info: NONBONDED TABLE SIZE: 705 POINTS
TCL: Setting parameter alchLambda2 to 0.8499999999999999
Info: NONBONDED TABLE R-SQUARED SPACING: 0.0625
Info: NONBONDED TABLE SIZE: 705 POINTS
TCL: Running for 1500000 steps
ETITLE: TS BOND ANGLE DIHED IMPRP ELECT VDW BOUNDARY MISC KINETIC TOTAL TEMP POTENTIAL TOTALAVG TEMPAVG PRESSURE GPRESSURE VOLUME PRESSAVG GPRESSAVG
ENERGY: 0 1.2192 9.2323 5.8843 0.0000 -10868.7568 1556.0121 0.0000 0.0000 1784.3598 -7512.0491 301.9777 -9296.4089 -7512.0491 301.9777 851.5694 951.2502 30462.4675 851.5694 951.2502
ENERGY: 300000 0.9306 6.8241 5.8951 0.0000 -10767.7961 1419.0040 0.0000 0.0000 1731.9881 -7603.1543 293.1145 -9335.1424 -7560.5322 296.6045 -461.9630 -371.2167 30758.4766 214.4625 278.2223
ENERGY: 600000 0.8910 12.2090 5.9372 0.0000 -10727.2541 1431.0827 0.0000 0.0000 1802.5992 -7474.5350 305.0645 -9277.1342 -7525.9665 301.3647 8.5818 9.5961 30654.1037 173.2339 235.6970
ENERGY: 900000 3.4945 11.4282 5.5468 0.0000 -10769.0325 1427.9036 0.0000 0.0000 1760.9010 -7559.7583 298.0076 -9320.6593 -7518.3936 300.7445 -71.6920 -1.6157 30149.1797 115.4515 182.0001
ENERGY: 1200000 1.2961 11.1897 5.2490 0.0000 -10727.5336 1484.6862 0.0000 0.0000 1729.6219 -7495.4908 292.7141 -9225.1127 -7515.7669 298.9709 223.3537 299.1350 31018.3983 84.0644 146.4999
ENERGY: 1500000 0.4672 10.8381 4.6902 0.0000 -10791.2736 1462.1993 0.0000 0.0000 1714.0818 -7598.9969 290.0842 -9313.0788 -7526.7893 298.8613 -69.8914 -45.5161 30878.4652 71.2102 131.9568
TCL: Running FEP window   4: Lambda1 0.8499999999999999 Lambda2 0.7999999999999998 [dLambda -0.050000000000000044]
TCL: Setting parameter firsttimestep to 0
TCL: Setting parameter alchLambda to 0.8499999999999999
Info: NONBONDED TABLE R-SQUARED SPACING: 0.0625
Info: NONBONDED TABLE SIZE: 705 POINTS
TCL: Setting parameter alchLambda2 to 0.7999999999999998
Info: NONBONDED TABLE R-SQUARED SPACING: 0.0625
Info: NONBONDED TABLE SIZE: 705 POINTS
TCL: Running for 1500000 steps
ETITLE: TS BOND ANGLE DIHED IMPRP ELECT VDW BOUNDARY MISC KINETIC TOTAL TEMP POTENTIAL TOTALAVG TEMPAVG PRESSURE GPRESSURE VOLUME PRESSAVG GPRESSAVG
ENERGY: 0 0.4672 10.8381 4.6902 0.0000 -10789.8355 1462.1359 0.0000 0.0000 1713.2095 -7598.4946 289.9365 -9311.7041 -7598.4946 289.9365 -144.1086 -56.6432 30878.4652 -144.1086 -56.6432
ENERGY: 300000 0.5935 10.1726 4.8067 0.0000 -10748.5641 1445.7807 0.0000 0.0000 1761.4802 -7525.7304 298.1057 -9287.2107 -7568.7197 294.0052 115.7476 204.2004 30644.6066 -309.6905 -235.9180
ENERGY: 600000 1.1786 8.2440 4.8498 0.0000 -10740.2037 1465.0362 0.0000 0.0000 1848.2976 -7412.5975 312.7983 -9260.8951 -7528.4211 298.2583 424.1942 476.0663 30297.7925 19.6372 88.3270
ENERGY: 900000 0.2825 6.9987 5.6797 0.0000 -10661.0149 1423.9230 0.0000 0.0000 1752.8547 -7471.2763 296.6459 -9224.1310 -7516.5749 298.9820 145.2857 261.1249 30514.5236 108.4795 176.6303
ENERGY: 1200000 0.6283 12.2335 5.3802 0.0000 -10891.8377 1479.1506 0.0000 0.0000 1800.6207 -7593.8244 304.7296 -9394.4451 -7518.8239 299.5321 136.8775 177.3450 30459.2271 246.5082 313.7327
ENERGY: 1500000 3.3564 7.8424 5.2201 0.0000 -10738.2657 1401.1930 0.0000 0.0000 1757.1867 -7563.4670 297.3790 -9320.6538 -7522.3778 299.6751 -261.5964 -176.5117 30059.3052 149.8301 221.8911
TCL: Running FEP window   5: Lambda1 0.7999999999999998 Lambda2 0.7499999999999998 [dLambda -0.050000000000000044]
TCL: Setting parameter firsttimestep to 0
TCL: Setting parameter alchLambda to 0.7999999999999998
Info: NONBONDED TABLE R-SQUARED SPACING: 0.0625
Info: NONBONDED TABLE SIZE: 705 POINTS
TCL: Setting parameter alchLambda2 to 0.7499999999999998
Info: NONBONDED TABLE R-SQUARED SPACING: 0.0625
Info: NONBONDED TABLE SIZE: 705 POINTS
TCL: Running for 1500000 steps
ETITLE: TS BOND ANGLE DIHED IMPRP ELECT VDW BOUNDARY MISC KINETIC TOTAL TEMP POTENTIAL TOTALAVG TEMPAVG PRESSURE GPRESSURE VOLUME PRESSAVG GPRESSAVG
ENERGY: 0 3.3564 7.8424 5.2201 0.0000 -10736.7948 1400.4345 0.0000 0.0000 1756.2781 -7563.6633 297.2253 -9319.9414 -7563.6633 297.2253 -276.6602 -192.4273 30059.3052 -276.6602 -192.4273
ENERGY: 300000 1.3870 8.7101 5.0786 0.0000 -10734.8798 1483.8723 0.0000 0.0000 1782.1816 -7453.6501 301.6091 -9235.8317 -7522.1265 300.2396 914.9851 968.8030 30202.4583 340.9012 406.8623
ENERGY: 600000 1.9875 14.5207 5.0085 0.0000 -10760.7486 1482.5322 0.0000 0.0000 1783.2407 -7473.4589 301.7883 -9256.6996 -7508.5520 300.5144 246.9218 293.1498 31021.1287 213.5250 276.0153
ENERGY: 900000 1.0080 7.7184 6.4765 0.0000 -10826.4337 1507.8050 0.0000 0.0000 1790.0008 -7513.4251 302.9324 -9303.4258 -7498.6731 300.9683 726.3885 727.5614 30148.4984 130.4272 202.5626
ENERGY: 1200000 1.1359 11.7910 5.0816 0.0000 -10603.4555 1408.4602 0.0000 0.0000 1775.1455 -7401.8413 300.4183 -9176.9868 -7489.2364 300.7663 -227.2278 -148.4551 31187.6913 124.8960 191.6916
ENERGY: 1500000 1.2204 9.2884 5.5317 0.0000 -10785.2154 1382.8050 0.0000 0.0000 1756.1908 -7630.1792 297.2105 -9386.3700 -7497.3868 301.6342 -642.4523 -558.5573 30312.0944 78.6296 146.7623
TCL: Running FEP window   6: Lambda1 0.7499999999999998 Lambda2 0.6999999999999997 [dLambda -0.050000000000000044]
TCL: Setting parameter firsttimestep to 0
TCL: Setting parameter alchLambda to 0.7499999999999998
Info: NONBONDED TABLE R-SQUARED SPACING: 0.0625
Info: NONBONDED TABLE SIZE: 705 POINTS
TCL: Setting parameter alchLambda2 to 0.6999999999999997
Info: NONBONDED TABLE R-SQUARED SPACING: 0.0625
Info: NONBONDED TABLE SIZE: 705 POINTS
TCL: Running for 1500000 steps
ETITLE: TS BOND ANGLE DIHED IMPRP ELECT VDW BOUNDARY MISC KINETIC TOTAL TEMP POTENTIAL TOTALAVG TEMPAVG PRESSURE GPRESSURE VOLUME PRESSAVG GPRESSAVG
ENERGY: 0 1.2204 9.2884 5.5317 0.0000 -10784.8862 1382.7472 0.0000 0.0000 1755.3259 -7630.7727 297.0641 -9386.0986 -7630.7727 297.0641 -645.9217 -569.4053 30312.0944 -645.9217 -569.4053
ENERGY: 300000 1.0835 10.1880 5.3518 0.0000 -10823.5890 1518.6638 0.0000 0.0000 1699.8804 -7588.4215 287.6808 -9288.3019 -7571.1189 296.8731 484.8986 555.8936 30470.0327 -134.1710 -59.3082
ENERGY: 600000 0.6241 12.2896 6.8239 0.0000 -10736.7282 1420.0039 0.0000 0.0000 1779.9581 -7517.0287 301.2328 -9296.9867 -7557.6796 298.7636 -212.3184 -170.1950 30665.9015 -67.1464 9.7116
ENERGY: 900000 0.5563 10.2037 5.6836 0.0000 -10801.9803 1515.8668 0.0000 0.0000 1785.6607 -7484.0092 302.1979 -9269.6698 -7528.7893 301.2646 656.0873 781.3105 30460.6740 -28.4248 46.6951
ENERGY: 1200000 1.4890 3.0982 5.9435 0.0000 -10786.2818 1477.4973 0.0000 0.0000 1770.7048 -7527.5490 299.6668 -9298.2538 -7532.8985 301.0888 660.8497 692.1211 30145.7511 83.0404 149.0342
ENERGY: 1500000 1.5812 11.1383 6.5123 0.0000 -10746.9461 1381.2210 0.0000 0.0000 1788.9284 -7557.5649 302.7509 -9346.4933 -7527.9197 301.4820 -495.3856 -456.2092 30381.8327 55.9433 121.0067
TCL: Running FEP window   7: Lambda1 0.6999999999999997 Lambda2 0.6499999999999997 [dLambda -0.050000000000000044]
TCL: Setting parameter firsttimestep to 0
TCL: Setting parameter alchLambda to 0.6999999999999997
Info: NONBONDED TABLE R-SQUARED SPACING: 0.0625
Info: NONBONDED TABLE SIZE: 705 POINTS
TCL: Setting parameter alchLambda2 to 0.6499999999999997
Info: NONBONDED TABLE R-SQUARED SPACING: 0.0625
Info: NONBONDED TABLE SIZE: 705 POINTS
TCL: Running for 1500000 steps
ETITLE: TS BOND ANGLE DIHED IMPRP ELECT VDW BOUNDARY MISC KINETIC TOTAL TEMP POTENTIAL TOTALAVG TEMPAVG PRESSURE GPRESSURE VOLUME PRESSAVG GPRESSAVG
ENERGY: 0 1.5812 11.1383 6.5123 0.0000 -10745.9064 1380.4099 0.0000 0.0000 1788.0479 -7558.2168 302.6019 -9346.2647 -7558.2168 302.6019 -541.7331 -473.5045 30381.8327 -541.7331 -473.5045
ENERGY: 300000 0.3183 9.4425 6.3066 0.0000 -10857.0225 1533.6456 0.0000 0.0000 1772.0911 -7535.2184 299.9014 -9307.3095 -7519.9542 300.8012 636.3898 657.2021 30611.1183 78.9053 129.7969
ENERGY: 600000 2.4334 11.7052 7.6880 0.0000 -10798.7820 1402.9876 0.0000 0.0000 1789.1684 -7584.7993 302.7915 -9373.9677 -7521.9731 301.5184 -841.4112 -760.3035 30927.4411 -221.2794 -173.7968
ENERGY: 900000 1.2647 7.2919 6.1197 0.0000 -10874.4322 1503.0966 0.0000 0.0000 1786.9698 -7569.6895 302.4194 -9356.6593 -7531.1294 301.7660 522.0971 638.3095 29906.9178 -1.0106 61.0241
ENERGY: 1200000 3.6144 7.3512 4.9816 0.0000 -10847.3582 1520.3216 0.0000 0.0000 1757.9119 -7553.1774 297.5018 -9311.0893 -7523.5034 302.1164 658.8873 680.5893 30457.6999 -60.5649 1.2262
ENERGY: 1500000 3.1715 10.7015 4.9730 0.0000 -10727.2557 1428.5417 0.0000 0.0000 1802.2752 -7477.5929 305.0096 -9279.8680 -7520.1919 302.3920 -303.3197 -222.1145 30836.6732 -85.5463 -20.9760
TCL: Running FEP window   8: Lambda1 0.6499999999999997 Lambda2 0.5999999999999996 [dLambda -0.050000000000000044]
TCL: Setting parameter firsttimestep to 0
TCL: Setting parameter alchLambda to 0.6499999999999997
Info: NONBONDED TABLE R-SQUARED SPACING: 0.0625
Info: NONBONDED TABLE SIZE: 705 POINTS
TCL: Setting parameter alchLambda2 to 0.5999999999999996
Info: NONBONDED TABLE R-SQUARED SPACING: 0.0625
Info: NONBONDED TABLE SIZE: 705 POINTS
TCL: Running for 1500000 steps
ETITLE: TS BOND ANGLE DIHED IMPRP ELECT VDW BOUNDARY MISC KINETIC TOTAL TEMP POTENTIAL TOTALAVG TEMPAVG PRESSURE GPRESSURE VOLUME PRESSAVG GPRESSAVG
ENERGY: 0 3.1715 10.7015 4.9730 0.0000 -10725.0876 1428.0146 0.0000 0.0000 1801.3870 -7476.8400 304.8593 -9278.2269 -7476.8400 304.8593 -311.0195 -229.1534 30836.6732 -311.0195 -229.1534
ENERGY: 300000 0.5895 10.0614 5.8617 0.0000 -10625.7446 1372.6653 0.0000 0.0000 1770.2043 -7466.3625 299.5821 -9236.5667 -7478.9219 303.3294 -494.9667 -484.2903 30792.0303 -228.0431 -176.4805
ENERGY: 600000 0.9407 12.2356 4.4907 0.0000 -10743.4072 1435.0136 0.0000 0.0000 1739.0994 -7551.6271 294.3180 -9290.7265 -7494.4509 302.2384 -87.4684 -33.4023 30681.4496 -105.3686 -49.6811
ENERGY: 900000 3.0967 9.9298 5.9551 0.0000 -10837.1376 1521.5736 0.0000 0.0000 1798.0149 -7498.5676 304.2886 -9296.5825 -7501.9557 301.5890 787.0561 831.7752 29918.0327 32.8154 87.0962
ENERGY: 1200000 2.1808 12.5602 5.3898 0.0000 -10754.3908 1429.7249 0.0000 0.0000 1771.6769 -7532.8582 299.8313 -9304.5350 -7507.0816 300.8318 -238.2762 -129.1864 30393.6459 6.7283 65.0783
ENERGY: 1500000 2.8470 12.9300 5.0393 0.0000 -10719.1755 1470.7054 0.0000 0.0000 1750.5028 -7477.1510 296.2479 -9227.6538 -7508.4970 301.0231 249.5395 325.9357 30459.4999 2.9176 63.8426
TCL: Running FEP window   9: Lambda1 0.5999999999999996 Lambda2 0.5499999999999996 [dLambda -0.050000000000000044]
TCL: Setting parameter firsttimestep to 0
TCL: Setting parameter alchLambda to 0.5999999999999996
Info: NONBONDED TABLE R-SQUARED SPACING: 0.0625
Info: NONBONDED TABLE SIZE: 705 POINTS
TCL: Setting parameter alchLambda2 to 0.5499999999999996
Info: NONBONDED TABLE R-SQUARED SPACING: 0.0625
Info: NONBONDED TABLE SIZE: 705 POINTS
TCL: Running for 1500000 steps
ETITLE: TS BOND ANGLE DIHED IMPRP ELECT VDW BOUNDARY MISC KINETIC TOTAL TEMP POTENTIAL TOTALAVG TEMPAVG PRESSURE GPRESSURE VOLUME PRESSAVG GPRESSAVG
ENERGY: 0 2.8470 12.9300 5.0393 0.0000 -10718.8079 1471.0972 0.0000 0.0000 1749.6106 -7477.2838 296.0969 -9226.8945 -7477.2838 296.0969 240.0072 321.6530 30459.4999 240.0072 321.6530
ENERGY: 300000 1.0585 12.5808 5.2238 0.0000 -10673.6361 1378.0808 0.0000 0.0000 1722.6173 -7554.0748 291.5287 -9276.6922 -7499.4122 297.9515 -293.3350 -279.8836 30242.6033 -324.5944 -257.8935
ENERGY: 600000 1.3201 9.0000 4.9816 0.0000 -10744.8895 1474.0560 0.0000 0.0000 1796.1920 -7459.3398 303.9801 -9255.5317 -7505.3683 299.2284 171.1955 268.7300 30710.5933 -225.1515 -149.6753
ENERGY: 900000 2.3061 11.3673 4.8542 0.0000 -10752.7393 1411.3669 0.0000 0.0000 1755.7524 -7567.0925 297.1363 -9322.8449 -7521.2259 299.5682 -217.5246 -50.2478 29914.9332 -196.8689 -109.6380
ENERGY: 1200000 1.9551 10.6133 5.3851 0.0000 -10711.6439 1369.9533 0.0000 0.0000 1721.3596 -7602.3774 291.3158 -9323.7370 -7522.0822 298.8438 -740.2074 -674.8436 30593.2001 -202.8678 -122.6884
ENERGY: 1500000 2.9525 9.2953 5.6053 0.0000 -10813.1558 1422.4856 0.0000 0.0000 1759.6020 -7613.2152 297.7878 -9372.8172 -7516.6147 299.8627 -585.4063 -474.8150 30484.2576 -173.0632 -94.0134
TCL: Running FEP window  10: Lambda1 0.5499999999999996 Lambda2 0.4999999999999996 [dLambda -0.04999999999999999]
TCL: Setting parameter firsttimestep to 0
TCL: Setting parameter alchLambda to 0.5499999999999996
Info: NONBONDED TABLE R-SQUARED SPACING: 0.0625
Info: NONBONDED TABLE SIZE: 705 POINTS
TCL: Setting parameter alchLambda2 to 0.4999999999999996
Info: NONBONDED TABLE R-SQUARED SPACING: 0.0625
Info: NONBONDED TABLE SIZE: 705 POINTS
TCL: Running for 1500000 steps
ETITLE: TS BOND ANGLE DIHED IMPRP ELECT VDW BOUNDARY MISC KINETIC TOTAL TEMP POTENTIAL TOTALAVG TEMPAVG PRESSURE GPRESSURE VOLUME PRESSAVG GPRESSAVG
ENERGY: 0 2.9525 9.2953 5.6053 0.0000 -10813.0138 1422.7938 0.0000 0.0000 1758.7196 -7613.6474 297.6385 -9372.3670 -7613.6474 297.6385 -573.2439 -480.8834 30484.2576 -573.2439 -480.8834
ENERGY: 300000 1.9625 12.3490 5.4635 0.0000 -10754.9642 1531.1755 0.0000 0.0000 1739.8896 -7464.1242 294.4517 -9204.0137 -7513.5017 297.9531 740.7365 859.7851 30645.1596 -3.7146 92.6895
ENERGY: 600000 1.2999 9.4915 5.5617 0.0000 -10823.4453 1498.8880 0.0000 0.0000 1804.2666 -7503.9376 305.3466 -9308.2042 -7506.5692 300.1905 425.8513 508.7371 30441.7508 32.6997 127.1238
ENERGY: 900000 2.4783 6.3751 5.4192 0.0000 -10611.7310 1386.7136 0.0000 0.0000 1772.2935 -7438.4513 299.9357 -9210.7448 -7504.5548 300.3399 -348.3798 -299.0999 30884.9038 -5.4735 80.7347
ENERGY: 1200000 3.6249 6.5403 5.4787 0.0000 -10759.2581 1438.1055 0.0000 0.0000 1794.3053 -7511.2034 303.6608 -9305.5087 -7519.1663 300.8317 -146.3906 -95.9312 30495.4500 -8.1106 77.1613
ENERGY: 1500000 0.9139 13.6644 5.4346 0.0000 -10691.8828 1381.4721 0.0000 0.0000 1738.9768 -7551.4211 294.2973 -9290.3979 -7527.8127 300.6704 -410.0891 -322.1113 30281.4935 -39.3184 46.1681
TCL: Running FEP window  11: Lambda1 0.4999999999999996 Lambda2 0.4499999999999996 [dLambda -0.04999999999999999]
TCL: Setting parameter firsttimestep to 0
TCL: Setting parameter alchLambda to 0.4999999999999996
Info: NONBONDED TABLE R-SQUARED SPACING: 0.0625
Info: NONBONDED TABLE SIZE: 705 POINTS
TCL: Setting parameter alchLambda2 to 0.4499999999999996
Info: NONBONDED TABLE R-SQUARED SPACING: 0.0625
Info: NONBONDED TABLE SIZE: 705 POINTS
TCL: Running for 1500000 steps
ETITLE: TS BOND ANGLE DIHED IMPRP ELECT VDW BOUNDARY MISC KINETIC TOTAL TEMP POTENTIAL TOTALAVG TEMPAVG PRESSURE GPRESSURE VOLUME PRESSAVG GPRESSAVG
ENERGY: 0 0.9139 13.6644 5.4346 0.0000 -10691.9916 1381.7365 0.0000 0.0000 1738.1065 -7552.1358 294.1500 -9290.2423 -7552.1358 294.1500 -417.4651 -324.9698 30281.4935 -417.4651 -324.9698
ENERGY: 300000 0.8426 8.4285 5.1577 0.0000 -10710.4211 1431.9535 0.0000 0.0000 1754.5528 -7509.4860 296.9333 -9264.0388 -7555.1020 294.0135 -251.5792 -167.5599 30687.3572 -302.7476 -220.1050
ENERGY: 600000 1.0871 13.5274 6.2175 0.0000 -10854.1818 1424.3948 0.0000 0.0000 1762.7470 -7646.2080 298.3200 -9408.9550 -7555.8151 294.4275 -307.6332 -264.6349 30038.4687 -149.2866 -81.7005
ENERGY: 900000 4.0810 6.6307 4.4292 0.0000 -10786.9845 1405.0633 0.0000 0.0000 1808.4402 -7558.3400 306.0530 -9366.7802 -7551.4870 296.6109 -361.2413 -297.5813 30133.1799 -249.3247 -180.8356
ENERGY: 1200000 1.7817 11.0711 5.2458 0.0000 -10774.6424 1454.2232 0.0000 0.0000 1846.5558 -7455.7648 312.5035 -9302.3206 -7536.4774 298.0333 -112.2811 -16.1894 30719.2996 -225.0589 -167.5765
ENERGY: 1500000 1.0314 6.3859 5.1131 0.0000 -10728.4728 1439.9711 0.0000 0.0000 1752.9202 -7523.0511 296.6570 -9275.9714 -7534.1143 298.5957 193.0008 209.2514 30154.2094 -219.4384 -161.9644
TCL: Running FEP window  12: Lambda1 0.4499999999999996 Lambda2 0.39999999999999963 [dLambda -0.04999999999999999]
TCL: Setting parameter firsttimestep to 0
TCL: Setting parameter alchLambda to 0.4499999999999996
Info: NONBONDED TABLE R-SQUARED SPACING: 0.0625
Info: NONBONDED TABLE SIZE: 705 POINTS
TCL: Setting parameter alchLambda2 to 0.39999999999999963
Info: NONBONDED TABLE R-SQUARED SPACING: 0.0625
Info: NONBONDED TABLE SIZE: 705 POINTS
TCL: Running for 1500000 steps
ETITLE: TS BOND ANGLE DIHED IMPRP ELECT VDW BOUNDARY MISC KINETIC TOTAL TEMP POTENTIAL TOTALAVG TEMPAVG PRESSURE GPRESSURE VOLUME PRESSAVG GPRESSAVG
ENERGY: 0 1.0314 6.3859 5.1131 0.0000 -10728.4727 1440.1867 0.0000 0.0000 1752.0449 -7523.7107 296.5089 -9275.7556 -7523.7107 296.5089 118.4943 202.1139 30154.2094 118.4943 202.1139
ENERGY: 300000 3.1791 11.1147 5.0123 0.0000 -10763.2504 1525.9326 0.0000 0.0000 1743.6010 -7474.4108 295.0798 -9218.0117 -7531.4312 296.7642 614.4856 734.8151 30495.5917 187.5613 258.0853
ENERGY: 600000 1.5390 11.0146 5.9511 0.0000 -10679.2710 1419.6253 0.0000 0.0000 1729.6312 -7511.5099 292.7157 -9241.1410 -7520.2286 298.2417 -330.4369 -217.6802 30925.9724 -101.1713 -19.7293
ENERGY: 900000 1.9205 11.6607 5.4648 0.0000 -10729.2814 1436.1615 0.0000 0.0000 1822.9773 -7451.0966 308.5132 -9274.0738 -7508.5014 299.7817 -232.6552 -204.5762 30741.6322 -70.5263 -2.4712
ENERGY: 1200000 2.6961 7.4059 6.2257 0.0000 -10787.2288 1481.5623 0.0000 0.0000 1818.9088 -7470.4300 307.8246 -9289.3389 -7503.5804 299.9526 279.5295 314.7562 30506.1834 8.3782 66.4180
ENERGY: 1500000 2.6368 11.3177 7.9671 0.0000 -10734.6592 1487.1234 0.0000 0.0000 1766.1490 -7459.4652 298.8958 -9225.6141 -7494.8821 300.3321 132.2284 264.9826 30946.8202 52.7906 118.5555
TCL: Running FEP window  13: Lambda1 0.39999999999999963 Lambda2 0.34999999999999964 [dLambda -0.04999999999999999]
TCL: Setting parameter firsttimestep to 0
TCL: Setting parameter alchLambda to 0.39999999999999963
Info: NONBONDED TABLE R-SQUARED SPACING: 0.0625
Info: NONBONDED TABLE SIZE: 705 POINTS
TCL: Setting parameter alchLambda2 to 0.34999999999999964
Info: NONBONDED TABLE R-SQUARED SPACING: 0.0625
Info: NONBONDED TABLE SIZE: 705 POINTS
TCL: Running for 1500000 steps
ETITLE: TS BOND ANGLE DIHED IMPRP ELECT VDW BOUNDARY MISC KINETIC TOTAL TEMP POTENTIAL TOTALAVG TEMPAVG PRESSURE GPRESSURE VOLUME PRESSAVG GPRESSAVG
ENERGY: 0 2.6368 11.3177 7.9671 0.0000 -10734.6602 1487.4380 0.0000 0.0000 1765.2687 -7460.0318 298.7468 -9225.3005 -7460.0318 298.7468 177.2581 259.5514 30946.8202 177.2581 259.5514
ENERGY: 300000 2.7592 11.3749 4.8221 0.0000 -10620.8634 1394.1528 0.0000 0.0000 1761.3043 -7446.4502 298.0759 -9207.7545 -7478.4175 300.3852 -552.9686 -437.1764 30826.7731 -237.7148 -146.4694
ENERGY: 600000 0.8037 9.9856 5.3966 0.0000 -10727.1373 1443.3320 0.0000 0.0000 1824.8357 -7442.7837 308.8277 -9267.6194 -7476.3042 299.6432 259.7851 299.7776 30192.4957 -39.3456 28.9568
ENERGY: 900000 0.8320 9.8443 5.0057 0.0000 -10610.9360 1358.5899 0.0000 0.0000 1811.0916 -7425.5725 306.5017 -9236.6641 -7484.5015 300.3825 -726.3745 -645.1325 30837.5267 -95.1316 -26.1771
ENERGY: 1200000 3.0866 7.5404 4.3513 0.0000 -10623.9816 1338.5820 0.0000 0.0000 1801.5300 -7468.8914 304.8835 -9270.4214 -7497.8424 299.8572 -686.8907 -687.9161 30972.1400 -201.4600 -141.9721
ENERGY: 1500000 0.4206 7.2770 6.0998 0.0000 -10749.3776 1386.6044 0.0000 0.0000 1849.1382 -7499.8377 312.9405 -9348.9759 -7487.9155 301.7707 -568.6053 -491.5862 30615.7515 -172.8711 -110.3404
TCL: Running FEP window  14: Lambda1 0.34999999999999964 Lambda2 0.29999999999999966 [dLambda -0.04999999999999999]
TCL: Setting parameter firsttimestep to 0
TCL: Setting parameter alchLambda to 0.34999999999999964
Info: NONBONDED TABLE R-SQUARED SPACING: 0.0625
Info: NONBONDED TABLE SIZE: 705 POINTS
TCL: Setting parameter alchLambda2 to 0.29999999999999966
Info: NONBONDED TABLE R-SQUARED SPACING: 0.0625
Info: NONBONDED TABLE SIZE: 705 POINTS
TCL: Running for 1500000 steps
ETITLE: TS BOND ANGLE DIHED IMPRP ELECT VDW BOUNDARY MISC KINETIC TOTAL TEMP POTENTIAL TOTALAVG TEMPAVG PRESSURE GPRESSURE VOLUME PRESSAVG GPRESSAVG
ENERGY: 0 0.4206 7.2770 6.0998 0.0000 -10749.3786 1386.6585 0.0000 0.0000 1848.2403 -7500.6825 312.7886 -9348.9227 -7500.6825 312.7886 -597.4444 -497.9689 30615.7515 -597.4444 -497.9689
ENERGY: 300000 2.9954 9.3852 5.9437 0.0000 -10741.6022 1473.0702 0.0000 0.0000 1751.7254 -7498.4822 296.4548 -9250.2077 -7454.7057 302.3916 339.5100 363.9104 30422.4554 -22.1156 16.1283
ENERGY: 600000 7.6106 11.6394 6.7544 0.0000 -10739.7243 1526.5036 0.0000 0.0000 1844.7606 -7342.4557 312.1997 -9187.2163 -7473.4492 301.0137 679.6692 801.2539 30545.8449 126.4107 190.1587
ENERGY: 900000 1.3382 7.6552 5.6591 0.0000 -10784.0298 1441.7036 0.0000 0.0000 1761.9506 -7565.7231 298.1853 -9327.6737 -7479.7510 301.4001 -152.6015 -73.1642 30492.8594 28.2222 99.2738
ENERGY: 1200000 1.5253 8.6668 6.4108 0.0000 -10804.2255 1417.2424 0.0000 0.0000 1808.5358 -7561.8444 306.0691 -9370.3802 -7482.9173 302.3034 -251.4827 -216.5084 29982.9259 -51.7190 10.5676
ENERGY: 1500000 1.7943 10.3430 6.6331 0.0000 -10742.1050 1457.9081 0.0000 0.0000 1787.5066 -7477.9199 302.5103 -9265.4266 -7482.7234 301.4171 154.1547 143.7240 30621.6995 -127.7815 -66.5729
TCL: Running FEP window  15: Lambda1 0.29999999999999966 Lambda2 0.24999999999999967 [dLambda -0.04999999999999999]
TCL: Setting parameter firsttimestep to 0
TCL: Setting parameter alchLambda to 0.29999999999999966
Info: NONBONDED TABLE R-SQUARED SPACING: 0.0625
Info: NONBONDED TABLE SIZE: 705 POINTS
TCL: Setting parameter alchLambda2 to 0.24999999999999967
Info: NONBONDED TABLE R-SQUARED SPACING: 0.0625
Info: NONBONDED TABLE SIZE: 705 POINTS
TCL: Running for 1500000 steps
ETITLE: TS BOND ANGLE DIHED IMPRP ELECT VDW BOUNDARY MISC KINETIC TOTAL TEMP POTENTIAL TOTALAVG TEMPAVG PRESSURE GPRESSURE VOLUME PRESSAVG GPRESSAVG
ENERGY: 0 1.7943 10.3430 6.6331 0.0000 -10742.1062 1458.0259 0.0000 0.0000 1786.5934 -7478.7165 302.3557 -9265.3100 -7478.7165 302.3557 44.1473 137.7409 30621.6995 44.1473 137.7409
ENERGY: 300000 2.3689 12.4807 5.5938 0.0000 -10725.8670 1455.5019 0.0000 0.0000 1736.0374 -7513.8843 293.7998 -9249.9217 -7500.8760 300.6167 74.9263 155.5148 30359.3018 -144.5483 -70.7030
ENERGY: 600000 1.4126 7.4759 5.0832 0.0000 -10739.4205 1445.7065 0.0000 0.0000 1834.5219 -7445.2203 310.4669 -9279.7422 -7501.4938 300.9836 30.8131 157.0036 30581.0780 -115.1162 -48.6793
ENERGY: 900000 3.5034 10.3697 5.3329 0.0000 -10633.4773 1313.0829 0.0000 0.0000 1764.5011 -7536.6874 298.6169 -9301.1884 -7504.6634 299.4210 -1248.5238 -1180.6824 30880.3689 -316.5379 -249.5536
ENERGY: 1200000 0.3898 10.9842 6.0609 0.0000 -10884.1734 1582.7147 0.0000 0.0000 1771.8999 -7512.1239 299.8690 -9284.0238 -7511.1941 299.0468 1082.5498 1109.9065 30394.9267 -121.6404 -60.1788
ENERGY: 1500000 3.6146 8.7824 5.2876 0.0000 -10718.6613 1467.8324 0.0000 0.0000 1814.6146 -7418.5297 307.0979 -9233.1443 -7508.3529 299.1168 102.1886 110.1674 30638.7325 -70.9758 -7.4994
TCL: Running FEP window  16: Lambda1 0.24999999999999967 Lambda2 0.19999999999999968 [dLambda -0.04999999999999999]
TCL: Setting parameter firsttimestep to 0
TCL: Setting parameter alchLambda to 0.24999999999999967
Info: NONBONDED TABLE R-SQUARED SPACING: 0.0625
Info: NONBONDED TABLE SIZE: 705 POINTS
TCL: Setting parameter alchLambda2 to 0.19999999999999968
Info: NONBONDED TABLE R-SQUARED SPACING: 0.0625
Info: NONBONDED TABLE SIZE: 705 POINTS
TCL: Running for 1500000 steps
ETITLE: TS BOND ANGLE DIHED IMPRP ELECT VDW BOUNDARY MISC KINETIC TOTAL TEMP POTENTIAL TOTALAVG TEMPAVG PRESSURE GPRESSURE VOLUME PRESSAVG GPRESSAVG
ENERGY: 0 3.6146 8.7824 5.2876 0.0000 -10718.6605 1466.9758 0.0000 0.0000 1813.7491 -7420.2510 306.9514 -9234.0001 -7420.2510 306.9514 3.2997 100.1323 30638.7325 3.2997 100.1323
ENERGY: 300000 0.2651 14.5535 5.1997 0.0000 -10726.7931 1425.2708 0.0000 0.0000 1829.0272 -7452.4768 309.5370 -9281.5040 -7490.8006 303.7545 -444.3578 -363.6730 30864.2447 -388.2630 -319.9250
ENERGY: 600000 2.0368 15.8274 4.6943 0.0000 -10803.0012 1423.2633 0.0000 0.0000 1795.5631 -7561.6164 303.8737 -9357.1795 -7519.2171 300.9324 -408.0228 -386.7038 30689.4435 -514.5301 -462.9455
ENERGY: 900000 3.0638 10.7077 5.8359 0.0000 -10782.0349 1544.5153 0.0000 0.0000 1744.9220 -7472.9902 295.3034 -9217.9122 -7528.2924 299.5029 967.2000 948.5649 30360.4526 -234.2377 -192.1067
ENERGY: 1200000 1.1213 11.0304 7.1972 0.0000 -10709.8120 1492.1789 0.0000 0.0000 1749.9710 -7448.3132 296.1579 -9198.2843 -7523.7340 299.4477 514.1841 632.7220 30485.1737 -65.4755 -13.3258
ENERGY: 1500000 1.5226 8.5006 6.5515 0.0000 -10824.7930 1514.4559 0.0000 0.0000 1764.7087 -7529.0536 298.6520 -9293.7623 -7527.7496 298.5744 299.7764 455.8179 30442.1376 -65.0630 -3.2829
TCL: Running FEP window  17: Lambda1 0.19999999999999968 Lambda2 0.1499999999999997 [dLambda -0.04999999999999999]
TCL: Setting parameter firsttimestep to 0
TCL: Setting parameter alchLambda to 0.19999999999999968
Info: NONBONDED TABLE R-SQUARED SPACING: 0.0625
Info: NONBONDED TABLE SIZE: 705 POINTS
TCL: Setting parameter alchLambda2 to 0.1499999999999997
Info: NONBONDED TABLE R-SQUARED SPACING: 0.0625
Info: NONBONDED TABLE SIZE: 705 POINTS
TCL: Running for 1500000 steps
ETITLE: TS BOND ANGLE DIHED IMPRP ELECT VDW BOUNDARY MISC KINETIC TOTAL TEMP POTENTIAL TOTALAVG TEMPAVG PRESSURE GPRESSURE VOLUME PRESSAVG GPRESSAVG
ENERGY: 0 1.5226 8.5006 6.5515 0.0000 -10824.7927 1514.6308 0.0000 0.0000 1763.8697 -7529.7175 298.5100 -9293.5872 -7529.7175 298.5100 347.9517 451.3141 30442.1376 347.9517 451.3141
ENERGY: 300000 0.9277 13.2440 5.4099 0.0000 -10659.2899 1396.2823 0.0000 0.0000 1790.8814 -7452.5445 303.0814 -9243.4259 -7506.1595 302.0990 -25.5894 -8.4390 30190.6442 227.2616 274.0549
ENERGY: 600000 5.5550 11.7144 5.0506 0.0000 -10713.1651 1442.3225 0.0000 0.0000 1813.6795 -7434.8430 306.9396 -9248.5225 -7486.4923 304.1069 -147.1570 -112.5563 30943.9299 318.5067 369.6003
ENERGY: 900000 3.2404 9.7731 4.6558 0.0000 -10799.8414 1457.9003 0.0000 0.0000 1708.0877 -7616.1841 289.0697 -9324.2718 -7507.5652 302.4978 -108.5208 -82.4687 30487.5645 246.3222 289.8306
ENERGY: 1200000 1.2852 6.8420 5.4662 0.0000 -10827.7534 1514.2652 0.0000 0.0000 1766.0930 -7533.8017 298.8863 -9299.8947 -7514.4298 301.3440 624.7735 673.2764 30227.9243 208.8160 256.0424
ENERGY: 1500000 4.5166 9.9595 5.9077 0.0000 -10754.4386 1449.5362 0.0000 0.0000 1797.3576 -7487.1610 304.1774 -9284.5186 -7503.4779 301.6960 215.9299 267.8416 30114.9373 139.7429 196.8482
TCL: Running FEP window  18: Lambda1 0.1499999999999997 Lambda2 0.09999999999999969 [dLambda -0.05 ]
TCL: Setting parameter firsttimestep to 0
TCL: Setting parameter alchLambda to 0.1499999999999997
Info: NONBONDED TABLE R-SQUARED SPACING: 0.0625
Info: NONBONDED TABLE SIZE: 705 POINTS
TCL: Setting parameter alchLambda2 to 0.09999999999999969
Info: NONBONDED TABLE R-SQUARED SPACING: 0.0625
Info: NONBONDED TABLE SIZE: 705 POINTS
TCL: Running for 1500000 steps
ETITLE: TS BOND ANGLE DIHED IMPRP ELECT VDW BOUNDARY MISC KINETIC TOTAL TEMP POTENTIAL TOTALAVG TEMPAVG PRESSURE GPRESSURE VOLUME PRESSAVG GPRESSAVG
ENERGY: 0 4.5166 9.9595 5.9077 0.0000 -10754.4382 1449.5328 0.0000 0.0000 1796.5256 -7487.9960 304.0366 -9284.5216 -7487.9960 304.0366 194.1851 265.5674 30114.9373 194.1851 265.5674
ENERGY: 300000 0.9195 11.2460 7.1670 0.0000 -10594.5622 1357.6015 0.0000 0.0000 1741.3564 -7476.2719 294.7000 -9217.6282 -7493.3749 299.5236 -548.8212 -502.1432 30407.9819 -464.0336 -409.8300
ENERGY: 600000 3.1952 9.9469 4.5996 0.0000 -10739.5017 1500.1666 0.0000 0.0000 1725.1469 -7496.4464 291.9568 -9221.5933 -7502.7971 298.2167 574.4471 605.0445 30423.0661 -221.1369 -169.7909
ENERGY: 900000 2.5939 9.8563 5.4974 0.0000 -10734.8754 1488.1026 0.0000 0.0000 1771.3622 -7457.4630 299.7780 -9228.8252 -7492.5359 299.6949 387.3707 384.1175 30614.5513 -162.8985 -118.3151
ENERGY: 1200000 5.1137 11.6695 5.7563 0.0000 -10787.0709 1429.4011 0.0000 0.0000 1796.5974 -7538.5329 304.0487 -9335.1303 -7512.2749 299.4397 -532.4797 -415.2995 30346.9157 -154.1173 -102.3432
ENERGY: 1500000 0.6318 10.5935 6.3957 0.0000 -10782.2295 1472.9446 0.0000 0.0000 1882.4983 -7409.1656 318.5863 -9291.6639 -7513.5122 299.8063 499.1365 553.5073 30004.5905 -82.4701 -34.2095
TCL: Running FEP window  19: Lambda1 0.09999999999999969 Lambda2 0.049999999999999684 [dLambda -0.05 ]
TCL: Setting parameter firsttimestep to 0
TCL: Setting parameter alchLambda to 0.09999999999999969
Info: NONBONDED TABLE R-SQUARED SPACING: 0.0625
Info: NONBONDED TABLE SIZE: 705 POINTS
TCL: Setting parameter alchLambda2 to 0.049999999999999684
Info: NONBONDED TABLE R-SQUARED SPACING: 0.0625
Info: NONBONDED TABLE SIZE: 705 POINTS
TCL: Running for 1500000 steps
ETITLE: TS BOND ANGLE DIHED IMPRP ELECT VDW BOUNDARY MISC KINETIC TOTAL TEMP POTENTIAL TOTALAVG TEMPAVG PRESSURE GPRESSURE VOLUME PRESSAVG GPRESSAVG
ENERGY: 0 0.6318 10.5935 6.3957 0.0000 -10782.2291 1473.3325 0.0000 0.0000 1881.6283 -7409.6472 318.4390 -9291.2756 -7409.6472 318.4390 473.2371 552.5564 30004.5905 473.2371 552.5564
ENERGY: 300000 0.9940 7.5880 5.6884 0.0000 -10819.4707 1492.1781 0.0000 0.0000 1751.6803 -7561.3419 296.4472 -9313.0221 -7483.7236 304.0452 751.2148 811.2472 29825.7717 117.7010 172.9663
ENERGY: 600000 1.5765 11.1712 4.5641 0.0000 -10799.1182 1485.2134 0.0000 0.0000 1733.9393 -7562.6537 293.4447 -9296.5930 -7494.5658 302.0152 -2.0652 13.9725 30868.8886 -63.2321 -14.2878
ENERGY: 900000 1.9994 12.1435 4.5015 0.0000 -10716.0779 1467.1506 0.0000 0.0000 1843.1504 -7387.1324 311.9272 -9230.2828 -7495.7320 302.0146 261.8699 298.4279 30396.0362 -107.2177 -63.1449
ENERGY: 1200000 1.0110 8.4562 5.2053 0.0000 -10857.6770 1513.4372 0.0000 0.0000 1773.3786 -7556.1889 300.1193 -9329.5674 -7516.2951 300.1652 606.7744 675.2092 29653.4385 -1.1985 47.3326
ENERGY: 1500000 1.4886 12.0039 5.7333 0.0000 -10721.2003 1401.1085 0.0000 0.0000 1853.4949 -7447.3712 313.6778 -9300.8660 -7501.4918 301.3137 -209.7326 -119.4007 29983.4194 -77.3251 -21.0666
TCL: Running FEP window  20: Lambda1 0.049999999999999684 Lambda2 0.0    [dLambda -0.049999999999999684]
TCL: Setting parameter firsttimestep to 0
TCL: Setting parameter alchLambda to 0.049999999999999684
Info: NONBONDED TABLE R-SQUARED SPACING: 0.0625
Info: NONBONDED TABLE SIZE: 705 POINTS
TCL: Setting parameter alchLambda2 to 0.0
Info: NONBONDED TABLE R-SQUARED SPACING: 0.0625
Info: NONBONDED TABLE SIZE: 705 POINTS
TCL: Running for 1500000 steps
ETITLE: TS BOND ANGLE DIHED IMPRP ELECT VDW BOUNDARY MISC KINETIC TOTAL TEMP POTENTIAL TOTALAVG TEMPAVG PRESSURE GPRESSURE VOLUME PRESSAVG GPRESSAVG
ENERGY: 0 1.4886 12.0038 5.7333 0.0000 -10721.1990 1400.7884 0.0000 0.0000 1852.6362 -7448.5487 313.5325 -9301.1849 -7448.5487 313.5325 -223.8365 -127.9064 29983.4194 -223.8365 -127.9064
ENERGY: 300000 2.5937 7.1448 5.4531 0.0000 -10676.8266 1457.9318 0.0000 0.0000 1787.9720 -7415.7312 302.5890 -9203.7032 -7460.3959 307.8220 290.8922 299.8843 30603.3506 -23.1722 23.8350
ENERGY: 600000 2.6780 7.6097 7.0273 0.0000 -10739.0379 1455.7697 0.0000 0.0000 1776.7163 -7489.2368 300.6842 -9265.9531 -7481.2218 304.4110 -151.7903 -52.5038 30909.0983 5.7985 50.1794
ENERGY: 900000 2.3104 8.2594 4.8323 0.0000 -10758.1387 1492.9683 0.0000 0.0000 1773.0352 -7476.7332 300.0612 -9249.7684 -7498.0934 302.8104 -104.9364 37.1050 31158.3072 31.3403 97.1634
ENERGY: 1200000 1.8933 10.1858 4.4910 0.0000 -10651.4671 1463.7042 0.0000 0.0000 1829.9930 -7341.1998 309.7005 -9171.1928 -7494.6061 303.0290 400.8949 427.9191 30641.0796 16.0187 81.4545
ENERGY: 1500000 1.2254 9.9042 6.3274 0.0000 -10759.2095 1471.9612 0.0000 0.0000 1704.5566 -7565.2346 288.4721 -9269.7912 -7496.7573 302.1311 150.4545 271.5433 30528.2245 -11.2868 57.0915
TCL: Exiting due to exit command.
