Info: SIMULATION PARAMETERS:
Info: TIMESTEP               2
Info: NUMBER OF STEPS        0
Info: STEPS PER CYCLE        10
Info: PERIODIC CELL BASIS 1  30.6474 0 0
Info: PERIODIC CELL BASIS 2  0 29.67 0
Info: PERIODIC CELL BASIS 3  0 0 32.9013
Info: PERIODIC CELL CENTER   0 0 0
Info: WRAPPING WATERS AROUND PERIODIC BOUNDARIES ON OUTPUT.
Info: WRAPPING ALL CLUSTERS AROUND PERIODIC BOUNDARIES ON OUTPUT.
Info: FIRST LDB TIMESTEP     50
Info: LAST LDB TIMESTEP     -1
Info: HOM BACKGROUND SCALING 1
Info: PME BACKGROUND SCALING 1
Info: MIN ATOMS PER PATCH    40
Info: EMPTY PATCH LOAD       40 ATOMS
Info: VELOCITY FILE          mobley_2484519_equil.vel
Info: CENTER OF MASS MOVING INITIALLY? NO
Info: DIELECTRIC             1
Info: EXCLUDE                SCALED ONE-FOUR
Info: 1-4 ELECTROSTATICS SCALED BY 0.833333
Info: MODIFIED 1-4 VDW PARAMETERS WILL BE USED
Info: DCD FILENAME           mobley_2484519_prod.dcd
Info: DCD FREQUENCY          100000
Info: DCD FIRST STEP         100000
Info: DCD FILE WILL CONTAIN UNIT CELL DATA
Info: XST FILENAME           mobley_2484519_prod.xst
Info: XST FREQUENCY          100000
Info: NO VELOCITY DCD OUTPUT
Info: NO FORCE DCD OUTPUT
Info: OUTPUT FILENAME        mobley_2484519_prod
Info: BINARY OUTPUT FILES WILL BE USED
Info: RESTART FILENAME       mobley_2484519_prod.restart
Info: RESTART FREQUENCY      100000
Info: BINARY RESTART FILES WILL BE USED
Info: CUTOFF                 9
Info: PAIRLIST DISTANCE      11
Info: PAIRLIST SHRINK RATE   0.01
Info: PAIRLIST GROW RATE     0.01
Info: PAIRLIST TRIGGER       0.3
Info: PAIRLISTS PER CYCLE    2
Info: PAIRLISTS ENABLED
Info: MARGIN                 2
Info: HYDROGEN GROUP CUTOFF  2.5
Info: PATCH DIMENSION        15.5
Info: ENERGY OUTPUT STEPS    100000
Info: ENERGY EVALUATION STEPS    100000
Info: OUTPUT ENERGY PRECISION 4
Info: CROSSTERM ENERGY INCLUDED IN DIHEDRAL
Info: TIMING OUTPUT STEPS    1000000
Info: PRESSURE OUTPUT STEPS  100000
Info: ALCHEMICAL FEP ON
Info: FEP CURRENT LAMBDA VALUE     1
Info: FEP COMPARISON LAMBDA VALUE  0.95
Info: FEP INTRA-ALCHEMICAL NON-BONDED INTERACTIONS WILL BE RETAINED
Info: FEP INTRA-ALCHEMICAL BONDED INTERACTIONS WILL BE RETAINED
Info: FEP VDW SHIFTING COEFFICIENT 5
Info: FEP ELEC. ACTIVE FOR ANNIHILATED PARTICLES BETWEEN LAMBDA = 0 AND LAMBDA = 0.5
Info: FEP ELEC. ACTIVE FOR EXNIHILATED PARTICLES BETWEEN LAMBDA = 0.5 AND LAMBDA = 1
Info: FEP VDW ACTIVE FOR ANNIHILATED PARTICLES BETWEEN LAMBDA = 0 AND LAMBDA = 1
Info: FEP VDW ACTIVE FOR EXNIHILATED PARTICLES BETWEEN LAMBDA = 0 AND LAMBDA = 1
Info: FEP BOND ACTIVE FOR ANNIHILATED PARTICLES BETWEEN LAMBDA = 1 AND LAMBDA = 1
Info: FEP BOND ACTIVE FOR EXNIHILATED PARTICLES BETWEEN LAMBDA = 0 AND LAMBDA = 0
Info: LANGEVIN DYNAMICS ACTIVE
Info: LANGEVIN TEMPERATURE   300
Info: LANGEVIN USING BBK INTEGRATOR
Info: LANGEVIN DAMPING COEFFICIENT IS 1 INVERSE PS
Info: LANGEVIN DYNAMICS APPLIED TO HYDROGENS
Info: LANGEVIN PISTON PRESSURE CONTROL ACTIVE
Info:        TARGET PRESSURE IS 1.01325 BAR
Info:     OSCILLATION PERIOD IS 50 FS
Info:             DECAY TIME IS 25 FS
Info:     PISTON TEMPERATURE IS 300 K
Info:       PRESSURE CONTROL IS GROUP-BASED
Info:    INITIAL STRAIN RATE IS -0.000386384 -0.000386384 -0.000386384
Info:       CELL FLUCTUATION IS ISOTROPIC
Info: PARTICLE MESH EWALD (PME) ACTIVE
Info: PME TOLERANCE               1e-06
Info: PME EWALD COEFFICIENT       0.348832
Info: PME INTERPOLATION ORDER     4
Info: PME GRID DIMENSIONS         32 32 36
Info: PME MAXIMUM GRID SPACING    1
Info: PME CALCULATION WILL BE PERFORMED ON GPU
Info: FULL ELECTROSTATIC EVALUATION FREQUENCY      2
Info: USING VERLET I (r-RESPA) MTS SCHEME.
Info: C1 SPLITTING OF LONG RANGE ELECTROSTATICS
Info: PLACING ATOMS IN PATCHES BY HYDROGEN GROUPS
Info: RIGID BONDS TO HYDROGEN : ALL
Info:         ERROR TOLERANCE : 1e-08
Info:          MAX ITERATIONS : 100
Info: RIGID WATER USING SETTLE ALGORITHM
Info: RANDOM NUMBER SEED     1743743345
Info: USE HYDROGEN BONDS?    NO
Info: Using AMBER format force field!
Info: AMBER PARM FILE        mobley_2484519.prmtop
Info: COORDINATE PDB         mobley_2484519.pdb
Info: Exclusions will be read from PARM file!
Info: SCNB (VDW SCALING)     2
Info: USING ARITHMETIC MEAN TO COMBINE L-J SIGMA PARAMETERS
Info: BINARY COORDINATES     mobley_2484519_equil.coor
Info: SUMMARY OF PARAMETERS:
Info: 7 BONDS
Info: 7 ANGLES
Info:   7 HARMONIC
Info:   0 COSINE-BASED
Info: 3 DIHEDRAL
Info: 0 IMPROPER
Info: 0 CROSSTERM
Info: 0 VDW
Info: 28 VDW_PAIRS
Info: 0 NBTHOLE_PAIRS
Info: To read alchdata from file: mobley_2484519.pdb
Info: To read alchflag data from column: 5
Info: STRUCTURE SUMMARY:
Info: 2931 ATOMS
Info: 2931 BONDS
Info: 24 ANGLES
Info: 36 DIHEDRALS
Info: 0 IMPROPERS
Info: 0 CROSSTERMS
Info: 2982 EXCLUSIONS
Info: 2923 RIGID BONDS
Info: ALCH: 0 ATOMS TO DISAPPEAR IN FINAL STATE
Info: ALCH: 15 ATOMS TO APPEAR IN FINAL STATE
Info: 5870 DEGREES OF FREEDOM
Info: 980 HYDROGEN GROUPS
Info: 3 ATOMS IN LARGEST HYDROGEN GROUP
Info: 980 MIGRATION GROUPS
Info: 3 ATOMS IN LARGEST MIGRATION GROUP
Info: TOTAL MASS = 17638.1 amu
Info: TOTAL CHARGE = -9.99719e-05 e
Info: MASS DENSITY = 0.979011 g/cm^3
Info: ATOM DENSITY = 0.0979696 atoms/A^3
Info: ADDED 0 IMPLICIT EXCLUSIONS
Info: NONBONDED TABLE R-SQUARED SPACING: 0.0625
Info: NONBONDED TABLE SIZE: 705 POINTS
Info: REMOVING COM VELOCITY -0.0354062 -0.0897032 -0.0685859
Info: Use 3D box decompostion in PME FFT.
Info: Updated CUDA force table with 4096 elements.
Info: Updated CUDA LJ table with 7 x 7 elements.
Info: Found 17 unique exclusion lists needing 36 bytes
TCL: Running for 1500000 steps
ETITLE: TS BOND ANGLE DIHED IMPRP ELECT VDW BOUNDARY MISC KINETIC TOTAL TEMP POTENTIAL TOTALAVG TEMPAVG PRESSURE GPRESSURE VOLUME PRESSAVG GPRESSAVG
ENERGY: 0 4.5215 7.3908 2.1880 0.0000 -10491.5034 1368.3577 0.0000 0.0000 1743.1373 -7365.9082 298.8711 -9109.0455 -7365.9082 298.8711 -199.3555 -105.0527 29917.4341 -199.3555 -105.0527
ENERGY: 300000 3.5107 3.7845 4.7686 0.0000 -10741.2575 1545.2425 0.0000 0.0000 1784.9574 -7398.9940 306.0414 -9183.9513 -7416.2714 301.0062 986.0144 1008.2567 29843.8712 134.5886 171.5836
ENERGY: 600000 3.3735 3.4119 3.1343 0.0000 -10522.8789 1372.1786 0.0000 0.0000 1744.1066 -7396.6739 299.0373 -9140.7806 -7411.7766 299.4534 -462.4034 -405.2596 30629.4370 33.2786 79.3058
ENERGY: 900000 2.7338 3.2801 1.6946 0.0000 -10642.0226 1449.0429 0.0000 0.0000 1778.4468 -7406.8244 304.9251 -9185.2713 -7413.9794 300.4883 122.8797 115.7310 30362.7073 -110.2839 -55.8686
ENERGY: 1200000 4.5296 5.3766 1.9382 0.0000 -10660.4739 1466.9792 0.0000 0.0000 1736.8354 -7444.8148 297.7906 -9181.6503 -7408.1074 300.7092 422.6469 503.0286 29807.3209 -88.5195 -25.5721
ENERGY: 1500000 2.7288 4.0574 3.2773 0.0000 -10619.2702 1371.6040 0.0000 0.0000 1704.9926 -7532.6101 292.3309 -9237.6027 -7424.6524 300.1965 -622.5574 -583.2145 30224.5250 -92.3666 -24.7525
TCL: Running FEP window   2: Lambda1 0.95   Lambda2 0.8999999999999999 [dLambda -0.050000000000000044]
TCL: Setting parameter firsttimestep to 0
TCL: Setting parameter alchLambda to 0.95
Info: NONBONDED TABLE R-SQUARED SPACING: 0.0625
Info: NONBONDED TABLE SIZE: 705 POINTS
TCL: Setting parameter alchLambda2 to 0.8999999999999999
Info: NONBONDED TABLE R-SQUARED SPACING: 0.0625
Info: NONBONDED TABLE SIZE: 705 POINTS
TCL: Running for 1500000 steps
ETITLE: TS BOND ANGLE DIHED IMPRP ELECT VDW BOUNDARY MISC KINETIC TOTAL TEMP POTENTIAL TOTALAVG TEMPAVG PRESSURE GPRESSURE VOLUME PRESSAVG GPRESSAVG
ENERGY: 0 2.7288 4.0574 3.2773 0.0000 -10618.6685 1371.9195 0.0000 0.0000 1704.0925 -7532.5930 292.1766 -9236.6855 -7532.5930 292.1766 -673.3650 -585.9181 30224.5250 -673.3650 -585.9181
ENERGY: 300000 2.8298 3.4526 4.8746 0.0000 -10564.2963 1398.6044 0.0000 0.0000 1733.1316 -7421.4033 297.1555 -9154.5349 -7449.3932 297.3605 -140.5439 -81.6981 30252.4910 -128.8647 -60.0027
ENERGY: 600000 3.2878 7.4000 4.8953 0.0000 -10544.7712 1437.1771 0.0000 0.0000 1751.2110 -7340.7999 300.2554 -9092.0110 -7431.5828 297.6097 380.8992 429.5960 30390.9310 -65.5230 5.6749
ENERGY: 900000 3.1439 3.3348 2.0627 0.0000 -10500.7003 1341.4274 0.0000 0.0000 1768.4317 -7382.2999 303.2079 -9150.7315 -7434.7205 298.6868 -667.6055 -626.5389 30495.6111 -24.8583 40.7572
ENERGY: 1200000 2.3300 4.9182 3.7226 0.0000 -10631.5588 1435.2899 0.0000 0.0000 1757.8789 -7427.4191 301.3986 -9185.2980 -7430.0019 300.1812 51.7707 148.1690 30016.7105 9.6717 79.7583
ENERGY: 1500000 3.8069 5.4793 3.8610 0.0000 -10536.4031 1455.9235 0.0000 0.0000 1756.7253 -7310.6073 301.2008 -9067.3326 -7422.7180 299.6628 695.9586 733.3862 30093.1710 114.5030 178.3626
TCL: Running FEP window   3: Lambda1 0.8999999999999999 Lambda2 0.8499999999999999 [dLambda -0.050000000000000044]
TCL: Setting parameter firsttimestep to 0
TCL: Setting parameter alchLambda to 0.8999999999999999
Info: NONBONDED TABLE R-SQUARED SPACING: 0.0625
Info: NONBONDED TABLE SIZE: 705 POINTS
TCL: Setting parameter alchLambda2 to 0.8499999999999999
Info: NONBONDED TABLE R-SQUARED SPACING: 0.0625
Info: NONBONDED TABLE SIZE: 705 POINTS
TCL: Running for 1500000 steps
ETITLE: TS BOND ANGLE DIHED IMPRP ELECT VDW BOUNDARY MISC KINETIC TOTAL TEMP POTENTIAL TOTALAVG TEMPAVG PRESSURE GPRESSURE VOLUME PRESSAVG GPRESSAVG
ENERGY: 0 3.8069 5.4793 3.8610 0.0000 -10535.9436 1456.1454 0.0000 0.0000 1755.8833 -7310.7678 301.0564 -9066.6512 -7310.7678 301.0564 644.5645 727.6747 30093.1710 644.5645 727.6747
ENERGY: 300000 2.1487 3.7565 3.7330 0.0000 -10639.5412 1433.1686 0.0000 0.0000 1763.5311 -7433.2034 302.3677 -9196.7344 -7413.6330 298.5237 146.6536 169.1454 29956.7174 -219.8408 -166.4384
ENERGY: 600000 3.3362 6.0755 2.3022 0.0000 -10668.4173 1478.3880 0.0000 0.0000 1731.5951 -7446.7204 296.8921 -9178.3154 -7428.7862 298.1911 476.8961 624.0232 30115.9708 -52.9935 13.7617
ENERGY: 900000 3.7149 2.2859 3.3118 0.0000 -10505.4180 1381.5708 0.0000 0.0000 1758.2588 -7356.2758 301.4637 -9114.5346 -7424.0287 299.3708 -254.5974 -220.3089 30412.2013 -52.4968 10.1702
ENERGY: 1200000 1.9112 2.2399 2.3890 0.0000 -10572.3170 1371.5927 0.0000 0.0000 1781.1857 -7412.9985 305.3947 -9194.1841 -7414.0512 300.7689 -369.8807 -247.9888 29934.7579 -24.8267 46.2825
ENERGY: 1500000 2.4990 3.1270 3.8041 0.0000 -10575.5343 1406.2420 0.0000 0.0000 1803.7130 -7356.1491 309.2571 -9159.8621 -7414.7208 301.0492 -365.1572 -324.0001 30578.2956 -79.0062 -13.0879
TCL: Running FEP window   4: Lambda1 0.8499999999999999 Lambda2 0.7999999999999998 [dLambda -0.050000000000000044]
TCL: Setting parameter firsttimestep to 0
TCL: Setting parameter alchLambda to 0.8499999999999999
Info: NONBONDED TABLE R-SQUARED SPACING: 0.0625
Info: NONBONDED TABLE SIZE: 705 POINTS
TCL: Setting parameter alchLambda2 to 0.7999999999999998
Info: NONBONDED TABLE R-SQUARED SPACING: 0.0625
Info: NONBONDED TABLE SIZE: 705 POINTS
TCL: Running for 1500000 steps
ETITLE: TS BOND ANGLE DIHED IMPRP ELECT VDW BOUNDARY MISC KINETIC TOTAL TEMP POTENTIAL TOTALAVG TEMPAVG PRESSURE GPRESSURE VOLUME PRESSAVG GPRESSAVG
ENERGY: 0 2.4990 3.1270 3.8041 0.0000 -10575.3688 1406.7017 0.0000 0.0000 1802.8604 -7356.3766 309.1109 -9159.2370 -7356.3766 309.1109 -422.7080 -331.1233 30578.2956 -422.7080 -331.1233
ENERGY: 300000 1.1700 3.7362 3.1926 0.0000 -10561.1772 1392.6990 0.0000 0.0000 1729.8856 -7430.4938 296.5990 -9160.3794 -7420.2255 301.7510 -148.9015 -136.6440 30114.8600 -185.2261 -120.7584
ENERGY: 600000 1.1507 2.2267 0.9292 0.0000 -10505.1323 1298.1521 0.0000 0.0000 1723.3978 -7479.2758 295.4866 -9202.6736 -7414.1501 301.7326 -1126.2287 -1014.2310 30213.3899 -249.0524 -175.3611
ENERGY: 900000 5.3669 2.5770 2.8793 0.0000 -10722.6618 1455.1246 0.0000 0.0000 1766.4728 -7490.2412 302.8721 -9256.7140 -7411.5133 301.2235 -129.6404 -22.8195 30016.2495 -172.7853 -90.0129
ENERGY: 1200000 3.8640 4.7053 2.4281 0.0000 -10437.7654 1304.6817 0.0000 0.0000 1703.7028 -7418.3835 292.1098 -9122.0863 -7407.1469 301.3047 -953.8177 -910.1111 30200.0644 -254.4240 -174.7525
ENERGY: 1500000 2.6406 4.1565 4.6427 0.0000 -10506.9348 1363.4409 0.0000 0.0000 1748.0929 -7383.9613 299.7207 -9132.0541 -7396.9626 302.2614 -346.2023 -303.8293 30168.8779 -235.7043 -160.9780
TCL: Running FEP window   5: Lambda1 0.7999999999999998 Lambda2 0.7499999999999998 [dLambda -0.050000000000000044]
TCL: Setting parameter firsttimestep to 0
TCL: Setting parameter alchLambda to 0.7999999999999998
Info: NONBONDED TABLE R-SQUARED SPACING: 0.0625
Info: NONBONDED TABLE SIZE: 705 POINTS
TCL: Setting parameter alchLambda2 to 0.7499999999999998
Info: NONBONDED TABLE R-SQUARED SPACING: 0.0625
Info: NONBONDED TABLE SIZE: 705 POINTS
TCL: Running for 1500000 steps
ETITLE: TS BOND ANGLE DIHED IMPRP ELECT VDW BOUNDARY MISC KINETIC TOTAL TEMP POTENTIAL TOTALAVG TEMPAVG PRESSURE GPRESSURE VOLUME PRESSAVG GPRESSAVG
ENERGY: 0 2.6406 4.1565 4.6427 0.0000 -10505.9404 1363.5606 0.0000 0.0000 1747.2270 -7383.7130 299.5723 -9130.9400 -7383.7130 299.5723 -382.8077 -310.2021 30168.8779 -382.8077 -310.2021
ENERGY: 300000 1.8896 4.7727 3.1433 0.0000 -10665.1182 1432.8779 0.0000 0.0000 1716.3547 -7506.0799 294.2790 -9222.4346 -7464.4942 296.7001 -296.9751 -247.6747 30551.7525 236.9890 301.0444
ENERGY: 600000 2.8482 3.7998 4.5640 0.0000 -10507.7149 1434.0475 0.0000 0.0000 1775.4369 -7287.0185 304.4090 -9062.4554 -7424.2455 296.4852 264.1552 292.8572 30627.7608 203.1398 254.9781
ENERGY: 900000 0.8865 3.7441 5.1293 0.0000 -10691.7093 1445.6955 0.0000 0.0000 1763.3295 -7472.9245 302.3331 -9236.2540 -7418.8242 298.5419 -137.4495 -30.5945 30171.7820 165.9963 236.0148
ENERGY: 1200000 1.5250 3.7403 1.7825 0.0000 -10628.7040 1487.4681 0.0000 0.0000 1732.4408 -7401.7474 297.0371 -9134.1881 -7422.0344 298.2435 635.6665 618.0662 30462.0942 123.8619 183.5922
ENERGY: 1500000 3.6588 5.1578 3.3251 0.0000 -10468.1956 1371.5735 0.0000 0.0000 1733.1522 -7351.3283 297.1591 -9084.4804 -7416.4350 298.9234 -388.9098 -306.4957 30610.1356 74.2243 131.0921
TCL: Running FEP window   6: Lambda1 0.7499999999999998 Lambda2 0.6999999999999997 [dLambda -0.050000000000000044]
TCL: Setting parameter firsttimestep to 0
TCL: Setting parameter alchLambda to 0.7499999999999998
Info: NONBONDED TABLE R-SQUARED SPACING: 0.0625
Info: NONBONDED TABLE SIZE: 705 POINTS
TCL: Setting parameter alchLambda2 to 0.6999999999999997
Info: NONBONDED TABLE R-SQUARED SPACING: 0.0625
Info: NONBONDED TABLE SIZE: 705 POINTS
TCL: Running for 1500000 steps
ETITLE: TS BOND ANGLE DIHED IMPRP ELECT VDW BOUNDARY MISC KINETIC TOTAL TEMP POTENTIAL TOTALAVG TEMPAVG PRESSURE GPRESSURE VOLUME PRESSAVG GPRESSAVG
ENERGY: 0 3.6588 5.1578 3.3251 0.0000 -10467.4109 1371.6643 0.0000 0.0000 1732.2587 -7351.3463 297.0059 -9083.6050 -7351.3463 297.0059 -383.0816 -311.8858 30610.1356 -383.0816 -311.8858
ENERGY: 300000 3.0799 7.4105 2.5600 0.0000 -10690.3316 1428.5836 0.0000 0.0000 1718.1953 -7530.5022 294.5946 -9248.6975 -7407.9431 298.2649 -50.7969 -2.1507 29954.0792 -26.4270 10.0977
ENERGY: 600000 2.0977 2.8217 0.7852 0.0000 -10554.3787 1405.1254 0.0000 0.0000 1720.2230 -7423.3255 294.9423 -9143.5486 -7402.0070 300.5904 -264.2956 -146.6794 30398.7188 -9.6773 52.2361
ENERGY: 900000 2.0663 4.4293 0.8494 0.0000 -10604.0035 1418.0581 0.0000 0.0000 1745.2963 -7433.3041 299.2412 -9178.6004 -7401.4040 300.6706 -234.5253 -74.3344 30021.1963 -67.3488 -0.5497
ENERGY: 1200000 3.3975 5.8028 2.6219 0.0000 -10608.5173 1436.1098 0.0000 0.0000 1765.4574 -7395.1279 302.6980 -9160.5853 -7392.4689 301.5631 70.0108 101.1978 30081.7405 -3.3454 60.4737
ENERGY: 1500000 0.9451 4.7846 2.3966 0.0000 -10551.0152 1396.7253 0.0000 0.0000 1804.5275 -7341.6361 309.3968 -9146.1636 -7397.8166 301.5808 -193.3468 -117.1433 30434.5343 -21.5120 38.4908
TCL: Running FEP window   7: Lambda1 0.6999999999999997 Lambda2 0.6499999999999997 [dLambda -0.050000000000000044]
TCL: Setting parameter firsttimestep to 0
TCL: Setting parameter alchLambda to 0.6999999999999997
Info: NONBONDED TABLE R-SQUARED SPACING: 0.0625
Info: NONBONDED TABLE SIZE: 705 POINTS
TCL: Setting parameter alchLambda2 to 0.6499999999999997
Info: NONBONDED TABLE R-SQUARED SPACING: 0.0625
Info: NONBONDED TABLE SIZE: 705 POINTS
TCL: Running for 1500000 steps
ETITLE: TS BOND ANGLE DIHED IMPRP ELECT VDW BOUNDARY MISC KINETIC TOTAL TEMP POTENTIAL TOTALAVG TEMPAVG PRESSURE GPRESSURE VOLUME PRESSAVG GPRESSAVG
ENERGY: 0 0.9451 4.7846 2.3966 0.0000 -10550.6748 1396.6569 0.0000 0.0000 1803.6406 -7342.2511 309.2447 -9145.8917 -7342.2511 309.2447 -220.7647 -126.3091 30434.5343 -220.7647 -126.3091
ENERGY: 300000 3.8293 5.4049 1.3007 0.0000 -10593.6577 1342.6673 0.0000 0.0000 1741.5802 -7498.8752 298.6041 -9240.4554 -7432.0805 302.4445 -1032.5316 -910.3795 30097.7840 -343.6947 -257.6863
ENERGY: 600000 3.4261 4.1062 1.5586 0.0000 -10717.0989 1501.6840 0.0000 0.0000 1747.5553 -7458.7687 299.6286 -9206.3240 -7433.0778 302.6655 429.0543 457.3821 30134.6910 -257.0023 -197.6623
ENERGY: 900000 3.5362 6.3788 2.0984 0.0000 -10580.1359 1472.6898 0.0000 0.0000 1758.3745 -7337.0582 301.4836 -9095.4327 -7419.4545 304.0279 513.1267 618.4081 30188.2160 -82.8418 -18.8103
ENERGY: 1200000 1.3065 4.7129 2.2935 0.0000 -10713.8844 1479.0450 0.0000 0.0000 1763.5039 -7463.0227 302.3630 -9226.5265 -7424.5158 303.3837 123.1846 271.9058 30002.6050 -146.4785 -80.3533
ENERGY: 1500000 2.0798 4.5917 1.7958 0.0000 -10546.1790 1346.3053 0.0000 0.0000 1731.8766 -7459.5297 296.9404 -9191.4063 -7423.0333 302.5245 -739.7566 -604.2480 29892.0178 -204.4737 -139.2037
TCL: Running FEP window   8: Lambda1 0.6499999999999997 Lambda2 0.5999999999999996 [dLambda -0.050000000000000044]
TCL: Setting parameter firsttimestep to 0
TCL: Setting parameter alchLambda to 0.6499999999999997
Info: NONBONDED TABLE R-SQUARED SPACING: 0.0625
Info: NONBONDED TABLE SIZE: 705 POINTS
TCL: Setting parameter alchLambda2 to 0.5999999999999996
Info: NONBONDED TABLE R-SQUARED SPACING: 0.0625
Info: NONBONDED TABLE SIZE: 705 POINTS
TCL: Running for 1500000 steps
ETITLE: TS BOND ANGLE DIHED IMPRP ELECT VDW BOUNDARY MISC KINETIC TOTAL TEMP POTENTIAL TOTALAVG TEMPAVG PRESSURE GPRESSURE VOLUME PRESSAVG GPRESSAVG
ENERGY: 0 2.0798 4.5917 1.7958 0.0000 -10545.4494 1345.8859 0.0000 0.0000 1731.0217 -7460.0745 296.7938 -9191.0962 -7460.0745 296.7938 -687.4586 -612.1994 29892.0178 -687.4586 -612.1994
ENERGY: 300000 3.3561 5.1623 7.0745 0.0000 -10587.4680 1349.4474 0.0000 0.0000 1829.3000 -7393.1277 313.6442 -9222.4276 -7460.5610 299.9171 -732.1077 -654.1822 29901.4320 -474.3890 -407.4868
ENERGY: 600000 3.3430 5.2060 4.4480 0.0000 -10457.2649 1340.4620 0.0000 0.0000 1763.2736 -7340.5323 302.3236 -9103.8059 -7442.0614 300.9788 -709.7018 -603.0529 30542.0994 -442.2462 -380.7203
ENERGY: 900000 1.7925 4.3390 1.0907 0.0000 -10633.2657 1372.9842 0.0000 0.0000 1752.0352 -7501.0242 300.3967 -9253.0593 -7451.7181 301.1909 -859.0535 -759.8844 30349.6627 -466.8028 -394.8093
ENERGY: 1200000 3.0992 3.3288 3.5086 0.0000 -10527.5100 1368.1754 0.0000 0.0000 1793.5155 -7355.8825 307.5087 -9149.3980 -7430.4951 302.1501 -333.7564 -226.2218 30163.5222 -320.1799 -242.8849
ENERGY: 1500000 1.9754 4.6949 5.0327 0.0000 -10599.5531 1400.0238 0.0000 0.0000 1796.6555 -7391.1707 308.0471 -9187.8262 -7426.2587 302.4333 -335.8659 -250.9567 30103.1640 -317.9517 -244.9377
TCL: Running FEP window   9: Lambda1 0.5999999999999996 Lambda2 0.5499999999999996 [dLambda -0.050000000000000044]
TCL: Setting parameter firsttimestep to 0
TCL: Setting parameter alchLambda to 0.5999999999999996
Info: NONBONDED TABLE R-SQUARED SPACING: 0.0625
Info: NONBONDED TABLE SIZE: 705 POINTS
TCL: Setting parameter alchLambda2 to 0.5499999999999996
Info: NONBONDED TABLE R-SQUARED SPACING: 0.0625
Info: NONBONDED TABLE SIZE: 705 POINTS
TCL: Running for 1500000 steps
ETITLE: TS BOND ANGLE DIHED IMPRP ELECT VDW BOUNDARY MISC KINETIC TOTAL TEMP POTENTIAL TOTALAVG TEMPAVG PRESSURE GPRESSURE VOLUME PRESSAVG GPRESSAVG
ENERGY: 0 1.9754 4.6949 5.0327 0.0000 -10598.9371 1400.3425 0.0000 0.0000 1795.7592 -7391.1324 307.8934 -9186.8916 -7391.1324 307.8934 -338.6706 -252.7691 30103.1640 -338.6706 -252.7691
ENERGY: 300000 2.5802 3.0614 3.4967 0.0000 -10627.6039 1421.2434 0.0000 0.0000 1762.9569 -7434.2652 302.2693 -9197.2221 -7368.6732 305.3566 -171.9951 -67.8426 30314.7272 3.6257 93.2160
ENERGY: 600000 2.5131 5.0945 3.9440 0.0000 -10538.4625 1335.0137 0.0000 0.0000 1751.3392 -7440.5580 300.2773 -9191.8973 -7382.9910 305.2821 -762.7400 -666.5218 29929.8814 -321.2729 -238.8896
ENERGY: 900000 2.8262 7.7869 3.3367 0.0000 -10761.7232 1506.7396 0.0000 0.0000 1747.6569 -7493.3769 299.6460 -9241.0338 -7395.1830 304.0831 528.2682 520.8007 29910.1770 -236.0871 -167.3924
ENERGY: 1200000 3.1409 5.8697 2.1763 0.0000 -10700.3360 1464.2799 0.0000 0.0000 1730.0411 -7494.8281 296.6257 -9224.8692 -7406.6949 302.8324 269.1498 347.8239 29591.1898 -206.3405 -139.3060
ENERGY: 1500000 2.5410 5.0560 4.0327 0.0000 -10607.0288 1411.4711 0.0000 0.0000 1756.8641 -7427.0640 301.2246 -9183.9281 -7413.8010 302.8672 -211.3425 -145.3734 30192.9614 -146.3596 -77.1296
TCL: Running FEP window  10: Lambda1 0.5499999999999996 Lambda2 0.4999999999999996 [dLambda -0.04999999999999999]
TCL: Setting parameter firsttimestep to 0
TCL: Setting parameter alchLambda to 0.5499999999999996
Info: NONBONDED TABLE R-SQUARED SPACING: 0.0625
Info: NONBONDED TABLE SIZE: 705 POINTS
TCL: Setting parameter alchLambda2 to 0.4999999999999996
Info: NONBONDED TABLE R-SQUARED SPACING: 0.0625
Info: NONBONDED TABLE SIZE: 705 POINTS
TCL: Running for 1500000 steps
ETITLE: TS BOND ANGLE DIHED IMPRP ELECT VDW BOUNDARY MISC KINETIC TOTAL TEMP POTENTIAL TOTALAVG TEMPAVG PRESSURE GPRESSURE VOLUME PRESSAVG GPRESSAVG
ENERGY: 0 2.5410 5.0560 4.0327 0.0000 -10607.1338 1411.9742 0.0000 0.0000 1755.9645 -7427.5654 301.0704 -9183.5299 -7427.5654 301.0704 -236.5522 -146.9005 30192.9614 -236.5522 -146.9005
ENERGY: 300000 2.1259 5.5874 3.1891 0.0000 -10694.8715 1515.6722 0.0000 0.0000 1801.1776 -7367.1194 308.8224 -9168.2970 -7422.7293 299.6317 835.9135 896.5143 29878.4018 20.9621 87.8780
ENERGY: 600000 2.3904 2.8901 3.5430 0.0000 -10837.1804 1534.8627 0.0000 0.0000 1753.7635 -7539.7306 300.6930 -9293.4941 -7446.0780 297.5499 609.8370 686.5889 29864.4570 -12.4564 55.9340
ENERGY: 900000 5.3919 3.2296 2.1790 0.0000 -10622.8620 1427.8283 0.0000 0.0000 1758.0512 -7426.1820 301.4281 -9184.2332 -7432.5624 297.5001 142.2334 187.0614 29748.2463 76.2811 134.4563
ENERGY: 1200000 5.2697 3.3182 3.3648 0.0000 -10801.8358 1519.7897 0.0000 0.0000 1700.3401 -7569.7534 291.5332 -9270.0935 -7436.9930 297.7766 335.0909 310.1354 30359.5837 12.9325 67.6244
ENERGY: 1500000 1.9804 4.3151 2.6469 0.0000 -10592.7362 1398.9297 0.0000 0.0000 1759.2408 -7425.6232 301.6321 -9184.8640 -7442.6781 297.7011 -296.9792 -213.1224 30282.0862 -21.5727 38.5337
TCL: Running FEP window  11: Lambda1 0.4999999999999996 Lambda2 0.4499999999999996 [dLambda -0.04999999999999999]
TCL: Setting parameter firsttimestep to 0
TCL: Setting parameter alchLambda to 0.4999999999999996
Info: NONBONDED TABLE R-SQUARED SPACING: 0.0625
Info: NONBONDED TABLE SIZE: 705 POINTS
TCL: Setting parameter alchLambda2 to 0.4499999999999996
Info: NONBONDED TABLE R-SQUARED SPACING: 0.0625
Info: NONBONDED TABLE SIZE: 705 POINTS
TCL: Running for 1500000 steps
ETITLE: TS BOND ANGLE DIHED IMPRP ELECT VDW BOUNDARY MISC KINETIC TOTAL TEMP POTENTIAL TOTALAVG TEMPAVG PRESSURE GPRESSURE VOLUME PRESSAVG GPRESSAVG
ENERGY: 0 1.9804 4.3151 2.6469 0.0000 -10592.5490 1399.0195 0.0000 0.0000 1758.3672 -7426.2199 301.4823 -9184.5872 -7426.2199 301.4823 -303.7763 -217.4106 30282.0862 -303.7763 -217.4106
ENERGY: 300000 3.1469 6.7949 2.1647 0.0000 -10448.4091 1333.2958 0.0000 0.0000 1721.5752 -7381.4315 295.1741 -9103.0067 -7386.9565 299.6079 -567.8671 -459.9691 30224.1958 -124.6601 -12.9446
ENERGY: 600000 2.0535 2.6649 1.6034 0.0000 -10632.6384 1460.6592 0.0000 0.0000 1757.2565 -7408.4009 301.2919 -9165.6574 -7412.2075 299.1878 392.0467 489.8064 30045.8647 -82.4300 11.6691
ENERGY: 900000 2.9666 5.0316 6.3272 0.0000 -10483.4366 1357.0050 0.0000 0.0000 1762.2500 -7349.8563 302.1480 -9112.1063 -7403.5111 300.1174 -731.3264 -696.5690 30523.4701 -170.4372 -85.7249
ENERGY: 1200000 4.1136 4.6810 2.5183 0.0000 -10488.4715 1377.1602 0.0000 0.0000 1710.8471 -7389.1513 293.3347 -9099.9984 -7405.6345 299.7745 -131.1475 -59.0780 30326.8596 -188.1430 -108.6659
ENERGY: 1500000 1.0544 6.7742 1.9517 0.0000 -10640.5355 1420.1883 0.0000 0.0000 1748.7004 -7461.8665 299.8249 -9210.5669 -7415.5300 299.5748 -22.8770 81.8508 29704.1225 -147.3280 -68.0178
TCL: Running FEP window  12: Lambda1 0.4499999999999996 Lambda2 0.39999999999999963 [dLambda -0.04999999999999999]
TCL: Setting parameter firsttimestep to 0
TCL: Setting parameter alchLambda to 0.4499999999999996
Info: NONBONDED TABLE R-SQUARED SPACING: 0.0625
Info: NONBONDED TABLE SIZE: 705 POINTS
TCL: Setting parameter alchLambda2 to 0.39999999999999963
Info: NONBONDED TABLE R-SQUARED SPACING: 0.0625
Info: NONBONDED TABLE SIZE: 705 POINTS
TCL: Running for 1500000 steps
ETITLE: TS BOND ANGLE DIHED IMPRP ELECT VDW BOUNDARY MISC KINETIC TOTAL TEMP POTENTIAL TOTALAVG TEMPAVG PRESSURE GPRESSURE VOLUME PRESSAVG GPRESSAVG
ENERGY: 0 1.0544 6.7742 1.9517 0.0000 -10640.5362 1420.3874 0.0000 0.0000 1747.8021 -7462.5665 299.6709 -9210.3686 -7462.5665 299.6709 -6.1893 76.3777 29704.1225 -6.1893 76.3777
ENERGY: 300000 3.6241 3.2787 1.5030 0.0000 -10614.6139 1472.1723 0.0000 0.0000 1775.4849 -7358.5509 304.4173 -9134.0358 -7427.6623 297.6406 504.8481 521.1479 29916.1797 93.3236 145.5841
ENERGY: 600000 2.0685 3.1986 4.1364 0.0000 -10782.3525 1569.5077 0.0000 0.0000 1781.6062 -7421.8350 305.4668 -9203.4413 -7410.0654 300.5157 1252.2358 1338.0806 29979.7235 122.5289 181.3904
ENERGY: 900000 0.7925 4.0115 3.3240 0.0000 -10613.4115 1406.4720 0.0000 0.0000 1748.8117 -7449.9998 299.8440 -9198.8115 -7415.7919 300.3710 -191.6102 -41.6172 29963.1512 62.4388 140.0611
ENERGY: 1200000 3.1432 3.8545 1.1404 0.0000 -10635.2987 1414.9005 0.0000 0.0000 1681.1031 -7531.1570 288.2349 -9212.2601 -7423.9603 298.9990 -46.8032 -30.1630 29859.7773 -14.4090 52.5166
ENERGY: 1500000 2.4853 2.5673 1.1621 0.0000 -10534.6922 1453.7722 0.0000 0.0000 1784.7267 -7289.9787 306.0018 -9074.7053 -7411.9936 299.3608 124.6922 101.7575 30990.8289 -80.5658 -21.0982
TCL: Running FEP window  13: Lambda1 0.39999999999999963 Lambda2 0.34999999999999964 [dLambda -0.04999999999999999]
TCL: Setting parameter firsttimestep to 0
TCL: Setting parameter alchLambda to 0.39999999999999963
Info: NONBONDED TABLE R-SQUARED SPACING: 0.0625
Info: NONBONDED TABLE SIZE: 705 POINTS
TCL: Setting parameter alchLambda2 to 0.34999999999999964
Info: NONBONDED TABLE R-SQUARED SPACING: 0.0625
Info: NONBONDED TABLE SIZE: 705 POINTS
TCL: Running for 1500000 steps
ETITLE: TS BOND ANGLE DIHED IMPRP ELECT VDW BOUNDARY MISC KINETIC TOTAL TEMP POTENTIAL TOTALAVG TEMPAVG PRESSURE GPRESSURE VOLUME PRESSAVG GPRESSAVG
ENERGY: 0 2.4853 2.5673 1.1621 0.0000 -10534.6929 1454.0264 0.0000 0.0000 1783.8856 -7290.5662 305.8576 -9074.4518 -7290.5662 305.8576 -0.9180 102.6321 30990.8289 -0.9180 102.6321
ENERGY: 300000 2.3096 4.7343 1.6326 0.0000 -10592.9560 1361.0805 0.0000 0.0000 1771.6088 -7451.5902 303.7527 -9223.1991 -7412.5343 301.4077 -726.8892 -679.4804 30021.6626 -358.2102 -283.9828
ENERGY: 600000 1.5897 6.5644 1.2549 0.0000 -10515.0037 1400.8191 0.0000 0.0000 1794.1572 -7310.6184 307.6187 -9104.7756 -7398.9449 303.1148 -314.4937 -247.1124 30648.1314 -257.3512 -185.8465
ENERGY: 900000 3.2385 4.4974 2.0322 0.0000 -10548.8557 1322.4600 0.0000 0.0000 1738.6802 -7477.9473 298.1069 -9216.6275 -7410.6567 302.3640 -1102.0190 -1094.3735 30299.7570 -334.3512 -268.0300
ENERGY: 1200000 2.9288 3.0687 1.0323 0.0000 -10764.7615 1511.5393 0.0000 0.0000 1766.0521 -7480.1403 302.7999 -9246.1924 -7419.4315 301.4281 679.9233 733.4085 29594.3617 -232.1518 -167.7170
ENERGY: 1500000 2.4760 2.7462 1.5987 0.0000 -10593.5581 1419.5811 0.0000 0.0000 1794.9879 -7372.1682 307.7612 -9167.1561 -7418.9446 301.6213 -94.2398 -77.6212 30103.9183 -191.4487 -126.3460
TCL: Running FEP window  14: Lambda1 0.34999999999999964 Lambda2 0.29999999999999966 [dLambda -0.04999999999999999]
TCL: Setting parameter firsttimestep to 0
TCL: Setting parameter alchLambda to 0.34999999999999964
Info: NONBONDED TABLE R-SQUARED SPACING: 0.0625
Info: NONBONDED TABLE SIZE: 705 POINTS
TCL: Setting parameter alchLambda2 to 0.29999999999999966
Info: NONBONDED TABLE R-SQUARED SPACING: 0.0625
Info: NONBONDED TABLE SIZE: 705 POINTS
TCL: Running for 1500000 steps
ETITLE: TS BOND ANGLE DIHED IMPRP ELECT VDW BOUNDARY MISC KINETIC TOTAL TEMP POTENTIAL TOTALAVG TEMPAVG PRESSURE GPRESSURE VOLUME PRESSAVG GPRESSAVG
ENERGY: 0 2.4760 2.7462 1.5987 0.0000 -10593.5585 1419.7565 0.0000 0.0000 1794.1322 -7372.8489 307.6144 -9166.9811 -7372.8489 307.6144 -175.8893 -81.4654 30103.9183 -175.8893 -81.4654
ENERGY: 300000 0.7719 3.6081 4.3624 0.0000 -10681.4420 1493.2749 0.0000 0.0000 1704.6611 -7474.7637 292.2741 -9179.4248 -7411.7712 298.2102 399.0638 425.3426 30216.2759 102.6283 163.0940
ENERGY: 600000 2.8202 4.1743 3.7452 0.0000 -10592.1135 1434.0042 0.0000 0.0000 1760.2342 -7387.1354 301.8024 -9147.3696 -7423.1882 297.7206 -38.7790 -45.2391 30529.7270 -93.4254 -54.2628
ENERGY: 900000 0.7307 5.7654 2.4361 0.0000 -10623.6251 1381.5247 0.0000 0.0000 1739.0596 -7494.1086 298.1719 -9233.1682 -7436.6008 298.6469 -561.0514 -525.1629 30205.0102 -185.7434 -139.2243
ENERGY: 1200000 2.6054 4.7691 4.9683 0.0000 -10547.5033 1419.1779 0.0000 0.0000 1782.2358 -7333.7469 305.5747 -9115.9826 -7429.1625 299.0826 -128.3983 -55.3377 30521.7435 -115.5630 -68.5619
ENERGY: 1500000 4.2088 4.9354 3.0653 0.0000 -10591.8191 1432.4255 0.0000 0.0000 1758.1522 -7389.0319 301.4455 -9147.1841 -7432.4508 299.2119 179.8437 277.0500 29843.5639 -58.4936 -2.8149
TCL: Running FEP window  15: Lambda1 0.29999999999999966 Lambda2 0.24999999999999967 [dLambda -0.04999999999999999]
TCL: Setting parameter firsttimestep to 0
TCL: Setting parameter alchLambda to 0.29999999999999966
Info: NONBONDED TABLE R-SQUARED SPACING: 0.0625
Info: NONBONDED TABLE SIZE: 705 POINTS
TCL: Setting parameter alchLambda2 to 0.24999999999999967
Info: NONBONDED TABLE R-SQUARED SPACING: 0.0625
Info: NONBONDED TABLE SIZE: 705 POINTS
TCL: Running for 1500000 steps
ETITLE: TS BOND ANGLE DIHED IMPRP ELECT VDW BOUNDARY MISC KINETIC TOTAL TEMP POTENTIAL TOTALAVG TEMPAVG PRESSURE GPRESSURE VOLUME PRESSAVG GPRESSAVG
ENERGY: 0 4.2088 4.9354 3.0653 0.0000 -10591.8209 1432.7348 0.0000 0.0000 1757.2576 -7389.6191 301.2921 -9146.8767 -7389.6191 301.2921 183.9149 275.9921 29843.5639 183.9149 275.9921
ENERGY: 300000 2.1900 2.3591 2.0383 0.0000 -10704.8919 1434.2956 0.0000 0.0000 1773.3916 -7490.6173 304.0584 -9264.0089 -7457.7579 303.2293 -336.4815 -268.6001 30115.8803 275.1136 349.7088
ENERGY: 600000 1.5620 4.9951 0.8211 0.0000 -10526.8654 1362.9902 0.0000 0.0000 1778.0123 -7378.4846 304.8506 -9156.4970 -7449.1384 299.8542 -328.7793 -238.2643 29982.0149 48.9111 123.5094
ENERGY: 900000 3.1488 3.7363 2.2132 0.0000 -10539.6225 1383.3324 0.0000 0.0000 1715.6628 -7431.5290 294.1604 -9147.1918 -7439.9144 300.2666 -311.3583 -296.7030 30114.7959 151.8865 209.6128
ENERGY: 1200000 3.5569 4.0771 1.6617 0.0000 -10492.4307 1369.5351 0.0000 0.0000 1774.4989 -7339.1010 304.2482 -9113.5999 -7427.5539 300.5361 -508.7780 -430.6027 30545.5892 67.3924 123.7392
ENERGY: 1500000 2.0995 3.8072 4.1013 0.0000 -10539.4426 1448.4549 0.0000 0.0000 1772.3433 -7308.6363 303.8786 -9080.9797 -7411.1771 301.4231 355.7162 405.8955 30371.9641 103.7141 160.2681
TCL: Running FEP window  16: Lambda1 0.24999999999999967 Lambda2 0.19999999999999968 [dLambda -0.04999999999999999]
TCL: Setting parameter firsttimestep to 0
TCL: Setting parameter alchLambda to 0.24999999999999967
Info: NONBONDED TABLE R-SQUARED SPACING: 0.0625
Info: NONBONDED TABLE SIZE: 705 POINTS
TCL: Setting parameter alchLambda2 to 0.19999999999999968
Info: NONBONDED TABLE R-SQUARED SPACING: 0.0625
Info: NONBONDED TABLE SIZE: 705 POINTS
TCL: Running for 1500000 steps
ETITLE: TS BOND ANGLE DIHED IMPRP ELECT VDW BOUNDARY MISC KINETIC TOTAL TEMP POTENTIAL TOTALAVG TEMPAVG PRESSURE GPRESSURE VOLUME PRESSAVG GPRESSAVG
ENERGY: 0 2.0995 3.8072 4.1013 0.0000 -10539.4423 1447.4213 0.0000 0.0000 1771.4220 -7310.5910 303.7206 -9082.0130 -7310.5910 303.7206 318.3520 400.5425 30371.9641 318.3520 400.5425
ENERGY: 300000 1.5099 2.2036 3.2986 0.0000 -10787.8142 1566.0156 0.0000 0.0000 1746.0876 -7468.6990 299.3769 -9214.7866 -7412.5355 300.6817 748.3963 797.2412 30414.0640 383.8120 446.4307
ENERGY: 600000 0.6151 6.1146 3.7678 0.0000 -10491.1796 1358.5598 0.0000 0.0000 1758.9666 -7363.1558 301.5851 -9122.1224 -7406.9986 300.1107 -514.9149 -528.9841 30537.3416 135.4186 195.1143
ENERGY: 900000 3.6637 3.0169 4.4290 0.0000 -10640.6847 1455.4602 0.0000 0.0000 1755.3683 -7418.7466 300.9682 -9174.1149 -7402.1407 300.3306 26.4984 111.9096 30217.2468 95.3075 150.2060
ENERGY: 1200000 3.4582 8.0591 1.2736 0.0000 -10567.9838 1390.5362 0.0000 0.0000 1814.5797 -7350.0769 311.1203 -9164.6567 -7395.3594 300.9051 -413.5871 -278.0318 30308.5717 -60.0101 -1.9794
ENERGY: 1500000 1.2736 1.0724 1.0217 0.0000 -10578.7375 1429.0851 0.0000 0.0000 1777.1397 -7369.1449 304.7010 -9146.2846 -7390.5257 301.3973 190.0682 235.2766 30039.8851 -76.9890 -13.2915
TCL: Running FEP window  17: Lambda1 0.19999999999999968 Lambda2 0.1499999999999997 [dLambda -0.04999999999999999]
TCL: Setting parameter firsttimestep to 0
TCL: Setting parameter alchLambda to 0.19999999999999968
Info: NONBONDED TABLE R-SQUARED SPACING: 0.0625
Info: NONBONDED TABLE SIZE: 705 POINTS
TCL: Setting parameter alchLambda2 to 0.1499999999999997
Info: NONBONDED TABLE R-SQUARED SPACING: 0.0625
Info: NONBONDED TABLE SIZE: 705 POINTS
TCL: Running for 1500000 steps
ETITLE: TS BOND ANGLE DIHED IMPRP ELECT VDW BOUNDARY MISC KINETIC TOTAL TEMP POTENTIAL TOTALAVG TEMPAVG PRESSURE GPRESSURE VOLUME PRESSAVG GPRESSAVG
ENERGY: 0 1.2736 1.0724 1.0217 0.0000 -10578.7369 1429.4361 0.0000 0.0000 1776.2731 -7369.6599 304.5524 -9145.9330 -7369.6599 304.5524 149.3532 230.2671 30039.8851 149.3532 230.2671
ENERGY: 300000 3.1416 2.8309 3.5054 0.0000 -10723.3318 1491.1824 0.0000 0.0000 1765.1838 -7457.4877 302.6511 -9222.6715 -7427.3473 299.0590 509.7717 528.6239 29646.3225 -178.9567 -121.8517
ENERGY: 600000 3.3789 5.6843 2.6490 0.0000 -10644.3855 1476.0678 0.0000 0.0000 1795.1577 -7361.4479 307.7903 -9156.6056 -7412.3751 299.7095 271.2727 310.5763 30124.8635 27.1758 83.9748
ENERGY: 900000 1.6571 8.2908 1.9957 0.0000 -10541.1957 1406.5280 0.0000 0.0000 1719.8758 -7402.8483 294.8828 -9122.7241 -7420.3940 298.8886 -42.8125 51.6754 29865.3968 -136.3951 -76.3081
ENERGY: 1200000 5.6671 3.8290 2.2968 0.0000 -10669.7232 1412.9691 0.0000 0.0000 1701.0334 -7543.9278 291.6521 -9244.9612 -7443.0745 297.6431 -584.5657 -540.7934 30164.9129 -223.1897 -172.3612
ENERGY: 1500000 4.1215 2.2118 1.0411 0.0000 -10540.5910 1390.8849 0.0000 0.0000 1767.0725 -7375.2592 302.9749 -9142.3317 -7437.3914 297.9512 -183.7153 -89.1667 30061.2405 -197.7787 -138.7457
TCL: Running FEP window  18: Lambda1 0.1499999999999997 Lambda2 0.09999999999999969 [dLambda -0.05 ]
TCL: Setting parameter firsttimestep to 0
TCL: Setting parameter alchLambda to 0.1499999999999997
Info: NONBONDED TABLE R-SQUARED SPACING: 0.0625
Info: NONBONDED TABLE SIZE: 705 POINTS
TCL: Setting parameter alchLambda2 to 0.09999999999999969
Info: NONBONDED TABLE R-SQUARED SPACING: 0.0625
Info: NONBONDED TABLE SIZE: 705 POINTS
TCL: Running for 1500000 steps
ETITLE: TS BOND ANGLE DIHED IMPRP ELECT VDW BOUNDARY MISC KINETIC TOTAL TEMP POTENTIAL TOTALAVG TEMPAVG PRESSURE GPRESSURE VOLUME PRESSAVG GPRESSAVG
ENERGY: 0 4.1215 2.2118 1.0411 0.0000 -10540.5922 1391.1845 0.0000 0.0000 1766.2341 -7375.7991 302.8311 -9142.0332 -7375.7991 302.8311 -170.3524 -90.8958 30061.2405 -170.3524 -90.8958
ENERGY: 300000 3.5727 3.5294 2.0380 0.0000 -10673.8127 1480.0460 0.0000 0.0000 1784.8735 -7399.7531 306.0270 -9184.6266 -7394.8613 305.8780 429.0247 425.5738 29861.5133 193.3893 269.7786
ENERGY: 600000 3.4811 1.5227 5.4235 0.0000 -10548.9920 1375.0438 0.0000 0.0000 1726.4954 -7437.0256 296.0177 -9163.5209 -7409.8789 303.4758 -619.0323 -582.2796 30294.8619 -45.0316 0.7816
ENERGY: 900000 2.0454 3.9932 3.1062 0.0000 -10535.0077 1395.5240 0.0000 0.0000 1771.9418 -7358.3970 303.8098 -9130.3389 -7397.6467 303.3136 -263.4500 -180.3502 30176.8363 -9.5618 47.7672
ENERGY: 1200000 3.1793 4.9293 3.3270 0.0000 -10500.5435 1448.5937 0.0000 0.0000 1796.5004 -7244.0137 308.0205 -9040.5142 -7395.7189 303.1713 726.2656 765.0219 29811.0189 63.2381 117.8893
ENERGY: 1500000 1.9056 2.9467 3.3886 0.0000 -10754.4892 1458.0678 0.0000 0.0000 1741.6679 -7546.5127 298.6191 -9288.1806 -7415.0156 302.1661 34.3124 112.9900 29757.9330 44.7103 102.1498
TCL: Running FEP window  19: Lambda1 0.09999999999999969 Lambda2 0.049999999999999684 [dLambda -0.05 ]
TCL: Setting parameter firsttimestep to 0
TCL: Setting parameter alchLambda to 0.09999999999999969
Info: NONBONDED TABLE R-SQUARED SPACING: 0.0625
Info: NONBONDED TABLE SIZE: 705 POINTS
TCL: Setting parameter alchLambda2 to 0.049999999999999684
Info: NONBONDED TABLE R-SQUARED SPACING: 0.0625
Info: NONBONDED TABLE SIZE: 705 POINTS
TCL: Running for 1500000 steps
ETITLE: TS BOND ANGLE DIHED IMPRP ELECT VDW BOUNDARY MISC KINETIC TOTAL TEMP POTENTIAL TOTALAVG TEMPAVG PRESSURE GPRESSURE VOLUME PRESSAVG GPRESSAVG
ENERGY: 0 1.9056 2.9467 3.3886 0.0000 -10754.4883 1457.1788 0.0000 0.0000 1740.7729 -7548.2956 298.4657 -9289.0685 -7548.2956 298.4657 28.1273 104.5941 29757.9330 28.1273 104.5941
ENERGY: 300000 1.4432 1.8375 1.7325 0.0000 -10597.4619 1403.2507 0.0000 0.0000 1755.1135 -7434.0844 300.9245 -9189.1979 -7474.3861 296.5861 -569.7273 -477.6077 30440.4569 -92.2660 -5.2739
ENERGY: 600000 5.0704 3.8002 2.8014 0.0000 -10655.3371 1454.7302 0.0000 0.0000 1742.5019 -7446.4331 298.7621 -9188.9350 -7448.0177 298.1348 -158.1246 -86.9553 30178.6845 -188.6422 -110.3449
ENERGY: 900000 1.1524 1.7709 2.9308 0.0000 -10570.0485 1399.9161 0.0000 0.0000 1701.6926 -7462.5858 291.7651 -9164.2783 -7433.3606 298.5209 -127.6735 -85.5413 29800.8238 -215.5539 -140.0665
ENERGY: 1200000 3.3482 3.9661 3.5195 0.0000 -10644.6275 1416.8434 0.0000 0.0000 1747.2034 -7469.7469 299.5682 -9216.9503 -7436.1462 299.0614 -505.8572 -382.5387 30286.6564 -204.1344 -130.8302
ENERGY: 1500000 1.1424 1.5938 1.5458 0.0000 -10611.9863 1465.6503 0.0000 0.0000 1768.6002 -7373.4539 303.2368 -9142.0541 -7426.7663 299.7514 565.7160 606.7819 29874.6558 -197.7419 -131.5183
TCL: Running FEP window  20: Lambda1 0.049999999999999684 Lambda2 0.0    [dLambda -0.049999999999999684]
TCL: Setting parameter firsttimestep to 0
TCL: Setting parameter alchLambda to 0.049999999999999684
Info: NONBONDED TABLE R-SQUARED SPACING: 0.0625
Info: NONBONDED TABLE SIZE: 705 POINTS
TCL: Setting parameter alchLambda2 to 0.0
Info: NONBONDED TABLE R-SQUARED SPACING: 0.0625
Info: NONBONDED TABLE SIZE: 705 POINTS
TCL: Running for 1500000 steps
ETITLE: TS BOND ANGLE DIHED IMPRP ELECT VDW BOUNDARY MISC KINETIC TOTAL TEMP POTENTIAL TOTALAVG TEMPAVG PRESSURE GPRESSURE VOLUME PRESSAVG GPRESSAVG
ENERGY: 0 1.1424 1.5938 1.5458 0.0000 -10611.9860 1464.7519 0.0000 0.0000 1767.7046 -7375.2476 303.0833 -9142.9522 -7375.2476 303.0833 510.5229 601.7497 29874.6558 510.5229 601.7497
ENERGY: 300000 1.3807 6.4893 3.8809 0.0000 -10613.9447 1380.7890 0.0000 0.0000 1763.9147 -7457.4901 302.4335 -9221.4048 -7404.0853 300.6868 -268.4236 -273.2922 29736.3245 -45.3328 5.3905
ENERGY: 600000 1.6237 4.1130 3.3005 0.0000 -10545.4128 1368.1992 0.0000 0.0000 1793.0459 -7375.1305 307.4282 -9168.1765 -7405.6305 302.1925 -620.0995 -542.0525 30150.4576 -269.5372 -213.7352
ENERGY: 900000 2.6037 3.9930 1.8646 0.0000 -10613.1489 1445.6868 0.0000 0.0000 1722.9696 -7436.0311 295.4132 -9159.0007 -7399.2826 302.1450 91.8281 121.3972 29786.7926 -87.9355 -33.5812
ENERGY: 1200000 1.6127 3.0443 3.5483 0.0000 -10620.7065 1433.3975 0.0000 0.0000 1772.3123 -7406.7915 303.8733 -9179.1038 -7398.6385 303.1438 -12.3383 40.6016 30070.9940 -31.4239 29.7576
ENERGY: 1500000 2.4742 1.5780 1.7393 0.0000 -10590.1794 1458.7442 0.0000 0.0000 1699.8529 -7425.7909 291.4497 -9125.6438 -7403.2134 301.9193 169.6770 208.0372 30282.2126 23.1555 83.6141
TCL: Exiting due to exit command.
