Info: SIMULATION PARAMETERS:
Info: TIMESTEP               2
Info: NUMBER OF STEPS        0
Info: STEPS PER CYCLE        10
Info: PERIODIC CELL BASIS 1  29.3564 0 0
Info: PERIODIC CELL BASIS 2  0 30.9073 0
Info: PERIODIC CELL BASIS 3  0 0 34.1881
Info: PERIODIC CELL CENTER   0 0 0
Info: WRAPPING WATERS AROUND PERIODIC BOUNDARIES ON OUTPUT.
Info: WRAPPING ALL CLUSTERS AROUND PERIODIC BOUNDARIES ON OUTPUT.
Info: FIRST LDB TIMESTEP     50
Info: LAST LDB TIMESTEP     -1
Info: HOM BACKGROUND SCALING 1
Info: PME BACKGROUND SCALING 1
Info: MIN ATOMS PER PATCH    40
Info: EMPTY PATCH LOAD       40 ATOMS
Info: VELOCITY FILE          mobley_6359156_equil.vel
Info: CENTER OF MASS MOVING INITIALLY? NO
Info: DIELECTRIC             1
Info: EXCLUDE                SCALED ONE-FOUR
Info: 1-4 ELECTROSTATICS SCALED BY 0.833333
Info: MODIFIED 1-4 VDW PARAMETERS WILL BE USED
Info: DCD FILENAME           mobley_6359156_prod.dcd
Info: DCD FREQUENCY          100000
Info: DCD FIRST STEP         100000
Info: DCD FILE WILL CONTAIN UNIT CELL DATA
Info: XST FILENAME           mobley_6359156_prod.xst
Info: XST FREQUENCY          100000
Info: NO VELOCITY DCD OUTPUT
Info: NO FORCE DCD OUTPUT
Info: OUTPUT FILENAME        mobley_6359156_prod
Info: BINARY OUTPUT FILES WILL BE USED
Info: RESTART FILENAME       mobley_6359156_prod.restart
Info: RESTART FREQUENCY      100000
Info: BINARY RESTART FILES WILL BE USED
Info: CUTOFF                 9
Info: PAIRLIST DISTANCE      11
Info: PAIRLIST SHRINK RATE   0.01
Info: PAIRLIST GROW RATE     0.01
Info: PAIRLIST TRIGGER       0.3
Info: PAIRLISTS PER CYCLE    2
Info: PAIRLISTS ENABLED
Info: MARGIN                 2
Info: HYDROGEN GROUP CUTOFF  2.5
Info: PATCH DIMENSION        15.5
Info: ENERGY OUTPUT STEPS    100000
Info: ENERGY EVALUATION STEPS    100000
Info: OUTPUT ENERGY PRECISION 4
Info: CROSSTERM ENERGY INCLUDED IN DIHEDRAL
Info: TIMING OUTPUT STEPS    1000000
Info: PRESSURE OUTPUT STEPS  100000
Info: ALCHEMICAL FEP ON
Info: FEP CURRENT LAMBDA VALUE     0
Info: FEP COMPARISON LAMBDA VALUE  0.05
Info: FEP INTRA-ALCHEMICAL NON-BONDED INTERACTIONS WILL BE RETAINED
Info: FEP INTRA-ALCHEMICAL BONDED INTERACTIONS WILL BE RETAINED
Info: FEP VDW SHIFTING COEFFICIENT 5
Info: FEP ELEC. ACTIVE FOR ANNIHILATED PARTICLES BETWEEN LAMBDA = 0 AND LAMBDA = 0.5
Info: FEP ELEC. ACTIVE FOR EXNIHILATED PARTICLES BETWEEN LAMBDA = 0.5 AND LAMBDA = 1
Info: FEP VDW ACTIVE FOR ANNIHILATED PARTICLES BETWEEN LAMBDA = 0 AND LAMBDA = 1
Info: FEP VDW ACTIVE FOR EXNIHILATED PARTICLES BETWEEN LAMBDA = 0 AND LAMBDA = 1
Info: FEP BOND ACTIVE FOR ANNIHILATED PARTICLES BETWEEN LAMBDA = 1 AND LAMBDA = 1
Info: FEP BOND ACTIVE FOR EXNIHILATED PARTICLES BETWEEN LAMBDA = 0 AND LAMBDA = 0
Info: LANGEVIN DYNAMICS ACTIVE
Info: LANGEVIN TEMPERATURE   300
Info: LANGEVIN USING BBK INTEGRATOR
Info: LANGEVIN DAMPING COEFFICIENT IS 1 INVERSE PS
Info: LANGEVIN DYNAMICS APPLIED TO HYDROGENS
Info: LANGEVIN PISTON PRESSURE CONTROL ACTIVE
Info:        TARGET PRESSURE IS 1.01325 BAR
Info:     OSCILLATION PERIOD IS 50 FS
Info:             DECAY TIME IS 25 FS
Info:     PISTON TEMPERATURE IS 300 K
Info:       PRESSURE CONTROL IS GROUP-BASED
Info:    INITIAL STRAIN RATE IS 0.000169057 0.000169057 0.000169057
Info:       CELL FLUCTUATION IS ISOTROPIC
Info: PARTICLE MESH EWALD (PME) ACTIVE
Info: PME TOLERANCE               1e-06
Info: PME EWALD COEFFICIENT       0.348832
Info: PME INTERPOLATION ORDER     4
Info: PME GRID DIMENSIONS         32 32 36
Info: PME MAXIMUM GRID SPACING    1
Info: PME CALCULATION WILL BE PERFORMED ON GPU
Info: FULL ELECTROSTATIC EVALUATION FREQUENCY      2
Info: USING VERLET I (r-RESPA) MTS SCHEME.
Info: C1 SPLITTING OF LONG RANGE ELECTROSTATICS
Info: PLACING ATOMS IN PATCHES BY HYDROGEN GROUPS
Info: RIGID BONDS TO HYDROGEN : ALL
Info:         ERROR TOLERANCE : 1e-08
Info:          MAX ITERATIONS : 100
Info: RIGID WATER USING SETTLE ALGORITHM
Info: RANDOM NUMBER SEED     1743803705
Info: USE HYDROGEN BONDS?    NO
Info: Using AMBER format force field!
Info: AMBER PARM FILE        mobley_6359156.prmtop
Info: COORDINATE PDB         mobley_6359156.pdb
Info: Exclusions will be read from PARM file!
Info: SCNB (VDW SCALING)     2
Info: USING ARITHMETIC MEAN TO COMBINE L-J SIGMA PARAMETERS
Info: BINARY COORDINATES     mobley_6359156_equil.coor
Info: SUMMARY OF PARAMETERS:
Info: 7 BONDS
Info: 8 ANGLES
Info:   8 HARMONIC
Info:   0 COSINE-BASED
Info: 3 DIHEDRAL
Info: 0 IMPROPER
Info: 0 CROSSTERM
Info: 0 VDW
Info: 15 VDW_PAIRS
Info: 0 NBTHOLE_PAIRS
Info: To read alchdata from file: mobley_6359156.pdb
Info: To read alchflag data from column: 5
Info: STRUCTURE SUMMARY:
Info: 2989 ATOMS
Info: 2990 BONDS
Info: 36 ANGLES
Info: 64 DIHEDRALS
Info: 0 IMPROPERS
Info: 0 CROSSTERMS
Info: 3072 EXCLUSIONS
Info: 2975 RIGID BONDS
Info: ALCH: 0 ATOMS TO DISAPPEAR IN FINAL STATE
Info: ALCH: 22 ATOMS TO APPEAR IN FINAL STATE
Info: 5992 DEGREES OF FREEDOM
Info: 1003 HYDROGEN GROUPS
Info: 3 ATOMS IN LARGEST HYDROGEN GROUP
Info: 1003 MIGRATION GROUPS
Info: 3 ATOMS IN LARGEST MIGRATION GROUP
Info: TOTAL MASS = 18040.9 amu
Info: TOTAL CHARGE = -0.000100006 e
Info: MASS DENSITY = 0.965782 g/cm^3
Info: ATOM DENSITY = 0.0963579 atoms/A^3
Info: ADDED 0 IMPLICIT EXCLUSIONS
Info: NONBONDED TABLE R-SQUARED SPACING: 0.0625
Info: NONBONDED TABLE SIZE: 705 POINTS
Info: REMOVING COM VELOCITY 0.164318 0.0111117 -0.0261946
Info: Use 3D box decompostion in PME FFT.
Info: Updated CUDA force table with 4096 elements.
Info: Updated CUDA LJ table with 5 x 5 elements.
Info: Found 23 unique exclusion lists needing 72 bytes
TCL: Running for 1500000 steps
ETITLE: TS BOND ANGLE DIHED IMPRP ELECT VDW BOUNDARY MISC KINETIC TOTAL TEMP POTENTIAL TOTALAVG TEMPAVG PRESSURE GPRESSURE VOLUME PRESSAVG GPRESSAVG
ENERGY: 0 4.3472 4.7826 7.3336 0.0000 -10781.7274 1440.8382 0.0000 0.0000 1779.7079 -7544.7178 298.9285 -9324.4257 -7544.7178 298.9285 -425.0653 -339.0905 31019.7589 -425.0653 -339.0905
ENERGY: 300000 8.3198 5.0046 9.5473 0.0000 -10750.7760 1450.8726 0.0000 0.0000 1778.2854 -7498.7462 298.6896 -9277.0316 -7555.2867 297.9745 119.4553 167.3377 30548.7741 -259.3341 -172.8265
ENERGY: 600000 6.2719 4.8754 9.8030 0.0000 -10873.3452 1544.9909 0.0000 0.0000 1772.2586 -7535.1455 297.6773 -9307.4040 -7556.5591 298.2042 625.6392 703.0956 30644.7885 -75.4166 -2.8203
ENERGY: 900000 5.1272 2.5247 8.0359 0.0000 -10646.1078 1400.9351 0.0000 0.0000 1861.4590 -7368.0259 312.6598 -9229.4849 -7533.7241 300.2841 -440.3884 -401.3357 31072.8857 -91.2456 -24.3619
ENERGY: 1200000 6.1505 5.2915 13.4516 0.0000 -10763.3846 1474.8473 0.0000 0.0000 1801.1749 -7462.4687 302.5342 -9263.6436 -7527.7548 300.4494 204.8904 284.6372 30367.7142 -204.3015 -143.0823
ENERGY: 1500000 7.4152 3.4010 10.0849 0.0000 -10782.8101 1506.6839 0.0000 0.0000 1791.5816 -7463.6435 300.9229 -9255.2251 -7532.0944 300.6231 430.0907 522.6541 30181.9911 -175.5113 -108.5610
TCL: Running FEP window   2: Lambda1 0.05   Lambda2 0.1    [dLambda 0.05  ]
TCL: Setting parameter firsttimestep to 0
TCL: Setting parameter alchLambda to 0.05
Info: NONBONDED TABLE R-SQUARED SPACING: 0.0625
Info: NONBONDED TABLE SIZE: 705 POINTS
TCL: Setting parameter alchLambda2 to 0.1
Info: NONBONDED TABLE R-SQUARED SPACING: 0.0625
Info: NONBONDED TABLE SIZE: 705 POINTS
TCL: Running for 1500000 steps
ETITLE: TS BOND ANGLE DIHED IMPRP ELECT VDW BOUNDARY MISC KINETIC TOTAL TEMP POTENTIAL TOTALAVG TEMPAVG PRESSURE GPRESSURE VOLUME PRESSAVG GPRESSAVG
ENERGY: 0 7.4152 3.4010 10.0849 0.0000 -10782.8088 1510.8159 0.0000 0.0000 1790.7115 -7460.3803 300.7767 -9251.0918 -7460.3803 300.7767 456.5391 536.7172 30181.9911 456.5391 536.7172
ENERGY: 300000 3.5884 5.5984 9.7623 0.0000 -10868.6664 1489.4545 0.0000 0.0000 1756.9277 -7603.3350 295.1022 -9360.2627 -7554.5665 298.5378 417.2385 438.0496 30382.4589 152.3080 227.8813
ENERGY: 600000 5.0716 7.4478 7.4665 0.0000 -10740.7335 1452.1471 0.0000 0.0000 1760.9625 -7507.6380 295.7799 -9268.6005 -7542.1990 297.6212 61.6586 112.5484 30465.9416 47.7477 116.3060
ENERGY: 900000 5.5680 7.6029 12.3204 0.0000 -10796.6189 1492.7365 0.0000 0.0000 1734.3315 -7544.0595 291.3069 -9278.3910 -7547.3513 296.3660 421.3517 445.2329 30779.0717 8.0747 73.7139
ENERGY: 1200000 4.5403 6.5301 12.0042 0.0000 -10839.6557 1464.9702 0.0000 0.0000 1809.2684 -7542.3424 303.8936 -9351.6108 -7542.6975 296.9627 -34.5850 59.7932 30343.2215 -7.8309 52.6987
ENERGY: 1500000 4.9901 3.7987 12.8784 0.0000 -10729.6239 1426.1389 0.0000 0.0000 1728.1547 -7553.6631 290.2694 -9281.8177 -7547.2656 296.6708 -71.1882 -42.9213 30542.1521 -51.8520 8.9407
TCL: Running FEP window   3: Lambda1 0.1    Lambda2 0.15000000000000002 [dLambda 0.05000000000000002]
TCL: Setting parameter firsttimestep to 0
TCL: Setting parameter alchLambda to 0.1
Info: NONBONDED TABLE R-SQUARED SPACING: 0.0625
Info: NONBONDED TABLE SIZE: 705 POINTS
TCL: Setting parameter alchLambda2 to 0.15000000000000002
Info: NONBONDED TABLE R-SQUARED SPACING: 0.0625
Info: NONBONDED TABLE SIZE: 705 POINTS
TCL: Running for 1500000 steps
ETITLE: TS BOND ANGLE DIHED IMPRP ELECT VDW BOUNDARY MISC KINETIC TOTAL TEMP POTENTIAL TOTALAVG TEMPAVG PRESSURE GPRESSURE VOLUME PRESSAVG GPRESSAVG
ENERGY: 0 4.9901 3.7987 12.8784 0.0000 -10729.6226 1428.2447 0.0000 0.0000 1727.2722 -7552.4385 290.1211 -9279.7107 -7552.4385 290.1211 -126.1032 -30.1174 30542.1521 -126.1032 -30.1174
ENERGY: 300000 6.7345 6.9964 9.1894 0.0000 -10815.3478 1442.5878 0.0000 0.0000 1768.1463 -7581.6933 296.9866 -9349.8397 -7554.3375 295.2958 -222.2671 -137.2937 30687.6064 -263.6179 -169.3956
ENERGY: 600000 3.5551 4.5599 7.1058 0.0000 -10867.2720 1485.9603 0.0000 0.0000 1755.1909 -7610.9000 294.8105 -9366.0909 -7555.3386 295.9388 184.3881 286.7802 30074.1757 -139.1953 -51.6518
ENERGY: 900000 4.3958 5.3416 8.6075 0.0000 -10775.8401 1410.3019 0.0000 0.0000 1693.9984 -7653.1949 284.5323 -9347.1932 -7567.9909 295.5819 -705.0991 -661.2237 30715.6362 -159.1148 -80.0925
ENERGY: 1200000 5.7873 6.5337 11.3888 0.0000 -10775.8569 1480.8685 0.0000 0.0000 1746.9230 -7524.3555 293.4218 -9271.2785 -7565.7219 296.1672 154.3218 149.8683 30883.4448 -148.3522 -80.6812
ENERGY: 1500000 7.1890 6.9875 7.5849 0.0000 -10884.0449 1485.3279 0.0000 0.0000 1765.4337 -7611.5219 296.5309 -9376.9555 -7573.5730 296.4411 83.0569 97.8396 30570.2756 -107.0058 -47.1559
TCL: Running FEP window   4: Lambda1 0.15000000000000002 Lambda2 0.2    [dLambda 0.04999999999999999]
TCL: Setting parameter firsttimestep to 0
TCL: Setting parameter alchLambda to 0.15000000000000002
Info: NONBONDED TABLE R-SQUARED SPACING: 0.0625
Info: NONBONDED TABLE SIZE: 705 POINTS
TCL: Setting parameter alchLambda2 to 0.2
Info: NONBONDED TABLE R-SQUARED SPACING: 0.0625
Info: NONBONDED TABLE SIZE: 705 POINTS
TCL: Running for 1500000 steps
ETITLE: TS BOND ANGLE DIHED IMPRP ELECT VDW BOUNDARY MISC KINETIC TOTAL TEMP POTENTIAL TOTALAVG TEMPAVG PRESSURE GPRESSURE VOLUME PRESSAVG GPRESSAVG
ENERGY: 0 7.1890 6.9875 7.5849 0.0000 -10884.0448 1486.9860 0.0000 0.0000 1764.5583 -7610.7391 296.3839 -9375.2974 -7610.7391 296.3839 18.9636 108.7524 30570.2756 18.9636 108.7524
ENERGY: 300000 6.0860 7.0802 14.6354 0.0000 -10707.4715 1404.3554 0.0000 0.0000 1794.5226 -7480.7919 301.4168 -9275.3145 -7482.0425 302.0086 -414.1016 -330.5280 31058.6377 -248.0486 -187.3774
ENERGY: 600000 4.1043 5.4522 9.9570 0.0000 -10822.6151 1465.0503 0.0000 0.0000 1775.3109 -7562.7405 298.1900 -9338.0514 -7500.8414 301.3911 -202.3763 -124.1961 30941.0817 -70.1000 -11.4903
ENERGY: 900000 5.7794 10.7397 11.2897 0.0000 -10687.6572 1443.1368 0.0000 0.0000 1789.5476 -7427.1639 300.5812 -9216.7115 -7502.7514 300.6910 19.8465 67.8187 30830.7768 -146.4932 -85.8301
ENERGY: 1200000 5.6356 7.5579 8.6476 0.0000 -10924.0572 1526.7079 0.0000 0.0000 1777.7887 -7597.7196 298.6061 -9375.5083 -7511.9046 300.8254 622.4336 687.3823 30009.0247 -79.3651 -9.0259
ENERGY: 1500000 3.1705 6.2125 8.8793 0.0000 -10675.3885 1377.3932 0.0000 0.0000 1786.4095 -7493.3233 300.0541 -9279.7328 -7511.5398 301.5242 -726.2018 -632.8869 31117.5213 -191.6022 -120.4727
TCL: Running FEP window   5: Lambda1 0.2    Lambda2 0.25   [dLambda 0.04999999999999999]
TCL: Setting parameter firsttimestep to 0
TCL: Setting parameter alchLambda to 0.2
Info: NONBONDED TABLE R-SQUARED SPACING: 0.0625
Info: NONBONDED TABLE SIZE: 705 POINTS
TCL: Setting parameter alchLambda2 to 0.25
Info: NONBONDED TABLE R-SQUARED SPACING: 0.0625
Info: NONBONDED TABLE SIZE: 705 POINTS
TCL: Running for 1500000 steps
ETITLE: TS BOND ANGLE DIHED IMPRP ELECT VDW BOUNDARY MISC KINETIC TOTAL TEMP POTENTIAL TOTALAVG TEMPAVG PRESSURE GPRESSURE VOLUME PRESSAVG GPRESSAVG
ENERGY: 0 3.1706 6.2125 8.8793 0.0000 -10675.3870 1377.0889 0.0000 0.0000 1785.5429 -7494.4928 299.9086 -9280.0357 -7494.4928 299.9086 -718.7402 -630.3002 31117.5213 -718.7402 -630.3002
ENERGY: 300000 4.8166 5.5418 14.5503 0.0000 -10777.7168 1399.7546 0.0000 0.0000 1756.6973 -7596.3561 295.0635 -9353.0535 -7539.1376 300.7767 -720.2925 -598.9587 31099.6804 -250.3688 -184.9882
ENERGY: 600000 3.3666 3.5888 14.8622 0.0000 -10779.0806 1400.8340 0.0000 0.0000 1788.4599 -7567.9692 300.3985 -9356.4291 -7529.0334 301.2641 -664.8090 -581.9594 30946.0269 -191.4748 -126.3252
ENERGY: 900000 3.9297 4.9196 14.4920 0.0000 -10790.8963 1450.1318 0.0000 0.0000 1796.0405 -7521.3826 301.6718 -9317.4232 -7536.2882 300.9644 -83.7990 -33.1713 30712.6411 -95.2969 -29.9840
ENERGY: 1200000 3.4630 3.9962 13.3866 0.0000 -10900.9327 1521.7880 0.0000 0.0000 1771.5219 -7586.7770 297.5535 -9358.2989 -7546.6487 300.7929 576.0176 581.5801 30549.9379 -89.3689 -29.2618
ENERGY: 1500000 9.4660 5.4534 12.8499 0.0000 -10787.8848 1477.9785 0.0000 0.0000 1857.8170 -7424.3201 312.0481 -9282.1370 -7545.4107 301.3764 229.0515 294.7489 30799.5886 -31.9791 26.5643
TCL: Running FEP window   6: Lambda1 0.25   Lambda2 0.3    [dLambda 0.04999999999999999]
TCL: Setting parameter firsttimestep to 0
TCL: Setting parameter alchLambda to 0.25
Info: NONBONDED TABLE R-SQUARED SPACING: 0.0625
Info: NONBONDED TABLE SIZE: 705 POINTS
TCL: Setting parameter alchLambda2 to 0.3
Info: NONBONDED TABLE R-SQUARED SPACING: 0.0625
Info: NONBONDED TABLE SIZE: 705 POINTS
TCL: Running for 1500000 steps
ETITLE: TS BOND ANGLE DIHED IMPRP ELECT VDW BOUNDARY MISC KINETIC TOTAL TEMP POTENTIAL TOTALAVG TEMPAVG PRESSURE GPRESSURE VOLUME PRESSAVG GPRESSAVG
ENERGY: 0 9.4660 5.4534 12.8499 0.0000 -10787.8809 1477.6655 0.0000 0.0000 1856.9047 -7425.5413 311.8948 -9282.4460 -7425.5413 311.8948 219.3960 299.6284 30799.5886 219.3960 299.6284
ENERGY: 300000 5.3288 4.1479 10.5451 0.0000 -10857.3228 1461.0298 0.0000 0.0000 1792.2696 -7584.0017 301.0384 -9376.2713 -7514.3369 301.9003 -252.2325 -259.4745 30663.4727 62.1419 108.5953
ENERGY: 600000 5.7946 7.6824 12.3737 0.0000 -10772.0307 1440.3794 0.0000 0.0000 1758.2911 -7547.5095 295.3312 -9305.8005 -7544.3391 298.4778 109.3780 162.1530 30689.4532 71.3985 126.4839
ENERGY: 900000 7.1982 5.0277 9.8648 0.0000 -10718.7748 1394.5297 0.0000 0.0000 1765.8751 -7536.2792 296.6051 -9302.1544 -7528.1654 299.6330 -230.4620 -184.7883 30493.0932 38.6651 97.9506
ENERGY: 1200000 3.9205 7.1044 10.5013 0.0000 -10935.5166 1529.4094 0.0000 0.0000 1893.3166 -7491.2644 318.0108 -9384.5811 -7528.1949 300.8635 782.7590 856.3114 30339.9614 98.7170 157.6156
ENERGY: 1500000 2.7714 4.8475 8.5490 0.0000 -10794.1033 1480.0333 0.0000 0.0000 1802.1358 -7495.7662 302.6956 -9297.9020 -7530.4389 300.2307 414.1785 439.0966 30497.8110 152.5659 206.5798
TCL: Running FEP window   7: Lambda1 0.3    Lambda2 0.35   [dLambda 0.04999999999999999]
TCL: Setting parameter firsttimestep to 0
TCL: Setting parameter alchLambda to 0.3
Info: NONBONDED TABLE R-SQUARED SPACING: 0.0625
Info: NONBONDED TABLE SIZE: 705 POINTS
TCL: Setting parameter alchLambda2 to 0.35
Info: NONBONDED TABLE R-SQUARED SPACING: 0.0625
Info: NONBONDED TABLE SIZE: 705 POINTS
TCL: Running for 1500000 steps
ETITLE: TS BOND ANGLE DIHED IMPRP ELECT VDW BOUNDARY MISC KINETIC TOTAL TEMP POTENTIAL TOTALAVG TEMPAVG PRESSURE GPRESSURE VOLUME PRESSAVG GPRESSAVG
ENERGY: 0 2.7714 4.8475 8.5490 0.0000 -10794.1025 1481.7709 0.0000 0.0000 1801.2330 -7494.9307 302.5439 -9296.1637 -7494.9307 302.5439 377.2434 455.5158 30497.8110 377.2434 455.5158
ENERGY: 300000 6.5205 4.3331 7.6509 0.0000 -10800.4740 1478.2713 0.0000 0.0000 1773.5034 -7530.1949 297.8864 -9303.6983 -7502.1105 305.3483 157.8005 222.2803 30886.7251 -264.1742 -195.8698
ENERGY: 600000 6.4791 3.4602 10.8879 0.0000 -10684.7663 1446.5998 0.0000 0.0000 1771.7804 -7445.5589 297.5970 -9217.3394 -7508.2931 304.2267 213.9195 291.9718 30548.6582 -43.6487 13.3555
ENERGY: 900000 6.8558 3.9385 9.0708 0.0000 -10662.0724 1325.5141 0.0000 0.0000 1818.8983 -7497.7949 305.5111 -9316.6932 -7525.7656 304.3654 -767.6495 -694.1095 30442.1977 -135.1622 -73.7227
ENERGY: 1200000 3.1511 3.7823 11.9447 0.0000 -10660.4079 1379.6356 0.0000 0.0000 1792.6480 -7469.2463 301.1020 -9261.8942 -7518.6359 302.9281 -667.5200 -686.0472 31253.1949 -150.3251 -95.2471
ENERGY: 1500000 4.9398 3.8450 11.6896 0.0000 -11032.2586 1609.7635 0.0000 0.0000 1740.1544 -7661.8663 292.2849 -9402.0207 -7524.9621 302.3559 1108.0085 1198.0993 30334.6543 34.8098 95.2061
TCL: Running FEP window   8: Lambda1 0.35   Lambda2 0.39999999999999997 [dLambda 0.04999999999999999]
TCL: Setting parameter firsttimestep to 0
TCL: Setting parameter alchLambda to 0.35
Info: NONBONDED TABLE R-SQUARED SPACING: 0.0625
Info: NONBONDED TABLE SIZE: 705 POINTS
TCL: Setting parameter alchLambda2 to 0.39999999999999997
Info: NONBONDED TABLE R-SQUARED SPACING: 0.0625
Info: NONBONDED TABLE SIZE: 705 POINTS
TCL: Running for 1500000 steps
ETITLE: TS BOND ANGLE DIHED IMPRP ELECT VDW BOUNDARY MISC KINETIC TOTAL TEMP POTENTIAL TOTALAVG TEMPAVG PRESSURE GPRESSURE VOLUME PRESSAVG GPRESSAVG
ENERGY: 0 4.9398 3.8450 11.6896 0.0000 -11032.2582 1608.9772 0.0000 0.0000 1739.2561 -7663.5506 292.1340 -9402.8067 -7663.5506 292.1340 1112.9009 1199.2668 30334.6543 1112.9009 1199.2668
ENERGY: 300000 5.3014 6.2029 8.8272 0.0000 -10720.6729 1422.0898 0.0000 0.0000 1805.2286 -7473.0231 303.2151 -9278.2516 -7564.4973 296.6255 -237.3114 -157.4250 30616.5279 118.5864 174.8106
ENERGY: 600000 8.9320 6.6866 10.0016 0.0000 -10826.2684 1459.2273 0.0000 0.0000 1746.1165 -7595.3044 293.2863 -9341.4209 -7574.3562 295.7697 -35.3425 31.0776 30825.7181 -1.2442 56.4120
ENERGY: 900000 5.6901 2.9128 6.6643 0.0000 -10697.6185 1435.4505 0.0000 0.0000 1774.6882 -7472.2126 298.0853 -9246.9008 -7556.4822 295.7890 -71.3154 28.7798 30338.9710 -25.9950 39.5167
ENERGY: 1200000 3.9546 6.1054 9.8976 0.0000 -10900.0557 1585.9435 0.0000 0.0000 1788.9053 -7505.2492 300.4733 -9294.1545 -7542.9171 297.2142 1086.3002 1235.3032 30616.2188 -36.0304 36.3921
ENERGY: 1500000 3.9586 4.5825 7.1590 0.0000 -10954.6861 1559.0257 0.0000 0.0000 1751.6167 -7628.3436 294.2102 -9379.9603 -7553.8057 297.1225 903.7856 1042.5353 29977.3826 49.2705 128.1136
TCL: Running FEP window   9: Lambda1 0.39999999999999997 Lambda2 0.44999999999999996 [dLambda 0.04999999999999999]
TCL: Setting parameter firsttimestep to 0
TCL: Setting parameter alchLambda to 0.39999999999999997
Info: NONBONDED TABLE R-SQUARED SPACING: 0.0625
Info: NONBONDED TABLE SIZE: 705 POINTS
TCL: Setting parameter alchLambda2 to 0.44999999999999996
Info: NONBONDED TABLE R-SQUARED SPACING: 0.0625
Info: NONBONDED TABLE SIZE: 705 POINTS
TCL: Running for 1500000 steps
ETITLE: TS BOND ANGLE DIHED IMPRP ELECT VDW BOUNDARY MISC KINETIC TOTAL TEMP POTENTIAL TOTALAVG TEMPAVG PRESSURE GPRESSURE VOLUME PRESSAVG GPRESSAVG
ENERGY: 0 3.9586 4.5825 7.1590 0.0000 -10954.6857 1559.2206 0.0000 0.0000 1750.7427 -7629.0224 294.0634 -9379.7651 -7629.0224 294.0634 968.0217 1053.1322 29977.3826 968.0217 1053.1322
ENERGY: 300000 5.5849 4.3625 11.7308 0.0000 -10865.1432 1508.1338 0.0000 0.0000 1782.3046 -7553.0265 299.3646 -9335.3311 -7602.4648 295.0493 394.7845 456.4149 30485.8890 334.5342 387.8893
ENERGY: 600000 6.0542 6.6516 9.2378 0.0000 -10816.6149 1526.6924 0.0000 0.0000 1757.2543 -7510.7246 295.1571 -9267.9789 -7578.5830 296.6662 966.1094 1030.2560 30225.1393 452.7552 520.4486
ENERGY: 900000 6.7590 5.7315 9.5612 0.0000 -10944.8813 1497.4064 0.0000 0.0000 1801.9272 -7623.4960 302.6606 -9425.4232 -7574.4847 298.3328 -43.1599 91.9597 30578.7868 402.3126 480.9696
ENERGY: 1200000 2.5760 4.6639 12.2881 0.0000 -10853.8081 1531.5923 0.0000 0.0000 1737.2341 -7565.4536 291.7944 -9302.6877 -7580.3055 297.3072 1018.9966 1087.5557 30197.1110 350.9059 420.4647
ENERGY: 1500000 6.4305 5.5939 9.5636 0.0000 -10678.7417 1440.9069 0.0000 0.0000 1794.0532 -7422.1935 301.3380 -9216.2467 -7558.3734 297.3928 -137.9506 -25.4478 31094.7535 260.3618 333.3717
TCL: Running FEP window  10: Lambda1 0.44999999999999996 Lambda2 0.49999999999999994 [dLambda 0.04999999999999999]
TCL: Setting parameter firsttimestep to 0
TCL: Setting parameter alchLambda to 0.44999999999999996
Info: NONBONDED TABLE R-SQUARED SPACING: 0.0625
Info: NONBONDED TABLE SIZE: 705 POINTS
TCL: Setting parameter alchLambda2 to 0.49999999999999994
Info: NONBONDED TABLE R-SQUARED SPACING: 0.0625
Info: NONBONDED TABLE SIZE: 705 POINTS
TCL: Running for 1500000 steps
ETITLE: TS BOND ANGLE DIHED IMPRP ELECT VDW BOUNDARY MISC KINETIC TOTAL TEMP POTENTIAL TOTALAVG TEMPAVG PRESSURE GPRESSURE VOLUME PRESSAVG GPRESSAVG
ENERGY: 0 6.4305 5.5939 9.5636 0.0000 -10678.7401 1441.4964 0.0000 0.0000 1793.1814 -7422.4743 301.1916 -9215.6557 -7422.4743 301.1916 -96.9805 -10.9720 31094.7535 -96.9805 -10.9720
ENERGY: 300000 1.8473 5.6730 9.8827 0.0000 -10683.0629 1368.0452 0.0000 0.0000 1822.2358 -7475.3789 306.0717 -9297.6147 -7473.9650 304.2459 -491.5015 -449.3679 30857.1791 -165.1325 -121.4356
ENERGY: 600000 6.3556 5.1848 10.0326 0.0000 -10897.7393 1503.8184 0.0000 0.0000 1807.3078 -7565.0400 303.5643 -9372.3478 -7499.5945 303.3052 258.0718 279.4958 30631.9551 -18.1113 40.7369
ENERGY: 900000 7.1197 4.4330 7.9592 0.0000 -10601.3326 1375.9320 0.0000 0.0000 1784.7064 -7421.1823 299.7681 -9205.8887 -7485.2088 303.5108 -597.8612 -490.6308 31037.3367 -81.8934 -17.9187
ENERGY: 1200000 7.1371 5.7405 11.7294 0.0000 -10688.7094 1435.7685 0.0000 0.0000 1790.2209 -7438.1130 300.6943 -9228.3338 -7488.9647 303.0269 151.8467 199.7284 30682.4994 -105.7387 -39.3802
ENERGY: 1500000 4.2682 5.0074 7.8475 0.0000 -10749.8720 1398.8658 0.0000 0.0000 1809.6776 -7524.2053 303.9623 -9333.8829 -7492.6725 303.2324 -596.4733 -527.9796 30768.0198 -106.3128 -39.6883
TCL: Running FEP window  11: Lambda1 0.49999999999999994 Lambda2 0.5499999999999999 [dLambda 0.04999999999999999]
TCL: Setting parameter firsttimestep to 0
TCL: Setting parameter alchLambda to 0.49999999999999994
Info: NONBONDED TABLE R-SQUARED SPACING: 0.0625
Info: NONBONDED TABLE SIZE: 705 POINTS
TCL: Setting parameter alchLambda2 to 0.5499999999999999
Info: NONBONDED TABLE R-SQUARED SPACING: 0.0625
Info: NONBONDED TABLE SIZE: 705 POINTS
TCL: Running for 1500000 steps
ETITLE: TS BOND ANGLE DIHED IMPRP ELECT VDW BOUNDARY MISC KINETIC TOTAL TEMP POTENTIAL TOTALAVG TEMPAVG PRESSURE GPRESSURE VOLUME PRESSAVG GPRESSAVG
ENERGY: 0 4.2683 5.0074 7.8475 0.0000 -10749.8724 1399.6704 0.0000 0.0000 1808.7836 -7524.2952 303.8122 -9333.0788 -7524.2952 303.8122 -600.0639 -511.7016 30768.0198 -600.0639 -511.7016
ENERGY: 300000 6.1063 4.3287 8.6043 0.0000 -10871.1902 1471.5063 0.0000 0.0000 1747.6595 -7632.9852 293.5455 -9380.6446 -7547.0272 298.9909 -10.7567 -15.3706 30669.0544 3.5907 35.4526
ENERGY: 600000 4.3550 6.0694 10.7913 0.0000 -10669.5889 1394.6121 0.0000 0.0000 1811.2372 -7442.5240 304.2243 -9253.7612 -7531.2253 297.9825 -164.5734 -82.6799 30488.9994 -285.3498 -236.0573
ENERGY: 900000 2.9930 8.8275 11.4786 0.0000 -10840.3024 1504.0711 0.0000 0.0000 1783.6743 -7529.2579 299.5947 -9312.9322 -7532.7833 297.9322 501.8114 540.4659 30674.4144 -262.1989 -202.4231
ENERGY: 1200000 4.7050 3.2871 11.5342 0.0000 -10640.7694 1388.9234 0.0000 0.0000 1823.9023 -7408.4173 306.3516 -9232.3196 -7519.8012 298.9262 -565.3233 -478.4690 31385.4310 -364.8950 -298.6125
ENERGY: 1500000 2.2765 3.7757 9.7635 0.0000 -10836.5341 1471.5413 0.0000 0.0000 1819.5873 -7529.5897 305.6268 -9349.1769 -7511.8893 300.1675 82.4758 144.2818 30744.0569 -262.7701 -200.1033
TCL: Running FEP window  12: Lambda1 0.5499999999999999 Lambda2 0.6    [dLambda 0.050000000000000044]
TCL: Setting parameter firsttimestep to 0
TCL: Setting parameter alchLambda to 0.5499999999999999
Info: NONBONDED TABLE R-SQUARED SPACING: 0.0625
Info: NONBONDED TABLE SIZE: 705 POINTS
TCL: Setting parameter alchLambda2 to 0.6
Info: NONBONDED TABLE R-SQUARED SPACING: 0.0625
Info: NONBONDED TABLE SIZE: 705 POINTS
TCL: Running for 1500000 steps
ETITLE: TS BOND ANGLE DIHED IMPRP ELECT VDW BOUNDARY MISC KINETIC TOTAL TEMP POTENTIAL TOTALAVG TEMPAVG PRESSURE GPRESSURE VOLUME PRESSAVG GPRESSAVG
ENERGY: 0 2.2765 3.7757 9.7635 0.0000 -10836.2383 1472.3305 0.0000 0.0000 1818.6926 -7529.3994 305.4766 -9348.0920 -7529.3994 305.4766 89.2069 166.3745 30744.0569 89.2069 166.3745
ENERGY: 300000 5.4982 9.7468 11.4399 0.0000 -10932.6363 1586.0087 0.0000 0.0000 1773.4658 -7546.4770 297.8800 -9319.9428 -7553.5061 296.9816 1210.1082 1277.3208 30212.4890 366.4536 429.9097
ENERGY: 600000 3.8456 6.2887 11.7190 0.0000 -10721.0187 1401.9699 0.0000 0.0000 1784.1421 -7513.0532 299.6733 -9297.1954 -7530.3900 298.2630 -468.9765 -413.5313 31229.9970 102.1471 178.4732
ENERGY: 900000 1.7633 5.2486 7.5801 0.0000 -10812.9209 1479.8813 0.0000 0.0000 1832.5255 -7485.9222 307.8000 -9318.4477 -7525.9559 298.6358 251.9069 269.5566 30706.8142 126.6425 192.3664
ENERGY: 1200000 3.5521 4.7986 9.3823 0.0000 -10771.5356 1444.7224 0.0000 0.0000 1744.9131 -7564.1670 293.0842 -9309.0802 -7541.8060 297.6010 157.3365 238.9351 30364.6126 160.9911 227.5323
ENERGY: 1500000 4.7971 7.4029 13.6580 0.0000 -10835.9416 1474.0323 0.0000 0.0000 1763.8949 -7572.1565 296.2725 -9336.0513 -7537.6478 298.1652 172.6284 213.2144 30293.5615 205.5934 271.9096
TCL: Running FEP window  13: Lambda1 0.6    Lambda2 0.65   [dLambda 0.050000000000000044]
TCL: Setting parameter firsttimestep to 0
TCL: Setting parameter alchLambda to 0.6
Info: NONBONDED TABLE R-SQUARED SPACING: 0.0625
Info: NONBONDED TABLE SIZE: 705 POINTS
TCL: Setting parameter alchLambda2 to 0.65
Info: NONBONDED TABLE R-SQUARED SPACING: 0.0625
Info: NONBONDED TABLE SIZE: 705 POINTS
TCL: Running for 1500000 steps
ETITLE: TS BOND ANGLE DIHED IMPRP ELECT VDW BOUNDARY MISC KINETIC TOTAL TEMP POTENTIAL TOTALAVG TEMPAVG PRESSURE GPRESSURE VOLUME PRESSAVG GPRESSAVG
ENERGY: 0 4.7971 7.4029 13.6580 0.0000 -10835.8361 1474.9942 0.0000 0.0000 1762.9994 -7571.9846 296.1220 -9334.9839 -7571.9846 296.1220 146.1485 234.2763 30293.5615 146.1485 234.2763
ENERGY: 300000 4.4463 5.3065 10.6558 0.0000 -10617.2719 1375.8393 0.0000 0.0000 1797.3444 -7423.6797 301.8908 -9221.0241 -7477.6766 301.6441 -516.8726 -449.0564 31346.6306 340.7748 411.8272
ENERGY: 600000 2.7535 5.4032 10.9983 0.0000 -10619.0571 1333.2034 0.0000 0.0000 1764.8571 -7501.8416 296.4341 -9266.6987 -7504.4345 298.6685 -944.7161 -856.3073 31093.1580 105.2727 165.2836
ENERGY: 900000 8.3552 3.4092 10.1054 0.0000 -10932.8606 1613.8276 0.0000 0.0000 1804.1937 -7492.9696 303.0412 -9297.1632 -7512.5267 298.7952 1446.8635 1529.6533 30510.1867 303.0219 360.7161
ENERGY: 1200000 6.1324 6.6334 11.9361 0.0000 -10747.5350 1483.8398 0.0000 0.0000 1814.2142 -7424.7792 304.7243 -9238.9933 -7504.5733 299.9175 518.3799 570.7406 30501.3992 259.5884 314.8203
ENERGY: 1500000 7.5758 3.2904 10.1145 0.0000 -10850.3289 1394.2278 0.0000 0.0000 1743.4717 -7691.6488 292.8421 -9435.1205 -7516.1437 299.8141 -589.3351 -535.2567 30159.7920 183.1896 244.7968
TCL: Running FEP window  14: Lambda1 0.65   Lambda2 0.7000000000000001 [dLambda 0.050000000000000044]
TCL: Setting parameter firsttimestep to 0
TCL: Setting parameter alchLambda to 0.65
Info: NONBONDED TABLE R-SQUARED SPACING: 0.0625
Info: NONBONDED TABLE SIZE: 705 POINTS
TCL: Setting parameter alchLambda2 to 0.7000000000000001
Info: NONBONDED TABLE R-SQUARED SPACING: 0.0625
Info: NONBONDED TABLE SIZE: 705 POINTS
TCL: Running for 1500000 steps
ETITLE: TS BOND ANGLE DIHED IMPRP ELECT VDW BOUNDARY MISC KINETIC TOTAL TEMP POTENTIAL TOTALAVG TEMPAVG PRESSURE GPRESSURE VOLUME PRESSAVG GPRESSAVG
ENERGY: 0 7.5758 3.2904 10.1145 0.0000 -10850.8414 1394.4356 0.0000 0.0000 1742.5864 -7692.8388 292.6934 -9435.4252 -7692.8388 292.6934 -617.8327 -521.5630 30159.7920 -617.8327 -521.5630
ENERGY: 300000 7.7998 6.5856 9.2786 0.0000 -10829.9801 1455.0294 0.0000 0.0000 1838.1691 -7513.1175 308.7479 -9351.2866 -7592.1468 299.1113 32.7320 21.1087 30904.9604 -298.1998 -252.0293
ENERGY: 600000 4.4594 4.3362 13.6100 0.0000 -10839.9329 1441.4678 0.0000 0.0000 1819.0585 -7557.0010 305.5380 -9376.0595 -7562.8321 300.9986 -89.5032 -77.7596 30869.7206 -105.3625 -74.5668
ENERGY: 900000 1.9692 4.9272 11.0392 0.0000 -10779.7210 1540.3805 0.0000 0.0000 1784.7429 -7436.6620 299.7742 -9221.4049 -7549.3126 301.5720 912.5688 985.7939 30932.2799 -58.1307 -24.3259
ENERGY: 1200000 4.6390 6.2919 7.5999 0.0000 -10875.3938 1548.1744 0.0000 0.0000 1763.4942 -7545.1945 296.2052 -9308.6887 -7544.4452 300.6525 833.9035 891.3713 30496.0547 66.4584 111.2436
ENERGY: 1500000 3.5795 4.6699 14.3972 0.0000 -10937.8266 1534.7109 0.0000 0.0000 1769.7028 -7610.7664 297.2480 -9380.4692 -7546.4946 299.6738 388.6363 408.9085 30968.7517 49.9151 96.4381
TCL: Running FEP window  15: Lambda1 0.7000000000000001 Lambda2 0.7500000000000001 [dLambda 0.050000000000000044]
TCL: Setting parameter firsttimestep to 0
TCL: Setting parameter alchLambda to 0.7000000000000001
Info: NONBONDED TABLE R-SQUARED SPACING: 0.0625
Info: NONBONDED TABLE SIZE: 705 POINTS
TCL: Setting parameter alchLambda2 to 0.7500000000000001
Info: NONBONDED TABLE R-SQUARED SPACING: 0.0625
Info: NONBONDED TABLE SIZE: 705 POINTS
TCL: Running for 1500000 steps
ETITLE: TS BOND ANGLE DIHED IMPRP ELECT VDW BOUNDARY MISC KINETIC TOTAL TEMP POTENTIAL TOTALAVG TEMPAVG PRESSURE GPRESSURE VOLUME PRESSAVG GPRESSAVG
ENERGY: 0 3.5794 4.6699 14.3972 0.0000 -10938.3813 1534.3501 0.0000 0.0000 1768.8231 -7612.5615 297.1002 -9381.3847 -7612.5615 297.1002 330.8521 417.9358 30968.7517 330.8521 417.9358
ENERGY: 300000 4.4937 2.9153 11.0259 0.0000 -10831.5856 1424.7219 0.0000 0.0000 1785.0807 -7603.3480 299.8309 -9388.4287 -7588.9539 297.3164 -444.8274 -367.6066 30922.5031 -249.7681 -164.4828
ENERGY: 600000 6.0158 6.7627 10.2448 0.0000 -10700.1386 1407.6711 0.0000 0.0000 1773.2329 -7496.2113 297.8409 -9269.4442 -7545.8677 298.5373 -409.9269 -347.3056 30665.3922 -306.6164 -230.2884
ENERGY: 900000 4.4734 6.6644 8.5106 0.0000 -10756.6205 1428.0012 0.0000 0.0000 1750.2758 -7558.6951 293.9849 -9308.9710 -7542.2795 297.3115 -147.1952 -82.8541 30762.7582 -128.5904 -59.6815
ENERGY: 1200000 3.4891 6.7526 9.4794 0.0000 -10816.9603 1504.8493 0.0000 0.0000 1826.2003 -7466.1895 306.7376 -9292.3898 -7541.5122 298.5926 390.8670 411.1638 31293.7144 -21.0052 41.9903
ENERGY: 1500000 6.8360 4.7895 14.9705 0.0000 -10953.6576 1559.6152 0.0000 0.0000 1790.3680 -7577.0784 300.7190 -9367.4465 -7550.3425 298.7060 653.7000 727.2707 30297.0299 -18.0746 48.4457
TCL: Running FEP window  16: Lambda1 0.7500000000000001 Lambda2 0.8000000000000002 [dLambda 0.050000000000000044]
TCL: Setting parameter firsttimestep to 0
TCL: Setting parameter alchLambda to 0.7500000000000001
Info: NONBONDED TABLE R-SQUARED SPACING: 0.0625
Info: NONBONDED TABLE SIZE: 705 POINTS
TCL: Setting parameter alchLambda2 to 0.8000000000000002
Info: NONBONDED TABLE R-SQUARED SPACING: 0.0625
Info: NONBONDED TABLE SIZE: 705 POINTS
TCL: Running for 1500000 steps
ETITLE: TS BOND ANGLE DIHED IMPRP ELECT VDW BOUNDARY MISC KINETIC TOTAL TEMP POTENTIAL TOTALAVG TEMPAVG PRESSURE GPRESSURE VOLUME PRESSAVG GPRESSAVG
ENERGY: 0 6.8360 4.7895 14.9705 0.0000 -10954.1286 1561.6285 0.0000 0.0000 1789.4715 -7576.4327 300.5684 -9365.9042 -7576.4327 300.5684 671.4601 763.5297 30297.0299 671.4601 763.5297
ENERGY: 300000 4.9446 6.9581 12.4988 0.0000 -10825.3822 1385.6154 0.0000 0.0000 1778.9137 -7636.4515 298.7951 -9415.3652 -7568.8671 303.1332 -744.8108 -664.6004 30808.5077 12.3629 90.3264
ENERGY: 600000 4.7810 2.4785 7.5523 0.0000 -10727.6538 1363.5183 0.0000 0.0000 1785.9305 -7563.3931 299.9737 -9349.3237 -7551.0290 301.7955 -492.0139 -460.5427 30686.9113 -39.2204 36.7041
ENERGY: 900000 5.6846 3.4168 11.7037 0.0000 -10804.3467 1474.0677 0.0000 0.0000 1761.3450 -7548.1289 295.8442 -9309.4739 -7544.0643 301.1486 86.7375 104.7500 30887.2819 -139.3741 -67.9118
ENERGY: 1200000 5.2271 9.3196 12.6910 0.0000 -10949.4602 1509.3615 0.0000 0.0000 1766.6377 -7646.2234 296.7332 -9412.8611 -7548.2123 300.4124 117.6247 198.7397 30728.9353 -161.1298 -96.3637
ENERGY: 1500000 4.2472 6.7243 12.4490 0.0000 -10631.8914 1346.9691 0.0000 0.0000 1776.3874 -7485.1144 298.3708 -9261.5017 -7547.5293 299.5012 -733.3405 -649.0693 30900.7489 -174.9648 -115.8671
TCL: Running FEP window  17: Lambda1 0.8000000000000002 Lambda2 0.8500000000000002 [dLambda 0.050000000000000044]
TCL: Setting parameter firsttimestep to 0
TCL: Setting parameter alchLambda to 0.8000000000000002
Info: NONBONDED TABLE R-SQUARED SPACING: 0.0625
Info: NONBONDED TABLE SIZE: 705 POINTS
TCL: Setting parameter alchLambda2 to 0.8500000000000002
Info: NONBONDED TABLE R-SQUARED SPACING: 0.0625
Info: NONBONDED TABLE SIZE: 705 POINTS
TCL: Running for 1500000 steps
ETITLE: TS BOND ANGLE DIHED IMPRP ELECT VDW BOUNDARY MISC KINETIC TOTAL TEMP POTENTIAL TOTALAVG TEMPAVG PRESSURE GPRESSURE VOLUME PRESSAVG GPRESSAVG
ENERGY: 0 4.2472 6.7243 12.4490 0.0000 -10632.3007 1347.1615 0.0000 0.0000 1775.5349 -7486.1837 298.2276 -9261.7186 -7486.1837 298.2276 -714.1040 -630.7905 30900.7489 -714.1040 -630.7905
ENERGY: 300000 3.9029 9.6421 15.0851 0.0000 -10663.5959 1298.0932 0.0000 0.0000 1853.0387 -7483.8338 311.2455 -9336.8724 -7522.4478 300.9685 -1339.3241 -1314.5679 31181.2978 -548.0736 -502.0041
ENERGY: 600000 7.8232 3.8413 12.6727 0.0000 -10770.6747 1452.5607 0.0000 0.0000 1757.7820 -7535.9947 295.2457 -9293.7768 -7519.3514 299.6267 -81.3641 2.1397 30842.8710 -606.3252 -539.2689
ENERGY: 900000 2.5855 7.7572 12.9917 0.0000 -10809.4294 1430.5596 0.0000 0.0000 1845.3015 -7510.2339 309.9459 -9355.5354 -7521.4962 302.2621 -324.2361 -262.4546 31116.1086 -545.0119 -470.8149
ENERGY: 1200000 6.4553 5.4764 12.6296 0.0000 -10886.8484 1450.0120 0.0000 0.0000 1838.3204 -7573.9547 308.7733 -9412.2752 -7530.7868 302.9210 -381.6462 -365.5259 30555.2855 -560.5540 -489.6673
ENERGY: 1500000 6.7493 11.2106 11.2481 0.0000 -10664.2390 1378.0596 0.0000 0.0000 1725.8112 -7531.1602 289.8757 -9256.9714 -7528.8757 301.7656 -659.8416 -625.7600 31409.9760 -429.6931 -367.9687
TCL: Running FEP window  18: Lambda1 0.8500000000000002 Lambda2 0.9000000000000002 [dLambda 0.050000000000000044]
TCL: Setting parameter firsttimestep to 0
TCL: Setting parameter alchLambda to 0.8500000000000002
Info: NONBONDED TABLE R-SQUARED SPACING: 0.0625
Info: NONBONDED TABLE SIZE: 705 POINTS
TCL: Setting parameter alchLambda2 to 0.9000000000000002
Info: NONBONDED TABLE R-SQUARED SPACING: 0.0625
Info: NONBONDED TABLE SIZE: 705 POINTS
TCL: Running for 1500000 steps
ETITLE: TS BOND ANGLE DIHED IMPRP ELECT VDW BOUNDARY MISC KINETIC TOTAL TEMP POTENTIAL TOTALAVG TEMPAVG PRESSURE GPRESSURE VOLUME PRESSAVG GPRESSAVG
ENERGY: 0 6.7493 11.2106 11.2481 0.0000 -10664.8617 1378.1027 0.0000 0.0000 1724.9346 -7532.6165 289.7285 -9257.5511 -7532.6165 289.7285 -685.8390 -611.8637 31409.9760 -685.8390 -611.8637
ENERGY: 300000 4.2050 6.3942 7.1051 0.0000 -11057.3625 1655.1465 0.0000 0.0000 1789.6348 -7594.8767 300.5959 -9384.5116 -7544.9359 293.7026 1731.2919 1868.8994 30403.6060 290.7975 382.1012
ENERGY: 600000 2.8817 3.8839 8.5895 0.0000 -10702.4640 1412.1771 0.0000 0.0000 1765.3835 -7509.5483 296.5225 -9274.9318 -7532.0911 297.1699 -311.8557 -237.2823 31367.3996 260.7492 341.2439
ENERGY: 900000 5.7293 5.1120 7.0630 0.0000 -10769.5863 1414.4990 0.0000 0.0000 1765.8365 -7571.3465 296.5986 -9337.1830 -7536.7882 297.6303 -156.1795 -75.1384 31079.6696 262.0140 339.4990
ENERGY: 1200000 3.4450 5.5553 8.9371 0.0000 -10773.1912 1479.9560 0.0000 0.0000 1792.3099 -7482.9878 301.0452 -9275.2977 -7530.1208 298.2489 373.2080 486.8567 30782.4378 141.0602 217.1818
ENERGY: 1500000 4.6586 3.7886 8.0509 0.0000 -10818.9130 1475.6686 0.0000 0.0000 1836.8102 -7489.9360 308.5197 -9326.7462 -7530.3556 298.7361 303.4752 352.3199 30703.8949 141.8443 206.9751
TCL: Running FEP window  19: Lambda1 0.9000000000000002 Lambda2 0.9500000000000003 [dLambda 0.050000000000000044]
TCL: Setting parameter firsttimestep to 0
TCL: Setting parameter alchLambda to 0.9000000000000002
Info: NONBONDED TABLE R-SQUARED SPACING: 0.0625
Info: NONBONDED TABLE SIZE: 705 POINTS
TCL: Setting parameter alchLambda2 to 0.9500000000000003
Info: NONBONDED TABLE R-SQUARED SPACING: 0.0625
Info: NONBONDED TABLE SIZE: 705 POINTS
TCL: Running for 1500000 steps
ETITLE: TS BOND ANGLE DIHED IMPRP ELECT VDW BOUNDARY MISC KINETIC TOTAL TEMP POTENTIAL TOTALAVG TEMPAVG PRESSURE GPRESSURE VOLUME PRESSAVG GPRESSAVG
ENERGY: 0 4.6586 3.7886 8.0509 0.0000 -10819.5798 1475.4298 0.0000 0.0000 1835.9256 -7491.7262 308.3711 -9327.6518 -7491.7262 308.3711 275.4433 364.2294 30703.8949 275.4433 364.2294
ENERGY: 300000 4.3932 9.1134 7.3712 0.0000 -10812.0002 1446.9145 0.0000 0.0000 1747.4651 -7596.7428 293.5128 -9344.2079 -7513.1847 301.2814 -181.7169 -170.4291 30902.1465 -60.2483 15.5352
ENERGY: 600000 5.2194 5.3932 11.3691 0.0000 -10941.9119 1521.4844 0.0000 0.0000 1878.9360 -7519.5098 315.5953 -9398.4459 -7520.3557 304.3184 960.6718 1048.4270 30026.6124 97.7907 175.5315
ENERGY: 900000 3.3568 7.5540 11.7382 0.0000 -10717.0611 1420.0642 0.0000 0.0000 1777.0268 -7497.3212 298.4782 -9274.3480 -7515.6917 302.0516 -135.4336 -42.9196 30838.6054 -78.5119 3.2220
ENERGY: 1200000 3.6140 4.7817 11.5914 0.0000 -10943.8134 1528.7360 0.0000 0.0000 1747.0641 -7648.0262 293.4455 -9395.0903 -7532.3382 301.5220 422.0564 483.1472 30524.1050 -48.1269 30.7041
ENERGY: 1500000 5.3697 6.1200 10.3711 0.0000 -10845.7683 1479.1191 0.0000 0.0000 1768.1794 -7576.6090 296.9921 -9344.7883 -7530.6170 301.5047 -169.5225 -147.9050 31166.2410 37.1115 111.2339
TCL: Running FEP window  20: Lambda1 0.9500000000000003 Lambda2 1.0    [dLambda 0.04999999999999971]
TCL: Setting parameter firsttimestep to 0
TCL: Setting parameter alchLambda to 0.9500000000000003
Info: NONBONDED TABLE R-SQUARED SPACING: 0.0625
Info: NONBONDED TABLE SIZE: 705 POINTS
TCL: Setting parameter alchLambda2 to 1.0
Info: NONBONDED TABLE R-SQUARED SPACING: 0.0625
Info: NONBONDED TABLE SIZE: 705 POINTS
TCL: Running for 1500000 steps
ETITLE: TS BOND ANGLE DIHED IMPRP ELECT VDW BOUNDARY MISC KINETIC TOTAL TEMP POTENTIAL TOTALAVG TEMPAVG PRESSURE GPRESSURE VOLUME PRESSAVG GPRESSAVG
ENERGY: 0 5.3697 6.1200 10.3711 0.0000 -10846.2191 1478.4816 0.0000 0.0000 1767.2794 -7578.5972 296.8409 -9345.8766 -7578.5972 296.8409 -217.8971 -139.8512 31166.2410 -217.8971 -139.8512
ENERGY: 300000 4.2277 4.6258 13.9506 0.0000 -10888.2673 1481.5426 0.0000 0.0000 1833.2987 -7550.6220 307.9299 -9383.9206 -7557.4068 300.0300 155.2725 183.0624 30938.6009 14.9682 93.0143
ENERGY: 600000 6.4286 7.4123 11.0128 0.0000 -10834.5838 1447.2677 0.0000 0.0000 1827.7532 -7534.7092 306.9984 -9362.4625 -7559.2413 298.5419 113.9457 179.6676 30710.1753 -41.8996 51.9651
ENERGY: 900000 3.6607 5.1070 9.4121 0.0000 -10806.1755 1466.6974 0.0000 0.0000 1793.4767 -7527.8217 301.2412 -9321.2984 -7552.2345 298.6476 157.0083 258.0103 31054.5659 -3.9151 85.8951
ENERGY: 1200000 4.9919 7.0568 8.5977 0.0000 -10842.2336 1446.6710 0.0000 0.0000 1799.8582 -7575.0581 302.3130 -9374.9162 -7556.2629 299.2104 -197.5836 -154.6108 31091.4398 87.4098 169.0203
ENERGY: 1500000 5.5257 3.8524 10.4370 0.0000 -10748.1800 1381.7564 0.0000 0.0000 1805.9996 -7540.6088 303.3446 -9346.6085 -7554.3835 299.4608 -489.0199 -397.6213 30446.7130 67.9849 153.3926
TCL: Exiting due to exit command.
