Info: SIMULATION PARAMETERS:
Info: TIMESTEP               2
Info: NUMBER OF STEPS        0
Info: STEPS PER CYCLE        10
Info: PERIODIC CELL BASIS 1  30.0273 0 0
Info: PERIODIC CELL BASIS 2  0 32.2702 0
Info: PERIODIC CELL BASIS 3  0 0 30.6831
Info: PERIODIC CELL CENTER   0 0 0
Info: WRAPPING WATERS AROUND PERIODIC BOUNDARIES ON OUTPUT.
Info: WRAPPING ALL CLUSTERS AROUND PERIODIC BOUNDARIES ON OUTPUT.
Info: FIRST LDB TIMESTEP     50
Info: LAST LDB TIMESTEP     -1
Info: HOM BACKGROUND SCALING 1
Info: PME BACKGROUND SCALING 1
Info: MIN ATOMS PER PATCH    40
Info: EMPTY PATCH LOAD       40 ATOMS
Info: VELOCITY FILE          mobley_5616693_equil.vel
Info: CENTER OF MASS MOVING INITIALLY? NO
Info: DIELECTRIC             1
Info: EXCLUDE                SCALED ONE-FOUR
Info: 1-4 ELECTROSTATICS SCALED BY 0.833333
Info: MODIFIED 1-4 VDW PARAMETERS WILL BE USED
Info: DCD FILENAME           mobley_5616693_prod.dcd
Info: DCD FREQUENCY          100000
Info: DCD FIRST STEP         100000
Info: DCD FILE WILL CONTAIN UNIT CELL DATA
Info: XST FILENAME           mobley_5616693_prod.xst
Info: XST FREQUENCY          100000
Info: NO VELOCITY DCD OUTPUT
Info: NO FORCE DCD OUTPUT
Info: OUTPUT FILENAME        mobley_5616693_prod
Info: BINARY OUTPUT FILES WILL BE USED
Info: RESTART FILENAME       mobley_5616693_prod.restart
Info: RESTART FREQUENCY      100000
Info: BINARY RESTART FILES WILL BE USED
Info: CUTOFF                 9
Info: PAIRLIST DISTANCE      11
Info: PAIRLIST SHRINK RATE   0.01
Info: PAIRLIST GROW RATE     0.01
Info: PAIRLIST TRIGGER       0.3
Info: PAIRLISTS PER CYCLE    2
Info: PAIRLISTS ENABLED
Info: MARGIN                 2
Info: HYDROGEN GROUP CUTOFF  2.5
Info: PATCH DIMENSION        15.5
Info: ENERGY OUTPUT STEPS    100000
Info: ENERGY EVALUATION STEPS    100000
Info: OUTPUT ENERGY PRECISION 4
Info: CROSSTERM ENERGY INCLUDED IN DIHEDRAL
Info: TIMING OUTPUT STEPS    1000000
Info: PRESSURE OUTPUT STEPS  100000
Info: ALCHEMICAL FEP ON
Info: FEP CURRENT LAMBDA VALUE     0
Info: FEP COMPARISON LAMBDA VALUE  0.05
Info: FEP INTRA-ALCHEMICAL NON-BONDED INTERACTIONS WILL BE RETAINED
Info: FEP INTRA-ALCHEMICAL BONDED INTERACTIONS WILL BE RETAINED
Info: FEP VDW SHIFTING COEFFICIENT 5
Info: FEP ELEC. ACTIVE FOR ANNIHILATED PARTICLES BETWEEN LAMBDA = 0 AND LAMBDA = 0.5
Info: FEP ELEC. ACTIVE FOR EXNIHILATED PARTICLES BETWEEN LAMBDA = 0.5 AND LAMBDA = 1
Info: FEP VDW ACTIVE FOR ANNIHILATED PARTICLES BETWEEN LAMBDA = 0 AND LAMBDA = 1
Info: FEP VDW ACTIVE FOR EXNIHILATED PARTICLES BETWEEN LAMBDA = 0 AND LAMBDA = 1
Info: FEP BOND ACTIVE FOR ANNIHILATED PARTICLES BETWEEN LAMBDA = 1 AND LAMBDA = 1
Info: FEP BOND ACTIVE FOR EXNIHILATED PARTICLES BETWEEN LAMBDA = 0 AND LAMBDA = 0
Info: LANGEVIN DYNAMICS ACTIVE
Info: LANGEVIN TEMPERATURE   300
Info: LANGEVIN USING BBK INTEGRATOR
Info: LANGEVIN DAMPING COEFFICIENT IS 1 INVERSE PS
Info: LANGEVIN DYNAMICS APPLIED TO HYDROGENS
Info: LANGEVIN PISTON PRESSURE CONTROL ACTIVE
Info:        TARGET PRESSURE IS 1.01325 BAR
Info:     OSCILLATION PERIOD IS 50 FS
Info:             DECAY TIME IS 25 FS
Info:     PISTON TEMPERATURE IS 300 K
Info:       PRESSURE CONTROL IS GROUP-BASED
Info:    INITIAL STRAIN RATE IS -0.000384733 -0.000384733 -0.000384733
Info:       CELL FLUCTUATION IS ISOTROPIC
Info: PARTICLE MESH EWALD (PME) ACTIVE
Info: PME TOLERANCE               1e-06
Info: PME EWALD COEFFICIENT       0.348832
Info: PME INTERPOLATION ORDER     4
Info: PME GRID DIMENSIONS         32 36 32
Info: PME MAXIMUM GRID SPACING    1
Info: PME CALCULATION WILL BE PERFORMED ON GPU
Info: FULL ELECTROSTATIC EVALUATION FREQUENCY      2
Info: USING VERLET I (r-RESPA) MTS SCHEME.
Info: C1 SPLITTING OF LONG RANGE ELECTROSTATICS
Info: PLACING ATOMS IN PATCHES BY HYDROGEN GROUPS
Info: RIGID BONDS TO HYDROGEN : ALL
Info:         ERROR TOLERANCE : 1e-08
Info:          MAX ITERATIONS : 100
Info: RIGID WATER USING SETTLE ALGORITHM
Info: RANDOM NUMBER SEED     1743825534
Info: USE HYDROGEN BONDS?    NO
Info: Using AMBER format force field!
Info: AMBER PARM FILE        mobley_5616693.prmtop
Info: COORDINATE PDB         mobley_5616693.pdb
Info: Exclusions will be read from PARM file!
Info: SCNB (VDW SCALING)     2
Info: USING ARITHMETIC MEAN TO COMBINE L-J SIGMA PARAMETERS
Info: BINARY COORDINATES     mobley_5616693_equil.coor
Info: SUMMARY OF PARAMETERS:
Info: 6 BONDS
Info: 7 ANGLES
Info:   7 HARMONIC
Info:   0 COSINE-BASED
Info: 11 DIHEDRAL
Info: 0 IMPROPER
Info: 0 CROSSTERM
Info: 0 VDW
Info: 21 VDW_PAIRS
Info: 0 NBTHOLE_PAIRS
Info: To read alchdata from file: mobley_5616693.pdb
Info: To read alchflag data from column: 5
Info: STRUCTURE SUMMARY:
Info: 2906 ATOMS
Info: 2906 BONDS
Info: 57 ANGLES
Info: 103 DIHEDRALS
Info: 0 IMPROPERS
Info: 0 CROSSTERMS
Info: 3044 EXCLUSIONS
Info: 2895 RIGID BONDS
Info: ALCH: 0 ATOMS TO DISAPPEAR IN FINAL STATE
Info: ALCH: 29 ATOMS TO APPEAR IN FINAL STATE
Info: 5823 DEGREES OF FREEDOM
Info: 970 HYDROGEN GROUPS
Info: 4 ATOMS IN LARGEST HYDROGEN GROUP
Info: 970 MIGRATION GROUPS
Info: 4 ATOMS IN LARGEST MIGRATION GROUP
Info: TOTAL MASS = 17431.6 amu
Info: TOTAL CHARGE = -0.000100005 e
Info: MASS DENSITY = 0.973597 g/cm^3
Info: ATOM DENSITY = 0.0977415 atoms/A^3
Info: ADDED 0 IMPLICIT EXCLUSIONS
Info: NONBONDED TABLE R-SQUARED SPACING: 0.0625
Info: NONBONDED TABLE SIZE: 705 POINTS
Info: REMOVING COM VELOCITY 0.0139778 0.0674693 -0.114047
Info: Use 3D box decompostion in PME FFT.
Info: Updated CUDA force table with 4096 elements.
Info: Updated CUDA LJ table with 6 x 6 elements.
Info: Found 29 unique exclusion lists needing 104 bytes
TCL: Running for 1500000 steps
ETITLE: TS BOND ANGLE DIHED IMPRP ELECT VDW BOUNDARY MISC KINETIC TOTAL TEMP POTENTIAL TOTALAVG TEMPAVG PRESSURE GPRESSURE VOLUME PRESSAVG GPRESSAVG
ENERGY: 0 2.1780 14.6992 7.2417 0.0000 -10557.3749 1454.9518 0.0000 0.0000 1694.2031 -7384.1011 292.8256 -9078.3042 -7384.1011 292.8256 264.0241 350.9237 29731.4989 264.0241 350.9237
ENERGY: 300000 6.9238 10.4960 7.7344 0.0000 -10577.1503 1457.6159 0.0000 0.0000 1696.2745 -7398.1058 293.1836 -9094.3802 -7346.4072 298.4733 258.3447 307.3939 29428.9417 144.6611 201.2830
ENERGY: 600000 2.6989 14.3905 6.4793 0.0000 -10269.9322 1273.7609 0.0000 0.0000 1697.6193 -7274.9832 293.4161 -8972.6025 -7310.5107 299.5520 -1055.9656 -1035.8806 29907.9490 -65.9598 -19.4125
ENERGY: 900000 1.9029 15.8811 7.7445 0.0000 -10443.6380 1396.6856 0.0000 0.0000 1748.7946 -7272.6293 302.2612 -9021.4239 -7308.3498 301.1660 -208.0404 -96.4769 30075.8861 -67.5138 -8.7191
ENERGY: 1200000 4.9342 15.2302 6.6858 0.0000 -10369.7773 1359.9545 0.0000 0.0000 1752.9384 -7230.0342 302.9774 -8982.9727 -7307.8478 301.6719 -437.7070 -383.5294 29942.4596 -24.1358 34.7575
ENERGY: 1500000 1.9535 12.0321 8.3596 0.0000 -10406.8216 1387.2424 0.0000 0.0000 1716.0997 -7281.1344 296.6102 -8997.2341 -7302.9047 301.3302 -149.4514 -73.8482 29875.1471 -27.6942 34.4169
TCL: Running FEP window   2: Lambda1 0.05   Lambda2 0.1    [dLambda 0.05  ]
TCL: Setting parameter firsttimestep to 0
TCL: Setting parameter alchLambda to 0.05
Info: NONBONDED TABLE R-SQUARED SPACING: 0.0625
Info: NONBONDED TABLE SIZE: 705 POINTS
TCL: Setting parameter alchLambda2 to 0.1
Info: NONBONDED TABLE R-SQUARED SPACING: 0.0625
Info: NONBONDED TABLE SIZE: 705 POINTS
TCL: Running for 1500000 steps
ETITLE: TS BOND ANGLE DIHED IMPRP ELECT VDW BOUNDARY MISC KINETIC TOTAL TEMP POTENTIAL TOTALAVG TEMPAVG PRESSURE GPRESSURE VOLUME PRESSAVG GPRESSAVG
ENERGY: 0 1.9535 12.0321 8.3596 0.0000 -10406.8216 1391.1494 0.0000 0.0000 1715.2419 -7278.0851 296.4620 -8993.3271 -7278.0851 296.4620 -153.2877 -67.8585 29875.1471 -153.2877 -67.8585
ENERGY: 300000 5.1368 16.1812 6.0017 0.0000 -10443.1048 1412.9982 0.0000 0.0000 1705.3361 -7297.4508 294.7498 -9002.7870 -7307.5258 296.7000 160.8188 127.4471 29494.8758 -181.3890 -115.2935
ENERGY: 600000 6.3054 15.3124 6.1972 0.0000 -10415.7039 1316.7657 0.0000 0.0000 1672.1061 -7399.0171 289.0064 -9071.1232 -7319.7241 297.1361 -978.4529 -860.4694 29585.0319 -201.8722 -144.3119
ENERGY: 900000 4.4057 14.1232 7.4948 0.0000 -10608.9451 1587.8902 0.0000 0.0000 1709.0757 -7285.9556 295.3962 -8995.0313 -7308.9819 298.5003 1277.3835 1349.1256 29601.2600 -82.9609 -22.5790
ENERGY: 1200000 1.9537 17.1268 6.8806 0.0000 -10529.6674 1424.8214 0.0000 0.0000 1701.7641 -7377.1208 294.1325 -9078.8850 -7313.2795 298.9791 -38.6085 37.3051 29725.7806 -104.5754 -39.2972
ENERGY: 1500000 4.3816 15.6737 7.1152 0.0000 -10557.9315 1453.8910 0.0000 0.0000 1751.2710 -7325.5990 302.6892 -9076.8699 -7311.0956 298.9103 20.5105 62.2167 29737.2999 -91.7158 -28.0906
TCL: Running FEP window   3: Lambda1 0.1    Lambda2 0.15000000000000002 [dLambda 0.05000000000000002]
TCL: Setting parameter firsttimestep to 0
TCL: Setting parameter alchLambda to 0.1
Info: NONBONDED TABLE R-SQUARED SPACING: 0.0625
Info: NONBONDED TABLE SIZE: 705 POINTS
TCL: Setting parameter alchLambda2 to 0.15000000000000002
Info: NONBONDED TABLE R-SQUARED SPACING: 0.0625
Info: NONBONDED TABLE SIZE: 705 POINTS
TCL: Running for 1500000 steps
ETITLE: TS BOND ANGLE DIHED IMPRP ELECT VDW BOUNDARY MISC KINETIC TOTAL TEMP POTENTIAL TOTALAVG TEMPAVG PRESSURE GPRESSURE VOLUME PRESSAVG GPRESSAVG
ENERGY: 0 4.3816 15.6737 7.1152 0.0000 -10557.9309 1456.2185 0.0000 0.0000 1750.4178 -7324.1241 302.5417 -9074.5418 -7324.1241 302.5417 -9.2298 72.2330 29737.2999 -9.2298 72.2330
ENERGY: 300000 5.9920 18.7878 6.7621 0.0000 -10620.1649 1524.2819 0.0000 0.0000 1785.1313 -7279.2098 308.5416 -9064.3411 -7287.2827 301.2766 863.5008 958.6485 29250.4024 290.5115 353.4526
ENERGY: 600000 3.5797 14.9940 5.8577 0.0000 -10522.4278 1427.0097 0.0000 0.0000 1731.5330 -7339.4536 299.2777 -9070.9867 -7308.5907 300.0771 214.7340 307.6567 29480.2747 115.7099 188.1732
ENERGY: 900000 8.3077 14.5911 8.6660 0.0000 -10578.1679 1431.9663 0.0000 0.0000 1739.4224 -7375.2144 300.6413 -9114.6368 -7336.9737 297.9554 -548.2093 -437.3540 29736.0775 -96.6693 -24.3671
ENERGY: 1200000 6.6190 10.4479 6.6514 0.0000 -10262.6842 1341.6472 0.0000 0.0000 1669.0000 -7228.3187 288.4695 -8897.3187 -7320.5550 297.6665 -489.2654 -365.3180 29867.3985 -188.2890 -117.6031
ENERGY: 1500000 6.4464 12.1573 6.2554 0.0000 -10445.4816 1396.8897 0.0000 0.0000 1720.3126 -7303.4203 297.3384 -9023.7329 -7323.6136 297.9990 41.5759 207.3970 29195.9423 -115.2850 -43.0286
TCL: Running FEP window   4: Lambda1 0.15000000000000002 Lambda2 0.2    [dLambda 0.04999999999999999]
TCL: Setting parameter firsttimestep to 0
TCL: Setting parameter alchLambda to 0.15000000000000002
Info: NONBONDED TABLE R-SQUARED SPACING: 0.0625
Info: NONBONDED TABLE SIZE: 705 POINTS
TCL: Setting parameter alchLambda2 to 0.2
Info: NONBONDED TABLE R-SQUARED SPACING: 0.0625
Info: NONBONDED TABLE SIZE: 705 POINTS
TCL: Running for 1500000 steps
ETITLE: TS BOND ANGLE DIHED IMPRP ELECT VDW BOUNDARY MISC KINETIC TOTAL TEMP POTENTIAL TOTALAVG TEMPAVG PRESSURE GPRESSURE VOLUME PRESSAVG GPRESSAVG
ENERGY: 0 6.4464 12.1573 6.2554 0.0000 -10445.4806 1397.9940 0.0000 0.0000 1719.4546 -7303.1729 297.1901 -9022.6275 -7303.1729 297.1901 127.7287 214.4655 29195.9423 127.7287 214.4655
ENERGY: 300000 3.4708 13.0022 6.5296 0.0000 -10506.3694 1409.0564 0.0000 0.0000 1743.5340 -7330.7764 301.3519 -9074.3104 -7332.1688 298.4026 -123.6910 -23.4184 29558.1709 143.8072 208.0412
ENERGY: 600000 1.7781 15.9998 7.6165 0.0000 -10346.6825 1351.1590 0.0000 0.0000 1724.5615 -7245.5676 298.0728 -8970.1291 -7299.9273 300.6761 -164.0094 -158.0437 29556.7332 164.6916 218.1816
ENERGY: 900000 3.4983 13.4165 6.9208 0.0000 -10449.3593 1342.3119 0.0000 0.0000 1729.3457 -7353.8661 298.8997 -9083.2118 -7324.1533 299.9357 -750.5641 -635.3752 29587.5831 74.5995 138.5229
ENERGY: 1200000 7.1929 11.9655 6.7781 0.0000 -10399.6772 1335.1861 0.0000 0.0000 1740.3729 -7298.1816 300.8056 -9038.5545 -7316.4375 300.4228 -514.3446 -403.3320 29437.6693 6.1406 71.6207
ENERGY: 1500000 4.4817 18.1069 7.9181 0.0000 -10424.6514 1409.9928 0.0000 0.0000 1738.5655 -7245.5865 300.4932 -8984.1520 -7307.0162 300.1075 16.2641 77.1879 30025.8362 59.2949 119.5285
TCL: Running FEP window   5: Lambda1 0.2    Lambda2 0.25   [dLambda 0.04999999999999999]
TCL: Setting parameter firsttimestep to 0
TCL: Setting parameter alchLambda to 0.2
Info: NONBONDED TABLE R-SQUARED SPACING: 0.0625
Info: NONBONDED TABLE SIZE: 705 POINTS
TCL: Setting parameter alchLambda2 to 0.25
Info: NONBONDED TABLE R-SQUARED SPACING: 0.0625
Info: NONBONDED TABLE SIZE: 705 POINTS
TCL: Running for 1500000 steps
ETITLE: TS BOND ANGLE DIHED IMPRP ELECT VDW BOUNDARY MISC KINETIC TOTAL TEMP POTENTIAL TOTALAVG TEMPAVG PRESSURE GPRESSURE VOLUME PRESSAVG GPRESSAVG
ENERGY: 0 4.4817 18.1069 7.9181 0.0000 -10424.6516 1410.9019 0.0000 0.0000 1737.6577 -7245.5853 300.3363 -8983.2430 -7245.5853 300.3363 2.9920 83.3591 30025.8362 2.9920 83.3591
ENERGY: 300000 1.7946 17.1694 5.8548 0.0000 -10662.4012 1515.5747 0.0000 0.0000 1729.6385 -7392.3690 298.9503 -9122.0076 -7298.6607 296.4565 818.3947 794.3965 29420.4680 61.1233 109.0018
ENERGY: 600000 5.0370 15.1699 6.1704 0.0000 -10313.9585 1271.8879 0.0000 0.0000 1747.4901 -7268.2032 302.0357 -9015.6933 -7310.9369 298.0456 -1316.7641 -1197.2469 30095.2099 -74.0172 -11.4349
ENERGY: 900000 2.3205 15.0599 6.7574 0.0000 -10379.9182 1334.1276 0.0000 0.0000 1730.0636 -7291.5891 299.0237 -9021.6528 -7320.9548 299.4427 -687.8481 -632.9774 30004.7945 -188.8422 -116.3823
ENERGY: 1200000 2.7137 13.9067 6.2394 0.0000 -10402.8258 1374.7909 0.0000 0.0000 1720.7445 -7284.4306 297.4130 -9005.1751 -7311.2335 299.8332 -283.8420 -216.9151 29875.6885 -197.8411 -124.1865
ENERGY: 1500000 8.2591 14.5706 8.1939 0.0000 -10628.4630 1478.4511 0.0000 0.0000 1715.0033 -7403.9849 296.4207 -9118.9883 -7304.5725 299.5518 240.5096 322.1595 29449.1532 -158.9953 -81.8479
TCL: Running FEP window   6: Lambda1 0.25   Lambda2 0.3    [dLambda 0.04999999999999999]
TCL: Setting parameter firsttimestep to 0
TCL: Setting parameter alchLambda to 0.25
Info: NONBONDED TABLE R-SQUARED SPACING: 0.0625
Info: NONBONDED TABLE SIZE: 705 POINTS
TCL: Setting parameter alchLambda2 to 0.3
Info: NONBONDED TABLE R-SQUARED SPACING: 0.0625
Info: NONBONDED TABLE SIZE: 705 POINTS
TCL: Running for 1500000 steps
ETITLE: TS BOND ANGLE DIHED IMPRP ELECT VDW BOUNDARY MISC KINETIC TOTAL TEMP POTENTIAL TOTALAVG TEMPAVG PRESSURE GPRESSURE VOLUME PRESSAVG GPRESSAVG
ENERGY: 0 8.2591 14.5706 8.1939 0.0000 -10628.4638 1479.9579 0.0000 0.0000 1714.1072 -7403.3752 296.2658 -9117.4824 -7403.3752 296.2658 259.1506 337.0339 29449.1532 259.1506 337.0339
ENERGY: 300000 3.2735 16.5670 8.7305 0.0000 -10612.1155 1517.6198 0.0000 0.0000 1702.6520 -7363.2728 294.2859 -9065.9247 -7329.9457 300.5255 629.1772 708.2334 29576.8446 274.7944 337.3260
ENERGY: 600000 4.2014 12.7196 7.3719 0.0000 -10487.9939 1451.9089 0.0000 0.0000 1726.4432 -7285.3489 298.3980 -9011.7921 -7314.5309 298.4836 376.5160 426.5811 29759.4176 167.5436 237.9195
ENERGY: 900000 2.5703 12.8047 8.2528 0.0000 -10535.5846 1376.9730 0.0000 0.0000 1783.4971 -7351.4867 308.2592 -9134.9838 -7314.0675 298.3147 -207.7400 -152.9642 29328.8119 59.9327 119.1625
ENERGY: 1200000 1.1244 18.1288 7.4860 0.0000 -10479.3540 1406.5769 0.0000 0.0000 1742.7020 -7303.3359 301.2082 -9046.0379 -7314.7922 298.1274 -18.3183 -23.1838 29862.4794 7.4389 59.3610
ENERGY: 1500000 2.4064 17.6951 6.6894 0.0000 -10394.5611 1367.9348 0.0000 0.0000 1747.5075 -7252.3278 302.0387 -8999.8353 -7305.8323 298.8070 -180.6211 -180.7509 30113.0178 -32.0099 15.0017
TCL: Running FEP window   7: Lambda1 0.3    Lambda2 0.35   [dLambda 0.04999999999999999]
TCL: Setting parameter firsttimestep to 0
TCL: Setting parameter alchLambda to 0.3
Info: NONBONDED TABLE R-SQUARED SPACING: 0.0625
Info: NONBONDED TABLE SIZE: 705 POINTS
TCL: Setting parameter alchLambda2 to 0.35
Info: NONBONDED TABLE R-SQUARED SPACING: 0.0625
Info: NONBONDED TABLE SIZE: 705 POINTS
TCL: Running for 1500000 steps
ETITLE: TS BOND ANGLE DIHED IMPRP ELECT VDW BOUNDARY MISC KINETIC TOTAL TEMP POTENTIAL TOTALAVG TEMPAVG PRESSURE GPRESSURE VOLUME PRESSAVG GPRESSAVG
ENERGY: 0 2.4064 17.6952 6.6894 0.0000 -10394.5622 1368.1063 0.0000 0.0000 1746.6739 -7252.9910 301.8947 -8999.6649 -7252.9910 301.8947 -259.6002 -173.5625 30113.0178 -259.6002 -173.5625
ENERGY: 300000 2.7349 19.1214 7.9586 0.0000 -10469.0699 1412.3294 0.0000 0.0000 1705.5920 -7321.3335 294.7941 -9026.9256 -7323.0878 292.9617 43.9840 134.1017 29757.0270 -9.4260 83.8110
ENERGY: 600000 3.9419 17.2442 6.7612 0.0000 -10275.4518 1273.1264 0.0000 0.0000 1768.9601 -7205.4179 305.7466 -8974.3780 -7305.2753 296.6152 -1191.4285 -1051.3109 30435.4657 -89.2177 -4.2726
ENERGY: 900000 4.1592 13.4800 6.7152 0.0000 -10470.2809 1489.6055 0.0000 0.0000 1794.0908 -7162.2303 310.0902 -8956.3211 -7290.9846 298.3880 628.0882 660.3405 30228.9924 -17.6670 53.8684
ENERGY: 1200000 4.6670 15.9205 7.0493 0.0000 -10479.7273 1431.8703 0.0000 0.0000 1703.8309 -7316.3894 294.4897 -9020.2203 -7289.5128 298.8872 47.4356 132.2689 29576.2465 -40.7483 29.9676
ENERGY: 1500000 6.2316 20.0437 7.2249 0.0000 -10552.9263 1488.8471 0.0000 0.0000 1780.2883 -7250.2908 307.7046 -9030.5790 -7285.6494 299.4567 776.1810 817.9134 29238.9473 -12.2972 55.4806
TCL: Running FEP window   8: Lambda1 0.35   Lambda2 0.39999999999999997 [dLambda 0.04999999999999999]
TCL: Setting parameter firsttimestep to 0
TCL: Setting parameter alchLambda to 0.35
Info: NONBONDED TABLE R-SQUARED SPACING: 0.0625
Info: NONBONDED TABLE SIZE: 705 POINTS
TCL: Setting parameter alchLambda2 to 0.39999999999999997
Info: NONBONDED TABLE R-SQUARED SPACING: 0.0625
Info: NONBONDED TABLE SIZE: 705 POINTS
TCL: Running for 1500000 steps
ETITLE: TS BOND ANGLE DIHED IMPRP ELECT VDW BOUNDARY MISC KINETIC TOTAL TEMP POTENTIAL TOTALAVG TEMPAVG PRESSURE GPRESSURE VOLUME PRESSAVG GPRESSAVG
ENERGY: 0 6.2316 20.0437 7.2249 0.0000 -10552.9260 1488.7358 0.0000 0.0000 1779.4321 -7251.2579 307.5566 -9030.6900 -7251.2579 307.5566 736.1187 827.8326 29238.9473 736.1187 827.8326
ENERGY: 300000 7.0094 16.8171 7.1698 0.0000 -10453.6790 1389.6396 0.0000 0.0000 1743.2247 -7289.8184 301.2985 -9033.0431 -7313.4537 302.9562 -374.5097 -298.2416 29945.0609 233.7822 322.8427
ENERGY: 600000 1.5159 9.8002 5.8780 0.0000 -10368.4048 1273.1984 0.0000 0.0000 1716.0261 -7361.9863 296.5975 -9078.0124 -7328.3840 300.9402 -953.4274 -849.5749 29367.7187 66.9852 148.8238
ENERGY: 900000 2.5443 15.3920 7.4750 0.0000 -10532.4116 1395.5939 0.0000 0.0000 1734.2407 -7377.1657 299.7457 -9111.4064 -7325.9852 301.6941 -512.4303 -358.8399 29555.7363 -91.1161 -1.1349
ENERGY: 1200000 2.9185 13.3017 6.9932 0.0000 -10285.2301 1279.3447 0.0000 0.0000 1769.3405 -7213.3314 305.8123 -8982.6719 -7306.6046 301.4812 -1117.9164 -1064.8979 30328.5875 -222.1570 -134.0160
ENERGY: 1500000 2.6121 17.9044 6.6611 0.0000 -10476.3670 1447.6829 0.0000 0.0000 1669.7916 -7331.7150 288.6063 -9001.5066 -7314.3637 300.5661 338.7049 419.8934 29989.0798 -154.5066 -75.3316
TCL: Running FEP window   9: Lambda1 0.39999999999999997 Lambda2 0.44999999999999996 [dLambda 0.04999999999999999]
TCL: Setting parameter firsttimestep to 0
TCL: Setting parameter alchLambda to 0.39999999999999997
Info: NONBONDED TABLE R-SQUARED SPACING: 0.0625
Info: NONBONDED TABLE SIZE: 705 POINTS
TCL: Setting parameter alchLambda2 to 0.44999999999999996
Info: NONBONDED TABLE R-SQUARED SPACING: 0.0625
Info: NONBONDED TABLE SIZE: 705 POINTS
TCL: Running for 1500000 steps
ETITLE: TS BOND ANGLE DIHED IMPRP ELECT VDW BOUNDARY MISC KINETIC TOTAL TEMP POTENTIAL TOTALAVG TEMPAVG PRESSURE GPRESSURE VOLUME PRESSAVG GPRESSAVG
ENERGY: 0 2.6121 17.9044 6.6611 0.0000 -10476.3656 1447.0243 0.0000 0.0000 1668.9121 -7333.2515 288.4543 -9002.1636 -7333.2515 288.4543 340.9673 420.7908 29989.0798 340.9673 420.7908
ENERGY: 300000 6.2386 18.6503 9.0363 0.0000 -10470.3365 1386.8003 0.0000 0.0000 1748.5772 -7301.0339 302.2236 -9049.6110 -7290.6138 298.1310 -251.0499 -192.0759 29585.7430 37.1720 119.9128
ENERGY: 600000 5.6079 13.3238 8.9493 0.0000 -10335.9715 1302.0477 0.0000 0.0000 1721.4770 -7284.5659 297.5396 -9006.0429 -7294.3172 298.4835 -845.2072 -808.7809 30161.6692 -169.0561 -81.6397
ENERGY: 900000 3.5677 16.1362 8.5619 0.0000 -10581.6041 1458.7026 0.0000 0.0000 1668.2923 -7426.3433 288.3472 -9094.6356 -7303.3320 297.7985 128.6373 173.0271 29691.4927 -80.1747 -6.8903
ENERGY: 1200000 3.1880 13.6809 6.3093 0.0000 -10577.8835 1480.6893 0.0000 0.0000 1753.0267 -7320.9893 302.9927 -9074.0160 -7300.8804 298.6896 295.1640 398.0340 30078.3900 -80.6790 -3.0200
ENERGY: 1500000 3.2283 11.7217 5.8985 0.0000 -10658.2832 1537.6848 0.0000 0.0000 1752.7477 -7347.0023 302.9445 -9099.7500 -7302.6812 299.2467 613.3709 651.1425 30032.7341 4.1446 78.6732
TCL: Running FEP window  10: Lambda1 0.44999999999999996 Lambda2 0.49999999999999994 [dLambda 0.04999999999999999]
TCL: Setting parameter firsttimestep to 0
TCL: Setting parameter alchLambda to 0.44999999999999996
Info: NONBONDED TABLE R-SQUARED SPACING: 0.0625
Info: NONBONDED TABLE SIZE: 705 POINTS
TCL: Setting parameter alchLambda2 to 0.49999999999999994
Info: NONBONDED TABLE R-SQUARED SPACING: 0.0625
Info: NONBONDED TABLE SIZE: 705 POINTS
TCL: Running for 1500000 steps
ETITLE: TS BOND ANGLE DIHED IMPRP ELECT VDW BOUNDARY MISC KINETIC TOTAL TEMP POTENTIAL TOTALAVG TEMPAVG PRESSURE GPRESSURE VOLUME PRESSAVG GPRESSAVG
ENERGY: 0 3.2283 11.7217 5.8985 0.0000 -10658.2820 1538.3023 0.0000 0.0000 1751.8938 -7347.2374 302.7969 -9099.1313 -7347.2374 302.7969 591.2865 664.1088 30032.7341 591.2865 664.1088
ENERGY: 300000 5.4745 15.0312 6.4353 0.0000 -10456.2952 1389.0267 0.0000 0.0000 1726.5181 -7313.8094 298.4109 -9040.3275 -7327.0741 299.7104 -321.4774 -305.9147 29846.0767 281.1238 335.4882
ENERGY: 600000 3.3887 13.8144 6.6883 0.0000 -10434.5027 1378.1638 0.0000 0.0000 1702.8712 -7329.5763 294.3238 -9032.4475 -7317.9446 298.2501 -529.8453 -513.8007 30174.1174 176.3794 242.6694
ENERGY: 900000 6.2623 16.2040 7.2209 0.0000 -10376.2395 1384.8529 0.0000 0.0000 1731.0494 -7230.6499 299.1941 -8961.6993 -7291.9595 299.9275 -151.2262 -44.7348 30006.3366 35.6137 106.2259
ENERGY: 1200000 4.1886 20.8909 7.1258 0.0000 -10439.5001 1358.7175 0.0000 0.0000 1821.1904 -7227.3869 314.7741 -9048.5773 -7281.9268 300.9280 -266.1882 -174.0246 29614.0100 33.4753 107.1099
ENERGY: 1500000 2.7190 15.5888 6.2197 0.0000 -10380.1669 1411.3188 0.0000 0.0000 1784.3759 -7159.9448 308.4111 -8944.3207 -7283.5125 300.8047 258.5837 302.0722 29956.7644 85.3992 153.4091
TCL: Running FEP window  11: Lambda1 0.49999999999999994 Lambda2 0.5499999999999999 [dLambda 0.04999999999999999]
TCL: Setting parameter firsttimestep to 0
TCL: Setting parameter alchLambda to 0.49999999999999994
Info: NONBONDED TABLE R-SQUARED SPACING: 0.0625
Info: NONBONDED TABLE SIZE: 705 POINTS
TCL: Setting parameter alchLambda2 to 0.5499999999999999
Info: NONBONDED TABLE R-SQUARED SPACING: 0.0625
Info: NONBONDED TABLE SIZE: 705 POINTS
TCL: Running for 1500000 steps
ETITLE: TS BOND ANGLE DIHED IMPRP ELECT VDW BOUNDARY MISC KINETIC TOTAL TEMP POTENTIAL TOTALAVG TEMPAVG PRESSURE GPRESSURE VOLUME PRESSAVG GPRESSAVG
ENERGY: 0 2.7190 15.5888 6.2197 0.0000 -10380.1670 1410.6178 0.0000 0.0000 1783.5147 -7161.5070 308.2622 -8945.0217 -7161.5070 308.2622 234.7173 303.6419 29956.7644 234.7173 303.6419
ENERGY: 300000 3.5898 10.1664 6.4021 0.0000 -10565.7241 1406.5402 0.0000 0.0000 1738.8023 -7400.2233 300.5341 -9139.0255 -7287.6947 299.8562 -8.6274 12.6607 29212.6054 366.2689 422.9150
ENERGY: 600000 8.3334 19.9766 6.4185 0.0000 -10614.0314 1533.8516 0.0000 0.0000 1717.3124 -7328.1390 296.8198 -9045.4514 -7317.6849 296.7148 1189.5787 1291.1073 29211.4952 542.6569 609.2244
ENERGY: 900000 1.1141 11.9107 7.8984 0.0000 -10352.0861 1304.7133 0.0000 0.0000 1763.8395 -7262.6101 304.8615 -9026.4495 -7308.7485 299.4284 -904.7362 -784.8530 30321.7795 262.4010 343.6524
ENERGY: 1200000 5.8102 16.2735 6.3246 0.0000 -10569.2943 1509.7436 0.0000 0.0000 1725.0331 -7306.1093 298.1543 -9031.1424 -7310.3018 299.0517 976.7242 982.0656 29792.4781 280.5304 359.0643
ENERGY: 1500000 6.4528 20.8802 7.2933 0.0000 -10398.2553 1366.9434 0.0000 0.0000 1760.0974 -7236.5884 304.2148 -8996.6857 -7301.2830 300.1632 -616.5705 -587.5025 30257.6191 183.6005 257.2165
TCL: Running FEP window  12: Lambda1 0.5499999999999999 Lambda2 0.6    [dLambda 0.050000000000000044]
TCL: Setting parameter firsttimestep to 0
TCL: Setting parameter alchLambda to 0.5499999999999999
Info: NONBONDED TABLE R-SQUARED SPACING: 0.0625
Info: NONBONDED TABLE SIZE: 705 POINTS
TCL: Setting parameter alchLambda2 to 0.6
Info: NONBONDED TABLE R-SQUARED SPACING: 0.0625
Info: NONBONDED TABLE SIZE: 705 POINTS
TCL: Running for 1500000 steps
ETITLE: TS BOND ANGLE DIHED IMPRP ELECT VDW BOUNDARY MISC KINETIC TOTAL TEMP POTENTIAL TOTALAVG TEMPAVG PRESSURE GPRESSURE VOLUME PRESSAVG GPRESSAVG
ENERGY: 0 6.4528 20.8802 7.2933 0.0000 -10397.8823 1368.1530 0.0000 0.0000 1759.2259 -7235.8771 304.0641 -8995.1031 -7235.8771 304.0641 -642.5758 -561.5060 30257.6191 -642.5758 -561.5060
ENERGY: 300000 3.3480 11.5334 5.2757 0.0000 -10405.7343 1384.0535 0.0000 0.0000 1778.0224 -7223.5013 307.3129 -9001.5237 -7240.1598 301.9231 -117.5856 -20.8131 29785.6015 -150.1993 -66.9060
ENERGY: 600000 5.8351 11.7621 6.5374 0.0000 -10457.0198 1454.7462 0.0000 0.0000 1773.5381 -7204.6010 306.5379 -8978.1390 -7236.5280 302.8647 744.6700 815.2572 29749.6480 35.6014 115.2948
ENERGY: 900000 3.9969 17.2881 5.6584 0.0000 -10499.8178 1439.5890 0.0000 0.0000 1719.5218 -7313.7635 297.2017 -9033.2853 -7255.4168 302.4498 214.8222 277.8369 29794.0411 77.9053 153.5858
ENERGY: 1200000 3.3945 18.4024 6.6467 0.0000 -10444.1461 1380.0993 0.0000 0.0000 1670.7736 -7364.8296 288.7761 -9035.6032 -7269.1942 300.8542 -495.7055 -337.5338 29778.9400 4.9008 86.0654
ENERGY: 1500000 6.6035 16.5503 8.8715 0.0000 -10427.2543 1351.5528 0.0000 0.0000 1697.3783 -7346.2979 293.3744 -9043.6762 -7281.2398 299.4154 -790.0505 -716.4857 29835.0359 -53.5701 21.5317
TCL: Running FEP window  13: Lambda1 0.6    Lambda2 0.65   [dLambda 0.050000000000000044]
TCL: Setting parameter firsttimestep to 0
TCL: Setting parameter alchLambda to 0.6
Info: NONBONDED TABLE R-SQUARED SPACING: 0.0625
Info: NONBONDED TABLE SIZE: 705 POINTS
TCL: Setting parameter alchLambda2 to 0.65
Info: NONBONDED TABLE R-SQUARED SPACING: 0.0625
Info: NONBONDED TABLE SIZE: 705 POINTS
TCL: Running for 1500000 steps
ETITLE: TS BOND ANGLE DIHED IMPRP ELECT VDW BOUNDARY MISC KINETIC TOTAL TEMP POTENTIAL TOTALAVG TEMPAVG PRESSURE GPRESSURE VOLUME PRESSAVG GPRESSAVG
ENERGY: 0 6.6035 16.5503 8.8715 0.0000 -10427.8269 1351.5706 0.0000 0.0000 1696.5257 -7347.7052 293.2271 -9044.2309 -7347.7052 293.2271 -780.9242 -707.1515 29835.0359 -780.9242 -707.1515
ENERGY: 300000 5.9151 12.3036 6.7421 0.0000 -10311.7716 1352.0626 0.0000 0.0000 1736.0141 -7198.7341 300.0522 -8934.7481 -7279.4647 299.4481 -378.0559 -348.7712 30299.3950 -213.9616 -141.8718
ENERGY: 600000 2.3212 21.6550 6.4482 0.0000 -10578.8203 1456.9688 0.0000 0.0000 1729.7907 -7361.6364 298.9766 -9091.4271 -7299.2908 299.7834 105.9701 145.3231 29771.9373 -118.1952 -63.6576
ENERGY: 900000 3.5415 13.5698 6.7105 0.0000 -10495.7428 1418.8537 0.0000 0.0000 1786.7263 -7266.3411 308.8173 -9053.0673 -7289.3870 300.5794 402.6646 478.8515 28988.2457 -41.7142 16.6247
ENERGY: 1200000 3.3393 10.8794 6.0587 0.0000 -10416.7724 1370.3200 0.0000 0.0000 1715.0291 -7311.1459 296.4252 -9026.1749 -7301.8039 299.3695 -285.7921 -288.2339 30219.6129 -74.4038 -16.0915
ENERGY: 1500000 5.2515 12.3725 7.7867 0.0000 -10520.2311 1489.9054 0.0000 0.0000 1722.0271 -7282.8878 297.6347 -9004.9150 -7296.7111 298.8621 526.0880 562.9367 30031.6954 -1.6917 54.7005
TCL: Running FEP window  14: Lambda1 0.65   Lambda2 0.7000000000000001 [dLambda 0.050000000000000044]
TCL: Setting parameter firsttimestep to 0
TCL: Setting parameter alchLambda to 0.65
Info: NONBONDED TABLE R-SQUARED SPACING: 0.0625
Info: NONBONDED TABLE SIZE: 705 POINTS
TCL: Setting parameter alchLambda2 to 0.7000000000000001
Info: NONBONDED TABLE R-SQUARED SPACING: 0.0625
Info: NONBONDED TABLE SIZE: 705 POINTS
TCL: Running for 1500000 steps
ETITLE: TS BOND ANGLE DIHED IMPRP ELECT VDW BOUNDARY MISC KINETIC TOTAL TEMP POTENTIAL TOTALAVG TEMPAVG PRESSURE GPRESSURE VOLUME PRESSAVG GPRESSAVG
ENERGY: 0 5.2515 12.3725 7.7867 0.0000 -10520.3367 1489.5950 0.0000 0.0000 1721.1583 -7284.1726 297.4846 -9005.3310 -7284.1726 297.4846 493.5001 570.5317 30031.6954 493.5001 570.5317
ENERGY: 300000 4.5055 14.7048 7.0956 0.0000 -10465.9550 1413.5476 0.0000 0.0000 1697.6354 -7328.4662 293.4188 -9026.1016 -7310.4116 294.9646 -322.8732 -250.3609 30091.7286 -68.1720 -11.5155
ENERGY: 600000 5.6404 13.2494 7.6640 0.0000 -10420.7659 1420.3069 0.0000 0.0000 1715.9108 -7257.9944 296.5776 -8973.9051 -7301.7123 296.7041 211.4447 229.3724 29614.5447 -45.2401 2.1447
ENERGY: 900000 4.0843 13.3686 6.5672 0.0000 -10427.0336 1404.2637 0.0000 0.0000 1758.5719 -7240.1780 303.9511 -8998.7499 -7300.2753 298.7164 273.4949 315.0715 29514.4342 -27.2972 25.8747
ENERGY: 1200000 6.4005 14.2907 6.2537 0.0000 -10491.0451 1425.3982 0.0000 0.0000 1752.1972 -7286.5048 302.8493 -9038.7020 -7306.5508 298.3288 285.4957 358.6946 29489.6158 27.0759 80.5463
ENERGY: 1500000 5.0317 16.0008 7.8386 0.0000 -10488.6666 1400.2477 0.0000 0.0000 1733.6734 -7325.8744 299.6477 -9059.5478 -7311.6169 299.5944 -480.8868 -373.5217 30091.9938 -32.6685 24.7931
TCL: Running FEP window  15: Lambda1 0.7000000000000001 Lambda2 0.7500000000000001 [dLambda 0.050000000000000044]
TCL: Setting parameter firsttimestep to 0
TCL: Setting parameter alchLambda to 0.7000000000000001
Info: NONBONDED TABLE R-SQUARED SPACING: 0.0625
Info: NONBONDED TABLE SIZE: 705 POINTS
TCL: Setting parameter alchLambda2 to 0.7500000000000001
Info: NONBONDED TABLE R-SQUARED SPACING: 0.0625
Info: NONBONDED TABLE SIZE: 705 POINTS
TCL: Running for 1500000 steps
ETITLE: TS BOND ANGLE DIHED IMPRP ELECT VDW BOUNDARY MISC KINETIC TOTAL TEMP POTENTIAL TOTALAVG TEMPAVG PRESSURE GPRESSURE VOLUME PRESSAVG GPRESSAVG
ENERGY: 0 5.0317 16.0008 7.8386 0.0000 -10489.5256 1400.2636 0.0000 0.0000 1732.7960 -7327.5949 299.4960 -9060.3909 -7327.5949 299.4960 -448.9076 -361.8610 30091.9938 -448.9076 -361.8610
ENERGY: 300000 3.1598 13.7096 6.0246 0.0000 -10315.0807 1308.2582 0.0000 0.0000 1704.9444 -7278.9842 294.6821 -8983.9286 -7330.0051 298.5103 -724.6231 -649.4160 30129.9505 -246.7799 -164.6887
ENERGY: 600000 3.8605 14.7404 5.7891 0.0000 -10642.1689 1540.3520 0.0000 0.0000 1722.0942 -7355.3328 297.6463 -9077.4270 -7326.1621 298.4326 1179.1346 1224.8077 29412.5773 50.4277 114.6857
ENERGY: 900000 3.4375 12.8899 5.8438 0.0000 -10405.4301 1391.7573 0.0000 0.0000 1739.2239 -7252.2776 300.6070 -8991.5016 -7294.1633 300.9162 19.7421 39.7749 29783.0562 76.5965 139.2973
ENERGY: 1200000 2.9676 18.7005 9.7726 0.0000 -10446.3326 1400.5581 0.0000 0.0000 1695.1136 -7319.2201 292.9830 -9014.3338 -7287.9219 301.3685 -362.2442 -326.0981 30635.4229 29.5288 82.8200
ENERGY: 1500000 4.5065 17.6839 7.5824 0.0000 -10385.5051 1364.1074 0.0000 0.0000 1738.8649 -7252.7600 300.5449 -8991.6249 -7288.6456 300.9894 -280.9814 -218.3247 29781.0527 92.5468 148.0694
TCL: Running FEP window  16: Lambda1 0.7500000000000001 Lambda2 0.8000000000000002 [dLambda 0.050000000000000044]
TCL: Setting parameter firsttimestep to 0
TCL: Setting parameter alchLambda to 0.7500000000000001
Info: NONBONDED TABLE R-SQUARED SPACING: 0.0625
Info: NONBONDED TABLE SIZE: 705 POINTS
TCL: Setting parameter alchLambda2 to 0.8000000000000002
Info: NONBONDED TABLE R-SQUARED SPACING: 0.0625
Info: NONBONDED TABLE SIZE: 705 POINTS
TCL: Running for 1500000 steps
ETITLE: TS BOND ANGLE DIHED IMPRP ELECT VDW BOUNDARY MISC KINETIC TOTAL TEMP POTENTIAL TOTALAVG TEMPAVG PRESSURE GPRESSURE VOLUME PRESSAVG GPRESSAVG
ENERGY: 0 4.5065 17.6839 7.5824 0.0000 -10386.4843 1363.8348 0.0000 0.0000 1737.9803 -7254.8963 300.3921 -8992.8766 -7254.8963 300.3921 -287.0721 -208.7182 29781.0527 -287.0721 -208.7182
ENERGY: 300000 3.4990 13.3003 6.8567 0.0000 -10486.4876 1506.4386 0.0000 0.0000 1760.5946 -7195.7985 304.3007 -8956.3931 -7284.5806 297.0057 1350.3111 1414.1409 29426.9063 545.0761 611.6935
ENERGY: 600000 1.6089 15.3946 6.3460 0.0000 -10447.9896 1393.0448 0.0000 0.0000 1776.0280 -7255.5672 306.9682 -9031.5952 -7272.1417 300.8897 8.9696 49.6443 29554.0151 448.5039 493.6496
ENERGY: 900000 3.7124 15.0024 6.3013 0.0000 -10527.8671 1412.7791 0.0000 0.0000 1721.4398 -7368.6322 297.5332 -9090.0720 -7288.3463 300.7139 -311.2056 -200.4133 30306.1321 329.0399 380.0192
ENERGY: 1200000 8.2042 15.0233 7.0667 0.0000 -10543.8914 1419.2569 0.0000 0.0000 1703.1041 -7391.2362 294.3641 -9094.3403 -7290.4189 300.8035 -234.6187 -142.8584 29896.7279 341.8762 395.8447
ENERGY: 1500000 2.0839 12.3446 8.3039 0.0000 -10536.6880 1480.9884 0.0000 0.0000 1755.2374 -7277.7297 303.3748 -9032.9672 -7291.4832 301.2109 737.7773 867.5168 29624.2964 389.1779 449.2088
TCL: Running FEP window  17: Lambda1 0.8000000000000002 Lambda2 0.8500000000000002 [dLambda 0.050000000000000044]
TCL: Setting parameter firsttimestep to 0
TCL: Setting parameter alchLambda to 0.8000000000000002
Info: NONBONDED TABLE R-SQUARED SPACING: 0.0625
Info: NONBONDED TABLE SIZE: 705 POINTS
TCL: Setting parameter alchLambda2 to 0.8500000000000002
Info: NONBONDED TABLE R-SQUARED SPACING: 0.0625
Info: NONBONDED TABLE SIZE: 705 POINTS
TCL: Running for 1500000 steps
ETITLE: TS BOND ANGLE DIHED IMPRP ELECT VDW BOUNDARY MISC KINETIC TOTAL TEMP POTENTIAL TOTALAVG TEMPAVG PRESSURE GPRESSURE VOLUME PRESSAVG GPRESSAVG
ENERGY: 0 2.0839 12.3446 8.3039 0.0000 -10538.1280 1483.3652 0.0000 0.0000 1754.3803 -7277.6501 303.2266 -9032.0304 -7277.6501 303.2266 829.0799 906.6195 29624.2964 829.0799 906.6195
ENERGY: 300000 2.2379 15.8172 6.8494 0.0000 -10468.3753 1387.8324 0.0000 0.0000 1736.1708 -7319.4677 300.0793 -9055.6385 -7292.2739 301.7258 69.4186 115.0617 29559.9336 127.0844 178.8485
ENERGY: 600000 2.2978 14.2143 5.7450 0.0000 -10445.0232 1331.3066 0.0000 0.0000 1714.3440 -7377.1154 296.3068 -9091.4594 -7323.8734 299.7892 -788.6616 -733.2454 30049.8015 157.2046 232.7771
ENERGY: 900000 4.9359 13.8552 5.4836 0.0000 -10465.0374 1360.3099 0.0000 0.0000 1782.7436 -7297.7092 308.1289 -9080.4528 -7321.9927 300.8160 -578.4967 -501.8611 30212.3246 12.7294 73.9562
ENERGY: 1200000 5.3699 12.3374 6.8742 0.0000 -10360.1956 1396.8671 0.0000 0.0000 1726.5703 -7212.1767 298.4200 -8938.7471 -7309.4766 300.1694 4.3304 48.1716 30480.2924 -11.1078 44.5517
ENERGY: 1500000 8.7211 15.2801 6.8149 0.0000 -10390.7398 1402.0363 0.0000 0.0000 1733.7162 -7224.1712 299.6551 -8957.8874 -7299.5583 301.1516 -50.7610 15.7875 30252.1824 -79.1803 -23.9472
TCL: Running FEP window  18: Lambda1 0.8500000000000002 Lambda2 0.9000000000000002 [dLambda 0.050000000000000044]
TCL: Setting parameter firsttimestep to 0
TCL: Setting parameter alchLambda to 0.8500000000000002
Info: NONBONDED TABLE R-SQUARED SPACING: 0.0625
Info: NONBONDED TABLE SIZE: 705 POINTS
TCL: Setting parameter alchLambda2 to 0.9000000000000002
Info: NONBONDED TABLE R-SQUARED SPACING: 0.0625
Info: NONBONDED TABLE SIZE: 705 POINTS
TCL: Running for 1500000 steps
ETITLE: TS BOND ANGLE DIHED IMPRP ELECT VDW BOUNDARY MISC KINETIC TOTAL TEMP POTENTIAL TOTALAVG TEMPAVG PRESSURE GPRESSURE VOLUME PRESSAVG GPRESSAVG
ENERGY: 0 8.7211 15.2801 6.8149 0.0000 -10391.5760 1402.5530 0.0000 0.0000 1732.8526 -7225.3543 299.5058 -8958.2069 -7225.3543 299.5058 -51.9065 32.2414 30252.1824 -51.9065 32.2414
ENERGY: 300000 2.9378 18.2343 7.3474 0.0000 -10486.5464 1356.2192 0.0000 0.0000 1717.8203 -7383.9874 296.9076 -9101.8078 -7285.0478 300.1290 -655.0717 -615.1402 30089.0994 -175.4445 -111.5789
ENERGY: 600000 2.0437 14.6006 9.0235 0.0000 -10426.2534 1339.4928 0.0000 0.0000 1749.6536 -7311.4392 302.4097 -9061.0928 -7280.0817 300.9380 -798.2098 -697.5832 30236.2853 -63.7352 8.4469
ENERGY: 900000 1.8312 17.9202 7.1125 0.0000 -10520.5387 1410.4021 0.0000 0.0000 1764.1309 -7319.1418 304.9119 -9083.2726 -7281.2144 301.9699 -113.5758 -10.3971 29981.8434 50.1700 122.7178
ENERGY: 1200000 4.6233 12.8101 5.9991 0.0000 -10406.8503 1352.4890 0.0000 0.0000 1796.9595 -7233.9693 310.5860 -9030.9288 -7274.8352 302.4863 -538.4896 -493.0698 29964.0508 -103.2546 -29.9237
ENERGY: 1500000 3.7744 16.8040 6.6948 0.0000 -10632.1207 1553.5995 0.0000 0.0000 1709.4019 -7341.8461 295.4526 -9051.2480 -7280.9070 302.7855 1140.9958 1257.2913 29903.7634 -29.9907 41.1262
TCL: Running FEP window  19: Lambda1 0.9000000000000002 Lambda2 0.9500000000000003 [dLambda 0.050000000000000044]
TCL: Setting parameter firsttimestep to 0
TCL: Setting parameter alchLambda to 0.9000000000000002
Info: NONBONDED TABLE R-SQUARED SPACING: 0.0625
Info: NONBONDED TABLE SIZE: 705 POINTS
TCL: Setting parameter alchLambda2 to 0.9500000000000003
Info: NONBONDED TABLE R-SQUARED SPACING: 0.0625
Info: NONBONDED TABLE SIZE: 705 POINTS
TCL: Running for 1500000 steps
ETITLE: TS BOND ANGLE DIHED IMPRP ELECT VDW BOUNDARY MISC KINETIC TOTAL TEMP POTENTIAL TOTALAVG TEMPAVG PRESSURE GPRESSURE VOLUME PRESSAVG GPRESSAVG
ENERGY: 0 3.7744 16.8040 6.6948 0.0000 -10632.6419 1553.1674 0.0000 0.0000 1708.5425 -7343.6588 295.3040 -9052.2013 -7343.6588 295.3040 1178.0823 1269.1159 29903.7634 1178.0823 1269.1159
ENERGY: 300000 3.0405 18.4031 8.1123 0.0000 -10557.8935 1425.8647 0.0000 0.0000 1741.4993 -7360.9736 301.0003 -9102.4729 -7340.1589 300.7441 178.1392 191.4724 29479.9509 52.0849 106.5370
ENERGY: 600000 4.3957 11.9001 7.4251 0.0000 -10483.6102 1405.2071 0.0000 0.0000 1746.4865 -7308.1958 301.8623 -9054.6823 -7341.3838 300.3583 26.0382 165.2779 29818.7163 150.9756 209.5306
ENERGY: 900000 2.5724 17.6652 6.9658 0.0000 -10395.8274 1384.3359 0.0000 0.0000 1717.3928 -7266.8954 296.8337 -8984.2882 -7333.4550 298.9132 -15.4315 42.3853 30303.7308 99.7298 159.7564
ENERGY: 1200000 5.7512 10.8013 5.9486 0.0000 -10578.1917 1455.0601 0.0000 0.0000 1776.9509 -7323.6795 307.1277 -9100.6305 -7327.5034 299.5448 102.7367 98.7513 30098.2847 116.7711 176.6909
ENERGY: 1500000 2.9865 11.7643 7.9483 0.0000 -10398.8178 1367.1356 0.0000 0.0000 1775.6374 -7233.3458 306.9007 -9008.9832 -7320.4070 300.5394 90.1560 135.6148 29633.1999 118.9826 173.6905
TCL: Running FEP window  20: Lambda1 0.9500000000000003 Lambda2 1.0    [dLambda 0.04999999999999971]
TCL: Setting parameter firsttimestep to 0
TCL: Setting parameter alchLambda to 0.9500000000000003
Info: NONBONDED TABLE R-SQUARED SPACING: 0.0625
Info: NONBONDED TABLE SIZE: 705 POINTS
TCL: Setting parameter alchLambda2 to 1.0
Info: NONBONDED TABLE R-SQUARED SPACING: 0.0625
Info: NONBONDED TABLE SIZE: 705 POINTS
TCL: Running for 1500000 steps
ETITLE: TS BOND ANGLE DIHED IMPRP ELECT VDW BOUNDARY MISC KINETIC TOTAL TEMP POTENTIAL TOTALAVG TEMPAVG PRESSURE GPRESSURE VOLUME PRESSAVG GPRESSAVG
ENERGY: 0 2.9865 11.7643 7.9483 0.0000 -10400.7813 1368.3954 0.0000 0.0000 1774.7521 -7234.9348 306.7477 -9009.6870 -7234.9348 306.7477 95.3780 165.2852 29633.1999 95.3780 165.2852
ENERGY: 300000 3.7375 15.9998 7.0057 0.0000 -10457.0401 1402.3395 0.0000 0.0000 1731.7824 -7296.1752 299.3208 -9027.9576 -7271.6517 304.3900 71.9815 80.2967 29829.3891 -95.1302 -36.1081
ENERGY: 600000 3.8969 17.8005 6.1769 0.0000 -10349.2171 1294.5977 0.0000 0.0000 1694.8660 -7331.8791 292.9402 -9026.7452 -7288.6323 301.4759 -1137.3506 -1040.0049 30410.8093 -312.6031 -243.7700
ENERGY: 900000 4.7337 16.9618 6.7216 0.0000 -10491.9399 1454.5666 0.0000 0.0000 1703.9782 -7304.9779 294.5151 -9008.9562 -7280.1759 300.4683 231.9787 350.4925 30060.0784 -100.5655 -28.0649
ENERGY: 1200000 2.5316 15.2890 6.6242 0.0000 -10512.9091 1427.7417 0.0000 0.0000 1699.4893 -7361.2332 293.7393 -9060.7225 -7291.6327 300.2835 276.2321 373.1052 29664.1598 20.1664 97.1939
ENERGY: 1500000 5.1943 17.4703 5.9363 0.0000 -10330.9236 1316.8342 0.0000 0.0000 1789.9723 -7195.5162 309.3783 -8985.4885 -7286.8410 300.3006 -345.1819 -312.9113 29890.5849 13.5931 85.4411
TCL: Exiting due to exit command.
