Info: SIMULATION PARAMETERS:
Info: TIMESTEP               2
Info: NUMBER OF STEPS        0
Info: STEPS PER CYCLE        10
Info: PERIODIC CELL BASIS 1  30.4313 0 0
Info: PERIODIC CELL BASIS 2  0 31.3743 0
Info: PERIODIC CELL BASIS 3  0 0 32.2035
Info: PERIODIC CELL CENTER   0 0 0
Info: WRAPPING WATERS AROUND PERIODIC BOUNDARIES ON OUTPUT.
Info: WRAPPING ALL CLUSTERS AROUND PERIODIC BOUNDARIES ON OUTPUT.
Info: FIRST LDB TIMESTEP     50
Info: LAST LDB TIMESTEP     -1
Info: HOM BACKGROUND SCALING 1
Info: PME BACKGROUND SCALING 1
Info: MIN ATOMS PER PATCH    40
Info: EMPTY PATCH LOAD       40 ATOMS
Info: VELOCITY FILE          mobley_7415647_equil.vel
Info: CENTER OF MASS MOVING INITIALLY? NO
Info: DIELECTRIC             1
Info: EXCLUDE                SCALED ONE-FOUR
Info: 1-4 ELECTROSTATICS SCALED BY 0.833333
Info: MODIFIED 1-4 VDW PARAMETERS WILL BE USED
Info: DCD FILENAME           mobley_7415647_prod.dcd
Info: DCD FREQUENCY          100000
Info: DCD FIRST STEP         100000
Info: DCD FILE WILL CONTAIN UNIT CELL DATA
Info: XST FILENAME           mobley_7415647_prod.xst
Info: XST FREQUENCY          100000
Info: NO VELOCITY DCD OUTPUT
Info: NO FORCE DCD OUTPUT
Info: OUTPUT FILENAME        mobley_7415647_prod
Info: BINARY OUTPUT FILES WILL BE USED
Info: RESTART FILENAME       mobley_7415647_prod.restart
Info: RESTART FREQUENCY      100000
Info: BINARY RESTART FILES WILL BE USED
Info: CUTOFF                 9
Info: PAIRLIST DISTANCE      11
Info: PAIRLIST SHRINK RATE   0.01
Info: PAIRLIST GROW RATE     0.01
Info: PAIRLIST TRIGGER       0.3
Info: PAIRLISTS PER CYCLE    2
Info: PAIRLISTS ENABLED
Info: MARGIN                 2
Info: HYDROGEN GROUP CUTOFF  2.5
Info: PATCH DIMENSION        15.5
Info: ENERGY OUTPUT STEPS    100000
Info: ENERGY EVALUATION STEPS    100000
Info: OUTPUT ENERGY PRECISION 4
Info: CROSSTERM ENERGY INCLUDED IN DIHEDRAL
Info: TIMING OUTPUT STEPS    1000000
Info: PRESSURE OUTPUT STEPS  100000
Info: ALCHEMICAL FEP ON
Info: FEP CURRENT LAMBDA VALUE     1
Info: FEP COMPARISON LAMBDA VALUE  0.95
Info: FEP INTRA-ALCHEMICAL NON-BONDED INTERACTIONS WILL BE RETAINED
Info: FEP INTRA-ALCHEMICAL BONDED INTERACTIONS WILL BE RETAINED
Info: FEP VDW SHIFTING COEFFICIENT 5
Info: FEP ELEC. ACTIVE FOR ANNIHILATED PARTICLES BETWEEN LAMBDA = 0 AND LAMBDA = 0.5
Info: FEP ELEC. ACTIVE FOR EXNIHILATED PARTICLES BETWEEN LAMBDA = 0.5 AND LAMBDA = 1
Info: FEP VDW ACTIVE FOR ANNIHILATED PARTICLES BETWEEN LAMBDA = 0 AND LAMBDA = 1
Info: FEP VDW ACTIVE FOR EXNIHILATED PARTICLES BETWEEN LAMBDA = 0 AND LAMBDA = 1
Info: FEP BOND ACTIVE FOR ANNIHILATED PARTICLES BETWEEN LAMBDA = 1 AND LAMBDA = 1
Info: FEP BOND ACTIVE FOR EXNIHILATED PARTICLES BETWEEN LAMBDA = 0 AND LAMBDA = 0
Info: LANGEVIN DYNAMICS ACTIVE
Info: LANGEVIN TEMPERATURE   300
Info: LANGEVIN USING BBK INTEGRATOR
Info: LANGEVIN DAMPING COEFFICIENT IS 1 INVERSE PS
Info: LANGEVIN DYNAMICS APPLIED TO HYDROGENS
Info: LANGEVIN PISTON PRESSURE CONTROL ACTIVE
Info:        TARGET PRESSURE IS 1.01325 BAR
Info:     OSCILLATION PERIOD IS 50 FS
Info:             DECAY TIME IS 25 FS
Info:     PISTON TEMPERATURE IS 300 K
Info:       PRESSURE CONTROL IS GROUP-BASED
Info:    INITIAL STRAIN RATE IS 0.000313747 0.000313747 0.000313747
Info:       CELL FLUCTUATION IS ISOTROPIC
Info: PARTICLE MESH EWALD (PME) ACTIVE
Info: PME TOLERANCE               1e-06
Info: PME EWALD COEFFICIENT       0.348832
Info: PME INTERPOLATION ORDER     4
Info: PME GRID DIMENSIONS         32 32 36
Info: PME MAXIMUM GRID SPACING    1
Info: PME CALCULATION WILL BE PERFORMED ON GPU
Info: FULL ELECTROSTATIC EVALUATION FREQUENCY      2
Info: USING VERLET I (r-RESPA) MTS SCHEME.
Info: C1 SPLITTING OF LONG RANGE ELECTROSTATICS
Info: PLACING ATOMS IN PATCHES BY HYDROGEN GROUPS
Info: RIGID BONDS TO HYDROGEN : ALL
Info:         ERROR TOLERANCE : 1e-08
Info:          MAX ITERATIONS : 100
Info: RIGID WATER USING SETTLE ALGORITHM
Info: RANDOM NUMBER SEED     1743887498
Info: USE HYDROGEN BONDS?    NO
Info: Using AMBER format force field!
Info: AMBER PARM FILE        mobley_7415647.prmtop
Info: COORDINATE PDB         mobley_7415647.pdb
Info: Exclusions will be read from PARM file!
Info: SCNB (VDW SCALING)     2
Info: USING ARITHMETIC MEAN TO COMBINE L-J SIGMA PARAMETERS
Info: BINARY COORDINATES     mobley_7415647_equil.coor
Info: SUMMARY OF PARAMETERS:
Info: 11 BONDS
Info: 13 ANGLES
Info:   13 HARMONIC
Info:   0 COSINE-BASED
Info: 7 DIHEDRAL
Info: 0 IMPROPER
Info: 0 CROSSTERM
Info: 0 VDW
Info: 36 VDW_PAIRS
Info: 0 NBTHOLE_PAIRS
Info: To read alchdata from file: mobley_7415647.pdb
Info: To read alchflag data from column: 5
Info: STRUCTURE SUMMARY:
Info: 2925 ATOMS
Info: 2925 BONDS
Info: 39 ANGLES
Info: 56 DIHEDRALS
Info: 0 IMPROPERS
Info: 0 CROSSTERMS
Info: 3009 EXCLUSIONS
Info: 2911 RIGID BONDS
Info: ALCH: 0 ATOMS TO DISAPPEAR IN FINAL STATE
Info: ALCH: 24 ATOMS TO APPEAR IN FINAL STATE
Info: 5864 DEGREES OF FREEDOM
Info: 981 HYDROGEN GROUPS
Info: 4 ATOMS IN LARGEST HYDROGEN GROUP
Info: 981 MIGRATION GROUPS
Info: 4 ATOMS IN LARGEST MIGRATION GROUP
Info: TOTAL MASS = 17615.7 amu
Info: TOTAL CHARGE = 9.99719e-05 e
Info: MASS DENSITY = 0.951394 g/cm^3
Info: ATOM DENSITY = 0.0951323 atoms/A^3
Info: ADDED 0 IMPLICIT EXCLUSIONS
Info: NONBONDED TABLE R-SQUARED SPACING: 0.0625
Info: NONBONDED TABLE SIZE: 705 POINTS
Info: REMOVING COM VELOCITY 0.0863902 -0.0766107 0.163554
Info: Use 3D box decompostion in PME FFT.
Info: Updated CUDA force table with 4096 elements.
Info: Updated CUDA LJ table with 8 x 8 elements.
Info: Found 26 unique exclusion lists needing 84 bytes
TCL: Running for 1500000 steps
ETITLE: TS BOND ANGLE DIHED IMPRP ELECT VDW BOUNDARY MISC KINETIC TOTAL TEMP POTENTIAL TOTALAVG TEMPAVG PRESSURE GPRESSURE VOLUME PRESSAVG GPRESSAVG
ENERGY: 0 7.8664 6.4012 10.7581 0.0000 -10441.3719 1381.0477 0.0000 0.0000 1760.3620 -7274.9366 302.1332 -9035.2986 -7274.9366 302.1332 -325.2617 -245.8216 30746.6426 -325.2617 -245.8216
ENERGY: 300000 2.9125 7.2691 11.1175 0.0000 -10533.5561 1411.9472 0.0000 0.0000 1724.6976 -7375.6123 296.0120 -9100.3099 -7325.6436 298.9505 -38.3673 40.2394 30046.6300 47.1128 99.0509
ENERGY: 600000 3.5857 12.4134 8.7037 0.0000 -10593.6731 1508.3944 0.0000 0.0000 1758.4645 -7302.1113 301.8075 -9060.5758 -7335.5672 298.2418 726.5860 826.6131 30618.8222 13.6790 67.8966
ENERGY: 900000 7.8446 7.8383 5.9081 0.0000 -10609.5521 1431.5699 0.0000 0.0000 1778.2795 -7378.1116 305.2084 -9156.3911 -7354.0450 298.3200 -132.6883 -89.3616 30190.2089 40.6989 100.8377
ENERGY: 1200000 5.8004 9.1097 8.6607 0.0000 -10596.6108 1478.9313 0.0000 0.0000 1721.8081 -7372.3005 295.5161 -9094.1086 -7361.3799 298.0308 545.6232 580.0164 30154.9220 141.1316 195.1268
ENERGY: 1500000 3.4548 9.4588 15.9862 0.0000 -10630.5856 1482.5041 0.0000 0.0000 1750.2728 -7368.9089 300.4015 -9119.1817 -7355.1488 298.6742 506.9191 564.3231 30100.1117 181.1368 228.5857
TCL: Running FEP window   2: Lambda1 0.95   Lambda2 0.8999999999999999 [dLambda -0.050000000000000044]
TCL: Setting parameter firsttimestep to 0
TCL: Setting parameter alchLambda to 0.95
Info: NONBONDED TABLE R-SQUARED SPACING: 0.0625
Info: NONBONDED TABLE SIZE: 705 POINTS
TCL: Setting parameter alchLambda2 to 0.8999999999999999
Info: NONBONDED TABLE R-SQUARED SPACING: 0.0625
Info: NONBONDED TABLE SIZE: 705 POINTS
TCL: Running for 1500000 steps
ETITLE: TS BOND ANGLE DIHED IMPRP ELECT VDW BOUNDARY MISC KINETIC TOTAL TEMP POTENTIAL TOTALAVG TEMPAVG PRESSURE GPRESSURE VOLUME PRESSAVG GPRESSAVG
ENERGY: 0 3.4548 9.4588 15.9862 0.0000 -10628.6590 1482.1656 0.0000 0.0000 1749.3957 -7368.1980 300.2510 -9117.5936 -7368.1980 300.2510 451.3419 546.1932 30100.1117 451.3419 546.1932
ENERGY: 300000 6.3578 10.7095 10.5835 0.0000 -10627.9908 1455.5932 0.0000 0.0000 1730.7757 -7413.9710 297.0552 -9144.7467 -7370.9107 300.0412 327.3434 396.8094 30031.1473 475.8835 544.2273
ENERGY: 600000 3.8221 10.3852 7.2385 0.0000 -10690.7289 1448.1843 0.0000 0.0000 1770.5018 -7450.5970 303.8735 -9221.0988 -7373.7358 300.4391 -46.5482 -5.9581 30028.8023 39.7713 101.0744
ENERGY: 900000 4.9229 11.8434 8.2212 0.0000 -10520.2930 1417.2726 0.0000 0.0000 1776.9156 -7301.1173 304.9743 -9078.0328 -7359.2464 300.8626 414.3811 440.4122 29825.6229 83.2512 136.1767
ENERGY: 1200000 8.8184 7.4317 12.3925 0.0000 -10763.3614 1535.4833 0.0000 0.0000 1764.6503 -7434.5852 302.8692 -9199.2355 -7375.1441 300.3963 691.5916 776.0378 29927.5857 142.0426 197.7831
ENERGY: 1500000 4.1344 10.9375 12.6594 0.0000 -10541.2320 1441.5796 0.0000 0.0000 1763.3105 -7308.6105 302.6392 -9071.9210 -7363.8858 300.9219 720.8759 727.0927 29965.6895 174.7379 228.7293
TCL: Running FEP window   3: Lambda1 0.8999999999999999 Lambda2 0.8499999999999999 [dLambda -0.050000000000000044]
TCL: Setting parameter firsttimestep to 0
TCL: Setting parameter alchLambda to 0.8999999999999999
Info: NONBONDED TABLE R-SQUARED SPACING: 0.0625
Info: NONBONDED TABLE SIZE: 705 POINTS
TCL: Setting parameter alchLambda2 to 0.8499999999999999
Info: NONBONDED TABLE R-SQUARED SPACING: 0.0625
Info: NONBONDED TABLE SIZE: 705 POINTS
TCL: Running for 1500000 steps
ETITLE: TS BOND ANGLE DIHED IMPRP ELECT VDW BOUNDARY MISC KINETIC TOTAL TEMP POTENTIAL TOTALAVG TEMPAVG PRESSURE GPRESSURE VOLUME PRESSAVG GPRESSAVG
ENERGY: 0 4.1345 10.9375 12.6594 0.0000 -10539.0014 1441.5761 0.0000 0.0000 1762.4219 -7307.2720 302.4867 -9069.6939 -7307.2720 302.4867 635.1972 710.6793 29965.6895 635.1972 710.6793
ENERGY: 300000 5.2077 5.9763 8.9565 0.0000 -10596.7656 1398.3470 0.0000 0.0000 1751.2229 -7427.0552 300.5646 -9178.2781 -7375.6727 301.6295 -278.6460 -302.3321 29934.7324 118.4122 156.5352
ENERGY: 600000 3.4869 10.4235 11.3762 0.0000 -10587.9064 1503.0811 0.0000 0.0000 1716.3626 -7343.1762 294.5815 -9059.5388 -7370.2032 300.6213 1068.7361 1178.7587 29664.8330 156.9504 221.0243
ENERGY: 900000 3.5816 8.9410 8.3344 0.0000 -10401.5961 1327.9895 0.0000 0.0000 1764.4111 -7288.3386 302.8281 -9052.7497 -7357.2650 300.6636 -719.1828 -710.4841 30532.3790 123.0481 187.0398
ENERGY: 1200000 6.3971 8.8466 8.5620 0.0000 -10605.4708 1456.9761 0.0000 0.0000 1747.9700 -7376.7191 300.0063 -9124.6891 -7362.9498 300.3324 124.4822 167.2646 30458.2924 83.0774 145.9028
ENERGY: 1500000 3.1613 9.1253 5.9202 0.0000 -10563.2180 1404.6188 0.0000 0.0000 1703.8045 -7436.5880 292.4261 -9140.3924 -7365.4771 299.5037 -33.9678 21.1992 29865.8230 107.6710 174.0030
TCL: Running FEP window   4: Lambda1 0.8499999999999999 Lambda2 0.7999999999999998 [dLambda -0.050000000000000044]
TCL: Setting parameter firsttimestep to 0
TCL: Setting parameter alchLambda to 0.8499999999999999
Info: NONBONDED TABLE R-SQUARED SPACING: 0.0625
Info: NONBONDED TABLE SIZE: 705 POINTS
TCL: Setting parameter alchLambda2 to 0.7999999999999998
Info: NONBONDED TABLE R-SQUARED SPACING: 0.0625
Info: NONBONDED TABLE SIZE: 705 POINTS
TCL: Running for 1500000 steps
ETITLE: TS BOND ANGLE DIHED IMPRP ELECT VDW BOUNDARY MISC KINETIC TOTAL TEMP POTENTIAL TOTALAVG TEMPAVG PRESSURE GPRESSURE VOLUME PRESSAVG GPRESSAVG
ENERGY: 0 3.1613 9.1253 5.9202 0.0000 -10561.5010 1405.1296 0.0000 0.0000 1702.9316 -7435.2330 292.2763 -9138.1646 -7435.2330 292.2763 -56.9557 11.9221 29865.8230 -56.9557 11.9221
ENERGY: 300000 10.4367 6.7496 9.0257 0.0000 -10437.6869 1332.5398 0.0000 0.0000 1734.8901 -7344.0451 297.7614 -9078.9352 -7390.4148 297.4430 -780.4261 -648.9165 30324.7530 -589.4975 -512.3133
ENERGY: 600000 5.1538 8.6929 12.9960 0.0000 -10524.2051 1394.0527 0.0000 0.0000 1754.9965 -7348.3133 301.2123 -9103.3098 -7369.3896 298.1488 -61.0937 26.7747 29701.9300 -479.5843 -406.3190
ENERGY: 900000 3.9839 7.8156 11.8716 0.0000 -10476.8373 1386.4056 0.0000 0.0000 1758.6546 -7308.1060 301.8401 -9066.7606 -7365.3209 299.0090 -165.4975 -142.7694 30417.1867 -297.7645 -225.3819
ENERGY: 1200000 3.3581 9.2214 9.7110 0.0000 -10526.3017 1385.1103 0.0000 0.0000 1740.0279 -7378.8731 298.6432 -9118.9010 -7370.0584 298.6122 -549.7004 -518.6725 30551.0610 -285.6518 -224.2763
ENERGY: 1500000 6.8667 8.1745 10.0123 0.0000 -10402.6835 1330.6182 0.0000 0.0000 1803.4578 -7243.5539 309.5298 -9047.0116 -7356.5573 300.0809 -616.8550 -583.9366 30421.9462 -239.9434 -179.1351
TCL: Running FEP window   5: Lambda1 0.7999999999999998 Lambda2 0.7499999999999998 [dLambda -0.050000000000000044]
TCL: Setting parameter firsttimestep to 0
TCL: Setting parameter alchLambda to 0.7999999999999998
Info: NONBONDED TABLE R-SQUARED SPACING: 0.0625
Info: NONBONDED TABLE SIZE: 705 POINTS
TCL: Setting parameter alchLambda2 to 0.7499999999999998
Info: NONBONDED TABLE R-SQUARED SPACING: 0.0625
Info: NONBONDED TABLE SIZE: 705 POINTS
TCL: Running for 1500000 steps
ETITLE: TS BOND ANGLE DIHED IMPRP ELECT VDW BOUNDARY MISC KINETIC TOTAL TEMP POTENTIAL TOTALAVG TEMPAVG PRESSURE GPRESSURE VOLUME PRESSAVG GPRESSAVG
ENERGY: 0 6.8667 8.1745 10.0123 0.0000 -10400.5051 1330.4716 0.0000 0.0000 1802.5549 -7242.4251 309.3748 -9044.9799 -7242.4251 309.3748 -665.7917 -595.1495 30421.9462 -665.7917 -595.1495
ENERGY: 300000 6.9202 3.9708 13.2038 0.0000 -10619.2400 1468.0921 0.0000 0.0000 1731.0798 -7395.9732 297.1074 -9127.0531 -7344.0901 302.0324 213.6188 294.8734 29922.0159 -201.4391 -156.9148
ENERGY: 600000 4.0534 7.7153 7.9736 0.0000 -10463.1588 1364.1704 0.0000 0.0000 1712.7290 -7366.5169 293.9579 -9079.2459 -7359.1041 298.7238 -165.6614 -97.8679 29913.1078 -250.0448 -190.4660
ENERGY: 900000 8.1679 8.6915 6.4892 0.0000 -10465.6398 1343.8607 0.0000 0.0000 1792.4742 -7305.9563 307.6446 -9098.4305 -7351.1212 300.3175 -653.4106 -625.9933 30466.0309 -193.7578 -126.4873
ENERGY: 1200000 4.2943 6.2687 7.8464 0.0000 -10567.4473 1417.1448 0.0000 0.0000 1744.6988 -7387.1943 299.4449 -9131.8930 -7354.8933 300.8094 -244.1906 -188.4639 30423.3485 -198.1369 -133.1103
ENERGY: 1500000 3.7648 8.0833 8.8582 0.0000 -10439.6159 1315.4557 0.0000 0.0000 1738.3287 -7365.1252 298.3516 -9103.4538 -7349.1904 301.0210 -819.8636 -810.8706 30509.0945 -201.4934 -137.2740
TCL: Running FEP window   6: Lambda1 0.7499999999999998 Lambda2 0.6999999999999997 [dLambda -0.050000000000000044]
TCL: Setting parameter firsttimestep to 0
TCL: Setting parameter alchLambda to 0.7499999999999998
Info: NONBONDED TABLE R-SQUARED SPACING: 0.0625
Info: NONBONDED TABLE SIZE: 705 POINTS
TCL: Setting parameter alchLambda2 to 0.6999999999999997
Info: NONBONDED TABLE R-SQUARED SPACING: 0.0625
Info: NONBONDED TABLE SIZE: 705 POINTS
TCL: Running for 1500000 steps
ETITLE: TS BOND ANGLE DIHED IMPRP ELECT VDW BOUNDARY MISC KINETIC TOTAL TEMP POTENTIAL TOTALAVG TEMPAVG PRESSURE GPRESSURE VOLUME PRESSAVG GPRESSAVG
ENERGY: 0 3.7648 8.0833 8.8582 0.0000 -10438.1570 1315.4899 0.0000 0.0000 1737.4821 -7364.4786 298.2063 -9101.9607 -7364.4786 298.2063 -900.3654 -823.1647 30509.0945 -900.3654 -823.1647
ENERGY: 300000 6.7772 13.9503 8.4854 0.0000 -10448.1883 1334.7138 0.0000 0.0000 1807.1872 -7277.0746 310.1698 -9084.2618 -7365.2181 298.2808 -720.7266 -740.8327 30105.7471 -390.8921 -326.0734
ENERGY: 600000 3.2823 13.2594 9.9624 0.0000 -10631.1804 1503.1095 0.0000 0.0000 1768.5068 -7333.0599 303.5311 -9101.5667 -7344.2238 301.4180 749.2177 860.0408 29924.3383 -293.7385 -215.8702
ENERGY: 900000 7.6828 9.6530 8.9078 0.0000 -10519.6521 1347.5246 0.0000 0.0000 1775.8922 -7369.9917 304.7986 -9145.8839 -7354.6592 301.7398 -520.7381 -515.5555 30002.0440 -110.9613 -37.7453
ENERGY: 1200000 3.5243 11.2843 12.8413 0.0000 -10534.4139 1422.6126 0.0000 0.0000 1734.0669 -7350.0845 297.6201 -9084.1515 -7359.2283 301.4963 31.0684 69.0156 30145.7644 -131.1792 -73.2935
ENERGY: 1500000 4.9227 6.5490 9.1550 0.0000 -10567.9730 1436.6909 0.0000 0.0000 1718.9759 -7391.6796 295.0300 -9110.6554 -7353.8121 301.5959 110.6948 193.1370 30016.0608 -189.9747 -127.7141
TCL: Running FEP window   7: Lambda1 0.6999999999999997 Lambda2 0.6499999999999997 [dLambda -0.050000000000000044]
TCL: Setting parameter firsttimestep to 0
TCL: Setting parameter alchLambda to 0.6999999999999997
Info: NONBONDED TABLE R-SQUARED SPACING: 0.0625
Info: NONBONDED TABLE SIZE: 705 POINTS
TCL: Setting parameter alchLambda2 to 0.6499999999999997
Info: NONBONDED TABLE R-SQUARED SPACING: 0.0625
Info: NONBONDED TABLE SIZE: 705 POINTS
TCL: Running for 1500000 steps
ETITLE: TS BOND ANGLE DIHED IMPRP ELECT VDW BOUNDARY MISC KINETIC TOTAL TEMP POTENTIAL TOTALAVG TEMPAVG PRESSURE GPRESSURE VOLUME PRESSAVG GPRESSAVG
ENERGY: 0 4.9227 6.5490 9.1550 0.0000 -10566.0881 1436.7202 0.0000 0.0000 1718.0717 -7390.6695 294.8748 -9108.7413 -7390.6695 294.8748 95.0189 182.7797 30016.0608 95.0189 182.7797
ENERGY: 300000 9.2052 9.8093 8.7020 0.0000 -10536.7966 1401.4624 0.0000 0.0000 1722.4672 -7385.1505 295.6292 -9107.6176 -7367.2032 297.7077 69.6183 119.1387 29740.5504 -247.5207 -192.2624
ENERGY: 600000 6.6927 7.6721 8.5094 0.0000 -10564.2529 1463.9375 0.0000 0.0000 1760.8452 -7316.5960 302.2161 -9077.4412 -7367.2753 299.3145 483.6531 573.5664 29999.9799 -106.1222 -47.7620
ENERGY: 900000 2.0961 7.6144 14.1519 0.0000 -10596.4324 1481.4892 0.0000 0.0000 1829.1218 -7261.9590 313.9345 -9091.0807 -7360.5427 300.5061 651.5045 707.6448 30024.5010 -98.7146 -36.2928
ENERGY: 1200000 4.6272 4.9265 15.4477 0.0000 -10558.0942 1404.2528 0.0000 0.0000 1689.1606 -7439.6794 289.9128 -9128.8400 -7371.9449 299.7267 -139.1019 -52.8511 30138.0659 -67.9228 -1.9172
ENERGY: 1500000 5.2848 14.3889 10.0883 0.0000 -10481.2134 1414.4518 0.0000 0.0000 1730.2486 -7306.7510 296.9648 -9036.9996 -7355.2467 299.8305 196.8910 191.1032 29997.3886 -55.9423 5.5703
TCL: Running FEP window   8: Lambda1 0.6499999999999997 Lambda2 0.5999999999999996 [dLambda -0.050000000000000044]
TCL: Setting parameter firsttimestep to 0
TCL: Setting parameter alchLambda to 0.6499999999999997
Info: NONBONDED TABLE R-SQUARED SPACING: 0.0625
Info: NONBONDED TABLE SIZE: 705 POINTS
TCL: Setting parameter alchLambda2 to 0.5999999999999996
Info: NONBONDED TABLE R-SQUARED SPACING: 0.0625
Info: NONBONDED TABLE SIZE: 705 POINTS
TCL: Running for 1500000 steps
ETITLE: TS BOND ANGLE DIHED IMPRP ELECT VDW BOUNDARY MISC KINETIC TOTAL TEMP POTENTIAL TOTALAVG TEMPAVG PRESSURE GPRESSURE VOLUME PRESSAVG GPRESSAVG
ENERGY: 0 5.2848 14.3889 10.0883 0.0000 -10480.7801 1414.6224 0.0000 0.0000 1729.4073 -7306.9885 296.8204 -9036.3957 -7306.9885 296.8204 98.6996 180.2585 29997.3886 98.6996 180.2585
ENERGY: 300000 4.6213 8.9214 8.0708 0.0000 -10497.2196 1423.2118 0.0000 0.0000 1791.8923 -7260.5021 307.5448 -9052.3944 -7332.2545 300.0633 151.3532 156.0497 30029.3240 -93.1067 -35.6962
ENERGY: 600000 3.2989 5.5112 9.8420 0.0000 -10598.8421 1415.3791 0.0000 0.0000 1700.2042 -7464.6068 291.8082 -9164.8110 -7354.0730 300.3618 -256.6760 -135.7539 29841.1491 -106.3799 -31.9329
ENERGY: 900000 6.4029 6.5337 5.8514 0.0000 -10649.0401 1474.5385 0.0000 0.0000 1683.5805 -7472.1331 288.9551 -9155.7136 -7362.2981 300.0091 244.4369 286.4709 29883.4323 -76.8916 -7.4326
ENERGY: 1200000 5.5757 7.2387 8.9140 0.0000 -10407.4424 1332.2224 0.0000 0.0000 1781.2026 -7272.2889 305.7101 -9053.4915 -7352.4565 300.2914 -708.9219 -678.9323 30359.2661 -125.8154 -68.0021
ENERGY: 1500000 7.7299 10.4793 10.6507 0.0000 -10667.5191 1466.9503 0.0000 0.0000 1771.8045 -7399.9044 304.0971 -9171.7089 -7362.3954 300.4983 -174.1936 -97.2375 30303.9511 -129.5814 -68.7128
TCL: Running FEP window   9: Lambda1 0.5999999999999996 Lambda2 0.5499999999999996 [dLambda -0.050000000000000044]
TCL: Setting parameter firsttimestep to 0
TCL: Setting parameter alchLambda to 0.5999999999999996
Info: NONBONDED TABLE R-SQUARED SPACING: 0.0625
Info: NONBONDED TABLE SIZE: 705 POINTS
TCL: Setting parameter alchLambda2 to 0.5499999999999996
Info: NONBONDED TABLE R-SQUARED SPACING: 0.0625
Info: NONBONDED TABLE SIZE: 705 POINTS
TCL: Running for 1500000 steps
ETITLE: TS BOND ANGLE DIHED IMPRP ELECT VDW BOUNDARY MISC KINETIC TOTAL TEMP POTENTIAL TOTALAVG TEMPAVG PRESSURE GPRESSURE VOLUME PRESSAVG GPRESSAVG
ENERGY: 0 7.7299 10.4794 10.6507 0.0000 -10666.0959 1466.8954 0.0000 0.0000 1770.9465 -7399.3941 303.9498 -9170.3405 -7399.3941 303.9498 -196.9020 -107.5432 30303.9511 -196.9020 -107.5432
ENERGY: 300000 4.4563 5.9061 12.0630 0.0000 -10653.8462 1484.1707 0.0000 0.0000 1768.9474 -7378.3026 303.6067 -9147.2501 -7366.4566 302.9795 405.6263 490.9924 30462.9827 515.9229 576.0970
ENERGY: 600000 5.7464 6.2830 7.4126 0.0000 -10564.1801 1421.2130 0.0000 0.0000 1753.0403 -7370.4848 300.8765 -9123.5251 -7368.7575 302.7368 -288.1354 -222.8598 30437.4955 122.9937 190.6321
ENERGY: 900000 5.0225 6.4557 11.3426 0.0000 -10605.5263 1411.4568 0.0000 0.0000 1752.1931 -7419.0557 300.7311 -9171.2488 -7373.3172 302.0319 -465.2015 -411.0763 30225.7541 18.3962 91.0385
ENERGY: 1200000 3.9533 10.0650 11.6414 0.0000 -10596.8297 1423.7819 0.0000 0.0000 1732.3696 -7415.0185 297.3288 -9147.3881 -7386.0292 300.3449 -106.5653 -68.0126 29961.8847 51.5747 117.6097
ENERGY: 1500000 3.7927 12.1403 7.0375 0.0000 -10455.1065 1334.9276 0.0000 0.0000 1737.9958 -7359.2125 298.2944 -9097.2084 -7376.8456 301.1628 -646.0866 -554.0627 29981.3299 2.4920 67.7710
TCL: Running FEP window  10: Lambda1 0.5499999999999996 Lambda2 0.4999999999999996 [dLambda -0.04999999999999999]
TCL: Setting parameter firsttimestep to 0
TCL: Setting parameter alchLambda to 0.5499999999999996
Info: NONBONDED TABLE R-SQUARED SPACING: 0.0625
Info: NONBONDED TABLE SIZE: 705 POINTS
TCL: Setting parameter alchLambda2 to 0.4999999999999996
Info: NONBONDED TABLE R-SQUARED SPACING: 0.0625
Info: NONBONDED TABLE SIZE: 705 POINTS
TCL: Running for 1500000 steps
ETITLE: TS BOND ANGLE DIHED IMPRP ELECT VDW BOUNDARY MISC KINETIC TOTAL TEMP POTENTIAL TOTALAVG TEMPAVG PRESSURE GPRESSURE VOLUME PRESSAVG GPRESSAVG
ENERGY: 0 3.7927 12.1403 7.0375 0.0000 -10454.7070 1334.6951 0.0000 0.0000 1737.1102 -7359.9311 298.1424 -9097.0413 -7359.9311 298.1424 -658.3503 -569.6701 29981.3299 -658.3503 -569.6701
ENERGY: 300000 3.9052 10.1016 9.6840 0.0000 -10428.8328 1394.5629 0.0000 0.0000 1727.9820 -7282.5970 296.5758 -9010.5790 -7346.8559 293.9149 -179.8355 -79.8686 30279.3719 -190.3424 -121.8874
ENERGY: 600000 3.4740 7.6541 9.6674 0.0000 -10534.7141 1398.3746 0.0000 0.0000 1718.1275 -7397.4165 294.8844 -9115.5440 -7339.1894 296.5354 -304.4980 -203.3845 29946.8839 -222.8043 -145.9129
ENERGY: 900000 4.0976 9.8752 11.3345 0.0000 -10456.9577 1344.7456 0.0000 0.0000 1764.7972 -7322.1076 302.8944 -9086.9048 -7346.2171 297.8843 -712.1614 -678.8756 30692.1133 -255.0539 -192.5144
ENERGY: 1200000 2.8711 8.8947 11.3747 0.0000 -10471.7408 1379.7320 0.0000 0.0000 1785.0978 -7283.7704 306.3786 -9068.8682 -7339.4175 298.4341 -35.1102 8.0907 30017.4528 -249.8432 -191.6329
ENERGY: 1500000 8.6596 8.0143 10.7438 0.0000 -10399.4101 1315.3714 0.0000 0.0000 1746.6749 -7309.9461 299.7840 -9056.6210 -7342.7074 298.4888 -1166.1463 -1101.4127 30493.8388 -359.6789 -299.3064
TCL: Running FEP window  11: Lambda1 0.4999999999999996 Lambda2 0.4499999999999996 [dLambda -0.04999999999999999]
TCL: Setting parameter firsttimestep to 0
TCL: Setting parameter alchLambda to 0.4999999999999996
Info: NONBONDED TABLE R-SQUARED SPACING: 0.0625
Info: NONBONDED TABLE SIZE: 705 POINTS
TCL: Setting parameter alchLambda2 to 0.4499999999999996
Info: NONBONDED TABLE R-SQUARED SPACING: 0.0625
Info: NONBONDED TABLE SIZE: 705 POINTS
TCL: Running for 1500000 steps
ETITLE: TS BOND ANGLE DIHED IMPRP ELECT VDW BOUNDARY MISC KINETIC TOTAL TEMP POTENTIAL TOTALAVG TEMPAVG PRESSURE GPRESSURE VOLUME PRESSAVG GPRESSAVG
ENERGY: 0 8.6596 8.0143 10.7438 0.0000 -10398.9643 1316.4357 0.0000 0.0000 1745.8200 -7309.2909 299.6373 -9055.1109 -7309.2909 299.6373 -1186.6937 -1103.1865 30493.8388 -1186.6937 -1103.1865
ENERGY: 300000 5.9162 6.0443 12.9098 0.0000 -10578.6668 1472.2001 0.0000 0.0000 1822.2259 -7259.3705 312.7509 -9081.5964 -7319.6374 307.1038 572.4682 704.5513 29727.6502 -291.1716 -190.1336
ENERGY: 600000 8.1562 6.8515 7.8079 0.0000 -10545.2441 1444.9601 0.0000 0.0000 1813.0863 -7264.3822 311.1823 -9077.4685 -7320.8793 306.2773 -3.7679 30.5411 30622.7998 -86.8732 -11.5030
ENERGY: 900000 6.2567 7.4614 9.2348 0.0000 -10526.3270 1433.0392 0.0000 0.0000 1748.9267 -7321.4082 300.1705 -9070.3349 -7325.8325 304.4614 -79.7026 -46.6268 30219.0471 19.1360 91.5906
ENERGY: 1200000 4.4646 8.4678 11.5337 0.0000 -10695.5040 1458.5996 0.0000 0.0000 1727.8181 -7484.6202 296.5476 -9212.4383 -7346.3887 303.0024 166.6138 225.0229 29636.7392 92.0348 159.5635
ENERGY: 1500000 5.0734 7.9289 14.4756 0.0000 -10499.7461 1384.7012 0.0000 0.0000 1728.5845 -7358.9825 296.6792 -9087.5670 -7347.0686 302.3194 -393.3443 -329.4498 30225.0043 33.1245 94.4154
TCL: Running FEP window  12: Lambda1 0.4499999999999996 Lambda2 0.39999999999999963 [dLambda -0.04999999999999999]
TCL: Setting parameter firsttimestep to 0
TCL: Setting parameter alchLambda to 0.4499999999999996
Info: NONBONDED TABLE R-SQUARED SPACING: 0.0625
Info: NONBONDED TABLE SIZE: 705 POINTS
TCL: Setting parameter alchLambda2 to 0.39999999999999963
Info: NONBONDED TABLE R-SQUARED SPACING: 0.0625
Info: NONBONDED TABLE SIZE: 705 POINTS
TCL: Running for 1500000 steps
ETITLE: TS BOND ANGLE DIHED IMPRP ELECT VDW BOUNDARY MISC KINETIC TOTAL TEMP POTENTIAL TOTALAVG TEMPAVG PRESSURE GPRESSURE VOLUME PRESSAVG GPRESSAVG
ENERGY: 0 5.0734 7.9289 14.4756 0.0000 -10499.7455 1384.9430 0.0000 0.0000 1727.7377 -7359.5868 296.5338 -9087.3245 -7359.5868 296.5338 -407.6201 -337.2361 30225.0043 -407.6201 -337.2361
ENERGY: 300000 3.2731 6.6563 10.3012 0.0000 -10538.6841 1432.9169 0.0000 0.0000 1752.7220 -7332.8146 300.8219 -9085.5366 -7370.0562 295.6883 221.1644 233.8835 30054.8262 88.1455 158.7252
ENERGY: 600000 3.3914 4.6343 11.4348 0.0000 -10502.8170 1335.0132 0.0000 0.0000 1708.8451 -7439.4982 293.2913 -9148.3433 -7369.5185 296.8580 -963.7268 -850.6814 30023.9034 -118.8546 -54.9257
ENERGY: 900000 4.1616 8.2554 14.7077 0.0000 -10568.4733 1462.9307 0.0000 0.0000 1746.9291 -7331.4888 299.8277 -9078.4179 -7355.3016 298.1556 595.3662 659.8903 29688.7593 -89.5740 -25.1603
ENERGY: 1200000 3.8807 5.5082 14.5411 0.0000 -10573.9016 1376.2287 0.0000 0.0000 1790.2476 -7383.4953 307.2625 -9173.7429 -7359.8603 299.2184 -250.0531 -274.1199 29933.6606 -35.9018 19.1805
ENERGY: 1500000 4.9422 10.7557 11.2544 0.0000 -10666.5502 1565.1857 0.0000 0.0000 1697.2026 -7377.2096 291.2930 -9074.4122 -7358.4278 299.2636 1240.6414 1297.7607 29773.0739 90.1966 147.2000
TCL: Running FEP window  13: Lambda1 0.39999999999999963 Lambda2 0.34999999999999964 [dLambda -0.04999999999999999]
TCL: Setting parameter firsttimestep to 0
TCL: Setting parameter alchLambda to 0.39999999999999963
Info: NONBONDED TABLE R-SQUARED SPACING: 0.0625
Info: NONBONDED TABLE SIZE: 705 POINTS
TCL: Setting parameter alchLambda2 to 0.34999999999999964
Info: NONBONDED TABLE R-SQUARED SPACING: 0.0625
Info: NONBONDED TABLE SIZE: 705 POINTS
TCL: Running for 1500000 steps
ETITLE: TS BOND ANGLE DIHED IMPRP ELECT VDW BOUNDARY MISC KINETIC TOTAL TEMP POTENTIAL TOTALAVG TEMPAVG PRESSURE GPRESSURE VOLUME PRESSAVG GPRESSAVG
ENERGY: 0 4.9422 10.7557 11.2544 0.0000 -10666.5495 1565.6742 0.0000 0.0000 1696.3292 -7377.5938 291.1431 -9073.9230 -7377.5938 291.1431 1212.5241 1291.8970 29773.0739 1212.5241 1291.8970
ENERGY: 300000 4.4437 8.4094 6.7861 0.0000 -10462.1049 1352.6409 0.0000 0.0000 1718.9222 -7370.9026 295.0208 -9089.8248 -7389.9790 293.8975 -508.8467 -445.6028 30058.9429 -203.3111 -139.6927
ENERGY: 600000 6.0706 5.8950 8.4496 0.0000 -10543.7228 1400.8505 0.0000 0.0000 1749.5398 -7372.9172 300.2757 -9122.4570 -7387.5543 295.9036 -354.9920 -322.4764 30281.7841 -259.7911 -210.0306
ENERGY: 900000 5.3944 11.1985 12.6537 0.0000 -10690.8569 1524.0951 0.0000 0.0000 1760.1163 -7377.3990 302.0910 -9137.5153 -7383.1637 297.9467 467.5113 536.9253 30201.9653 -149.0219 -99.6158
ENERGY: 1200000 5.7230 5.8408 14.2959 0.0000 -10389.5107 1308.0346 0.0000 0.0000 1804.0736 -7251.5429 309.6354 -9055.6165 -7368.7484 298.4943 -765.9442 -700.6943 30114.3366 -212.8449 -165.1603
ENERGY: 1500000 8.2103 8.1269 11.0642 0.0000 -10699.7414 1551.5057 0.0000 0.0000 1746.6930 -7374.1413 299.7871 -9120.8343 -7369.1594 298.7866 607.2074 630.8821 30324.1129 -77.4181 -33.9649
TCL: Running FEP window  14: Lambda1 0.34999999999999964 Lambda2 0.29999999999999966 [dLambda -0.04999999999999999]
TCL: Setting parameter firsttimestep to 0
TCL: Setting parameter alchLambda to 0.34999999999999964
Info: NONBONDED TABLE R-SQUARED SPACING: 0.0625
Info: NONBONDED TABLE SIZE: 705 POINTS
TCL: Setting parameter alchLambda2 to 0.29999999999999966
Info: NONBONDED TABLE R-SQUARED SPACING: 0.0625
Info: NONBONDED TABLE SIZE: 705 POINTS
TCL: Running for 1500000 steps
ETITLE: TS BOND ANGLE DIHED IMPRP ELECT VDW BOUNDARY MISC KINETIC TOTAL TEMP POTENTIAL TOTALAVG TEMPAVG PRESSURE GPRESSURE VOLUME PRESSAVG GPRESSAVG
ENERGY: 0 8.2103 8.1269 11.0642 0.0000 -10699.7423 1552.0674 0.0000 0.0000 1745.8430 -7374.4304 299.6412 -9120.2734 -7374.4304 299.6412 555.5620 626.7928 30324.1129 555.5620 626.7928
ENERGY: 300000 5.0980 7.9321 12.1204 0.0000 -10698.4050 1471.9878 0.0000 0.0000 1770.1474 -7431.1192 303.8126 -9201.2666 -7320.3786 301.8453 304.1987 356.9610 29507.2009 188.4822 241.3541
ENERGY: 600000 4.8383 11.9593 8.0102 0.0000 -10488.1204 1413.2647 0.0000 0.0000 1699.8161 -7350.2318 291.7416 -9050.0479 -7323.0005 300.1885 -118.3362 -51.9945 30236.7724 152.8257 208.7212
ENERGY: 900000 3.6390 9.2374 11.9421 0.0000 -10558.3942 1401.1850 0.0000 0.0000 1728.3323 -7404.0584 296.6359 -9132.3907 -7334.5262 300.1790 -196.6680 -174.3728 29860.4709 127.5317 189.8157
ENERGY: 1200000 7.3128 6.1233 9.0207 0.0000 -10503.4276 1408.9358 0.0000 0.0000 1739.0307 -7333.0043 298.4721 -9072.0350 -7337.8385 299.7050 -60.5941 -27.9368 29879.3814 -34.7542 20.7153
ENERGY: 1500000 2.9665 9.4156 16.3591 0.0000 -10472.6006 1394.5171 0.0000 0.0000 1797.4034 -7251.9390 308.4906 -9049.3424 -7332.1575 300.2216 -87.1899 3.7111 30194.1407 -62.0209 -5.1576
TCL: Running FEP window  15: Lambda1 0.29999999999999966 Lambda2 0.24999999999999967 [dLambda -0.04999999999999999]
TCL: Setting parameter firsttimestep to 0
TCL: Setting parameter alchLambda to 0.29999999999999966
Info: NONBONDED TABLE R-SQUARED SPACING: 0.0625
Info: NONBONDED TABLE SIZE: 705 POINTS
TCL: Setting parameter alchLambda2 to 0.24999999999999967
Info: NONBONDED TABLE R-SQUARED SPACING: 0.0625
Info: NONBONDED TABLE SIZE: 705 POINTS
TCL: Running for 1500000 steps
ETITLE: TS BOND ANGLE DIHED IMPRP ELECT VDW BOUNDARY MISC KINETIC TOTAL TEMP POTENTIAL TOTALAVG TEMPAVG PRESSURE GPRESSURE VOLUME PRESSAVG GPRESSAVG
ENERGY: 0 2.9664 9.4156 16.3591 0.0000 -10472.6025 1395.1961 0.0000 0.0000 1796.5157 -7252.1494 308.3383 -9048.6652 -7252.1494 308.3383 -85.4444 2.5232 30194.1407 -85.4444 2.5232
ENERGY: 300000 3.3097 6.0813 12.7248 0.0000 -10524.5080 1341.3649 0.0000 0.0000 1733.3653 -7427.6620 297.4997 -9161.0273 -7368.5069 298.7209 -572.5948 -581.5749 29790.6546 -293.0354 -249.1525
ENERGY: 600000 5.9637 7.1824 7.9140 0.0000 -10509.7480 1367.5998 0.0000 0.0000 1805.2014 -7315.8867 309.8290 -9121.0881 -7344.6949 300.7632 -481.5291 -418.3305 29783.7495 -206.5051 -145.4063
ENERGY: 900000 3.9916 7.5492 8.0761 0.0000 -10582.7376 1409.3488 0.0000 0.0000 1742.8305 -7410.9413 299.1242 -9153.7718 -7364.1961 299.3522 -136.2575 -63.1586 30026.8799 -175.6992 -108.7803
ENERGY: 1200000 5.5530 7.3931 5.4036 0.0000 -10529.8724 1402.4738 0.0000 0.0000 1751.8245 -7357.2243 300.6679 -9109.0488 -7359.4212 299.4043 -199.4297 -181.2975 30070.0431 -63.1316 -5.0040
ENERGY: 1500000 5.0963 9.3558 11.4619 0.0000 -10540.8324 1406.3950 0.0000 0.0000 1794.5870 -7313.9362 308.0072 -9108.5232 -7361.3887 300.3668 -197.4099 -121.7925 29991.7995 -67.1666 -7.9387
TCL: Running FEP window  16: Lambda1 0.24999999999999967 Lambda2 0.19999999999999968 [dLambda -0.04999999999999999]
TCL: Setting parameter firsttimestep to 0
TCL: Setting parameter alchLambda to 0.24999999999999967
Info: NONBONDED TABLE R-SQUARED SPACING: 0.0625
Info: NONBONDED TABLE SIZE: 705 POINTS
TCL: Setting parameter alchLambda2 to 0.19999999999999968
Info: NONBONDED TABLE R-SQUARED SPACING: 0.0625
Info: NONBONDED TABLE SIZE: 705 POINTS
TCL: Running for 1500000 steps
ETITLE: TS BOND ANGLE DIHED IMPRP ELECT VDW BOUNDARY MISC KINETIC TOTAL TEMP POTENTIAL TOTALAVG TEMPAVG PRESSURE GPRESSURE VOLUME PRESSAVG GPRESSAVG
ENERGY: 0 5.0963 9.3558 11.4619 0.0000 -10540.8326 1406.9659 0.0000 0.0000 1793.7540 -7314.1985 307.8643 -9107.9526 -7314.1985 307.8643 -209.4604 -126.2444 29991.7995 -209.4604 -126.2444
ENERGY: 300000 3.8253 4.5925 12.9201 0.0000 -10630.1219 1454.9586 0.0000 0.0000 1778.0123 -7375.8131 305.1625 -9153.8253 -7371.6556 301.4483 160.2749 191.5873 30107.7649 47.6058 101.8379
ENERGY: 600000 5.3566 7.7429 10.8048 0.0000 -10535.1406 1560.4988 0.0000 0.0000 1757.2483 -7193.4892 301.5988 -8950.7375 -7324.9149 302.1000 1321.9614 1363.3682 30187.1080 44.0063 105.4917
ENERGY: 900000 6.2594 11.1926 9.9381 0.0000 -10576.8515 1397.2873 0.0000 0.0000 1726.5015 -7425.6726 296.3216 -9152.1741 -7352.3922 300.8013 -479.6360 -437.4188 30010.0460 31.3446 86.3029
ENERGY: 1200000 2.8939 6.6135 8.6478 0.0000 -10550.8570 1459.6110 0.0000 0.0000 1806.2437 -7266.8473 310.0079 -9073.0910 -7339.7242 301.3588 624.3564 657.2521 29794.4131 -9.3602 40.8052
ENERGY: 1500000 3.6273 4.8911 9.9317 0.0000 -10591.3985 1401.3819 0.0000 0.0000 1734.3045 -7437.2619 297.6609 -9171.5664 -7345.1872 300.8244 -351.4613 -292.5828 29633.2376 -103.9050 -52.9904
TCL: Running FEP window  17: Lambda1 0.19999999999999968 Lambda2 0.1499999999999997 [dLambda -0.04999999999999999]
TCL: Setting parameter firsttimestep to 0
TCL: Setting parameter alchLambda to 0.19999999999999968
Info: NONBONDED TABLE R-SQUARED SPACING: 0.0625
Info: NONBONDED TABLE SIZE: 705 POINTS
TCL: Setting parameter alchLambda2 to 0.1499999999999997
Info: NONBONDED TABLE R-SQUARED SPACING: 0.0625
Info: NONBONDED TABLE SIZE: 705 POINTS
TCL: Running for 1500000 steps
ETITLE: TS BOND ANGLE DIHED IMPRP ELECT VDW BOUNDARY MISC KINETIC TOTAL TEMP POTENTIAL TOTALAVG TEMPAVG PRESSURE GPRESSURE VOLUME PRESSAVG GPRESSAVG
ENERGY: 0 3.6273 4.8911 9.9317 0.0000 -10591.3995 1401.7171 0.0000 0.0000 1733.4443 -7437.7879 297.5133 -9171.2322 -7437.7879 297.5133 -380.0848 -298.8276 29633.2376 -380.0848 -298.8276
ENERGY: 300000 10.1669 5.0675 9.0322 0.0000 -10545.3443 1448.1591 0.0000 0.0000 1723.0399 -7349.8787 295.7275 -9072.9186 -7409.5631 295.8708 -131.5854 7.0913 30017.1488 -265.1668 -182.0184
ENERGY: 600000 5.1013 11.1789 11.4847 0.0000 -10526.2143 1457.2130 0.0000 0.0000 1693.4185 -7347.8178 290.6436 -9041.2363 -7372.4820 297.3569 411.9100 498.3357 29844.5318 -194.2327 -106.7733
ENERGY: 900000 5.7544 8.9147 12.8317 0.0000 -10518.2429 1407.0521 0.0000 0.0000 1752.4626 -7331.2274 300.7774 -9083.6900 -7365.3759 298.2179 -291.8177 -259.5643 30063.5471 -221.0239 -138.9910
ENERGY: 1200000 3.3351 6.8850 9.3709 0.0000 -10513.2269 1380.0455 0.0000 0.0000 1759.0500 -7354.5405 301.9080 -9113.5904 -7361.3516 298.3319 -601.2934 -450.0404 30187.0304 -237.1984 -158.4503
ENERGY: 1500000 3.3328 8.8209 12.2228 0.0000 -10585.3421 1460.5093 0.0000 0.0000 1814.6490 -7285.8073 311.4505 -9100.4563 -7359.1030 299.5029 238.3551 290.4765 30398.4566 -224.3455 -145.7405
TCL: Running FEP window  18: Lambda1 0.1499999999999997 Lambda2 0.09999999999999969 [dLambda -0.05 ]
TCL: Setting parameter firsttimestep to 0
TCL: Setting parameter alchLambda to 0.1499999999999997
Info: NONBONDED TABLE R-SQUARED SPACING: 0.0625
Info: NONBONDED TABLE SIZE: 705 POINTS
TCL: Setting parameter alchLambda2 to 0.09999999999999969
Info: NONBONDED TABLE R-SQUARED SPACING: 0.0625
Info: NONBONDED TABLE SIZE: 705 POINTS
TCL: Running for 1500000 steps
ETITLE: TS BOND ANGLE DIHED IMPRP ELECT VDW BOUNDARY MISC KINETIC TOTAL TEMP POTENTIAL TOTALAVG TEMPAVG PRESSURE GPRESSURE VOLUME PRESSAVG GPRESSAVG
ENERGY: 0 3.3328 8.8209 12.2228 0.0000 -10585.3419 1460.5512 0.0000 0.0000 1813.7474 -7286.6668 311.2958 -9100.4142 -7286.6668 311.2958 207.7164 285.5608 30398.4566 207.7164 285.5608
ENERGY: 300000 4.2816 5.7041 9.4320 0.0000 -10529.8191 1403.9892 0.0000 0.0000 1753.2024 -7353.2098 300.9044 -9106.4122 -7359.7884 301.1872 -318.3473 -241.4125 30093.3437 236.4145 275.6152
ENERGY: 600000 5.0916 11.2569 10.7696 0.0000 -10660.4622 1511.4051 0.0000 0.0000 1755.6279 -7366.3111 301.3206 -9121.9390 -7358.9510 301.8658 772.8069 724.0316 29655.0663 88.9491 125.0232
ENERGY: 900000 5.3910 7.8039 11.9761 0.0000 -10484.0608 1440.5925 0.0000 0.0000 1768.6148 -7249.6825 303.5496 -9018.2973 -7355.2887 302.0003 214.4528 254.5659 30502.3520 22.9461 76.6558
ENERGY: 1200000 10.9439 8.5921 8.1517 0.0000 -10587.5536 1403.9227 0.0000 0.0000 1743.5146 -7412.4286 299.2416 -9155.9433 -7371.8405 301.1920 -444.1699 -381.7037 29799.1531 -62.4263 -12.5409
ENERGY: 1500000 7.5073 8.3063 10.8697 0.0000 -10620.0740 1446.5132 0.0000 0.0000 1742.2208 -7404.6567 299.0196 -9146.8775 -7371.6698 300.5996 -281.8755 -196.0766 29992.0801 -128.9649 -78.3291
TCL: Running FEP window  19: Lambda1 0.09999999999999969 Lambda2 0.049999999999999684 [dLambda -0.05 ]
TCL: Setting parameter firsttimestep to 0
TCL: Setting parameter alchLambda to 0.09999999999999969
Info: NONBONDED TABLE R-SQUARED SPACING: 0.0625
Info: NONBONDED TABLE SIZE: 705 POINTS
TCL: Setting parameter alchLambda2 to 0.049999999999999684
Info: NONBONDED TABLE R-SQUARED SPACING: 0.0625
Info: NONBONDED TABLE SIZE: 705 POINTS
TCL: Running for 1500000 steps
ETITLE: TS BOND ANGLE DIHED IMPRP ELECT VDW BOUNDARY MISC KINETIC TOTAL TEMP POTENTIAL TOTALAVG TEMPAVG PRESSURE GPRESSURE VOLUME PRESSAVG GPRESSAVG
ENERGY: 0 7.5073 8.3063 10.8697 0.0000 -10620.0731 1444.8157 0.0000 0.0000 1741.3722 -7407.2019 298.8739 -9148.5741 -7407.2019 298.8739 -294.4331 -204.8659 29992.0801 -294.4331 -204.8659
ENERGY: 300000 3.9485 7.3159 9.8983 0.0000 -10493.0668 1368.1011 0.0000 0.0000 1799.0631 -7304.7399 308.7755 -9103.8030 -7359.4120 303.9667 -510.1109 -505.2009 29839.9233 -388.7039 -353.4469
ENERGY: 600000 3.1372 11.4377 6.2990 0.0000 -10527.3230 1381.0106 0.0000 0.0000 1784.0606 -7341.3779 306.2006 -9125.4385 -7355.2547 303.1119 -473.1780 -308.7089 29959.9333 -97.7838 -47.3219
ENERGY: 900000 3.7626 5.9760 8.3582 0.0000 -10628.8016 1502.8138 0.0000 0.0000 1750.7118 -7357.1792 300.4769 -9107.8910 -7365.7031 302.6537 360.5490 409.1314 30251.9692 -120.9260 -72.4815
ENERGY: 1200000 6.9477 13.1095 9.3240 0.0000 -10579.0504 1487.2001 0.0000 0.0000 1699.5177 -7362.9513 291.6904 -9062.4691 -7362.0439 301.7096 553.2004 669.5499 30111.3784 -127.0951 -70.9407
ENERGY: 1500000 10.9061 10.7671 9.7811 0.0000 -10551.0799 1449.8321 0.0000 0.0000 1785.4196 -7284.3739 306.4338 -9069.7935 -7362.6463 302.1123 482.2651 535.5436 29436.2775 16.7735 74.4459
TCL: Running FEP window  20: Lambda1 0.049999999999999684 Lambda2 0.0    [dLambda -0.049999999999999684]
TCL: Setting parameter firsttimestep to 0
TCL: Setting parameter alchLambda to 0.049999999999999684
Info: NONBONDED TABLE R-SQUARED SPACING: 0.0625
Info: NONBONDED TABLE SIZE: 705 POINTS
TCL: Setting parameter alchLambda2 to 0.0
Info: NONBONDED TABLE R-SQUARED SPACING: 0.0625
Info: NONBONDED TABLE SIZE: 705 POINTS
TCL: Running for 1500000 steps
ETITLE: TS BOND ANGLE DIHED IMPRP ELECT VDW BOUNDARY MISC KINETIC TOTAL TEMP POTENTIAL TOTALAVG TEMPAVG PRESSURE GPRESSURE VOLUME PRESSAVG GPRESSAVG
ENERGY: 0 10.9062 10.7670 9.7811 0.0000 -10551.0800 1449.2652 0.0000 0.0000 1784.5475 -7285.8130 306.2842 -9070.3605 -7285.8130 306.2842 449.4039 528.8951 29436.2775 449.4039 528.8951
ENERGY: 300000 4.8434 7.2842 7.7120 0.0000 -10445.8356 1356.5364 0.0000 0.0000 1807.2333 -7262.2263 310.1778 -9069.4596 -7320.9252 303.1652 -583.5120 -519.6669 30142.3664 166.1571 225.3778
ENERGY: 600000 7.5147 11.0079 8.4313 0.0000 -10533.8100 1398.1987 0.0000 0.0000 1766.1672 -7342.4902 303.1295 -9108.6574 -7330.3327 303.2736 -352.0089 -324.5610 29709.9783 229.4382 289.5149
ENERGY: 900000 7.1566 7.1638 7.1041 0.0000 -10540.2263 1412.5675 0.0000 0.0000 1822.3338 -7283.9006 312.7695 -9106.2344 -7325.3405 304.0529 -139.7225 -59.2772 30037.1035 224.1654 292.7579
ENERGY: 1200000 9.7178 11.5523 11.0081 0.0000 -10483.4276 1392.4827 0.0000 0.0000 1736.6719 -7321.9948 298.0672 -9058.6668 -7330.8050 303.1191 -112.8121 -55.2489 29762.8217 186.7958 256.2840
ENERGY: 1500000 6.0339 12.2015 11.7741 0.0000 -10498.6542 1407.9173 0.0000 0.0000 1761.8504 -7298.8770 302.3886 -9060.7274 -7339.2074 303.0094 -283.2266 -165.9884 30386.5807 45.2882 121.8881
TCL: Exiting due to exit command.
