Info: SIMULATION PARAMETERS:
Info: TIMESTEP               2
Info: NUMBER OF STEPS        0
Info: STEPS PER CYCLE        10
Info: PERIODIC CELL BASIS 1  31.9067 0 0
Info: PERIODIC CELL BASIS 2  0 30.4577 0
Info: PERIODIC CELL BASIS 3  0 0 32.1815
Info: PERIODIC CELL CENTER   0 0 0
Info: WRAPPING WATERS AROUND PERIODIC BOUNDARIES ON OUTPUT.
Info: WRAPPING ALL CLUSTERS AROUND PERIODIC BOUNDARIES ON OUTPUT.
Info: FIRST LDB TIMESTEP     50
Info: LAST LDB TIMESTEP     -1
Info: HOM BACKGROUND SCALING 1
Info: PME BACKGROUND SCALING 1
Info: MIN ATOMS PER PATCH    40
Info: EMPTY PATCH LOAD       40 ATOMS
Info: VELOCITY FILE          mobley_313406_equil.vel
Info: CENTER OF MASS MOVING INITIALLY? NO
Info: DIELECTRIC             1
Info: EXCLUDE                SCALED ONE-FOUR
Info: 1-4 ELECTROSTATICS SCALED BY 0.833333
Info: MODIFIED 1-4 VDW PARAMETERS WILL BE USED
Info: DCD FILENAME           mobley_313406_prod.dcd
Info: DCD FREQUENCY          100000
Info: DCD FIRST STEP         100000
Info: DCD FILE WILL CONTAIN UNIT CELL DATA
Info: XST FILENAME           mobley_313406_prod.xst
Info: XST FREQUENCY          100000
Info: NO VELOCITY DCD OUTPUT
Info: NO FORCE DCD OUTPUT
Info: OUTPUT FILENAME        mobley_313406_prod
Info: BINARY OUTPUT FILES WILL BE USED
Info: RESTART FILENAME       mobley_313406_prod.restart
Info: RESTART FREQUENCY      100000
Info: BINARY RESTART FILES WILL BE USED
Info: CUTOFF                 9
Info: PAIRLIST DISTANCE      11
Info: PAIRLIST SHRINK RATE   0.01
Info: PAIRLIST GROW RATE     0.01
Info: PAIRLIST TRIGGER       0.3
Info: PAIRLISTS PER CYCLE    2
Info: PAIRLISTS ENABLED
Info: MARGIN                 2
Info: HYDROGEN GROUP CUTOFF  2.5
Info: PATCH DIMENSION        15.5
Info: ENERGY OUTPUT STEPS    100000
Info: ENERGY EVALUATION STEPS    100000
Info: OUTPUT ENERGY PRECISION 4
Info: CROSSTERM ENERGY INCLUDED IN DIHEDRAL
Info: TIMING OUTPUT STEPS    1000000
Info: PRESSURE OUTPUT STEPS  100000
Info: ALCHEMICAL FEP ON
Info: FEP CURRENT LAMBDA VALUE     1
Info: FEP COMPARISON LAMBDA VALUE  0.95
Info: FEP INTRA-ALCHEMICAL NON-BONDED INTERACTIONS WILL BE RETAINED
Info: FEP INTRA-ALCHEMICAL BONDED INTERACTIONS WILL BE RETAINED
Info: FEP VDW SHIFTING COEFFICIENT 5
Info: FEP ELEC. ACTIVE FOR ANNIHILATED PARTICLES BETWEEN LAMBDA = 0 AND LAMBDA = 0.5
Info: FEP ELEC. ACTIVE FOR EXNIHILATED PARTICLES BETWEEN LAMBDA = 0.5 AND LAMBDA = 1
Info: FEP VDW ACTIVE FOR ANNIHILATED PARTICLES BETWEEN LAMBDA = 0 AND LAMBDA = 1
Info: FEP VDW ACTIVE FOR EXNIHILATED PARTICLES BETWEEN LAMBDA = 0 AND LAMBDA = 1
Info: FEP BOND ACTIVE FOR ANNIHILATED PARTICLES BETWEEN LAMBDA = 1 AND LAMBDA = 1
Info: FEP BOND ACTIVE FOR EXNIHILATED PARTICLES BETWEEN LAMBDA = 0 AND LAMBDA = 0
Info: LANGEVIN DYNAMICS ACTIVE
Info: LANGEVIN TEMPERATURE   300
Info: LANGEVIN USING BBK INTEGRATOR
Info: LANGEVIN DAMPING COEFFICIENT IS 1 INVERSE PS
Info: LANGEVIN DYNAMICS APPLIED TO HYDROGENS
Info: LANGEVIN PISTON PRESSURE CONTROL ACTIVE
Info:        TARGET PRESSURE IS 1.01325 BAR
Info:     OSCILLATION PERIOD IS 50 FS
Info:             DECAY TIME IS 25 FS
Info:     PISTON TEMPERATURE IS 300 K
Info:       PRESSURE CONTROL IS GROUP-BASED
Info:    INITIAL STRAIN RATE IS 0.000276702 0.000276702 0.000276702
Info:       CELL FLUCTUATION IS ISOTROPIC
Info: PARTICLE MESH EWALD (PME) ACTIVE
Info: PME TOLERANCE               1e-06
Info: PME EWALD COEFFICIENT       0.348832
Info: PME INTERPOLATION ORDER     4
Info: PME GRID DIMENSIONS         32 32 36
Info: PME MAXIMUM GRID SPACING    1
Info: PME CALCULATION WILL BE PERFORMED ON GPU
Info: FULL ELECTROSTATIC EVALUATION FREQUENCY      2
Info: USING VERLET I (r-RESPA) MTS SCHEME.
Info: C1 SPLITTING OF LONG RANGE ELECTROSTATICS
Info: PLACING ATOMS IN PATCHES BY HYDROGEN GROUPS
Info: RIGID BONDS TO HYDROGEN : ALL
Info:         ERROR TOLERANCE : 1e-08
Info:          MAX ITERATIONS : 100
Info: RIGID WATER USING SETTLE ALGORITHM
Info: RANDOM NUMBER SEED     1743725149
Info: USE HYDROGEN BONDS?    NO
Info: Using AMBER format force field!
Info: AMBER PARM FILE        mobley_313406.prmtop
Info: COORDINATE PDB         mobley_313406.pdb
Info: Exclusions will be read from PARM file!
Info: SCNB (VDW SCALING)     2
Info: USING ARITHMETIC MEAN TO COMBINE L-J SIGMA PARAMETERS
Info: BINARY COORDINATES     mobley_313406_equil.coor
Info: SUMMARY OF PARAMETERS:
Info: 7 BONDS
Info: 8 ANGLES
Info:   8 HARMONIC
Info:   0 COSINE-BASED
Info: 6 DIHEDRAL
Info: 0 IMPROPER
Info: 0 CROSSTERM
Info: 0 VDW
Info: 21 VDW_PAIRS
Info: 0 NBTHOLE_PAIRS
Info: To read alchdata from file: mobley_313406.pdb
Info: To read alchflag data from column: 5
Info: STRUCTURE SUMMARY:
Info: 2997 ATOMS
Info: 2996 BONDS
Info: 19 ANGLES
Info: 24 DIHEDRALS
Info: 0 IMPROPERS
Info: 0 CROSSTERMS
Info: 3036 EXCLUSIONS
Info: 2993 RIGID BONDS
Info: ALCH: 0 ATOMS TO DISAPPEAR IN FINAL STATE
Info: ALCH: 12 ATOMS TO APPEAR IN FINAL STATE
Info: 5998 DEGREES OF FREEDOM
Info: 999 HYDROGEN GROUPS
Info: 4 ATOMS IN LARGEST HYDROGEN GROUP
Info: 999 MIGRATION GROUPS
Info: 4 ATOMS IN LARGEST MIGRATION GROUP
Info: TOTAL MASS = 17986 amu
Info: TOTAL CHARGE = 9.99756e-05 e
Info: MASS DENSITY = 0.955014 g/cm^3
Info: ATOM DENSITY = 0.0958302 atoms/A^3
Info: ADDED 0 IMPLICIT EXCLUSIONS
Info: NONBONDED TABLE R-SQUARED SPACING: 0.0625
Info: NONBONDED TABLE SIZE: 705 POINTS
Info: REMOVING COM VELOCITY -0.207914 0.0474566 0.110954
Info: Use 3D box decompostion in PME FFT.
Info: Updated CUDA force table with 4096 elements.
Info: Updated CUDA LJ table with 6 x 6 elements.
Info: Found 15 unique exclusion lists needing 28 bytes
TCL: Running for 1500000 steps
ETITLE: TS BOND ANGLE DIHED IMPRP ELECT VDW BOUNDARY MISC KINETIC TOTAL TEMP POTENTIAL TOTALAVG TEMPAVG PRESSURE GPRESSURE VOLUME PRESSAVG GPRESSAVG
ENERGY: 0 0.7342 8.8660 1.6477 0.0000 -10814.4327 1396.0865 0.0000 0.0000 1834.3719 -7572.7264 307.8019 -9407.0983 -7572.7264 307.8019 -666.5664 -582.7326 31274.0770 -666.5664 -582.7326
ENERGY: 300000 2.4152 3.3924 1.4583 0.0000 -10934.5628 1481.7949 0.0000 0.0000 1810.0686 -7635.4332 303.7239 -9445.5019 -7622.8197 299.8408 326.2519 414.1188 30397.6437 -51.5128 13.8943
ENERGY: 600000 2.0006 6.2460 1.7304 0.0000 -10950.9298 1567.5269 0.0000 0.0000 1782.2853 -7591.1407 299.0619 -9373.4260 -7605.6981 299.5617 664.4190 790.4725 30981.9318 101.1952 171.5676
ENERGY: 900000 2.3948 4.1740 2.1776 0.0000 -10744.1838 1364.9480 0.0000 0.0000 1802.4353 -7568.0541 302.4431 -9370.4894 -7609.0028 299.9498 -720.5383 -723.8174 31234.4651 -5.3916 52.5735
ENERGY: 1200000 0.5694 5.1808 1.2752 0.0000 -10982.8658 1520.0649 0.0000 0.0000 1698.3781 -7757.3974 284.9826 -9455.7756 -7626.0227 298.5337 100.3208 211.3280 30769.0763 -80.0104 -20.3750
ENERGY: 1500000 2.0919 4.4884 0.6380 0.0000 -10711.6841 1393.1270 0.0000 0.0000 1732.9469 -7578.3918 290.7831 -9311.3387 -7619.7821 297.9267 -301.8200 -230.4010 31033.6442 -67.8682 -10.6007
TCL: Running FEP window   2: Lambda1 0.95   Lambda2 0.8999999999999999 [dLambda -0.050000000000000044]
TCL: Setting parameter firsttimestep to 0
TCL: Setting parameter alchLambda to 0.95
Info: NONBONDED TABLE R-SQUARED SPACING: 0.0625
Info: NONBONDED TABLE SIZE: 705 POINTS
TCL: Setting parameter alchLambda2 to 0.8999999999999999
Info: NONBONDED TABLE R-SQUARED SPACING: 0.0625
Info: NONBONDED TABLE SIZE: 705 POINTS
TCL: Running for 1500000 steps
ETITLE: TS BOND ANGLE DIHED IMPRP ELECT VDW BOUNDARY MISC KINETIC TOTAL TEMP POTENTIAL TOTALAVG TEMPAVG PRESSURE GPRESSURE VOLUME PRESSAVG GPRESSAVG
ENERGY: 0 2.0919 4.4884 0.6380 0.0000 -10710.1193 1391.8031 0.0000 0.0000 1732.0159 -7579.0820 290.6269 -9311.0979 -7579.0820 290.6269 -336.1557 -251.1913 31033.6442 -336.1557 -251.1913
ENERGY: 300000 0.1400 4.1466 0.8791 0.0000 -10801.3787 1426.8605 0.0000 0.0000 1819.1677 -7550.1848 305.2507 -9369.3525 -7584.3291 298.0725 -183.2194 -122.2857 30886.4317 -89.8674 -23.4570
ENERGY: 600000 1.0868 8.9933 2.3250 0.0000 -10937.1122 1463.2916 0.0000 0.0000 1882.1447 -7579.2709 315.8180 -9461.4156 -7604.0277 300.9530 93.0503 159.8925 30479.1767 -4.7622 53.5591
ENERGY: 900000 1.8192 6.0283 1.0251 0.0000 -10746.8088 1393.8982 0.0000 0.0000 1793.5660 -7550.4721 300.9548 -9344.0381 -7602.5642 300.8282 -565.3504 -502.4658 31296.5866 25.4413 75.7831
ENERGY: 1200000 1.6533 5.5517 1.3797 0.0000 -10800.9826 1364.7013 0.0000 0.0000 1777.3082 -7650.3883 298.2268 -9427.6965 -7609.4172 300.3154 -609.1507 -590.2766 30436.3035 -61.7445 -13.3122
ENERGY: 1500000 0.6734 6.3791 2.8114 0.0000 -10931.3689 1504.2769 0.0000 0.0000 1832.0746 -7585.1535 307.4164 -9417.2281 -7607.9404 301.1521 304.9804 342.3094 30659.8904 5.1209 50.0355
TCL: Running FEP window   3: Lambda1 0.8999999999999999 Lambda2 0.8499999999999999 [dLambda -0.050000000000000044]
TCL: Setting parameter firsttimestep to 0
TCL: Setting parameter alchLambda to 0.8999999999999999
Info: NONBONDED TABLE R-SQUARED SPACING: 0.0625
Info: NONBONDED TABLE SIZE: 705 POINTS
TCL: Setting parameter alchLambda2 to 0.8499999999999999
Info: NONBONDED TABLE R-SQUARED SPACING: 0.0625
Info: NONBONDED TABLE SIZE: 705 POINTS
TCL: Running for 1500000 steps
ETITLE: TS BOND ANGLE DIHED IMPRP ELECT VDW BOUNDARY MISC KINETIC TOTAL TEMP POTENTIAL TOTALAVG TEMPAVG PRESSURE GPRESSURE VOLUME PRESSAVG GPRESSAVG
ENERGY: 0 0.6734 6.3791 2.8114 0.0000 -10930.1313 1504.6579 0.0000 0.0000 1831.2492 -7584.3604 307.2779 -9415.6096 -7584.3604 307.2779 275.2685 342.7649 30659.8904 275.2685 342.7649
ENERGY: 300000 0.9115 9.2362 2.2483 0.0000 -10854.2755 1506.4672 0.0000 0.0000 1783.8443 -7551.5679 299.3235 -9335.4122 -7606.4544 300.4149 492.8277 607.3679 30788.1280 -1.3639 66.0501
ENERGY: 600000 1.9118 3.8977 1.0654 0.0000 -10951.8875 1499.2191 0.0000 0.0000 1776.0227 -7669.7708 298.0111 -9445.7935 -7619.1374 298.9314 -136.8700 -36.9406 31203.3310 -37.5932 25.8239
ENERGY: 900000 0.4310 7.5143 1.2539 0.0000 -10905.3681 1502.5527 0.0000 0.0000 1783.0025 -7610.6137 299.1823 -9393.6163 -7614.5870 298.6282 360.7166 406.0742 30824.0654 53.7737 107.9390
ENERGY: 1200000 1.0926 5.9660 1.7459 0.0000 -10861.7049 1454.0657 0.0000 0.0000 1777.6059 -7621.2287 298.2768 -9398.8346 -7616.4347 299.3528 99.0009 168.5177 30568.8678 24.2703 78.7258
ENERGY: 1500000 2.9838 5.5350 1.7002 0.0000 -10842.5234 1405.8892 0.0000 0.0000 1730.6604 -7695.7548 290.3994 -9426.4152 -7619.3971 298.7850 -872.8743 -813.9450 31732.0641 -57.2419 -7.8626
TCL: Running FEP window   4: Lambda1 0.8499999999999999 Lambda2 0.7999999999999998 [dLambda -0.050000000000000044]
TCL: Setting parameter firsttimestep to 0
TCL: Setting parameter alchLambda to 0.8499999999999999
Info: NONBONDED TABLE R-SQUARED SPACING: 0.0625
Info: NONBONDED TABLE SIZE: 705 POINTS
TCL: Setting parameter alchLambda2 to 0.7999999999999998
Info: NONBONDED TABLE R-SQUARED SPACING: 0.0625
Info: NONBONDED TABLE SIZE: 705 POINTS
TCL: Running for 1500000 steps
ETITLE: TS BOND ANGLE DIHED IMPRP ELECT VDW BOUNDARY MISC KINETIC TOTAL TEMP POTENTIAL TOTALAVG TEMPAVG PRESSURE GPRESSURE VOLUME PRESSAVG GPRESSAVG
ENERGY: 0 2.9838 5.5350 1.7002 0.0000 -10841.4647 1405.7326 0.0000 0.0000 1729.7714 -7695.7416 290.2503 -9425.5130 -7695.7416 290.2503 -887.2677 -821.5497 31732.0641 -887.2677 -821.5497
ENERGY: 300000 0.0944 5.1474 0.6194 0.0000 -10751.7633 1392.1221 0.0000 0.0000 1803.9571 -7549.8229 302.6984 -9353.7799 -7616.4372 296.1919 -625.6614 -637.9585 31646.3131 -425.4555 -388.8864
ENERGY: 600000 1.8527 5.8061 2.5152 0.0000 -10737.1538 1374.0184 0.0000 0.0000 1750.5487 -7602.4127 293.7366 -9352.9614 -7613.3532 298.4886 -749.5155 -674.2133 31269.8685 -307.0432 -258.0167
ENERGY: 900000 0.2621 4.0836 3.6483 0.0000 -10838.8366 1457.7932 0.0000 0.0000 1771.4990 -7601.5504 297.2520 -9373.0494 -7604.8337 299.7256 76.7959 54.4861 30584.0656 -353.4659 -305.7760
ENERGY: 1200000 0.9634 7.1169 1.9697 0.0000 -10739.8582 1367.1950 0.0000 0.0000 1785.5500 -7577.0633 299.6097 -9362.6132 -7615.8626 298.9929 -814.8006 -748.4247 31265.9303 -253.6592 -203.3058
ENERGY: 1500000 1.1345 6.2668 1.9143 0.0000 -10801.1648 1376.0784 0.0000 0.0000 1821.4941 -7594.2767 305.6411 -9415.7708 -7623.4627 299.1573 -990.8928 -904.8926 31196.7393 -310.8389 -260.1904
TCL: Running FEP window   5: Lambda1 0.7999999999999998 Lambda2 0.7499999999999998 [dLambda -0.050000000000000044]
TCL: Setting parameter firsttimestep to 0
TCL: Setting parameter alchLambda to 0.7999999999999998
Info: NONBONDED TABLE R-SQUARED SPACING: 0.0625
Info: NONBONDED TABLE SIZE: 705 POINTS
TCL: Setting parameter alchLambda2 to 0.7499999999999998
Info: NONBONDED TABLE R-SQUARED SPACING: 0.0625
Info: NONBONDED TABLE SIZE: 705 POINTS
TCL: Running for 1500000 steps
ETITLE: TS BOND ANGLE DIHED IMPRP ELECT VDW BOUNDARY MISC KINETIC TOTAL TEMP POTENTIAL TOTALAVG TEMPAVG PRESSURE GPRESSURE VOLUME PRESSAVG GPRESSAVG
ENERGY: 0 1.1345 6.2668 1.9143 0.0000 -10799.9392 1376.2363 0.0000 0.0000 1820.5891 -7593.7982 305.4892 -9414.3874 -7593.7982 305.4892 -989.9697 -908.2982 31196.7393 -989.9697 -908.2982
ENERGY: 300000 0.2898 4.7222 2.5713 0.0000 -10974.1281 1554.3375 0.0000 0.0000 1791.7104 -7620.4969 300.6434 -9412.2073 -7615.1919 301.3684 687.1976 690.2325 30847.9097 -317.2075 -294.3047
ENERGY: 600000 0.3112 4.7011 3.3425 0.0000 -10864.2299 1464.2614 0.0000 0.0000 1775.2652 -7616.3486 297.8840 -9391.6138 -7609.8167 301.0382 83.2384 189.0822 30477.5370 -89.8191 -48.8048
ENERGY: 900000 0.6976 4.6297 1.9837 0.0000 -10696.2636 1388.3625 0.0000 0.0000 1756.2675 -7544.3226 294.6962 -9300.5901 -7601.1259 300.5663 -415.1032 -348.3602 31291.8165 -71.6576 -20.6021
ENERGY: 1200000 2.8547 5.1879 1.9271 0.0000 -11039.0607 1598.8687 0.0000 0.0000 1779.5673 -7650.6551 298.6059 -9430.2224 -7613.9396 299.5602 1093.5511 1093.9140 30533.7327 97.7275 151.4759
ENERGY: 1500000 0.1418 5.7973 1.1758 0.0000 -10949.0161 1477.4740 0.0000 0.0000 1757.2077 -7707.2196 294.8540 -9464.4272 -7623.1011 298.4777 -22.1730 97.5752 30520.5053 33.4197 95.9507
TCL: Running FEP window   6: Lambda1 0.7499999999999998 Lambda2 0.6999999999999997 [dLambda -0.050000000000000044]
TCL: Setting parameter firsttimestep to 0
TCL: Setting parameter alchLambda to 0.7499999999999998
Info: NONBONDED TABLE R-SQUARED SPACING: 0.0625
Info: NONBONDED TABLE SIZE: 705 POINTS
TCL: Setting parameter alchLambda2 to 0.6999999999999997
Info: NONBONDED TABLE R-SQUARED SPACING: 0.0625
Info: NONBONDED TABLE SIZE: 705 POINTS
TCL: Running for 1500000 steps
ETITLE: TS BOND ANGLE DIHED IMPRP ELECT VDW BOUNDARY MISC KINETIC TOTAL TEMP POTENTIAL TOTALAVG TEMPAVG PRESSURE GPRESSURE VOLUME PRESSAVG GPRESSAVG
ENERGY: 0 0.1418 5.7973 1.1758 0.0000 -10948.3260 1478.0045 0.0000 0.0000 1756.3116 -7706.8950 294.7036 -9463.2066 -7706.8950 294.7036 5.6879 98.1390 30520.5053 5.6879 98.1390
ENERGY: 300000 0.4073 6.3777 1.1992 0.0000 -10903.4470 1437.6472 0.0000 0.0000 1763.4657 -7694.3499 295.9041 -9457.8156 -7644.8846 297.7108 -238.0992 -167.2932 30742.1867 56.1825 135.1723
ENERGY: 600000 2.1643 4.1764 2.2387 0.0000 -10923.0875 1441.4749 0.0000 0.0000 1790.5596 -7682.4737 300.4504 -9473.0333 -7656.7226 297.1293 -204.5382 -245.3620 30774.0878 -154.8582 -98.3237
ENERGY: 900000 0.2773 4.4547 1.2441 0.0000 -10731.0601 1419.1150 0.0000 0.0000 1785.5303 -7520.4387 299.6064 -9305.9689 -7629.0900 298.3692 -244.4152 -111.6310 31056.2864 -151.5963 -93.6912
ENERGY: 1200000 1.6182 8.2330 3.5086 0.0000 -10895.8081 1448.2523 0.0000 0.0000 1799.2667 -7634.9294 301.9114 -9434.1960 -7626.8519 299.1058 -67.2743 -59.7290 30701.9120 -141.5510 -80.9410
ENERGY: 1500000 0.8910 2.7317 1.0362 0.0000 -10770.6389 1417.0795 0.0000 0.0000 1749.0417 -7599.8588 293.4838 -9348.9005 -7626.5529 299.2373 -328.1670 -226.4889 30782.2852 -147.6542 -87.6310
TCL: Running FEP window   7: Lambda1 0.6999999999999997 Lambda2 0.6499999999999997 [dLambda -0.050000000000000044]
TCL: Setting parameter firsttimestep to 0
TCL: Setting parameter alchLambda to 0.6999999999999997
Info: NONBONDED TABLE R-SQUARED SPACING: 0.0625
Info: NONBONDED TABLE SIZE: 705 POINTS
TCL: Setting parameter alchLambda2 to 0.6499999999999997
Info: NONBONDED TABLE R-SQUARED SPACING: 0.0625
Info: NONBONDED TABLE SIZE: 705 POINTS
TCL: Running for 1500000 steps
ETITLE: TS BOND ANGLE DIHED IMPRP ELECT VDW BOUNDARY MISC KINETIC TOTAL TEMP POTENTIAL TOTALAVG TEMPAVG PRESSURE GPRESSURE VOLUME PRESSAVG GPRESSAVG
ENERGY: 0 0.8910 2.7317 1.0362 0.0000 -10768.6938 1415.9411 0.0000 0.0000 1748.1866 -7599.9072 293.3403 -9348.0938 -7599.9072 293.3403 -318.6827 -233.4411 30782.2852 -318.6827 -233.4411
ENERGY: 300000 0.3706 6.8394 2.7597 0.0000 -10914.5868 1513.4099 0.0000 0.0000 1822.7849 -7568.4221 305.8577 -9391.2071 -7582.1768 299.8263 322.8686 379.7392 30861.3503 -3.2272 79.2780
ENERGY: 600000 0.6318 4.7066 1.3944 0.0000 -10906.4948 1540.0563 0.0000 0.0000 1840.5374 -7519.1683 308.8365 -9359.7057 -7601.0784 300.7850 462.3186 506.3600 31426.1186 -58.6831 13.4199
ENERGY: 900000 0.5266 4.8034 1.3857 0.0000 -10930.0207 1512.5186 0.0000 0.0000 1761.4711 -7649.3152 295.5694 -9410.7863 -7614.9289 298.9172 709.4181 715.0616 30285.5984 73.5932 131.6254
ENERGY: 1200000 0.3126 7.3421 1.2193 0.0000 -10888.3678 1457.4319 0.0000 0.0000 1844.7800 -7577.2820 309.5483 -9422.0619 -7617.3566 300.4053 -56.6287 -26.4659 30822.2138 71.0887 132.4603
ENERGY: 1500000 0.2248 6.8495 1.6593 0.0000 -10766.0835 1376.8946 0.0000 0.0000 1812.3101 -7568.1451 304.1000 -9380.4553 -7617.2375 300.3768 -600.6063 -527.5396 31137.2130 35.4634 99.3386
TCL: Running FEP window   8: Lambda1 0.6499999999999997 Lambda2 0.5999999999999996 [dLambda -0.050000000000000044]
TCL: Setting parameter firsttimestep to 0
TCL: Setting parameter alchLambda to 0.6499999999999997
Info: NONBONDED TABLE R-SQUARED SPACING: 0.0625
Info: NONBONDED TABLE SIZE: 705 POINTS
TCL: Setting parameter alchLambda2 to 0.5999999999999996
Info: NONBONDED TABLE R-SQUARED SPACING: 0.0625
Info: NONBONDED TABLE SIZE: 705 POINTS
TCL: Running for 1500000 steps
ETITLE: TS BOND ANGLE DIHED IMPRP ELECT VDW BOUNDARY MISC KINETIC TOTAL TEMP POTENTIAL TOTALAVG TEMPAVG PRESSURE GPRESSURE VOLUME PRESSAVG GPRESSAVG
ENERGY: 0 0.2248 6.8495 1.6593 0.0000 -10764.8284 1376.8772 0.0000 0.0000 1811.3886 -7567.8290 303.9454 -9379.2176 -7567.8290 303.9454 -610.5691 -529.8451 31137.2130 -610.5691 -529.8451
ENERGY: 300000 2.4087 4.7292 3.2454 0.0000 -10845.6727 1468.6020 0.0000 0.0000 1766.1018 -7600.5856 296.3464 -9366.6874 -7611.8973 301.0391 113.1621 195.5275 30721.2942 223.3242 292.4455
ENERGY: 600000 1.8955 2.8905 2.2550 0.0000 -11031.9197 1516.0614 0.0000 0.0000 1819.0964 -7689.7208 305.2387 -9508.8173 -7633.3205 299.0011 -42.5071 64.1211 30883.1313 268.9809 351.2463
ENERGY: 900000 2.2836 6.6657 2.0437 0.0000 -10917.3525 1459.4236 0.0000 0.0000 1808.9177 -7638.0181 303.5308 -9446.9358 -7618.0576 300.2413 -30.0527 72.3272 30507.6047 224.2879 306.2337
ENERGY: 1200000 1.1281 3.8487 2.7287 0.0000 -10930.0363 1480.3635 0.0000 0.0000 1775.6572 -7666.3101 297.9498 -9441.9673 -7614.3160 299.9156 -12.3880 61.5390 30641.4292 93.5289 169.9179
ENERGY: 1500000 0.6217 3.4268 2.5285 0.0000 -10879.2598 1506.0883 0.0000 0.0000 1814.6600 -7551.9345 304.4943 -9366.5945 -7613.4790 299.9327 548.1415 594.4100 30637.7372 90.4846 167.3047
TCL: Running FEP window   9: Lambda1 0.5999999999999996 Lambda2 0.5499999999999996 [dLambda -0.050000000000000044]
TCL: Setting parameter firsttimestep to 0
TCL: Setting parameter alchLambda to 0.5999999999999996
Info: NONBONDED TABLE R-SQUARED SPACING: 0.0625
Info: NONBONDED TABLE SIZE: 705 POINTS
TCL: Setting parameter alchLambda2 to 0.5499999999999996
Info: NONBONDED TABLE R-SQUARED SPACING: 0.0625
Info: NONBONDED TABLE SIZE: 705 POINTS
TCL: Running for 1500000 steps
ETITLE: TS BOND ANGLE DIHED IMPRP ELECT VDW BOUNDARY MISC KINETIC TOTAL TEMP POTENTIAL TOTALAVG TEMPAVG PRESSURE GPRESSURE VOLUME PRESSAVG GPRESSAVG
ENERGY: 0 0.6217 3.4268 2.5285 0.0000 -10877.8805 1505.8656 0.0000 0.0000 1813.7784 -7551.6594 304.3464 -9365.4378 -7551.6594 304.3464 506.1315 588.7638 30637.7372 506.1315 588.7638
ENERGY: 300000 0.9549 2.5657 0.7869 0.0000 -10890.5844 1467.6612 0.0000 0.0000 1761.4274 -7657.1884 295.5620 -9418.6157 -7577.0936 301.3491 -71.9518 -39.0900 30694.9491 51.7731 92.0969
ENERGY: 600000 0.2917 4.1959 1.5300 0.0000 -10805.0255 1376.3324 0.0000 0.0000 1773.1647 -7649.5107 297.5315 -9422.6755 -7574.7700 301.6247 -630.3775 -633.6517 30856.7704 26.5851 63.4155
ENERGY: 900000 2.2228 5.7404 1.0767 0.0000 -10741.0614 1432.4692 0.0000 0.0000 1844.5385 -7455.0138 309.5078 -9299.5522 -7576.0492 301.6643 23.9444 22.2269 31199.3842 -28.2492 13.4871
ENERGY: 1200000 0.7347 6.9382 1.2665 0.0000 -10927.9412 1425.5051 0.0000 0.0000 1818.7297 -7674.7670 305.1772 -9493.4967 -7582.1240 301.8318 -827.7246 -719.4073 31005.7645 -143.3088 -98.2960
ENERGY: 1500000 2.1899 8.0893 2.6923 0.0000 -10970.7495 1518.5370 0.0000 0.0000 1847.1592 -7592.0817 309.9476 -9439.2410 -7589.2294 302.1720 600.0175 651.3590 30333.7762 -97.7958 -45.1960
TCL: Running FEP window  10: Lambda1 0.5499999999999996 Lambda2 0.4999999999999996 [dLambda -0.04999999999999999]
TCL: Setting parameter firsttimestep to 0
TCL: Setting parameter alchLambda to 0.5499999999999996
Info: NONBONDED TABLE R-SQUARED SPACING: 0.0625
Info: NONBONDED TABLE SIZE: 705 POINTS
TCL: Setting parameter alchLambda2 to 0.4999999999999996
Info: NONBONDED TABLE R-SQUARED SPACING: 0.0625
Info: NONBONDED TABLE SIZE: 705 POINTS
TCL: Running for 1500000 steps
ETITLE: TS BOND ANGLE DIHED IMPRP ELECT VDW BOUNDARY MISC KINETIC TOTAL TEMP POTENTIAL TOTALAVG TEMPAVG PRESSURE GPRESSURE VOLUME PRESSAVG GPRESSAVG
ENERGY: 0 2.1899 8.0893 2.6923 0.0000 -10970.1119 1518.8783 0.0000 0.0000 1846.2732 -7591.9889 309.7989 -9438.2621 -7591.9889 309.7989 558.5265 649.8069 30333.7762 558.5265 649.8069
ENERGY: 300000 1.1532 5.8754 0.7980 0.0000 -10901.0787 1416.2639 0.0000 0.0000 1783.8147 -7693.1735 299.3186 -9476.9882 -7612.9385 303.0344 -549.3652 -473.4991 30520.2355 19.5460 96.9833
ENERGY: 600000 2.0532 3.4471 0.8074 0.0000 -10985.1080 1544.4395 0.0000 0.0000 1766.2704 -7668.0905 296.3747 -9434.3608 -7623.3667 301.5648 591.3571 691.5068 30504.2054 28.2065 92.3937
ENERGY: 900000 0.4100 7.0205 2.0312 0.0000 -10899.8247 1480.9122 0.0000 0.0000 1763.1615 -7646.2892 295.8530 -9409.4508 -7632.3096 301.1819 63.2836 15.7555 31251.2209 42.7051 94.1203
ENERGY: 1200000 0.0904 5.0839 1.8668 0.0000 -11033.2746 1618.2171 0.0000 0.0000 1777.3461 -7630.6703 298.2332 -9408.0164 -7616.6864 301.5143 1091.3398 1210.4338 30792.7262 122.4721 181.2278
ENERGY: 1500000 1.0446 4.5119 1.0662 0.0000 -10940.5456 1487.5141 0.0000 0.0000 1791.5453 -7654.8634 300.6157 -9446.4087 -7623.1714 301.0262 244.1048 313.6512 30594.0637 24.5825 79.5357
TCL: Running FEP window  11: Lambda1 0.4999999999999996 Lambda2 0.4499999999999996 [dLambda -0.04999999999999999]
TCL: Setting parameter firsttimestep to 0
TCL: Setting parameter alchLambda to 0.4999999999999996
Info: NONBONDED TABLE R-SQUARED SPACING: 0.0625
Info: NONBONDED TABLE SIZE: 705 POINTS
TCL: Setting parameter alchLambda2 to 0.4499999999999996
Info: NONBONDED TABLE R-SQUARED SPACING: 0.0625
Info: NONBONDED TABLE SIZE: 705 POINTS
TCL: Running for 1500000 steps
ETITLE: TS BOND ANGLE DIHED IMPRP ELECT VDW BOUNDARY MISC KINETIC TOTAL TEMP POTENTIAL TOTALAVG TEMPAVG PRESSURE GPRESSURE VOLUME PRESSAVG GPRESSAVG
ENERGY: 0 1.0446 4.5119 1.0662 0.0000 -10939.6507 1487.4537 0.0000 0.0000 1790.6762 -7654.8981 300.4699 -9445.5743 -7654.8981 300.4699 216.8803 309.1717 30594.0637 216.8803 309.1717
ENERGY: 300000 0.1455 8.1050 1.7767 0.0000 -10881.0762 1421.5525 0.0000 0.0000 1789.6709 -7659.8255 300.3012 -9449.4964 -7670.7745 297.1330 -707.4134 -621.4935 31257.8227 -262.1280 -194.3859
ENERGY: 600000 1.0051 4.8107 0.6006 0.0000 -10773.4152 1421.0615 0.0000 0.0000 1761.3689 -7584.5683 295.5522 -9345.9373 -7642.4345 296.6500 -37.7582 -11.7629 30687.4733 -71.4993 -15.0329
ENERGY: 900000 0.3450 3.4845 0.7347 0.0000 -10924.6008 1508.8724 0.0000 0.0000 1813.8194 -7597.3447 304.3533 -9411.1642 -7610.3704 299.3987 348.8346 415.7426 30741.4703 13.8913 69.8319
ENERGY: 1200000 0.3587 4.9089 1.3427 0.0000 -10804.0719 1451.2052 0.0000 0.0000 1767.9082 -7578.3482 296.6495 -9346.2563 -7605.8672 299.2779 -78.4095 9.7920 31049.6182 2.6577 61.7827
ENERGY: 1500000 0.7669 5.4461 2.4310 0.0000 -10770.6060 1405.1975 0.0000 0.0000 1770.0014 -7586.7631 297.0007 -9356.7645 -7611.3784 298.7561 -627.5084 -615.7480 31188.3907 -42.9646 11.6825
TCL: Running FEP window  12: Lambda1 0.4499999999999996 Lambda2 0.39999999999999963 [dLambda -0.04999999999999999]
TCL: Setting parameter firsttimestep to 0
TCL: Setting parameter alchLambda to 0.4499999999999996
Info: NONBONDED TABLE R-SQUARED SPACING: 0.0625
Info: NONBONDED TABLE SIZE: 705 POINTS
TCL: Setting parameter alchLambda2 to 0.39999999999999963
Info: NONBONDED TABLE R-SQUARED SPACING: 0.0625
Info: NONBONDED TABLE SIZE: 705 POINTS
TCL: Running for 1500000 steps
ETITLE: TS BOND ANGLE DIHED IMPRP ELECT VDW BOUNDARY MISC KINETIC TOTAL TEMP POTENTIAL TOTALAVG TEMPAVG PRESSURE GPRESSURE VOLUME PRESSAVG GPRESSAVG
ENERGY: 0 0.7669 5.4461 2.4310 0.0000 -10770.6032 1405.1732 0.0000 0.0000 1769.1312 -7587.6549 296.8547 -9356.7860 -7587.6549 296.8547 -700.4615 -619.2647 31188.3907 -700.4615 -619.2647
ENERGY: 300000 0.7457 3.9614 1.1089 0.0000 -11027.3276 1535.7508 0.0000 0.0000 1848.3337 -7637.4271 310.1447 -9485.7608 -7587.2476 304.2576 303.9575 423.3256 30631.9061 -140.8724 -65.4223
ENERGY: 600000 0.2256 5.0092 1.4141 0.0000 -10864.0775 1431.4043 0.0000 0.0000 1808.5852 -7617.4391 303.4750 -9426.0243 -7583.1080 303.8287 -194.8369 -170.8673 30655.2517 10.6644 61.8272
ENERGY: 900000 0.0179 4.0884 1.6976 0.0000 -10806.6590 1393.4269 0.0000 0.0000 1774.0430 -7633.3852 297.6789 -9407.4282 -7592.2861 302.3609 -597.0815 -506.9712 30836.8868 126.9756 179.4309
ENERGY: 1200000 0.1244 4.5482 1.2599 0.0000 -10713.9163 1394.4980 0.0000 0.0000 1786.2577 -7527.2280 299.7285 -9313.4857 -7597.5853 300.6372 -524.4431 -456.3196 31330.5222 2.4243 55.2912
ENERGY: 1500000 0.6982 7.8316 1.0634 0.0000 -10737.4777 1370.8833 0.0000 0.0000 1792.4073 -7564.5939 300.7604 -9357.0012 -7602.0254 300.1113 -619.4568 -530.9283 30937.6282 -44.2596 9.3519
TCL: Running FEP window  13: Lambda1 0.39999999999999963 Lambda2 0.34999999999999964 [dLambda -0.04999999999999999]
TCL: Setting parameter firsttimestep to 0
TCL: Setting parameter alchLambda to 0.39999999999999963
Info: NONBONDED TABLE R-SQUARED SPACING: 0.0625
Info: NONBONDED TABLE SIZE: 705 POINTS
TCL: Setting parameter alchLambda2 to 0.34999999999999964
Info: NONBONDED TABLE R-SQUARED SPACING: 0.0625
Info: NONBONDED TABLE SIZE: 705 POINTS
TCL: Running for 1500000 steps
ETITLE: TS BOND ANGLE DIHED IMPRP ELECT VDW BOUNDARY MISC KINETIC TOTAL TEMP POTENTIAL TOTALAVG TEMPAVG PRESSURE GPRESSURE VOLUME PRESSAVG GPRESSAVG
ENERGY: 0 0.6982 7.8316 1.0634 0.0000 -10737.4768 1371.1923 0.0000 0.0000 1791.5217 -7565.1695 300.6118 -9356.6912 -7565.1695 300.6118 -627.9521 -533.2781 30937.6282 -627.9521 -533.2781
ENERGY: 300000 0.3957 4.8406 0.7396 0.0000 -10852.4222 1451.4969 0.0000 0.0000 1805.9991 -7588.9503 303.0410 -9394.9494 -7573.2583 301.4734 397.0038 450.4528 30088.9376 -119.2767 -56.7306
ENERGY: 600000 0.9349 3.5982 2.1667 0.0000 -10832.0019 1427.3047 0.0000 0.0000 1788.4198 -7609.5775 300.0913 -9397.9974 -7568.3684 302.7379 -290.4374 -219.9183 30967.6617 -44.1769 30.9009
ENERGY: 900000 0.1965 5.2379 1.2217 0.0000 -10921.6291 1465.9415 0.0000 0.0000 1778.8313 -7670.2002 298.4824 -9449.0315 -7591.9247 300.7641 -181.0624 -117.9520 30868.3827 -80.4204 -3.3479
ENERGY: 1200000 0.9355 3.3993 1.6459 0.0000 -10885.7044 1472.0388 0.0000 0.0000 1775.0789 -7632.6058 297.8527 -9407.6848 -7602.2297 300.1090 -1.9723 82.0303 30713.3092 -13.8240 66.8108
ENERGY: 1500000 0.2424 7.1620 1.2688 0.0000 -10837.3627 1422.3712 0.0000 0.0000 1759.6682 -7646.6500 295.2669 -9406.3182 -7601.3058 299.9792 -598.3213 -469.1691 31089.7030 42.2559 121.6753
TCL: Running FEP window  14: Lambda1 0.34999999999999964 Lambda2 0.29999999999999966 [dLambda -0.04999999999999999]
TCL: Setting parameter firsttimestep to 0
TCL: Setting parameter alchLambda to 0.34999999999999964
Info: NONBONDED TABLE R-SQUARED SPACING: 0.0625
Info: NONBONDED TABLE SIZE: 705 POINTS
TCL: Setting parameter alchLambda2 to 0.29999999999999966
Info: NONBONDED TABLE R-SQUARED SPACING: 0.0625
Info: NONBONDED TABLE SIZE: 705 POINTS
TCL: Running for 1500000 steps
ETITLE: TS BOND ANGLE DIHED IMPRP ELECT VDW BOUNDARY MISC KINETIC TOTAL TEMP POTENTIAL TOTALAVG TEMPAVG PRESSURE GPRESSURE VOLUME PRESSAVG GPRESSAVG
ENERGY: 0 0.2424 7.1620 1.2688 0.0000 -10837.3633 1421.0147 0.0000 0.0000 1758.7698 -7648.9055 295.1161 -9407.6753 -7648.9055 295.1161 -564.7623 -483.1399 31089.7030 -564.7623 -483.1399
ENERGY: 300000 0.4162 7.3268 1.5239 0.0000 -10836.6062 1435.0455 0.0000 0.0000 1771.7103 -7620.5835 297.2875 -9392.2938 -7621.7272 300.1678 -348.0383 -305.4049 30780.9183 186.5971 267.9906
ENERGY: 600000 0.6554 4.5545 1.2854 0.0000 -10997.0452 1537.3271 0.0000 0.0000 1740.9725 -7712.2504 292.1298 -9453.2229 -7615.8561 300.0685 840.8333 830.1167 30293.7781 246.3107 304.8711
ENERGY: 900000 0.6607 3.0236 1.0993 0.0000 -10914.8408 1489.9440 0.0000 0.0000 1822.0063 -7598.1069 305.7270 -9420.1132 -7615.0391 299.7110 89.8614 84.8750 30776.4578 280.0517 327.2158
ENERGY: 1200000 0.2817 3.4144 1.6439 0.0000 -10871.8742 1491.4200 0.0000 0.0000 1786.2592 -7588.8550 299.7287 -9375.1142 -7607.9574 299.8050 28.0458 128.6683 31134.4783 128.3013 183.2539
ENERGY: 1500000 0.3212 4.1975 1.2739 0.0000 -10869.6814 1420.1831 0.0000 0.0000 1825.2918 -7618.4137 306.2783 -9443.7056 -7611.1467 300.5591 -411.8662 -388.4556 31058.0464 127.5399 186.3686
TCL: Running FEP window  15: Lambda1 0.29999999999999966 Lambda2 0.24999999999999967 [dLambda -0.04999999999999999]
TCL: Setting parameter firsttimestep to 0
TCL: Setting parameter alchLambda to 0.29999999999999966
Info: NONBONDED TABLE R-SQUARED SPACING: 0.0625
Info: NONBONDED TABLE SIZE: 705 POINTS
TCL: Setting parameter alchLambda2 to 0.24999999999999967
Info: NONBONDED TABLE R-SQUARED SPACING: 0.0625
Info: NONBONDED TABLE SIZE: 705 POINTS
TCL: Running for 1500000 steps
ETITLE: TS BOND ANGLE DIHED IMPRP ELECT VDW BOUNDARY MISC KINETIC TOTAL TEMP POTENTIAL TOTALAVG TEMPAVG PRESSURE GPRESSURE VOLUME PRESSAVG GPRESSAVG
ENERGY: 0 0.3212 4.1975 1.2739 0.0000 -10869.6816 1420.5633 0.0000 0.0000 1824.4146 -7618.9110 306.1311 -9443.3256 -7618.9110 306.1311 -479.1459 -388.1485 31058.0464 -479.1459 -388.1485
ENERGY: 300000 1.3122 4.0618 1.8123 0.0000 -10865.6580 1419.6390 0.0000 0.0000 1757.9459 -7680.8866 294.9779 -9438.8326 -7622.5740 301.7737 -517.6138 -459.9814 30972.1637 -257.3694 -190.2211
ENERGY: 600000 0.1689 6.4465 1.9772 0.0000 -10818.7563 1430.8908 0.0000 0.0000 1760.3031 -7618.9698 295.3734 -9379.2729 -7614.9593 300.1878 -307.7147 -335.4176 31136.5639 -188.1635 -120.3170
ENERGY: 900000 0.6292 6.3638 1.2019 0.0000 -10976.9275 1557.8836 0.0000 0.0000 1768.2984 -7642.5506 296.7150 -9410.8490 -7634.5387 298.8580 544.5714 574.1389 30891.9513 -37.9289 31.2191
ENERGY: 1200000 0.8186 4.6634 1.1367 0.0000 -10926.4618 1483.0559 0.0000 0.0000 1803.2879 -7633.4994 302.5861 -9436.7873 -7625.4498 300.2309 90.0372 144.5747 30556.9979 -14.1731 43.3971
ENERGY: 1500000 0.1662 7.4163 0.8334 0.0000 -10783.1621 1383.9071 0.0000 0.0000 1847.6946 -7543.1446 310.0374 -9390.8391 -7624.1754 300.1885 -479.3563 -409.2292 30760.3778 -58.0691 -1.8309
TCL: Running FEP window  16: Lambda1 0.24999999999999967 Lambda2 0.19999999999999968 [dLambda -0.04999999999999999]
TCL: Setting parameter firsttimestep to 0
TCL: Setting parameter alchLambda to 0.24999999999999967
Info: NONBONDED TABLE R-SQUARED SPACING: 0.0625
Info: NONBONDED TABLE SIZE: 705 POINTS
TCL: Setting parameter alchLambda2 to 0.19999999999999968
Info: NONBONDED TABLE R-SQUARED SPACING: 0.0625
Info: NONBONDED TABLE SIZE: 705 POINTS
TCL: Running for 1500000 steps
ETITLE: TS BOND ANGLE DIHED IMPRP ELECT VDW BOUNDARY MISC KINETIC TOTAL TEMP POTENTIAL TOTALAVG TEMPAVG PRESSURE GPRESSURE VOLUME PRESSAVG GPRESSAVG
ENERGY: 0 0.1662 7.4163 0.8334 0.0000 -10783.1631 1384.3245 0.0000 0.0000 1846.8126 -7543.6100 309.8894 -9390.4226 -7543.6100 309.8894 -502.0589 -409.9928 30760.3778 -502.0589 -409.9928
ENERGY: 300000 0.9090 5.1356 1.1653 0.0000 -10840.2868 1477.2537 0.0000 0.0000 1766.3901 -7589.4330 296.3948 -9355.8231 -7636.6325 298.1937 94.9588 162.1296 30990.5677 -94.2322 -3.7815
ENERGY: 600000 0.4267 4.1291 1.4407 0.0000 -10968.3439 1458.0561 0.0000 0.0000 1849.5514 -7654.7398 310.3490 -9504.2913 -7634.4056 299.5166 -258.8996 -197.7220 30724.2042 -35.8336 31.8358
ENERGY: 900000 0.6256 4.3290 0.8717 0.0000 -10924.4295 1470.5984 0.0000 0.0000 1799.4001 -7648.6046 301.9338 -9448.0047 -7640.4037 299.2867 -50.6426 1.6720 30720.9707 16.8402 86.8951
ENERGY: 1200000 0.1049 5.4762 1.5490 0.0000 -10938.0476 1522.3365 0.0000 0.0000 1728.7416 -7679.8394 290.0775 -9408.5811 -7647.4282 297.9777 552.5875 631.5499 30336.6485 20.4701 87.5999
ENERGY: 1500000 2.4610 6.2482 1.3318 0.0000 -10846.5014 1448.6128 0.0000 0.0000 1786.7098 -7601.1379 299.8044 -9387.8477 -7625.6013 299.2682 -69.8451 59.4020 30521.0175 -47.3107 21.3612
TCL: Running FEP window  17: Lambda1 0.19999999999999968 Lambda2 0.1499999999999997 [dLambda -0.04999999999999999]
TCL: Setting parameter firsttimestep to 0
TCL: Setting parameter alchLambda to 0.19999999999999968
Info: NONBONDED TABLE R-SQUARED SPACING: 0.0625
Info: NONBONDED TABLE SIZE: 705 POINTS
TCL: Setting parameter alchLambda2 to 0.1499999999999997
Info: NONBONDED TABLE R-SQUARED SPACING: 0.0625
Info: NONBONDED TABLE SIZE: 705 POINTS
TCL: Running for 1500000 steps
ETITLE: TS BOND ANGLE DIHED IMPRP ELECT VDW BOUNDARY MISC KINETIC TOTAL TEMP POTENTIAL TOTALAVG TEMPAVG PRESSURE GPRESSURE VOLUME PRESSAVG GPRESSAVG
ENERGY: 0 2.4610 6.2482 1.3318 0.0000 -10846.5019 1449.0076 0.0000 0.0000 1785.8603 -7601.5931 299.6618 -9387.4534 -7601.5931 299.6618 -35.9122 58.7909 30521.0175 -35.9122 58.7909
ENERGY: 300000 1.7943 7.7443 1.0718 0.0000 -10922.1922 1454.4220 0.0000 0.0000 1756.8003 -7700.3595 294.7856 -9457.1597 -7646.3028 299.2498 -403.9261 -329.3789 31003.2611 74.3222 151.6169
ENERGY: 600000 2.6576 4.5814 2.5829 0.0000 -10770.9615 1437.9039 0.0000 0.0000 1777.1690 -7546.0666 298.2034 -9323.2356 -7624.8533 301.0747 76.6114 169.8077 30520.8939 22.5915 114.0950
ENERGY: 900000 0.5403 2.7510 1.4571 0.0000 -10991.0891 1519.9321 0.0000 0.0000 1760.7555 -7705.6532 295.4493 -9466.4087 -7607.2276 300.3034 312.2268 260.3979 30616.6532 149.9839 211.0662
ENERGY: 1200000 0.7635 7.9355 1.7845 0.0000 -11007.6651 1585.1845 0.0000 0.0000 1801.9161 -7610.0809 302.3559 -9411.9971 -7606.4519 300.3218 1044.6065 1106.3130 30340.1970 163.9991 228.4359
ENERGY: 1500000 0.3227 2.9556 0.8697 0.0000 -10964.5787 1519.1111 0.0000 0.0000 1795.9666 -7645.3530 301.3576 -9441.3195 -7609.2654 300.1526 159.1432 234.0020 31031.9204 163.1987 230.4595
TCL: Running FEP window  18: Lambda1 0.1499999999999997 Lambda2 0.09999999999999969 [dLambda -0.05 ]
TCL: Setting parameter firsttimestep to 0
TCL: Setting parameter alchLambda to 0.1499999999999997
Info: NONBONDED TABLE R-SQUARED SPACING: 0.0625
Info: NONBONDED TABLE SIZE: 705 POINTS
TCL: Setting parameter alchLambda2 to 0.09999999999999969
Info: NONBONDED TABLE R-SQUARED SPACING: 0.0625
Info: NONBONDED TABLE SIZE: 705 POINTS
TCL: Running for 1500000 steps
ETITLE: TS BOND ANGLE DIHED IMPRP ELECT VDW BOUNDARY MISC KINETIC TOTAL TEMP POTENTIAL TOTALAVG TEMPAVG PRESSURE GPRESSURE VOLUME PRESSAVG GPRESSAVG
ENERGY: 0 0.3227 2.9556 0.8697 0.0000 -10964.5781 1519.3174 0.0000 0.0000 1795.0916 -7646.0210 301.2108 -9441.1126 -7646.0210 301.2108 144.9177 230.6031 31031.9204 144.9177 230.6031
ENERGY: 300000 1.7297 11.4826 2.3581 0.0000 -10887.7977 1460.1613 0.0000 0.0000 1795.8757 -7616.1903 301.3424 -9412.0660 -7639.2235 301.0951 -222.8965 -157.3803 30883.4465 146.9386 232.4668
ENERGY: 600000 0.4413 4.8247 1.4251 0.0000 -10813.8480 1442.9744 0.0000 0.0000 1758.0446 -7606.1379 294.9944 -9364.1825 -7619.8334 300.5049 -347.2255 -317.9233 31269.5085 0.9455 71.4388
ENERGY: 900000 0.3806 3.4557 1.3972 0.0000 -10918.0266 1526.9788 0.0000 0.0000 1873.5436 -7512.2708 314.3748 -9385.8144 -7617.9361 302.1528 606.3009 687.2104 30738.4381 -38.2335 32.4618
ENERGY: 1200000 1.0557 5.8430 1.4154 0.0000 -10930.0612 1480.1746 0.0000 0.0000 1768.2780 -7673.2946 296.7116 -9441.5726 -7625.8778 300.5331 -52.9385 24.8328 30840.5911 -138.2075 -67.8529
ENERGY: 1500000 1.3611 2.8709 1.0091 0.0000 -10769.9211 1432.8923 0.0000 0.0000 1763.0137 -7568.7739 295.8282 -9331.7877 -7620.3882 300.6768 -239.9015 -200.6737 31052.1015 -129.8138 -61.8828
TCL: Running FEP window  19: Lambda1 0.09999999999999969 Lambda2 0.049999999999999684 [dLambda -0.05 ]
TCL: Setting parameter firsttimestep to 0
TCL: Setting parameter alchLambda to 0.09999999999999969
Info: NONBONDED TABLE R-SQUARED SPACING: 0.0625
Info: NONBONDED TABLE SIZE: 705 POINTS
TCL: Setting parameter alchLambda2 to 0.049999999999999684
Info: NONBONDED TABLE R-SQUARED SPACING: 0.0625
Info: NONBONDED TABLE SIZE: 705 POINTS
TCL: Running for 1500000 steps
ETITLE: TS BOND ANGLE DIHED IMPRP ELECT VDW BOUNDARY MISC KINETIC TOTAL TEMP POTENTIAL TOTALAVG TEMPAVG PRESSURE GPRESSURE VOLUME PRESSAVG GPRESSAVG
ENERGY: 0 1.3611 2.8709 1.0091 0.0000 -10769.9219 1432.8610 0.0000 0.0000 1762.1350 -7569.6848 295.6808 -9331.8198 -7569.6848 295.6808 -270.7695 -204.1542 31052.1015 -270.7695 -204.1542
ENERGY: 300000 1.5916 4.0404 1.2410 0.0000 -10813.6000 1460.9056 0.0000 0.0000 1748.3075 -7597.5138 293.3606 -9345.8214 -7604.3159 297.3860 118.8414 114.6087 30911.2994 -52.0788 -5.4414
ENERGY: 600000 0.4040 6.0348 0.8580 0.0000 -10863.9872 1421.8244 0.0000 0.0000 1772.2150 -7662.6509 297.3722 -9434.8659 -7624.1166 297.7339 -459.3143 -439.3639 30639.8548 -158.8649 -117.7018
ENERGY: 900000 0.1800 2.7381 0.8588 0.0000 -10850.6234 1378.3863 0.0000 0.0000 1846.5107 -7621.9496 309.8388 -9468.4603 -7626.9945 298.6299 -639.0412 -609.8228 30346.5006 -128.2138 -84.3825
ENERGY: 1200000 2.3144 7.8094 1.3230 0.0000 -10956.2537 1511.1590 0.0000 0.0000 1821.8829 -7611.7651 305.7063 -9433.6479 -7623.7074 299.2130 42.6295 117.3142 30866.2470 -25.0123 18.9910
ENERGY: 1500000 0.4130 3.2392 1.2813 0.0000 -10848.9720 1402.8919 0.0000 0.0000 1773.4496 -7667.6970 297.5793 -9441.1467 -7627.8739 299.5902 -694.9783 -600.5973 30891.1954 -143.2762 -90.4891
TCL: Running FEP window  20: Lambda1 0.049999999999999684 Lambda2 0.0    [dLambda -0.049999999999999684]
TCL: Setting parameter firsttimestep to 0
TCL: Setting parameter alchLambda to 0.049999999999999684
Info: NONBONDED TABLE R-SQUARED SPACING: 0.0625
Info: NONBONDED TABLE SIZE: 705 POINTS
TCL: Setting parameter alchLambda2 to 0.0
Info: NONBONDED TABLE R-SQUARED SPACING: 0.0625
Info: NONBONDED TABLE SIZE: 705 POINTS
TCL: Running for 1500000 steps
ETITLE: TS BOND ANGLE DIHED IMPRP ELECT VDW BOUNDARY MISC KINETIC TOTAL TEMP POTENTIAL TOTALAVG TEMPAVG PRESSURE GPRESSURE VOLUME PRESSAVG GPRESSAVG
ENERGY: 0 0.4130 3.2392 1.2813 0.0000 -10848.9726 1402.4710 0.0000 0.0000 1772.5754 -7668.9928 297.4327 -9441.5682 -7668.9928 297.4327 -689.8677 -603.3209 30891.1954 -689.8677 -603.3209
ENERGY: 300000 2.0795 3.1967 2.5584 0.0000 -10963.1623 1522.7420 0.0000 0.0000 1844.7513 -7587.8344 309.5435 -9432.5857 -7636.8271 297.8609 397.4302 480.6796 30844.8991 42.8080 120.8794
ENERGY: 600000 0.3736 8.8435 1.8639 0.0000 -10960.2612 1537.5893 0.0000 0.0000 1772.7911 -7638.7999 297.4688 -9411.5910 -7642.9031 298.0471 303.4699 311.9791 31212.9135 -11.5163 51.8257
ENERGY: 900000 0.9015 8.4299 1.4257 0.0000 -10858.5990 1470.8182 0.0000 0.0000 1796.5523 -7580.4714 301.4559 -9377.0238 -7631.5832 298.3211 50.4017 151.3240 30807.9508 68.2035 140.9625
ENERGY: 1200000 0.3375 4.7150 0.8446 0.0000 -10835.8765 1430.4823 0.0000 0.0000 1804.6782 -7594.8190 302.8194 -9399.4972 -7623.9718 299.1996 -386.1128 -317.9946 30880.9706 -50.7883 23.8336
ENERGY: 1500000 0.5049 6.6478 2.3662 0.0000 -10936.7164 1533.2442 0.0000 0.0000 1760.3910 -7633.5623 295.3881 -9393.9533 -7630.7220 298.7223 431.5291 467.7480 30741.8393 25.8214 97.6738
TCL: Exiting due to exit command.
