Info: SIMULATION PARAMETERS:
Info: TIMESTEP               2
Info: NUMBER OF STEPS        0
Info: STEPS PER CYCLE        10
Info: PERIODIC CELL BASIS 1  29.2896 0 0
Info: PERIODIC CELL BASIS 2  0 30.3072 0
Info: PERIODIC CELL BASIS 3  0 0 34.768
Info: PERIODIC CELL CENTER   0 0 0
Info: WRAPPING WATERS AROUND PERIODIC BOUNDARIES ON OUTPUT.
Info: WRAPPING ALL CLUSTERS AROUND PERIODIC BOUNDARIES ON OUTPUT.
Info: FIRST LDB TIMESTEP     50
Info: LAST LDB TIMESTEP     -1
Info: HOM BACKGROUND SCALING 1
Info: PME BACKGROUND SCALING 1
Info: MIN ATOMS PER PATCH    40
Info: EMPTY PATCH LOAD       40 ATOMS
Info: VELOCITY FILE          mobley_5471704_equil.vel
Info: CENTER OF MASS MOVING INITIALLY? NO
Info: DIELECTRIC             1
Info: EXCLUDE                SCALED ONE-FOUR
Info: 1-4 ELECTROSTATICS SCALED BY 0.833333
Info: MODIFIED 1-4 VDW PARAMETERS WILL BE USED
Info: DCD FILENAME           mobley_5471704_prod.dcd
Info: DCD FREQUENCY          100000
Info: DCD FIRST STEP         100000
Info: DCD FILE WILL CONTAIN UNIT CELL DATA
Info: XST FILENAME           mobley_5471704_prod.xst
Info: XST FREQUENCY          100000
Info: NO VELOCITY DCD OUTPUT
Info: NO FORCE DCD OUTPUT
Info: OUTPUT FILENAME        mobley_5471704_prod
Info: BINARY OUTPUT FILES WILL BE USED
Info: RESTART FILENAME       mobley_5471704_prod.restart
Info: RESTART FREQUENCY      100000
Info: BINARY RESTART FILES WILL BE USED
Info: CUTOFF                 9
Info: PAIRLIST DISTANCE      11
Info: PAIRLIST SHRINK RATE   0.01
Info: PAIRLIST GROW RATE     0.01
Info: PAIRLIST TRIGGER       0.3
Info: PAIRLISTS PER CYCLE    2
Info: PAIRLISTS ENABLED
Info: MARGIN                 2
Info: HYDROGEN GROUP CUTOFF  2.5
Info: PATCH DIMENSION        15.5
Info: ENERGY OUTPUT STEPS    100000
Info: ENERGY EVALUATION STEPS    100000
Info: OUTPUT ENERGY PRECISION 4
Info: CROSSTERM ENERGY INCLUDED IN DIHEDRAL
Info: TIMING OUTPUT STEPS    1000000
Info: PRESSURE OUTPUT STEPS  100000
Info: ALCHEMICAL FEP ON
Info: FEP CURRENT LAMBDA VALUE     0
Info: FEP COMPARISON LAMBDA VALUE  0.05
Info: FEP INTRA-ALCHEMICAL NON-BONDED INTERACTIONS WILL BE RETAINED
Info: FEP INTRA-ALCHEMICAL BONDED INTERACTIONS WILL BE RETAINED
Info: FEP VDW SHIFTING COEFFICIENT 5
Info: FEP ELEC. ACTIVE FOR ANNIHILATED PARTICLES BETWEEN LAMBDA = 0 AND LAMBDA = 0.5
Info: FEP ELEC. ACTIVE FOR EXNIHILATED PARTICLES BETWEEN LAMBDA = 0.5 AND LAMBDA = 1
Info: FEP VDW ACTIVE FOR ANNIHILATED PARTICLES BETWEEN LAMBDA = 0 AND LAMBDA = 1
Info: FEP VDW ACTIVE FOR EXNIHILATED PARTICLES BETWEEN LAMBDA = 0 AND LAMBDA = 1
Info: FEP BOND ACTIVE FOR ANNIHILATED PARTICLES BETWEEN LAMBDA = 1 AND LAMBDA = 1
Info: FEP BOND ACTIVE FOR EXNIHILATED PARTICLES BETWEEN LAMBDA = 0 AND LAMBDA = 0
Info: LANGEVIN DYNAMICS ACTIVE
Info: LANGEVIN TEMPERATURE   300
Info: LANGEVIN USING BBK INTEGRATOR
Info: LANGEVIN DAMPING COEFFICIENT IS 1 INVERSE PS
Info: LANGEVIN DYNAMICS APPLIED TO HYDROGENS
Info: LANGEVIN PISTON PRESSURE CONTROL ACTIVE
Info:        TARGET PRESSURE IS 1.01325 BAR
Info:     OSCILLATION PERIOD IS 50 FS
Info:             DECAY TIME IS 25 FS
Info:     PISTON TEMPERATURE IS 300 K
Info:       PRESSURE CONTROL IS GROUP-BASED
Info:    INITIAL STRAIN RATE IS -0.000233279 -0.000233279 -0.000233279
Info:       CELL FLUCTUATION IS ISOTROPIC
Info: PARTICLE MESH EWALD (PME) ACTIVE
Info: PME TOLERANCE               1e-06
Info: PME EWALD COEFFICIENT       0.348832
Info: PME INTERPOLATION ORDER     4
Info: PME GRID DIMENSIONS         32 32 36
Info: PME MAXIMUM GRID SPACING    1
Info: PME CALCULATION WILL BE PERFORMED ON GPU
Info: FULL ELECTROSTATIC EVALUATION FREQUENCY      2
Info: USING VERLET I (r-RESPA) MTS SCHEME.
Info: C1 SPLITTING OF LONG RANGE ELECTROSTATICS
Info: PLACING ATOMS IN PATCHES BY HYDROGEN GROUPS
Info: RIGID BONDS TO HYDROGEN : ALL
Info:         ERROR TOLERANCE : 1e-08
Info:          MAX ITERATIONS : 100
Info: RIGID WATER USING SETTLE ALGORITHM
Info: RANDOM NUMBER SEED     1743940262
Info: USE HYDROGEN BONDS?    NO
Info: Using AMBER format force field!
Info: AMBER PARM FILE        mobley_5471704.prmtop
Info: COORDINATE PDB         mobley_5471704.pdb
Info: Exclusions will be read from PARM file!
Info: SCNB (VDW SCALING)     2
Info: USING ARITHMETIC MEAN TO COMBINE L-J SIGMA PARAMETERS
Info: BINARY COORDINATES     mobley_5471704_equil.coor
Info: SUMMARY OF PARAMETERS:
Info: 9 BONDS
Info: 12 ANGLES
Info:   12 HARMONIC
Info:   0 COSINE-BASED
Info: 20 DIHEDRAL
Info: 0 IMPROPER
Info: 0 CROSSTERM
Info: 0 VDW
Info: 36 VDW_PAIRS
Info: 0 NBTHOLE_PAIRS
Info: To read alchdata from file: mobley_5471704.pdb
Info: To read alchflag data from column: 5
Info: STRUCTURE SUMMARY:
Info: 2981 ATOMS
Info: 2980 BONDS
Info: 40 ANGLES
Info: 64 DIHEDRALS
Info: 0 IMPROPERS
Info: 0 CROSSTERMS
Info: 3067 EXCLUSIONS
Info: 2972 RIGID BONDS
Info: ALCH: 0 ATOMS TO DISAPPEAR IN FINAL STATE
Info: ALCH: 23 ATOMS TO APPEAR IN FINAL STATE
Info: 5971 DEGREES OF FREEDOM
Info: 995 HYDROGEN GROUPS
Info: 4 ATOMS IN LARGEST HYDROGEN GROUP
Info: 995 MIGRATION GROUPS
Info: 4 ATOMS IN LARGEST MIGRATION GROUP
Info: TOTAL MASS = 17894 amu
Info: TOTAL CHARGE = -9.99458e-05 e
Info: MASS DENSITY = 0.962779 g/cm^3
Info: ATOM DENSITY = 0.0965879 atoms/A^3
Info: ADDED 0 IMPLICIT EXCLUSIONS
Info: NONBONDED TABLE R-SQUARED SPACING: 0.0625
Info: NONBONDED TABLE SIZE: 705 POINTS
Info: REMOVING COM VELOCITY 0.0906783 0.0022868 0.141759
Info: Use 3D box decompostion in PME FFT.
Info: Updated CUDA force table with 4096 elements.
Info: Updated CUDA LJ table with 8 x 8 elements.
Info: Found 26 unique exclusion lists needing 84 bytes
TCL: Running for 1500000 steps
ETITLE: TS BOND ANGLE DIHED IMPRP ELECT VDW BOUNDARY MISC KINETIC TOTAL TEMP POTENTIAL TOTALAVG TEMPAVG PRESSURE GPRESSURE VOLUME PRESSAVG GPRESSAVG
ENERGY: 0 2.5333 10.7068 5.9733 0.0000 -10712.0659 1425.0447 0.0000 0.0000 1819.4073 -7448.4004 306.6714 -9267.8077 -7448.4004 306.6714 -193.6741 -120.8322 30863.0767 -193.6741 -120.8322
ENERGY: 300000 2.6219 8.3411 6.3646 0.0000 -10744.0726 1389.9011 0.0000 0.0000 1786.6331 -7550.2109 301.1471 -9336.8439 -7530.7193 302.1835 -335.6972 -327.9885 30193.6322 -117.4228 -75.7662
ENERGY: 600000 2.6102 8.2469 8.8795 0.0000 -10804.6946 1481.9060 0.0000 0.0000 1742.2842 -7560.7678 293.6718 -9303.0520 -7564.3129 298.3192 219.7975 286.7591 30389.9009 -75.6339 -28.9603
ENERGY: 900000 3.2076 14.3804 5.1087 0.0000 -10681.3670 1450.6747 0.0000 0.0000 1752.7510 -7455.2446 295.4361 -9207.9956 -7545.3692 298.4925 233.7700 292.5667 30582.0621 9.1170 61.6690
ENERGY: 1200000 2.2150 10.2985 8.2003 0.0000 -10764.8634 1465.9477 0.0000 0.0000 1772.8229 -7505.3790 298.8193 -9278.2019 -7548.7676 297.6827 175.5831 180.6619 30453.4893 -38.3132 15.7501
ENERGY: 1500000 5.6082 11.2754 5.9739 0.0000 -10617.8706 1363.3506 0.0000 0.0000 1727.4895 -7504.1730 291.1781 -9231.6625 -7544.5001 297.4927 -909.9406 -826.8089 31422.2504 -130.7293 -70.4813
TCL: Running FEP window   2: Lambda1 0.05   Lambda2 0.1    [dLambda 0.05  ]
TCL: Setting parameter firsttimestep to 0
TCL: Setting parameter alchLambda to 0.05
Info: NONBONDED TABLE R-SQUARED SPACING: 0.0625
Info: NONBONDED TABLE SIZE: 705 POINTS
TCL: Setting parameter alchLambda2 to 0.1
Info: NONBONDED TABLE R-SQUARED SPACING: 0.0625
Info: NONBONDED TABLE SIZE: 705 POINTS
TCL: Running for 1500000 steps
ETITLE: TS BOND ANGLE DIHED IMPRP ELECT VDW BOUNDARY MISC KINETIC TOTAL TEMP POTENTIAL TOTALAVG TEMPAVG PRESSURE GPRESSURE VOLUME PRESSAVG GPRESSAVG
ENERGY: 0 5.6082 11.2754 5.9739 0.0000 -10617.8706 1365.8902 0.0000 0.0000 1726.6076 -7502.5154 291.0295 -9229.1230 -7502.5154 291.0295 -909.0666 -826.7287 31422.2504 -909.0666 -826.7287
ENERGY: 300000 3.7909 11.4237 6.4960 0.0000 -10750.3347 1464.4627 0.0000 0.0000 1818.4617 -7445.6996 306.5120 -9264.1613 -7503.8220 301.1811 340.5432 421.4823 30299.7956 -175.9953 -122.4702
ENERGY: 600000 3.9594 8.5831 9.6116 0.0000 -10774.8568 1436.2708 0.0000 0.0000 1839.0622 -7477.3697 309.9843 -9316.4318 -7516.4044 300.6063 -21.3159 -2.4350 30627.9883 -217.3929 -166.9796
ENERGY: 900000 5.3179 13.5077 7.0273 0.0000 -10878.5622 1564.9410 0.0000 0.0000 1826.6608 -7461.1076 307.8940 -9287.7684 -7518.3764 300.8436 1198.1894 1347.7773 30116.1244 -67.5382 -0.1110
ENERGY: 1200000 1.7720 10.6703 7.2578 0.0000 -10855.5732 1445.0710 0.0000 0.0000 1806.1451 -7584.6570 304.4360 -9390.8021 -7518.8020 302.0989 -269.6387 -235.6565 30575.2582 -65.3373 -7.1028
ENERGY: 1500000 1.8251 12.6575 6.8458 0.0000 -10801.6117 1417.1102 0.0000 0.0000 1741.0036 -7622.1696 293.4560 -9363.1732 -7534.4772 301.2556 -292.8554 -267.5627 30275.5872 -94.2708 -37.9113
TCL: Running FEP window   3: Lambda1 0.1    Lambda2 0.15000000000000002 [dLambda 0.05000000000000002]
TCL: Setting parameter firsttimestep to 0
TCL: Setting parameter alchLambda to 0.1
Info: NONBONDED TABLE R-SQUARED SPACING: 0.0625
Info: NONBONDED TABLE SIZE: 705 POINTS
TCL: Setting parameter alchLambda2 to 0.15000000000000002
Info: NONBONDED TABLE R-SQUARED SPACING: 0.0625
Info: NONBONDED TABLE SIZE: 705 POINTS
TCL: Running for 1500000 steps
ETITLE: TS BOND ANGLE DIHED IMPRP ELECT VDW BOUNDARY MISC KINETIC TOTAL TEMP POTENTIAL TOTALAVG TEMPAVG PRESSURE GPRESSURE VOLUME PRESSAVG GPRESSAVG
ENERGY: 0 1.8251 12.6575 6.8458 0.0000 -10801.6113 1420.6099 0.0000 0.0000 1740.0479 -7619.6251 293.2949 -9359.6730 -7619.6251 293.2949 -340.0140 -255.9583 30275.5872 -340.0140 -255.9583
ENERGY: 300000 3.6018 13.0354 6.9080 0.0000 -10725.7955 1391.8183 0.0000 0.0000 1786.3651 -7524.0670 301.1019 -9310.4321 -7547.9989 299.8892 -275.2444 -232.0608 30514.5793 -265.1888 -217.3017
ENERGY: 600000 2.5616 12.9571 6.1368 0.0000 -10903.5480 1528.0220 0.0000 0.0000 1783.4908 -7570.3798 300.6174 -9353.8706 -7528.8039 300.5701 273.5037 367.5879 30752.8012 -290.4939 -224.1103
ENERGY: 900000 2.0925 10.0736 6.4517 0.0000 -10893.9851 1457.4007 0.0000 0.0000 1806.5213 -7611.4453 304.4994 -9417.9666 -7532.8632 300.2816 -128.2823 -67.9691 30250.3956 -382.4973 -319.8510
ENERGY: 1200000 2.8257 10.3350 9.8767 0.0000 -10999.7228 1510.1502 0.0000 0.0000 1746.8961 -7719.6391 294.4492 -9466.5352 -7539.3056 300.9868 -80.8678 -31.4516 30293.6845 -327.4935 -262.4275
ENERGY: 1500000 0.8787 11.2318 8.0136 0.0000 -10760.3763 1434.3052 0.0000 0.0000 1784.0530 -7521.8940 300.7122 -9305.9470 -7536.3507 301.0430 -77.3364 -41.6189 30442.0931 -289.0915 -224.8986
TCL: Running FEP window   4: Lambda1 0.15000000000000002 Lambda2 0.2    [dLambda 0.04999999999999999]
TCL: Setting parameter firsttimestep to 0
TCL: Setting parameter alchLambda to 0.15000000000000002
Info: NONBONDED TABLE R-SQUARED SPACING: 0.0625
Info: NONBONDED TABLE SIZE: 705 POINTS
TCL: Setting parameter alchLambda2 to 0.2
Info: NONBONDED TABLE R-SQUARED SPACING: 0.0625
Info: NONBONDED TABLE SIZE: 705 POINTS
TCL: Running for 1500000 steps
ETITLE: TS BOND ANGLE DIHED IMPRP ELECT VDW BOUNDARY MISC KINETIC TOTAL TEMP POTENTIAL TOTALAVG TEMPAVG PRESSURE GPRESSURE VOLUME PRESSAVG GPRESSAVG
ENERGY: 0 0.8787 11.2318 8.0136 0.0000 -10760.3746 1437.3280 0.0000 0.0000 1783.1908 -7519.7317 300.5669 -9302.9224 -7519.7317 300.5669 -102.7642 -24.7613 30442.0931 -102.7642 -24.7613
ENERGY: 300000 2.8420 13.5759 8.8534 0.0000 -10774.0983 1514.4134 0.0000 0.0000 1781.2563 -7453.1574 300.2408 -9234.4137 -7488.2129 301.3309 576.2134 560.5675 30837.8806 33.7948 64.6137
ENERGY: 600000 1.9826 5.4235 6.9268 0.0000 -10798.5168 1456.0002 0.0000 0.0000 1813.4350 -7514.7487 305.6647 -9328.1837 -7516.5859 301.1429 166.5831 193.9724 30319.1417 119.8076 159.4564
ENERGY: 900000 2.5274 9.1582 7.4213 0.0000 -10787.8906 1427.6763 0.0000 0.0000 1810.6398 -7530.4675 305.1936 -9341.1074 -7527.2687 300.7502 -329.8239 -247.5012 30460.4245 73.9681 123.2885
ENERGY: 1200000 2.9627 10.4705 6.8727 0.0000 -10806.7234 1488.0448 0.0000 0.0000 1736.9704 -7561.4023 292.7762 -9298.3727 -7532.6171 299.6482 60.6114 134.5076 30764.4785 204.6347 259.0341
ENERGY: 1500000 1.0346 18.2676 8.3671 0.0000 -10765.6198 1484.8994 0.0000 0.0000 1774.1705 -7478.8805 299.0465 -9253.0511 -7541.3358 299.0759 368.5228 409.1990 30480.5186 228.8932 285.5141
TCL: Running FEP window   5: Lambda1 0.2    Lambda2 0.25   [dLambda 0.04999999999999999]
TCL: Setting parameter firsttimestep to 0
TCL: Setting parameter alchLambda to 0.2
Info: NONBONDED TABLE R-SQUARED SPACING: 0.0625
Info: NONBONDED TABLE SIZE: 705 POINTS
TCL: Setting parameter alchLambda2 to 0.25
Info: NONBONDED TABLE R-SQUARED SPACING: 0.0625
Info: NONBONDED TABLE SIZE: 705 POINTS
TCL: Running for 1500000 steps
ETITLE: TS BOND ANGLE DIHED IMPRP ELECT VDW BOUNDARY MISC KINETIC TOTAL TEMP POTENTIAL TOTALAVG TEMPAVG PRESSURE GPRESSURE VOLUME PRESSAVG GPRESSAVG
ENERGY: 0 1.0346 18.2676 8.3671 0.0000 -10765.6208 1487.1706 0.0000 0.0000 1773.2884 -7477.4925 298.8978 -9250.7809 -7477.4925 298.8978 333.4143 426.7751 30480.5186 333.4143 426.7751
ENERGY: 300000 2.5293 9.1954 5.8972 0.0000 -10774.8194 1427.7052 0.0000 0.0000 1774.3083 -7555.1839 299.0697 -9329.4923 -7504.4851 299.7060 -78.5999 -34.6862 30198.2861 -217.5799 -167.3757
ENERGY: 600000 2.1316 8.4137 7.2358 0.0000 -10724.8321 1403.8548 0.0000 0.0000 1777.0583 -7526.1380 299.5332 -9303.1963 -7514.8897 297.9878 -93.0769 -120.9756 30426.3657 -334.8159 -290.0020
ENERGY: 900000 4.8158 15.1997 8.6580 0.0000 -10680.6918 1371.0930 0.0000 0.0000 1775.2962 -7505.6290 299.2362 -9280.9252 -7506.6450 300.1699 -942.7397 -887.3204 31315.0366 -456.9358 -412.7392
ENERGY: 1200000 3.4817 14.2204 7.5854 0.0000 -10705.5972 1355.4101 0.0000 0.0000 1793.6508 -7531.2487 302.3300 -9324.8995 -7524.1786 299.4633 -626.5866 -541.6531 30241.9978 -385.8272 -342.4655
ENERGY: 1500000 3.5402 17.5138 8.6103 0.0000 -10987.9404 1567.6493 0.0000 0.0000 1804.3077 -7586.3191 304.1263 -9390.6268 -7530.5679 300.1399 832.1918 771.9278 30425.1778 -215.7533 -174.6196
TCL: Running FEP window   6: Lambda1 0.25   Lambda2 0.3    [dLambda 0.04999999999999999]
TCL: Setting parameter firsttimestep to 0
TCL: Setting parameter alchLambda to 0.25
Info: NONBONDED TABLE R-SQUARED SPACING: 0.0625
Info: NONBONDED TABLE SIZE: 705 POINTS
TCL: Setting parameter alchLambda2 to 0.3
Info: NONBONDED TABLE R-SQUARED SPACING: 0.0625
Info: NONBONDED TABLE SIZE: 705 POINTS
TCL: Running for 1500000 steps
ETITLE: TS BOND ANGLE DIHED IMPRP ELECT VDW BOUNDARY MISC KINETIC TOTAL TEMP POTENTIAL TOTALAVG TEMPAVG PRESSURE GPRESSURE VOLUME PRESSAVG GPRESSAVG
ENERGY: 0 3.5403 17.5138 8.6103 0.0000 -10987.9421 1570.2667 0.0000 0.0000 1803.4322 -7584.5787 303.9787 -9388.0110 -7584.5787 303.9787 715.4309 793.8752 30425.1778 715.4309 793.8752
ENERGY: 300000 2.1736 10.0784 8.3463 0.0000 -10715.6441 1419.8754 0.0000 0.0000 1768.5511 -7506.6193 298.0993 -9275.1704 -7552.0305 302.4359 -88.6942 -3.9090 30835.5840 229.0334 292.5050
ENERGY: 600000 5.3340 6.3468 7.1729 0.0000 -10754.5284 1375.5878 0.0000 0.0000 1752.0397 -7608.0472 295.3162 -9360.0869 -7560.8002 300.7031 -845.7415 -831.5931 30767.4714 -58.3886 3.8013
ENERGY: 900000 3.8935 12.1141 5.8811 0.0000 -10755.5491 1444.8010 0.0000 0.0000 1796.6799 -7492.1795 302.8405 -9288.8594 -7569.2510 299.5571 -105.4157 8.6043 30536.2094 26.6774 94.2042
ENERGY: 1200000 1.4069 11.9090 5.9820 0.0000 -10675.7265 1371.8669 0.0000 0.0000 1774.6664 -7509.8953 299.1301 -9284.5617 -7571.3664 298.1398 -789.2087 -766.7374 31427.4446 -149.8304 -81.6301
ENERGY: 1500000 2.1788 18.2320 7.6814 0.0000 -10743.8073 1399.7148 0.0000 0.0000 1756.7197 -7559.2806 296.1050 -9316.0003 -7567.8045 298.2100 -518.0321 -390.5720 30515.6368 -103.7952 -27.8651
TCL: Running FEP window   7: Lambda1 0.3    Lambda2 0.35   [dLambda 0.04999999999999999]
TCL: Setting parameter firsttimestep to 0
TCL: Setting parameter alchLambda to 0.3
Info: NONBONDED TABLE R-SQUARED SPACING: 0.0625
Info: NONBONDED TABLE SIZE: 705 POINTS
TCL: Setting parameter alchLambda2 to 0.35
Info: NONBONDED TABLE R-SQUARED SPACING: 0.0625
Info: NONBONDED TABLE SIZE: 705 POINTS
TCL: Running for 1500000 steps
ETITLE: TS BOND ANGLE DIHED IMPRP ELECT VDW BOUNDARY MISC KINETIC TOTAL TEMP POTENTIAL TOTALAVG TEMPAVG PRESSURE GPRESSURE VOLUME PRESSAVG GPRESSAVG
ENERGY: 0 2.1788 18.2320 7.6814 0.0000 -10743.8077 1400.3240 0.0000 0.0000 1755.8677 -7559.5238 295.9614 -9315.3915 -7559.5238 295.9614 -457.2217 -380.7056 30515.6368 -457.2217 -380.7056
ENERGY: 300000 3.7139 10.3346 7.1267 0.0000 -10776.6495 1434.4420 0.0000 0.0000 1753.5034 -7567.5289 295.5629 -9321.0323 -7563.0446 295.8539 -348.6120 -258.8741 30806.7016 -89.7084 -13.8053
ENERGY: 600000 0.7750 10.8202 7.0274 0.0000 -10673.3388 1405.6280 0.0000 0.0000 1782.0587 -7467.0295 300.3761 -9249.0882 -7547.5792 298.8859 187.2356 218.0413 30086.2419 142.7953 202.6197
ENERGY: 900000 2.6504 13.1198 6.3358 0.0000 -10739.5017 1426.2435 0.0000 0.0000 1769.5497 -7521.6024 298.2676 -9291.1522 -7532.6183 300.1281 6.1282 90.3619 30465.1832 245.5775 307.7374
ENERGY: 1200000 3.9283 9.7864 6.5282 0.0000 -10877.2906 1491.9424 0.0000 0.0000 1759.2607 -7605.8447 296.5333 -9365.1054 -7536.8625 299.9556 57.3558 169.1856 30548.6637 237.4275 305.2256
ENERGY: 1500000 2.0966 8.8509 5.7780 0.0000 -10999.6189 1498.2589 0.0000 0.0000 1797.4537 -7687.1809 302.9710 -9484.6345 -7540.1783 300.5905 69.5319 136.8899 30319.2724 112.6773 179.3721
TCL: Running FEP window   8: Lambda1 0.35   Lambda2 0.39999999999999997 [dLambda 0.04999999999999999]
TCL: Setting parameter firsttimestep to 0
TCL: Setting parameter alchLambda to 0.35
Info: NONBONDED TABLE R-SQUARED SPACING: 0.0625
Info: NONBONDED TABLE SIZE: 705 POINTS
TCL: Setting parameter alchLambda2 to 0.39999999999999997
Info: NONBONDED TABLE R-SQUARED SPACING: 0.0625
Info: NONBONDED TABLE SIZE: 705 POINTS
TCL: Running for 1500000 steps
ETITLE: TS BOND ANGLE DIHED IMPRP ELECT VDW BOUNDARY MISC KINETIC TOTAL TEMP POTENTIAL TOTALAVG TEMPAVG PRESSURE GPRESSURE VOLUME PRESSAVG GPRESSAVG
ENERGY: 0 2.0966 8.8509 5.7780 0.0000 -10999.6196 1498.6231 0.0000 0.0000 1796.6128 -7687.6583 302.8292 -9484.2710 -7687.6583 302.8292 57.4486 141.5575 30319.2724 57.4486 141.5575
ENERGY: 300000 6.6501 10.7234 7.4869 0.0000 -10834.4577 1487.8169 0.0000 0.0000 1792.3464 -7529.4341 302.1101 -9321.7805 -7567.9167 303.5685 374.1271 392.3210 30571.1588 105.5997 156.8611
ENERGY: 600000 3.9872 9.6305 7.0911 0.0000 -10945.1807 1561.9297 0.0000 0.0000 1770.7962 -7591.7460 298.4777 -9362.5422 -7564.9520 302.9932 1005.7655 1043.3523 30078.6618 245.4421 304.6724
ENERGY: 900000 2.5306 8.1242 7.0088 0.0000 -10798.6632 1448.7462 0.0000 0.0000 1757.3832 -7574.8702 296.2169 -9332.2535 -7571.2791 301.7943 11.3515 116.3627 30396.1429 225.7855 287.8001
ENERGY: 1200000 2.7683 14.5590 7.2566 0.0000 -10715.1272 1411.6254 0.0000 0.0000 1794.4726 -7484.4453 302.4685 -9278.9179 -7556.0379 302.0517 -194.9553 -67.4360 30551.0383 166.6461 227.3564
ENERGY: 1500000 2.7525 9.8016 8.6580 0.0000 -10751.8893 1418.9854 0.0000 0.0000 1802.1412 -7509.5507 303.7611 -9311.6918 -7557.7804 301.3123 -298.9655 -265.9229 30707.2439 102.8731 161.6702
TCL: Running FEP window   9: Lambda1 0.39999999999999997 Lambda2 0.44999999999999996 [dLambda 0.04999999999999999]
TCL: Setting parameter firsttimestep to 0
TCL: Setting parameter alchLambda to 0.39999999999999997
Info: NONBONDED TABLE R-SQUARED SPACING: 0.0625
Info: NONBONDED TABLE SIZE: 705 POINTS
TCL: Setting parameter alchLambda2 to 0.44999999999999996
Info: NONBONDED TABLE R-SQUARED SPACING: 0.0625
Info: NONBONDED TABLE SIZE: 705 POINTS
TCL: Running for 1500000 steps
ETITLE: TS BOND ANGLE DIHED IMPRP ELECT VDW BOUNDARY MISC KINETIC TOTAL TEMP POTENTIAL TOTALAVG TEMPAVG PRESSURE GPRESSURE VOLUME PRESSAVG GPRESSAVG
ENERGY: 0 2.7525 9.8016 8.6580 0.0000 -10751.8891 1418.8415 0.0000 0.0000 1801.2632 -7510.5723 303.6131 -9311.8355 -7510.5723 303.6131 -357.2735 -258.8831 30707.2439 -357.2735 -258.8831
ENERGY: 300000 5.7300 9.6079 9.1307 0.0000 -10747.3032 1410.8919 0.0000 0.0000 1763.3185 -7548.6243 297.2173 -9311.9428 -7517.1993 302.3764 -394.7964 -390.3275 30805.3354 -140.4863 -110.4356
ENERGY: 600000 2.4426 8.6589 7.5320 0.0000 -10843.7233 1475.0895 0.0000 0.0000 1733.7044 -7616.2959 292.2257 -9350.0003 -7558.2918 299.5246 -173.4794 -126.9353 30975.2360 -16.5963 32.3318
ENERGY: 900000 1.6389 8.3754 6.7580 0.0000 -10824.7381 1457.3269 0.0000 0.0000 1756.2142 -7594.4245 296.0198 -9350.6387 -7567.9047 298.2479 -196.7573 -170.4341 30916.4707 56.6345 103.7855
ENERGY: 1200000 3.1508 6.6100 8.1517 0.0000 -10772.4587 1422.3311 0.0000 0.0000 1781.2845 -7550.9306 300.2456 -9332.2151 -7563.1691 298.7453 -291.1622 -177.0428 30952.4999 25.9832 78.2451
ENERGY: 1500000 3.5044 7.2619 7.5507 0.0000 -10908.8123 1520.1733 0.0000 0.0000 1831.7951 -7538.5269 308.7594 -9370.3220 -7566.5793 298.5472 320.5047 410.0948 30568.7168 -27.6720 21.2065
TCL: Running FEP window  10: Lambda1 0.44999999999999996 Lambda2 0.49999999999999994 [dLambda 0.04999999999999999]
TCL: Setting parameter firsttimestep to 0
TCL: Setting parameter alchLambda to 0.44999999999999996
Info: NONBONDED TABLE R-SQUARED SPACING: 0.0625
Info: NONBONDED TABLE SIZE: 705 POINTS
TCL: Setting parameter alchLambda2 to 0.49999999999999994
Info: NONBONDED TABLE R-SQUARED SPACING: 0.0625
Info: NONBONDED TABLE SIZE: 705 POINTS
TCL: Running for 1500000 steps
ETITLE: TS BOND ANGLE DIHED IMPRP ELECT VDW BOUNDARY MISC KINETIC TOTAL TEMP POTENTIAL TOTALAVG TEMPAVG PRESSURE GPRESSURE VOLUME PRESSAVG GPRESSAVG
ENERGY: 0 3.5044 7.2619 7.5507 0.0000 -10908.8129 1520.3551 0.0000 0.0000 1830.9254 -7539.2154 308.6128 -9370.1408 -7539.2154 308.6128 347.3106 419.3183 30568.7168 347.3106 419.3183
ENERGY: 300000 2.9927 8.6110 7.8185 0.0000 -10810.7383 1419.4191 0.0000 0.0000 1787.8506 -7584.0463 301.3523 -9371.8970 -7567.1868 302.5463 -291.1306 -266.6743 30460.6461 -126.6738 -46.1424
ENERGY: 600000 2.8911 13.6010 7.8864 0.0000 -10794.6112 1429.5275 0.0000 0.0000 1806.6135 -7534.0918 304.5149 -9340.7053 -7562.1105 301.6677 -142.6876 -65.0975 30259.4537 -111.3478 -37.7704
ENERGY: 900000 2.2695 8.3917 6.6678 0.0000 -10750.2261 1428.5752 0.0000 0.0000 1788.1029 -7516.2191 301.3948 -9304.3220 -7546.5555 301.1920 -69.2629 -80.4056 30924.2994 -158.4736 -94.1762
ENERGY: 1200000 0.7986 9.2972 7.6029 0.0000 -10791.8319 1469.3832 0.0000 0.0000 1671.6270 -7633.1231 281.7622 -9304.7501 -7550.5842 298.9842 201.4865 207.9716 30572.1734 -154.9104 -96.0422
ENERGY: 1500000 1.0875 13.7321 7.9949 0.0000 -10793.3675 1453.7678 0.0000 0.0000 1768.0869 -7548.6983 298.0210 -9316.7852 -7558.1027 298.7070 -62.2792 45.6710 30807.2163 -217.5056 -156.4606
TCL: Running FEP window  11: Lambda1 0.49999999999999994 Lambda2 0.5499999999999999 [dLambda 0.04999999999999999]
TCL: Setting parameter firsttimestep to 0
TCL: Setting parameter alchLambda to 0.49999999999999994
Info: NONBONDED TABLE R-SQUARED SPACING: 0.0625
Info: NONBONDED TABLE SIZE: 705 POINTS
TCL: Setting parameter alchLambda2 to 0.5499999999999999
Info: NONBONDED TABLE R-SQUARED SPACING: 0.0625
Info: NONBONDED TABLE SIZE: 705 POINTS
TCL: Running for 1500000 steps
ETITLE: TS BOND ANGLE DIHED IMPRP ELECT VDW BOUNDARY MISC KINETIC TOTAL TEMP POTENTIAL TOTALAVG TEMPAVG PRESSURE GPRESSURE VOLUME PRESSAVG GPRESSAVG
ENERGY: 0 1.0875 13.7321 7.9949 0.0000 -10793.3676 1455.3939 0.0000 0.0000 1767.1688 -7547.9904 297.8663 -9315.1592 -7547.9904 297.8663 -30.3942 66.8663 30807.2163 -30.3942 66.8663
ENERGY: 300000 5.5126 7.1469 8.8016 0.0000 -10878.9548 1518.2111 0.0000 0.0000 1822.3411 -7516.9417 307.1659 -9339.2827 -7561.2100 298.4609 626.9346 661.6492 30593.3104 35.7161 100.3783
ENERGY: 600000 5.6147 15.2419 8.7197 0.0000 -10820.0270 1484.6605 0.0000 0.0000 1789.8919 -7515.8982 301.6964 -9305.7902 -7524.3832 301.6085 214.3185 253.9116 30814.7119 -77.6128 -9.7329
ENERGY: 900000 2.2852 8.1740 9.5400 0.0000 -10671.4290 1407.0468 0.0000 0.0000 1749.7851 -7494.5980 294.9362 -9244.3830 -7517.9547 299.9292 -187.6488 -145.5319 30758.7373 -41.0702 20.4238
ENERGY: 1200000 4.8825 9.0680 8.2818 0.0000 -10721.2433 1386.9683 0.0000 0.0000 1793.7402 -7518.3025 302.3450 -9312.0427 -7518.3274 301.0734 -703.3056 -566.9379 30835.1961 -51.8217 9.8799
ENERGY: 1500000 3.7676 12.8234 8.7686 0.0000 -11002.7464 1532.5565 0.0000 0.0000 1710.2012 -7734.6291 288.2641 -9444.8302 -7530.9756 301.0643 394.3236 456.2135 30101.5061 -93.5513 -29.8315
TCL: Running FEP window  12: Lambda1 0.5499999999999999 Lambda2 0.6    [dLambda 0.050000000000000044]
TCL: Setting parameter firsttimestep to 0
TCL: Setting parameter alchLambda to 0.5499999999999999
Info: NONBONDED TABLE R-SQUARED SPACING: 0.0625
Info: NONBONDED TABLE SIZE: 705 POINTS
TCL: Setting parameter alchLambda2 to 0.6
Info: NONBONDED TABLE R-SQUARED SPACING: 0.0625
Info: NONBONDED TABLE SIZE: 705 POINTS
TCL: Running for 1500000 steps
ETITLE: TS BOND ANGLE DIHED IMPRP ELECT VDW BOUNDARY MISC KINETIC TOTAL TEMP POTENTIAL TOTALAVG TEMPAVG PRESSURE GPRESSURE VOLUME PRESSAVG GPRESSAVG
ENERGY: 0 3.7676 12.8234 8.7686 0.0000 -11002.5391 1532.5726 0.0000 0.0000 1709.3420 -7735.2649 288.1192 -9444.6069 -7735.2649 288.1192 375.7642 468.9221 30101.5061 375.7642 468.9221
ENERGY: 300000 1.1900 11.4974 9.7148 0.0000 -10781.1307 1473.3003 0.0000 0.0000 1770.5018 -7514.9264 298.4281 -9285.4283 -7567.0775 296.6515 -157.7923 -76.8041 31275.1005 77.0916 153.2788
ENERGY: 600000 2.9024 9.2839 7.9556 0.0000 -10762.9889 1383.0532 0.0000 0.0000 1773.1299 -7586.6640 298.8711 -9359.7939 -7561.6177 297.6748 -412.4190 -290.8792 30185.8400 -16.6579 59.4137
ENERGY: 900000 2.3817 7.9190 8.7555 0.0000 -10960.1633 1491.2057 0.0000 0.0000 1748.3840 -7701.5175 294.7000 -9449.9014 -7575.8760 296.9707 56.2671 67.2958 30341.3028 -61.3682 2.2051
ENERGY: 1200000 4.7992 10.1555 6.4532 0.0000 -10834.3914 1373.8553 0.0000 0.0000 1764.3150 -7674.8132 297.3853 -9439.1281 -7575.9053 297.8681 -662.9324 -645.8333 30346.5322 -18.9153 38.2001
ENERGY: 1500000 4.2269 13.8166 6.7595 0.0000 -10743.2058 1413.1872 0.0000 0.0000 1766.4856 -7538.7300 297.7511 -9305.2156 -7578.1178 298.0578 -433.5041 -401.3297 31076.3806 7.0605 62.2619
TCL: Running FEP window  13: Lambda1 0.6    Lambda2 0.65   [dLambda 0.050000000000000044]
TCL: Setting parameter firsttimestep to 0
TCL: Setting parameter alchLambda to 0.6
Info: NONBONDED TABLE R-SQUARED SPACING: 0.0625
Info: NONBONDED TABLE SIZE: 705 POINTS
TCL: Setting parameter alchLambda2 to 0.65
Info: NONBONDED TABLE R-SQUARED SPACING: 0.0625
Info: NONBONDED TABLE SIZE: 705 POINTS
TCL: Running for 1500000 steps
ETITLE: TS BOND ANGLE DIHED IMPRP ELECT VDW BOUNDARY MISC KINETIC TOTAL TEMP POTENTIAL TOTALAVG TEMPAVG PRESSURE GPRESSURE VOLUME PRESSAVG GPRESSAVG
ENERGY: 0 4.2269 13.8166 6.7595 0.0000 -10742.8187 1412.5230 0.0000 0.0000 1765.6136 -7539.8791 297.6041 -9305.4927 -7539.8791 297.6041 -479.9726 -401.4424 31076.3806 -479.9726 -401.4424
ENERGY: 300000 1.0203 10.3199 6.8788 0.0000 -10858.9878 1481.7915 0.0000 0.0000 1843.5028 -7515.4746 310.7328 -9358.9774 -7545.1974 303.1457 398.1987 440.0877 30314.2191 114.6590 181.9870
ENERGY: 600000 4.0204 8.7358 8.5397 0.0000 -10768.4396 1436.8573 0.0000 0.0000 1775.5723 -7534.7140 299.2827 -9310.2863 -7555.8817 301.4970 -326.6224 -244.3858 30668.2113 -83.2435 -18.7174
ENERGY: 900000 4.6234 11.6218 8.0260 0.0000 -10727.4882 1470.1890 0.0000 0.0000 1806.4261 -7426.6019 304.4833 -9233.0280 -7539.8940 301.8508 379.6379 422.4641 30778.8892 -8.0219 55.0448
ENERGY: 1200000 3.4760 16.5770 7.1719 0.0000 -10838.9066 1488.5643 0.0000 0.0000 1774.1925 -7548.9249 299.0502 -9323.1174 -7543.5188 301.1980 298.5146 432.6278 30390.3626 -37.1678 33.3045
ENERGY: 1500000 0.9668 14.3938 9.0826 0.0000 -10766.2707 1411.4783 0.0000 0.0000 1756.4058 -7573.9434 296.0521 -9330.3492 -7551.0202 300.1652 -54.5389 -20.7827 30288.0317 -99.5100 -35.4276
TCL: Running FEP window  14: Lambda1 0.65   Lambda2 0.7000000000000001 [dLambda 0.050000000000000044]
TCL: Setting parameter firsttimestep to 0
TCL: Setting parameter alchLambda to 0.65
Info: NONBONDED TABLE R-SQUARED SPACING: 0.0625
Info: NONBONDED TABLE SIZE: 705 POINTS
TCL: Setting parameter alchLambda2 to 0.7000000000000001
Info: NONBONDED TABLE R-SQUARED SPACING: 0.0625
Info: NONBONDED TABLE SIZE: 705 POINTS
TCL: Running for 1500000 steps
ETITLE: TS BOND ANGLE DIHED IMPRP ELECT VDW BOUNDARY MISC KINETIC TOTAL TEMP POTENTIAL TOTALAVG TEMPAVG PRESSURE GPRESSURE VOLUME PRESSAVG GPRESSAVG
ENERGY: 0 0.9668 14.3938 9.0826 0.0000 -10767.3185 1411.9621 0.0000 0.0000 1755.5397 -7575.3734 295.9061 -9330.9132 -7575.3734 295.9061 -88.1762 -7.3362 30288.0317 -88.1762 -7.3362
ENERGY: 300000 1.4104 6.2241 10.3064 0.0000 -10833.7899 1479.7761 0.0000 0.0000 1752.1088 -7583.9641 295.3278 -9336.0729 -7554.1523 300.8696 -72.9581 6.1961 31051.4466 242.2110 299.3421
ENERGY: 600000 3.7250 11.2949 8.1862 0.0000 -10767.5211 1369.1715 0.0000 0.0000 1776.0107 -7599.1328 299.3566 -9375.1435 -7555.2826 301.8665 -694.7813 -647.4554 30501.7224 169.2184 227.9011
ENERGY: 900000 3.0815 12.0723 8.7318 0.0000 -10788.1546 1400.0994 0.0000 0.0000 1807.9328 -7556.2367 304.7373 -9364.1695 -7571.0459 300.4082 -632.8452 -598.2490 30847.9644 79.1514 127.8025
ENERGY: 1200000 2.4578 7.8643 6.5652 0.0000 -10556.3219 1273.7948 0.0000 0.0000 1814.4551 -7451.1846 305.8367 -9265.6397 -7563.4151 300.4514 -1126.9145 -1043.6776 30770.7776 36.3654 90.4154
ENERGY: 1500000 1.6557 6.5322 7.3971 0.0000 -10866.9303 1457.1465 0.0000 0.0000 1808.2994 -7585.8994 304.7991 -9394.1988 -7566.5689 300.5211 -14.1923 6.3234 30472.4731 -10.0646 44.9742
TCL: Running FEP window  15: Lambda1 0.7000000000000001 Lambda2 0.7500000000000001 [dLambda 0.050000000000000044]
TCL: Setting parameter firsttimestep to 0
TCL: Setting parameter alchLambda to 0.7000000000000001
Info: NONBONDED TABLE R-SQUARED SPACING: 0.0625
Info: NONBONDED TABLE SIZE: 705 POINTS
TCL: Setting parameter alchLambda2 to 0.7500000000000001
Info: NONBONDED TABLE R-SQUARED SPACING: 0.0625
Info: NONBONDED TABLE SIZE: 705 POINTS
TCL: Running for 1500000 steps
ETITLE: TS BOND ANGLE DIHED IMPRP ELECT VDW BOUNDARY MISC KINETIC TOTAL TEMP POTENTIAL TOTALAVG TEMPAVG PRESSURE GPRESSURE VOLUME PRESSAVG GPRESSAVG
ENERGY: 0 1.6557 6.5322 7.3971 0.0000 -10867.9706 1457.9963 0.0000 0.0000 1807.4353 -7586.9541 304.6534 -9394.3893 -7586.9541 304.6534 -45.8195 24.6323 30472.4731 -45.8195 24.6323
ENERGY: 300000 2.1467 11.2324 8.7725 0.0000 -10806.4966 1486.5564 0.0000 0.0000 1835.8312 -7461.9572 309.4397 -9297.7884 -7552.1050 302.5820 123.9469 167.7720 31383.3725 -28.7527 35.1321
ENERGY: 600000 2.8477 11.2533 8.8051 0.0000 -10823.6273 1422.6756 0.0000 0.0000 1766.0509 -7611.9947 297.6779 -9378.0456 -7535.7803 301.9468 -224.6308 -160.2329 30109.2887 -122.7840 -56.0158
ENERGY: 900000 1.4360 8.3167 8.0821 0.0000 -10975.1210 1498.8215 0.0000 0.0000 1788.6432 -7669.8217 301.4859 -9458.4649 -7548.1710 301.5707 222.5695 295.1317 30008.3112 79.7403 143.3668
ENERGY: 1200000 3.2289 8.0056 6.1668 0.0000 -10839.9331 1499.3690 0.0000 0.0000 1836.3042 -7486.8586 309.5194 -9323.1628 -7541.1317 302.5816 684.6639 708.1307 30455.8645 160.6107 218.3827
ENERGY: 1500000 4.9716 10.5489 7.2949 0.0000 -10900.1024 1484.6466 0.0000 0.0000 1798.2570 -7594.3833 303.1064 -9392.6403 -7552.7994 302.5978 40.4047 113.5116 30518.7051 128.9741 188.2073
TCL: Running FEP window  16: Lambda1 0.7500000000000001 Lambda2 0.8000000000000002 [dLambda 0.050000000000000044]
TCL: Setting parameter firsttimestep to 0
TCL: Setting parameter alchLambda to 0.7500000000000001
Info: NONBONDED TABLE R-SQUARED SPACING: 0.0625
Info: NONBONDED TABLE SIZE: 705 POINTS
TCL: Setting parameter alchLambda2 to 0.8000000000000002
Info: NONBONDED TABLE R-SQUARED SPACING: 0.0625
Info: NONBONDED TABLE SIZE: 705 POINTS
TCL: Running for 1500000 steps
ETITLE: TS BOND ANGLE DIHED IMPRP ELECT VDW BOUNDARY MISC KINETIC TOTAL TEMP POTENTIAL TOTALAVG TEMPAVG PRESSURE GPRESSURE VOLUME PRESSAVG GPRESSAVG
ENERGY: 0 4.9716 10.5489 7.2949 0.0000 -10900.7814 1485.0915 0.0000 0.0000 1797.3962 -7595.4783 302.9613 -9392.8745 -7595.4783 302.9613 37.5677 128.2009 30518.7051 37.5677 128.2009
ENERGY: 300000 3.3411 12.5270 6.3956 0.0000 -10656.9775 1303.7434 0.0000 0.0000 1798.0154 -7532.9550 303.0656 -9330.9704 -7548.7531 302.2363 -1035.1617 -968.5382 30375.9354 -245.1792 -164.3068
ENERGY: 600000 1.8664 8.9118 11.0107 0.0000 -10794.1312 1445.9204 0.0000 0.0000 1810.7074 -7515.7145 305.2050 -9326.4220 -7562.5708 300.1146 -13.5558 79.9852 30764.3848 -390.9943 -326.3149
ENERGY: 900000 2.2157 8.6764 9.9448 0.0000 -10578.3759 1403.8445 0.0000 0.0000 1779.7861 -7373.9085 299.9930 -9153.6946 -7529.4136 299.6808 -108.1932 -103.2392 31542.0822 -260.0444 -205.2160
ENERGY: 1200000 1.8381 12.2731 7.9053 0.0000 -10778.6493 1436.3184 0.0000 0.0000 1799.5457 -7520.7687 303.3236 -9320.3144 -7533.1185 299.5330 16.3555 -15.1211 30686.2554 -194.1808 -143.9017
ENERGY: 1500000 2.5174 13.4124 7.5495 0.0000 -10874.6785 1518.9358 0.0000 0.0000 1758.5391 -7573.7244 296.4117 -9332.2635 -7533.1266 299.6569 483.0489 468.7713 30794.3677 -168.1890 -121.2325
TCL: Running FEP window  17: Lambda1 0.8000000000000002 Lambda2 0.8500000000000002 [dLambda 0.050000000000000044]
TCL: Setting parameter firsttimestep to 0
TCL: Setting parameter alchLambda to 0.8000000000000002
Info: NONBONDED TABLE R-SQUARED SPACING: 0.0625
Info: NONBONDED TABLE SIZE: 705 POINTS
TCL: Setting parameter alchLambda2 to 0.8500000000000002
Info: NONBONDED TABLE R-SQUARED SPACING: 0.0625
Info: NONBONDED TABLE SIZE: 705 POINTS
TCL: Running for 1500000 steps
ETITLE: TS BOND ANGLE DIHED IMPRP ELECT VDW BOUNDARY MISC KINETIC TOTAL TEMP POTENTIAL TOTALAVG TEMPAVG PRESSURE GPRESSURE VOLUME PRESSAVG GPRESSAVG
ENERGY: 0 2.5174 13.4125 7.5495 0.0000 -10876.0252 1519.9525 0.0000 0.0000 1757.6547 -7574.9388 296.2626 -9332.5934 -7574.9388 296.2626 416.7647 492.8398 30794.3677 416.7647 492.8398
ENERGY: 300000 1.6497 12.6598 7.9524 0.0000 -10815.4140 1472.7770 0.0000 0.0000 1757.8812 -7562.4939 296.3008 -9320.3750 -7573.3881 299.0504 342.5622 450.6465 30467.5389 335.8855 403.9526
ENERGY: 600000 1.4003 11.4827 6.4130 0.0000 -10677.0189 1435.6141 0.0000 0.0000 1833.3728 -7388.7360 309.0253 -9222.1088 -7549.6781 300.8073 142.8477 204.2245 30855.7852 290.7021 372.6141
ENERGY: 900000 2.2767 11.5796 6.1612 0.0000 -10757.2892 1358.3862 0.0000 0.0000 1835.3170 -7543.5684 309.3530 -9378.8854 -7554.2880 301.4504 -753.3856 -654.2488 30504.1400 133.9188 211.0822
ENERGY: 1200000 1.5489 12.0736 9.0535 0.0000 -10807.1623 1451.3545 0.0000 0.0000 1789.5635 -7543.5682 301.6410 -9333.1317 -7545.3150 301.3315 202.2979 231.3671 30422.1915 96.4576 163.7025
ENERGY: 1500000 0.9284 10.7012 7.7827 0.0000 -10804.3836 1425.3681 0.0000 0.0000 1784.7120 -7574.8912 300.8233 -9359.6032 -7546.2140 300.8571 -336.7982 -260.8250 30696.3580 35.3624 101.6135
TCL: Running FEP window  18: Lambda1 0.8500000000000002 Lambda2 0.9000000000000002 [dLambda 0.050000000000000044]
TCL: Setting parameter firsttimestep to 0
TCL: Setting parameter alchLambda to 0.8500000000000002
Info: NONBONDED TABLE R-SQUARED SPACING: 0.0625
Info: NONBONDED TABLE SIZE: 705 POINTS
TCL: Setting parameter alchLambda2 to 0.9000000000000002
Info: NONBONDED TABLE R-SQUARED SPACING: 0.0625
Info: NONBONDED TABLE SIZE: 705 POINTS
TCL: Running for 1500000 steps
ETITLE: TS BOND ANGLE DIHED IMPRP ELECT VDW BOUNDARY MISC KINETIC TOTAL TEMP POTENTIAL TOTALAVG TEMPAVG PRESSURE GPRESSURE VOLUME PRESSAVG GPRESSAVG
ENERGY: 0 0.9284 10.7012 7.7827 0.0000 -10804.9050 1425.4723 0.0000 0.0000 1783.8299 -7576.1905 300.6746 -9360.0203 -7576.1905 300.6746 -325.7135 -246.6266 30696.3580 -325.7135 -246.6266
ENERGY: 300000 5.1044 7.8221 8.5734 0.0000 -10807.9633 1490.1049 0.0000 0.0000 1765.2499 -7531.1086 297.5428 -9296.3585 -7531.8225 300.3959 251.7419 337.9955 30706.2135 -17.7733 66.4344
ENERGY: 600000 1.4196 12.9821 6.1154 0.0000 -10896.3176 1541.5994 0.0000 0.0000 1773.8680 -7560.3331 298.9955 -9334.2011 -7547.7102 300.6197 866.0371 878.2302 30622.2835 173.9247 228.5989
ENERGY: 900000 1.8451 10.4072 7.1150 0.0000 -10927.8494 1499.5453 0.0000 0.0000 1829.6368 -7579.3001 308.3956 -9408.9369 -7551.5576 301.3533 343.1986 412.3115 30646.1738 51.8603 110.7945
ENERGY: 1200000 2.4033 8.4663 6.1919 0.0000 -10870.2922 1507.7642 0.0000 0.0000 1788.6446 -7556.8218 301.4862 -9345.4665 -7553.5200 300.5623 528.5681 630.0695 30391.7661 -23.0219 41.9117
ENERGY: 1500000 2.0962 8.2512 6.9664 0.0000 -10730.7387 1432.5014 0.0000 0.0000 1718.2757 -7562.6478 289.6251 -9280.9235 -7547.3139 300.4931 60.0821 179.0007 30600.6523 -53.6394 13.7523
TCL: Running FEP window  19: Lambda1 0.9000000000000002 Lambda2 0.9500000000000003 [dLambda 0.050000000000000044]
TCL: Setting parameter firsttimestep to 0
TCL: Setting parameter alchLambda to 0.9000000000000002
Info: NONBONDED TABLE R-SQUARED SPACING: 0.0625
Info: NONBONDED TABLE SIZE: 705 POINTS
TCL: Setting parameter alchLambda2 to 0.9500000000000003
Info: NONBONDED TABLE R-SQUARED SPACING: 0.0625
Info: NONBONDED TABLE SIZE: 705 POINTS
TCL: Running for 1500000 steps
ETITLE: TS BOND ANGLE DIHED IMPRP ELECT VDW BOUNDARY MISC KINETIC TOTAL TEMP POTENTIAL TOTALAVG TEMPAVG PRESSURE GPRESSURE VOLUME PRESSAVG GPRESSAVG
ENERGY: 0 2.0962 8.2512 6.9664 0.0000 -10732.1561 1434.2677 0.0000 0.0000 1717.3949 -7563.1797 289.4766 -9280.5746 -7563.1797 289.4766 120.1458 207.2324 30600.6523 120.1458 207.2324
ENERGY: 300000 2.0921 8.1313 8.9951 0.0000 -10873.4644 1490.5154 0.0000 0.0000 1863.4295 -7500.3010 314.0916 -9363.7305 -7520.4865 302.0456 557.2141 595.1742 30338.1842 -5.9264 64.0385
ENERGY: 600000 4.7156 12.8274 9.7847 0.0000 -10879.2254 1467.4391 0.0000 0.0000 1857.2051 -7527.2536 313.0424 -9384.4586 -7525.1839 302.6376 192.9219 244.5571 30421.2690 -1.2913 57.7761
ENERGY: 900000 2.8182 10.9217 7.2655 0.0000 -10879.2616 1475.3463 0.0000 0.0000 1809.2954 -7573.6145 304.9670 -9382.9099 -7533.2005 302.2734 363.4018 425.5072 30263.4062 -55.6071 -14.3553
ENERGY: 1200000 3.6508 9.4630 5.9211 0.0000 -10703.1777 1417.0076 0.0000 0.0000 1730.7390 -7536.3963 291.7258 -9267.1352 -7535.3388 301.5978 -257.9128 -258.7960 31339.7802 -48.5534 -1.9659
ENERGY: 1500000 5.6508 8.4707 6.7226 0.0000 -10734.5471 1411.9743 0.0000 0.0000 1786.6729 -7515.0558 301.1538 -9301.7287 -7530.4063 301.0305 -109.2252 -106.9758 30822.2958 -48.4570 -5.8307
TCL: Running FEP window  20: Lambda1 0.9500000000000003 Lambda2 1.0    [dLambda 0.04999999999999971]
TCL: Setting parameter firsttimestep to 0
TCL: Setting parameter alchLambda to 0.9500000000000003
Info: NONBONDED TABLE R-SQUARED SPACING: 0.0625
Info: NONBONDED TABLE SIZE: 705 POINTS
TCL: Setting parameter alchLambda2 to 1.0
Info: NONBONDED TABLE R-SQUARED SPACING: 0.0625
Info: NONBONDED TABLE SIZE: 705 POINTS
TCL: Running for 1500000 steps
ETITLE: TS BOND ANGLE DIHED IMPRP ELECT VDW BOUNDARY MISC KINETIC TOTAL TEMP POTENTIAL TOTALAVG TEMPAVG PRESSURE GPRESSURE VOLUME PRESSAVG GPRESSAVG
ENERGY: 0 5.6508 8.4707 6.7226 0.0000 -10735.7904 1412.6811 0.0000 0.0000 1785.7626 -7516.5026 301.0004 -9302.2652 -7516.5026 301.0004 -167.3131 -84.0065 30822.2958 -167.3131 -84.0065
ENERGY: 300000 5.1645 16.2189 7.1087 0.0000 -10848.3860 1517.8441 0.0000 0.0000 1801.5519 -7500.4979 303.6617 -9302.0497 -7488.2507 303.8065 516.9773 602.1990 30781.5665 268.9638 352.7196
ENERGY: 600000 3.6572 12.8508 7.9466 0.0000 -10854.7609 1471.6211 0.0000 0.0000 1779.5945 -7579.0906 299.9607 -9358.6852 -7526.9176 302.2997 277.9282 280.5371 30518.6575 151.7649 221.2050
ENERGY: 900000 4.8610 6.6464 7.5105 0.0000 -10816.1696 1438.7226 0.0000 0.0000 1750.9376 -7607.4916 295.1304 -9358.4292 -7544.3745 300.5865 -352.1341 -325.0026 31645.5048 -17.9205 46.4230
ENERGY: 1200000 2.3061 11.0548 6.5509 0.0000 -10665.8462 1310.8440 0.0000 0.0000 1765.6358 -7569.4546 297.6079 -9335.0904 -7549.5622 298.7372 -1216.2007 -1133.8488 31002.5191 -175.8209 -117.0238
ENERGY: 1500000 1.3802 7.7443 7.0938 0.0000 -10756.1810 1338.4499 0.0000 0.0000 1773.1149 -7628.3979 298.8685 -9401.5129 -7554.4367 298.3820 -926.0616 -821.9866 30400.4699 -181.3235 -116.2560
TCL: Exiting due to exit command.
