Info: SIMULATION PARAMETERS:
Info: TIMESTEP               2
Info: NUMBER OF STEPS        0
Info: STEPS PER CYCLE        10
Info: PERIODIC CELL BASIS 1  31.6207 0 0
Info: PERIODIC CELL BASIS 2  0 31.4222 0
Info: PERIODIC CELL BASIS 3  0 0 30.457
Info: PERIODIC CELL CENTER   0 0 0
Info: WRAPPING WATERS AROUND PERIODIC BOUNDARIES ON OUTPUT.
Info: WRAPPING ALL CLUSTERS AROUND PERIODIC BOUNDARIES ON OUTPUT.
Info: FIRST LDB TIMESTEP     50
Info: LAST LDB TIMESTEP     -1
Info: HOM BACKGROUND SCALING 1
Info: PME BACKGROUND SCALING 1
Info: MIN ATOMS PER PATCH    40
Info: EMPTY PATCH LOAD       40 ATOMS
Info: VELOCITY FILE          mobley_2609604_equil.vel
Info: CENTER OF MASS MOVING INITIALLY? NO
Info: DIELECTRIC             1
Info: EXCLUDE                SCALED ONE-FOUR
Info: 1-4 ELECTROSTATICS SCALED BY 0.833333
Info: MODIFIED 1-4 VDW PARAMETERS WILL BE USED
Info: DCD FILENAME           mobley_2609604_prod.dcd
Info: DCD FREQUENCY          100000
Info: DCD FIRST STEP         100000
Info: DCD FILE WILL CONTAIN UNIT CELL DATA
Info: XST FILENAME           mobley_2609604_prod.xst
Info: XST FREQUENCY          100000
Info: NO VELOCITY DCD OUTPUT
Info: NO FORCE DCD OUTPUT
Info: OUTPUT FILENAME        mobley_2609604_prod
Info: BINARY OUTPUT FILES WILL BE USED
Info: RESTART FILENAME       mobley_2609604_prod.restart
Info: RESTART FREQUENCY      100000
Info: BINARY RESTART FILES WILL BE USED
Info: CUTOFF                 9
Info: PAIRLIST DISTANCE      11
Info: PAIRLIST SHRINK RATE   0.01
Info: PAIRLIST GROW RATE     0.01
Info: PAIRLIST TRIGGER       0.3
Info: PAIRLISTS PER CYCLE    2
Info: PAIRLISTS ENABLED
Info: MARGIN                 2
Info: HYDROGEN GROUP CUTOFF  2.5
Info: PATCH DIMENSION        15.5
Info: ENERGY OUTPUT STEPS    100000
Info: ENERGY EVALUATION STEPS    100000
Info: OUTPUT ENERGY PRECISION 4
Info: CROSSTERM ENERGY INCLUDED IN DIHEDRAL
Info: TIMING OUTPUT STEPS    1000000
Info: PRESSURE OUTPUT STEPS  100000
Info: ALCHEMICAL FEP ON
Info: FEP CURRENT LAMBDA VALUE     1
Info: FEP COMPARISON LAMBDA VALUE  0.95
Info: FEP INTRA-ALCHEMICAL NON-BONDED INTERACTIONS WILL BE RETAINED
Info: FEP INTRA-ALCHEMICAL BONDED INTERACTIONS WILL BE RETAINED
Info: FEP VDW SHIFTING COEFFICIENT 5
Info: FEP ELEC. ACTIVE FOR ANNIHILATED PARTICLES BETWEEN LAMBDA = 0 AND LAMBDA = 0.5
Info: FEP ELEC. ACTIVE FOR EXNIHILATED PARTICLES BETWEEN LAMBDA = 0.5 AND LAMBDA = 1
Info: FEP VDW ACTIVE FOR ANNIHILATED PARTICLES BETWEEN LAMBDA = 0 AND LAMBDA = 1
Info: FEP VDW ACTIVE FOR EXNIHILATED PARTICLES BETWEEN LAMBDA = 0 AND LAMBDA = 1
Info: FEP BOND ACTIVE FOR ANNIHILATED PARTICLES BETWEEN LAMBDA = 1 AND LAMBDA = 1
Info: FEP BOND ACTIVE FOR EXNIHILATED PARTICLES BETWEEN LAMBDA = 0 AND LAMBDA = 0
Info: LANGEVIN DYNAMICS ACTIVE
Info: LANGEVIN TEMPERATURE   300
Info: LANGEVIN USING BBK INTEGRATOR
Info: LANGEVIN DAMPING COEFFICIENT IS 1 INVERSE PS
Info: LANGEVIN DYNAMICS APPLIED TO HYDROGENS
Info: LANGEVIN PISTON PRESSURE CONTROL ACTIVE
Info:        TARGET PRESSURE IS 1.01325 BAR
Info:     OSCILLATION PERIOD IS 50 FS
Info:             DECAY TIME IS 25 FS
Info:     PISTON TEMPERATURE IS 300 K
Info:       PRESSURE CONTROL IS GROUP-BASED
Info:    INITIAL STRAIN RATE IS 0.000259319 0.000259319 0.000259319
Info:       CELL FLUCTUATION IS ISOTROPIC
Info: PARTICLE MESH EWALD (PME) ACTIVE
Info: PME TOLERANCE               1e-06
Info: PME EWALD COEFFICIENT       0.348832
Info: PME INTERPOLATION ORDER     4
Info: PME GRID DIMENSIONS         32 32 32
Info: PME MAXIMUM GRID SPACING    1
Info: PME CALCULATION WILL BE PERFORMED ON GPU
Info: FULL ELECTROSTATIC EVALUATION FREQUENCY      2
Info: USING VERLET I (r-RESPA) MTS SCHEME.
Info: C1 SPLITTING OF LONG RANGE ELECTROSTATICS
Info: PLACING ATOMS IN PATCHES BY HYDROGEN GROUPS
Info: RIGID BONDS TO HYDROGEN : ALL
Info:         ERROR TOLERANCE : 1e-08
Info:          MAX ITERATIONS : 100
Info: RIGID WATER USING SETTLE ALGORITHM
Info: RANDOM NUMBER SEED     1743894271
Info: USE HYDROGEN BONDS?    NO
Info: Using AMBER format force field!
Info: AMBER PARM FILE        mobley_2609604.prmtop
Info: COORDINATE PDB         mobley_2609604.pdb
Info: Exclusions will be read from PARM file!
Info: SCNB (VDW SCALING)     2
Info: USING ARITHMETIC MEAN TO COMBINE L-J SIGMA PARAMETERS
Info: BINARY COORDINATES     mobley_2609604_equil.coor
Info: SUMMARY OF PARAMETERS:
Info: 4 BONDS
Info: 3 ANGLES
Info:   3 HARMONIC
Info:   0 COSINE-BASED
Info: 5 DIHEDRAL
Info: 0 IMPROPER
Info: 0 CROSSTERM
Info: 0 VDW
Info: 10 VDW_PAIRS
Info: 0 NBTHOLE_PAIRS
Info: To read alchdata from file: mobley_2609604.pdb
Info: To read alchflag data from column: 5
Info: STRUCTURE SUMMARY:
Info: 2936 ATOMS
Info: 2935 BONDS
Info: 42 ANGLES
Info: 66 DIHEDRALS
Info: 0 IMPROPERS
Info: 0 CROSSTERMS
Info: 3031 EXCLUSIONS
Info: 2929 RIGID BONDS
Info: ALCH: 0 ATOMS TO DISAPPEAR IN FINAL STATE
Info: ALCH: 23 ATOMS TO APPEAR IN FINAL STATE
Info: 5879 DEGREES OF FREEDOM
Info: 978 HYDROGEN GROUPS
Info: 4 ATOMS IN LARGEST HYDROGEN GROUP
Info: 978 MIGRATION GROUPS
Info: 4 ATOMS IN LARGEST MIGRATION GROUP
Info: TOTAL MASS = 17593.7 amu
Info: TOTAL CHARGE = 0.000299998 e
Info: MASS DENSITY = 0.965433 g/cm^3
Info: ATOM DENSITY = 0.0970199 atoms/A^3
Info: ADDED 0 IMPLICIT EXCLUSIONS
Info: NONBONDED TABLE R-SQUARED SPACING: 0.0625
Info: NONBONDED TABLE SIZE: 705 POINTS
Info: REDUCING NUMBER OF PATCHES TO IMPROVE LOAD BALANCE
Info: REMOVING COM VELOCITY -0.00847542 0.0405026 0.0156122
Info: Use 3D box decompostion in PME FFT.
Info: Updated CUDA force table with 4096 elements.
Info: Updated CUDA LJ table with 4 x 4 elements.
Info: Found 26 unique exclusion lists needing 80 bytes
TCL: Running for 1500000 steps
ETITLE: TS BOND ANGLE DIHED IMPRP ELECT VDW BOUNDARY MISC KINETIC TOTAL TEMP POTENTIAL TOTALAVG TEMPAVG PRESSURE GPRESSURE VOLUME PRESSAVG GPRESSAVG
ENERGY: 0 2.3930 9.0768 5.6605 0.0000 -10470.8368 1364.6625 0.0000 0.0000 1747.7034 -7341.3406 299.1952 -9089.0440 -7341.3406 299.1952 -272.5273 -196.8523 30261.8185 -272.5273 -196.8523
ENERGY: 300000 1.8838 12.9216 5.2935 0.0000 -10641.8038 1398.5488 0.0000 0.0000 1755.4281 -7467.7281 300.5176 -9223.1562 -7378.2875 300.1559 5.1623 94.0913 29594.8016 63.0897 115.7432
ENERGY: 600000 1.6641 18.6135 4.9618 0.0000 -10518.0834 1435.4810 0.0000 0.0000 1725.0113 -7332.3516 295.3105 -9057.3630 -7366.1766 300.3244 551.1994 613.8560 30042.0543 108.3261 171.4333
ENERGY: 900000 2.6500 7.5044 3.6808 0.0000 -10593.5059 1453.4178 0.0000 0.0000 1701.2086 -7425.0441 291.2356 -9126.2528 -7385.2485 298.6949 398.5311 414.1102 30247.9567 141.2143 194.2936
ENERGY: 1200000 4.2339 12.4238 3.4750 0.0000 -10544.8917 1367.0311 0.0000 0.0000 1773.7116 -7384.0163 303.6477 -9157.7279 -7396.3734 298.5254 -654.4451 -600.4531 30606.0192 -4.8559 48.6760
ENERGY: 1500000 1.4022 18.2299 3.6405 0.0000 -10736.1589 1549.4851 0.0000 0.0000 1785.3354 -7378.0659 305.6376 -9163.4012 -7399.6874 299.0829 967.2142 995.9098 30334.7391 52.7551 98.9619
TCL: Running FEP window   2: Lambda1 0.95   Lambda2 0.8999999999999999 [dLambda -0.050000000000000044]
TCL: Setting parameter firsttimestep to 0
TCL: Setting parameter alchLambda to 0.95
Info: NONBONDED TABLE R-SQUARED SPACING: 0.0625
Info: NONBONDED TABLE SIZE: 705 POINTS
TCL: Setting parameter alchLambda2 to 0.8999999999999999
Info: NONBONDED TABLE R-SQUARED SPACING: 0.0625
Info: NONBONDED TABLE SIZE: 705 POINTS
TCL: Running for 1500000 steps
ETITLE: TS BOND ANGLE DIHED IMPRP ELECT VDW BOUNDARY MISC KINETIC TOTAL TEMP POTENTIAL TOTALAVG TEMPAVG PRESSURE GPRESSURE VOLUME PRESSAVG GPRESSAVG
ENERGY: 0 1.4022 18.2299 3.6406 0.0000 -10736.1722 1549.8287 0.0000 0.0000 1784.4514 -7378.6195 305.4862 -9163.0709 -7378.6195 305.4862 903.2735 987.6890 30334.7391 903.2735 987.6890
ENERGY: 300000 3.6624 17.1261 4.7103 0.0000 -10740.8861 1496.9486 0.0000 0.0000 1804.5231 -7413.9155 308.9224 -9218.4386 -7423.3455 299.6332 336.5021 397.4464 30265.0164 349.4221 417.1611
ENERGY: 600000 2.0977 12.1069 5.0616 0.0000 -10531.2654 1350.1929 0.0000 0.0000 1754.5516 -7407.2547 300.3676 -9161.8063 -7413.6169 299.7126 -674.4100 -660.6657 30110.6408 -93.0798 -38.8724
ENERGY: 900000 2.5943 7.3484 6.6791 0.0000 -10390.2015 1311.6624 0.0000 0.0000 1787.7013 -7274.2160 306.0426 -9061.9173 -7392.7818 302.3024 -548.5778 -463.6790 30302.9641 -129.8419 -76.6076
ENERGY: 1200000 6.6583 15.1348 4.7476 0.0000 -10780.9415 1535.1620 0.0000 0.0000 1741.8942 -7477.3447 298.2007 -9219.2388 -7401.5506 301.9124 298.3933 373.2508 30424.0900 -21.3389 38.4588
ENERGY: 1500000 4.0943 11.0212 6.7210 0.0000 -10503.3072 1307.2920 0.0000 0.0000 1733.7744 -7440.4042 296.8107 -9174.1786 -7406.6810 301.6595 -1213.2271 -1086.2030 30372.7628 -126.6679 -62.7215
TCL: Running FEP window   3: Lambda1 0.8999999999999999 Lambda2 0.8499999999999999 [dLambda -0.050000000000000044]
TCL: Setting parameter firsttimestep to 0
TCL: Setting parameter alchLambda to 0.8999999999999999
Info: NONBONDED TABLE R-SQUARED SPACING: 0.0625
Info: NONBONDED TABLE SIZE: 705 POINTS
TCL: Setting parameter alchLambda2 to 0.8499999999999999
Info: NONBONDED TABLE R-SQUARED SPACING: 0.0625
Info: NONBONDED TABLE SIZE: 705 POINTS
TCL: Running for 1500000 steps
ETITLE: TS BOND ANGLE DIHED IMPRP ELECT VDW BOUNDARY MISC KINETIC TOTAL TEMP POTENTIAL TOTALAVG TEMPAVG PRESSURE GPRESSURE VOLUME PRESSAVG GPRESSAVG
ENERGY: 0 4.0943 11.0212 6.7210 0.0000 -10503.3213 1308.0116 0.0000 0.0000 1732.8775 -7440.5955 296.6571 -9173.4730 -7440.5955 296.6571 -1174.2162 -1088.3308 30372.7628 -1174.2162 -1088.3308
ENERGY: 300000 1.0078 12.0132 3.7446 0.0000 -10623.8731 1417.6647 0.0000 0.0000 1747.8187 -7441.6241 299.2150 -9189.4428 -7447.9499 294.6904 -13.3834 49.4337 30094.2958 -169.7809 -141.9962
ENERGY: 600000 4.8769 11.5723 4.9418 0.0000 -10768.5766 1445.0979 0.0000 0.0000 1765.4901 -7536.5975 302.2402 -9302.0877 -7464.2591 295.1201 -324.2220 -295.4546 30066.4134 -228.0146 -190.4309
ENERGY: 900000 2.4861 17.5825 5.6762 0.0000 -10553.1114 1416.4667 0.0000 0.0000 1735.0074 -7375.8925 297.0218 -9110.8999 -7441.1220 295.3932 -199.1423 -93.0628 30749.5847 -225.6013 -173.0509
ENERGY: 1200000 3.5894 9.7092 6.7427 0.0000 -10752.8343 1549.2645 0.0000 0.0000 1729.3520 -7454.1765 296.0536 -9183.5285 -7431.6898 296.4864 886.4113 929.7030 30254.7062 -66.4129 -16.0669
ENERGY: 1500000 2.2055 10.5559 2.9366 0.0000 -10777.1996 1508.7557 0.0000 0.0000 1755.1556 -7497.5903 300.4710 -9252.7459 -7435.0231 296.0471 292.5102 334.7727 30247.9419 -76.1939 -23.0203
TCL: Running FEP window   4: Lambda1 0.8499999999999999 Lambda2 0.7999999999999998 [dLambda -0.050000000000000044]
TCL: Setting parameter firsttimestep to 0
TCL: Setting parameter alchLambda to 0.8499999999999999
Info: NONBONDED TABLE R-SQUARED SPACING: 0.0625
Info: NONBONDED TABLE SIZE: 705 POINTS
TCL: Setting parameter alchLambda2 to 0.7999999999999998
Info: NONBONDED TABLE R-SQUARED SPACING: 0.0625
Info: NONBONDED TABLE SIZE: 705 POINTS
TCL: Running for 1500000 steps
ETITLE: TS BOND ANGLE DIHED IMPRP ELECT VDW BOUNDARY MISC KINETIC TOTAL TEMP POTENTIAL TOTALAVG TEMPAVG PRESSURE GPRESSURE VOLUME PRESSAVG GPRESSAVG
ENERGY: 0 2.2055 10.5559 2.9366 0.0000 -10777.1965 1509.1882 0.0000 0.0000 1754.2836 -7498.0266 300.3217 -9252.3102 -7498.0266 300.3217 252.3447 333.9112 30247.9419 252.3447 333.9112
ENERGY: 300000 2.3085 11.4591 5.4330 0.0000 -10574.5571 1405.8260 0.0000 0.0000 1742.3967 -7407.1338 298.2868 -9149.5305 -7436.5874 299.6302 -333.0936 -254.2683 30686.6673 -16.7934 47.3119
ENERGY: 600000 0.4705 13.9490 4.9938 0.0000 -10677.3067 1479.7978 0.0000 0.0000 1718.2356 -7459.8600 294.1505 -9178.0957 -7417.5844 301.1960 112.8697 140.8585 30398.6454 -129.3129 -77.4040
ENERGY: 900000 5.2223 12.9284 3.7415 0.0000 -10815.9658 1593.7924 0.0000 0.0000 1734.5908 -7465.6902 296.9504 -9200.2810 -7428.6015 299.6525 1042.8782 1134.4588 30068.0990 85.1856 131.2314
ENERGY: 1200000 2.8554 10.1943 3.9485 0.0000 -10546.5707 1391.3122 0.0000 0.0000 1739.6025 -7398.6580 297.8084 -9138.2604 -7422.0557 300.2395 -289.5225 -271.8903 30378.8394 88.2145 132.3110
ENERGY: 1500000 2.4371 13.0010 3.0765 0.0000 -10629.2995 1382.8751 0.0000 0.0000 1771.1450 -7456.7648 303.2083 -9227.9098 -7420.4746 301.6501 -486.1208 -340.4091 29955.2938 -28.0058 30.1545
TCL: Running FEP window   5: Lambda1 0.7999999999999998 Lambda2 0.7499999999999998 [dLambda -0.050000000000000044]
TCL: Setting parameter firsttimestep to 0
TCL: Setting parameter alchLambda to 0.7999999999999998
Info: NONBONDED TABLE R-SQUARED SPACING: 0.0625
Info: NONBONDED TABLE SIZE: 705 POINTS
TCL: Setting parameter alchLambda2 to 0.7499999999999998
Info: NONBONDED TABLE R-SQUARED SPACING: 0.0625
Info: NONBONDED TABLE SIZE: 705 POINTS
TCL: Running for 1500000 steps
ETITLE: TS BOND ANGLE DIHED IMPRP ELECT VDW BOUNDARY MISC KINETIC TOTAL TEMP POTENTIAL TOTALAVG TEMPAVG PRESSURE GPRESSURE VOLUME PRESSAVG GPRESSAVG
ENERGY: 0 2.4371 13.0010 3.0765 0.0000 -10629.3108 1382.6903 0.0000 0.0000 1770.2742 -7457.8317 303.0592 -9228.1059 -7457.8317 303.0592 -444.0261 -354.3196 29955.2938 -444.0261 -354.3196
ENERGY: 300000 0.9902 10.4314 3.9305 0.0000 -10519.8308 1273.9619 0.0000 0.0000 1769.7907 -7460.7262 302.9764 -9230.5169 -7435.1573 300.7559 -1154.3827 -1132.5509 29945.8865 -136.7848 -77.3723
ENERGY: 600000 2.7189 11.9806 4.4901 0.0000 -10719.1489 1467.6605 0.0000 0.0000 1786.4531 -7445.8457 305.8289 -9232.2988 -7414.3484 302.8783 -154.5030 -100.5761 30665.7531 -203.7722 -148.1211
ENERGY: 900000 3.1439 14.3245 3.8550 0.0000 -10487.2528 1366.3677 0.0000 0.0000 1758.3759 -7341.1858 301.0223 -9099.5617 -7398.3376 303.0150 -368.9920 -255.4987 30391.1180 -233.3296 -167.4910
ENERGY: 1200000 2.5889 11.1029 3.8903 0.0000 -10504.9389 1300.8638 0.0000 0.0000 1804.6633 -7381.8297 308.9464 -9186.4930 -7404.9079 302.9477 -955.4043 -906.7917 30107.7349 -295.2379 -231.6021
ENERGY: 1500000 5.2182 9.4063 3.2359 0.0000 -10535.2700 1290.4864 0.0000 0.0000 1755.5164 -7471.4068 300.5328 -9226.9232 -7419.6252 302.6118 -1456.6895 -1408.5436 30335.6044 -315.2040 -248.6089
TCL: Running FEP window   6: Lambda1 0.7499999999999998 Lambda2 0.6999999999999997 [dLambda -0.050000000000000044]
TCL: Setting parameter firsttimestep to 0
TCL: Setting parameter alchLambda to 0.7499999999999998
Info: NONBONDED TABLE R-SQUARED SPACING: 0.0625
Info: NONBONDED TABLE SIZE: 705 POINTS
TCL: Setting parameter alchLambda2 to 0.6999999999999997
Info: NONBONDED TABLE R-SQUARED SPACING: 0.0625
Info: NONBONDED TABLE SIZE: 705 POINTS
TCL: Running for 1500000 steps
ETITLE: TS BOND ANGLE DIHED IMPRP ELECT VDW BOUNDARY MISC KINETIC TOTAL TEMP POTENTIAL TOTALAVG TEMPAVG PRESSURE GPRESSURE VOLUME PRESSAVG GPRESSAVG
ENERGY: 0 5.2182 9.4063 3.2359 0.0000 -10535.2950 1290.4104 0.0000 0.0000 1754.6245 -7472.3997 300.3801 -9227.0242 -7472.3997 300.3801 -1518.6466 -1419.6434 30335.6044 -1518.6466 -1419.6434
ENERGY: 300000 6.3316 7.5577 4.0398 0.0000 -10658.2027 1458.7281 0.0000 0.0000 1782.5911 -7398.9542 305.1678 -9181.5454 -7451.3775 302.4537 159.8789 181.4145 30242.7845 -262.5456 -217.4542
ENERGY: 600000 3.8736 13.5399 5.3680 0.0000 -10734.1378 1506.3618 0.0000 0.0000 1797.6531 -7407.3414 307.7463 -9204.9944 -7429.1626 302.8622 508.5891 455.6283 30103.7911 -31.3957 6.6810
ENERGY: 900000 4.9645 10.8699 3.5660 0.0000 -10608.0830 1357.7183 0.0000 0.0000 1775.4777 -7455.4867 303.9500 -9230.9644 -7459.3020 301.0127 -747.2481 -690.2094 30014.1215 -49.4574 -7.6558
ENERGY: 1200000 3.1530 6.8977 5.5637 0.0000 -10631.7716 1448.4599 0.0000 0.0000 1752.1789 -7415.5184 299.9614 -9167.6973 -7454.8897 301.2406 -171.0367 -106.4399 30538.3125 69.0693 123.6608
ENERGY: 1500000 1.6615 11.2471 3.5452 0.0000 -10640.8818 1468.9190 0.0000 0.0000 1744.3498 -7411.1592 298.6211 -9155.5090 -7455.8691 299.9956 525.7021 616.2395 29870.2235 55.3208 118.0456
TCL: Running FEP window   7: Lambda1 0.6999999999999997 Lambda2 0.6499999999999997 [dLambda -0.050000000000000044]
TCL: Setting parameter firsttimestep to 0
TCL: Setting parameter alchLambda to 0.6999999999999997
Info: NONBONDED TABLE R-SQUARED SPACING: 0.0625
Info: NONBONDED TABLE SIZE: 705 POINTS
TCL: Setting parameter alchLambda2 to 0.6499999999999997
Info: NONBONDED TABLE R-SQUARED SPACING: 0.0625
Info: NONBONDED TABLE SIZE: 705 POINTS
TCL: Running for 1500000 steps
ETITLE: TS BOND ANGLE DIHED IMPRP ELECT VDW BOUNDARY MISC KINETIC TOTAL TEMP POTENTIAL TOTALAVG TEMPAVG PRESSURE GPRESSURE VOLUME PRESSAVG GPRESSAVG
ENERGY: 0 1.6615 11.2471 3.5452 0.0000 -10640.8849 1468.9456 0.0000 0.0000 1743.4797 -7412.0058 298.4721 -9155.4855 -7412.0058 298.4721 502.7077 603.3225 29870.2235 502.7077 603.3225
ENERGY: 300000 0.7486 11.9552 3.6830 0.0000 -10619.1661 1457.8883 0.0000 0.0000 1716.4847 -7428.4063 293.8508 -9144.8910 -7440.5357 296.4178 457.5717 476.3450 29826.9563 25.7823 98.8902
ENERGY: 600000 1.7426 9.6951 4.1916 0.0000 -10568.4034 1407.4569 0.0000 0.0000 1729.0397 -7416.2775 296.0001 -9145.3172 -7434.9324 296.8555 -66.5833 32.7818 29907.7408 41.8755 123.0259
ENERGY: 900000 3.1805 10.3010 5.0561 0.0000 -10604.1696 1425.6236 0.0000 0.0000 1796.8212 -7363.1871 307.6039 -9160.0083 -7432.7984 298.0260 -48.1290 10.8614 30093.5811 65.5030 135.3915
ENERGY: 1200000 3.4446 13.6428 3.5901 0.0000 -10671.9381 1476.2523 0.0000 0.0000 1737.1813 -7437.8270 297.3939 -9175.0083 -7437.2215 298.2258 308.1093 455.3499 30204.0046 132.9789 205.0177
ENERGY: 1500000 1.3753 12.2636 3.4478 0.0000 -10680.1730 1502.2060 0.0000 0.0000 1765.7185 -7395.1617 302.2793 -9160.8803 -7427.1489 298.4810 721.6459 779.2252 30026.7439 72.8659 141.7244
TCL: Running FEP window   8: Lambda1 0.6499999999999997 Lambda2 0.5999999999999996 [dLambda -0.050000000000000044]
TCL: Setting parameter firsttimestep to 0
TCL: Setting parameter alchLambda to 0.6499999999999997
Info: NONBONDED TABLE R-SQUARED SPACING: 0.0625
Info: NONBONDED TABLE SIZE: 705 POINTS
TCL: Setting parameter alchLambda2 to 0.5999999999999996
Info: NONBONDED TABLE R-SQUARED SPACING: 0.0625
Info: NONBONDED TABLE SIZE: 705 POINTS
TCL: Running for 1500000 steps
ETITLE: TS BOND ANGLE DIHED IMPRP ELECT VDW BOUNDARY MISC KINETIC TOTAL TEMP POTENTIAL TOTALAVG TEMPAVG PRESSURE GPRESSURE VOLUME PRESSAVG GPRESSAVG
ENERGY: 0 1.3753 12.2636 3.4478 0.0000 -10680.2175 1502.3364 0.0000 0.0000 1764.8560 -7395.9385 302.1316 -9160.7945 -7395.9385 302.1316 692.6495 770.2363 30026.7439 692.6495 770.2363
ENERGY: 300000 2.5685 16.3936 5.4034 0.0000 -10519.8573 1333.0516 0.0000 0.0000 1741.7393 -7420.7010 298.1742 -9162.4403 -7389.0520 302.6413 -525.1062 -495.4861 29466.6760 -151.2295 -95.9401
ENERGY: 600000 2.8404 12.2936 5.5460 0.0000 -10623.7126 1391.0469 0.0000 0.0000 1710.3699 -7501.6159 292.8040 -9211.9858 -7411.6551 302.1160 -427.1850 -374.6806 29985.0024 -164.1601 -108.1292
ENERGY: 900000 1.0147 17.5191 3.5825 0.0000 -10524.1255 1430.8824 0.0000 0.0000 1772.2743 -7298.8524 303.4016 -9071.1267 -7396.1662 301.6213 247.0332 303.0698 30473.2992 -146.2416 -81.4529
ENERGY: 1200000 4.2847 10.3152 5.0387 0.0000 -10574.6765 1338.2194 0.0000 0.0000 1789.1688 -7427.6496 306.2938 -9216.8184 -7401.8054 301.9108 -1215.1384 -1181.9638 30714.8854 -91.5754 -32.1284
ENERGY: 1500000 2.9037 8.5656 4.2279 0.0000 -10663.7504 1419.5802 0.0000 0.0000 1789.2614 -7439.2116 306.3097 -9228.4730 -7401.3139 301.7773 -103.9460 -132.9473 29799.6844 -109.5720 -52.1879
TCL: Running FEP window   9: Lambda1 0.5999999999999996 Lambda2 0.5499999999999996 [dLambda -0.050000000000000044]
TCL: Setting parameter firsttimestep to 0
TCL: Setting parameter alchLambda to 0.5999999999999996
Info: NONBONDED TABLE R-SQUARED SPACING: 0.0625
Info: NONBONDED TABLE SIZE: 705 POINTS
TCL: Setting parameter alchLambda2 to 0.5499999999999996
Info: NONBONDED TABLE R-SQUARED SPACING: 0.0625
Info: NONBONDED TABLE SIZE: 705 POINTS
TCL: Running for 1500000 steps
ETITLE: TS BOND ANGLE DIHED IMPRP ELECT VDW BOUNDARY MISC KINETIC TOTAL TEMP POTENTIAL TOTALAVG TEMPAVG PRESSURE GPRESSURE VOLUME PRESSAVG GPRESSAVG
ENERGY: 0 2.9037 8.5656 4.2279 0.0000 -10663.7670 1420.0696 0.0000 0.0000 1788.3752 -7439.6251 306.1580 -9228.0003 -7439.6251 306.1580 -198.9269 -135.3848 29799.6844 -198.9269 -135.3848
ENERGY: 300000 2.2239 10.1052 3.5714 0.0000 -10595.8942 1424.4209 0.0000 0.0000 1718.8600 -7436.7128 294.2574 -9155.5728 -7442.4755 303.6932 161.6953 196.5114 29762.2476 45.1594 100.6999
ENERGY: 600000 1.8860 14.7251 4.0970 0.0000 -10655.9079 1460.2341 0.0000 0.0000 1748.8979 -7426.0678 299.3997 -9174.9657 -7433.3002 302.2875 106.0130 197.3043 30255.2297 132.6629 188.2025
ENERGY: 900000 2.0508 9.3628 4.9681 0.0000 -10810.0126 1559.7097 0.0000 0.0000 1753.9414 -7479.9798 300.2631 -9233.9212 -7418.8998 301.9281 735.5860 795.9440 30002.1444 180.0838 239.5331
ENERGY: 1200000 6.6164 10.8125 3.9730 0.0000 -10658.7722 1451.6680 0.0000 0.0000 1764.3554 -7421.3469 302.0459 -9185.7023 -7409.9603 301.8602 131.9970 224.3125 29745.4359 125.7932 192.5102
ENERGY: 1500000 3.8153 14.4338 3.4867 0.0000 -10552.5275 1400.6266 0.0000 0.0000 1782.2870 -7347.8781 305.1157 -9130.1652 -7401.7342 302.0346 -250.0625 -221.9001 30169.4488 48.4078 109.8547
TCL: Running FEP window  10: Lambda1 0.5499999999999996 Lambda2 0.4999999999999996 [dLambda -0.04999999999999999]
TCL: Setting parameter firsttimestep to 0
TCL: Setting parameter alchLambda to 0.5499999999999996
Info: NONBONDED TABLE R-SQUARED SPACING: 0.0625
Info: NONBONDED TABLE SIZE: 705 POINTS
TCL: Setting parameter alchLambda2 to 0.4999999999999996
Info: NONBONDED TABLE R-SQUARED SPACING: 0.0625
Info: NONBONDED TABLE SIZE: 705 POINTS
TCL: Running for 1500000 steps
ETITLE: TS BOND ANGLE DIHED IMPRP ELECT VDW BOUNDARY MISC KINETIC TOTAL TEMP POTENTIAL TOTALAVG TEMPAVG PRESSURE GPRESSURE VOLUME PRESSAVG GPRESSAVG
ENERGY: 0 3.8153 14.4338 3.4867 0.0000 -10552.5375 1400.9791 0.0000 0.0000 1781.4023 -7348.4203 304.9643 -9129.8226 -7348.4203 304.9643 -306.5701 -225.1731 30169.4488 -306.5701 -225.1731
ENERGY: 300000 3.8711 10.2298 3.6581 0.0000 -10445.6803 1330.2386 0.0000 0.0000 1762.9047 -7334.7780 301.7976 -9097.6827 -7359.9996 304.1566 -814.0649 -713.0511 30322.7019 -328.7342 -260.8176
ENERGY: 600000 1.7286 14.2117 4.6428 0.0000 -10495.3292 1336.8083 0.0000 0.0000 1797.6430 -7340.2948 307.7445 -9137.9378 -7375.3073 302.5657 -433.9726 -371.6922 30240.1952 -475.6909 -416.1967
ENERGY: 900000 5.9752 10.5398 4.1494 0.0000 -10375.3670 1280.9872 0.0000 0.0000 1739.4654 -7334.2502 297.7849 -9073.7155 -7400.0499 300.9157 -1283.0766 -1235.4277 30632.2104 -472.1312 -416.3775
ENERGY: 1200000 3.7977 12.4039 3.2469 0.0000 -10533.1210 1425.0779 0.0000 0.0000 1750.1805 -7338.4141 299.6193 -9088.5946 -7393.7937 300.9002 -13.0828 89.7922 30125.5744 -432.4054 -374.2813
ENERGY: 1500000 2.5243 15.3584 3.3122 0.0000 -10681.0401 1467.7381 0.0000 0.0000 1795.1543 -7396.9528 307.3185 -9192.1071 -7394.2717 301.1902 462.3145 492.8069 29774.1184 -268.0867 -211.5826
TCL: Running FEP window  11: Lambda1 0.4999999999999996 Lambda2 0.4499999999999996 [dLambda -0.04999999999999999]
TCL: Setting parameter firsttimestep to 0
TCL: Setting parameter alchLambda to 0.4999999999999996
Info: NONBONDED TABLE R-SQUARED SPACING: 0.0625
Info: NONBONDED TABLE SIZE: 705 POINTS
TCL: Setting parameter alchLambda2 to 0.4499999999999996
Info: NONBONDED TABLE R-SQUARED SPACING: 0.0625
Info: NONBONDED TABLE SIZE: 705 POINTS
TCL: Running for 1500000 steps
ETITLE: TS BOND ANGLE DIHED IMPRP ELECT VDW BOUNDARY MISC KINETIC TOTAL TEMP POTENTIAL TOTALAVG TEMPAVG PRESSURE GPRESSURE VOLUME PRESSAVG GPRESSAVG
ENERGY: 0 2.5242 15.3584 3.3122 0.0000 -10681.0159 1467.9869 0.0000 0.0000 1794.2791 -7397.5551 307.1687 -9191.8341 -7397.5551 307.1687 403.5264 487.7408 29774.1184 403.5264 487.7408
ENERGY: 300000 2.1329 9.5510 3.9896 0.0000 -10554.5342 1407.9122 0.0000 0.0000 1803.3210 -7327.6274 308.7166 -9130.9485 -7408.0975 301.7217 -101.1172 -19.5801 30292.0018 -95.1465 -37.5734
ENERGY: 600000 3.6353 8.0792 4.3770 0.0000 -10627.2943 1412.3019 0.0000 0.0000 1780.6878 -7418.2130 304.8419 -9198.9008 -7385.7478 300.8630 -152.2858 -103.2512 29959.3349 -6.9112 47.2960
ENERGY: 900000 1.3182 13.7694 5.1259 0.0000 -10648.4861 1451.1524 0.0000 0.0000 1759.6618 -7417.4583 301.2424 -9177.1201 -7385.5181 301.4429 317.6487 383.8590 29945.0329 39.1308 101.7485
ENERGY: 1200000 2.3330 12.7156 4.0487 0.0000 -10611.9879 1393.0291 0.0000 0.0000 1781.4960 -7418.3655 304.9803 -9199.8615 -7389.5230 301.9803 -597.8440 -464.3185 30257.3387 15.6223 89.3258
ENERGY: 1500000 3.9367 10.8341 3.1865 0.0000 -10489.7944 1315.8599 0.0000 0.0000 1723.1544 -7432.8228 294.9926 -9155.9772 -7398.9901 300.7101 -1169.9721 -1076.9938 30370.9994 -14.0034 56.5049
TCL: Running FEP window  12: Lambda1 0.4499999999999996 Lambda2 0.39999999999999963 [dLambda -0.04999999999999999]
TCL: Setting parameter firsttimestep to 0
TCL: Setting parameter alchLambda to 0.4499999999999996
Info: NONBONDED TABLE R-SQUARED SPACING: 0.0625
Info: NONBONDED TABLE SIZE: 705 POINTS
TCL: Setting parameter alchLambda2 to 0.39999999999999963
Info: NONBONDED TABLE R-SQUARED SPACING: 0.0625
Info: NONBONDED TABLE SIZE: 705 POINTS
TCL: Running for 1500000 steps
ETITLE: TS BOND ANGLE DIHED IMPRP ELECT VDW BOUNDARY MISC KINETIC TOTAL TEMP POTENTIAL TOTALAVG TEMPAVG PRESSURE GPRESSURE VOLUME PRESSAVG GPRESSAVG
ENERGY: 0 3.9367 10.8341 3.1865 0.0000 -10489.7953 1316.0273 0.0000 0.0000 1722.2872 -7433.5236 294.8441 -9155.8108 -7433.5236 294.8441 -1169.2524 -1084.6195 30370.9994 -1169.2524 -1084.6195
ENERGY: 300000 2.3287 19.2379 3.4020 0.0000 -10720.2713 1471.1829 0.0000 0.0000 1754.9125 -7469.2073 300.4294 -9224.1198 -7431.7175 300.1475 8.7741 178.6810 29926.3509 -287.7241 -210.9495
ENERGY: 600000 3.5498 10.4007 5.9546 0.0000 -10537.2462 1335.2256 0.0000 0.0000 1712.7138 -7469.4017 293.2052 -9182.1155 -7427.2748 299.1694 -897.6885 -866.9086 30355.2539 -114.3254 -54.1088
ENERGY: 900000 3.7558 13.4846 4.7474 0.0000 -10685.5686 1466.1406 0.0000 0.0000 1746.1668 -7451.2733 298.9322 -9197.4401 -7423.2595 298.5331 235.2649 281.1078 29906.0274 -69.3677 -4.0519
ENERGY: 1200000 4.6585 13.4977 4.0902 0.0000 -10590.6164 1377.6454 0.0000 0.0000 1734.7838 -7455.9409 296.9835 -9190.7246 -7411.1563 299.2672 -735.7247 -628.5004 30431.9151 -120.5193 -53.9234
ENERGY: 1500000 5.9710 12.3465 3.4349 0.0000 -10473.1886 1418.1000 0.0000 0.0000 1720.5198 -7312.8164 294.5416 -9033.3362 -7405.5839 298.8758 29.5156 88.4419 30341.8032 -73.9313 -11.6182
TCL: Running FEP window  13: Lambda1 0.39999999999999963 Lambda2 0.34999999999999964 [dLambda -0.04999999999999999]
TCL: Setting parameter firsttimestep to 0
TCL: Setting parameter alchLambda to 0.39999999999999963
Info: NONBONDED TABLE R-SQUARED SPACING: 0.0625
Info: NONBONDED TABLE SIZE: 705 POINTS
TCL: Setting parameter alchLambda2 to 0.34999999999999964
Info: NONBONDED TABLE R-SQUARED SPACING: 0.0625
Info: NONBONDED TABLE SIZE: 705 POINTS
TCL: Running for 1500000 steps
ETITLE: TS BOND ANGLE DIHED IMPRP ELECT VDW BOUNDARY MISC KINETIC TOTAL TEMP POTENTIAL TOTALAVG TEMPAVG PRESSURE GPRESSURE VOLUME PRESSAVG GPRESSAVG
ENERGY: 0 5.9710 12.3465 3.4349 0.0000 -10473.1894 1418.4697 0.0000 0.0000 1719.6955 -7313.2719 294.4005 -9032.9674 -7313.2719 294.4005 -0.5265 84.6743 30341.8032 -0.5265 84.6743
ENERGY: 300000 2.2263 10.1850 3.7694 0.0000 -10538.2043 1433.6708 0.0000 0.0000 1772.6710 -7315.6818 303.4695 -9088.3527 -7371.6123 299.1560 233.4293 235.4183 30181.5998 133.7882 191.1873
ENERGY: 600000 1.3043 9.4477 4.2217 0.0000 -10597.0524 1481.5005 0.0000 0.0000 1723.3377 -7377.2405 295.0240 -9100.5782 -7382.8621 298.9909 668.7657 761.9317 29915.7076 88.0982 138.8352
ENERGY: 900000 1.2584 11.8817 3.7953 0.0000 -10719.9866 1559.7229 0.0000 0.0000 1735.8830 -7407.4453 297.1716 -9143.3283 -7399.0860 299.1414 1156.4970 1258.1092 29834.1416 222.6350 274.8328
ENERGY: 1200000 1.9526 13.5775 4.2412 0.0000 -10675.4397 1474.7971 0.0000 0.0000 1800.8820 -7379.9893 308.2991 -9180.8714 -7393.7862 300.9358 239.0909 345.5066 29827.0444 182.6683 246.4880
ENERGY: 1500000 1.1454 13.6642 7.5397 0.0000 -10728.3362 1553.5687 0.0000 0.0000 1765.6862 -7386.7319 302.2738 -9152.4181 -7398.8296 300.5726 1238.5124 1274.6360 29623.0027 240.0689 308.6157
TCL: Running FEP window  14: Lambda1 0.34999999999999964 Lambda2 0.29999999999999966 [dLambda -0.04999999999999999]
TCL: Setting parameter firsttimestep to 0
TCL: Setting parameter alchLambda to 0.34999999999999964
Info: NONBONDED TABLE R-SQUARED SPACING: 0.0625
Info: NONBONDED TABLE SIZE: 705 POINTS
TCL: Setting parameter alchLambda2 to 0.29999999999999966
Info: NONBONDED TABLE R-SQUARED SPACING: 0.0625
Info: NONBONDED TABLE SIZE: 705 POINTS
TCL: Running for 1500000 steps
ETITLE: TS BOND ANGLE DIHED IMPRP ELECT VDW BOUNDARY MISC KINETIC TOTAL TEMP POTENTIAL TOTALAVG TEMPAVG PRESSURE GPRESSURE VOLUME PRESSAVG GPRESSAVG
ENERGY: 0 1.1454 13.6642 7.5397 0.0000 -10728.3358 1553.9626 0.0000 0.0000 1764.8276 -7387.1963 302.1268 -9152.0239 -7387.1963 302.1268 1191.9463 1272.1182 29623.0027 1191.9463 1272.1182
ENERGY: 300000 2.0598 10.2802 3.4262 0.0000 -10627.0178 1391.6504 0.0000 0.0000 1792.2833 -7427.3179 306.8270 -9219.6012 -7419.6470 300.8801 -506.6739 -492.5747 30282.4101 261.1910 312.9759
ENERGY: 600000 3.1696 7.0395 4.1942 0.0000 -10573.7652 1453.3268 0.0000 0.0000 1753.4875 -7352.5476 300.1854 -9106.0351 -7398.5934 300.3080 110.6386 196.0295 30177.7218 128.0542 189.5596
ENERGY: 900000 0.9528 10.5731 4.0864 0.0000 -10725.3559 1471.2541 0.0000 0.0000 1756.9710 -7481.5185 300.7818 -9238.4895 -7416.5883 298.8260 51.5189 155.7932 29897.1714 105.6355 164.5401
ENERGY: 1200000 3.4550 14.5696 3.7949 0.0000 -10632.9802 1429.7720 0.0000 0.0000 1737.7355 -7443.6532 297.4888 -9181.3888 -7403.2377 300.0210 -162.7559 -186.4389 30308.2096 34.6203 81.6325
ENERGY: 1500000 3.5916 12.2127 3.5042 0.0000 -10456.7328 1347.2124 0.0000 0.0000 1726.1113 -7364.1006 295.4988 -9090.2119 -7403.0015 299.0035 -562.2259 -452.8736 30438.3682 -33.5079 19.6412
TCL: Running FEP window  15: Lambda1 0.29999999999999966 Lambda2 0.24999999999999967 [dLambda -0.04999999999999999]
TCL: Setting parameter firsttimestep to 0
TCL: Setting parameter alchLambda to 0.29999999999999966
Info: NONBONDED TABLE R-SQUARED SPACING: 0.0625
Info: NONBONDED TABLE SIZE: 705 POINTS
TCL: Setting parameter alchLambda2 to 0.24999999999999967
Info: NONBONDED TABLE R-SQUARED SPACING: 0.0625
Info: NONBONDED TABLE SIZE: 705 POINTS
TCL: Running for 1500000 steps
ETITLE: TS BOND ANGLE DIHED IMPRP ELECT VDW BOUNDARY MISC KINETIC TOTAL TEMP POTENTIAL TOTALAVG TEMPAVG PRESSURE GPRESSURE VOLUME PRESSAVG GPRESSAVG
ENERGY: 0 3.5916 12.2127 3.5042 0.0000 -10456.7325 1346.8334 0.0000 0.0000 1725.2469 -7365.3437 295.3508 -9090.5906 -7365.3437 295.3508 -535.0143 -461.0683 30438.3682 -535.0143 -461.0683
ENERGY: 300000 0.3335 11.7117 5.6678 0.0000 -10466.6364 1340.8363 0.0000 0.0000 1689.3610 -7418.7260 289.2074 -9108.0871 -7425.5084 297.2057 -426.3428 -367.1611 30116.6641 -183.0440 -107.1052
ENERGY: 600000 1.1118 14.1663 6.0346 0.0000 -10575.2263 1346.5942 0.0000 0.0000 1769.5034 -7437.8160 302.9272 -9207.3193 -7389.1256 301.4831 -668.4761 -552.8759 29827.7540 -369.2262 -273.6640
ENERGY: 900000 2.6406 9.0453 4.1084 0.0000 -10665.1292 1430.5782 0.0000 0.0000 1822.9655 -7395.7911 312.0796 -9218.7566 -7394.3260 301.8932 -48.7589 10.7698 29809.7145 -323.4631 -237.6302
ENERGY: 1200000 2.0503 12.8426 4.8263 0.0000 -10608.6596 1443.0556 0.0000 0.0000 1749.9663 -7395.9185 299.5826 -9145.8848 -7393.4646 301.5828 -36.5899 54.4004 30275.2094 -357.2053 -270.2626
ENERGY: 1500000 3.1299 14.0354 3.7302 0.0000 -10702.7969 1527.1594 0.0000 0.0000 1683.0198 -7471.7221 288.1218 -9154.7419 -7397.7032 300.8850 943.4911 1034.8931 29586.5563 -228.9715 -147.6679
TCL: Running FEP window  16: Lambda1 0.24999999999999967 Lambda2 0.19999999999999968 [dLambda -0.04999999999999999]
TCL: Setting parameter firsttimestep to 0
TCL: Setting parameter alchLambda to 0.24999999999999967
Info: NONBONDED TABLE R-SQUARED SPACING: 0.0625
Info: NONBONDED TABLE SIZE: 705 POINTS
TCL: Setting parameter alchLambda2 to 0.19999999999999968
Info: NONBONDED TABLE R-SQUARED SPACING: 0.0625
Info: NONBONDED TABLE SIZE: 705 POINTS
TCL: Running for 1500000 steps
ETITLE: TS BOND ANGLE DIHED IMPRP ELECT VDW BOUNDARY MISC KINETIC TOTAL TEMP POTENTIAL TOTALAVG TEMPAVG PRESSURE GPRESSURE VOLUME PRESSAVG GPRESSAVG
ENERGY: 0 3.1299 14.0354 3.7302 0.0000 -10702.7956 1527.0199 0.0000 0.0000 1682.1255 -7472.7546 287.9687 -9154.8801 -7472.7546 287.9687 945.5108 1028.8425 29586.5563 945.5108 1028.8425
ENERGY: 300000 5.1468 12.4057 4.0952 0.0000 -10585.6157 1385.3280 0.0000 0.0000 1731.5325 -7447.1075 296.4269 -9178.6400 -7413.0468 296.1446 -366.0248 -365.5889 30069.5818 -21.4093 13.7788
ENERGY: 600000 4.0925 11.7168 3.7325 0.0000 -10649.4870 1407.6162 0.0000 0.0000 1761.9045 -7460.4245 301.6264 -9222.3290 -7422.3101 296.0576 -365.4682 -284.4922 29942.0493 -251.2821 -206.6226
ENERGY: 900000 0.5146 11.1270 4.6212 0.0000 -10507.7711 1404.5635 0.0000 0.0000 1805.0204 -7281.9244 309.0075 -9086.9448 -7396.1595 298.6764 247.8044 314.7847 29968.9277 -111.5795 -56.0750
ENERGY: 1200000 3.3438 7.5808 3.4299 0.0000 -10650.6365 1468.5490 0.0000 0.0000 1749.3000 -7418.4331 299.4685 -9167.7331 -7396.3132 299.7638 198.8118 254.5508 30212.5702 -9.8095 49.2395
ENERGY: 1500000 4.1191 10.7957 3.2574 0.0000 -10695.2659 1459.8868 0.0000 0.0000 1757.8707 -7459.3362 300.9358 -9217.2069 -7391.1589 300.2132 1.5592 20.2925 30070.8567 2.1732 59.0424
TCL: Running FEP window  17: Lambda1 0.19999999999999968 Lambda2 0.1499999999999997 [dLambda -0.04999999999999999]
TCL: Setting parameter firsttimestep to 0
TCL: Setting parameter alchLambda to 0.19999999999999968
Info: NONBONDED TABLE R-SQUARED SPACING: 0.0625
Info: NONBONDED TABLE SIZE: 705 POINTS
TCL: Setting parameter alchLambda2 to 0.1499999999999997
Info: NONBONDED TABLE R-SQUARED SPACING: 0.0625
Info: NONBONDED TABLE SIZE: 705 POINTS
TCL: Running for 1500000 steps
ETITLE: TS BOND ANGLE DIHED IMPRP ELECT VDW BOUNDARY MISC KINETIC TOTAL TEMP POTENTIAL TOTALAVG TEMPAVG PRESSURE GPRESSURE VOLUME PRESSAVG GPRESSAVG
ENERGY: 0 4.1191 10.7956 3.2574 0.0000 -10695.2657 1459.7701 0.0000 0.0000 1757.0317 -7460.2917 300.7922 -9217.3234 -7460.2917 300.7922 -84.9787 14.7633 30070.8567 -84.9787 14.7633
ENERGY: 300000 2.6813 9.9459 4.8257 0.0000 -10572.1589 1409.4519 0.0000 0.0000 1754.9838 -7390.2703 300.4416 -9145.2541 -7386.0527 303.6684 51.1825 73.1788 29833.9267 111.3005 173.9422
ENERGY: 600000 7.8907 12.0673 4.2502 0.0000 -10720.4154 1479.7516 0.0000 0.0000 1729.7980 -7486.6575 296.1299 -9216.4555 -7408.5146 301.5176 -78.2784 -9.7693 30239.3788 -65.8811 5.8045
ENERGY: 900000 1.2828 19.6868 6.0787 0.0000 -10591.1973 1487.1235 0.0000 0.0000 1713.7222 -7363.3033 293.3779 -9077.0255 -7398.2989 299.8555 694.2372 803.7230 29912.6432 -90.6937 -9.9671
ENERGY: 1200000 3.9031 9.5661 3.5742 0.0000 -10708.3713 1466.7498 0.0000 0.0000 1755.3694 -7469.2087 300.5076 -9224.5781 -7401.7407 299.6766 45.7863 151.0327 29791.8859 -108.9821 -30.4751
ENERGY: 1500000 1.4250 12.9179 4.9988 0.0000 -10709.2517 1502.8587 0.0000 0.0000 1722.3240 -7464.7274 294.8504 -9187.0513 -7404.5710 299.5166 450.2310 536.5722 30053.3384 -85.5859 -8.5215
TCL: Running FEP window  18: Lambda1 0.1499999999999997 Lambda2 0.09999999999999969 [dLambda -0.05 ]
TCL: Setting parameter firsttimestep to 0
TCL: Setting parameter alchLambda to 0.1499999999999997
Info: NONBONDED TABLE R-SQUARED SPACING: 0.0625
Info: NONBONDED TABLE SIZE: 705 POINTS
TCL: Setting parameter alchLambda2 to 0.09999999999999969
Info: NONBONDED TABLE R-SQUARED SPACING: 0.0625
Info: NONBONDED TABLE SIZE: 705 POINTS
TCL: Running for 1500000 steps
ETITLE: TS BOND ANGLE DIHED IMPRP ELECT VDW BOUNDARY MISC KINETIC TOTAL TEMP POTENTIAL TOTALAVG TEMPAVG PRESSURE GPRESSURE VOLUME PRESSAVG GPRESSAVG
ENERGY: 0 1.4250 12.9178 4.9988 0.0000 -10709.2506 1503.4173 0.0000 0.0000 1721.4665 -7465.0251 294.7036 -9186.4916 -7465.0251 294.7036 449.3595 538.0286 30053.3384 449.3595 538.0286
ENERGY: 300000 0.6255 8.7825 3.9205 0.0000 -10616.6658 1431.1295 0.0000 0.0000 1793.3536 -7378.8542 307.0102 -9172.2078 -7374.1236 303.0461 48.1578 120.4615 29997.3973 146.2434 229.1336
ENERGY: 600000 2.9786 12.1527 3.9705 0.0000 -10531.8737 1365.7898 0.0000 0.0000 1732.4850 -7414.4970 296.5899 -9146.9820 -7387.2931 301.1001 -424.4577 -418.8896 30277.0384 86.2118 160.6771
ENERGY: 900000 4.4745 10.9941 4.0054 0.0000 -10548.9471 1377.0370 0.0000 0.0000 1728.0308 -7424.4054 295.8274 -9152.4362 -7386.5020 300.9268 -696.6018 -582.2773 29994.3004 27.5461 96.0875
ENERGY: 1200000 0.6947 16.0664 3.1690 0.0000 -10494.6944 1345.3151 0.0000 0.0000 1754.9981 -7374.4511 300.4440 -9129.4492 -7392.1602 300.8084 -586.3464 -485.5442 29968.8435 7.2887 83.4186
ENERGY: 1500000 2.8137 9.8437 5.9414 0.0000 -10426.6186 1283.5624 0.0000 0.0000 1760.9135 -7363.5438 301.4567 -9124.4573 -7391.0243 300.9797 -1101.4868 -1072.8852 30296.7324 -75.8516 -0.5757
TCL: Running FEP window  19: Lambda1 0.09999999999999969 Lambda2 0.049999999999999684 [dLambda -0.05 ]
TCL: Setting parameter firsttimestep to 0
TCL: Setting parameter alchLambda to 0.09999999999999969
Info: NONBONDED TABLE R-SQUARED SPACING: 0.0625
Info: NONBONDED TABLE SIZE: 705 POINTS
TCL: Setting parameter alchLambda2 to 0.049999999999999684
Info: NONBONDED TABLE R-SQUARED SPACING: 0.0625
Info: NONBONDED TABLE SIZE: 705 POINTS
TCL: Running for 1500000 steps
ETITLE: TS BOND ANGLE DIHED IMPRP ELECT VDW BOUNDARY MISC KINETIC TOTAL TEMP POTENTIAL TOTALAVG TEMPAVG PRESSURE GPRESSURE VOLUME PRESSAVG GPRESSAVG
ENERGY: 0 2.8137 9.8437 5.9414 0.0000 -10426.6195 1284.0358 0.0000 0.0000 1760.0540 -7363.9308 301.3096 -9123.9848 -7363.9308 301.3096 -1153.0865 -1074.2707 30296.7324 -1153.0865 -1074.2707
ENERGY: 300000 4.3078 11.8213 3.4823 0.0000 -10616.6152 1424.6297 0.0000 0.0000 1731.8026 -7440.5714 296.4731 -9172.3740 -7396.3698 301.0145 -504.7118 -469.7691 30697.9217 -355.4412 -319.3405
ENERGY: 600000 2.3365 11.1454 3.5800 0.0000 -10526.9046 1353.2049 0.0000 0.0000 1755.1863 -7401.4515 300.4762 -9156.6378 -7401.5758 301.0660 -773.3698 -744.0137 30436.8882 -363.9221 -328.2109
ENERGY: 900000 2.2843 18.1647 4.1852 0.0000 -10632.2690 1452.5792 0.0000 0.0000 1731.9385 -7423.1172 296.4964 -9155.0556 -7377.0069 300.5955 176.5320 258.0870 29845.6778 -244.6954 -201.8639
ENERGY: 1200000 3.1848 7.5577 3.8932 0.0000 -10863.9693 1588.8744 0.0000 0.0000 1707.1121 -7553.3471 292.2463 -9260.4592 -7392.3780 299.9988 917.3069 991.2039 29580.4635 -51.1344 -3.3522
ENERGY: 1500000 2.2413 10.1064 3.8388 0.0000 -10710.7629 1511.0401 0.0000 0.0000 1774.2068 -7409.3294 303.7324 -9183.5362 -7398.8936 299.9714 960.7675 1027.1945 29303.5520 -3.9346 46.7462
TCL: Running FEP window  20: Lambda1 0.049999999999999684 Lambda2 0.0    [dLambda -0.049999999999999684]
TCL: Setting parameter firsttimestep to 0
TCL: Setting parameter alchLambda to 0.049999999999999684
Info: NONBONDED TABLE R-SQUARED SPACING: 0.0625
Info: NONBONDED TABLE SIZE: 705 POINTS
TCL: Setting parameter alchLambda2 to 0.0
Info: NONBONDED TABLE R-SQUARED SPACING: 0.0625
Info: NONBONDED TABLE SIZE: 705 POINTS
TCL: Running for 1500000 steps
ETITLE: TS BOND ANGLE DIHED IMPRP ELECT VDW BOUNDARY MISC KINETIC TOTAL TEMP POTENTIAL TOTALAVG TEMPAVG PRESSURE GPRESSURE VOLUME PRESSAVG GPRESSAVG
ENERGY: 0 2.2413 10.1064 3.8388 0.0000 -10710.7620 1510.9279 0.0000 0.0000 1773.3423 -7410.3053 303.5844 -9183.6476 -7410.3053 303.5844 938.5304 1023.0528 29303.5520 938.5304 1023.0528
ENERGY: 300000 2.8810 11.9655 5.4110 0.0000 -10676.2700 1538.2781 0.0000 0.0000 1760.2896 -7357.4448 301.3499 -9117.7344 -7401.2435 302.2483 873.8282 945.8583 29893.5448 434.0577 496.6223
ENERGY: 600000 3.8499 13.6284 5.8786 0.0000 -10642.0522 1479.3950 0.0000 0.0000 1768.9245 -7370.3758 302.8281 -9139.3004 -7392.9291 300.9216 228.6670 283.4923 30102.8871 309.3952 376.7725
ENERGY: 900000 0.9082 10.5001 6.1570 0.0000 -10562.0932 1422.5797 0.0000 0.0000 1745.1329 -7376.8153 298.7552 -9121.9482 -7399.6428 299.3853 -23.5766 -9.1652 30394.7510 176.3789 237.4304
ENERGY: 1200000 0.7489 17.1311 4.2988 0.0000 -10582.7956 1451.4433 0.0000 0.0000 1724.1113 -7385.0621 295.1564 -9109.1734 -7412.2992 299.2308 30.2084 57.6310 30359.6576 126.8903 185.9545
ENERGY: 1500000 1.6806 11.6537 4.6984 0.0000 -10711.6249 1461.7991 0.0000 0.0000 1778.0562 -7453.7370 304.3914 -9231.7931 -7418.8157 299.9809 -153.7086 -59.2671 30016.4123 157.3422 219.0531
TCL: Exiting due to exit command.
