Info: SIMULATION PARAMETERS:
Info: TIMESTEP               2
Info: NUMBER OF STEPS        0
Info: STEPS PER CYCLE        10
Info: PERIODIC CELL BASIS 1  32.4044 0 0
Info: PERIODIC CELL BASIS 2  0 31.231 0
Info: PERIODIC CELL BASIS 3  0 0 30.3118
Info: PERIODIC CELL CENTER   0 0 0
Info: WRAPPING WATERS AROUND PERIODIC BOUNDARIES ON OUTPUT.
Info: WRAPPING ALL CLUSTERS AROUND PERIODIC BOUNDARIES ON OUTPUT.
Info: FIRST LDB TIMESTEP     50
Info: LAST LDB TIMESTEP     -1
Info: HOM BACKGROUND SCALING 1
Info: PME BACKGROUND SCALING 1
Info: MIN ATOMS PER PATCH    40
Info: EMPTY PATCH LOAD       40 ATOMS
Info: VELOCITY FILE          mobley_1019269_equil.vel
Info: CENTER OF MASS MOVING INITIALLY? NO
Info: DIELECTRIC             1
Info: EXCLUDE                SCALED ONE-FOUR
Info: 1-4 ELECTROSTATICS SCALED BY 0.833333
Info: MODIFIED 1-4 VDW PARAMETERS WILL BE USED
Info: DCD FILENAME           mobley_1019269_prod.dcd
Info: DCD FREQUENCY          100000
Info: DCD FIRST STEP         100000
Info: DCD FILE WILL CONTAIN UNIT CELL DATA
Info: XST FILENAME           mobley_1019269_prod.xst
Info: XST FREQUENCY          100000
Info: NO VELOCITY DCD OUTPUT
Info: NO FORCE DCD OUTPUT
Info: OUTPUT FILENAME        mobley_1019269_prod
Info: BINARY OUTPUT FILES WILL BE USED
Info: RESTART FILENAME       mobley_1019269_prod.restart
Info: RESTART FREQUENCY      100000
Info: BINARY RESTART FILES WILL BE USED
Info: CUTOFF                 9
Info: PAIRLIST DISTANCE      11
Info: PAIRLIST SHRINK RATE   0.01
Info: PAIRLIST GROW RATE     0.01
Info: PAIRLIST TRIGGER       0.3
Info: PAIRLISTS PER CYCLE    2
Info: PAIRLISTS ENABLED
Info: MARGIN                 2
Info: HYDROGEN GROUP CUTOFF  2.5
Info: PATCH DIMENSION        15.5
Info: ENERGY OUTPUT STEPS    100000
Info: ENERGY EVALUATION STEPS    100000
Info: OUTPUT ENERGY PRECISION 4
Info: CROSSTERM ENERGY INCLUDED IN DIHEDRAL
Info: TIMING OUTPUT STEPS    1000000
Info: PRESSURE OUTPUT STEPS  100000
Info: ALCHEMICAL FEP ON
Info: FEP CURRENT LAMBDA VALUE     1
Info: FEP COMPARISON LAMBDA VALUE  0.95
Info: FEP INTRA-ALCHEMICAL NON-BONDED INTERACTIONS WILL BE RETAINED
Info: FEP INTRA-ALCHEMICAL BONDED INTERACTIONS WILL BE RETAINED
Info: FEP VDW SHIFTING COEFFICIENT 5
Info: FEP ELEC. ACTIVE FOR ANNIHILATED PARTICLES BETWEEN LAMBDA = 0 AND LAMBDA = 0.5
Info: FEP ELEC. ACTIVE FOR EXNIHILATED PARTICLES BETWEEN LAMBDA = 0.5 AND LAMBDA = 1
Info: FEP VDW ACTIVE FOR ANNIHILATED PARTICLES BETWEEN LAMBDA = 0 AND LAMBDA = 1
Info: FEP VDW ACTIVE FOR EXNIHILATED PARTICLES BETWEEN LAMBDA = 0 AND LAMBDA = 1
Info: FEP BOND ACTIVE FOR ANNIHILATED PARTICLES BETWEEN LAMBDA = 1 AND LAMBDA = 1
Info: FEP BOND ACTIVE FOR EXNIHILATED PARTICLES BETWEEN LAMBDA = 0 AND LAMBDA = 0
Info: LANGEVIN DYNAMICS ACTIVE
Info: LANGEVIN TEMPERATURE   300
Info: LANGEVIN USING BBK INTEGRATOR
Info: LANGEVIN DAMPING COEFFICIENT IS 1 INVERSE PS
Info: LANGEVIN DYNAMICS APPLIED TO HYDROGENS
Info: LANGEVIN PISTON PRESSURE CONTROL ACTIVE
Info:        TARGET PRESSURE IS 1.01325 BAR
Info:     OSCILLATION PERIOD IS 50 FS
Info:             DECAY TIME IS 25 FS
Info:     PISTON TEMPERATURE IS 300 K
Info:       PRESSURE CONTROL IS GROUP-BASED
Info:    INITIAL STRAIN RATE IS 0.000113356 0.000113356 0.000113356
Info:       CELL FLUCTUATION IS ISOTROPIC
Info: PARTICLE MESH EWALD (PME) ACTIVE
Info: PME TOLERANCE               1e-06
Info: PME EWALD COEFFICIENT       0.348832
Info: PME INTERPOLATION ORDER     4
Info: PME GRID DIMENSIONS         36 32 32
Info: PME MAXIMUM GRID SPACING    1
Info: PME CALCULATION WILL BE PERFORMED ON GPU
Info: FULL ELECTROSTATIC EVALUATION FREQUENCY      2
Info: USING VERLET I (r-RESPA) MTS SCHEME.
Info: C1 SPLITTING OF LONG RANGE ELECTROSTATICS
Info: PLACING ATOMS IN PATCHES BY HYDROGEN GROUPS
Info: RIGID BONDS TO HYDROGEN : ALL
Info:         ERROR TOLERANCE : 1e-08
Info:          MAX ITERATIONS : 100
Info: RIGID WATER USING SETTLE ALGORITHM
Info: RANDOM NUMBER SEED     1743835098
Info: USE HYDROGEN BONDS?    NO
Info: Using AMBER format force field!
Info: AMBER PARM FILE        mobley_1019269.prmtop
Info: COORDINATE PDB         mobley_1019269.pdb
Info: Exclusions will be read from PARM file!
Info: SCNB (VDW SCALING)     2
Info: USING ARITHMETIC MEAN TO COMBINE L-J SIGMA PARAMETERS
Info: BINARY COORDINATES     mobley_1019269_equil.coor
Info: SUMMARY OF PARAMETERS:
Info: 7 BONDS
Info: 8 ANGLES
Info:   8 HARMONIC
Info:   0 COSINE-BASED
Info: 9 DIHEDRAL
Info: 0 IMPROPER
Info: 0 CROSSTERM
Info: 0 VDW
Info: 21 VDW_PAIRS
Info: 0 NBTHOLE_PAIRS
Info: To read alchdata from file: mobley_1019269.pdb
Info: To read alchflag data from column: 5
Info: STRUCTURE SUMMARY:
Info: 2952 ATOMS
Info: 2951 BONDS
Info: 25 ANGLES
Info: 35 DIHEDRALS
Info: 0 IMPROPERS
Info: 0 CROSSTERMS
Info: 3006 EXCLUSIONS
Info: 2947 RIGID BONDS
Info: ALCH: 0 ATOMS TO DISAPPEAR IN FINAL STATE
Info: ALCH: 15 ATOMS TO APPEAR IN FINAL STATE
Info: 5909 DEGREES OF FREEDOM
Info: 984 HYDROGEN GROUPS
Info: 4 ATOMS IN LARGEST HYDROGEN GROUP
Info: 984 MIGRATION GROUPS
Info: 4 ATOMS IN LARGEST MIGRATION GROUP
Info: TOTAL MASS = 17711.8 amu
Info: TOTAL CHARGE = 0.000199992 e
Info: MASS DENSITY = 0.958784 g/cm^3
Info: ATOM DENSITY = 0.0962311 atoms/A^3
Info: ADDED 0 IMPLICIT EXCLUSIONS
Info: NONBONDED TABLE R-SQUARED SPACING: 0.0625
Info: NONBONDED TABLE SIZE: 705 POINTS
Info: REDUCING NUMBER OF PATCHES TO IMPROVE LOAD BALANCE
Info: REMOVING COM VELOCITY 0.000902345 0.0870548 0.203142
Info: Use 3D box decompostion in PME FFT.
Info: Updated CUDA force table with 4096 elements.
Info: Updated CUDA LJ table with 6 x 6 elements.
Info: Found 18 unique exclusion lists needing 40 bytes
TCL: Running for 1500000 steps
ETITLE: TS BOND ANGLE DIHED IMPRP ELECT VDW BOUNDARY MISC KINETIC TOTAL TEMP POTENTIAL TOTALAVG TEMPAVG PRESSURE GPRESSURE VOLUME PRESSAVG GPRESSAVG
ENERGY: 0 0.6209 5.7929 2.9616 0.0000 -10629.0306 1375.9621 0.0000 0.0000 1762.8997 -7480.7934 300.2645 -9243.6931 -7480.7934 300.2645 -598.4933 -524.6148 30676.1428 -598.4933 -524.6148
ENERGY: 300000 0.4460 4.5745 3.3030 0.0000 -10772.9742 1455.6715 0.0000 0.0000 1710.7918 -7598.1873 291.3893 -9308.9791 -7477.6550 301.0186 56.8201 71.9795 30003.7017 7.1288 80.9145
ENERGY: 600000 1.4070 9.1265 2.2975 0.0000 -10724.7316 1432.4664 0.0000 0.0000 1747.9481 -7531.4860 297.7179 -9279.4341 -7482.4082 301.4274 -226.0636 -146.7003 30387.0069 9.6548 88.7605
ENERGY: 900000 0.7488 4.8400 1.7291 0.0000 -10702.2270 1421.9376 0.0000 0.0000 1802.0542 -7470.9173 306.9335 -9272.9715 -7483.7884 301.8388 -300.1613 -275.4393 30797.6201 -88.4337 -22.7960
ENERGY: 1200000 0.8900 7.3292 4.1951 0.0000 -10601.0635 1383.0953 0.0000 0.0000 1750.3476 -7455.2064 298.1266 -9205.5539 -7477.1342 301.6387 -266.9434 -176.6450 30409.4003 -79.2104 -5.9291
ENERGY: 1500000 2.7016 5.8056 3.4981 0.0000 -10851.0244 1526.3515 0.0000 0.0000 1723.9843 -7588.6833 293.6363 -9312.6676 -7486.1496 301.2251 512.3853 576.6795 30045.2181 -44.7661 31.6554
TCL: Running FEP window   2: Lambda1 0.95   Lambda2 0.8999999999999999 [dLambda -0.050000000000000044]
TCL: Setting parameter firsttimestep to 0
TCL: Setting parameter alchLambda to 0.95
Info: NONBONDED TABLE R-SQUARED SPACING: 0.0625
Info: NONBONDED TABLE SIZE: 705 POINTS
TCL: Setting parameter alchLambda2 to 0.8999999999999999
Info: NONBONDED TABLE R-SQUARED SPACING: 0.0625
Info: NONBONDED TABLE SIZE: 705 POINTS
TCL: Running for 1500000 steps
ETITLE: TS BOND ANGLE DIHED IMPRP ELECT VDW BOUNDARY MISC KINETIC TOTAL TEMP POTENTIAL TOTALAVG TEMPAVG PRESSURE GPRESSURE VOLUME PRESSAVG GPRESSAVG
ENERGY: 0 2.7016 5.8056 3.4981 0.0000 -10849.5790 1524.8087 0.0000 0.0000 1723.1124 -7589.6526 293.4878 -9312.7650 -7589.6526 293.4878 463.0155 549.8187 30045.2181 463.0155 549.8187
ENERGY: 300000 0.1528 7.7615 3.0259 0.0000 -10554.9784 1387.5480 0.0000 0.0000 1743.8337 -7412.6564 297.0171 -9156.4901 -7481.1552 295.6794 -285.8545 -178.8732 30788.2347 -85.4357 -9.1807
ENERGY: 600000 1.3166 7.1311 2.1504 0.0000 -10567.9719 1396.7844 0.0000 0.0000 1754.2429 -7406.3465 298.7900 -9160.5893 -7467.5642 296.7502 -485.5657 -342.3617 31173.4179 -119.2089 -33.1006
ENERGY: 900000 2.0444 3.8861 1.2408 0.0000 -10604.2658 1409.3366 0.0000 0.0000 1748.1787 -7439.5792 297.7572 -9187.7578 -7464.0224 298.6005 -21.3684 35.7915 30279.7380 -129.5349 -46.0569
ENERGY: 1200000 1.6078 6.5034 2.2087 0.0000 -10635.9185 1421.8409 0.0000 0.0000 1732.2796 -7471.4780 295.0492 -9203.7576 -7464.7126 298.3446 -48.5166 10.8699 30429.1980 -191.2720 -114.8214
ENERGY: 1500000 1.7906 5.8615 1.5628 0.0000 -10695.5854 1411.8199 0.0000 0.0000 1742.0213 -7532.5293 296.7084 -9274.5506 -7467.0764 298.7441 -453.7692 -427.3046 30655.5493 -182.1257 -112.2440
TCL: Running FEP window   3: Lambda1 0.8999999999999999 Lambda2 0.8499999999999999 [dLambda -0.050000000000000044]
TCL: Setting parameter firsttimestep to 0
TCL: Setting parameter alchLambda to 0.8999999999999999
Info: NONBONDED TABLE R-SQUARED SPACING: 0.0625
Info: NONBONDED TABLE SIZE: 705 POINTS
TCL: Setting parameter alchLambda2 to 0.8499999999999999
Info: NONBONDED TABLE R-SQUARED SPACING: 0.0625
Info: NONBONDED TABLE SIZE: 705 POINTS
TCL: Running for 1500000 steps
ETITLE: TS BOND ANGLE DIHED IMPRP ELECT VDW BOUNDARY MISC KINETIC TOTAL TEMP POTENTIAL TOTALAVG TEMPAVG PRESSURE GPRESSURE VOLUME PRESSAVG GPRESSAVG
ENERGY: 0 1.7906 5.8614 1.5628 0.0000 -10693.5285 1409.9638 0.0000 0.0000 1741.1446 -7533.2052 296.5591 -9274.3498 -7533.2052 296.5591 -536.5349 -456.8952 30655.5493 -536.5349 -456.8952
ENERGY: 300000 0.9481 5.5161 2.3921 0.0000 -10704.7871 1382.4578 0.0000 0.0000 1739.4949 -7573.9781 296.2781 -9313.4730 -7524.5317 303.0059 -512.5580 -486.4704 30089.6613 -627.2992 -561.8762
ENERGY: 600000 0.0448 8.0420 1.9761 0.0000 -10785.8041 1461.3705 0.0000 0.0000 1774.8063 -7539.5643 302.2925 -9314.3706 -7507.4064 303.6872 428.1961 435.0619 29855.2197 -226.2361 -166.9502
ENERGY: 900000 1.2621 3.0399 2.1389 0.0000 -10763.1159 1523.3679 0.0000 0.0000 1839.6474 -7393.6599 313.3365 -9233.3073 -7472.4657 303.1090 901.8794 997.7135 30088.2094 -73.6088 2.2146
ENERGY: 1200000 0.6244 9.1389 3.5119 0.0000 -10693.9159 1416.6471 0.0000 0.0000 1747.6515 -7516.3420 297.6674 -9263.9935 -7475.3995 302.9078 -66.3738 45.2775 30230.1793 -7.2329 70.3816
ENERGY: 1500000 2.3404 4.9729 1.7289 0.0000 -10452.9531 1291.8776 0.0000 0.0000 1791.9393 -7360.0938 305.2107 -9152.0331 -7467.2034 302.3100 -741.7084 -673.6518 30134.7544 -98.4657 -21.8549
TCL: Running FEP window   4: Lambda1 0.8499999999999999 Lambda2 0.7999999999999998 [dLambda -0.050000000000000044]
TCL: Setting parameter firsttimestep to 0
TCL: Setting parameter alchLambda to 0.8499999999999999
Info: NONBONDED TABLE R-SQUARED SPACING: 0.0625
Info: NONBONDED TABLE SIZE: 705 POINTS
TCL: Setting parameter alchLambda2 to 0.7999999999999998
Info: NONBONDED TABLE R-SQUARED SPACING: 0.0625
Info: NONBONDED TABLE SIZE: 705 POINTS
TCL: Running for 1500000 steps
ETITLE: TS BOND ANGLE DIHED IMPRP ELECT VDW BOUNDARY MISC KINETIC TOTAL TEMP POTENTIAL TOTALAVG TEMPAVG PRESSURE GPRESSURE VOLUME PRESSAVG GPRESSAVG
ENERGY: 0 2.3404 4.9729 1.7289 0.0000 -10452.4926 1291.7869 0.0000 0.0000 1791.0797 -7360.5836 305.0642 -9151.6633 -7360.5836 305.0642 -759.3752 -682.1657 30134.7544 -759.3752 -682.1657
ENERGY: 300000 1.4050 7.3194 2.2652 0.0000 -10737.1588 1444.2583 0.0000 0.0000 1784.3871 -7497.5238 303.9243 -9281.9109 -7438.6275 301.0229 51.5337 123.6244 30446.4437 66.0549 122.8766
ENERGY: 600000 0.9057 8.6669 2.2007 0.0000 -10624.8048 1385.8367 0.0000 0.0000 1778.2554 -7448.9395 302.8799 -9227.1948 -7448.1783 300.5480 -295.4491 -237.8012 30264.1940 60.0693 113.0746
ENERGY: 900000 0.1526 4.5580 1.5788 0.0000 -10780.6092 1506.9570 0.0000 0.0000 1775.7873 -7491.5755 302.4596 -9267.3628 -7443.7799 302.2073 665.6727 736.4591 29923.7099 24.5124 77.9858
ENERGY: 1200000 0.4331 5.5476 1.5655 0.0000 -10707.9042 1433.3772 0.0000 0.0000 1770.0664 -7496.9144 301.4852 -9266.9808 -7453.5655 301.4020 -193.5991 -149.7443 30885.0513 -34.4100 16.5160
ENERGY: 1500000 0.5139 10.7821 2.9816 0.0000 -10664.3539 1422.1698 0.0000 0.0000 1744.5327 -7483.3738 297.1362 -9227.9066 -7460.4082 300.7629 -280.1498 -107.1542 30376.4655 -66.3076 -6.9041
TCL: Running FEP window   5: Lambda1 0.7999999999999998 Lambda2 0.7499999999999998 [dLambda -0.050000000000000044]
TCL: Setting parameter firsttimestep to 0
TCL: Setting parameter alchLambda to 0.7999999999999998
Info: NONBONDED TABLE R-SQUARED SPACING: 0.0625
Info: NONBONDED TABLE SIZE: 705 POINTS
TCL: Setting parameter alchLambda2 to 0.7499999999999998
Info: NONBONDED TABLE R-SQUARED SPACING: 0.0625
Info: NONBONDED TABLE SIZE: 705 POINTS
TCL: Running for 1500000 steps
ETITLE: TS BOND ANGLE DIHED IMPRP ELECT VDW BOUNDARY MISC KINETIC TOTAL TEMP POTENTIAL TOTALAVG TEMPAVG PRESSURE GPRESSURE VOLUME PRESSAVG GPRESSAVG
ENERGY: 0 0.5139 10.7821 2.9816 0.0000 -10663.4522 1422.1878 0.0000 0.0000 1743.6677 -7483.3191 296.9888 -9226.9868 -7483.3191 296.9888 -206.1779 -114.4692 30376.4655 -206.1779 -114.4692
ENERGY: 300000 1.1070 5.9058 2.7386 0.0000 -10669.2038 1438.9786 0.0000 0.0000 1740.7425 -7479.7314 296.4906 -9220.4738 -7466.2705 301.6778 -246.2335 -125.5083 30828.9126 -100.9472 -10.0305
ENERGY: 600000 1.9387 6.0827 1.5750 0.0000 -10539.5736 1401.0019 0.0000 0.0000 1744.3162 -7384.6592 297.0993 -9128.9753 -7455.4104 299.7440 86.0124 101.8932 30794.4680 -69.3921 2.2348
ENERGY: 900000 0.6137 3.2503 2.1621 0.0000 -10718.9683 1394.8107 0.0000 0.0000 1759.1774 -7558.9541 299.6305 -9318.1315 -7464.5858 300.2120 -948.8901 -878.7488 30992.1749 -215.5001 -151.0253
ENERGY: 1200000 1.3515 7.9489 2.2123 0.0000 -10766.1566 1532.4710 0.0000 0.0000 1802.1519 -7420.0210 306.9501 -9222.1729 -7463.2340 300.4103 750.4994 814.6638 30239.2575 -25.9737 39.3639
ENERGY: 1500000 0.9309 5.1158 2.3615 0.0000 -10760.6711 1481.1048 0.0000 0.0000 1721.7377 -7549.4203 293.2536 -9271.1581 -7475.5807 299.8301 286.5648 347.1664 30371.0520 -38.2006 26.6903
TCL: Running FEP window   6: Lambda1 0.7499999999999998 Lambda2 0.6999999999999997 [dLambda -0.050000000000000044]
TCL: Setting parameter firsttimestep to 0
TCL: Setting parameter alchLambda to 0.7499999999999998
Info: NONBONDED TABLE R-SQUARED SPACING: 0.0625
Info: NONBONDED TABLE SIZE: 705 POINTS
TCL: Setting parameter alchLambda2 to 0.6999999999999997
Info: NONBONDED TABLE R-SQUARED SPACING: 0.0625
Info: NONBONDED TABLE SIZE: 705 POINTS
TCL: Running for 1500000 steps
ETITLE: TS BOND ANGLE DIHED IMPRP ELECT VDW BOUNDARY MISC KINETIC TOTAL TEMP POTENTIAL TOTALAVG TEMPAVG PRESSURE GPRESSURE VOLUME PRESSAVG GPRESSAVG
ENERGY: 0 0.9309 5.1158 2.3615 0.0000 -10758.7334 1480.3993 0.0000 0.0000 1720.8411 -7549.0848 293.1009 -9269.9259 -7549.0848 293.1009 246.4453 337.7031 30371.0520 246.4453 337.7031
ENERGY: 300000 1.1468 3.2562 2.1686 0.0000 -10711.0295 1478.6791 0.0000 0.0000 1761.3790 -7464.3998 300.0055 -9225.7788 -7513.8955 299.0778 200.3548 236.0402 30657.2148 42.9411 91.3176
ENERGY: 600000 0.8723 7.0418 3.2043 0.0000 -10533.7922 1301.8750 0.0000 0.0000 1702.1928 -7518.6059 289.9246 -9220.7987 -7487.0405 301.2611 -1070.6629 -1076.5014 30512.4341 -267.1613 -206.3010
ENERGY: 900000 2.6688 7.3563 2.8897 0.0000 -10842.0208 1534.0274 0.0000 0.0000 1789.9529 -7505.1258 304.8723 -9295.0786 -7494.6349 301.0572 647.1767 747.2568 30110.9756 -234.4670 -163.1999
ENERGY: 1200000 0.9599 8.3953 2.8963 0.0000 -10754.1252 1497.0650 0.0000 0.0000 1706.1234 -7538.6853 290.5941 -9244.8087 -7493.2388 300.0288 156.8314 204.8901 30568.2073 -134.3605 -62.4302
ENERGY: 1500000 1.0252 4.2250 0.9305 0.0000 -10697.3541 1510.4974 0.0000 0.0000 1786.6167 -7394.0592 304.3041 -9180.6759 -7480.1420 300.4832 734.0088 842.8832 30166.0206 -109.9989 -38.7076
TCL: Running FEP window   7: Lambda1 0.6999999999999997 Lambda2 0.6499999999999997 [dLambda -0.050000000000000044]
TCL: Setting parameter firsttimestep to 0
TCL: Setting parameter alchLambda to 0.6999999999999997
Info: NONBONDED TABLE R-SQUARED SPACING: 0.0625
Info: NONBONDED TABLE SIZE: 705 POINTS
TCL: Setting parameter alchLambda2 to 0.6499999999999997
Info: NONBONDED TABLE R-SQUARED SPACING: 0.0625
Info: NONBONDED TABLE SIZE: 705 POINTS
TCL: Running for 1500000 steps
ETITLE: TS BOND ANGLE DIHED IMPRP ELECT VDW BOUNDARY MISC KINETIC TOTAL TEMP POTENTIAL TOTALAVG TEMPAVG PRESSURE GPRESSURE VOLUME PRESSAVG GPRESSAVG
ENERGY: 0 1.0252 4.2250 0.9305 0.0000 -10696.0015 1510.4309 0.0000 0.0000 1785.7375 -7393.6524 304.1543 -9179.3899 -7393.6524 304.1543 757.4384 838.4919 30166.0206 757.4384 838.4919
ENERGY: 300000 1.1650 4.8024 2.9527 0.0000 -10781.2418 1504.5341 0.0000 0.0000 1792.2325 -7475.5551 305.2606 -9267.7876 -7464.4569 300.9327 710.4841 703.7309 30273.6675 51.4994 83.3819
ENERGY: 600000 0.5005 6.3540 2.7796 0.0000 -10671.5176 1402.1430 0.0000 0.0000 1716.7786 -7542.9618 292.4090 -9259.7404 -7468.8382 299.7864 -469.3262 -410.9886 30801.6702 -50.4609 -12.6664
ENERGY: 900000 0.9617 6.7344 2.2122 0.0000 -10612.5625 1331.1716 0.0000 0.0000 1763.6913 -7507.7913 300.3993 -9271.4826 -7473.2011 299.9559 -1019.3714 -881.0641 30454.4709 -165.2948 -113.2350
ENERGY: 1200000 0.2189 3.7742 2.4690 0.0000 -10721.8931 1412.3347 0.0000 0.0000 1721.9124 -7581.1838 293.2834 -9303.0963 -7486.0266 298.6413 -225.9393 -136.9421 30132.3346 -243.6638 -184.5489
ENERGY: 1500000 0.8500 9.2150 3.0506 0.0000 -10691.7109 1481.3129 0.0000 0.0000 1798.7044 -7398.5780 306.3629 -9197.2824 -7480.7126 298.9259 209.9936 268.8692 30998.7656 -180.4889 -120.0203
TCL: Running FEP window   8: Lambda1 0.6499999999999997 Lambda2 0.5999999999999996 [dLambda -0.050000000000000044]
TCL: Setting parameter firsttimestep to 0
TCL: Setting parameter alchLambda to 0.6499999999999997
Info: NONBONDED TABLE R-SQUARED SPACING: 0.0625
Info: NONBONDED TABLE SIZE: 705 POINTS
TCL: Setting parameter alchLambda2 to 0.5999999999999996
Info: NONBONDED TABLE R-SQUARED SPACING: 0.0625
Info: NONBONDED TABLE SIZE: 705 POINTS
TCL: Running for 1500000 steps
ETITLE: TS BOND ANGLE DIHED IMPRP ELECT VDW BOUNDARY MISC KINETIC TOTAL TEMP POTENTIAL TOTALAVG TEMPAVG PRESSURE GPRESSURE VOLUME PRESSAVG GPRESSAVG
ENERGY: 0 0.8500 9.2150 3.0506 0.0000 -10689.7570 1480.5297 0.0000 0.0000 1797.8553 -7398.2565 306.2183 -9196.1118 -7398.2565 306.2183 186.3148 260.4408 30998.7656 186.3148 260.4408
ENERGY: 300000 1.4615 3.6001 1.8555 0.0000 -10653.4452 1384.7883 0.0000 0.0000 1718.5830 -7543.1569 292.7163 -9261.7399 -7457.8344 300.4683 -496.9530 -388.3596 30261.2821 -128.0023 -64.4097
ENERGY: 600000 1.3852 5.6332 4.8377 0.0000 -10689.8638 1435.0329 0.0000 0.0000 1791.9431 -7451.0317 305.2113 -9242.9749 -7444.9526 301.9185 -92.2589 9.5850 30562.2379 -108.0385 -39.4864
ENERGY: 900000 1.8182 6.6990 1.5887 0.0000 -10682.5888 1445.6382 0.0000 0.0000 1806.4786 -7420.3662 307.6870 -9226.8448 -7462.1424 300.5566 -28.8051 31.2164 30660.2786 -80.7820 -6.4148
ENERGY: 1200000 2.0600 6.4948 2.6626 0.0000 -10613.0410 1373.4823 0.0000 0.0000 1721.8827 -7506.4586 293.2783 -9228.3412 -7466.2465 299.8348 -684.6303 -608.4052 30702.0385 -146.7404 -69.9650
ENERGY: 1500000 1.1408 7.8084 2.1335 0.0000 -10735.1630 1450.0230 0.0000 0.0000 1789.6706 -7484.3868 304.8242 -9274.0574 -7471.3172 299.6760 129.6493 146.2998 30276.5538 -184.2607 -106.6510
TCL: Running FEP window   9: Lambda1 0.5999999999999996 Lambda2 0.5499999999999996 [dLambda -0.050000000000000044]
TCL: Setting parameter firsttimestep to 0
TCL: Setting parameter alchLambda to 0.5999999999999996
Info: NONBONDED TABLE R-SQUARED SPACING: 0.0625
Info: NONBONDED TABLE SIZE: 705 POINTS
TCL: Setting parameter alchLambda2 to 0.5499999999999996
Info: NONBONDED TABLE R-SQUARED SPACING: 0.0625
Info: NONBONDED TABLE SIZE: 705 POINTS
TCL: Running for 1500000 steps
ETITLE: TS BOND ANGLE DIHED IMPRP ELECT VDW BOUNDARY MISC KINETIC TOTAL TEMP POTENTIAL TOTALAVG TEMPAVG PRESSURE GPRESSURE VOLUME PRESSAVG GPRESSAVG
ENERGY: 0 1.1408 7.8083 2.1335 0.0000 -10733.5861 1449.5639 0.0000 0.0000 1788.7888 -7484.1507 304.6741 -9272.9396 -7484.1507 304.6741 47.0647 139.1204 30276.5538 47.0647 139.1204
ENERGY: 300000 0.5695 4.6549 2.1123 0.0000 -10673.4777 1428.6006 0.0000 0.0000 1769.1123 -7468.4282 301.3227 -9237.5404 -7455.9022 305.7847 33.7627 82.2028 30184.2396 -211.1090 -136.9994
ENERGY: 600000 0.5654 8.0202 4.9880 0.0000 -10630.5036 1421.5197 0.0000 0.0000 1770.3895 -7425.0208 301.5402 -9195.4103 -7476.7408 301.6464 79.0315 96.6071 30329.0974 -203.9348 -148.2695
ENERGY: 900000 0.7020 6.1055 1.3845 0.0000 -10722.0846 1453.6446 0.0000 0.0000 1736.7773 -7523.4706 295.8152 -9260.2479 -7485.1736 300.5487 -177.7582 -110.4783 30671.6471 -111.9530 -50.7878
ENERGY: 1200000 0.7467 5.6828 2.4236 0.0000 -10536.9407 1359.6317 0.0000 0.0000 1731.8816 -7436.5745 294.9814 -9168.4560 -7485.8113 299.7494 -631.9982 -556.8958 30882.4877 -115.5027 -58.1215
ENERGY: 1500000 2.0495 7.7335 1.7335 0.0000 -10518.9587 1368.4449 0.0000 0.0000 1771.6163 -7367.3810 301.7491 -9138.9973 -7475.1986 300.0319 -208.1420 -197.5873 30585.3190 -74.5444 -26.1566
TCL: Running FEP window  10: Lambda1 0.5499999999999996 Lambda2 0.4999999999999996 [dLambda -0.04999999999999999]
TCL: Setting parameter firsttimestep to 0
TCL: Setting parameter alchLambda to 0.5499999999999996
Info: NONBONDED TABLE R-SQUARED SPACING: 0.0625
Info: NONBONDED TABLE SIZE: 705 POINTS
TCL: Setting parameter alchLambda2 to 0.4999999999999996
Info: NONBONDED TABLE R-SQUARED SPACING: 0.0625
Info: NONBONDED TABLE SIZE: 705 POINTS
TCL: Running for 1500000 steps
ETITLE: TS BOND ANGLE DIHED IMPRP ELECT VDW BOUNDARY MISC KINETIC TOTAL TEMP POTENTIAL TOTALAVG TEMPAVG PRESSURE GPRESSURE VOLUME PRESSAVG GPRESSAVG
ENERGY: 0 2.0495 7.7335 1.7335 0.0000 -10518.8598 1368.0560 0.0000 0.0000 1770.7118 -7368.5755 301.5951 -9139.2873 -7368.5755 301.5951 -288.5122 -207.6920 30585.3190 -288.5122 -207.6920
ENERGY: 300000 1.1838 4.3417 1.5368 0.0000 -10554.8833 1358.7676 0.0000 0.0000 1768.1685 -7420.8850 301.1619 -9189.0535 -7453.6798 299.9867 -515.1819 -461.8194 30686.1002 9.3198 85.5006
ENERGY: 600000 0.1026 9.3679 2.5905 0.0000 -10697.1774 1502.0009 0.0000 0.0000 1818.4815 -7364.6340 309.7314 -9183.1155 -7432.5194 301.0444 724.9361 713.9832 30510.5262 123.9565 180.4902
ENERGY: 900000 2.2480 7.4880 3.6420 0.0000 -10664.3619 1408.2139 0.0000 0.0000 1735.4309 -7507.3390 295.5859 -9242.7699 -7436.2653 301.5976 -328.5980 -292.6946 30334.5437 27.6990 77.5897
ENERGY: 1200000 0.2617 8.7677 2.6225 0.0000 -10642.5991 1464.2564 0.0000 0.0000 1800.4883 -7366.2024 306.6668 -9166.6907 -7438.6514 301.9900 169.4728 237.9453 30841.2049 63.1984 115.9804
ENERGY: 1500000 1.1063 6.5828 1.8407 0.0000 -10656.8950 1390.8227 0.0000 0.0000 1773.5340 -7483.0085 302.0758 -9256.5425 -7440.5851 302.6694 -489.0716 -428.8836 30393.7433 -21.0223 35.5876
TCL: Running FEP window  11: Lambda1 0.4999999999999996 Lambda2 0.4499999999999996 [dLambda -0.04999999999999999]
TCL: Setting parameter firsttimestep to 0
TCL: Setting parameter alchLambda to 0.4999999999999996
Info: NONBONDED TABLE R-SQUARED SPACING: 0.0625
Info: NONBONDED TABLE SIZE: 705 POINTS
TCL: Setting parameter alchLambda2 to 0.4499999999999996
Info: NONBONDED TABLE R-SQUARED SPACING: 0.0625
Info: NONBONDED TABLE SIZE: 705 POINTS
TCL: Running for 1500000 steps
ETITLE: TS BOND ANGLE DIHED IMPRP ELECT VDW BOUNDARY MISC KINETIC TOTAL TEMP POTENTIAL TOTALAVG TEMPAVG PRESSURE GPRESSURE VOLUME PRESSAVG GPRESSAVG
ENERGY: 0 1.1063 6.5828 1.8407 0.0000 -10656.4009 1391.2693 0.0000 0.0000 1772.6172 -7482.9846 301.9196 -9255.6018 -7482.9846 301.9196 -516.0559 -429.3615 30393.7433 -516.0559 -429.3615
ENERGY: 300000 1.2237 6.7236 1.7431 0.0000 -10715.8564 1443.5825 0.0000 0.0000 1814.5834 -7448.0002 309.0675 -9262.5835 -7476.7616 304.7198 -33.0204 0.7807 30505.4882 -457.7938 -398.4442
ENERGY: 600000 1.6589 4.9627 3.3759 0.0000 -10762.9652 1435.4978 0.0000 0.0000 1748.2908 -7569.1791 297.7763 -9317.4699 -7490.2271 303.5667 -105.6938 -106.4451 30323.5616 -363.9741 -313.5316
ENERGY: 900000 1.1849 5.9158 1.7377 0.0000 -10721.4648 1455.5645 0.0000 0.0000 1805.4971 -7451.5649 307.5199 -9257.0620 -7489.2155 302.6605 403.1979 417.8049 29830.4068 -143.3638 -80.9044
ENERGY: 1200000 0.3291 6.4826 1.5989 0.0000 -10619.6733 1447.5854 0.0000 0.0000 1745.7100 -7417.9673 297.3367 -9163.6773 -7486.1828 302.2595 197.9726 254.8870 30337.5774 -126.6867 -67.9597
ENERGY: 1500000 1.3098 3.3700 1.4985 0.0000 -10658.7515 1425.4963 0.0000 0.0000 1793.2899 -7433.7870 305.4407 -9227.0769 -7487.4638 302.4035 -144.5253 -88.0118 30588.5134 -108.9100 -50.9926
TCL: Running FEP window  12: Lambda1 0.4499999999999996 Lambda2 0.39999999999999963 [dLambda -0.04999999999999999]
TCL: Setting parameter firsttimestep to 0
TCL: Setting parameter alchLambda to 0.4499999999999996
Info: NONBONDED TABLE R-SQUARED SPACING: 0.0625
Info: NONBONDED TABLE SIZE: 705 POINTS
TCL: Setting parameter alchLambda2 to 0.39999999999999963
Info: NONBONDED TABLE R-SQUARED SPACING: 0.0625
Info: NONBONDED TABLE SIZE: 705 POINTS
TCL: Running for 1500000 steps
ETITLE: TS BOND ANGLE DIHED IMPRP ELECT VDW BOUNDARY MISC KINETIC TOTAL TEMP POTENTIAL TOTALAVG TEMPAVG PRESSURE GPRESSURE VOLUME PRESSAVG GPRESSAVG
ENERGY: 0 1.3098 3.3700 1.4985 0.0000 -10658.7507 1425.8393 0.0000 0.0000 1792.4366 -7434.2965 305.2954 -9226.7331 -7434.2965 305.2954 -158.2480 -86.4555 30588.5134 -158.2480 -86.4555
ENERGY: 300000 0.8863 6.9637 1.8034 0.0000 -10623.3879 1303.9533 0.0000 0.0000 1692.8549 -7616.9263 288.3342 -9309.7812 -7541.5504 296.8182 -1254.4865 -1218.1386 30439.1459 -234.0187 -176.8377
ENERGY: 600000 0.3006 8.4569 1.8705 0.0000 -10569.7789 1355.7758 0.0000 0.0000 1712.3226 -7491.0524 291.6500 -9203.3750 -7527.1044 295.4503 -641.1155 -545.7278 30364.2073 -354.3002 -291.5188
ENERGY: 900000 1.5489 7.1026 2.2501 0.0000 -10810.0656 1546.3568 0.0000 0.0000 1803.8986 -7448.9086 307.2476 -9252.8073 -7513.9932 297.4147 873.3743 904.2501 30463.6629 -241.6747 -174.9224
ENERGY: 1200000 2.5706 6.9361 1.7933 0.0000 -10714.8427 1372.2277 0.0000 0.0000 1793.5889 -7537.7261 305.4916 -9331.3150 -7513.1317 298.4824 -925.5823 -843.0024 30647.7723 -279.6600 -220.0574
ENERGY: 1500000 0.5689 2.7571 1.7155 0.0000 -10653.2406 1401.1246 0.0000 0.0000 1810.9563 -7436.1182 308.4497 -9247.0745 -7506.8782 299.2961 -440.0722 -340.3422 30612.8356 -125.2568 -65.5785
TCL: Running FEP window  13: Lambda1 0.39999999999999963 Lambda2 0.34999999999999964 [dLambda -0.04999999999999999]
TCL: Setting parameter firsttimestep to 0
TCL: Setting parameter alchLambda to 0.39999999999999963
Info: NONBONDED TABLE R-SQUARED SPACING: 0.0625
Info: NONBONDED TABLE SIZE: 705 POINTS
TCL: Setting parameter alchLambda2 to 0.34999999999999964
Info: NONBONDED TABLE R-SQUARED SPACING: 0.0625
Info: NONBONDED TABLE SIZE: 705 POINTS
TCL: Running for 1500000 steps
ETITLE: TS BOND ANGLE DIHED IMPRP ELECT VDW BOUNDARY MISC KINETIC TOTAL TEMP POTENTIAL TOTALAVG TEMPAVG PRESSURE GPRESSURE VOLUME PRESSAVG GPRESSAVG
ENERGY: 0 0.5689 2.7571 1.7155 0.0000 -10653.2395 1401.6507 0.0000 0.0000 1810.0708 -7436.4766 308.2989 -9246.5474 -7436.4766 308.2989 -428.5386 -341.0447 30612.8356 -428.5386 -341.0447
ENERGY: 300000 1.9468 9.3136 2.0101 0.0000 -10700.0019 1419.9832 0.0000 0.0000 1737.8287 -7528.9195 295.9943 -9266.7482 -7501.3370 296.9372 -164.3359 -66.7435 30364.5188 -100.5586 -21.4489
ENERGY: 600000 1.5086 4.1085 1.4152 0.0000 -10764.4804 1456.5279 0.0000 0.0000 1733.9556 -7566.9646 295.3346 -9300.9201 -7504.5413 296.7213 -113.1962 -50.7206 30473.5535 -90.9782 -11.1642
ENERGY: 900000 0.8748 9.5965 2.3612 0.0000 -10797.2724 1466.9349 0.0000 0.0000 1756.6365 -7560.8687 299.1977 -9317.5052 -7504.6570 297.7158 167.7510 185.8423 30139.3369 -60.7724 2.0939
ENERGY: 1200000 1.6471 5.2223 2.6979 0.0000 -10729.7914 1453.7807 0.0000 0.0000 1756.1527 -7510.2907 299.1153 -9266.4435 -7489.4749 299.0325 87.3986 72.8086 30117.9610 -41.7871 11.9278
ENERGY: 1500000 0.2840 7.5563 3.4614 0.0000 -10635.8766 1376.9124 0.0000 0.0000 1778.6536 -7469.0090 302.9478 -9247.6626 -7481.5466 299.9658 -857.0033 -789.3101 30924.9054 -157.1661 -104.7100
TCL: Running FEP window  14: Lambda1 0.34999999999999964 Lambda2 0.29999999999999966 [dLambda -0.04999999999999999]
TCL: Setting parameter firsttimestep to 0
TCL: Setting parameter alchLambda to 0.34999999999999964
Info: NONBONDED TABLE R-SQUARED SPACING: 0.0625
Info: NONBONDED TABLE SIZE: 705 POINTS
TCL: Setting parameter alchLambda2 to 0.29999999999999966
Info: NONBONDED TABLE R-SQUARED SPACING: 0.0625
Info: NONBONDED TABLE SIZE: 705 POINTS
TCL: Running for 1500000 steps
ETITLE: TS BOND ANGLE DIHED IMPRP ELECT VDW BOUNDARY MISC KINETIC TOTAL TEMP POTENTIAL TOTALAVG TEMPAVG PRESSURE GPRESSURE VOLUME PRESSAVG GPRESSAVG
ENERGY: 0 0.2840 7.5563 3.4614 0.0000 -10635.8762 1377.1324 0.0000 0.0000 1777.8052 -7469.6369 302.8033 -9247.4422 -7469.6369 302.8033 -887.6848 -794.4341 30924.9054 -887.6848 -794.4341
ENERGY: 300000 0.7247 4.9169 2.1418 0.0000 -10724.2833 1437.7689 0.0000 0.0000 1770.1148 -7508.6162 301.4934 -9278.7310 -7481.7279 300.9727 -70.4905 44.7310 30278.4680 -345.6959 -257.2606
ENERGY: 600000 0.5892 2.8899 2.1087 0.0000 -10774.4751 1414.4374 0.0000 0.0000 1814.7084 -7539.7415 309.0888 -9354.4498 -7500.6148 299.5459 -274.7066 -250.2569 30212.7928 -174.6330 -108.5157
ENERGY: 900000 0.5717 3.8532 2.1784 0.0000 -10821.4089 1521.8286 0.0000 0.0000 1799.7905 -7493.1865 306.5479 -9292.9770 -7489.7586 300.1439 748.7721 759.3758 30158.2880 -248.7303 -184.7377
ENERGY: 1200000 1.4713 5.8021 1.6337 0.0000 -10673.2749 1400.5397 0.0000 0.0000 1730.4573 -7533.3708 294.7388 -9263.8281 -7495.1945 300.0462 -578.5522 -495.6230 30516.7658 -261.4619 -196.8304
ENERGY: 1500000 3.0901 4.4091 4.2335 0.0000 -10739.8991 1470.1576 0.0000 0.0000 1794.3503 -7463.6584 305.6213 -9258.0088 -7492.2661 300.4915 204.5011 274.9748 30372.4088 -261.2909 -191.8955
TCL: Running FEP window  15: Lambda1 0.29999999999999966 Lambda2 0.24999999999999967 [dLambda -0.04999999999999999]
TCL: Setting parameter firsttimestep to 0
TCL: Setting parameter alchLambda to 0.29999999999999966
Info: NONBONDED TABLE R-SQUARED SPACING: 0.0625
Info: NONBONDED TABLE SIZE: 705 POINTS
TCL: Setting parameter alchLambda2 to 0.24999999999999967
Info: NONBONDED TABLE R-SQUARED SPACING: 0.0625
Info: NONBONDED TABLE SIZE: 705 POINTS
TCL: Running for 1500000 steps
ETITLE: TS BOND ANGLE DIHED IMPRP ELECT VDW BOUNDARY MISC KINETIC TOTAL TEMP POTENTIAL TOTALAVG TEMPAVG PRESSURE GPRESSURE VOLUME PRESSAVG GPRESSAVG
ENERGY: 0 3.0902 4.4091 4.2335 0.0000 -10739.8983 1470.1550 0.0000 0.0000 1793.4848 -7464.5257 305.4739 -9258.0105 -7464.5257 305.4739 195.9503 273.2133 30372.4088 195.9503 273.2133
ENERGY: 300000 1.0080 8.4312 1.5904 0.0000 -10681.9752 1449.7128 0.0000 0.0000 1722.0769 -7499.1559 293.3114 -9221.2328 -7467.1984 298.7684 253.6337 258.2890 29975.7900 22.3366 63.3137
ENERGY: 600000 0.9390 6.6973 4.3360 0.0000 -10505.3364 1296.1666 0.0000 0.0000 1773.3767 -7423.8208 302.0490 -9197.1975 -7449.3032 301.2835 -1026.5400 -988.6570 30297.3550 -68.7097 -39.5107
ENERGY: 900000 1.1432 4.0904 1.3855 0.0000 -10651.6156 1425.7302 0.0000 0.0000 1775.4992 -7443.7670 302.4105 -9219.2662 -7465.5524 300.7773 155.9279 209.4239 30058.1066 48.8193 81.0232
ENERGY: 1200000 1.4896 5.4119 2.7728 0.0000 -10567.4754 1380.4233 0.0000 0.0000 1699.6734 -7477.7044 289.4955 -9177.3778 -7460.0716 300.0471 -347.1686 -281.2252 30394.4467 38.0232 75.4701
ENERGY: 1500000 0.9455 8.7610 2.2532 0.0000 -10687.1074 1488.4416 0.0000 0.0000 1775.6544 -7411.0517 302.4369 -9186.7060 -7459.1475 299.3128 515.4968 533.0709 30476.9465 61.0646 96.2636
TCL: Running FEP window  16: Lambda1 0.24999999999999967 Lambda2 0.19999999999999968 [dLambda -0.04999999999999999]
TCL: Setting parameter firsttimestep to 0
TCL: Setting parameter alchLambda to 0.24999999999999967
Info: NONBONDED TABLE R-SQUARED SPACING: 0.0625
Info: NONBONDED TABLE SIZE: 705 POINTS
TCL: Setting parameter alchLambda2 to 0.19999999999999968
Info: NONBONDED TABLE R-SQUARED SPACING: 0.0625
Info: NONBONDED TABLE SIZE: 705 POINTS
TCL: Running for 1500000 steps
ETITLE: TS BOND ANGLE DIHED IMPRP ELECT VDW BOUNDARY MISC KINETIC TOTAL TEMP POTENTIAL TOTALAVG TEMPAVG PRESSURE GPRESSURE VOLUME PRESSAVG GPRESSAVG
ENERGY: 0 0.9455 8.7610 2.2532 0.0000 -10687.1068 1488.7073 0.0000 0.0000 1774.7782 -7411.6615 302.2877 -9186.4397 -7411.6615 302.2877 467.8169 532.4040 30476.9465 467.8169 532.4040
ENERGY: 300000 0.6212 8.4762 2.1226 0.0000 -10749.1806 1473.5982 0.0000 0.0000 1810.9728 -7453.3896 308.4525 -9264.3624 -7474.2001 302.3585 127.8614 182.1076 30346.0478 231.4019 311.0657
ENERGY: 600000 1.0358 6.7018 3.1304 0.0000 -10729.6950 1438.1975 0.0000 0.0000 1767.0467 -7513.5828 300.9708 -9280.6295 -7475.7804 301.1833 -89.7673 -65.2416 29993.2776 129.3820 188.4404
ENERGY: 900000 1.7565 8.2420 2.1652 0.0000 -10716.9629 1455.3666 0.0000 0.0000 1746.2690 -7503.1637 297.4319 -9249.4326 -7477.5800 301.0865 -71.0566 76.0536 30210.1370 85.4967 154.4172
ENERGY: 1200000 1.7318 6.0082 2.4096 0.0000 -10662.0676 1428.0209 0.0000 0.0000 1749.9162 -7473.9808 298.0531 -9223.8970 -7475.2461 301.0586 95.2079 204.9323 30113.3377 99.9642 170.9893
ENERGY: 1500000 1.6259 4.4535 4.2244 0.0000 -10779.2637 1500.6709 0.0000 0.0000 1771.5445 -7496.7446 301.7369 -9268.2891 -7472.0751 301.2562 137.9496 164.3592 30915.0822 49.3385 120.0070
TCL: Running FEP window  17: Lambda1 0.19999999999999968 Lambda2 0.1499999999999997 [dLambda -0.04999999999999999]
TCL: Setting parameter firsttimestep to 0
TCL: Setting parameter alchLambda to 0.19999999999999968
Info: NONBONDED TABLE R-SQUARED SPACING: 0.0625
Info: NONBONDED TABLE SIZE: 705 POINTS
TCL: Setting parameter alchLambda2 to 0.1499999999999997
Info: NONBONDED TABLE R-SQUARED SPACING: 0.0625
Info: NONBONDED TABLE SIZE: 705 POINTS
TCL: Running for 1500000 steps
ETITLE: TS BOND ANGLE DIHED IMPRP ELECT VDW BOUNDARY MISC KINETIC TOTAL TEMP POTENTIAL TOTALAVG TEMPAVG PRESSURE GPRESSURE VOLUME PRESSAVG GPRESSAVG
ENERGY: 0 1.6259 4.4535 4.2244 0.0000 -10779.2643 1500.5849 0.0000 0.0000 1770.6638 -7497.7119 301.5869 -9268.3756 -7497.7119 301.5869 75.7449 159.1962 30915.0822 75.7449 159.1962
ENERGY: 300000 0.6618 4.1207 2.0029 0.0000 -10599.6052 1339.2996 0.0000 0.0000 1807.4339 -7446.0862 307.8498 -9253.5201 -7462.7705 303.0654 -714.1091 -680.7969 30092.3139 -77.1839 -18.8497
ENERGY: 600000 3.8682 8.0648 3.6252 0.0000 -10679.8152 1376.4151 0.0000 0.0000 1758.2783 -7529.5636 299.4774 -9287.8419 -7502.1016 298.0046 -759.6974 -683.2236 30381.8172 -57.5433 1.1083
ENERGY: 900000 0.8704 5.8026 2.1363 0.0000 -10610.0441 1351.3569 0.0000 0.0000 1755.2414 -7494.6365 298.9601 -9249.8779 -7488.6836 297.9167 -795.1624 -737.9574 30497.0402 -136.7813 -56.9288
ENERGY: 1200000 1.1486 8.8950 2.0345 0.0000 -10633.6025 1454.8742 0.0000 0.0000 1756.9206 -7409.7296 299.2461 -9166.6502 -7479.1890 298.3400 340.7744 360.8007 30217.2795 -35.8083 33.2921
ENERGY: 1500000 1.4469 7.3447 2.9822 0.0000 -10657.3883 1421.3973 0.0000 0.0000 1751.6751 -7472.5420 298.3527 -9224.2172 -7484.2592 298.7169 -181.1470 -106.1489 30607.4360 -23.5361 40.4224
TCL: Running FEP window  18: Lambda1 0.1499999999999997 Lambda2 0.09999999999999969 [dLambda -0.05 ]
TCL: Setting parameter firsttimestep to 0
TCL: Setting parameter alchLambda to 0.1499999999999997
Info: NONBONDED TABLE R-SQUARED SPACING: 0.0625
Info: NONBONDED TABLE SIZE: 705 POINTS
TCL: Setting parameter alchLambda2 to 0.09999999999999969
Info: NONBONDED TABLE R-SQUARED SPACING: 0.0625
Info: NONBONDED TABLE SIZE: 705 POINTS
TCL: Running for 1500000 steps
ETITLE: TS BOND ANGLE DIHED IMPRP ELECT VDW BOUNDARY MISC KINETIC TOTAL TEMP POTENTIAL TOTALAVG TEMPAVG PRESSURE GPRESSURE VOLUME PRESSAVG GPRESSAVG
ENERGY: 0 1.4469 7.3447 2.9822 0.0000 -10657.3884 1421.6182 0.0000 0.0000 1750.8321 -7473.1644 298.2091 -9223.9964 -7473.1644 298.2091 -187.3082 -109.4187 30607.4360 -187.3082 -109.4187
ENERGY: 300000 0.3891 2.7788 3.0929 0.0000 -10709.6810 1451.6004 0.0000 0.0000 1738.2745 -7513.5452 296.0702 -9251.8197 -7496.5512 297.1335 228.5776 297.8622 30016.5464 87.0513 154.1900
ENERGY: 600000 1.6117 6.8908 1.6362 0.0000 -10737.2421 1483.4112 0.0000 0.0000 1799.3171 -7444.3751 306.4673 -9243.6922 -7474.6354 300.5096 185.8269 283.9762 30524.6891 -40.9806 16.6247
ENERGY: 900000 0.5499 3.5609 2.5049 0.0000 -10734.6217 1459.3691 0.0000 0.0000 1719.1249 -7549.5120 292.8086 -9268.6369 -7486.2586 299.5312 -58.6847 13.1344 30415.5141 -56.2807 -4.8680
ENERGY: 1200000 0.3372 5.9868 2.1178 0.0000 -10813.9392 1495.1573 0.0000 0.0000 1776.5709 -7533.7692 302.5930 -9310.3401 -7490.4869 300.1118 253.4467 334.1758 30183.7214 -100.3007 -43.1681
ENERGY: 1500000 1.0188 4.5369 1.4992 0.0000 -10776.2788 1478.5412 0.0000 0.0000 1757.9213 -7532.7615 299.4166 -9290.6828 -7492.2683 299.7966 284.3636 374.1981 30045.2958 -23.7902 43.9273
TCL: Running FEP window  19: Lambda1 0.09999999999999969 Lambda2 0.049999999999999684 [dLambda -0.05 ]
TCL: Setting parameter firsttimestep to 0
TCL: Setting parameter alchLambda to 0.09999999999999969
Info: NONBONDED TABLE R-SQUARED SPACING: 0.0625
Info: NONBONDED TABLE SIZE: 705 POINTS
TCL: Setting parameter alchLambda2 to 0.049999999999999684
Info: NONBONDED TABLE R-SQUARED SPACING: 0.0625
Info: NONBONDED TABLE SIZE: 705 POINTS
TCL: Running for 1500000 steps
ETITLE: TS BOND ANGLE DIHED IMPRP ELECT VDW BOUNDARY MISC KINETIC TOTAL TEMP POTENTIAL TOTALAVG TEMPAVG PRESSURE GPRESSURE VOLUME PRESSAVG GPRESSAVG
ENERGY: 0 1.0188 4.5369 1.4992 0.0000 -10776.2790 1478.0450 0.0000 0.0000 1757.0674 -7534.1119 299.2711 -9291.1793 -7534.1119 299.2711 290.0843 368.9885 30045.2958 290.0843 368.9885
ENERGY: 300000 2.3848 6.5354 1.9427 0.0000 -10701.7116 1460.8090 0.0000 0.0000 1726.6630 -7503.3768 294.0925 -9230.0398 -7503.3249 296.2108 105.0996 226.6352 30072.7434 33.6581 91.7387
ENERGY: 600000 1.0954 5.1301 2.9735 0.0000 -10517.3711 1353.3326 0.0000 0.0000 1789.4592 -7365.3804 304.7882 -9154.8396 -7469.9846 299.3099 -637.4549 -549.7605 30858.6507 -222.3186 -163.7726
ENERGY: 900000 0.2237 6.0776 2.5158 0.0000 -10684.7580 1395.9861 0.0000 0.0000 1754.5601 -7525.3947 298.8441 -9279.9547 -7482.0936 298.5498 -241.6952 -226.8178 29765.2628 -234.2495 -178.6168
ENERGY: 1200000 1.2788 3.2110 2.3846 0.0000 -10552.5722 1360.7191 0.0000 0.0000 1771.9580 -7413.0205 301.8074 -9184.9786 -7487.3630 299.2792 -293.8457 -248.6397 29989.4151 -182.6600 -131.0849
ENERGY: 1500000 0.2473 5.6926 1.3337 0.0000 -10805.5883 1465.5276 0.0000 0.0000 1789.0847 -7543.7025 304.7244 -9332.7872 -7501.3885 299.9490 54.1330 107.1678 30030.8679 -126.2358 -74.9185
TCL: Running FEP window  20: Lambda1 0.049999999999999684 Lambda2 0.0    [dLambda -0.049999999999999684]
TCL: Setting parameter firsttimestep to 0
TCL: Setting parameter alchLambda to 0.049999999999999684
Info: NONBONDED TABLE R-SQUARED SPACING: 0.0625
Info: NONBONDED TABLE SIZE: 705 POINTS
TCL: Setting parameter alchLambda2 to 0.0
Info: NONBONDED TABLE R-SQUARED SPACING: 0.0625
Info: NONBONDED TABLE SIZE: 705 POINTS
TCL: Running for 1500000 steps
ETITLE: TS BOND ANGLE DIHED IMPRP ELECT VDW BOUNDARY MISC KINETIC TOTAL TEMP POTENTIAL TOTALAVG TEMPAVG PRESSURE GPRESSURE VOLUME PRESSAVG GPRESSAVG
ENERGY: 0 0.2473 5.6926 1.3337 0.0000 -10805.5897 1465.5550 0.0000 0.0000 1788.2233 -7544.5379 304.5777 -9332.7612 -7544.5379 304.5777 28.9118 105.1629 30030.8679 28.9118 105.1629
ENERGY: 300000 0.7315 8.0506 2.2896 0.0000 -10731.4062 1419.8237 0.0000 0.0000 1744.8706 -7555.6401 297.1937 -9300.5108 -7480.2821 302.9867 -117.2257 -99.6284 30124.6322 -342.7606 -277.9966
ENERGY: 600000 1.6930 4.6412 2.7142 0.0000 -10594.4349 1354.7920 0.0000 0.0000 1763.5113 -7467.0833 300.3687 -9230.5946 -7472.1061 303.0091 -574.8160 -537.8063 30185.5076 -422.2760 -357.0130
ENERGY: 900000 0.4734 9.0335 1.9129 0.0000 -10741.4122 1494.4386 0.0000 0.0000 1745.9875 -7489.5664 297.3839 -9235.5538 -7474.7915 301.8858 618.4497 700.6429 29705.0947 -255.6743 -194.5095
ENERGY: 1200000 1.6294 6.1379 1.9034 0.0000 -10742.6038 1476.5708 0.0000 0.0000 1792.9918 -7463.3706 305.3899 -9256.3624 -7469.0150 301.9470 15.7087 58.1660 30224.0041 -227.8817 -165.0842
ENERGY: 1500000 0.2492 4.2459 1.4624 0.0000 -10617.8775 1419.8158 0.0000 0.0000 1725.7479 -7466.3564 293.9366 -9192.1042 -7475.4980 300.2273 80.2748 122.5579 30125.4521 -218.8175 -153.6281
TCL: Exiting due to exit command.
