Info: SIMULATION PARAMETERS:
Info: TIMESTEP               2
Info: NUMBER OF STEPS        0
Info: STEPS PER CYCLE        10
Info: PERIODIC CELL BASIS 1  30.9742 0 0
Info: PERIODIC CELL BASIS 2  0 29.5692 0
Info: PERIODIC CELL BASIS 3  0 0 33.1565
Info: PERIODIC CELL CENTER   0 0 0
Info: WRAPPING WATERS AROUND PERIODIC BOUNDARIES ON OUTPUT.
Info: WRAPPING ALL CLUSTERS AROUND PERIODIC BOUNDARIES ON OUTPUT.
Info: FIRST LDB TIMESTEP     50
Info: LAST LDB TIMESTEP     -1
Info: HOM BACKGROUND SCALING 1
Info: PME BACKGROUND SCALING 1
Info: MIN ATOMS PER PATCH    40
Info: EMPTY PATCH LOAD       40 ATOMS
Info: VELOCITY FILE          mobley_8426916_equil.vel
Info: CENTER OF MASS MOVING INITIALLY? NO
Info: DIELECTRIC             1
Info: EXCLUDE                SCALED ONE-FOUR
Info: 1-4 ELECTROSTATICS SCALED BY 0.833333
Info: MODIFIED 1-4 VDW PARAMETERS WILL BE USED
Info: DCD FILENAME           mobley_8426916_prod.dcd
Info: DCD FREQUENCY          100000
Info: DCD FIRST STEP         100000
Info: DCD FILE WILL CONTAIN UNIT CELL DATA
Info: XST FILENAME           mobley_8426916_prod.xst
Info: XST FREQUENCY          100000
Info: NO VELOCITY DCD OUTPUT
Info: NO FORCE DCD OUTPUT
Info: OUTPUT FILENAME        mobley_8426916_prod
Info: BINARY OUTPUT FILES WILL BE USED
Info: RESTART FILENAME       mobley_8426916_prod.restart
Info: RESTART FREQUENCY      100000
Info: BINARY RESTART FILES WILL BE USED
Info: CUTOFF                 9
Info: PAIRLIST DISTANCE      11
Info: PAIRLIST SHRINK RATE   0.01
Info: PAIRLIST GROW RATE     0.01
Info: PAIRLIST TRIGGER       0.3
Info: PAIRLISTS PER CYCLE    2
Info: PAIRLISTS ENABLED
Info: MARGIN                 2
Info: HYDROGEN GROUP CUTOFF  2.5
Info: PATCH DIMENSION        15.5
Info: ENERGY OUTPUT STEPS    100000
Info: ENERGY EVALUATION STEPS    100000
Info: OUTPUT ENERGY PRECISION 4
Info: CROSSTERM ENERGY INCLUDED IN DIHEDRAL
Info: TIMING OUTPUT STEPS    1000000
Info: PRESSURE OUTPUT STEPS  100000
Info: ALCHEMICAL FEP ON
Info: FEP CURRENT LAMBDA VALUE     0
Info: FEP COMPARISON LAMBDA VALUE  0.05
Info: FEP INTRA-ALCHEMICAL NON-BONDED INTERACTIONS WILL BE RETAINED
Info: FEP INTRA-ALCHEMICAL BONDED INTERACTIONS WILL BE RETAINED
Info: FEP VDW SHIFTING COEFFICIENT 5
Info: FEP ELEC. ACTIVE FOR ANNIHILATED PARTICLES BETWEEN LAMBDA = 0 AND LAMBDA = 0.5
Info: FEP ELEC. ACTIVE FOR EXNIHILATED PARTICLES BETWEEN LAMBDA = 0.5 AND LAMBDA = 1
Info: FEP VDW ACTIVE FOR ANNIHILATED PARTICLES BETWEEN LAMBDA = 0 AND LAMBDA = 1
Info: FEP VDW ACTIVE FOR EXNIHILATED PARTICLES BETWEEN LAMBDA = 0 AND LAMBDA = 1
Info: FEP BOND ACTIVE FOR ANNIHILATED PARTICLES BETWEEN LAMBDA = 1 AND LAMBDA = 1
Info: FEP BOND ACTIVE FOR EXNIHILATED PARTICLES BETWEEN LAMBDA = 0 AND LAMBDA = 0
Info: LANGEVIN DYNAMICS ACTIVE
Info: LANGEVIN TEMPERATURE   300
Info: LANGEVIN USING BBK INTEGRATOR
Info: LANGEVIN DAMPING COEFFICIENT IS 1 INVERSE PS
Info: LANGEVIN DYNAMICS APPLIED TO HYDROGENS
Info: LANGEVIN PISTON PRESSURE CONTROL ACTIVE
Info:        TARGET PRESSURE IS 1.01325 BAR
Info:     OSCILLATION PERIOD IS 50 FS
Info:             DECAY TIME IS 25 FS
Info:     PISTON TEMPERATURE IS 300 K
Info:       PRESSURE CONTROL IS GROUP-BASED
Info:    INITIAL STRAIN RATE IS -0.000686698 -0.000686698 -0.000686698
Info:       CELL FLUCTUATION IS ISOTROPIC
Info: PARTICLE MESH EWALD (PME) ACTIVE
Info: PME TOLERANCE               1e-06
Info: PME EWALD COEFFICIENT       0.348832
Info: PME INTERPOLATION ORDER     4
Info: PME GRID DIMENSIONS         32 32 36
Info: PME MAXIMUM GRID SPACING    1
Info: PME CALCULATION WILL BE PERFORMED ON GPU
Info: FULL ELECTROSTATIC EVALUATION FREQUENCY      2
Info: USING VERLET I (r-RESPA) MTS SCHEME.
Info: C1 SPLITTING OF LONG RANGE ELECTROSTATICS
Info: PLACING ATOMS IN PATCHES BY HYDROGEN GROUPS
Info: RIGID BONDS TO HYDROGEN : ALL
Info:         ERROR TOLERANCE : 1e-08
Info:          MAX ITERATIONS : 100
Info: RIGID WATER USING SETTLE ALGORITHM
Info: RANDOM NUMBER SEED     1743851223
Info: USE HYDROGEN BONDS?    NO
Info: Using AMBER format force field!
Info: AMBER PARM FILE        mobley_8426916.prmtop
Info: COORDINATE PDB         mobley_8426916.pdb
Info: Exclusions will be read from PARM file!
Info: SCNB (VDW SCALING)     2
Info: USING ARITHMETIC MEAN TO COMBINE L-J SIGMA PARAMETERS
Info: BINARY COORDINATES     mobley_8426916_equil.coor
Info: SUMMARY OF PARAMETERS:
Info: 7 BONDS
Info: 8 ANGLES
Info:   8 HARMONIC
Info:   0 COSINE-BASED
Info: 3 DIHEDRAL
Info: 0 IMPROPER
Info: 0 CROSSTERM
Info: 0 VDW
Info: 28 VDW_PAIRS
Info: 0 NBTHOLE_PAIRS
Info: To read alchdata from file: mobley_8426916.pdb
Info: To read alchflag data from column: 5
Info: STRUCTURE SUMMARY:
Info: 2953 ATOMS
Info: 2952 BONDS
Info: 27 ANGLES
Info: 32 DIHEDRALS
Info: 0 IMPROPERS
Info: 0 CROSSTERMS
Info: 3009 EXCLUSIONS
Info: 2948 RIGID BONDS
Info: ALCH: 0 ATOMS TO DISAPPEAR IN FINAL STATE
Info: ALCH: 16 ATOMS TO APPEAR IN FINAL STATE
Info: 5911 DEGREES OF FREEDOM
Info: 984 HYDROGEN GROUPS
Info: 4 ATOMS IN LARGEST HYDROGEN GROUP
Info: 984 MIGRATION GROUPS
Info: 4 ATOMS IN LARGEST MIGRATION GROUP
Info: TOTAL MASS = 17710.8 amu
Info: TOTAL CHARGE = 0.000100017 e
Info: MASS DENSITY = 0.968479 g/cm^3
Info: ATOM DENSITY = 0.0972425 atoms/A^3
Info: ADDED 0 IMPLICIT EXCLUSIONS
Info: NONBONDED TABLE R-SQUARED SPACING: 0.0625
Info: NONBONDED TABLE SIZE: 705 POINTS
Info: REMOVING COM VELOCITY 0.131335 -0.136541 0.0158604
Info: Use 3D box decompostion in PME FFT.
Info: Updated CUDA force table with 4096 elements.
Info: Updated CUDA LJ table with 7 x 7 elements.
Info: Found 19 unique exclusion lists needing 44 bytes
TCL: Running for 1500000 steps
ETITLE: TS BOND ANGLE DIHED IMPRP ELECT VDW BOUNDARY MISC KINETIC TOTAL TEMP POTENTIAL TOTALAVG TEMPAVG PRESSURE GPRESSURE VOLUME PRESSAVG GPRESSAVG
ENERGY: 0 1.8983 11.7124 0.6211 0.0000 -10641.4449 1365.8682 0.0000 0.0000 1769.1790 -7492.1658 301.2321 -9261.3449 -7492.1658 301.2321 -594.7371 -512.4867 30367.3847 -594.7371 -512.4867
ENERGY: 300000 0.4717 5.3822 2.1426 0.0000 -10716.4675 1463.7764 0.0000 0.0000 1801.5262 -7443.1684 306.7397 -9244.6946 -7442.6870 305.0490 16.8598 76.4224 30549.8058 -113.8943 -59.8542
ENERGY: 600000 1.6116 8.1478 1.4197 0.0000 -10633.5678 1351.3653 0.0000 0.0000 1689.4278 -7581.5958 287.6531 -9271.0235 -7466.5769 302.6055 -691.8936 -608.4580 30040.0842 -259.3905 -204.6150
ENERGY: 900000 0.3278 5.9737 2.5887 0.0000 -10675.5950 1452.2803 0.0000 0.0000 1715.7338 -7498.6908 292.1321 -9214.4245 -7470.6295 302.1572 256.6931 360.6417 30196.5287 -57.0985 3.7696
ENERGY: 1200000 2.3551 7.6332 2.4658 0.0000 -10685.8792 1449.5685 0.0000 0.0000 1741.2880 -7482.5686 296.4832 -9223.8566 -7476.9379 301.4220 156.3012 193.6372 30136.7984 -74.1505 -19.8489
ENERGY: 1500000 1.2825 14.6662 4.9813 0.0000 -10821.1736 1551.5204 0.0000 0.0000 1703.2949 -7545.4284 290.0142 -9248.7233 -7482.3916 300.8781 810.5200 891.3180 30133.0336 3.3734 57.6536
TCL: Running FEP window   2: Lambda1 0.05   Lambda2 0.1    [dLambda 0.05  ]
TCL: Setting parameter firsttimestep to 0
TCL: Setting parameter alchLambda to 0.05
Info: NONBONDED TABLE R-SQUARED SPACING: 0.0625
Info: NONBONDED TABLE SIZE: 705 POINTS
TCL: Setting parameter alchLambda2 to 0.1
Info: NONBONDED TABLE R-SQUARED SPACING: 0.0625
Info: NONBONDED TABLE SIZE: 705 POINTS
TCL: Running for 1500000 steps
ETITLE: TS BOND ANGLE DIHED IMPRP ELECT VDW BOUNDARY MISC KINETIC TOTAL TEMP POTENTIAL TOTALAVG TEMPAVG PRESSURE GPRESSURE VOLUME PRESSAVG GPRESSAVG
ENERGY: 0 1.2825 14.6661 4.9813 0.0000 -10821.1740 1554.6010 0.0000 0.0000 1702.4004 -7543.2428 289.8619 -9245.6431 -7543.2428 289.8619 805.6008 896.3972 30133.0336 805.6008 896.3972
ENERGY: 300000 0.7799 3.4109 1.0360 0.0000 -10677.7790 1416.4739 0.0000 0.0000 1740.8450 -7515.2332 296.4077 -9256.0782 -7470.3517 297.4856 -1.2038 -14.9052 30323.2400 304.0878 354.6085
ENERGY: 600000 3.2682 6.0639 0.4431 0.0000 -10716.1684 1408.3302 0.0000 0.0000 1763.9496 -7534.1134 300.3417 -9298.0631 -7475.0512 299.1336 -539.4085 -471.8796 30335.6539 21.8342 99.3318
ENERGY: 900000 0.9985 8.4550 1.0402 0.0000 -10597.0418 1387.6847 0.0000 0.0000 1764.6930 -7434.1705 300.4683 -9198.8635 -7464.4534 299.5984 -472.7554 -380.2800 30482.5057 -118.9627 -53.7879
ENERGY: 1200000 1.5777 9.9066 0.9774 0.0000 -10589.4131 1371.4669 0.0000 0.0000 1728.0411 -7477.4432 294.2277 -9205.4843 -7480.1854 298.8856 -619.6923 -587.2956 30370.6032 -71.4124 -9.2507
ENERGY: 1500000 0.7374 7.8227 0.7199 0.0000 -10572.3088 1364.8902 0.0000 0.0000 1763.2007 -7434.9379 300.2142 -9198.1385 -7476.0729 299.0835 -535.3758 -521.6186 30477.9026 -95.6703 -35.0477
TCL: Running FEP window   3: Lambda1 0.1    Lambda2 0.15000000000000002 [dLambda 0.05000000000000002]
TCL: Setting parameter firsttimestep to 0
TCL: Setting parameter alchLambda to 0.1
Info: NONBONDED TABLE R-SQUARED SPACING: 0.0625
Info: NONBONDED TABLE SIZE: 705 POINTS
TCL: Setting parameter alchLambda2 to 0.15000000000000002
Info: NONBONDED TABLE R-SQUARED SPACING: 0.0625
Info: NONBONDED TABLE SIZE: 705 POINTS
TCL: Running for 1500000 steps
ETITLE: TS BOND ANGLE DIHED IMPRP ELECT VDW BOUNDARY MISC KINETIC TOTAL TEMP POTENTIAL TOTALAVG TEMPAVG PRESSURE GPRESSURE VOLUME PRESSAVG GPRESSAVG
ENERGY: 0 0.7374 7.8227 0.7199 0.0000 -10572.3099 1366.4990 0.0000 0.0000 1762.3048 -7434.2261 300.0616 -9196.5309 -7434.2261 300.0616 -609.9166 -516.9882 30477.9026 -609.9166 -516.9882
ENERGY: 300000 1.2527 5.8550 1.5527 0.0000 -10685.2568 1431.1633 0.0000 0.0000 1776.1010 -7469.3321 302.4106 -9245.4331 -7463.3803 301.9032 -80.8793 8.2318 30195.0356 -291.7030 -215.8831
ENERGY: 600000 1.8601 9.0459 2.0173 0.0000 -10657.6819 1437.6437 0.0000 0.0000 1779.5492 -7427.5656 302.9978 -9207.1148 -7456.0256 301.6546 -283.1661 -231.7431 30650.4968 -413.2726 -350.3339
ENERGY: 900000 0.6492 6.5126 1.4001 0.0000 -10760.8645 1491.9938 0.0000 0.0000 1751.4771 -7508.8318 298.2180 -9260.3089 -7470.4068 301.0353 287.2726 334.6893 30543.3802 -262.4103 -197.8653
ENERGY: 1200000 0.8299 7.9800 1.4610 0.0000 -10722.5628 1459.9899 0.0000 0.0000 1828.8162 -7423.4858 311.3863 -9252.3020 -7468.4634 301.7118 215.3634 303.5857 30083.8810 -228.4117 -168.3549
ENERGY: 1500000 1.4915 9.0822 1.9684 0.0000 -10728.6315 1482.6925 0.0000 0.0000 1827.5744 -7405.8225 311.1748 -9233.3969 -7465.7821 301.8839 228.4101 337.3387 30238.2324 -165.4608 -108.9843
TCL: Running FEP window   4: Lambda1 0.15000000000000002 Lambda2 0.2    [dLambda 0.04999999999999999]
TCL: Setting parameter firsttimestep to 0
TCL: Setting parameter alchLambda to 0.15000000000000002
Info: NONBONDED TABLE R-SQUARED SPACING: 0.0625
Info: NONBONDED TABLE SIZE: 705 POINTS
TCL: Setting parameter alchLambda2 to 0.2
Info: NONBONDED TABLE R-SQUARED SPACING: 0.0625
Info: NONBONDED TABLE SIZE: 705 POINTS
TCL: Running for 1500000 steps
ETITLE: TS BOND ANGLE DIHED IMPRP ELECT VDW BOUNDARY MISC KINETIC TOTAL TEMP POTENTIAL TOTALAVG TEMPAVG PRESSURE GPRESSURE VOLUME PRESSAVG GPRESSAVG
ENERGY: 0 1.4915 9.0822 1.9684 0.0000 -10728.6300 1483.9793 0.0000 0.0000 1826.6844 -7405.4242 311.0233 -9232.1085 -7405.4242 311.0233 254.1979 344.7033 30238.2324 254.1979 344.7033
ENERGY: 300000 0.8747 8.5299 1.1051 0.0000 -10692.4172 1459.5173 0.0000 0.0000 1797.0017 -7425.3885 305.9693 -9222.3902 -7473.8490 301.7470 258.0951 275.4185 30237.9154 -89.3983 -28.2129
ENERGY: 600000 1.1069 8.2389 2.4887 0.0000 -10857.2041 1469.6840 0.0000 0.0000 1731.8747 -7643.8109 294.8804 -9375.6856 -7500.5335 301.5206 -182.4035 -115.9854 30387.7526 -34.5267 33.6737
ENERGY: 900000 0.5679 5.2810 1.7469 0.0000 -10749.5083 1444.4265 0.0000 0.0000 1800.8728 -7496.6132 306.6285 -9297.4860 -7492.5954 302.3561 -131.5123 -58.4662 30522.5865 36.4175 103.0410
ENERGY: 1200000 0.9009 3.9445 2.6722 0.0000 -10568.7332 1425.5197 0.0000 0.0000 1796.3111 -7339.3848 305.8517 -9135.6959 -7479.1190 302.3625 129.7784 200.2968 30343.3509 -26.8060 39.7571
ENERGY: 1500000 0.4658 6.8192 2.2490 0.0000 -10580.8037 1387.1329 0.0000 0.0000 1776.8075 -7407.3293 302.5309 -9184.1367 -7475.3859 301.1485 -481.0241 -400.8785 30871.6432 -98.7630 -28.6062
TCL: Running FEP window   5: Lambda1 0.2    Lambda2 0.25   [dLambda 0.04999999999999999]
TCL: Setting parameter firsttimestep to 0
TCL: Setting parameter alchLambda to 0.2
Info: NONBONDED TABLE R-SQUARED SPACING: 0.0625
Info: NONBONDED TABLE SIZE: 705 POINTS
TCL: Setting parameter alchLambda2 to 0.25
Info: NONBONDED TABLE R-SQUARED SPACING: 0.0625
Info: NONBONDED TABLE SIZE: 705 POINTS
TCL: Running for 1500000 steps
ETITLE: TS BOND ANGLE DIHED IMPRP ELECT VDW BOUNDARY MISC KINETIC TOTAL TEMP POTENTIAL TOTALAVG TEMPAVG PRESSURE GPRESSURE VOLUME PRESSAVG GPRESSAVG
ENERGY: 0 0.4658 6.8192 2.2490 0.0000 -10580.8028 1387.2047 0.0000 0.0000 1775.9404 -7408.1237 302.3833 -9184.0641 -7408.1237 302.3833 -483.5290 -398.0604 30871.6432 -483.5290 -398.0604
ENERGY: 300000 0.8426 4.5082 0.4831 0.0000 -10738.6169 1426.4514 0.0000 0.0000 1765.4755 -7540.8561 300.6015 -9306.3315 -7475.7929 302.8853 -430.1397 -364.7588 30684.5568 -18.0871 59.9877
ENERGY: 600000 4.1308 6.8693 1.2732 0.0000 -10581.7145 1379.6146 0.0000 0.0000 1750.7974 -7439.0292 298.1023 -9189.8266 -7479.0862 300.7680 -258.3375 -218.6396 30287.1988 -105.7803 -44.2638
ENERGY: 900000 0.3613 4.5926 3.2750 0.0000 -10674.8959 1404.3111 0.0000 0.0000 1729.0407 -7533.3151 294.3979 -9262.3558 -7487.0727 298.7207 -336.9530 -192.1728 30172.4029 -78.9115 -5.8975
ENERGY: 1200000 0.3044 6.7775 1.4771 0.0000 -10668.8765 1454.1281 0.0000 0.0000 1803.7204 -7402.4689 307.1133 -9206.1893 -7479.7500 299.3425 640.4462 702.3788 29697.9216 -10.9940 54.0039
ENERGY: 1500000 0.5638 7.0658 1.4838 0.0000 -10667.3327 1507.4878 0.0000 0.0000 1820.3290 -7330.4025 309.9412 -9150.7316 -7481.4354 299.0835 663.7330 717.1780 30549.1239 67.6234 133.3277
TCL: Running FEP window   6: Lambda1 0.25   Lambda2 0.3    [dLambda 0.04999999999999999]
TCL: Setting parameter firsttimestep to 0
TCL: Setting parameter alchLambda to 0.25
Info: NONBONDED TABLE R-SQUARED SPACING: 0.0625
Info: NONBONDED TABLE SIZE: 705 POINTS
TCL: Setting parameter alchLambda2 to 0.3
Info: NONBONDED TABLE R-SQUARED SPACING: 0.0625
Info: NONBONDED TABLE SIZE: 705 POINTS
TCL: Running for 1500000 steps
ETITLE: TS BOND ANGLE DIHED IMPRP ELECT VDW BOUNDARY MISC KINETIC TOTAL TEMP POTENTIAL TOTALAVG TEMPAVG PRESSURE GPRESSURE VOLUME PRESSAVG GPRESSAVG
ENERGY: 0 0.5638 7.0658 1.4838 0.0000 -10667.3334 1508.0140 0.0000 0.0000 1819.4357 -7330.7703 309.7891 -9150.2060 -7330.7703 309.7891 638.0264 723.9203 30549.1239 638.0264 723.9203
ENERGY: 300000 0.4414 5.6548 3.0993 0.0000 -10739.8761 1473.3672 0.0000 0.0000 1718.3090 -7539.0045 292.5706 -9257.3135 -7442.8635 300.3779 313.5340 424.6704 29965.2313 2.8027 101.3533
ENERGY: 600000 1.3207 10.3300 1.6549 0.0000 -10720.8395 1507.9987 0.0000 0.0000 1749.1245 -7450.4107 297.8174 -9199.5352 -7460.5945 300.7330 502.2258 609.5996 30134.2033 41.5660 146.8637
ENERGY: 900000 0.6825 5.3695 1.5279 0.0000 -10699.7962 1387.4376 0.0000 0.0000 1755.2045 -7549.5742 298.8527 -9304.7787 -7474.6916 299.9569 -498.5824 -411.0755 29881.7965 -38.3128 49.2826
ENERGY: 1200000 2.9903 7.4702 0.7863 0.0000 -10760.5515 1510.5384 0.0000 0.0000 1783.6996 -7455.0668 303.7044 -9238.7664 -7477.2310 299.5247 646.2942 687.6304 30129.8156 108.8727 189.5524
ENERGY: 1500000 2.0660 9.2741 0.9846 0.0000 -10783.8228 1499.7928 0.0000 0.0000 1727.5552 -7544.1501 294.1449 -9271.7053 -7491.6822 299.6886 469.7215 467.0473 30059.8956 165.4853 243.6237
TCL: Running FEP window   7: Lambda1 0.3    Lambda2 0.35   [dLambda 0.04999999999999999]
TCL: Setting parameter firsttimestep to 0
TCL: Setting parameter alchLambda to 0.3
Info: NONBONDED TABLE R-SQUARED SPACING: 0.0625
Info: NONBONDED TABLE SIZE: 705 POINTS
TCL: Setting parameter alchLambda2 to 0.35
Info: NONBONDED TABLE R-SQUARED SPACING: 0.0625
Info: NONBONDED TABLE SIZE: 705 POINTS
TCL: Running for 1500000 steps
ETITLE: TS BOND ANGLE DIHED IMPRP ELECT VDW BOUNDARY MISC KINETIC TOTAL TEMP POTENTIAL TOTALAVG TEMPAVG PRESSURE GPRESSURE VOLUME PRESSAVG GPRESSAVG
ENERGY: 0 2.0660 9.2741 0.9846 0.0000 -10783.8220 1500.6540 0.0000 0.0000 1726.6580 -7544.1853 293.9922 -9270.8433 -7544.1853 293.9922 385.8567 474.3316 30059.8956 385.8567 474.3316
ENERGY: 300000 0.3702 12.0742 3.2299 0.0000 -10772.9829 1472.3355 0.0000 0.0000 1731.8299 -7553.1433 294.8728 -9284.9732 -7559.4263 295.0040 92.5952 144.3052 30248.0353 498.1189 562.5080
ENERGY: 600000 0.1808 4.3394 2.3469 0.0000 -10832.9970 1510.3407 0.0000 0.0000 1761.5820 -7554.2071 299.9385 -9315.7891 -7537.2081 297.1772 466.4098 619.7232 29999.3942 397.2633 482.7499
ENERGY: 900000 0.2216 7.7828 1.0696 0.0000 -10716.9248 1448.1909 0.0000 0.0000 1773.3404 -7486.3195 301.9406 -9259.6600 -7519.2213 297.5445 -29.9024 47.7784 30332.3990 227.1792 304.1098
ENERGY: 1200000 1.4024 5.3527 1.8627 0.0000 -10741.1525 1467.1544 0.0000 0.0000 1774.7448 -7490.6356 302.1797 -9265.3804 -7516.9588 298.8244 128.5382 226.3277 30020.5301 174.7695 251.2133
ENERGY: 1500000 0.4846 8.9630 3.2243 0.0000 -10547.8736 1341.8788 0.0000 0.0000 1784.2308 -7409.0921 303.7949 -9193.3230 -7499.5577 299.8705 -739.4715 -707.0733 30810.5782 158.5098 222.8321
TCL: Running FEP window   8: Lambda1 0.35   Lambda2 0.39999999999999997 [dLambda 0.04999999999999999]
TCL: Setting parameter firsttimestep to 0
TCL: Setting parameter alchLambda to 0.35
Info: NONBONDED TABLE R-SQUARED SPACING: 0.0625
Info: NONBONDED TABLE SIZE: 705 POINTS
TCL: Setting parameter alchLambda2 to 0.39999999999999997
Info: NONBONDED TABLE R-SQUARED SPACING: 0.0625
Info: NONBONDED TABLE SIZE: 705 POINTS
TCL: Running for 1500000 steps
ETITLE: TS BOND ANGLE DIHED IMPRP ELECT VDW BOUNDARY MISC KINETIC TOTAL TEMP POTENTIAL TOTALAVG TEMPAVG PRESSURE GPRESSURE VOLUME PRESSAVG GPRESSAVG
ENERGY: 0 0.4846 8.9630 3.2243 0.0000 -10547.8738 1342.1828 0.0000 0.0000 1783.3587 -7409.6605 303.6464 -9193.0192 -7409.6605 303.6464 -788.5477 -702.5484 30810.5782 -788.5477 -702.5484
ENERGY: 300000 0.4942 8.0853 2.3636 0.0000 -10537.9081 1375.2354 0.0000 0.0000 1772.0484 -7379.6812 301.7206 -9151.7296 -7452.1462 300.2321 -618.6677 -564.0648 31154.7202 -729.0614 -650.6333
ENERGY: 600000 1.4533 8.5191 0.9096 0.0000 -10704.5359 1439.7422 0.0000 0.0000 1708.6042 -7545.3075 290.9182 -9253.9117 -7458.2459 299.0571 68.8903 155.3966 29892.6735 -492.6560 -426.9794
ENERGY: 900000 0.2027 6.6112 0.3420 0.0000 -10721.8557 1393.3590 0.0000 0.0000 1789.0000 -7532.3408 304.6069 -9321.3409 -7478.7076 298.3803 -587.7000 -488.0646 30313.2292 -283.2365 -214.0288
ENERGY: 1200000 1.7961 8.9131 0.9418 0.0000 -10751.7902 1448.0937 0.0000 0.0000 1797.3989 -7494.6466 306.0370 -9292.0455 -7495.9667 298.2102 29.4483 119.9538 30023.7200 -200.1387 -127.6994
ENERGY: 1500000 1.2302 6.1346 3.2235 0.0000 -10616.8925 1366.4419 0.0000 0.0000 1799.9116 -7439.9507 306.4648 -9239.8622 -7497.6356 299.0544 -771.3934 -580.3467 30935.6452 -260.9090 -179.3924
TCL: Running FEP window   9: Lambda1 0.39999999999999997 Lambda2 0.44999999999999996 [dLambda 0.04999999999999999]
TCL: Setting parameter firsttimestep to 0
TCL: Setting parameter alchLambda to 0.39999999999999997
Info: NONBONDED TABLE R-SQUARED SPACING: 0.0625
Info: NONBONDED TABLE SIZE: 705 POINTS
TCL: Setting parameter alchLambda2 to 0.44999999999999996
Info: NONBONDED TABLE R-SQUARED SPACING: 0.0625
Info: NONBONDED TABLE SIZE: 705 POINTS
TCL: Running for 1500000 steps
ETITLE: TS BOND ANGLE DIHED IMPRP ELECT VDW BOUNDARY MISC KINETIC TOTAL TEMP POTENTIAL TOTALAVG TEMPAVG PRESSURE GPRESSURE VOLUME PRESSAVG GPRESSAVG
ENERGY: 0 1.2302 6.1346 3.2235 0.0000 -10616.8921 1366.4581 0.0000 0.0000 1799.0838 -7440.7619 306.3239 -9239.8457 -7440.7619 306.3239 -668.5568 -577.8346 30935.6452 -668.5568 -577.8346
ENERGY: 300000 0.2500 8.2646 1.0751 0.0000 -10644.8152 1382.3054 0.0000 0.0000 1789.5617 -7463.3584 304.7026 -9252.9201 -7473.8595 303.1900 -589.5083 -543.0105 30648.7110 -521.7049 -456.7730
ENERGY: 600000 0.9907 9.6962 0.8668 0.0000 -10669.6413 1459.9777 0.0000 0.0000 1763.9810 -7434.1288 300.3470 -9198.1098 -7473.3223 302.2820 -31.5428 69.6225 30655.4838 -332.9245 -252.0682
ENERGY: 900000 0.3189 6.5954 0.8157 0.0000 -10578.9016 1345.2310 0.0000 0.0000 1791.6630 -7434.2776 305.0603 -9225.9406 -7471.0127 303.5079 -563.7983 -548.7647 30361.0992 -298.4275 -221.9407
ENERGY: 1200000 0.9434 7.2786 0.9113 0.0000 -10687.2926 1442.8269 0.0000 0.0000 1789.5600 -7445.7724 304.7023 -9235.3324 -7486.7196 302.7712 -38.7230 40.3286 30563.3171 -224.4526 -147.7432
ENERGY: 1500000 0.7220 6.9310 1.6191 0.0000 -10660.7440 1413.4321 0.0000 0.0000 1770.9070 -7467.1328 301.5263 -9238.0398 -7488.4168 302.4933 -636.5660 -557.5432 31094.8063 -231.4168 -150.7134
TCL: Running FEP window  10: Lambda1 0.44999999999999996 Lambda2 0.49999999999999994 [dLambda 0.04999999999999999]
TCL: Setting parameter firsttimestep to 0
TCL: Setting parameter alchLambda to 0.44999999999999996
Info: NONBONDED TABLE R-SQUARED SPACING: 0.0625
Info: NONBONDED TABLE SIZE: 705 POINTS
TCL: Setting parameter alchLambda2 to 0.49999999999999994
Info: NONBONDED TABLE R-SQUARED SPACING: 0.0625
Info: NONBONDED TABLE SIZE: 705 POINTS
TCL: Running for 1500000 steps
ETITLE: TS BOND ANGLE DIHED IMPRP ELECT VDW BOUNDARY MISC KINETIC TOTAL TEMP POTENTIAL TOTALAVG TEMPAVG PRESSURE GPRESSURE VOLUME PRESSAVG GPRESSAVG
ENERGY: 0 0.7220 6.9310 1.6191 0.0000 -10660.7432 1413.1222 0.0000 0.0000 1770.0274 -7468.3214 301.3765 -9238.3488 -7468.3214 301.3765 -636.9899 -554.8954 31094.8063 -636.9899 -554.8954
ENERGY: 300000 0.3414 4.4604 1.1774 0.0000 -10827.8644 1515.0638 0.0000 0.0000 1747.6725 -7559.1490 297.5702 -9306.8215 -7459.5147 302.4133 792.3143 828.6339 29686.7836 229.8798 299.6544
ENERGY: 600000 1.2186 7.6439 2.6525 0.0000 -10595.9576 1385.8932 0.0000 0.0000 1761.7375 -7436.8119 299.9650 -9198.5494 -7452.5921 302.2561 -670.2255 -625.1440 30970.2571 -93.1884 -35.6666
ENERGY: 900000 0.5357 8.1014 2.3357 0.0000 -10692.0768 1507.5811 0.0000 0.0000 1758.7143 -7414.8085 299.4503 -9173.5228 -7450.8898 302.3896 576.6961 631.0684 30396.4186 -13.3171 44.7828
ENERGY: 1200000 0.6027 8.4400 3.2697 0.0000 -10714.2050 1421.1214 0.0000 0.0000 1738.2731 -7542.4981 295.9698 -9280.7712 -7452.4046 302.5461 -110.6917 -30.7913 29861.9690 -3.5603 55.4293
ENERGY: 1500000 0.5738 7.0569 1.7173 0.0000 -10745.1718 1472.7469 0.0000 0.0000 1769.5402 -7493.5367 301.2936 -9263.0769 -7464.9080 301.8317 231.0458 304.2984 30017.9307 31.4041 94.4431
TCL: Running FEP window  11: Lambda1 0.49999999999999994 Lambda2 0.5499999999999999 [dLambda 0.04999999999999999]
TCL: Setting parameter firsttimestep to 0
TCL: Setting parameter alchLambda to 0.49999999999999994
Info: NONBONDED TABLE R-SQUARED SPACING: 0.0625
Info: NONBONDED TABLE SIZE: 705 POINTS
TCL: Setting parameter alchLambda2 to 0.5499999999999999
Info: NONBONDED TABLE R-SQUARED SPACING: 0.0625
Info: NONBONDED TABLE SIZE: 705 POINTS
TCL: Running for 1500000 steps
ETITLE: TS BOND ANGLE DIHED IMPRP ELECT VDW BOUNDARY MISC KINETIC TOTAL TEMP POTENTIAL TOTALAVG TEMPAVG PRESSURE GPRESSURE VOLUME PRESSAVG GPRESSAVG
ENERGY: 0 0.5738 7.0569 1.7173 0.0000 -10745.1726 1472.2785 0.0000 0.0000 1768.6174 -7494.9287 301.1364 -9263.5461 -7494.9287 301.1364 216.6391 304.6147 30017.9307 216.6391 304.6147
ENERGY: 300000 0.6677 6.9104 0.9679 0.0000 -10736.2994 1421.2358 0.0000 0.0000 1797.8049 -7508.7127 306.1061 -9306.5175 -7515.8612 302.0530 -475.8378 -360.6447 30569.4857 -38.4550 39.3483
ENERGY: 600000 0.4219 7.8725 2.0400 0.0000 -10757.1023 1364.9424 0.0000 0.0000 1723.5867 -7658.2388 293.4692 -9381.8255 -7534.4348 299.6173 -696.4252 -655.2217 29843.8001 -112.5353 -44.1565
ENERGY: 900000 0.7528 6.4686 1.4995 0.0000 -10648.0667 1484.5561 0.0000 0.0000 1764.6115 -7390.1783 300.4544 -9154.7897 -7510.2804 299.8692 441.8982 448.9718 30796.2469 -135.7720 -77.6476
ENERGY: 1200000 1.2528 9.8658 3.2551 0.0000 -10718.6798 1488.8495 0.0000 0.0000 1805.0439 -7410.4127 307.3387 -9215.4566 -7496.2964 300.5827 304.3684 405.9463 30641.4933 -94.8920 -31.8926
ENERGY: 1500000 2.1074 5.3635 2.1518 0.0000 -10845.2581 1562.2241 0.0000 0.0000 1791.5798 -7481.8315 305.0462 -9273.4112 -7495.0265 301.4330 1074.7470 1211.7521 29928.8212 -42.6263 24.8529
TCL: Running FEP window  12: Lambda1 0.5499999999999999 Lambda2 0.6    [dLambda 0.050000000000000044]
TCL: Setting parameter firsttimestep to 0
TCL: Setting parameter alchLambda to 0.5499999999999999
Info: NONBONDED TABLE R-SQUARED SPACING: 0.0625
Info: NONBONDED TABLE SIZE: 705 POINTS
TCL: Setting parameter alchLambda2 to 0.6
Info: NONBONDED TABLE R-SQUARED SPACING: 0.0625
Info: NONBONDED TABLE SIZE: 705 POINTS
TCL: Running for 1500000 steps
ETITLE: TS BOND ANGLE DIHED IMPRP ELECT VDW BOUNDARY MISC KINETIC TOTAL TEMP POTENTIAL TOTALAVG TEMPAVG PRESSURE GPRESSURE VOLUME PRESSAVG GPRESSAVG
ENERGY: 0 2.1074 5.3635 2.1518 0.0000 -10845.1575 1562.3996 0.0000 0.0000 1790.7131 -7482.4221 304.8986 -9273.1352 -7482.4221 304.8986 1126.4506 1219.4413 29928.8212 1126.4506 1219.4413
ENERGY: 300000 0.6290 10.2845 2.0924 0.0000 -10660.3110 1408.7981 0.0000 0.0000 1753.4705 -7485.0364 298.5574 -9238.5070 -7507.5837 300.3924 -115.2579 -68.0490 30168.0002 473.3905 551.4961
ENERGY: 600000 1.9655 4.3003 1.1434 0.0000 -10774.2144 1425.4765 0.0000 0.0000 1707.8756 -7633.4532 290.7941 -9341.3287 -7536.7530 298.7426 -470.2995 -482.8742 30588.5860 238.3435 294.8706
ENERGY: 900000 0.2110 6.4854 1.2290 0.0000 -10845.2911 1495.2308 0.0000 0.0000 1821.6617 -7520.4732 310.1681 -9342.1350 -7530.7223 299.0462 58.8590 96.4199 30505.5728 169.5287 232.2356
ENERGY: 1200000 0.3383 6.2236 1.5657 0.0000 -10662.9274 1444.4309 0.0000 0.0000 1708.3478 -7502.0210 290.8745 -9210.3688 -7519.7655 298.5582 321.3812 379.0166 29835.7584 170.7266 227.6155
ENERGY: 1500000 1.4254 4.4600 1.9506 0.0000 -10621.8046 1416.8204 0.0000 0.0000 1673.8120 -7523.3363 284.9943 -9197.1483 -7517.3922 297.8437 -272.3207 -209.0653 30522.6967 100.5014 155.8894
TCL: Running FEP window  13: Lambda1 0.6    Lambda2 0.65   [dLambda 0.050000000000000044]
TCL: Setting parameter firsttimestep to 0
TCL: Setting parameter alchLambda to 0.6
Info: NONBONDED TABLE R-SQUARED SPACING: 0.0625
Info: NONBONDED TABLE SIZE: 705 POINTS
TCL: Setting parameter alchLambda2 to 0.65
Info: NONBONDED TABLE R-SQUARED SPACING: 0.0625
Info: NONBONDED TABLE SIZE: 705 POINTS
TCL: Running for 1500000 steps
ETITLE: TS BOND ANGLE DIHED IMPRP ELECT VDW BOUNDARY MISC KINETIC TOTAL TEMP POTENTIAL TOTALAVG TEMPAVG PRESSURE GPRESSURE VOLUME PRESSAVG GPRESSAVG
ENERGY: 0 1.4254 4.4600 1.9506 0.0000 -10621.6251 1417.1041 0.0000 0.0000 1672.9153 -7523.7697 284.8416 -9196.6850 -7523.7697 284.8416 -272.2641 -197.0087 30522.6967 -272.2641 -197.0087
ENERGY: 300000 0.9343 9.2379 0.8510 0.0000 -10908.3486 1563.5368 0.0000 0.0000 1737.2360 -7596.5527 295.7932 -9333.7887 -7502.2349 297.3903 944.2872 1050.3135 29705.8094 -75.6194 -4.1157
ENERGY: 600000 1.3702 9.7469 2.0846 0.0000 -10669.3798 1492.2486 0.0000 0.0000 1745.0547 -7418.8749 297.1245 -9163.9296 -7483.8676 298.1868 566.8688 621.9215 30419.5191 10.6364 73.1423
ENERGY: 900000 0.2240 7.1022 1.3673 0.0000 -10695.1994 1443.6778 0.0000 0.0000 1751.9801 -7490.8478 298.3037 -9242.8279 -7490.6872 298.2464 181.1991 217.7462 30093.0635 -3.6779 50.2080
ENERGY: 1200000 0.4563 7.1262 0.6482 0.0000 -10768.9583 1567.0640 0.0000 0.0000 1770.4412 -7423.2224 301.4470 -9193.6636 -7493.4783 298.0685 938.6262 947.3537 31049.9764 33.4279 86.7449
ENERGY: 1500000 0.5126 7.5623 1.3968 0.0000 -10765.6987 1489.6537 0.0000 0.0000 1747.9986 -7518.5748 297.6257 -9266.5734 -7484.1202 299.2789 426.7565 481.3678 29899.5534 42.4108 100.1378
TCL: Running FEP window  14: Lambda1 0.65   Lambda2 0.7000000000000001 [dLambda 0.050000000000000044]
TCL: Setting parameter firsttimestep to 0
TCL: Setting parameter alchLambda to 0.65
Info: NONBONDED TABLE R-SQUARED SPACING: 0.0625
Info: NONBONDED TABLE SIZE: 705 POINTS
TCL: Setting parameter alchLambda2 to 0.7000000000000001
Info: NONBONDED TABLE R-SQUARED SPACING: 0.0625
Info: NONBONDED TABLE SIZE: 705 POINTS
TCL: Running for 1500000 steps
ETITLE: TS BOND ANGLE DIHED IMPRP ELECT VDW BOUNDARY MISC KINETIC TOTAL TEMP POTENTIAL TOTALAVG TEMPAVG PRESSURE GPRESSURE VOLUME PRESSAVG GPRESSAVG
ENERGY: 0 0.5126 7.5623 1.3968 0.0000 -10765.8329 1490.3679 0.0000 0.0000 1747.1468 -7518.8464 297.4807 -9265.9932 -7518.8464 297.4807 410.7060 498.1324 29899.5534 410.7060 498.1324
ENERGY: 300000 1.5529 3.6971 2.1084 0.0000 -10661.9271 1381.1225 0.0000 0.0000 1701.8585 -7571.5877 289.7696 -9273.4462 -7499.0793 297.4428 -656.0454 -618.2715 30635.0070 -285.0180 -230.5988
ENERGY: 600000 1.8400 2.3826 1.0708 0.0000 -10503.0760 1319.8325 0.0000 0.0000 1757.5851 -7420.3649 299.2580 -9177.9501 -7498.7502 297.4214 -589.7533 -511.9432 30518.4827 -208.6809 -145.0147
ENERGY: 900000 1.1497 6.6864 0.7244 0.0000 -10732.4039 1463.6667 0.0000 0.0000 1747.1543 -7513.0224 297.4820 -9260.1767 -7489.4904 297.7385 -53.0763 30.3398 30669.9976 -21.7915 38.3381
ENERGY: 1200000 1.3708 5.9434 2.5238 0.0000 -10690.2755 1423.4242 0.0000 0.0000 1761.6026 -7495.4107 299.9421 -9257.0133 -7490.5967 298.4518 -319.7682 -297.0007 30570.0784 -54.2456 -3.8669
ENERGY: 1500000 2.3773 6.8214 2.2121 0.0000 -10589.6555 1371.5349 0.0000 0.0000 1708.1330 -7498.5768 290.8380 -9206.7098 -7488.2413 298.3632 -576.4688 -500.2409 30811.7986 -128.8567 -72.4253
TCL: Running FEP window  15: Lambda1 0.7000000000000001 Lambda2 0.7500000000000001 [dLambda 0.050000000000000044]
TCL: Setting parameter firsttimestep to 0
TCL: Setting parameter alchLambda to 0.7000000000000001
Info: NONBONDED TABLE R-SQUARED SPACING: 0.0625
Info: NONBONDED TABLE SIZE: 705 POINTS
TCL: Setting parameter alchLambda2 to 0.7500000000000001
Info: NONBONDED TABLE R-SQUARED SPACING: 0.0625
Info: NONBONDED TABLE SIZE: 705 POINTS
TCL: Running for 1500000 steps
ETITLE: TS BOND ANGLE DIHED IMPRP ELECT VDW BOUNDARY MISC KINETIC TOTAL TEMP POTENTIAL TOTALAVG TEMPAVG PRESSURE GPRESSURE VOLUME PRESSAVG GPRESSAVG
ENERGY: 0 2.3773 6.8214 2.2121 0.0000 -10590.5644 1371.5072 0.0000 0.0000 1707.2506 -7500.3959 290.6877 -9207.6465 -7500.3959 290.6877 -577.4798 -493.0078 30811.7986 -577.4798 -493.0078
ENERGY: 300000 1.0472 5.7681 0.6180 0.0000 -10665.0710 1445.6744 0.0000 0.0000 1743.0551 -7468.9082 296.7840 -9211.9633 -7503.0085 296.1242 177.8345 224.7472 30262.5359 -117.7611 -66.4438
ENERGY: 600000 3.4113 8.1606 0.1403 0.0000 -10584.6051 1384.5526 0.0000 0.0000 1781.2935 -7407.0467 303.2948 -9188.3403 -7492.9466 297.9950 -373.5700 -311.9378 30446.6142 -77.7194 -20.8423
ENERGY: 900000 1.7732 7.5266 0.5426 0.0000 -10586.1846 1410.5836 0.0000 0.0000 1767.2339 -7398.5247 300.9009 -9165.7586 -7483.8760 298.4755 -136.5207 -106.8475 30755.0605 -11.6039 52.1935
ENERGY: 1200000 0.4201 7.0683 1.3628 0.0000 -10691.1259 1427.9368 0.0000 0.0000 1751.5218 -7502.8162 298.2256 -9254.3380 -7472.1528 299.9219 36.6230 106.1658 30218.1724 -73.3191 -8.2448
ENERGY: 1500000 0.1212 7.2749 4.3629 0.0000 -10579.4446 1397.2700 0.0000 0.0000 1790.3179 -7380.0977 304.8313 -9170.4156 -7467.5089 300.2391 -298.3784 -203.1938 30633.5661 -68.8499 -6.7624
TCL: Running FEP window  16: Lambda1 0.7500000000000001 Lambda2 0.8000000000000002 [dLambda 0.050000000000000044]
TCL: Setting parameter firsttimestep to 0
TCL: Setting parameter alchLambda to 0.7500000000000001
Info: NONBONDED TABLE R-SQUARED SPACING: 0.0625
Info: NONBONDED TABLE SIZE: 705 POINTS
TCL: Setting parameter alchLambda2 to 0.8000000000000002
Info: NONBONDED TABLE R-SQUARED SPACING: 0.0625
Info: NONBONDED TABLE SIZE: 705 POINTS
TCL: Running for 1500000 steps
ETITLE: TS BOND ANGLE DIHED IMPRP ELECT VDW BOUNDARY MISC KINETIC TOTAL TEMP POTENTIAL TOTALAVG TEMPAVG PRESSURE GPRESSURE VOLUME PRESSAVG GPRESSAVG
ENERGY: 0 0.1212 7.2749 4.3629 0.0000 -10579.3620 1396.8169 0.0000 0.0000 1789.4503 -7381.3358 304.6836 -9170.7861 -7381.3358 304.6836 -271.5346 -199.8745 30633.5661 -271.5346 -199.8745
ENERGY: 300000 3.3655 6.2091 1.4583 0.0000 -10708.1698 1470.6297 0.0000 0.0000 1798.5271 -7427.9801 306.2291 -9226.5072 -7466.0349 300.7632 508.3483 576.1866 30253.6495 -121.4744 -53.9008
ENERGY: 600000 1.9101 7.6487 3.5440 0.0000 -10582.6788 1356.1759 0.0000 0.0000 1787.6186 -7425.7814 304.3717 -9213.4000 -7454.9419 302.5431 -705.5171 -631.4191 30601.5138 -298.4820 -214.7364
ENERGY: 900000 0.2974 2.7644 0.2982 0.0000 -10652.1487 1426.4846 0.0000 0.0000 1754.5419 -7467.7622 298.7399 -9222.3041 -7460.0714 300.5213 -169.6310 -73.7730 30629.7033 -299.9048 -224.7141
ENERGY: 1200000 1.4402 6.7639 0.3635 0.0000 -10682.0702 1398.8567 0.0000 0.0000 1750.4320 -7524.2138 298.0401 -9274.6458 -7476.2754 300.2460 -369.4618 -306.2766 30173.1413 -277.7400 -209.3035
ENERGY: 1500000 1.2284 6.3281 0.7634 0.0000 -10619.6219 1476.0542 0.0000 0.0000 1722.3100 -7412.9378 293.2518 -9135.2478 -7476.0192 299.7698 487.1044 481.6308 30544.6238 -200.1763 -142.3486
TCL: Running FEP window  17: Lambda1 0.8000000000000002 Lambda2 0.8500000000000002 [dLambda 0.050000000000000044]
TCL: Setting parameter firsttimestep to 0
TCL: Setting parameter alchLambda to 0.8000000000000002
Info: NONBONDED TABLE R-SQUARED SPACING: 0.0625
Info: NONBONDED TABLE SIZE: 705 POINTS
TCL: Setting parameter alchLambda2 to 0.8500000000000002
Info: NONBONDED TABLE R-SQUARED SPACING: 0.0625
Info: NONBONDED TABLE SIZE: 705 POINTS
TCL: Running for 1500000 steps
ETITLE: TS BOND ANGLE DIHED IMPRP ELECT VDW BOUNDARY MISC KINETIC TOTAL TEMP POTENTIAL TOTALAVG TEMPAVG PRESSURE GPRESSURE VOLUME PRESSAVG GPRESSAVG
ENERGY: 0 1.2284 6.3281 0.7634 0.0000 -10620.3603 1475.7463 0.0000 0.0000 1721.4338 -7414.8603 293.1027 -9136.2941 -7414.8603 293.1027 409.2135 484.4343 30544.6238 409.2135 484.4343
ENERGY: 300000 3.0152 6.8201 0.9838 0.0000 -10756.4950 1446.3661 0.0000 0.0000 1756.4870 -7542.8229 299.0710 -9299.3099 -7487.9194 299.1856 121.3448 159.5878 29899.9156 143.6441 192.9427
ENERGY: 600000 0.3640 9.1226 0.4506 0.0000 -10645.4404 1452.5610 0.0000 0.0000 1724.3659 -7458.5764 293.6019 -9182.9423 -7471.2714 298.3921 382.2376 404.2561 30353.1735 151.4810 211.3406
ENERGY: 900000 0.5949 4.4888 3.0955 0.0000 -10706.9520 1424.2632 0.0000 0.0000 1786.2012 -7488.3084 304.1304 -9274.5096 -7465.9761 299.1787 -71.0000 -46.2716 30201.9602 25.4442 88.3961
ENERGY: 1200000 4.6815 7.5118 0.7489 0.0000 -10746.9297 1481.7744 0.0000 0.0000 1757.4143 -7494.7989 299.2289 -9252.2132 -7483.2377 298.6707 570.2415 595.6861 30212.2908 152.6684 205.5809
ENERGY: 1500000 0.4713 5.9633 0.8625 0.0000 -10736.3984 1439.0263 0.0000 0.0000 1722.9345 -7567.1405 293.3582 -9290.0751 -7493.6586 298.0142 39.8902 84.1717 30158.8720 127.3389 179.7019
TCL: Running FEP window  18: Lambda1 0.8500000000000002 Lambda2 0.9000000000000002 [dLambda 0.050000000000000044]
TCL: Setting parameter firsttimestep to 0
TCL: Setting parameter alchLambda to 0.8500000000000002
Info: NONBONDED TABLE R-SQUARED SPACING: 0.0625
Info: NONBONDED TABLE SIZE: 705 POINTS
TCL: Setting parameter alchLambda2 to 0.9000000000000002
Info: NONBONDED TABLE R-SQUARED SPACING: 0.0625
Info: NONBONDED TABLE SIZE: 705 POINTS
TCL: Running for 1500000 steps
ETITLE: TS BOND ANGLE DIHED IMPRP ELECT VDW BOUNDARY MISC KINETIC TOTAL TEMP POTENTIAL TOTALAVG TEMPAVG PRESSURE GPRESSURE VOLUME PRESSAVG GPRESSAVG
ENERGY: 0 0.4713 5.9633 0.8625 0.0000 -10737.4047 1438.9879 0.0000 0.0000 1722.0064 -7569.1133 293.2001 -9291.1197 -7569.1133 293.2001 7.1921 89.4479 30158.8720 7.1921 89.4479
ENERGY: 300000 0.9436 6.8743 2.3706 0.0000 -10748.1020 1440.7082 0.0000 0.0000 1776.3977 -7520.8075 302.4612 -9297.2053 -7507.7733 298.6043 -208.0778 -181.1534 30389.9124 -157.0386 -90.8989
ENERGY: 600000 0.6726 11.0908 2.4409 0.0000 -10754.6781 1480.0724 0.0000 0.0000 1752.6186 -7507.7828 298.4124 -9260.4014 -7509.0999 298.8948 624.3023 600.0834 29782.2162 -51.1627 1.5113
ENERGY: 900000 0.3192 7.7086 0.8429 0.0000 -10631.4688 1425.4910 0.0000 0.0000 1711.0767 -7486.0305 291.3392 -9197.1072 -7499.9895 297.6864 71.0547 267.0899 30269.4944 -114.8118 -49.0235
ENERGY: 1200000 1.7664 6.1649 0.4706 0.0000 -10734.6963 1456.6455 0.0000 0.0000 1819.9438 -7449.7050 309.8756 -9269.6488 -7494.2127 300.4153 499.5787 539.7337 29920.1729 34.9662 97.9840
ENERGY: 1500000 2.4528 8.1004 3.8517 0.0000 -10761.8418 1512.1516 0.0000 0.0000 1750.9682 -7484.3171 298.1314 -9235.2853 -7498.5349 300.0124 741.9733 826.6036 29909.2403 10.3855 71.1747
TCL: Running FEP window  19: Lambda1 0.9000000000000002 Lambda2 0.9500000000000003 [dLambda 0.050000000000000044]
TCL: Setting parameter firsttimestep to 0
TCL: Setting parameter alchLambda to 0.9000000000000002
Info: NONBONDED TABLE R-SQUARED SPACING: 0.0625
Info: NONBONDED TABLE SIZE: 705 POINTS
TCL: Setting parameter alchLambda2 to 0.9500000000000003
Info: NONBONDED TABLE R-SQUARED SPACING: 0.0625
Info: NONBONDED TABLE SIZE: 705 POINTS
TCL: Running for 1500000 steps
ETITLE: TS BOND ANGLE DIHED IMPRP ELECT VDW BOUNDARY MISC KINETIC TOTAL TEMP POTENTIAL TOTALAVG TEMPAVG PRESSURE GPRESSURE VOLUME PRESSAVG GPRESSAVG
ENERGY: 0 2.4528 8.1003 3.8517 0.0000 -10763.2719 1513.1576 0.0000 0.0000 1750.0653 -7485.6442 297.9776 -9235.7095 -7485.6442 297.9776 761.2053 846.1816 29909.2403 761.2053 846.1816
ENERGY: 300000 0.3708 4.1206 3.3745 0.0000 -10598.6602 1416.8385 0.0000 0.0000 1760.6997 -7413.2562 299.7883 -9173.9559 -7501.1519 298.1799 -47.4159 -6.3325 30807.2590 223.8087 295.6634
ENERGY: 600000 0.8850 8.6938 1.1283 0.0000 -10871.7429 1506.1977 0.0000 0.0000 1748.0818 -7606.7563 297.6399 -9354.8381 -7499.8536 297.5511 324.2980 295.1562 30301.2742 282.2041 326.7563
ENERGY: 900000 1.1198 5.4144 1.2739 0.0000 -10706.7688 1416.9297 0.0000 0.0000 1680.8680 -7601.1630 286.1956 -9282.0309 -7515.3920 295.0003 -465.9260 -357.2738 30385.8735 -6.0750 45.4992
ENERGY: 1200000 3.9782 13.5434 5.4478 0.0000 -10660.5739 1385.2627 0.0000 0.0000 1741.4445 -7510.8974 296.5098 -9252.3419 -7520.3799 295.1452 -183.2344 -117.8754 30139.5257 -33.9018 17.8908
ENERGY: 1500000 1.5467 4.2591 1.3370 0.0000 -10673.0150 1432.0267 0.0000 0.0000 1772.4676 -7461.3780 301.7920 -9233.8456 -7509.5821 296.3632 118.4790 81.1903 30435.9300 59.4257 108.8951
TCL: Running FEP window  20: Lambda1 0.9500000000000003 Lambda2 1.0    [dLambda 0.04999999999999971]
TCL: Setting parameter firsttimestep to 0
TCL: Setting parameter alchLambda to 0.9500000000000003
Info: NONBONDED TABLE R-SQUARED SPACING: 0.0625
Info: NONBONDED TABLE SIZE: 705 POINTS
TCL: Setting parameter alchLambda2 to 1.0
Info: NONBONDED TABLE R-SQUARED SPACING: 0.0625
Info: NONBONDED TABLE SIZE: 705 POINTS
TCL: Running for 1500000 steps
ETITLE: TS BOND ANGLE DIHED IMPRP ELECT VDW BOUNDARY MISC KINETIC TOTAL TEMP POTENTIAL TOTALAVG TEMPAVG PRESSURE GPRESSURE VOLUME PRESSAVG GPRESSAVG
ENERGY: 0 1.5467 4.2591 1.3370 0.0000 -10674.2845 1432.2171 0.0000 0.0000 1771.6017 -7463.3230 301.6446 -9234.9246 -7463.3230 301.6446 30.3225 90.8770 30435.9300 30.3225 90.8770
ENERGY: 300000 2.0825 7.7741 1.1219 0.0000 -10482.6714 1269.9713 0.0000 0.0000 1760.1311 -7441.5905 299.6915 -9201.7216 -7448.6197 302.1938 -1258.0133 -1194.9452 30780.1820 -404.4531 -354.1742
ENERGY: 600000 0.7849 3.7249 1.3474 0.0000 -10661.9563 1378.1644 0.0000 0.0000 1772.4791 -7505.4556 301.7940 -9277.9347 -7479.9138 300.1678 -636.4015 -554.3810 30793.9210 -96.2776 -37.0915
ENERGY: 900000 1.5980 10.1242 0.4554 0.0000 -10633.6899 1364.7448 0.0000 0.0000 1772.2192 -7484.5483 301.7497 -9256.7675 -7490.2405 300.0268 -601.8357 -513.6960 30333.5863 -98.6302 -27.0097
ENERGY: 1200000 1.6293 6.4510 1.6155 0.0000 -10751.7444 1467.9709 0.0000 0.0000 1732.5631 -7541.5148 294.9976 -9274.0779 -7493.5167 300.4364 118.6086 199.4230 30316.1886 -38.6796 20.6546
ENERGY: 1500000 0.9380 4.0423 1.6290 0.0000 -10679.1614 1408.6584 0.0000 0.0000 1773.8012 -7490.0925 302.0191 -9263.8937 -7504.1379 299.9582 -371.0013 -254.9823 30540.1860 -69.3905 -6.5096
TCL: Exiting due to exit command.
