Info: SIMULATION PARAMETERS:
Info: TIMESTEP               2
Info: NUMBER OF STEPS        0
Info: STEPS PER CYCLE        10
Info: PERIODIC CELL BASIS 1  30.9896 0 0
Info: PERIODIC CELL BASIS 2  0 29.5086 0
Info: PERIODIC CELL BASIS 3  0 0 33.3387
Info: PERIODIC CELL CENTER   0 0 0
Info: WRAPPING WATERS AROUND PERIODIC BOUNDARIES ON OUTPUT.
Info: WRAPPING ALL CLUSTERS AROUND PERIODIC BOUNDARIES ON OUTPUT.
Info: FIRST LDB TIMESTEP     50
Info: LAST LDB TIMESTEP     -1
Info: HOM BACKGROUND SCALING 1
Info: PME BACKGROUND SCALING 1
Info: MIN ATOMS PER PATCH    40
Info: EMPTY PATCH LOAD       40 ATOMS
Info: VELOCITY FILE          mobley_5326154_equil.vel
Info: CENTER OF MASS MOVING INITIALLY? NO
Info: DIELECTRIC             1
Info: EXCLUDE                SCALED ONE-FOUR
Info: 1-4 ELECTROSTATICS SCALED BY 0.833333
Info: MODIFIED 1-4 VDW PARAMETERS WILL BE USED
Info: DCD FILENAME           mobley_5326154_prod.dcd
Info: DCD FREQUENCY          100000
Info: DCD FIRST STEP         100000
Info: DCD FILE WILL CONTAIN UNIT CELL DATA
Info: XST FILENAME           mobley_5326154_prod.xst
Info: XST FREQUENCY          100000
Info: NO VELOCITY DCD OUTPUT
Info: NO FORCE DCD OUTPUT
Info: OUTPUT FILENAME        mobley_5326154_prod
Info: BINARY OUTPUT FILES WILL BE USED
Info: RESTART FILENAME       mobley_5326154_prod.restart
Info: RESTART FREQUENCY      100000
Info: BINARY RESTART FILES WILL BE USED
Info: CUTOFF                 9
Info: PAIRLIST DISTANCE      11
Info: PAIRLIST SHRINK RATE   0.01
Info: PAIRLIST GROW RATE     0.01
Info: PAIRLIST TRIGGER       0.3
Info: PAIRLISTS PER CYCLE    2
Info: PAIRLISTS ENABLED
Info: MARGIN                 2
Info: HYDROGEN GROUP CUTOFF  2.5
Info: PATCH DIMENSION        15.5
Info: ENERGY OUTPUT STEPS    100000
Info: ENERGY EVALUATION STEPS    100000
Info: OUTPUT ENERGY PRECISION 4
Info: CROSSTERM ENERGY INCLUDED IN DIHEDRAL
Info: TIMING OUTPUT STEPS    1000000
Info: PRESSURE OUTPUT STEPS  100000
Info: ALCHEMICAL FEP ON
Info: FEP CURRENT LAMBDA VALUE     0
Info: FEP COMPARISON LAMBDA VALUE  0.05
Info: FEP INTRA-ALCHEMICAL NON-BONDED INTERACTIONS WILL BE RETAINED
Info: FEP INTRA-ALCHEMICAL BONDED INTERACTIONS WILL BE RETAINED
Info: FEP VDW SHIFTING COEFFICIENT 5
Info: FEP ELEC. ACTIVE FOR ANNIHILATED PARTICLES BETWEEN LAMBDA = 0 AND LAMBDA = 0.5
Info: FEP ELEC. ACTIVE FOR EXNIHILATED PARTICLES BETWEEN LAMBDA = 0.5 AND LAMBDA = 1
Info: FEP VDW ACTIVE FOR ANNIHILATED PARTICLES BETWEEN LAMBDA = 0 AND LAMBDA = 1
Info: FEP VDW ACTIVE FOR EXNIHILATED PARTICLES BETWEEN LAMBDA = 0 AND LAMBDA = 1
Info: FEP BOND ACTIVE FOR ANNIHILATED PARTICLES BETWEEN LAMBDA = 1 AND LAMBDA = 1
Info: FEP BOND ACTIVE FOR EXNIHILATED PARTICLES BETWEEN LAMBDA = 0 AND LAMBDA = 0
Info: LANGEVIN DYNAMICS ACTIVE
Info: LANGEVIN TEMPERATURE   300
Info: LANGEVIN USING BBK INTEGRATOR
Info: LANGEVIN DAMPING COEFFICIENT IS 1 INVERSE PS
Info: LANGEVIN DYNAMICS APPLIED TO HYDROGENS
Info: LANGEVIN PISTON PRESSURE CONTROL ACTIVE
Info:        TARGET PRESSURE IS 1.01325 BAR
Info:     OSCILLATION PERIOD IS 50 FS
Info:             DECAY TIME IS 25 FS
Info:     PISTON TEMPERATURE IS 300 K
Info:       PRESSURE CONTROL IS GROUP-BASED
Info:    INITIAL STRAIN RATE IS 0.00012915 0.00012915 0.00012915
Info:       CELL FLUCTUATION IS ISOTROPIC
Info: PARTICLE MESH EWALD (PME) ACTIVE
Info: PME TOLERANCE               1e-06
Info: PME EWALD COEFFICIENT       0.348832
Info: PME INTERPOLATION ORDER     4
Info: PME GRID DIMENSIONS         32 32 36
Info: PME MAXIMUM GRID SPACING    1
Info: PME CALCULATION WILL BE PERFORMED ON GPU
Info: FULL ELECTROSTATIC EVALUATION FREQUENCY      2
Info: USING VERLET I (r-RESPA) MTS SCHEME.
Info: C1 SPLITTING OF LONG RANGE ELECTROSTATICS
Info: PLACING ATOMS IN PATCHES BY HYDROGEN GROUPS
Info: RIGID BONDS TO HYDROGEN : ALL
Info:         ERROR TOLERANCE : 1e-08
Info:          MAX ITERATIONS : 100
Info: RIGID WATER USING SETTLE ALGORITHM
Info: RANDOM NUMBER SEED     1743785755
Info: USE HYDROGEN BONDS?    NO
Info: Using AMBER format force field!
Info: AMBER PARM FILE        mobley_5326154.prmtop
Info: COORDINATE PDB         mobley_5326154.pdb
Info: Exclusions will be read from PARM file!
Info: SCNB (VDW SCALING)     2
Info: USING ARITHMETIC MEAN TO COMBINE L-J SIGMA PARAMETERS
Info: BINARY COORDINATES     mobley_5326154_equil.coor
Info: SUMMARY OF PARAMETERS:
Info: 7 BONDS
Info: 7 ANGLES
Info:   7 HARMONIC
Info:   0 COSINE-BASED
Info: 4 DIHEDRAL
Info: 0 IMPROPER
Info: 0 CROSSTERM
Info: 0 VDW
Info: 28 VDW_PAIRS
Info: 0 NBTHOLE_PAIRS
Info: To read alchdata from file: mobley_5326154.pdb
Info: To read alchflag data from column: 5
Info: STRUCTURE SUMMARY:
Info: 2945 ATOMS
Info: 2945 BONDS
Info: 33 ANGLES
Info: 47 DIHEDRALS
Info: 0 IMPROPERS
Info: 0 CROSSTERMS
Info: 3015 EXCLUSIONS
Info: 2936 RIGID BONDS
Info: ALCH: 0 ATOMS TO DISAPPEAR IN FINAL STATE
Info: ALCH: 20 ATOMS TO APPEAR IN FINAL STATE
Info: 5899 DEGREES OF FREEDOM
Info: 984 HYDROGEN GROUPS
Info: 4 ATOMS IN LARGEST HYDROGEN GROUP
Info: 984 MIGRATION GROUPS
Info: 4 ATOMS IN LARGEST MIGRATION GROUP
Info: TOTAL MASS = 17686.8 amu
Info: TOTAL CHARGE = -0.00029996 e
Info: MASS DENSITY = 0.963376 g/cm^3
Info: ATOM DENSITY = 0.0965991 atoms/A^3
Info: ADDED 0 IMPLICIT EXCLUSIONS
Info: NONBONDED TABLE R-SQUARED SPACING: 0.0625
Info: NONBONDED TABLE SIZE: 705 POINTS
Info: REMOVING COM VELOCITY 0.0881946 0.18642 0.166391
Info: Use 3D box decompostion in PME FFT.
Info: Updated CUDA force table with 4096 elements.
Info: Updated CUDA LJ table with 7 x 7 elements.
Info: Found 19 unique exclusion lists needing 52 bytes
TCL: Running for 1500000 steps
ETITLE: TS BOND ANGLE DIHED IMPRP ELECT VDW BOUNDARY MISC KINETIC TOTAL TEMP POTENTIAL TOTALAVG TEMPAVG PRESSURE GPRESSURE VOLUME PRESSAVG GPRESSAVG
ENERGY: 0 3.6785 9.0432 5.1651 0.0000 -10640.8292 1463.6378 0.0000 0.0000 1740.9790 -7418.3257 297.0336 -9159.3047 -7418.3257 297.0336 -37.0993 53.9950 30486.8328 -37.0993 53.9950
ENERGY: 300000 2.3217 7.3774 10.1747 0.0000 -10672.1208 1413.1088 0.0000 0.0000 1750.2322 -7488.9059 298.6123 -9239.1382 -7452.0577 299.7626 -313.9348 -274.4002 30001.6876 -44.6509 -8.2511
ENERGY: 600000 1.6361 5.2118 9.6703 0.0000 -10603.2645 1450.1905 0.0000 0.0000 1756.6722 -7379.8837 299.7110 -9136.5558 -7449.1644 299.7810 310.9652 348.9034 30420.5769 56.5229 116.1726
ENERGY: 900000 3.4660 5.5658 4.3989 0.0000 -10758.3414 1513.9409 0.0000 0.0000 1770.7983 -7460.1715 302.1211 -9230.9698 -7455.3685 299.9120 610.4410 656.8356 29687.5327 104.5321 159.7895
ENERGY: 1200000 4.6502 5.3284 3.8197 0.0000 -10719.5917 1475.2671 0.0000 0.0000 1661.9185 -7568.6078 283.5448 -9230.5263 -7470.6586 298.5019 191.5910 223.1354 29898.6454 24.6809 75.8150
ENERGY: 1500000 3.2007 10.4002 6.9992 0.0000 -10687.5044 1467.7636 0.0000 0.0000 1757.6299 -7441.5109 299.8744 -9199.1408 -7467.2512 299.1457 114.7746 141.3594 30100.2467 39.6226 94.3220
TCL: Running FEP window   2: Lambda1 0.05   Lambda2 0.1    [dLambda 0.05  ]
TCL: Setting parameter firsttimestep to 0
TCL: Setting parameter alchLambda to 0.05
Info: NONBONDED TABLE R-SQUARED SPACING: 0.0625
Info: NONBONDED TABLE SIZE: 705 POINTS
TCL: Setting parameter alchLambda2 to 0.1
Info: NONBONDED TABLE R-SQUARED SPACING: 0.0625
Info: NONBONDED TABLE SIZE: 705 POINTS
TCL: Running for 1500000 steps
ETITLE: TS BOND ANGLE DIHED IMPRP ELECT VDW BOUNDARY MISC KINETIC TOTAL TEMP POTENTIAL TOTALAVG TEMPAVG PRESSURE GPRESSURE VOLUME PRESSAVG GPRESSAVG
ENERGY: 0 3.2007 10.4002 6.9992 0.0000 -10687.5057 1471.3526 0.0000 0.0000 1756.7460 -7438.8070 299.7236 -9195.5530 -7438.8070 299.7236 50.4245 149.8917 30100.2467 50.4245 149.8917
ENERGY: 300000 5.6259 10.1426 5.2113 0.0000 -10798.5925 1516.9496 0.0000 0.0000 1729.2932 -7531.3700 295.0398 -9260.6632 -7482.7590 298.7247 330.7104 438.2002 29647.2155 -15.8367 64.1689
ENERGY: 600000 3.9373 4.4799 7.4526 0.0000 -10726.8982 1432.4702 0.0000 0.0000 1735.5940 -7542.9643 296.1148 -9278.5583 -7489.7414 297.8263 -502.2104 -448.5840 30562.4557 -188.1346 -106.4898
ENERGY: 900000 3.0237 6.7065 2.0802 0.0000 -10552.1085 1328.0792 0.0000 0.0000 1779.6516 -7432.5674 303.6316 -9212.2190 -7483.8901 297.2396 -926.7262 -923.3117 30333.6671 -278.5307 -208.5624
ENERGY: 1200000 1.7280 6.1313 6.0876 0.0000 -10662.8007 1437.1731 0.0000 0.0000 1806.2201 -7405.4607 308.1645 -9211.6808 -7464.9140 298.7391 -120.3946 -40.5368 29878.1307 -176.0144 -113.9140
ENERGY: 1500000 5.4666 8.0201 4.0177 0.0000 -10598.3707 1366.8438 0.0000 0.0000 1744.8848 -7469.1377 297.6999 -9214.0225 -7461.0019 299.5156 -769.9540 -638.9154 30414.2590 -191.5797 -124.9416
TCL: Running FEP window   3: Lambda1 0.1    Lambda2 0.15000000000000002 [dLambda 0.05000000000000002]
TCL: Setting parameter firsttimestep to 0
TCL: Setting parameter alchLambda to 0.1
Info: NONBONDED TABLE R-SQUARED SPACING: 0.0625
Info: NONBONDED TABLE SIZE: 705 POINTS
TCL: Setting parameter alchLambda2 to 0.15000000000000002
Info: NONBONDED TABLE R-SQUARED SPACING: 0.0625
Info: NONBONDED TABLE SIZE: 705 POINTS
TCL: Running for 1500000 steps
ETITLE: TS BOND ANGLE DIHED IMPRP ELECT VDW BOUNDARY MISC KINETIC TOTAL TEMP POTENTIAL TOTALAVG TEMPAVG PRESSURE GPRESSURE VOLUME PRESSAVG GPRESSAVG
ENERGY: 0 5.4666 8.0201 4.0177 0.0000 -10598.3710 1366.8028 0.0000 0.0000 1744.0156 -7470.0481 297.5516 -9214.0637 -7470.0481 297.5516 -729.2110 -640.1895 30414.2590 -729.2110 -640.1895
ENERGY: 300000 2.3030 6.1701 6.1078 0.0000 -10603.9626 1404.5552 0.0000 0.0000 1734.2031 -7450.6234 295.8775 -9184.8265 -7426.0156 300.9914 -195.2933 -84.2007 30125.1823 -371.7243 -295.2377
ENERGY: 600000 5.4521 4.6417 7.3379 0.0000 -10708.6322 1459.7640 0.0000 0.0000 1790.4620 -7440.9746 305.4760 -9231.4365 -7449.8464 300.8784 163.2830 270.3190 30126.0459 -203.9297 -122.3585
ENERGY: 900000 1.2898 8.5548 9.0042 0.0000 -10583.9248 1389.1364 0.0000 0.0000 1848.6008 -7327.3388 315.3952 -9175.9396 -7451.0224 301.9577 -307.6795 -225.9312 30393.9777 -247.2922 -167.1655
ENERGY: 1200000 1.0616 7.7341 2.4923 0.0000 -10631.8335 1401.5644 0.0000 0.0000 1780.1223 -7438.8588 303.7119 -9218.9811 -7444.0086 302.1100 -310.2286 -239.9292 30238.7171 -302.4948 -231.8580
ENERGY: 1500000 2.4107 9.1724 6.6970 0.0000 -10639.7134 1429.2970 0.0000 0.0000 1749.2258 -7442.9106 298.4406 -9192.1364 -7442.7076 301.7729 -271.4003 -230.0311 30375.4032 -333.9396 -265.8671
TCL: Running FEP window   4: Lambda1 0.15000000000000002 Lambda2 0.2    [dLambda 0.04999999999999999]
TCL: Setting parameter firsttimestep to 0
TCL: Setting parameter alchLambda to 0.15000000000000002
Info: NONBONDED TABLE R-SQUARED SPACING: 0.0625
Info: NONBONDED TABLE SIZE: 705 POINTS
TCL: Setting parameter alchLambda2 to 0.2
Info: NONBONDED TABLE R-SQUARED SPACING: 0.0625
Info: NONBONDED TABLE SIZE: 705 POINTS
TCL: Running for 1500000 steps
ETITLE: TS BOND ANGLE DIHED IMPRP ELECT VDW BOUNDARY MISC KINETIC TOTAL TEMP POTENTIAL TOTALAVG TEMPAVG PRESSURE GPRESSURE VOLUME PRESSAVG GPRESSAVG
ENERGY: 0 2.4107 9.1724 6.6970 0.0000 -10639.7127 1430.6609 0.0000 0.0000 1748.3646 -7442.4071 298.2936 -9190.7717 -7442.4071 298.2936 -285.2480 -218.6415 30375.4032 -285.2480 -218.6415
ENERGY: 300000 1.9398 8.3629 6.3995 0.0000 -10663.6258 1430.2411 0.0000 0.0000 1811.3503 -7405.3322 309.0398 -9216.6824 -7407.5429 303.8078 162.9857 192.1631 30141.4848 -99.4964 -45.6596
ENERGY: 600000 2.7295 7.5454 4.0004 0.0000 -10706.6626 1437.0683 0.0000 0.0000 1768.3383 -7486.9807 301.7014 -9255.3190 -7418.0751 302.6038 50.9318 54.4599 30056.7531 -81.7522 -48.4979
ENERGY: 900000 6.1823 7.7110 6.6032 0.0000 -10527.2798 1380.9831 0.0000 0.0000 1736.6471 -7389.1531 296.2945 -9125.8002 -7414.2109 301.0769 -352.9839 -263.6398 30230.8630 -56.4098 -8.4815
ENERGY: 1200000 1.9766 10.7457 7.5336 0.0000 -10687.2761 1418.7307 0.0000 0.0000 1782.0092 -7466.2801 304.0339 -9248.2894 -7434.1801 301.3482 -471.1170 -372.6786 30276.6980 -104.1971 -53.2025
ENERGY: 1500000 2.5448 8.5055 2.9211 0.0000 -10655.2456 1433.7875 0.0000 0.0000 1773.4668 -7434.0198 302.5764 -9207.4866 -7435.0572 301.3884 79.7415 139.8527 30094.3055 -106.8412 -51.9036
TCL: Running FEP window   5: Lambda1 0.2    Lambda2 0.25   [dLambda 0.04999999999999999]
TCL: Setting parameter firsttimestep to 0
TCL: Setting parameter alchLambda to 0.2
Info: NONBONDED TABLE R-SQUARED SPACING: 0.0625
Info: NONBONDED TABLE SIZE: 705 POINTS
TCL: Setting parameter alchLambda2 to 0.25
Info: NONBONDED TABLE R-SQUARED SPACING: 0.0625
Info: NONBONDED TABLE SIZE: 705 POINTS
TCL: Running for 1500000 steps
ETITLE: TS BOND ANGLE DIHED IMPRP ELECT VDW BOUNDARY MISC KINETIC TOTAL TEMP POTENTIAL TOTALAVG TEMPAVG PRESSURE GPRESSURE VOLUME PRESSAVG GPRESSAVG
ENERGY: 0 2.5448 8.5055 2.9211 0.0000 -10655.2455 1434.3166 0.0000 0.0000 1772.6212 -7434.3363 302.4321 -9206.9574 -7434.3363 302.4321 54.2798 143.6580 30094.3055 54.2798 143.6580
ENERGY: 300000 2.6123 6.2970 7.9575 0.0000 -10687.8904 1505.4225 0.0000 0.0000 1768.8691 -7396.7320 301.7920 -9165.6012 -7484.9235 299.3147 861.1722 877.2298 30060.6602 201.7930 257.8484
ENERGY: 600000 3.2687 13.2553 8.8178 0.0000 -10534.9287 1324.7376 0.0000 0.0000 1755.9978 -7428.8515 299.5960 -9184.8493 -7482.8336 300.1360 -599.0599 -567.1886 30097.1498 244.1594 296.9360
ENERGY: 900000 3.2998 8.5987 9.8177 0.0000 -10564.9226 1393.6232 0.0000 0.0000 1751.1279 -7398.4553 298.7651 -9149.5832 -7468.7444 300.2294 -442.7216 -408.6731 30755.4371 307.2940 356.9157
ENERGY: 1200000 1.6160 2.6458 8.7167 0.0000 -10624.5043 1404.8886 0.0000 0.0000 1794.2412 -7412.3959 306.1208 -9206.6371 -7475.0324 299.5527 -322.0759 -199.4988 30252.6659 166.2505 221.1651
ENERGY: 1500000 1.2325 5.7191 4.4903 0.0000 -10612.8715 1415.6031 0.0000 0.0000 1780.5705 -7405.2561 303.7884 -9185.8265 -7463.0483 299.4820 -209.1897 -122.2700 30474.2855 141.5583 195.6679
TCL: Running FEP window   6: Lambda1 0.25   Lambda2 0.3    [dLambda 0.04999999999999999]
TCL: Setting parameter firsttimestep to 0
TCL: Setting parameter alchLambda to 0.25
Info: NONBONDED TABLE R-SQUARED SPACING: 0.0625
Info: NONBONDED TABLE SIZE: 705 POINTS
TCL: Setting parameter alchLambda2 to 0.3
Info: NONBONDED TABLE R-SQUARED SPACING: 0.0625
Info: NONBONDED TABLE SIZE: 705 POINTS
TCL: Running for 1500000 steps
ETITLE: TS BOND ANGLE DIHED IMPRP ELECT VDW BOUNDARY MISC KINETIC TOTAL TEMP POTENTIAL TOTALAVG TEMPAVG PRESSURE GPRESSURE VOLUME PRESSAVG GPRESSAVG
ENERGY: 0 1.2325 5.7191 4.4903 0.0000 -10612.8709 1415.3816 0.0000 0.0000 1779.6731 -7406.3744 303.6353 -9186.0475 -7406.3744 303.6353 -201.7974 -114.4596 30474.2855 -201.7974 -114.4596
ENERGY: 300000 2.8981 5.1526 6.1430 0.0000 -10626.3234 1397.5535 0.0000 0.0000 1765.2120 -7449.3642 301.1680 -9214.5762 -7442.2505 300.7230 -170.4194 -131.4591 29879.4458 -24.6861 19.2184
ENERGY: 600000 2.0417 6.3830 3.2228 0.0000 -10584.7464 1347.0142 0.0000 0.0000 1786.6045 -7439.4803 304.8179 -9226.0848 -7438.3597 302.2826 -858.3168 -757.5804 30588.1976 -58.0380 -9.9069
ENERGY: 900000 2.3018 9.6838 5.4946 0.0000 -10662.2295 1422.1007 0.0000 0.0000 1791.8454 -7430.8033 305.7120 -9222.6486 -7449.6245 301.3256 -214.1434 -246.4243 30258.9376 117.9767 161.7814
ENERGY: 1200000 3.6842 7.2841 8.0838 0.0000 -10802.0262 1474.8461 0.0000 0.0000 1782.6526 -7525.4754 304.1436 -9308.1280 -7449.9031 301.5634 -167.6798 -128.0772 30332.4980 45.2866 90.3742
ENERGY: 1500000 3.3353 9.2013 3.4620 0.0000 -10719.3092 1488.9223 0.0000 0.0000 1748.0410 -7466.3473 298.2384 -9214.3883 -7455.8117 301.0447 554.3434 567.2592 29980.5363 102.3257 143.9418
TCL: Running FEP window   7: Lambda1 0.3    Lambda2 0.35   [dLambda 0.04999999999999999]
TCL: Setting parameter firsttimestep to 0
TCL: Setting parameter alchLambda to 0.3
Info: NONBONDED TABLE R-SQUARED SPACING: 0.0625
Info: NONBONDED TABLE SIZE: 705 POINTS
TCL: Setting parameter alchLambda2 to 0.35
Info: NONBONDED TABLE R-SQUARED SPACING: 0.0625
Info: NONBONDED TABLE SIZE: 705 POINTS
TCL: Running for 1500000 steps
ETITLE: TS BOND ANGLE DIHED IMPRP ELECT VDW BOUNDARY MISC KINETIC TOTAL TEMP POTENTIAL TOTALAVG TEMPAVG PRESSURE GPRESSURE VOLUME PRESSAVG GPRESSAVG
ENERGY: 0 3.3353 9.2013 3.4620 0.0000 -10719.3091 1489.7964 0.0000 0.0000 1747.1546 -7466.3595 298.0872 -9213.5141 -7466.3595 298.0872 498.8057 574.2204 29980.5363 498.8057 574.2204
ENERGY: 300000 1.7853 5.4993 6.8577 0.0000 -10650.3516 1501.9255 0.0000 0.0000 1749.9739 -7384.3099 298.5682 -9134.2838 -7462.9770 296.3677 528.6412 654.8966 30128.0659 370.4010 433.1615
ENERGY: 600000 1.6627 7.7396 2.1916 0.0000 -10720.3990 1460.5172 0.0000 0.0000 1711.9952 -7536.2929 292.0885 -9248.2881 -7451.2801 297.7827 295.1269 313.0438 29931.4434 142.5832 193.0948
ENERGY: 900000 3.8713 6.5725 5.9812 0.0000 -10711.9877 1428.2567 0.0000 0.0000 1743.0723 -7524.2338 297.3907 -9267.3061 -7463.0717 297.5855 -623.5249 -475.7129 30747.0574 -3.9880 59.1131
ENERGY: 1200000 3.5538 9.5767 4.5229 0.0000 -10648.1033 1434.9232 0.0000 0.0000 1759.3931 -7436.1336 300.1752 -9195.5267 -7457.7169 298.3787 253.4424 226.1753 30258.2641 55.4945 118.5507
ENERGY: 1500000 4.2096 6.4944 4.3583 0.0000 -10750.2743 1467.8663 0.0000 0.0000 1738.9626 -7528.3831 296.6895 -9267.3456 -7457.4177 298.8203 -5.9187 59.7241 30398.4846 67.0325 130.5351
TCL: Running FEP window   8: Lambda1 0.35   Lambda2 0.39999999999999997 [dLambda 0.04999999999999999]
TCL: Setting parameter firsttimestep to 0
TCL: Setting parameter alchLambda to 0.35
Info: NONBONDED TABLE R-SQUARED SPACING: 0.0625
Info: NONBONDED TABLE SIZE: 705 POINTS
TCL: Setting parameter alchLambda2 to 0.39999999999999997
Info: NONBONDED TABLE R-SQUARED SPACING: 0.0625
Info: NONBONDED TABLE SIZE: 705 POINTS
TCL: Running for 1500000 steps
ETITLE: TS BOND ANGLE DIHED IMPRP ELECT VDW BOUNDARY MISC KINETIC TOTAL TEMP POTENTIAL TOTALAVG TEMPAVG PRESSURE GPRESSURE VOLUME PRESSAVG GPRESSAVG
ENERGY: 0 4.2096 6.4944 4.3583 0.0000 -10750.2726 1468.4963 0.0000 0.0000 1738.1042 -7528.6098 296.5431 -9266.7140 -7528.6098 296.5431 -5.8361 67.7356 30398.4846 -5.8361 67.7356
ENERGY: 300000 4.0781 5.3303 4.1786 0.0000 -10610.4640 1428.8111 0.0000 0.0000 1815.4198 -7352.6460 309.7341 -9168.0658 -7444.2780 300.1082 -166.6124 -94.5138 30498.7507 208.4305 288.3872
ENERGY: 600000 3.7229 5.3320 4.8837 0.0000 -10621.1407 1381.0383 0.0000 0.0000 1788.0020 -7438.1619 305.0563 -9226.1639 -7432.4742 302.9877 -355.2246 -308.5996 29933.3846 -22.9550 43.1007
ENERGY: 900000 2.2345 4.7411 2.3335 0.0000 -10734.1627 1497.3620 0.0000 0.0000 1742.9947 -7484.4968 297.3775 -9227.4914 -7438.7779 302.1264 556.1977 614.1232 30027.4680 -51.1274 14.3408
ENERGY: 1200000 2.8360 8.1307 4.5727 0.0000 -10462.2263 1412.7222 0.0000 0.0000 1756.5068 -7277.4579 299.6828 -9033.9647 -7421.9483 301.4882 139.2138 191.0654 30528.9207 -19.1548 40.7553
ENERGY: 1500000 2.7428 7.5381 4.9215 0.0000 -10688.4517 1411.7955 0.0000 0.0000 1760.6322 -7500.8216 300.3867 -9261.4538 -7433.3812 301.3969 -398.4106 -285.9644 30363.9764 -94.7853 -34.0499
TCL: Running FEP window   9: Lambda1 0.39999999999999997 Lambda2 0.44999999999999996 [dLambda 0.04999999999999999]
TCL: Setting parameter firsttimestep to 0
TCL: Setting parameter alchLambda to 0.39999999999999997
Info: NONBONDED TABLE R-SQUARED SPACING: 0.0625
Info: NONBONDED TABLE SIZE: 705 POINTS
TCL: Setting parameter alchLambda2 to 0.44999999999999996
Info: NONBONDED TABLE R-SQUARED SPACING: 0.0625
Info: NONBONDED TABLE SIZE: 705 POINTS
TCL: Running for 1500000 steps
ETITLE: TS BOND ANGLE DIHED IMPRP ELECT VDW BOUNDARY MISC KINETIC TOTAL TEMP POTENTIAL TOTALAVG TEMPAVG PRESSURE GPRESSURE VOLUME PRESSAVG GPRESSAVG
ENERGY: 0 2.7428 7.5381 4.9215 0.0000 -10688.4513 1411.6363 0.0000 0.0000 1759.7683 -7501.8443 300.2392 -9261.6125 -7501.8443 300.2392 -376.0114 -282.0432 30363.9764 -376.0114 -282.0432
ENERGY: 300000 6.7109 8.0270 7.6410 0.0000 -10615.7293 1418.8314 0.0000 0.0000 1809.2177 -7365.3013 308.6760 -9174.5190 -7432.2392 303.0592 -90.1057 -49.0945 30416.5202 -285.0784 -219.8016
ENERGY: 600000 4.6459 3.6688 4.0354 0.0000 -10694.9983 1423.0861 0.0000 0.0000 1756.6455 -7502.9167 299.7065 -9259.5622 -7428.6411 300.9053 -444.0025 -333.9967 30292.8966 -287.0306 -216.3885
ENERGY: 900000 3.1412 4.2498 7.8616 0.0000 -10674.9638 1403.1373 0.0000 0.0000 1802.9020 -7453.6719 307.5984 -9256.5739 -7432.1302 302.3066 -630.0687 -556.3590 30365.0094 -283.6568 -213.0334
ENERGY: 1200000 2.6558 10.7339 5.2394 0.0000 -10754.7256 1435.1685 0.0000 0.0000 1698.5162 -7602.4119 289.7888 -9300.9281 -7446.2758 301.6488 -321.1601 -355.0713 30201.0345 -239.3908 -181.2775
ENERGY: 1500000 5.9130 5.1615 4.5749 0.0000 -10627.9085 1409.9280 0.0000 0.0000 1772.1941 -7430.1369 302.3593 -9202.3310 -7445.7639 301.6644 -214.6132 -187.8964 30054.3296 -262.0444 -204.8423
TCL: Running FEP window  10: Lambda1 0.44999999999999996 Lambda2 0.49999999999999994 [dLambda 0.04999999999999999]
TCL: Setting parameter firsttimestep to 0
TCL: Setting parameter alchLambda to 0.44999999999999996
Info: NONBONDED TABLE R-SQUARED SPACING: 0.0625
Info: NONBONDED TABLE SIZE: 705 POINTS
TCL: Setting parameter alchLambda2 to 0.49999999999999994
Info: NONBONDED TABLE R-SQUARED SPACING: 0.0625
Info: NONBONDED TABLE SIZE: 705 POINTS
TCL: Running for 1500000 steps
ETITLE: TS BOND ANGLE DIHED IMPRP ELECT VDW BOUNDARY MISC KINETIC TOTAL TEMP POTENTIAL TOTALAVG TEMPAVG PRESSURE GPRESSURE VOLUME PRESSAVG GPRESSAVG
ENERGY: 0 5.9130 5.1616 4.5749 0.0000 -10627.9098 1409.8855 0.0000 0.0000 1771.2887 -7431.0861 302.2048 -9202.3749 -7431.0861 302.2048 -263.0397 -183.2287 30054.3296 -263.0397 -183.2287
ENERGY: 300000 2.8728 7.3912 2.8151 0.0000 -10665.1418 1438.4012 0.0000 0.0000 1725.2747 -7488.3868 294.3542 -9213.6614 -7459.5728 299.0127 132.4128 128.3717 30261.8872 11.9182 43.6848
ENERGY: 600000 2.7252 6.2214 4.9470 0.0000 -10618.6760 1426.2596 0.0000 0.0000 1793.6174 -7384.9054 306.0144 -9178.5229 -7444.8795 300.3831 -217.0001 -157.2142 30664.8201 -59.6788 -24.0129
ENERGY: 900000 4.4649 9.0167 7.1728 0.0000 -10577.4493 1391.1689 0.0000 0.0000 1758.1126 -7407.5134 299.9568 -9165.6261 -7450.0639 299.5398 -282.9055 -213.3978 30348.9905 -46.0528 1.2608
ENERGY: 1200000 3.4565 8.5182 8.0612 0.0000 -10774.9301 1534.6320 0.0000 0.0000 1714.4713 -7505.7908 292.5110 -9220.2621 -7450.8659 299.6774 726.7767 824.6960 30150.4550 -9.3498 45.6407
ENERGY: 1500000 3.3156 4.2202 4.5140 0.0000 -10636.4863 1445.9178 0.0000 0.0000 1833.7131 -7344.8055 312.8552 -9178.5187 -7438.8265 301.3804 84.0015 182.8239 30177.1894 -14.2401 47.6226
TCL: Running FEP window  11: Lambda1 0.49999999999999994 Lambda2 0.5499999999999999 [dLambda 0.04999999999999999]
TCL: Setting parameter firsttimestep to 0
TCL: Setting parameter alchLambda to 0.49999999999999994
Info: NONBONDED TABLE R-SQUARED SPACING: 0.0625
Info: NONBONDED TABLE SIZE: 705 POINTS
TCL: Setting parameter alchLambda2 to 0.5499999999999999
Info: NONBONDED TABLE R-SQUARED SPACING: 0.0625
Info: NONBONDED TABLE SIZE: 705 POINTS
TCL: Running for 1500000 steps
ETITLE: TS BOND ANGLE DIHED IMPRP ELECT VDW BOUNDARY MISC KINETIC TOTAL TEMP POTENTIAL TOTALAVG TEMPAVG PRESSURE GPRESSURE VOLUME PRESSAVG GPRESSAVG
ENERGY: 0 3.3156 4.2201 4.5140 0.0000 -10636.4869 1447.0749 0.0000 0.0000 1832.8329 -7344.5293 312.7050 -9177.3622 -7344.5293 312.7050 119.7311 200.9917 30177.1894 119.7311 200.9917
ENERGY: 300000 2.9709 8.9674 5.2544 0.0000 -10721.4339 1473.0886 0.0000 0.0000 1754.2078 -7476.9448 299.2906 -9231.1526 -7434.9389 303.7079 494.6620 538.0929 29986.7191 184.0237 259.6925
ENERGY: 600000 1.9154 4.8756 1.9103 0.0000 -10683.1691 1511.2888 0.0000 0.0000 1731.6774 -7431.5016 295.4466 -9163.1791 -7460.8901 300.1088 689.7924 706.4972 30229.9776 271.6655 345.7947
ENERGY: 900000 1.5140 6.3855 4.2645 0.0000 -10618.9846 1353.6360 0.0000 0.0000 1681.1173 -7572.0673 286.8204 -9253.1846 -7469.4729 300.0496 -809.1845 -790.0732 30154.1303 54.8194 117.1591
ENERGY: 1200000 2.8108 7.3381 7.7867 0.0000 -10860.8601 1551.3939 0.0000 0.0000 1806.4113 -7485.1192 308.1972 -9291.5306 -7463.3188 300.5667 1077.6925 1152.3266 29542.7037 187.2049 249.7994
ENERGY: 1500000 0.8020 6.1471 6.2458 0.0000 -10708.9959 1445.0373 0.0000 0.0000 1699.1534 -7551.6104 289.8976 -9250.7637 -7459.1650 299.8588 -117.6087 -79.5120 30347.6248 153.5921 215.4636
TCL: Running FEP window  12: Lambda1 0.5499999999999999 Lambda2 0.6    [dLambda 0.050000000000000044]
TCL: Setting parameter firsttimestep to 0
TCL: Setting parameter alchLambda to 0.5499999999999999
Info: NONBONDED TABLE R-SQUARED SPACING: 0.0625
Info: NONBONDED TABLE SIZE: 705 POINTS
TCL: Setting parameter alchLambda2 to 0.6
Info: NONBONDED TABLE R-SQUARED SPACING: 0.0625
Info: NONBONDED TABLE SIZE: 705 POINTS
TCL: Running for 1500000 steps
ETITLE: TS BOND ANGLE DIHED IMPRP ELECT VDW BOUNDARY MISC KINETIC TOTAL TEMP POTENTIAL TOTALAVG TEMPAVG PRESSURE GPRESSURE VOLUME PRESSAVG GPRESSAVG
ENERGY: 0 0.8020 6.1471 6.2458 0.0000 -10708.9711 1445.3644 0.0000 0.0000 1698.2780 -7552.1338 289.7482 -9250.4118 -7552.1338 289.7482 -143.3883 -67.5796 30347.6248 -143.3883 -67.5796
ENERGY: 300000 1.6897 6.7550 7.3731 0.0000 -10660.8952 1476.8503 0.0000 0.0000 1752.7625 -7415.4645 299.0440 -9168.2270 -7454.8807 299.3778 286.6363 322.6541 30378.2025 -126.1409 -76.6231
ENERGY: 600000 2.2896 5.6316 8.0931 0.0000 -10669.7486 1468.5146 0.0000 0.0000 1738.0971 -7447.1226 296.5419 -9185.2197 -7444.7452 300.5803 401.9857 448.6939 30081.3229 -37.2382 19.7592
ENERGY: 900000 2.4977 7.8196 3.7747 0.0000 -10775.8992 1526.4130 0.0000 0.0000 1768.6385 -7466.7556 301.7526 -9235.3941 -7444.3396 300.3595 561.0829 627.4286 30278.0205 -15.5170 52.4595
ENERGY: 1200000 2.0885 6.4538 11.3949 0.0000 -10702.3628 1423.0937 0.0000 0.0000 1695.2441 -7564.0878 289.2306 -9259.3319 -7459.5784 299.1266 -330.8796 -302.3167 30419.0415 43.7124 103.0287
ENERGY: 1500000 1.2678 9.3261 1.9987 0.0000 -10585.9715 1430.3773 0.0000 0.0000 1753.9970 -7389.0047 299.2546 -9143.0017 -7460.3620 299.1576 31.2889 137.3271 30603.2363 -40.8870 20.1103
TCL: Running FEP window  13: Lambda1 0.6    Lambda2 0.65   [dLambda 0.050000000000000044]
TCL: Setting parameter firsttimestep to 0
TCL: Setting parameter alchLambda to 0.6
Info: NONBONDED TABLE R-SQUARED SPACING: 0.0625
Info: NONBONDED TABLE SIZE: 705 POINTS
TCL: Setting parameter alchLambda2 to 0.65
Info: NONBONDED TABLE R-SQUARED SPACING: 0.0625
Info: NONBONDED TABLE SIZE: 705 POINTS
TCL: Running for 1500000 steps
ETITLE: TS BOND ANGLE DIHED IMPRP ELECT VDW BOUNDARY MISC KINETIC TOTAL TEMP POTENTIAL TOTALAVG TEMPAVG PRESSURE GPRESSURE VOLUME PRESSAVG GPRESSAVG
ENERGY: 0 1.2678 9.3261 1.9987 0.0000 -10585.1180 1430.5578 0.0000 0.0000 1753.1065 -7388.8611 299.1027 -9141.9676 -7388.8611 299.1027 67.2401 151.3379 30603.2363 67.2401 151.3379
ENERGY: 300000 1.1651 6.1003 3.0322 0.0000 -10726.5914 1468.3501 0.0000 0.0000 1779.2060 -7468.7376 303.5556 -9247.9436 -7428.9094 301.3586 245.0385 296.6688 30202.2422 193.7970 270.7456
ENERGY: 600000 4.1339 8.8936 3.7656 0.0000 -10662.3524 1420.7304 0.0000 0.0000 1760.6993 -7464.1297 300.3981 -9224.8290 -7444.6441 301.9305 -338.0371 -303.4683 30303.6054 -21.3496 52.3121
ENERGY: 900000 2.2242 5.0466 4.4221 0.0000 -10788.6057 1524.8901 0.0000 0.0000 1726.5279 -7525.4949 294.5680 -9252.0227 -7448.6880 300.9351 985.7286 1031.1571 29826.5680 207.8313 276.8007
ENERGY: 1200000 2.0700 5.5545 4.4462 0.0000 -10635.3320 1428.0249 0.0000 0.0000 1791.4694 -7403.7670 305.6479 -9195.2364 -7446.7716 301.6578 -59.5257 -0.1919 30386.4631 89.0205 151.1167
ENERGY: 1500000 3.2374 5.7112 9.1868 0.0000 -10704.1293 1518.2798 0.0000 0.0000 1770.2075 -7397.5066 302.0203 -9167.7141 -7447.0842 301.4878 939.4503 1016.0141 29811.1363 164.3191 227.0190
TCL: Running FEP window  14: Lambda1 0.65   Lambda2 0.7000000000000001 [dLambda 0.050000000000000044]
TCL: Setting parameter firsttimestep to 0
TCL: Setting parameter alchLambda to 0.65
Info: NONBONDED TABLE R-SQUARED SPACING: 0.0625
Info: NONBONDED TABLE SIZE: 705 POINTS
TCL: Setting parameter alchLambda2 to 0.7000000000000001
Info: NONBONDED TABLE R-SQUARED SPACING: 0.0625
Info: NONBONDED TABLE SIZE: 705 POINTS
TCL: Running for 1500000 steps
ETITLE: TS BOND ANGLE DIHED IMPRP ELECT VDW BOUNDARY MISC KINETIC TOTAL TEMP POTENTIAL TOTALAVG TEMPAVG PRESSURE GPRESSURE VOLUME PRESSAVG GPRESSAVG
ENERGY: 0 3.2374 5.7112 9.1868 0.0000 -10704.0698 1518.7977 0.0000 0.0000 1769.3577 -7397.7789 301.8753 -9167.1366 -7397.7789 301.8753 945.2311 1031.8202 29811.1363 945.2311 1031.8202
ENERGY: 300000 3.2156 11.6218 2.3883 0.0000 -10430.5720 1272.9460 0.0000 0.0000 1767.4612 -7372.9390 301.5518 -9140.4002 -7419.0763 300.5799 -1053.2414 -981.6899 30313.3710 -67.3144 -2.8869
ENERGY: 600000 2.9101 7.3170 6.6575 0.0000 -10761.4266 1505.1634 0.0000 0.0000 1745.5134 -7493.8652 297.8072 -9239.3786 -7423.9919 300.1749 191.9222 238.0610 30521.2828 -5.2078 64.9888
ENERGY: 900000 3.4628 5.2704 2.8114 0.0000 -10636.3190 1399.5945 0.0000 0.0000 1764.1028 -7461.0770 300.9788 -9225.1798 -7426.4824 301.4322 -562.5048 -457.9539 30472.2645 5.7678 71.3171
ENERGY: 1200000 5.2546 4.3827 9.7651 0.0000 -10557.7824 1391.2460 0.0000 0.0000 1809.6269 -7337.5072 308.7458 -9147.1341 -7425.0504 301.4911 -584.9829 -557.4676 30922.4967 -103.5645 -43.8537
ENERGY: 1500000 2.8548 4.4809 6.9384 0.0000 -10729.8113 1464.1707 0.0000 0.0000 1772.7039 -7478.6626 302.4462 -9251.3666 -7429.4644 300.9861 264.4987 332.0445 29982.7655 -48.2047 11.8859
TCL: Running FEP window  15: Lambda1 0.7000000000000001 Lambda2 0.7500000000000001 [dLambda 0.050000000000000044]
TCL: Setting parameter firsttimestep to 0
TCL: Setting parameter alchLambda to 0.7000000000000001
Info: NONBONDED TABLE R-SQUARED SPACING: 0.0625
Info: NONBONDED TABLE SIZE: 705 POINTS
TCL: Setting parameter alchLambda2 to 0.7500000000000001
Info: NONBONDED TABLE R-SQUARED SPACING: 0.0625
Info: NONBONDED TABLE SIZE: 705 POINTS
TCL: Running for 1500000 steps
ETITLE: TS BOND ANGLE DIHED IMPRP ELECT VDW BOUNDARY MISC KINETIC TOTAL TEMP POTENTIAL TOTALAVG TEMPAVG PRESSURE GPRESSURE VOLUME PRESSAVG GPRESSAVG
ENERGY: 0 2.8548 4.4809 6.9384 0.0000 -10730.4236 1464.1757 0.0000 0.0000 1771.7952 -7480.1787 302.2912 -9251.9738 -7480.1787 302.2912 248.3141 342.2370 29982.7655 248.3141 342.2370
ENERGY: 300000 4.1660 5.2006 9.4825 0.0000 -10645.5402 1429.9923 0.0000 0.0000 1721.8077 -7474.8912 293.7627 -9196.6989 -7494.4904 297.8687 -200.6132 -107.7022 30578.3835 -160.7474 -105.5417
ENERGY: 600000 2.9923 3.5157 5.3979 0.0000 -10688.6623 1437.4957 0.0000 0.0000 1710.9467 -7528.3141 291.9097 -9239.2607 -7481.1609 297.7188 188.7965 200.4473 30016.8341 -102.6395 -47.2314
ENERGY: 900000 2.3055 5.9575 3.4751 0.0000 -10791.1941 1456.6794 0.0000 0.0000 1795.8483 -7526.9283 306.3950 -9322.7766 -7483.5605 299.8883 -101.0093 -19.1735 30049.9475 -46.6245 15.9947
ENERGY: 1200000 6.7049 6.1768 3.7720 0.0000 -10566.8959 1403.2238 0.0000 0.0000 1763.4957 -7383.5227 300.8752 -9147.0184 -7474.4991 299.1860 -664.6304 -608.2688 31204.3473 -130.4460 -68.5321
ENERGY: 1500000 7.5008 3.5734 3.4676 0.0000 -10718.3511 1505.4623 0.0000 0.0000 1756.0727 -7442.2742 299.6087 -9198.3469 -7481.0879 298.8672 743.8331 859.3208 30112.8294 -76.9702 -7.4952
TCL: Running FEP window  16: Lambda1 0.7500000000000001 Lambda2 0.8000000000000002 [dLambda 0.050000000000000044]
TCL: Setting parameter firsttimestep to 0
TCL: Setting parameter alchLambda to 0.7500000000000001
Info: NONBONDED TABLE R-SQUARED SPACING: 0.0625
Info: NONBONDED TABLE SIZE: 705 POINTS
TCL: Setting parameter alchLambda2 to 0.8000000000000002
Info: NONBONDED TABLE R-SQUARED SPACING: 0.0625
Info: NONBONDED TABLE SIZE: 705 POINTS
TCL: Running for 1500000 steps
ETITLE: TS BOND ANGLE DIHED IMPRP ELECT VDW BOUNDARY MISC KINETIC TOTAL TEMP POTENTIAL TOTALAVG TEMPAVG PRESSURE GPRESSURE VOLUME PRESSAVG GPRESSAVG
ENERGY: 0 7.5008 3.5734 3.4676 0.0000 -10718.5114 1504.9819 0.0000 0.0000 1755.2113 -7443.7763 299.4618 -9198.9876 -7443.7763 299.4618 776.9945 862.6334 30112.8294 776.9945 862.6334
ENERGY: 300000 4.6371 8.1459 3.1875 0.0000 -10734.8376 1500.5966 0.0000 0.0000 1782.5222 -7435.7483 304.1214 -9218.2705 -7430.6082 299.0780 535.4048 610.6839 29880.4043 400.1938 466.2667
ENERGY: 600000 1.7419 11.3284 7.5270 0.0000 -10744.5893 1573.2600 0.0000 0.0000 1753.6274 -7397.1047 299.1915 -9150.7321 -7430.5250 299.4102 1265.8764 1287.7914 30468.6839 416.0030 476.0805
ENERGY: 900000 3.3377 8.0260 5.5944 0.0000 -10615.7930 1351.4248 0.0000 0.0000 1778.5327 -7468.8775 303.4407 -9247.4102 -7419.4308 301.5746 -1065.7310 -981.9909 30756.4032 200.7949 261.5886
ENERGY: 1200000 3.1381 7.6651 9.0785 0.0000 -10587.7320 1417.0745 0.0000 0.0000 1737.9026 -7412.8731 296.5087 -9150.7757 -7415.3582 301.2472 -256.8303 -183.6634 30463.5944 198.8744 260.6825
ENERGY: 1500000 3.3631 4.8664 5.5360 0.0000 -10786.9652 1516.3656 0.0000 0.0000 1751.0946 -7505.7393 298.7594 -9256.8340 -7430.0908 300.6268 451.2168 569.7883 30160.6848 128.6292 192.5353
TCL: Running FEP window  17: Lambda1 0.8000000000000002 Lambda2 0.8500000000000002 [dLambda 0.050000000000000044]
TCL: Setting parameter firsttimestep to 0
TCL: Setting parameter alchLambda to 0.8000000000000002
Info: NONBONDED TABLE R-SQUARED SPACING: 0.0625
Info: NONBONDED TABLE SIZE: 705 POINTS
TCL: Setting parameter alchLambda2 to 0.8500000000000002
Info: NONBONDED TABLE R-SQUARED SPACING: 0.0625
Info: NONBONDED TABLE SIZE: 705 POINTS
TCL: Running for 1500000 steps
ETITLE: TS BOND ANGLE DIHED IMPRP ELECT VDW BOUNDARY MISC KINETIC TOTAL TEMP POTENTIAL TOTALAVG TEMPAVG PRESSURE GPRESSURE VOLUME PRESSAVG GPRESSAVG
ENERGY: 0 3.3631 4.8664 5.5360 0.0000 -10787.7969 1516.9655 0.0000 0.0000 1750.2232 -7506.8426 298.6107 -9257.0658 -7506.8426 298.6107 513.7128 591.2768 30160.6848 513.7128 591.2768
ENERGY: 300000 4.7965 3.8913 1.1055 0.0000 -10602.9756 1412.6045 0.0000 0.0000 1808.5901 -7371.9877 308.5689 -9180.5778 -7477.3646 300.3658 -183.2913 -90.1709 30401.5342 118.3770 210.2534
ENERGY: 600000 1.7276 7.3410 5.4555 0.0000 -10558.7894 1373.8343 0.0000 0.0000 1709.1922 -7461.2388 291.6103 -9170.4310 -7472.0923 300.3616 -397.8299 -383.8375 30552.9390 44.5488 119.8979
ENERGY: 900000 1.9197 7.0488 5.6085 0.0000 -10618.7055 1423.2151 0.0000 0.0000 1744.3429 -7436.5704 297.6075 -9180.9133 -7468.3601 298.5129 -119.8397 -73.3699 30434.2891 -25.8006 46.8347
ENERGY: 1200000 1.4242 7.9750 6.2496 0.0000 -10525.3396 1361.7021 0.0000 0.0000 1818.6506 -7329.3380 310.2853 -9147.9887 -7445.2286 300.1514 -151.5887 -106.8745 30147.3236 73.3485 137.4587
ENERGY: 1500000 2.3459 4.2807 6.1373 0.0000 -10698.6115 1434.8891 0.0000 0.0000 1753.3866 -7497.5719 299.1505 -9250.9585 -7452.1269 300.6138 105.4944 166.4103 30206.3254 131.8769 196.9201
TCL: Running FEP window  18: Lambda1 0.8500000000000002 Lambda2 0.9000000000000002 [dLambda 0.050000000000000044]
TCL: Setting parameter firsttimestep to 0
TCL: Setting parameter alchLambda to 0.8500000000000002
Info: NONBONDED TABLE R-SQUARED SPACING: 0.0625
Info: NONBONDED TABLE SIZE: 705 POINTS
TCL: Setting parameter alchLambda2 to 0.9000000000000002
Info: NONBONDED TABLE R-SQUARED SPACING: 0.0625
Info: NONBONDED TABLE SIZE: 705 POINTS
TCL: Running for 1500000 steps
ETITLE: TS BOND ANGLE DIHED IMPRP ELECT VDW BOUNDARY MISC KINETIC TOTAL TEMP POTENTIAL TOTALAVG TEMPAVG PRESSURE GPRESSURE VOLUME PRESSAVG GPRESSAVG
ENERGY: 0 2.3459 4.2807 6.1373 0.0000 -10699.3116 1434.8586 0.0000 0.0000 1752.5324 -7499.1567 299.0047 -9251.6891 -7499.1567 299.0047 85.0280 179.0257 30206.3254 85.0280 179.0257
ENERGY: 300000 2.0414 4.9718 5.8732 0.0000 -10580.4956 1329.4721 0.0000 0.0000 1733.6347 -7504.5024 295.7805 -9238.1371 -7484.3476 297.5846 -819.1626 -768.1729 30219.0058 -309.8595 -233.5443
ENERGY: 600000 4.6792 6.4342 2.4425 0.0000 -10677.9213 1401.9624 0.0000 0.0000 1744.4669 -7517.9360 297.6286 -9262.4029 -7484.6998 299.6981 -592.4575 -522.9910 30584.4356 -156.1323 -89.9739
ENERGY: 900000 4.1369 7.0101 4.7751 0.0000 -10566.5942 1349.1028 0.0000 0.0000 1733.4369 -7468.1325 295.7468 -9201.5694 -7480.9400 298.3417 -618.0919 -566.8688 30291.5106 -140.5061 -68.8006
ENERGY: 1200000 2.8958 6.5207 6.7219 0.0000 -10685.7180 1432.5874 0.0000 0.0000 1749.1967 -7487.7954 298.4356 -9236.9921 -7477.3226 298.9279 -239.9084 -145.2041 30304.5508 -122.0954 -42.1311
ENERGY: 1500000 2.2291 7.9848 4.2754 0.0000 -10616.0433 1398.7945 0.0000 0.0000 1710.6201 -7492.1394 291.8539 -9202.7596 -7484.6825 298.8686 -417.8432 -397.0364 30375.2491 -199.5901 -125.1048
TCL: Running FEP window  19: Lambda1 0.9000000000000002 Lambda2 0.9500000000000003 [dLambda 0.050000000000000044]
TCL: Setting parameter firsttimestep to 0
TCL: Setting parameter alchLambda to 0.9000000000000002
Info: NONBONDED TABLE R-SQUARED SPACING: 0.0625
Info: NONBONDED TABLE SIZE: 705 POINTS
TCL: Setting parameter alchLambda2 to 0.9500000000000003
Info: NONBONDED TABLE R-SQUARED SPACING: 0.0625
Info: NONBONDED TABLE SIZE: 705 POINTS
TCL: Running for 1500000 steps
ETITLE: TS BOND ANGLE DIHED IMPRP ELECT VDW BOUNDARY MISC KINETIC TOTAL TEMP POTENTIAL TOTALAVG TEMPAVG PRESSURE GPRESSURE VOLUME PRESSAVG GPRESSAVG
ENERGY: 0 2.2291 7.9849 4.2754 0.0000 -10617.0623 1399.3825 0.0000 0.0000 1709.7717 -7493.4189 291.7092 -9203.1905 -7493.4189 291.7092 -464.5353 -376.4081 30375.2491 -464.5353 -376.4081
ENERGY: 300000 4.1405 9.9470 7.4172 0.0000 -10697.5025 1520.2334 0.0000 0.0000 1720.7279 -7435.0364 293.5785 -9155.7644 -7469.3475 298.1587 879.3024 945.1538 30394.8899 250.4118 297.6115
ENERGY: 600000 3.9220 6.0134 2.2416 0.0000 -10609.0825 1315.2956 0.0000 0.0000 1677.7136 -7603.8963 286.2397 -9281.6099 -7502.8550 296.3809 -1094.6682 -1029.2567 30165.6101 -162.7498 -113.9459
ENERGY: 900000 2.7215 6.5024 2.4275 0.0000 -10609.1024 1402.3436 0.0000 0.0000 1731.9738 -7463.1336 295.4972 -9195.1074 -7502.0707 297.1811 -230.4950 -195.2560 30311.8638 -12.9601 38.8128
ENERGY: 1200000 3.3478 7.1643 4.7767 0.0000 -10690.4622 1405.7403 0.0000 0.0000 1850.3389 -7419.0943 315.6918 -9269.4332 -7489.0902 297.7978 -14.7326 14.5883 30470.2545 -82.4847 -30.0886
ENERGY: 1500000 2.7191 10.3369 4.8083 0.0000 -10724.7950 1473.1936 0.0000 0.0000 1790.7508 -7442.9863 305.5253 -9233.7371 -7473.9747 299.6282 296.9429 379.3956 30104.7133 -1.8447 53.2427
TCL: Running FEP window  20: Lambda1 0.9500000000000003 Lambda2 1.0    [dLambda 0.04999999999999971]
TCL: Setting parameter firsttimestep to 0
TCL: Setting parameter alchLambda to 0.9500000000000003
Info: NONBONDED TABLE R-SQUARED SPACING: 0.0625
Info: NONBONDED TABLE SIZE: 705 POINTS
TCL: Setting parameter alchLambda2 to 1.0
Info: NONBONDED TABLE R-SQUARED SPACING: 0.0625
Info: NONBONDED TABLE SIZE: 705 POINTS
TCL: Running for 1500000 steps
ETITLE: TS BOND ANGLE DIHED IMPRP ELECT VDW BOUNDARY MISC KINETIC TOTAL TEMP POTENTIAL TOTALAVG TEMPAVG PRESSURE GPRESSURE VOLUME PRESSAVG GPRESSAVG
ENERGY: 0 2.7191 10.3369 4.8083 0.0000 -10726.2866 1473.8136 0.0000 0.0000 1789.8963 -7444.7124 305.3795 -9234.6086 -7444.7124 305.3795 319.5517 398.2590 30104.7133 319.5517 398.2590
ENERGY: 300000 4.7344 7.6727 3.6920 0.0000 -10615.7557 1359.7766 0.0000 0.0000 1723.4797 -7516.4002 294.0480 -9239.8800 -7481.4470 297.4369 -395.9904 -381.7900 30320.2155 50.3364 105.2269
ENERGY: 600000 4.9143 6.3223 5.0575 0.0000 -10636.9738 1397.1476 0.0000 0.0000 1775.9558 -7447.5763 303.0011 -9223.5322 -7457.5510 302.8542 -607.9407 -585.4960 30561.8047 82.6488 130.1328
ENERGY: 900000 1.7411 4.7165 4.4468 0.0000 -10839.3258 1510.9175 0.0000 0.0000 1777.3636 -7540.1404 303.2412 -9317.5039 -7480.7113 300.9902 465.7509 517.2094 30025.4316 52.5311 111.7913
ENERGY: 1200000 3.3327 7.8299 3.2430 0.0000 -10600.8193 1353.2804 0.0000 0.0000 1797.2370 -7435.8963 306.6319 -9233.1333 -7474.3909 301.6515 -420.9451 -319.3595 29874.7254 19.6519 80.3131
ENERGY: 1500000 2.2877 6.8147 6.7862 0.0000 -10534.4424 1374.0425 0.0000 0.0000 1800.6649 -7343.8464 307.2168 -9144.5114 -7457.1723 302.7014 -500.5880 -393.3400 30841.9356 61.3244 120.0533
TCL: Exiting due to exit command.
