Info: SIMULATION PARAMETERS:
Info: TIMESTEP               2
Info: NUMBER OF STEPS        0
Info: STEPS PER CYCLE        10
Info: PERIODIC CELL BASIS 1  31.88 0 0
Info: PERIODIC CELL BASIS 2  0 29.6673 0
Info: PERIODIC CELL BASIS 3  0 0 33.0391
Info: PERIODIC CELL CENTER   0 0 0
Info: WRAPPING WATERS AROUND PERIODIC BOUNDARIES ON OUTPUT.
Info: WRAPPING ALL CLUSTERS AROUND PERIODIC BOUNDARIES ON OUTPUT.
Info: FIRST LDB TIMESTEP     50
Info: LAST LDB TIMESTEP     -1
Info: HOM BACKGROUND SCALING 1
Info: PME BACKGROUND SCALING 1
Info: MIN ATOMS PER PATCH    40
Info: EMPTY PATCH LOAD       40 ATOMS
Info: VELOCITY FILE          mobley_1396156_equil.vel
Info: CENTER OF MASS MOVING INITIALLY? NO
Info: DIELECTRIC             1
Info: EXCLUDE                SCALED ONE-FOUR
Info: 1-4 ELECTROSTATICS SCALED BY 0.833333
Info: MODIFIED 1-4 VDW PARAMETERS WILL BE USED
Info: DCD FILENAME           mobley_1396156_prod.dcd
Info: DCD FREQUENCY          100000
Info: DCD FIRST STEP         100000
Info: DCD FILE WILL CONTAIN UNIT CELL DATA
Info: XST FILENAME           mobley_1396156_prod.xst
Info: XST FREQUENCY          100000
Info: NO VELOCITY DCD OUTPUT
Info: NO FORCE DCD OUTPUT
Info: OUTPUT FILENAME        mobley_1396156_prod
Info: BINARY OUTPUT FILES WILL BE USED
Info: RESTART FILENAME       mobley_1396156_prod.restart
Info: RESTART FREQUENCY      100000
Info: BINARY RESTART FILES WILL BE USED
Info: CUTOFF                 9
Info: PAIRLIST DISTANCE      11
Info: PAIRLIST SHRINK RATE   0.01
Info: PAIRLIST GROW RATE     0.01
Info: PAIRLIST TRIGGER       0.3
Info: PAIRLISTS PER CYCLE    2
Info: PAIRLISTS ENABLED
Info: MARGIN                 2
Info: HYDROGEN GROUP CUTOFF  2.5
Info: PATCH DIMENSION        15.5
Info: ENERGY OUTPUT STEPS    100000
Info: ENERGY EVALUATION STEPS    100000
Info: OUTPUT ENERGY PRECISION 4
Info: CROSSTERM ENERGY INCLUDED IN DIHEDRAL
Info: TIMING OUTPUT STEPS    1000000
Info: PRESSURE OUTPUT STEPS  100000
Info: ALCHEMICAL FEP ON
Info: FEP CURRENT LAMBDA VALUE     0
Info: FEP COMPARISON LAMBDA VALUE  0.05
Info: FEP INTRA-ALCHEMICAL NON-BONDED INTERACTIONS WILL BE RETAINED
Info: FEP INTRA-ALCHEMICAL BONDED INTERACTIONS WILL BE RETAINED
Info: FEP VDW SHIFTING COEFFICIENT 5
Info: FEP ELEC. ACTIVE FOR ANNIHILATED PARTICLES BETWEEN LAMBDA = 0 AND LAMBDA = 0.5
Info: FEP ELEC. ACTIVE FOR EXNIHILATED PARTICLES BETWEEN LAMBDA = 0.5 AND LAMBDA = 1
Info: FEP VDW ACTIVE FOR ANNIHILATED PARTICLES BETWEEN LAMBDA = 0 AND LAMBDA = 1
Info: FEP VDW ACTIVE FOR EXNIHILATED PARTICLES BETWEEN LAMBDA = 0 AND LAMBDA = 1
Info: FEP BOND ACTIVE FOR ANNIHILATED PARTICLES BETWEEN LAMBDA = 1 AND LAMBDA = 1
Info: FEP BOND ACTIVE FOR EXNIHILATED PARTICLES BETWEEN LAMBDA = 0 AND LAMBDA = 0
Info: LANGEVIN DYNAMICS ACTIVE
Info: LANGEVIN TEMPERATURE   300
Info: LANGEVIN USING BBK INTEGRATOR
Info: LANGEVIN DAMPING COEFFICIENT IS 1 INVERSE PS
Info: LANGEVIN DYNAMICS APPLIED TO HYDROGENS
Info: LANGEVIN PISTON PRESSURE CONTROL ACTIVE
Info:        TARGET PRESSURE IS 1.01325 BAR
Info:     OSCILLATION PERIOD IS 50 FS
Info:             DECAY TIME IS 25 FS
Info:     PISTON TEMPERATURE IS 300 K
Info:       PRESSURE CONTROL IS GROUP-BASED
Info:    INITIAL STRAIN RATE IS 0.000773813 0.000773813 0.000773813
Info:       CELL FLUCTUATION IS ISOTROPIC
Info: PARTICLE MESH EWALD (PME) ACTIVE
Info: PME TOLERANCE               1e-06
Info: PME EWALD COEFFICIENT       0.348832
Info: PME INTERPOLATION ORDER     4
Info: PME GRID DIMENSIONS         32 32 36
Info: PME MAXIMUM GRID SPACING    1
Info: PME CALCULATION WILL BE PERFORMED ON GPU
Info: FULL ELECTROSTATIC EVALUATION FREQUENCY      2
Info: USING VERLET I (r-RESPA) MTS SCHEME.
Info: C1 SPLITTING OF LONG RANGE ELECTROSTATICS
Info: PLACING ATOMS IN PATCHES BY HYDROGEN GROUPS
Info: RIGID BONDS TO HYDROGEN : ALL
Info:         ERROR TOLERANCE : 1e-08
Info:          MAX ITERATIONS : 100
Info: RIGID WATER USING SETTLE ALGORITHM
Info: RANDOM NUMBER SEED     1743740737
Info: USE HYDROGEN BONDS?    NO
Info: Using AMBER format force field!
Info: AMBER PARM FILE        mobley_1396156.prmtop
Info: COORDINATE PDB         mobley_1396156.pdb
Info: Exclusions will be read from PARM file!
Info: SCNB (VDW SCALING)     2
Info: USING ARITHMETIC MEAN TO COMBINE L-J SIGMA PARAMETERS
Info: BINARY COORDINATES     mobley_1396156_equil.coor
Info: SUMMARY OF PARAMETERS:
Info: 6 BONDS
Info: 5 ANGLES
Info:   5 HARMONIC
Info:   0 COSINE-BASED
Info: 3 DIHEDRAL
Info: 0 IMPROPER
Info: 0 CROSSTERM
Info: 0 VDW
Info: 21 VDW_PAIRS
Info: 0 NBTHOLE_PAIRS
Info: To read alchdata from file: mobley_1396156.pdb
Info: To read alchflag data from column: 5
Info: STRUCTURE SUMMARY:
Info: 2960 ATOMS
Info: 2960 BONDS
Info: 21 ANGLES
Info: 34 DIHEDRALS
Info: 0 IMPROPERS
Info: 0 CROSSTERMS
Info: 3006 EXCLUSIONS
Info: 2946 RIGID BONDS
Info: ALCH: 0 ATOMS TO DISAPPEAR IN FINAL STATE
Info: ALCH: 14 ATOMS TO APPEAR IN FINAL STATE
Info: 5934 DEGREES OF FREEDOM
Info: 996 HYDROGEN GROUPS
Info: 3 ATOMS IN LARGEST HYDROGEN GROUP
Info: 996 MIGRATION GROUPS
Info: 3 ATOMS IN LARGEST MIGRATION GROUP
Info: TOTAL MASS = 17987 amu
Info: TOTAL CHARGE = 0.000200011 e
Info: MASS DENSITY = 0.955861 g/cm^3
Info: ATOM DENSITY = 0.0947257 atoms/A^3
Info: ADDED 0 IMPLICIT EXCLUSIONS
Info: NONBONDED TABLE R-SQUARED SPACING: 0.0625
Info: NONBONDED TABLE SIZE: 705 POINTS
Info: REMOVING COM VELOCITY 0.114302 -0.0393527 -0.0329986
Info: Use 3D box decompostion in PME FFT.
Info: Updated CUDA force table with 4096 elements.
Info: Updated CUDA LJ table with 6 x 6 elements.
Info: Found 17 unique exclusion lists needing 36 bytes
TCL: Running for 1500000 steps
ETITLE: TS BOND ANGLE DIHED IMPRP ELECT VDW BOUNDARY MISC KINETIC TOTAL TEMP POTENTIAL TOTALAVG TEMPAVG PRESSURE GPRESSURE VOLUME PRESSAVG GPRESSAVG
ENERGY: 0 3.7340 2.7640 8.4644 0.0000 -10604.0953 1369.5639 0.0000 0.0000 1784.1431 -7435.4258 302.6025 -9219.5689 -7435.4258 302.6025 -968.9133 -890.8455 31248.1358 -968.9133 -890.8455
ENERGY: 300000 5.2326 3.3200 5.2816 0.0000 -10725.3326 1452.5246 0.0000 0.0000 1807.5875 -7451.3863 306.5788 -9258.9738 -7507.9515 299.1833 98.9737 135.5982 30064.4534 -359.8616 -309.6811
ENERGY: 600000 3.3477 2.5555 9.9828 0.0000 -10774.2046 1435.9911 0.0000 0.0000 1792.2218 -7530.1057 303.9727 -9322.3275 -7511.8415 300.6978 -142.3545 -161.3976 30231.6084 -260.5678 -223.7371
ENERGY: 900000 5.5056 1.2778 7.8400 0.0000 -10709.3484 1443.4044 0.0000 0.0000 1798.6190 -7452.7016 305.0577 -9251.3207 -7501.2659 301.7782 278.6206 307.5392 30241.8856 -162.9197 -122.2214
ENERGY: 1200000 2.7530 1.3432 6.0241 0.0000 -10706.5960 1429.0408 0.0000 0.0000 1766.9077 -7500.5273 299.6793 -9267.4350 -7495.1545 300.3974 86.3000 106.2089 29962.7624 -182.2746 -140.9155
ENERGY: 1500000 3.8898 2.5389 6.4387 0.0000 -10655.5728 1446.7917 0.0000 0.0000 1764.8085 -7431.1051 299.3232 -9195.9136 -7500.2141 300.4778 298.0061 319.5623 30289.1828 -65.9519 -29.6742
TCL: Running FEP window   2: Lambda1 0.05   Lambda2 0.1    [dLambda 0.05  ]
TCL: Setting parameter firsttimestep to 0
TCL: Setting parameter alchLambda to 0.05
Info: NONBONDED TABLE R-SQUARED SPACING: 0.0625
Info: NONBONDED TABLE SIZE: 705 POINTS
TCL: Setting parameter alchLambda2 to 0.1
Info: NONBONDED TABLE R-SQUARED SPACING: 0.0625
Info: NONBONDED TABLE SIZE: 705 POINTS
TCL: Running for 1500000 steps
ETITLE: TS BOND ANGLE DIHED IMPRP ELECT VDW BOUNDARY MISC KINETIC TOTAL TEMP POTENTIAL TOTALAVG TEMPAVG PRESSURE GPRESSURE VOLUME PRESSAVG GPRESSAVG
ENERGY: 0 3.8898 2.5389 6.4387 0.0000 -10655.5747 1452.4797 0.0000 0.0000 1763.9548 -7426.2729 299.1784 -9190.2276 -7426.2729 299.1784 261.8944 333.9355 30289.1828 261.8944 333.9355
ENERGY: 300000 4.0871 2.0859 6.9959 0.0000 -10632.6026 1370.2631 0.0000 0.0000 1813.4196 -7435.7511 307.5680 -9249.1706 -7508.5451 298.5746 -582.4389 -535.3643 30501.8983 -176.4891 -110.3015
ENERGY: 600000 5.4287 4.6334 8.4061 0.0000 -10631.8249 1374.9931 0.0000 0.0000 1716.3896 -7521.9740 291.1111 -9238.3636 -7509.3385 296.9248 -744.6766 -709.9755 30845.4775 -209.5069 -145.6689
ENERGY: 900000 4.2863 4.0278 7.6051 0.0000 -10589.1940 1398.0342 0.0000 0.0000 1788.3789 -7386.8617 303.3209 -9175.2406 -7502.4082 299.1180 -11.3975 -3.9349 30135.6272 -140.0458 -81.5830
ENERGY: 1200000 4.7071 4.1040 6.4975 0.0000 -10710.3587 1383.7695 0.0000 0.0000 1747.6731 -7563.6075 296.4169 -9311.2805 -7505.1596 299.1685 -1004.2087 -930.4967 30684.3922 -181.1165 -115.0515
ENERGY: 1500000 4.7837 4.4800 6.7217 0.0000 -10747.6521 1451.7942 0.0000 0.0000 1834.6898 -7445.1827 311.1756 -9279.8724 -7495.4660 300.3574 -143.8319 -106.2872 30290.2792 -231.4483 -164.3463
TCL: Running FEP window   3: Lambda1 0.1    Lambda2 0.15000000000000002 [dLambda 0.05000000000000002]
TCL: Setting parameter firsttimestep to 0
TCL: Setting parameter alchLambda to 0.1
Info: NONBONDED TABLE R-SQUARED SPACING: 0.0625
Info: NONBONDED TABLE SIZE: 705 POINTS
TCL: Setting parameter alchLambda2 to 0.15000000000000002
Info: NONBONDED TABLE R-SQUARED SPACING: 0.0625
Info: NONBONDED TABLE SIZE: 705 POINTS
TCL: Running for 1500000 steps
ETITLE: TS BOND ANGLE DIHED IMPRP ELECT VDW BOUNDARY MISC KINETIC TOTAL TEMP POTENTIAL TOTALAVG TEMPAVG PRESSURE GPRESSURE VOLUME PRESSAVG GPRESSAVG
ENERGY: 0 4.7837 4.4800 6.7217 0.0000 -10747.6526 1458.1969 0.0000 0.0000 1833.8011 -7439.6692 311.0248 -9273.4703 -7439.6692 311.0248 -178.3140 -83.6313 30290.2792 -178.3140 -83.6313
ENERGY: 300000 4.4374 2.4008 8.0951 0.0000 -10826.9734 1466.1729 0.0000 0.0000 1788.2667 -7557.6005 303.3019 -9345.8672 -7489.9610 304.4671 -457.2776 -444.5464 31176.4957 -169.2064 -111.5635
ENERGY: 600000 3.3818 3.1888 6.2057 0.0000 -10808.2390 1483.2175 0.0000 0.0000 1834.6293 -7477.6159 311.1653 -9312.2452 -7495.4721 304.1740 310.1222 401.3235 30362.8844 -20.0424 56.0247
ENERGY: 900000 3.5692 2.3980 6.0829 0.0000 -10816.6675 1498.5499 0.0000 0.0000 1754.1573 -7551.9102 297.5167 -9306.0676 -7506.5641 301.8474 184.4284 246.1416 30292.9133 -8.9251 62.6011
ENERGY: 1200000 2.7791 3.1906 7.7161 0.0000 -10803.7375 1462.2432 0.0000 0.0000 1802.6246 -7525.1840 305.7371 -9327.8086 -7500.0613 301.9766 110.2626 199.9966 30212.5367 -30.8260 36.2320
ENERGY: 1500000 5.0691 3.9750 8.4927 0.0000 -10803.3807 1500.1464 0.0000 0.0000 1775.0464 -7510.6511 301.0596 -9285.6975 -7498.3812 301.8537 287.8949 336.2001 30126.6446 -13.6527 46.9892
TCL: Running FEP window   4: Lambda1 0.15000000000000002 Lambda2 0.2    [dLambda 0.04999999999999999]
TCL: Setting parameter firsttimestep to 0
TCL: Setting parameter alchLambda to 0.15000000000000002
Info: NONBONDED TABLE R-SQUARED SPACING: 0.0625
Info: NONBONDED TABLE SIZE: 705 POINTS
TCL: Setting parameter alchLambda2 to 0.2
Info: NONBONDED TABLE R-SQUARED SPACING: 0.0625
Info: NONBONDED TABLE SIZE: 705 POINTS
TCL: Running for 1500000 steps
ETITLE: TS BOND ANGLE DIHED IMPRP ELECT VDW BOUNDARY MISC KINETIC TOTAL TEMP POTENTIAL TOTALAVG TEMPAVG PRESSURE GPRESSURE VOLUME PRESSAVG GPRESSAVG
ENERGY: 0 5.0691 3.9750 8.4927 0.0000 -10803.3800 1505.0532 0.0000 0.0000 1774.1704 -7506.6197 300.9111 -9280.7901 -7506.6197 300.9111 275.7047 359.7222 30126.6446 275.7047 359.7222
ENERGY: 300000 4.9018 2.1758 6.8247 0.0000 -10743.4209 1549.7598 0.0000 0.0000 1812.2984 -7367.4604 307.3778 -9179.7588 -7478.8891 301.1351 1479.9326 1519.9677 30050.8263 122.8714 179.5553
ENERGY: 600000 2.8399 2.2841 7.6938 0.0000 -10769.0844 1416.7051 0.0000 0.0000 1804.3290 -7535.2325 306.0262 -9339.5614 -7487.9767 302.2261 -210.8254 -151.4323 29742.3741 -70.9859 -2.3445
ENERGY: 900000 4.0046 5.9866 7.2961 0.0000 -10817.4232 1509.1035 0.0000 0.0000 1821.4067 -7469.6257 308.9227 -9291.0325 -7484.2904 302.7355 186.8973 280.6514 30656.7646 -235.8559 -165.7886
ENERGY: 1200000 3.6662 1.7431 6.5243 0.0000 -10844.9011 1539.6281 0.0000 0.0000 1760.8515 -7532.4879 298.6521 -9293.3394 -7484.1264 301.9314 635.1035 748.1655 30344.5156 -54.4887 14.1620
ENERGY: 1500000 11.1713 2.2600 6.4810 0.0000 -10711.0506 1390.8067 0.0000 0.0000 1760.5940 -7539.7376 298.6084 -9300.3316 -7486.3688 301.5221 -593.7000 -566.6443 30238.2870 -102.7348 -30.9361
TCL: Running FEP window   5: Lambda1 0.2    Lambda2 0.25   [dLambda 0.04999999999999999]
TCL: Setting parameter firsttimestep to 0
TCL: Setting parameter alchLambda to 0.2
Info: NONBONDED TABLE R-SQUARED SPACING: 0.0625
Info: NONBONDED TABLE SIZE: 705 POINTS
TCL: Setting parameter alchLambda2 to 0.25
Info: NONBONDED TABLE R-SQUARED SPACING: 0.0625
Info: NONBONDED TABLE SIZE: 705 POINTS
TCL: Running for 1500000 steps
ETITLE: TS BOND ANGLE DIHED IMPRP ELECT VDW BOUNDARY MISC KINETIC TOTAL TEMP POTENTIAL TOTALAVG TEMPAVG PRESSURE GPRESSURE VOLUME PRESSAVG GPRESSAVG
ENERGY: 0 11.1713 2.2600 6.4810 0.0000 -10711.0501 1390.1595 0.0000 0.0000 1759.7307 -7541.2476 298.4620 -9300.9783 -7541.2476 298.4620 -651.3456 -566.3370 30238.2870 -651.3456 -566.3370
ENERGY: 300000 3.8564 1.8249 7.1822 0.0000 -10744.2575 1468.1942 0.0000 0.0000 1728.8177 -7534.3822 293.2189 -9263.1999 -7505.2970 299.5748 131.0508 217.0262 30348.2441 84.8885 154.0322
ENERGY: 600000 5.3571 3.3578 8.2369 0.0000 -10728.4637 1406.6556 0.0000 0.0000 1745.7978 -7559.0585 296.0989 -9304.8563 -7503.0879 299.6257 -547.5055 -474.1939 30361.7599 106.8105 181.5164
ENERGY: 900000 5.6253 2.3515 9.8475 0.0000 -10745.0820 1461.3908 0.0000 0.0000 1788.1984 -7477.6687 303.2903 -9265.8670 -7490.9988 299.6478 17.5209 62.6053 30554.7947 37.4690 96.2476
ENERGY: 1200000 5.2193 3.3357 7.1382 0.0000 -10695.4242 1406.8308 0.0000 0.0000 1773.2797 -7499.6204 300.7600 -9272.9001 -7485.5225 300.0188 -655.0693 -635.6335 30882.2941 11.9897 77.0894
ENERGY: 1500000 4.5896 6.5281 7.6653 0.0000 -10738.5539 1456.4952 0.0000 0.0000 1780.5291 -7482.7465 301.9896 -9263.2757 -7490.9518 300.0522 302.1092 322.7921 30144.5645 26.8603 90.2544
TCL: Running FEP window   6: Lambda1 0.25   Lambda2 0.3    [dLambda 0.04999999999999999]
TCL: Setting parameter firsttimestep to 0
TCL: Setting parameter alchLambda to 0.25
Info: NONBONDED TABLE R-SQUARED SPACING: 0.0625
Info: NONBONDED TABLE SIZE: 705 POINTS
TCL: Setting parameter alchLambda2 to 0.3
Info: NONBONDED TABLE R-SQUARED SPACING: 0.0625
Info: NONBONDED TABLE SIZE: 705 POINTS
TCL: Running for 1500000 steps
ETITLE: TS BOND ANGLE DIHED IMPRP ELECT VDW BOUNDARY MISC KINETIC TOTAL TEMP POTENTIAL TOTALAVG TEMPAVG PRESSURE GPRESSURE VOLUME PRESSAVG GPRESSAVG
ENERGY: 0 4.5896 6.5281 7.6653 0.0000 -10738.5527 1456.4862 0.0000 0.0000 1779.6368 -7483.6467 301.8382 -9263.2835 -7483.6467 301.8382 233.7948 328.7270 30144.5645 233.7948 328.7270
ENERGY: 300000 5.6070 2.8700 5.9649 0.0000 -10673.9084 1443.5863 0.0000 0.0000 1836.2813 -7379.5988 311.4455 -9215.8802 -7450.5308 304.5335 230.7519 262.4923 30577.8089 67.9318 135.2044
ENERGY: 600000 3.5261 1.2245 7.0090 0.0000 -10750.3983 1501.8813 0.0000 0.0000 1733.6118 -7503.1457 294.0321 -9236.7574 -7456.8838 302.6797 305.6542 360.6290 30843.7665 -13.5520 68.6866
ENERGY: 900000 3.6121 2.2598 6.2998 0.0000 -10805.3930 1557.4683 0.0000 0.0000 1775.2714 -7460.4816 301.0978 -9235.7529 -7469.3668 302.5234 870.4048 990.5774 30352.3848 -26.1299 45.0125
ENERGY: 1200000 4.0565 3.2849 5.6084 0.0000 -10669.1340 1384.2162 0.0000 0.0000 1778.3797 -7493.5884 301.6250 -9271.9681 -7475.1863 302.7241 -555.3961 -485.0533 30338.0020 -49.8945 15.8906
ENERGY: 1500000 5.6745 2.1172 7.4978 0.0000 -10835.8487 1547.1602 0.0000 0.0000 1776.2688 -7497.1302 301.2670 -9273.3990 -7466.8307 302.7425 785.7000 945.9224 30358.3516 -8.6263 65.8672
TCL: Running FEP window   7: Lambda1 0.3    Lambda2 0.35   [dLambda 0.04999999999999999]
TCL: Setting parameter firsttimestep to 0
TCL: Setting parameter alchLambda to 0.3
Info: NONBONDED TABLE R-SQUARED SPACING: 0.0625
Info: NONBONDED TABLE SIZE: 705 POINTS
TCL: Setting parameter alchLambda2 to 0.35
Info: NONBONDED TABLE R-SQUARED SPACING: 0.0625
Info: NONBONDED TABLE SIZE: 705 POINTS
TCL: Running for 1500000 steps
ETITLE: TS BOND ANGLE DIHED IMPRP ELECT VDW BOUNDARY MISC KINETIC TOTAL TEMP POTENTIAL TOTALAVG TEMPAVG PRESSURE GPRESSURE VOLUME PRESSAVG GPRESSAVG
ENERGY: 0 5.6746 2.1172 7.4978 0.0000 -10835.8497 1547.8178 0.0000 0.0000 1775.4031 -7497.3394 301.1202 -9272.7425 -7497.3394 301.1202 866.7263 954.6988 30358.3516 866.7263 954.6988
ENERGY: 300000 2.7749 3.8522 6.9006 0.0000 -10659.6211 1460.2249 0.0000 0.0000 1732.3578 -7453.5108 293.8194 -9185.8686 -7498.1360 297.1638 581.9851 583.5789 30280.7005 527.5819 575.4385
ENERGY: 600000 10.2262 4.3648 7.8998 0.0000 -10827.8178 1441.6724 0.0000 0.0000 1747.5768 -7616.0778 296.4006 -9363.6546 -7529.7046 297.7684 -713.9485 -667.6423 30419.3691 245.4222 296.4899
ENERGY: 900000 5.6871 1.8299 5.8894 0.0000 -10715.0392 1428.3574 0.0000 0.0000 1793.4377 -7479.8376 304.1789 -9273.2753 -7514.3784 298.9318 -283.5410 -195.6878 30267.8677 126.2382 180.9912
ENERGY: 1200000 7.7744 2.8085 7.2795 0.0000 -10541.3206 1359.5281 0.0000 0.0000 1757.2411 -7406.6890 298.0397 -9163.9301 -7504.6412 298.4630 -350.9448 -295.4026 30729.2870 94.8984 150.7194
ENERGY: 1500000 3.7124 2.5947 4.7961 0.0000 -10786.0386 1496.1812 0.0000 0.0000 1772.6794 -7506.0749 300.6582 -9278.7543 -7500.0002 299.3460 336.7472 361.4356 30456.3111 126.5409 173.3349
TCL: Running FEP window   8: Lambda1 0.35   Lambda2 0.39999999999999997 [dLambda 0.04999999999999999]
TCL: Setting parameter firsttimestep to 0
TCL: Setting parameter alchLambda to 0.35
Info: NONBONDED TABLE R-SQUARED SPACING: 0.0625
Info: NONBONDED TABLE SIZE: 705 POINTS
TCL: Setting parameter alchLambda2 to 0.39999999999999997
Info: NONBONDED TABLE R-SQUARED SPACING: 0.0625
Info: NONBONDED TABLE SIZE: 705 POINTS
TCL: Running for 1500000 steps
ETITLE: TS BOND ANGLE DIHED IMPRP ELECT VDW BOUNDARY MISC KINETIC TOTAL TEMP POTENTIAL TOTALAVG TEMPAVG PRESSURE GPRESSURE VOLUME PRESSAVG GPRESSAVG
ENERGY: 0 3.7124 2.5947 4.7961 0.0000 -10786.0373 1495.9246 0.0000 0.0000 1771.7826 -7507.2270 300.5061 -9279.0096 -7507.2270 300.5061 284.6120 365.5373 30456.3111 284.6120 365.5373
ENERGY: 300000 5.4470 1.7611 6.7761 0.0000 -10671.8286 1433.6749 0.0000 0.0000 1741.7582 -7482.4114 295.4137 -9224.1696 -7474.7365 296.8936 -29.7408 -0.9178 30496.0385 -244.3853 -205.6267
ENERGY: 600000 5.0099 3.7045 7.7308 0.0000 -10722.0034 1456.0931 0.0000 0.0000 1773.1920 -7476.2730 300.7451 -9249.4650 -7482.9507 297.4756 75.5745 170.8378 30215.5929 -30.4594 19.2129
ENERGY: 900000 4.5963 1.5771 6.2393 0.0000 -10612.9149 1427.2388 0.0000 0.0000 1759.6899 -7413.5734 298.4551 -9173.2633 -7478.4152 297.9403 115.4641 157.1335 30820.6612 13.2264 58.8701
ENERGY: 1200000 3.2628 5.0387 6.0990 0.0000 -10607.0034 1384.6560 0.0000 0.0000 1782.4040 -7425.5429 302.3076 -9207.9469 -7483.4450 298.6617 -322.4659 -286.5718 30642.0215 -67.6474 -23.8266
ENERGY: 1500000 4.5536 2.5232 8.6323 0.0000 -10764.5075 1481.9514 0.0000 0.0000 1846.2675 -7420.5796 313.1392 -9266.8471 -7487.7036 299.8585 433.4326 498.9518 30125.7978 -56.0696 -9.3396
TCL: Running FEP window   9: Lambda1 0.39999999999999997 Lambda2 0.44999999999999996 [dLambda 0.04999999999999999]
TCL: Setting parameter firsttimestep to 0
TCL: Setting parameter alchLambda to 0.39999999999999997
Info: NONBONDED TABLE R-SQUARED SPACING: 0.0625
Info: NONBONDED TABLE SIZE: 705 POINTS
TCL: Setting parameter alchLambda2 to 0.44999999999999996
Info: NONBONDED TABLE R-SQUARED SPACING: 0.0625
Info: NONBONDED TABLE SIZE: 705 POINTS
TCL: Running for 1500000 steps
ETITLE: TS BOND ANGLE DIHED IMPRP ELECT VDW BOUNDARY MISC KINETIC TOTAL TEMP POTENTIAL TOTALAVG TEMPAVG PRESSURE GPRESSURE VOLUME PRESSAVG GPRESSAVG
ENERGY: 0 4.5536 2.5232 8.6323 0.0000 -10764.5063 1482.2757 0.0000 0.0000 1845.3803 -7421.1412 312.9887 -9266.5215 -7421.1412 312.9887 429.5330 512.5452 30125.7978 429.5330 512.5452
ENERGY: 300000 4.2699 1.9140 7.1399 0.0000 -10691.4816 1447.1557 0.0000 0.0000 1743.1195 -7487.8825 295.6446 -9231.0020 -7460.2659 304.9258 170.4381 219.1515 30679.6811 245.4947 317.4822
ENERGY: 600000 3.6331 1.6110 5.8405 0.0000 -10701.2987 1471.5798 0.0000 0.0000 1726.2500 -7492.3843 292.7835 -9218.6343 -7488.2573 301.8821 351.8149 429.8316 30521.6688 270.8969 341.8905
ENERGY: 900000 6.3495 5.6316 6.0063 0.0000 -10727.4926 1419.9878 0.0000 0.0000 1807.3027 -7482.2146 306.5305 -9289.5173 -7475.4356 302.2093 -353.9823 -246.8432 30292.4185 105.6029 183.1038
ENERGY: 1200000 7.6458 4.1300 8.5088 0.0000 -10732.1038 1436.4950 0.0000 0.0000 1763.9040 -7511.4202 299.1698 -9275.3242 -7481.6926 301.9969 0.0070 -20.4534 30557.6098 53.7428 119.8677
ENERGY: 1500000 2.7279 3.4114 7.5964 0.0000 -10676.7530 1375.7131 0.0000 0.0000 1762.0757 -7525.2285 298.8597 -9287.3042 -7487.7637 301.6921 -691.0964 -565.4957 30794.6256 -42.2597 26.8057
TCL: Running FEP window  10: Lambda1 0.44999999999999996 Lambda2 0.49999999999999994 [dLambda 0.04999999999999999]
TCL: Setting parameter firsttimestep to 0
TCL: Setting parameter alchLambda to 0.44999999999999996
Info: NONBONDED TABLE R-SQUARED SPACING: 0.0625
Info: NONBONDED TABLE SIZE: 705 POINTS
TCL: Setting parameter alchLambda2 to 0.49999999999999994
Info: NONBONDED TABLE R-SQUARED SPACING: 0.0625
Info: NONBONDED TABLE SIZE: 705 POINTS
TCL: Running for 1500000 steps
ETITLE: TS BOND ANGLE DIHED IMPRP ELECT VDW BOUNDARY MISC KINETIC TOTAL TEMP POTENTIAL TOTALAVG TEMPAVG PRESSURE GPRESSURE VOLUME PRESSAVG GPRESSAVG
ENERGY: 0 2.7279 3.4114 7.5964 0.0000 -10676.7518 1375.6968 0.0000 0.0000 1761.2000 -7526.1192 298.7112 -9287.3193 -7526.1192 298.7112 -644.6170 -556.8132 30794.6256 -644.6170 -556.8132
ENERGY: 300000 7.1363 4.3547 6.1779 0.0000 -10831.0188 1528.3401 0.0000 0.0000 1748.8782 -7536.1317 296.6213 -9285.0098 -7509.8275 299.2382 663.5579 733.9004 30405.6378 -309.1258 -236.3679
ENERGY: 600000 4.5977 3.6722 5.3460 0.0000 -10799.0673 1490.3272 0.0000 0.0000 1704.9627 -7590.1615 289.1730 -9295.1242 -7521.6886 296.7530 237.4837 314.0394 30245.7880 -121.6526 -49.2271
ENERGY: 900000 5.9115 2.2286 6.1058 0.0000 -10677.9168 1422.2108 0.0000 0.0000 1806.5305 -7434.9296 306.3996 -9241.4601 -7525.4362 297.8868 -195.1980 -142.2225 30696.5550 -4.8713 64.6457
ENERGY: 1200000 4.4542 2.3360 9.5320 0.0000 -10707.1998 1417.5528 0.0000 0.0000 1797.7669 -7475.5580 304.9132 -9273.3248 -7502.4972 299.9978 -272.3899 -207.5246 30585.5602 -66.0506 5.9932
ENERGY: 1500000 4.8255 3.3643 6.8734 0.0000 -10726.4652 1512.8167 0.0000 0.0000 1754.5508 -7444.0346 297.5835 -9198.5853 -7498.3046 299.3595 370.9413 449.3165 31249.8961 -23.3833 55.3122
TCL: Running FEP window  11: Lambda1 0.49999999999999994 Lambda2 0.5499999999999999 [dLambda 0.04999999999999999]
TCL: Setting parameter firsttimestep to 0
TCL: Setting parameter alchLambda to 0.49999999999999994
Info: NONBONDED TABLE R-SQUARED SPACING: 0.0625
Info: NONBONDED TABLE SIZE: 705 POINTS
TCL: Setting parameter alchLambda2 to 0.5499999999999999
Info: NONBONDED TABLE R-SQUARED SPACING: 0.0625
Info: NONBONDED TABLE SIZE: 705 POINTS
TCL: Running for 1500000 steps
ETITLE: TS BOND ANGLE DIHED IMPRP ELECT VDW BOUNDARY MISC KINETIC TOTAL TEMP POTENTIAL TOTALAVG TEMPAVG PRESSURE GPRESSURE VOLUME PRESSAVG GPRESSAVG
ENERGY: 0 4.8255 3.3643 6.8734 0.0000 -10726.4654 1512.1023 0.0000 0.0000 1753.6418 -7445.6580 297.4293 -9199.2999 -7445.6580 297.4293 367.8213 449.2427 31249.8961 367.8213 449.2427
ENERGY: 300000 5.4750 3.3157 7.8316 0.0000 -10944.4339 1590.7948 0.0000 0.0000 1766.9303 -7570.0865 299.6831 -9337.0168 -7533.8664 299.0695 789.1345 824.3068 30455.2566 298.4409 366.9353
ENERGY: 600000 6.2614 4.6385 11.3609 0.0000 -10579.0674 1344.5136 0.0000 0.0000 1768.4535 -7443.8395 299.9415 -9212.2931 -7508.1174 301.9866 -822.7616 -759.5473 30736.1172 95.5799 157.8933
ENERGY: 900000 4.2083 4.8157 6.1151 0.0000 -10782.5544 1462.2528 0.0000 0.0000 1784.8902 -7520.2722 302.7292 -9305.1625 -7511.0948 301.2789 -59.1534 -17.2621 30767.6263 10.4713 72.4558
ENERGY: 1200000 3.9567 3.2848 6.8523 0.0000 -10652.2134 1323.4058 0.0000 0.0000 1768.6588 -7546.0549 299.9763 -9314.7137 -7515.5867 301.0633 -1489.4383 -1386.0835 31009.0129 -189.2518 -122.1765
ENERGY: 1500000 6.7989 3.0455 7.3427 0.0000 -10720.6190 1443.6482 0.0000 0.0000 1742.2916 -7517.4920 295.5042 -9259.7836 -7521.0746 300.0493 -271.3889 -190.8504 30854.1851 -221.2562 -151.1897
TCL: Running FEP window  12: Lambda1 0.5499999999999999 Lambda2 0.6    [dLambda 0.050000000000000044]
TCL: Setting parameter firsttimestep to 0
TCL: Setting parameter alchLambda to 0.5499999999999999
Info: NONBONDED TABLE R-SQUARED SPACING: 0.0625
Info: NONBONDED TABLE SIZE: 705 POINTS
TCL: Setting parameter alchLambda2 to 0.6
Info: NONBONDED TABLE R-SQUARED SPACING: 0.0625
Info: NONBONDED TABLE SIZE: 705 POINTS
TCL: Running for 1500000 steps
ETITLE: TS BOND ANGLE DIHED IMPRP ELECT VDW BOUNDARY MISC KINETIC TOTAL TEMP POTENTIAL TOTALAVG TEMPAVG PRESSURE GPRESSURE VOLUME PRESSAVG GPRESSAVG
ENERGY: 0 6.7989 3.0455 7.3427 0.0000 -10720.8288 1442.9675 0.0000 0.0000 1741.4074 -7519.2667 295.3543 -9260.6741 -7519.2667 295.3543 -275.3962 -187.8312 30854.1851 -275.3962 -187.8312
ENERGY: 300000 6.1446 3.6564 4.2235 0.0000 -10816.0376 1555.7936 0.0000 0.0000 1730.8549 -7515.3646 293.5645 -9246.2196 -7524.0357 294.6841 930.6071 991.9522 30159.2854 -270.2679 -217.0757
ENERGY: 600000 4.1798 3.8460 6.9818 0.0000 -10649.0203 1383.3166 0.0000 0.0000 1740.3660 -7510.3300 295.1776 -9250.6960 -7507.1987 295.4744 -592.5755 -530.8884 30805.4445 -232.6712 -175.1363
ENERGY: 900000 4.2392 3.8515 8.0268 0.0000 -10776.4689 1439.3262 0.0000 0.0000 1784.9350 -7536.0902 302.7368 -9321.0253 -7509.1086 297.3282 -87.0957 -47.2564 30257.6304 -157.7632 -105.8073
ENERGY: 1200000 3.3332 2.7131 7.4947 0.0000 -10714.2257 1496.6372 0.0000 0.0000 1738.7347 -7465.3129 294.9009 -9204.0475 -7497.4655 298.4925 496.4866 577.2430 30507.5128 -77.5706 -22.3416
ENERGY: 1500000 5.4107 2.0007 6.9885 0.0000 -10790.9294 1477.0187 0.0000 0.0000 1817.6840 -7481.8268 308.2913 -9299.5108 -7492.4653 299.4907 -117.9343 -88.7158 30990.7671 -61.7340 -15.5757
TCL: Running FEP window  13: Lambda1 0.6    Lambda2 0.65   [dLambda 0.050000000000000044]
TCL: Setting parameter firsttimestep to 0
TCL: Setting parameter alchLambda to 0.6
Info: NONBONDED TABLE R-SQUARED SPACING: 0.0625
Info: NONBONDED TABLE SIZE: 705 POINTS
TCL: Setting parameter alchLambda2 to 0.65
Info: NONBONDED TABLE R-SQUARED SPACING: 0.0625
Info: NONBONDED TABLE SIZE: 705 POINTS
TCL: Running for 1500000 steps
ETITLE: TS BOND ANGLE DIHED IMPRP ELECT VDW BOUNDARY MISC KINETIC TOTAL TEMP POTENTIAL TOTALAVG TEMPAVG PRESSURE GPRESSURE VOLUME PRESSAVG GPRESSAVG
ENERGY: 0 5.4107 2.0007 6.9885 0.0000 -10791.0690 1476.2578 0.0000 0.0000 1816.7809 -7483.6303 308.1381 -9300.4112 -7483.6303 308.1381 -166.4300 -87.6080 30990.7671 -166.4300 -87.6080
ENERGY: 300000 4.0799 2.5827 5.4886 0.0000 -10581.0596 1364.8037 0.0000 0.0000 1768.3334 -7435.7714 299.9211 -9204.1048 -7472.6385 305.4520 -705.2101 -609.4230 31038.2885 -214.0184 -143.8612
ENERGY: 600000 6.0333 3.5963 6.6670 0.0000 -10754.2047 1457.9877 0.0000 0.0000 1752.8104 -7527.1101 297.2883 -9279.9205 -7470.3399 302.8137 211.7817 212.7176 30511.6402 -110.4002 -44.3884
ENERGY: 900000 5.8782 4.0616 6.7123 0.0000 -10780.0283 1452.2365 0.0000 0.0000 1782.8027 -7528.3371 302.3752 -9311.1398 -7484.6539 301.9565 -121.7291 33.1314 30328.2029 73.3276 151.5229
ENERGY: 1200000 2.7864 2.7999 8.0227 0.0000 -10847.7904 1510.7494 0.0000 0.0000 1739.0159 -7584.4161 294.9486 -9323.4320 -7498.5751 301.1719 256.9525 291.5661 30623.8513 117.9798 194.3654
ENERGY: 1500000 2.5143 5.7773 7.0383 0.0000 -10813.4596 1511.3726 0.0000 0.0000 1821.5356 -7465.2215 308.9445 -9286.7571 -7495.7104 301.9067 515.2146 502.7501 30609.5730 92.1022 157.0221
TCL: Running FEP window  14: Lambda1 0.65   Lambda2 0.7000000000000001 [dLambda 0.050000000000000044]
TCL: Setting parameter firsttimestep to 0
TCL: Setting parameter alchLambda to 0.65
Info: NONBONDED TABLE R-SQUARED SPACING: 0.0625
Info: NONBONDED TABLE SIZE: 705 POINTS
TCL: Setting parameter alchLambda2 to 0.7000000000000001
Info: NONBONDED TABLE R-SQUARED SPACING: 0.0625
Info: NONBONDED TABLE SIZE: 705 POINTS
TCL: Running for 1500000 steps
ETITLE: TS BOND ANGLE DIHED IMPRP ELECT VDW BOUNDARY MISC KINETIC TOTAL TEMP POTENTIAL TOTALAVG TEMPAVG PRESSURE GPRESSURE VOLUME PRESSAVG GPRESSAVG
ENERGY: 0 2.5143 5.7773 7.0383 0.0000 -10813.6113 1511.5318 0.0000 0.0000 1820.6330 -7466.1166 308.7914 -9286.7495 -7466.1166 308.7914 446.3078 516.8508 30609.5730 446.3078 516.8508
ENERGY: 300000 1.6525 5.2238 6.9295 0.0000 -10753.9879 1434.4330 0.0000 0.0000 1714.8348 -7590.9144 290.8474 -9305.7491 -7549.8851 296.6013 -46.5488 35.7207 30300.9502 23.3377 95.0999
ENERGY: 600000 3.3232 4.5415 7.7083 0.0000 -10907.9627 1550.9048 0.0000 0.0000 1771.2973 -7570.1876 300.4238 -9341.4849 -7534.0421 299.1403 998.2067 963.2605 29863.9127 -27.3116 27.7461
ENERGY: 900000 4.1595 3.6648 6.2789 0.0000 -10596.9551 1392.2715 0.0000 0.0000 1765.8741 -7424.7062 299.5040 -9190.5803 -7508.2955 299.2119 -192.0224 -85.2504 30657.6770 -87.6989 -39.8328
ENERGY: 1200000 3.3093 2.6353 7.0979 0.0000 -10877.8830 1557.2388 0.0000 0.0000 1771.2877 -7536.3141 300.4221 -9307.6018 -7505.0616 298.8403 1130.8139 1127.4771 30353.2611 61.7825 105.8668
ENERGY: 1500000 5.9684 1.5253 6.3851 0.0000 -10585.9898 1376.4828 0.0000 0.0000 1768.6309 -7426.9974 299.9715 -9195.6283 -7498.8073 298.3001 -606.8413 -572.3032 31200.5663 -89.1342 -36.8945
TCL: Running FEP window  15: Lambda1 0.7000000000000001 Lambda2 0.7500000000000001 [dLambda 0.050000000000000044]
TCL: Setting parameter firsttimestep to 0
TCL: Setting parameter alchLambda to 0.7000000000000001
Info: NONBONDED TABLE R-SQUARED SPACING: 0.0625
Info: NONBONDED TABLE SIZE: 705 POINTS
TCL: Setting parameter alchLambda2 to 0.7500000000000001
Info: NONBONDED TABLE R-SQUARED SPACING: 0.0625
Info: NONBONDED TABLE SIZE: 705 POINTS
TCL: Running for 1500000 steps
ETITLE: TS BOND ANGLE DIHED IMPRP ELECT VDW BOUNDARY MISC KINETIC TOTAL TEMP POTENTIAL TOTALAVG TEMPAVG PRESSURE GPRESSURE VOLUME PRESSAVG GPRESSAVG
ENERGY: 0 5.9684 1.5253 6.3851 0.0000 -10586.0207 1376.4860 0.0000 0.0000 1767.7241 -7427.9319 299.8177 -9195.6560 -7427.9319 299.8177 -637.8528 -561.0442 31200.5663 -637.8528 -561.0442
ENERGY: 300000 3.4021 2.2962 7.8432 0.0000 -10619.8289 1397.8202 0.0000 0.0000 1757.2940 -7451.1732 298.0487 -9208.4673 -7471.7007 298.6967 -181.7226 -173.2449 30698.7134 -232.8981 -177.4459
ENERGY: 600000 3.5014 3.5949 6.2990 0.0000 -10648.9019 1380.8261 0.0000 0.0000 1759.0085 -7495.6720 298.3395 -9254.6805 -7500.0784 300.6347 -140.5305 -57.4218 30352.0394 40.4278 89.4034
ENERGY: 900000 3.5883 1.8942 5.6066 0.0000 -10675.0658 1400.8836 0.0000 0.0000 1741.6257 -7521.4673 295.3913 -9263.0931 -7505.2412 299.5746 -195.9705 -126.4517 30543.5072 54.9298 106.8114
ENERGY: 1200000 4.1968 1.9688 6.1024 0.0000 -10667.5270 1481.2619 0.0000 0.0000 1848.7475 -7325.2496 313.5598 -9173.9971 -7484.1489 301.6838 994.0158 1033.2270 30568.0271 59.7718 118.3706
ENERGY: 1500000 3.6223 2.5138 7.8164 0.0000 -10680.1760 1375.9135 0.0000 0.0000 1775.2647 -7515.0452 301.0967 -9290.3099 -7490.7246 301.7167 -650.4485 -563.4264 30910.8829 25.1340 85.8374
TCL: Running FEP window  16: Lambda1 0.7500000000000001 Lambda2 0.8000000000000002 [dLambda 0.050000000000000044]
TCL: Setting parameter firsttimestep to 0
TCL: Setting parameter alchLambda to 0.7500000000000001
Info: NONBONDED TABLE R-SQUARED SPACING: 0.0625
Info: NONBONDED TABLE SIZE: 705 POINTS
TCL: Setting parameter alchLambda2 to 0.8000000000000002
Info: NONBONDED TABLE R-SQUARED SPACING: 0.0625
Info: NONBONDED TABLE SIZE: 705 POINTS
TCL: Running for 1500000 steps
ETITLE: TS BOND ANGLE DIHED IMPRP ELECT VDW BOUNDARY MISC KINETIC TOTAL TEMP POTENTIAL TOTALAVG TEMPAVG PRESSURE GPRESSURE VOLUME PRESSAVG GPRESSAVG
ENERGY: 0 3.6223 2.5138 7.8164 0.0000 -10680.4681 1375.3541 0.0000 0.0000 1774.4116 -7516.7498 300.9520 -9291.1614 -7516.7498 300.9520 -643.6650 -559.6514 30910.8829 -643.6650 -559.6514
ENERGY: 300000 5.1010 3.4734 8.4971 0.0000 -10555.8039 1316.3642 0.0000 0.0000 1763.2458 -7459.1224 299.0582 -9222.3683 -7515.4086 300.9455 -975.2830 -944.6314 30971.6964 -465.3962 -398.1689
ENERGY: 600000 5.5757 3.0716 7.0967 0.0000 -10800.2588 1512.2466 0.0000 0.0000 1805.8486 -7466.4195 306.2839 -9272.2682 -7496.4384 302.1843 551.6544 586.3607 30447.3353 -171.0922 -117.3865
ENERGY: 900000 3.0995 3.8935 6.8357 0.0000 -10673.7553 1412.1385 0.0000 0.0000 1756.7787 -7491.0094 297.9613 -9247.7881 -7496.8032 301.3187 -249.4275 -124.3129 30433.9640 -104.4429 -31.0015
ENERGY: 1200000 3.0342 1.7960 4.7981 0.0000 -10593.2697 1389.4987 0.0000 0.0000 1804.0497 -7390.0930 305.9788 -9194.1427 -7489.8923 301.5089 -517.4863 -436.2425 30890.2293 -61.4085 8.8481
ENERGY: 1500000 3.1644 4.5399 6.5384 0.0000 -10743.6901 1448.8467 0.0000 0.0000 1803.4287 -7477.1719 305.8735 -9280.6006 -7485.2078 302.5314 314.5315 350.5884 30263.3486 -4.9254 63.0963
TCL: Running FEP window  17: Lambda1 0.8000000000000002 Lambda2 0.8500000000000002 [dLambda 0.050000000000000044]
TCL: Setting parameter firsttimestep to 0
TCL: Setting parameter alchLambda to 0.8000000000000002
Info: NONBONDED TABLE R-SQUARED SPACING: 0.0625
Info: NONBONDED TABLE SIZE: 705 POINTS
TCL: Setting parameter alchLambda2 to 0.8500000000000002
Info: NONBONDED TABLE R-SQUARED SPACING: 0.0625
Info: NONBONDED TABLE SIZE: 705 POINTS
TCL: Running for 1500000 steps
ETITLE: TS BOND ANGLE DIHED IMPRP ELECT VDW BOUNDARY MISC KINETIC TOTAL TEMP POTENTIAL TOTALAVG TEMPAVG PRESSURE GPRESSURE VOLUME PRESSAVG GPRESSAVG
ENERGY: 0 3.1644 4.5399 6.5384 0.0000 -10743.6173 1448.0675 0.0000 0.0000 1802.5564 -7478.7506 305.7255 -9281.3070 -7478.7506 305.7255 276.0703 357.3344 30263.3486 276.0703 357.3344
ENERGY: 300000 5.8172 2.3035 6.5250 0.0000 -10714.8803 1433.9642 0.0000 0.0000 1761.6290 -7504.6414 298.7840 -9266.2704 -7481.2459 301.1987 -40.4669 47.0576 30471.6246 270.3543 349.4748
ENERGY: 600000 5.0818 2.2186 6.7267 0.0000 -10696.2222 1408.5424 0.0000 0.0000 1834.4265 -7439.2262 311.1309 -9273.6527 -7480.1171 303.1483 -122.8560 -55.7885 30628.4351 -78.8398 -4.1234
ENERGY: 900000 1.7717 2.7945 7.6175 0.0000 -10601.4031 1424.6775 0.0000 0.0000 1783.9607 -7380.5812 302.5716 -9164.5420 -7466.6880 302.2321 253.1680 319.1824 30748.9799 18.2642 92.1093
ENERGY: 1200000 6.6431 2.0445 5.9558 0.0000 -10666.0639 1406.6956 0.0000 0.0000 1737.9176 -7506.8073 294.7624 -9244.7249 -7477.0577 301.2074 -539.8757 -496.8236 30915.5339 -31.1809 32.5452
ENERGY: 1500000 3.8392 0.8703 5.3494 0.0000 -10685.1460 1425.6735 0.0000 0.0000 1792.0143 -7457.3993 303.9375 -9249.4136 -7475.2116 300.7634 263.5083 339.8240 30127.4902 -57.5450 7.3952
TCL: Running FEP window  18: Lambda1 0.8500000000000002 Lambda2 0.9000000000000002 [dLambda 0.050000000000000044]
TCL: Setting parameter firsttimestep to 0
TCL: Setting parameter alchLambda to 0.8500000000000002
Info: NONBONDED TABLE R-SQUARED SPACING: 0.0625
Info: NONBONDED TABLE SIZE: 705 POINTS
TCL: Setting parameter alchLambda2 to 0.9000000000000002
Info: NONBONDED TABLE R-SQUARED SPACING: 0.0625
Info: NONBONDED TABLE SIZE: 705 POINTS
TCL: Running for 1500000 steps
ETITLE: TS BOND ANGLE DIHED IMPRP ELECT VDW BOUNDARY MISC KINETIC TOTAL TEMP POTENTIAL TOTALAVG TEMPAVG PRESSURE GPRESSURE VOLUME PRESSAVG GPRESSAVG
ENERGY: 0 3.8392 0.8703 5.3494 0.0000 -10685.2298 1425.1608 0.0000 0.0000 1791.1336 -7458.8765 303.7882 -9250.0101 -7458.8765 303.7882 257.4901 348.7436 30127.4902 257.4901 348.7436
ENERGY: 300000 4.2060 4.8630 6.6309 0.0000 -10829.9809 1460.5497 0.0000 0.0000 1742.7080 -7611.0234 295.5748 -9353.7314 -7545.2694 298.2282 -120.1039 -87.8478 31071.9198 -155.1385 -101.2392
ENERGY: 600000 5.4269 1.5843 7.7285 0.0000 -10674.8189 1446.5369 0.0000 0.0000 1737.9119 -7475.6304 294.7614 -9213.5423 -7505.2399 298.1529 -22.1390 -1.6055 30906.1899 -188.2832 -136.3512
ENERGY: 900000 5.1551 1.4364 6.9591 0.0000 -10613.4098 1391.0593 0.0000 0.0000 1788.1745 -7420.6255 303.2863 -9208.7999 -7500.6372 298.3702 -554.4073 -488.0582 31077.4720 -155.4021 -96.8069
ENERGY: 1200000 5.7687 3.3966 8.6509 0.0000 -10597.5334 1359.3684 0.0000 0.0000 1747.3033 -7473.0455 296.3542 -9220.3488 -7497.9951 298.2762 -665.8799 -695.1907 31163.8504 -216.6592 -161.2223
ENERGY: 1500000 5.1378 1.6952 7.4083 0.0000 -10677.0402 1365.5369 0.0000 0.0000 1776.2023 -7521.0596 301.2557 -9297.2619 -7497.6556 297.8808 -435.3803 -383.4588 30161.9386 -242.0127 -182.1602
TCL: Running FEP window  19: Lambda1 0.9000000000000002 Lambda2 0.9500000000000003 [dLambda 0.050000000000000044]
TCL: Setting parameter firsttimestep to 0
TCL: Setting parameter alchLambda to 0.9000000000000002
Info: NONBONDED TABLE R-SQUARED SPACING: 0.0625
Info: NONBONDED TABLE SIZE: 705 POINTS
TCL: Setting parameter alchLambda2 to 0.9500000000000003
Info: NONBONDED TABLE R-SQUARED SPACING: 0.0625
Info: NONBONDED TABLE SIZE: 705 POINTS
TCL: Running for 1500000 steps
ETITLE: TS BOND ANGLE DIHED IMPRP ELECT VDW BOUNDARY MISC KINETIC TOTAL TEMP POTENTIAL TOTALAVG TEMPAVG PRESSURE GPRESSURE VOLUME PRESSAVG GPRESSAVG
ENERGY: 0 5.1378 1.6952 7.4083 0.0000 -10677.0457 1365.7262 0.0000 0.0000 1775.3445 -7521.7336 301.1102 -9297.0782 -7521.7336 301.1102 -429.5498 -363.5022 30161.9386 -429.5498 -363.5022
ENERGY: 300000 5.0120 3.2169 7.8289 0.0000 -10745.2395 1482.5991 0.0000 0.0000 1708.8588 -7537.7238 289.8338 -9246.5825 -7553.0262 294.0560 394.7922 451.2174 30301.1433 -84.8982 -24.6044
ENERGY: 600000 4.3519 2.6862 3.9222 0.0000 -10842.8783 1547.3961 0.0000 0.0000 1769.3548 -7515.1672 300.0943 -9284.5219 -7559.1880 294.6420 1050.3322 1079.4877 30444.7122 35.1903 95.2826
ENERGY: 900000 4.0697 1.1903 7.6279 0.0000 -10740.6398 1459.6507 0.0000 0.0000 1760.2981 -7507.8030 298.5582 -9268.1011 -7553.7807 295.7674 90.4363 202.5214 30842.2068 193.0853 265.5283
ENERGY: 1200000 4.2277 2.1717 7.3522 0.0000 -10814.5605 1439.6079 0.0000 0.0000 1801.2541 -7559.9470 305.5046 -9361.2010 -7549.3717 297.5825 39.8403 92.1728 29900.8805 69.2533 129.6868
ENERGY: 1500000 4.5922 3.1718 9.1383 0.0000 -10611.3625 1429.4500 0.0000 0.0000 1806.8324 -7358.1777 306.4508 -9165.0101 -7530.8239 298.0253 173.3006 208.8505 30865.1130 27.3233 88.2509
TCL: Running FEP window  20: Lambda1 0.9500000000000003 Lambda2 1.0    [dLambda 0.04999999999999971]
TCL: Setting parameter firsttimestep to 0
TCL: Setting parameter alchLambda to 0.9500000000000003
Info: NONBONDED TABLE R-SQUARED SPACING: 0.0625
Info: NONBONDED TABLE SIZE: 705 POINTS
TCL: Setting parameter alchLambda2 to 1.0
Info: NONBONDED TABLE R-SQUARED SPACING: 0.0625
Info: NONBONDED TABLE SIZE: 705 POINTS
TCL: Running for 1500000 steps
ETITLE: TS BOND ANGLE DIHED IMPRP ELECT VDW BOUNDARY MISC KINETIC TOTAL TEMP POTENTIAL TOTALAVG TEMPAVG PRESSURE GPRESSURE VOLUME PRESSAVG GPRESSAVG
ENERGY: 0 4.5922 3.1719 9.1383 0.0000 -10611.4873 1429.5032 0.0000 0.0000 1805.9454 -7359.1363 306.3003 -9165.0817 -7359.1363 306.3003 152.1010 225.9915 30865.1130 152.1010 225.9915
ENERGY: 300000 2.2195 2.1573 7.0254 0.0000 -10719.8999 1392.7888 0.0000 0.0000 1738.8700 -7576.8389 294.9239 -9315.7089 -7468.9832 300.2667 -492.1629 -345.3246 30719.8730 0.9023 111.9996
ENERGY: 600000 2.4458 2.8321 8.3981 0.0000 -10758.0182 1474.0445 0.0000 0.0000 1769.2247 -7501.0730 300.0722 -9270.2977 -7466.9732 299.6106 203.9550 279.2349 30725.3918 4.1899 102.7455
ENERGY: 900000 6.3520 4.1115 6.5666 0.0000 -10806.7603 1463.8711 0.0000 0.0000 1732.7172 -7593.1418 293.8803 -9325.8590 -7487.0444 299.4413 65.7798 167.8122 30566.0740 37.2689 132.2887
ENERGY: 1200000 3.4815 2.7030 6.4213 0.0000 -10565.8323 1342.3103 0.0000 0.0000 1743.3872 -7467.5291 295.6900 -9210.9162 -7489.8182 299.0088 -396.6172 -335.2165 30442.4792 -30.4871 57.9850
ENERGY: 1500000 5.3040 2.9646 6.4818 0.0000 -10542.1935 1291.6536 0.0000 0.0000 1756.2729 -7479.5166 297.8755 -9235.7896 -7485.0484 299.8859 -1177.6233 -1101.1135 30729.1922 -46.3490 36.4036
TCL: Exiting due to exit command.
