Info: SIMULATION PARAMETERS:
Info: TIMESTEP               2
Info: NUMBER OF STEPS        0
Info: STEPS PER CYCLE        10
Info: PERIODIC CELL BASIS 1  30.92 0 0
Info: PERIODIC CELL BASIS 2  0 31.6209 0
Info: PERIODIC CELL BASIS 3  0 0 31.6889
Info: PERIODIC CELL CENTER   0 0 0
Info: WRAPPING WATERS AROUND PERIODIC BOUNDARIES ON OUTPUT.
Info: WRAPPING ALL CLUSTERS AROUND PERIODIC BOUNDARIES ON OUTPUT.
Info: FIRST LDB TIMESTEP     50
Info: LAST LDB TIMESTEP     -1
Info: HOM BACKGROUND SCALING 1
Info: PME BACKGROUND SCALING 1
Info: MIN ATOMS PER PATCH    40
Info: EMPTY PATCH LOAD       40 ATOMS
Info: VELOCITY FILE          mobley_2294995_equil.vel
Info: CENTER OF MASS MOVING INITIALLY? NO
Info: DIELECTRIC             1
Info: EXCLUDE                SCALED ONE-FOUR
Info: 1-4 ELECTROSTATICS SCALED BY 0.833333
Info: MODIFIED 1-4 VDW PARAMETERS WILL BE USED
Info: DCD FILENAME           mobley_2294995_prod.dcd
Info: DCD FREQUENCY          100000
Info: DCD FIRST STEP         100000
Info: DCD FILE WILL CONTAIN UNIT CELL DATA
Info: XST FILENAME           mobley_2294995_prod.xst
Info: XST FREQUENCY          100000
Info: NO VELOCITY DCD OUTPUT
Info: NO FORCE DCD OUTPUT
Info: OUTPUT FILENAME        mobley_2294995_prod
Info: BINARY OUTPUT FILES WILL BE USED
Info: RESTART FILENAME       mobley_2294995_prod.restart
Info: RESTART FREQUENCY      100000
Info: BINARY RESTART FILES WILL BE USED
Info: CUTOFF                 9
Info: PAIRLIST DISTANCE      11
Info: PAIRLIST SHRINK RATE   0.01
Info: PAIRLIST GROW RATE     0.01
Info: PAIRLIST TRIGGER       0.3
Info: PAIRLISTS PER CYCLE    2
Info: PAIRLISTS ENABLED
Info: MARGIN                 2
Info: HYDROGEN GROUP CUTOFF  2.5
Info: PATCH DIMENSION        15.5
Info: ENERGY OUTPUT STEPS    100000
Info: ENERGY EVALUATION STEPS    100000
Info: OUTPUT ENERGY PRECISION 4
Info: CROSSTERM ENERGY INCLUDED IN DIHEDRAL
Info: TIMING OUTPUT STEPS    1000000
Info: PRESSURE OUTPUT STEPS  100000
Info: ALCHEMICAL FEP ON
Info: FEP CURRENT LAMBDA VALUE     1
Info: FEP COMPARISON LAMBDA VALUE  0.95
Info: FEP INTRA-ALCHEMICAL NON-BONDED INTERACTIONS WILL BE RETAINED
Info: FEP INTRA-ALCHEMICAL BONDED INTERACTIONS WILL BE RETAINED
Info: FEP VDW SHIFTING COEFFICIENT 5
Info: FEP ELEC. ACTIVE FOR ANNIHILATED PARTICLES BETWEEN LAMBDA = 0 AND LAMBDA = 0.5
Info: FEP ELEC. ACTIVE FOR EXNIHILATED PARTICLES BETWEEN LAMBDA = 0.5 AND LAMBDA = 1
Info: FEP VDW ACTIVE FOR ANNIHILATED PARTICLES BETWEEN LAMBDA = 0 AND LAMBDA = 1
Info: FEP VDW ACTIVE FOR EXNIHILATED PARTICLES BETWEEN LAMBDA = 0 AND LAMBDA = 1
Info: FEP BOND ACTIVE FOR ANNIHILATED PARTICLES BETWEEN LAMBDA = 1 AND LAMBDA = 1
Info: FEP BOND ACTIVE FOR EXNIHILATED PARTICLES BETWEEN LAMBDA = 0 AND LAMBDA = 0
Info: LANGEVIN DYNAMICS ACTIVE
Info: LANGEVIN TEMPERATURE   300
Info: LANGEVIN USING BBK INTEGRATOR
Info: LANGEVIN DAMPING COEFFICIENT IS 1 INVERSE PS
Info: LANGEVIN DYNAMICS APPLIED TO HYDROGENS
Info: LANGEVIN PISTON PRESSURE CONTROL ACTIVE
Info:        TARGET PRESSURE IS 1.01325 BAR
Info:     OSCILLATION PERIOD IS 50 FS
Info:             DECAY TIME IS 25 FS
Info:     PISTON TEMPERATURE IS 300 K
Info:       PRESSURE CONTROL IS GROUP-BASED
Info:    INITIAL STRAIN RATE IS -0.000430929 -0.000430929 -0.000430929
Info:       CELL FLUCTUATION IS ISOTROPIC
Info: PARTICLE MESH EWALD (PME) ACTIVE
Info: PME TOLERANCE               1e-06
Info: PME EWALD COEFFICIENT       0.348832
Info: PME INTERPOLATION ORDER     4
Info: PME GRID DIMENSIONS         32 32 32
Info: PME MAXIMUM GRID SPACING    1
Info: PME CALCULATION WILL BE PERFORMED ON GPU
Info: FULL ELECTROSTATIC EVALUATION FREQUENCY      2
Info: USING VERLET I (r-RESPA) MTS SCHEME.
Info: C1 SPLITTING OF LONG RANGE ELECTROSTATICS
Info: PLACING ATOMS IN PATCHES BY HYDROGEN GROUPS
Info: RIGID BONDS TO HYDROGEN : ALL
Info:         ERROR TOLERANCE : 1e-08
Info:          MAX ITERATIONS : 100
Info: RIGID WATER USING SETTLE ALGORITHM
Info: RANDOM NUMBER SEED     1743821398
Info: USE HYDROGEN BONDS?    NO
Info: Using AMBER format force field!
Info: AMBER PARM FILE        mobley_2294995.prmtop
Info: COORDINATE PDB         mobley_2294995.pdb
Info: Exclusions will be read from PARM file!
Info: SCNB (VDW SCALING)     2
Info: USING ARITHMETIC MEAN TO COMBINE L-J SIGMA PARAMETERS
Info: BINARY COORDINATES     mobley_2294995_equil.coor
Info: SUMMARY OF PARAMETERS:
Info: 9 BONDS
Info: 10 ANGLES
Info:   10 HARMONIC
Info:   0 COSINE-BASED
Info: 9 DIHEDRAL
Info: 0 IMPROPER
Info: 0 CROSSTERM
Info: 0 VDW
Info: 45 VDW_PAIRS
Info: 0 NBTHOLE_PAIRS
Info: To read alchdata from file: mobley_2294995.pdb
Info: To read alchflag data from column: 5
Info: STRUCTURE SUMMARY:
Info: 2999 ATOMS
Info: 2998 BONDS
Info: 16 ANGLES
Info: 20 DIHEDRALS
Info: 0 IMPROPERS
Info: 0 CROSSTERMS
Info: 3028 EXCLUSIONS
Info: 2994 RIGID BONDS
Info: ALCH: 0 ATOMS TO DISAPPEAR IN FINAL STATE
Info: ALCH: 11 ATOMS TO APPEAR IN FINAL STATE
Info: 6003 DEGREES OF FREEDOM
Info: 1001 HYDROGEN GROUPS
Info: 4 ATOMS IN LARGEST HYDROGEN GROUP
Info: 1001 MIGRATION GROUPS
Info: 4 ATOMS IN LARGEST MIGRATION GROUP
Info: TOTAL MASS = 18018 amu
Info: TOTAL CHARGE = 0.000200029 e
Info: MASS DENSITY = 0.965707 g/cm^3
Info: ATOM DENSITY = 0.0967956 atoms/A^3
Info: ADDED 0 IMPLICIT EXCLUSIONS
Info: NONBONDED TABLE R-SQUARED SPACING: 0.0625
Info: NONBONDED TABLE SIZE: 705 POINTS
Info: REMOVING COM VELOCITY 0.028327 -0.124978 0.101639
Info: Use 3D box decompostion in PME FFT.
Info: Updated CUDA force table with 4096 elements.
Info: Updated CUDA LJ table with 9 x 9 elements.
Info: Found 14 unique exclusion lists needing 24 bytes
TCL: Running for 1500000 steps
ETITLE: TS BOND ANGLE DIHED IMPRP ELECT VDW BOUNDARY MISC KINETIC TOTAL TEMP POTENTIAL TOTALAVG TEMPAVG PRESSURE GPRESSURE VOLUME PRESSAVG GPRESSAVG
ENERGY: 0 1.2150 3.5809 2.2054 0.0000 -10895.4066 1524.7472 0.0000 0.0000 1752.3565 -7611.3015 293.7951 -9363.6580 -7611.3015 293.7951 539.0696 627.6290 30982.8078 539.0696 627.6290
ENERGY: 300000 2.0008 2.2029 4.2173 0.0000 -10945.0197 1466.4048 0.0000 0.0000 1842.5485 -7627.6454 308.9164 -9470.1939 -7630.7063 301.1744 55.1691 98.2866 30683.4348 313.4819 395.9630
ENERGY: 600000 0.5455 5.3518 3.8922 0.0000 -10935.3453 1467.3958 0.0000 0.0000 1793.4153 -7664.7447 300.6789 -9458.1600 -7622.6875 301.7282 -288.4574 -233.5602 31627.4468 233.5399 300.2640
ENERGY: 900000 1.9470 4.2164 5.7803 0.0000 -10802.7462 1402.6529 0.0000 0.0000 1793.9321 -7594.2175 300.7655 -9388.1496 -7644.8789 300.6823 -586.9459 -566.3047 31226.8858 191.1382 251.6841
ENERGY: 1200000 1.4227 2.3092 4.4514 0.0000 -10817.0254 1412.6812 0.0000 0.0000 1749.6355 -7646.5254 293.3389 -9396.1610 -7639.2207 300.5361 -284.1168 -223.7284 30894.1991 124.5286 190.3085
ENERGY: 1500000 2.7028 3.0963 2.2130 0.0000 -10958.6756 1504.0666 0.0000 0.0000 1752.7224 -7693.8746 293.8564 -9446.5970 -7652.0597 299.7809 461.9710 517.9716 30468.5758 159.2273 224.2293
TCL: Running FEP window   2: Lambda1 0.95   Lambda2 0.8999999999999999 [dLambda -0.050000000000000044]
TCL: Setting parameter firsttimestep to 0
TCL: Setting parameter alchLambda to 0.95
Info: NONBONDED TABLE R-SQUARED SPACING: 0.0625
Info: NONBONDED TABLE SIZE: 705 POINTS
TCL: Setting parameter alchLambda2 to 0.8999999999999999
Info: NONBONDED TABLE R-SQUARED SPACING: 0.0625
Info: NONBONDED TABLE SIZE: 705 POINTS
TCL: Running for 1500000 steps
ETITLE: TS BOND ANGLE DIHED IMPRP ELECT VDW BOUNDARY MISC KINETIC TOTAL TEMP POTENTIAL TOTALAVG TEMPAVG PRESSURE GPRESSURE VOLUME PRESSAVG GPRESSAVG
ENERGY: 0 2.7028 3.0963 2.2130 0.0000 -10956.9363 1503.5769 0.0000 0.0000 1751.8512 -7693.4962 293.7104 -9445.3475 -7693.4962 293.7104 423.4114 506.3607 30468.5758 423.4114 506.3607
ENERGY: 300000 1.6840 4.2856 3.0995 0.0000 -10913.0273 1464.1307 0.0000 0.0000 1741.2948 -7698.5325 291.9405 -9439.8273 -7651.5841 299.5092 18.9197 70.7968 30779.2743 142.6959 209.8736
ENERGY: 600000 1.3786 2.7662 2.9115 0.0000 -10831.6401 1444.7420 0.0000 0.0000 1773.2066 -7606.6352 297.2907 -9379.8418 -7636.1922 299.0037 -78.4775 -30.9465 31091.5767 -74.8362 -10.1657
ENERGY: 900000 1.5387 3.7995 4.6926 0.0000 -10907.5847 1428.6525 0.0000 0.0000 1758.1592 -7710.7421 294.7679 -9468.9013 -7661.8093 298.1014 -214.9467 -159.5497 30427.5529 -124.3419 -57.8036
ENERGY: 1200000 0.3276 5.0877 4.8500 0.0000 -10796.3345 1351.7582 0.0000 0.0000 1782.7644 -7651.5467 298.8932 -9434.3110 -7658.1448 298.4693 -1111.4527 -1062.4553 31376.6041 -235.7933 -167.0380
ENERGY: 1500000 1.5294 2.9638 3.7512 0.0000 -10780.3984 1417.5883 0.0000 0.0000 1830.5083 -7524.0574 306.8978 -9354.5657 -7642.9187 299.8863 -355.1931 -239.1974 31262.5207 -182.5257 -117.3443
TCL: Running FEP window   3: Lambda1 0.8999999999999999 Lambda2 0.8499999999999999 [dLambda -0.050000000000000044]
TCL: Setting parameter firsttimestep to 0
TCL: Setting parameter alchLambda to 0.8999999999999999
Info: NONBONDED TABLE R-SQUARED SPACING: 0.0625
Info: NONBONDED TABLE SIZE: 705 POINTS
TCL: Setting parameter alchLambda2 to 0.8499999999999999
Info: NONBONDED TABLE R-SQUARED SPACING: 0.0625
Info: NONBONDED TABLE SIZE: 705 POINTS
TCL: Running for 1500000 steps
ETITLE: TS BOND ANGLE DIHED IMPRP ELECT VDW BOUNDARY MISC KINETIC TOTAL TEMP POTENTIAL TOTALAVG TEMPAVG PRESSURE GPRESSURE VOLUME PRESSAVG GPRESSAVG
ENERGY: 0 1.5294 2.9638 3.7512 0.0000 -10779.5726 1417.6685 0.0000 0.0000 1829.5783 -7524.0815 306.7419 -9353.6597 -7524.0815 306.7419 -320.9188 -241.8131 31262.5207 -320.9188 -241.8131
ENERGY: 300000 2.2572 4.4524 3.5694 0.0000 -10973.0792 1541.9761 0.0000 0.0000 1777.5536 -7643.2706 298.0195 -9420.8242 -7609.6988 299.1168 584.5032 664.7592 30731.0640 122.5065 192.2266
ENERGY: 600000 0.7890 2.4277 3.4127 0.0000 -10842.8073 1450.8407 0.0000 0.0000 1828.2153 -7557.1219 306.5133 -9385.3372 -7582.9664 301.6730 9.4377 72.7691 30889.5118 247.6362 313.8195
ENERGY: 900000 1.3621 4.7811 3.3532 0.0000 -11116.1473 1573.7637 0.0000 0.0000 1729.7195 -7803.1677 289.9998 -9532.8872 -7601.9134 300.6496 153.6505 211.7784 31098.4132 115.6219 178.4520
ENERGY: 1200000 2.6819 4.7272 2.1032 0.0000 -10756.8480 1409.5148 0.0000 0.0000 1807.8889 -7529.9321 303.1055 -9337.8209 -7603.6707 299.8651 -362.6585 -255.3207 30896.2221 -8.8052 56.4040
ENERGY: 1500000 1.3999 6.5094 2.8421 0.0000 -10864.6603 1385.9018 0.0000 0.0000 1860.2117 -7607.7954 311.8778 -9468.0071 -7603.0022 300.5148 -577.3739 -460.2294 30751.3615 -34.5970 31.6627
TCL: Running FEP window   4: Lambda1 0.8499999999999999 Lambda2 0.7999999999999998 [dLambda -0.050000000000000044]
TCL: Setting parameter firsttimestep to 0
TCL: Setting parameter alchLambda to 0.8499999999999999
Info: NONBONDED TABLE R-SQUARED SPACING: 0.0625
Info: NONBONDED TABLE SIZE: 705 POINTS
TCL: Setting parameter alchLambda2 to 0.7999999999999998
Info: NONBONDED TABLE R-SQUARED SPACING: 0.0625
Info: NONBONDED TABLE SIZE: 705 POINTS
TCL: Running for 1500000 steps
ETITLE: TS BOND ANGLE DIHED IMPRP ELECT VDW BOUNDARY MISC KINETIC TOTAL TEMP POTENTIAL TOTALAVG TEMPAVG PRESSURE GPRESSURE VOLUME PRESSAVG GPRESSAVG
ENERGY: 0 1.3999 6.5094 2.8421 0.0000 -10863.8233 1386.0293 0.0000 0.0000 1859.2959 -7607.7467 311.7242 -9467.0426 -7607.7467 311.7242 -552.2800 -461.4747 30751.3615 -552.2800 -461.4747
ENERGY: 300000 2.4471 3.0347 3.2212 0.0000 -10708.1275 1365.9606 0.0000 0.0000 1763.1114 -7570.3524 295.5982 -9333.4638 -7564.8641 303.1632 -483.8268 -441.2824 31027.4297 -95.4845 -43.2273
ENERGY: 600000 1.5540 4.6506 1.9943 0.0000 -10769.6810 1376.2947 0.0000 0.0000 1791.8686 -7593.3188 300.4195 -9385.1874 -7573.7702 302.5356 -584.7487 -533.7149 30964.6011 -197.6735 -142.7642
ENERGY: 900000 1.3157 6.0098 1.8632 0.0000 -10935.6297 1506.4722 0.0000 0.0000 1738.0512 -7681.9176 291.3967 -9419.9688 -7587.8444 301.6919 341.1802 344.5312 31093.9528 -33.8080 15.8648
ENERGY: 1200000 0.1679 4.7139 3.1489 0.0000 -10860.5072 1381.1913 0.0000 0.0000 1849.5221 -7621.7630 310.0856 -9471.2851 -7589.6298 302.0653 -867.5393 -809.5524 31183.1675 -64.3924 -1.5480
ENERGY: 1500000 3.1529 4.1161 2.5417 0.0000 -10877.6500 1497.7861 0.0000 0.0000 1748.0916 -7621.9617 293.0800 -9370.0533 -7598.8803 301.9201 338.6798 464.1125 30968.9300 -86.3906 -20.1159
TCL: Running FEP window   5: Lambda1 0.7999999999999998 Lambda2 0.7499999999999998 [dLambda -0.050000000000000044]
TCL: Setting parameter firsttimestep to 0
TCL: Setting parameter alchLambda to 0.7999999999999998
Info: NONBONDED TABLE R-SQUARED SPACING: 0.0625
Info: NONBONDED TABLE SIZE: 705 POINTS
TCL: Setting parameter alchLambda2 to 0.7499999999999998
Info: NONBONDED TABLE R-SQUARED SPACING: 0.0625
Info: NONBONDED TABLE SIZE: 705 POINTS
TCL: Running for 1500000 steps
ETITLE: TS BOND ANGLE DIHED IMPRP ELECT VDW BOUNDARY MISC KINETIC TOTAL TEMP POTENTIAL TOTALAVG TEMPAVG PRESSURE GPRESSURE VOLUME PRESSAVG GPRESSAVG
ENERGY: 0 3.1529 4.1161 2.5417 0.0000 -10876.8190 1498.0339 0.0000 0.0000 1747.1811 -7621.7933 292.9274 -9368.9744 -7621.7933 292.9274 369.8139 461.0375 30968.9300 369.8139 461.0375
ENERGY: 300000 0.4225 4.4323 2.3805 0.0000 -10904.9701 1443.4032 0.0000 0.0000 1756.6883 -7697.6433 294.5213 -9454.3316 -7647.4424 295.1454 -227.9309 -210.9505 30816.3743 60.1943 125.8184
ENERGY: 600000 0.5988 5.2509 4.5841 0.0000 -10830.6491 1456.4919 0.0000 0.0000 1776.3891 -7587.3343 297.8243 -9363.7234 -7647.8871 295.2867 -70.1960 -10.0848 31075.6137 151.8531 216.6671
ENERGY: 900000 0.2659 4.8398 3.1241 0.0000 -10987.1599 1499.7881 0.0000 0.0000 1715.0856 -7764.0564 287.5463 -9479.1420 -7646.2316 294.7409 -92.9800 -9.8924 31042.6988 54.0141 135.9651
ENERGY: 1200000 0.5397 2.8062 4.0432 0.0000 -10911.7866 1462.9427 0.0000 0.0000 1731.6690 -7709.7858 290.3267 -9441.4549 -7640.4234 295.0861 -304.2334 -230.3956 31145.4246 -18.4311 61.6175
ENERGY: 1500000 0.2704 2.0691 5.1314 0.0000 -11027.8029 1562.1285 0.0000 0.0000 1787.0298 -7671.1736 299.6083 -9458.2034 -7635.6811 296.4327 582.3603 654.6782 30943.4220 -26.6934 47.8273
TCL: Running FEP window   6: Lambda1 0.7499999999999998 Lambda2 0.6999999999999997 [dLambda -0.050000000000000044]
TCL: Setting parameter firsttimestep to 0
TCL: Setting parameter alchLambda to 0.7499999999999998
Info: NONBONDED TABLE R-SQUARED SPACING: 0.0625
Info: NONBONDED TABLE SIZE: 705 POINTS
TCL: Setting parameter alchLambda2 to 0.6999999999999997
Info: NONBONDED TABLE R-SQUARED SPACING: 0.0625
Info: NONBONDED TABLE SIZE: 705 POINTS
TCL: Running for 1500000 steps
ETITLE: TS BOND ANGLE DIHED IMPRP ELECT VDW BOUNDARY MISC KINETIC TOTAL TEMP POTENTIAL TOTALAVG TEMPAVG PRESSURE GPRESSURE VOLUME PRESSAVG GPRESSAVG
ENERGY: 0 0.2704 2.0691 5.1314 0.0000 -11026.7002 1562.2859 0.0000 0.0000 1786.1316 -7670.8117 299.4577 -9456.9434 -7670.8117 299.4577 583.2081 657.1218 30943.4220 583.2081 657.1218
ENERGY: 300000 0.4459 5.6703 4.2596 0.0000 -10851.8343 1406.5173 0.0000 0.0000 1818.7013 -7616.2400 304.9182 -9434.9412 -7637.0128 295.8353 -395.3088 -319.5019 30494.4667 0.0950 82.8296
ENERGY: 600000 0.1076 5.3974 3.0304 0.0000 -10981.2386 1555.8763 0.0000 0.0000 1809.4313 -7607.3954 303.3641 -9416.8268 -7634.5631 299.3773 797.3804 786.3085 30855.8703 -61.4810 7.5890
ENERGY: 900000 1.6029 3.2482 2.9797 0.0000 -10863.0721 1408.6107 0.0000 0.0000 1832.4202 -7614.2104 307.2183 -9446.6306 -7639.7394 299.4622 -512.0983 -406.1158 31022.6554 -136.6779 -71.4629
ENERGY: 1200000 1.8089 3.4992 3.9101 0.0000 -10906.7440 1467.1731 0.0000 0.0000 1784.0605 -7646.2921 299.1105 -9430.3527 -7635.6944 300.2375 147.0714 265.6629 30810.9192 -107.1232 -47.1354
ENERGY: 1500000 4.7510 6.2870 3.0823 0.0000 -10834.1989 1420.8254 0.0000 0.0000 1793.8662 -7605.3871 300.7545 -9399.2533 -7638.7330 300.2566 -524.8198 -411.0151 31053.7096 -92.2423 -33.4597
TCL: Running FEP window   7: Lambda1 0.6999999999999997 Lambda2 0.6499999999999997 [dLambda -0.050000000000000044]
TCL: Setting parameter firsttimestep to 0
TCL: Setting parameter alchLambda to 0.6999999999999997
Info: NONBONDED TABLE R-SQUARED SPACING: 0.0625
Info: NONBONDED TABLE SIZE: 705 POINTS
TCL: Setting parameter alchLambda2 to 0.6499999999999997
Info: NONBONDED TABLE R-SQUARED SPACING: 0.0625
Info: NONBONDED TABLE SIZE: 705 POINTS
TCL: Running for 1500000 steps
ETITLE: TS BOND ANGLE DIHED IMPRP ELECT VDW BOUNDARY MISC KINETIC TOTAL TEMP POTENTIAL TOTALAVG TEMPAVG PRESSURE GPRESSURE VOLUME PRESSAVG GPRESSAVG
ENERGY: 0 4.7510 6.2870 3.0823 0.0000 -10832.8076 1420.4826 0.0000 0.0000 1793.0101 -7605.1947 300.6109 -9398.2048 -7605.1947 300.6109 -501.5429 -418.5063 31053.7096 -501.5429 -418.5063
ENERGY: 300000 2.0503 5.0006 2.8689 0.0000 -10887.6540 1465.4870 0.0000 0.0000 1769.3419 -7642.9052 296.6428 -9412.2471 -7592.5609 300.2575 -309.9123 -267.4542 31373.8278 -223.7185 -189.1605
ENERGY: 600000 2.2679 3.0598 4.0526 0.0000 -10933.1774 1514.4477 0.0000 0.0000 1761.4570 -7647.8925 295.3208 -9409.3494 -7584.3195 302.7338 114.0030 275.9854 31038.9049 -31.0262 20.0592
ENERGY: 900000 0.4531 2.7426 2.7868 0.0000 -11060.8684 1486.4892 0.0000 0.0000 1790.6321 -7777.7646 300.2122 -9568.3967 -7626.5735 301.3204 -161.4586 -74.3966 30463.6300 2.3891 54.1646
ENERGY: 1200000 0.0950 5.1710 3.9425 0.0000 -10913.1809 1508.2332 0.0000 0.0000 1805.8166 -7589.9226 302.7580 -9395.7392 -7630.3901 300.3183 463.1392 506.6970 30633.1489 136.2327 192.8453
ENERGY: 1500000 2.5523 3.2702 2.7020 0.0000 -10749.1702 1408.2264 0.0000 0.0000 1806.1916 -7526.2276 302.8209 -9332.4193 -7625.6688 300.2442 -230.5123 -210.5709 31033.5598 113.7988 162.1054
TCL: Running FEP window   8: Lambda1 0.6499999999999997 Lambda2 0.5999999999999996 [dLambda -0.050000000000000044]
TCL: Setting parameter firsttimestep to 0
TCL: Setting parameter alchLambda to 0.6499999999999997
Info: NONBONDED TABLE R-SQUARED SPACING: 0.0625
Info: NONBONDED TABLE SIZE: 705 POINTS
TCL: Setting parameter alchLambda2 to 0.5999999999999996
Info: NONBONDED TABLE R-SQUARED SPACING: 0.0625
Info: NONBONDED TABLE SIZE: 705 POINTS
TCL: Running for 1500000 steps
ETITLE: TS BOND ANGLE DIHED IMPRP ELECT VDW BOUNDARY MISC KINETIC TOTAL TEMP POTENTIAL TOTALAVG TEMPAVG PRESSURE GPRESSURE VOLUME PRESSAVG GPRESSAVG
ENERGY: 0 2.5523 3.2702 2.7020 0.0000 -10748.3452 1408.3562 0.0000 0.0000 1805.2761 -7526.1884 302.6674 -9331.4645 -7526.1884 302.6674 -299.7282 -209.9079 31033.5598 -299.7282 -209.9079
ENERGY: 300000 1.4315 2.7222 3.1824 0.0000 -10920.9992 1464.7264 0.0000 0.0000 1746.7855 -7702.1510 292.8611 -9448.9365 -7605.8026 298.7440 -159.7495 -72.1055 30611.8443 -229.7438 -178.4067
ENERGY: 600000 0.0969 4.6477 2.9924 0.0000 -10854.0167 1468.1616 0.0000 0.0000 1760.4521 -7617.6659 295.1524 -9378.1180 -7619.9898 297.2597 -17.7625 -14.5282 31316.8814 -132.3777 -88.5416
ENERGY: 900000 0.5350 6.0299 5.0350 0.0000 -10936.7620 1433.5949 0.0000 0.0000 1798.4878 -7693.0793 301.5293 -9491.5671 -7637.9075 297.0189 -542.7999 -534.6325 31122.0161 -143.2114 -101.7119
ENERGY: 1200000 0.2562 2.0592 2.6399 0.0000 -10937.2387 1487.2749 0.0000 0.0000 1833.0385 -7611.9701 307.3220 -9445.0086 -7646.6323 297.7710 289.2432 282.9655 30767.5590 -22.3695 13.8878
ENERGY: 1500000 1.9012 3.3421 4.9617 0.0000 -10856.5695 1408.6577 0.0000 0.0000 1751.6076 -7686.0991 293.6695 -9437.7068 -7652.0235 297.7881 -491.8725 -390.4610 30961.0070 -45.2575 -0.5526
TCL: Running FEP window   9: Lambda1 0.5999999999999996 Lambda2 0.5499999999999996 [dLambda -0.050000000000000044]
TCL: Setting parameter firsttimestep to 0
TCL: Setting parameter alchLambda to 0.5999999999999996
Info: NONBONDED TABLE R-SQUARED SPACING: 0.0625
Info: NONBONDED TABLE SIZE: 705 POINTS
TCL: Setting parameter alchLambda2 to 0.5499999999999996
Info: NONBONDED TABLE R-SQUARED SPACING: 0.0625
Info: NONBONDED TABLE SIZE: 705 POINTS
TCL: Running for 1500000 steps
ETITLE: TS BOND ANGLE DIHED IMPRP ELECT VDW BOUNDARY MISC KINETIC TOTAL TEMP POTENTIAL TOTALAVG TEMPAVG PRESSURE GPRESSURE VOLUME PRESSAVG GPRESSAVG
ENERGY: 0 1.9012 3.3421 4.9617 0.0000 -10856.2204 1409.1095 0.0000 0.0000 1750.7317 -7686.1742 293.5227 -9436.9059 -7686.1742 293.5227 -485.5953 -387.5243 30961.0070 -485.5953 -387.5243
ENERGY: 300000 0.9094 3.1073 4.1005 0.0000 -10850.0131 1436.6370 0.0000 0.0000 1749.0333 -7656.2255 293.2379 -9405.2588 -7656.6105 298.4031 -40.0942 -27.6926 30816.8739 32.9512 97.6077
ENERGY: 600000 0.3401 4.9554 4.1414 0.0000 -11110.8757 1634.4379 0.0000 0.0000 1801.8950 -7665.1058 302.1006 -9467.0008 -7639.4842 299.7165 1357.9532 1388.1222 30270.1894 -5.4118 51.3953
ENERGY: 900000 2.6069 4.9515 3.8124 0.0000 -10852.2851 1472.0492 0.0000 0.0000 1810.1466 -7558.7184 303.4840 -9368.8651 -7635.3834 297.9787 156.8463 196.9114 31006.4326 -15.0319 48.0238
ENERGY: 1200000 1.9298 3.2679 3.6564 0.0000 -10877.4300 1455.2810 0.0000 0.0000 1762.3000 -7650.9949 295.4622 -9413.2949 -7641.4277 297.9399 155.1558 185.0761 30656.2877 -47.2131 14.2905
ENERGY: 1500000 0.6065 1.6183 3.0159 0.0000 -10864.7395 1453.7960 0.0000 0.0000 1784.8499 -7620.8529 299.2428 -9405.7028 -7645.4456 297.5328 -106.1471 -17.9429 30847.6937 -49.3712 16.7435
TCL: Running FEP window  10: Lambda1 0.5499999999999996 Lambda2 0.4999999999999996 [dLambda -0.04999999999999999]
TCL: Setting parameter firsttimestep to 0
TCL: Setting parameter alchLambda to 0.5499999999999996
Info: NONBONDED TABLE R-SQUARED SPACING: 0.0625
Info: NONBONDED TABLE SIZE: 705 POINTS
TCL: Setting parameter alchLambda2 to 0.4999999999999996
Info: NONBONDED TABLE R-SQUARED SPACING: 0.0625
Info: NONBONDED TABLE SIZE: 705 POINTS
TCL: Running for 1500000 steps
ETITLE: TS BOND ANGLE DIHED IMPRP ELECT VDW BOUNDARY MISC KINETIC TOTAL TEMP POTENTIAL TOTALAVG TEMPAVG PRESSURE GPRESSURE VOLUME PRESSAVG GPRESSAVG
ENERGY: 0 0.6065 1.6183 3.0159 0.0000 -10864.6344 1454.3227 0.0000 0.0000 1783.9580 -7621.1131 299.0933 -9405.0711 -7621.1131 299.0933 -107.5845 -18.3132 30847.6937 -107.5845 -18.3132
ENERGY: 300000 0.4461 4.1280 2.5866 0.0000 -10816.3181 1422.6943 0.0000 0.0000 1807.2205 -7579.2427 302.9934 -9386.4632 -7569.5293 301.2406 -245.9564 -186.1526 30874.5108 -240.5673 -193.3379
ENERGY: 600000 0.7594 4.7337 2.6039 0.0000 -10977.1749 1572.5967 0.0000 0.0000 1807.1853 -7589.2959 302.9875 -9396.4812 -7605.7406 299.8241 1064.8419 1075.9207 30545.1143 39.8243 85.1426
ENERGY: 900000 2.0315 4.7903 3.7477 0.0000 -10879.0374 1474.0887 0.0000 0.0000 1786.7310 -7607.6481 299.5582 -9394.3791 -7608.8860 300.0978 146.4978 204.3463 30853.5925 4.6361 50.4842
ENERGY: 1200000 2.3679 4.1000 1.4896 0.0000 -10860.9114 1469.8329 0.0000 0.0000 1815.7474 -7567.3735 304.4230 -9383.1209 -7607.5478 299.9870 80.2661 198.4610 30627.1710 -12.8034 40.8667
ENERGY: 1500000 2.1293 7.8102 2.1009 0.0000 -10732.6073 1357.6160 0.0000 0.0000 1796.2764 -7566.6745 301.1586 -9362.9509 -7599.7325 300.0632 -717.1132 -637.6633 31082.8192 -124.8701 -63.9990
TCL: Running FEP window  11: Lambda1 0.4999999999999996 Lambda2 0.4499999999999996 [dLambda -0.04999999999999999]
TCL: Setting parameter firsttimestep to 0
TCL: Setting parameter alchLambda to 0.4999999999999996
Info: NONBONDED TABLE R-SQUARED SPACING: 0.0625
Info: NONBONDED TABLE SIZE: 705 POINTS
TCL: Setting parameter alchLambda2 to 0.4499999999999996
Info: NONBONDED TABLE R-SQUARED SPACING: 0.0625
Info: NONBONDED TABLE SIZE: 705 POINTS
TCL: Running for 1500000 steps
ETITLE: TS BOND ANGLE DIHED IMPRP ELECT VDW BOUNDARY MISC KINETIC TOTAL TEMP POTENTIAL TOTALAVG TEMPAVG PRESSURE GPRESSURE VOLUME PRESSAVG GPRESSAVG
ENERGY: 0 2.1293 7.8102 2.1009 0.0000 -10732.2721 1357.9975 0.0000 0.0000 1795.3949 -7566.8393 301.0108 -9362.2342 -7566.8393 301.0108 -716.1004 -638.5398 31082.8192 -716.1004 -638.5398
ENERGY: 300000 0.3455 1.5108 2.3556 0.0000 -10813.2920 1399.5353 0.0000 0.0000 1802.8339 -7606.7109 302.2580 -9409.5448 -7593.8800 300.5302 -727.5242 -666.5336 31315.8505 -433.9323 -365.9593
ENERGY: 600000 1.2827 5.5775 1.9027 0.0000 -10850.9668 1492.6760 0.0000 0.0000 1768.7050 -7580.8228 296.5360 -9349.5279 -7609.0773 299.0724 433.3545 447.0887 30790.8898 -356.4120 -289.5571
ENERGY: 900000 1.0205 5.1948 5.1668 0.0000 -10957.5191 1550.7055 0.0000 0.0000 1753.9343 -7641.4972 294.0596 -9395.4316 -7609.2685 298.9351 749.4666 817.4121 30840.6755 -148.4162 -72.9862
ENERGY: 1200000 2.4980 6.0040 3.2189 0.0000 -10772.7002 1424.6940 0.0000 0.0000 1810.0626 -7526.2227 303.4699 -9336.2853 -7613.3451 299.4711 -108.4333 35.2131 31086.1077 -149.1806 -70.5279
ENERGY: 1500000 1.0843 4.9274 2.8342 0.0000 -10790.3604 1442.6470 0.0000 0.0000 1738.6305 -7600.2370 291.4938 -9338.8675 -7615.7953 298.9996 85.5042 96.2917 30791.6899 -131.8955 -61.6053
TCL: Running FEP window  12: Lambda1 0.4499999999999996 Lambda2 0.39999999999999963 [dLambda -0.04999999999999999]
TCL: Setting parameter firsttimestep to 0
TCL: Setting parameter alchLambda to 0.4499999999999996
Info: NONBONDED TABLE R-SQUARED SPACING: 0.0625
Info: NONBONDED TABLE SIZE: 705 POINTS
TCL: Setting parameter alchLambda2 to 0.39999999999999963
Info: NONBONDED TABLE R-SQUARED SPACING: 0.0625
Info: NONBONDED TABLE SIZE: 705 POINTS
TCL: Running for 1500000 steps
ETITLE: TS BOND ANGLE DIHED IMPRP ELECT VDW BOUNDARY MISC KINETIC TOTAL TEMP POTENTIAL TOTALAVG TEMPAVG PRESSURE GPRESSURE VOLUME PRESSAVG GPRESSAVG
ENERGY: 0 1.0843 4.9274 2.8342 0.0000 -10790.3598 1442.9707 0.0000 0.0000 1737.7366 -7600.8067 291.3439 -9338.5433 -7600.8067 291.3439 26.6737 93.8401 30791.6899 26.6737 93.8401
ENERGY: 300000 2.3627 5.7736 3.0252 0.0000 -10948.9747 1484.8008 0.0000 0.0000 1777.1718 -7675.8406 297.9555 -9453.0125 -7664.6485 298.6914 208.8089 231.1191 30645.8869 71.0178 131.3099
ENERGY: 600000 1.4699 4.0125 2.8048 0.0000 -10770.4191 1450.0817 0.0000 0.0000 1803.9712 -7508.0791 302.4486 -9312.0502 -7614.8603 301.3631 264.0838 313.7481 30827.8420 63.7852 120.5135
ENERGY: 900000 0.6879 2.1688 2.9254 0.0000 -10795.9636 1384.0604 0.0000 0.0000 1744.0313 -7662.0897 292.3993 -9406.1210 -7623.0806 300.7041 -723.9598 -599.4883 31111.8764 -63.7915 -3.4158
ENERGY: 1200000 1.5672 5.5884 4.0658 0.0000 -11023.9324 1541.5600 0.0000 0.0000 1762.4027 -7708.7484 295.4794 -9471.1510 -7632.4876 299.5482 536.1255 593.7981 30517.5920 -93.3669 -27.6530
ENERGY: 1500000 2.6327 2.3915 3.0767 0.0000 -10922.5954 1473.8745 0.0000 0.0000 1764.2435 -7676.3764 295.7880 -9440.6200 -7635.0787 299.8597 -95.6161 -70.8527 30801.3841 -124.2575 -62.4963
TCL: Running FEP window  13: Lambda1 0.39999999999999963 Lambda2 0.34999999999999964 [dLambda -0.04999999999999999]
TCL: Setting parameter firsttimestep to 0
TCL: Setting parameter alchLambda to 0.39999999999999963
Info: NONBONDED TABLE R-SQUARED SPACING: 0.0625
Info: NONBONDED TABLE SIZE: 705 POINTS
TCL: Setting parameter alchLambda2 to 0.34999999999999964
Info: NONBONDED TABLE R-SQUARED SPACING: 0.0625
Info: NONBONDED TABLE SIZE: 705 POINTS
TCL: Running for 1500000 steps
ETITLE: TS BOND ANGLE DIHED IMPRP ELECT VDW BOUNDARY MISC KINETIC TOTAL TEMP POTENTIAL TOTALAVG TEMPAVG PRESSURE GPRESSURE VOLUME PRESSAVG GPRESSAVG
ENERGY: 0 2.6327 2.3915 3.0767 0.0000 -10922.5943 1474.0546 0.0000 0.0000 1763.4031 -7677.0357 295.6471 -9440.4387 -7677.0357 295.6471 -146.0159 -75.5190 30801.3841 -146.0159 -75.5190
ENERGY: 300000 1.0984 5.2925 2.8937 0.0000 -10811.9175 1422.9594 0.0000 0.0000 1810.2529 -7569.4205 303.5018 -9379.6734 -7578.8980 302.0306 -60.4667 64.3073 30428.0799 173.4806 259.5927
ENERGY: 600000 1.1565 1.4893 2.7065 0.0000 -10899.3042 1483.2036 0.0000 0.0000 1798.9452 -7611.8030 301.6060 -9410.7482 -7606.6847 302.5247 166.9904 192.5033 30558.8402 137.7296 208.3837
ENERGY: 900000 1.4118 5.2206 1.9646 0.0000 -10822.0127 1447.8594 0.0000 0.0000 1818.1838 -7547.3724 304.8315 -9365.5563 -7610.7553 301.9542 -57.7748 33.1089 30999.6594 71.1893 140.3295
ENERGY: 1200000 0.6935 3.8407 3.6340 0.0000 -10800.3860 1495.7664 0.0000 0.0000 1802.4742 -7493.9773 302.1977 -9296.4515 -7603.4165 301.8762 180.7741 289.5829 31441.1664 72.2925 139.8519
ENERGY: 1500000 1.7694 5.9502 3.8437 0.0000 -10947.3737 1485.0816 0.0000 0.0000 1822.9626 -7627.7663 305.6327 -9450.7289 -7608.1002 302.3721 62.3698 94.7986 30603.4022 68.2943 130.7737
TCL: Running FEP window  14: Lambda1 0.34999999999999964 Lambda2 0.29999999999999966 [dLambda -0.04999999999999999]
TCL: Setting parameter firsttimestep to 0
TCL: Setting parameter alchLambda to 0.34999999999999964
Info: NONBONDED TABLE R-SQUARED SPACING: 0.0625
Info: NONBONDED TABLE SIZE: 705 POINTS
TCL: Setting parameter alchLambda2 to 0.29999999999999966
Info: NONBONDED TABLE R-SQUARED SPACING: 0.0625
Info: NONBONDED TABLE SIZE: 705 POINTS
TCL: Running for 1500000 steps
ETITLE: TS BOND ANGLE DIHED IMPRP ELECT VDW BOUNDARY MISC KINETIC TOTAL TEMP POTENTIAL TOTALAVG TEMPAVG PRESSURE GPRESSURE VOLUME PRESSAVG GPRESSAVG
ENERGY: 0 1.7694 5.9502 3.8437 0.0000 -10947.3730 1485.1988 0.0000 0.0000 1822.0964 -7628.5145 305.4875 -9450.6109 -7628.5145 305.4875 20.3083 94.3104 30603.4022 20.3083 94.3104
ENERGY: 300000 0.1121 4.7994 2.9555 0.0000 -10961.6571 1516.4080 0.0000 0.0000 1794.8491 -7642.5330 300.9193 -9437.3821 -7617.2280 301.3328 344.5303 358.2440 30571.3057 -60.7279 -3.8280
ENERGY: 600000 1.0240 6.1523 4.0831 0.0000 -10899.8098 1451.3405 0.0000 0.0000 1830.5482 -7606.6617 306.9045 -9437.2098 -7598.0170 304.1892 -168.9594 -40.7650 30631.3279 -28.9973 51.4391
ENERGY: 900000 1.4317 4.1440 2.5997 0.0000 -10930.2861 1468.4788 0.0000 0.0000 1768.0646 -7685.5673 296.4286 -9453.6320 -7623.3483 302.0064 -261.1721 -181.1024 31171.2744 -5.0337 72.1287
ENERGY: 1200000 1.4720 4.5868 4.0318 0.0000 -10695.8682 1327.2550 0.0000 0.0000 1757.1306 -7601.3920 294.5955 -9358.5226 -7623.9347 301.3475 -1154.6318 -1087.6752 31261.5997 -91.3722 -8.8324
ENERGY: 1500000 1.1825 5.2956 3.3883 0.0000 -10843.8976 1448.6351 0.0000 0.0000 1785.3283 -7600.0678 299.3230 -9385.3961 -7624.2071 301.4222 -155.9224 -34.7933 31055.4481 -56.2588 22.4681
TCL: Running FEP window  15: Lambda1 0.29999999999999966 Lambda2 0.24999999999999967 [dLambda -0.04999999999999999]
TCL: Setting parameter firsttimestep to 0
TCL: Setting parameter alchLambda to 0.29999999999999966
Info: NONBONDED TABLE R-SQUARED SPACING: 0.0625
Info: NONBONDED TABLE SIZE: 705 POINTS
TCL: Setting parameter alchLambda2 to 0.24999999999999967
Info: NONBONDED TABLE R-SQUARED SPACING: 0.0625
Info: NONBONDED TABLE SIZE: 705 POINTS
TCL: Running for 1500000 steps
ETITLE: TS BOND ANGLE DIHED IMPRP ELECT VDW BOUNDARY MISC KINETIC TOTAL TEMP POTENTIAL TOTALAVG TEMPAVG PRESSURE GPRESSURE VOLUME PRESSAVG GPRESSAVG
ENERGY: 0 1.1825 5.2956 3.3883 0.0000 -10843.8974 1448.6718 0.0000 0.0000 1784.4754 -7600.8837 299.1800 -9385.3591 -7600.8837 299.1800 -133.7316 -40.0340 31055.4481 -133.7316 -40.0340
ENERGY: 300000 1.1641 2.8101 3.2386 0.0000 -10847.3516 1427.5139 0.0000 0.0000 1798.6259 -7613.9990 301.5525 -9412.6249 -7602.0905 299.0106 -252.1169 -237.6465 30786.7556 -111.0708 -55.2909
ENERGY: 600000 0.4070 5.7189 3.7469 0.0000 -10986.3697 1492.0202 0.0000 0.0000 1838.1134 -7646.3634 308.1728 -9484.4768 -7614.3404 301.8791 229.8916 267.3625 30445.5057 -62.1728 -12.0012
ENERGY: 900000 1.6330 5.1406 3.9596 0.0000 -10866.6428 1499.8562 0.0000 0.0000 1852.3141 -7503.7395 310.5537 -9356.0535 -7599.5061 301.9018 350.1113 403.9283 30960.6827 22.7032 81.2631
ENERGY: 1200000 0.1849 8.6397 2.1401 0.0000 -10976.8142 1546.0566 0.0000 0.0000 1850.0131 -7569.7797 310.1679 -9419.7928 -7606.0194 301.7000 694.1785 690.8093 30618.9977 70.1863 121.8888
ENERGY: 1500000 1.3472 4.8562 2.7260 0.0000 -10863.2464 1402.1528 0.0000 0.0000 1737.0072 -7715.1571 291.2217 -9452.1643 -7615.1006 301.5572 -702.1384 -676.6859 30814.8882 -3.9175 42.2503
TCL: Running FEP window  16: Lambda1 0.24999999999999967 Lambda2 0.19999999999999968 [dLambda -0.04999999999999999]
TCL: Setting parameter firsttimestep to 0
TCL: Setting parameter alchLambda to 0.24999999999999967
Info: NONBONDED TABLE R-SQUARED SPACING: 0.0625
Info: NONBONDED TABLE SIZE: 705 POINTS
TCL: Setting parameter alchLambda2 to 0.19999999999999968
Info: NONBONDED TABLE R-SQUARED SPACING: 0.0625
Info: NONBONDED TABLE SIZE: 705 POINTS
TCL: Running for 1500000 steps
ETITLE: TS BOND ANGLE DIHED IMPRP ELECT VDW BOUNDARY MISC KINETIC TOTAL TEMP POTENTIAL TOTALAVG TEMPAVG PRESSURE GPRESSURE VOLUME PRESSAVG GPRESSAVG
ENERGY: 0 1.3472 4.8562 2.7260 0.0000 -10863.2450 1402.0899 0.0000 0.0000 1736.0952 -7716.1306 291.0687 -9452.2258 -7716.1306 291.0687 -760.5175 -682.3844 30814.8882 -760.5175 -682.3844
ENERGY: 300000 0.9925 2.7620 2.8969 0.0000 -10875.7349 1437.7556 0.0000 0.0000 1799.4602 -7631.8676 301.6923 -9431.3278 -7662.3581 297.7341 -172.7754 -98.8374 30671.2976 -171.5044 -100.9064
ENERGY: 600000 0.1850 3.5687 4.1639 0.0000 -10846.9564 1486.1466 0.0000 0.0000 1804.7696 -7548.1226 302.5825 -9352.8922 -7638.4691 299.1014 82.2663 148.3725 31169.5814 -62.8247 7.1418
ENERGY: 900000 3.4136 6.7686 2.7594 0.0000 -10839.4535 1426.3203 0.0000 0.0000 1815.2910 -7584.9005 304.3465 -9400.1915 -7625.1673 299.1493 -418.9706 -314.8699 31172.3797 -248.9561 -179.7603
ENERGY: 1200000 0.7063 4.0513 3.5985 0.0000 -10869.8507 1383.7478 0.0000 0.0000 1756.4039 -7721.3429 294.4736 -9477.7467 -7633.2658 299.4390 -962.3086 -871.3260 30995.8704 -225.7424 -155.1368
ENERGY: 1500000 1.3720 2.5748 5.4940 0.0000 -10858.5105 1407.3047 0.0000 0.0000 1788.2064 -7653.5586 299.8056 -9441.7651 -7632.5289 299.8301 -649.3113 -592.7698 30930.7827 -270.9828 -195.9485
TCL: Running FEP window  17: Lambda1 0.19999999999999968 Lambda2 0.1499999999999997 [dLambda -0.04999999999999999]
TCL: Setting parameter firsttimestep to 0
TCL: Setting parameter alchLambda to 0.19999999999999968
Info: NONBONDED TABLE R-SQUARED SPACING: 0.0625
Info: NONBONDED TABLE SIZE: 705 POINTS
TCL: Setting parameter alchLambda2 to 0.1499999999999997
Info: NONBONDED TABLE R-SQUARED SPACING: 0.0625
Info: NONBONDED TABLE SIZE: 705 POINTS
TCL: Running for 1500000 steps
ETITLE: TS BOND ANGLE DIHED IMPRP ELECT VDW BOUNDARY MISC KINETIC TOTAL TEMP POTENTIAL TOTALAVG TEMPAVG PRESSURE GPRESSURE VOLUME PRESSAVG GPRESSAVG
ENERGY: 0 1.3720 2.5748 5.4940 0.0000 -10858.5100 1406.9831 0.0000 0.0000 1787.3019 -7654.7843 299.6539 -9442.0862 -7654.7843 299.6539 -688.4360 -597.5347 30930.7827 -688.4360 -597.5347
ENERGY: 300000 1.4216 6.6333 4.7499 0.0000 -10726.0624 1413.2367 0.0000 0.0000 1765.3568 -7534.6641 295.9747 -9300.0209 -7614.8513 298.4923 -250.2417 -192.9810 30988.7274 -318.9429 -266.6865
ENERGY: 600000 1.1540 5.1236 1.9362 0.0000 -10906.8089 1496.4582 0.0000 0.0000 1780.4901 -7621.6468 298.5119 -9402.1368 -7617.0632 298.2086 178.1284 330.1776 30781.2529 -32.8483 28.6975
ENERGY: 900000 0.6231 3.1956 3.3419 0.0000 -10833.1544 1458.5807 0.0000 0.0000 1796.8260 -7570.5870 301.2507 -9367.4130 -7605.0990 299.3095 241.1017 290.1259 30731.8885 -26.4440 36.9601
ENERGY: 1200000 1.2427 5.2683 2.6314 0.0000 -11140.8469 1639.2201 0.0000 0.0000 1803.3229 -7689.1614 302.3399 -9492.4843 -7611.6696 299.3388 1259.0388 1329.4233 30251.2212 86.9953 147.1876
ENERGY: 1500000 2.2459 5.1260 3.6845 0.0000 -10825.4603 1424.3571 0.0000 0.0000 1784.3618 -7605.6850 299.1610 -9390.0468 -7612.8394 299.5310 -425.5606 -374.9489 30888.5342 60.0697 115.3124
TCL: Running FEP window  18: Lambda1 0.1499999999999997 Lambda2 0.09999999999999969 [dLambda -0.05 ]
TCL: Setting parameter firsttimestep to 0
TCL: Setting parameter alchLambda to 0.1499999999999997
Info: NONBONDED TABLE R-SQUARED SPACING: 0.0625
Info: NONBONDED TABLE SIZE: 705 POINTS
TCL: Setting parameter alchLambda2 to 0.09999999999999969
Info: NONBONDED TABLE R-SQUARED SPACING: 0.0625
Info: NONBONDED TABLE SIZE: 705 POINTS
TCL: Running for 1500000 steps
ETITLE: TS BOND ANGLE DIHED IMPRP ELECT VDW BOUNDARY MISC KINETIC TOTAL TEMP POTENTIAL TOTALAVG TEMPAVG PRESSURE GPRESSURE VOLUME PRESSAVG GPRESSAVG
ENERGY: 0 2.2459 5.1260 3.6845 0.0000 -10825.4598 1423.8293 0.0000 0.0000 1783.4536 -7607.1206 299.0087 -9390.5742 -7607.1206 299.0087 -465.8743 -376.8600 30888.5342 -465.8743 -376.8600
ENERGY: 300000 0.1612 2.8339 3.6995 0.0000 -10812.7196 1461.3102 0.0000 0.0000 1799.1660 -7545.5488 301.6430 -9344.7148 -7626.2382 296.3069 209.6556 261.2291 30674.2705 -60.3634 5.3604
ENERGY: 600000 1.1884 4.3081 2.6767 0.0000 -10706.1221 1392.0997 0.0000 0.0000 1797.9201 -7507.9291 301.4341 -9305.8493 -7616.5481 297.7086 -602.6835 -501.4467 31727.2213 -299.6362 -234.0803
ENERGY: 900000 2.9907 1.8181 4.2535 0.0000 -10815.2302 1407.9510 0.0000 0.0000 1843.8953 -7554.3216 309.1422 -9398.2169 -7604.8216 299.5214 -465.8454 -414.1348 31049.7250 -219.5794 -164.1833
ENERGY: 1200000 2.1715 3.7555 2.4083 0.0000 -10829.7384 1439.6124 0.0000 0.0000 1788.5882 -7593.2026 299.8696 -9381.7908 -7608.6713 299.3940 -252.5824 -158.0945 30841.7107 -246.6586 -193.4401
ENERGY: 1500000 1.6309 2.6947 1.9953 0.0000 -10897.7745 1471.5776 0.0000 0.0000 1782.1155 -7637.7605 298.7844 -9419.8760 -7613.5080 298.9571 105.2373 128.8396 30528.0224 -245.3412 -197.4315
TCL: Running FEP window  19: Lambda1 0.09999999999999969 Lambda2 0.049999999999999684 [dLambda -0.05 ]
TCL: Setting parameter firsttimestep to 0
TCL: Setting parameter alchLambda to 0.09999999999999969
Info: NONBONDED TABLE R-SQUARED SPACING: 0.0625
Info: NONBONDED TABLE SIZE: 705 POINTS
TCL: Setting parameter alchLambda2 to 0.049999999999999684
Info: NONBONDED TABLE R-SQUARED SPACING: 0.0625
Info: NONBONDED TABLE SIZE: 705 POINTS
TCL: Running for 1500000 steps
ETITLE: TS BOND ANGLE DIHED IMPRP ELECT VDW BOUNDARY MISC KINETIC TOTAL TEMP POTENTIAL TOTALAVG TEMPAVG PRESSURE GPRESSURE VOLUME PRESSAVG GPRESSAVG
ENERGY: 0 1.6309 2.6947 1.9953 0.0000 -10897.7756 1471.8851 0.0000 0.0000 1781.2175 -7638.3520 298.6338 -9419.5696 -7638.3520 298.6338 39.9416 129.5475 30528.0224 39.9416 129.5475
ENERGY: 300000 3.7250 1.6229 3.0357 0.0000 -10829.6393 1384.6865 0.0000 0.0000 1711.1007 -7725.4685 286.8782 -9436.5692 -7661.3265 293.1142 -858.0779 -852.3520 31114.2036 -408.6138 -348.4045
ENERGY: 600000 1.3646 5.5547 3.7888 0.0000 -10801.7579 1444.4420 0.0000 0.0000 1760.3657 -7586.2420 295.1379 -9346.6077 -7623.4724 296.0972 -114.6328 -28.1829 30943.1267 -240.4409 -181.6992
ENERGY: 900000 0.6390 3.9079 2.7661 0.0000 -10862.2645 1447.1186 0.0000 0.0000 1726.3709 -7681.4621 289.4384 -9407.8330 -7645.8210 295.4925 -345.4726 -394.1302 31058.2568 -175.3557 -133.9523
ENERGY: 1200000 2.5982 4.5897 3.4606 0.0000 -10954.9854 1546.0931 0.0000 0.0000 1774.8887 -7623.3552 297.5728 -9398.2439 -7643.1688 295.9564 765.8631 829.4857 30621.7109 -105.5964 -53.2485
ENERGY: 1500000 0.5787 6.2416 2.6568 0.0000 -10943.0611 1508.4128 0.0000 0.0000 1812.0374 -7613.1337 303.8010 -9425.1711 -7638.5751 296.8338 261.7524 353.0022 30767.7623 -88.0170 -31.9185
TCL: Running FEP window  20: Lambda1 0.049999999999999684 Lambda2 0.0    [dLambda -0.049999999999999684]
TCL: Setting parameter firsttimestep to 0
TCL: Setting parameter alchLambda to 0.049999999999999684
Info: NONBONDED TABLE R-SQUARED SPACING: 0.0625
Info: NONBONDED TABLE SIZE: 705 POINTS
TCL: Setting parameter alchLambda2 to 0.0
Info: NONBONDED TABLE R-SQUARED SPACING: 0.0625
Info: NONBONDED TABLE SIZE: 705 POINTS
TCL: Running for 1500000 steps
ETITLE: TS BOND ANGLE DIHED IMPRP ELECT VDW BOUNDARY MISC KINETIC TOTAL TEMP POTENTIAL TOTALAVG TEMPAVG PRESSURE GPRESSURE VOLUME PRESSAVG GPRESSAVG
ENERGY: 0 0.5786 6.2416 2.6568 0.0000 -10943.0610 1508.0753 0.0000 0.0000 1811.1312 -7614.3774 303.6491 -9425.5086 -7614.3774 303.6491 270.5103 351.9467 30767.7623 270.5103 351.9467
ENERGY: 300000 1.5231 4.3838 3.5182 0.0000 -10783.4029 1435.4097 0.0000 0.0000 1732.8933 -7605.6748 290.5319 -9338.5681 -7594.3130 299.5155 4.1886 -13.2975 30809.5714 27.4547 78.2186
ENERGY: 600000 0.5591 6.1802 3.5723 0.0000 -10903.5394 1528.1032 0.0000 0.0000 1747.7503 -7617.3742 293.0228 -9365.1245 -7596.5818 298.6914 317.4531 401.0637 31307.6070 -17.5126 44.6800
ENERGY: 900000 0.2853 4.2753 2.6484 0.0000 -10897.2338 1517.2248 0.0000 0.0000 1782.2682 -7590.5317 298.8100 -9372.7999 -7587.8973 301.2090 568.8654 621.5484 30419.9961 320.1940 388.3638
ENERGY: 1200000 2.9164 5.1185 2.1572 0.0000 -10916.8759 1496.0162 0.0000 0.0000 1784.5588 -7626.1088 299.1940 -9410.6676 -7597.7961 301.4610 104.1891 105.1365 30793.8532 204.7259 265.5213
ENERGY: 1500000 0.3898 3.5283 2.7109 0.0000 -10971.7108 1540.0984 0.0000 0.0000 1790.6542 -7634.3292 300.2159 -9424.9834 -7596.8291 301.2271 559.4380 666.2324 30774.4384 180.9851 242.6158
TCL: Exiting due to exit command.
