Info: SIMULATION PARAMETERS:
Info: TIMESTEP               2
Info: NUMBER OF STEPS        0
Info: STEPS PER CYCLE        10
Info: PERIODIC CELL BASIS 1  33.0757 0 0
Info: PERIODIC CELL BASIS 2  0 28.312 0
Info: PERIODIC CELL BASIS 3  0 0 32.5858
Info: PERIODIC CELL CENTER   0 0 0
Info: WRAPPING WATERS AROUND PERIODIC BOUNDARIES ON OUTPUT.
Info: WRAPPING ALL CLUSTERS AROUND PERIODIC BOUNDARIES ON OUTPUT.
Info: FIRST LDB TIMESTEP     50
Info: LAST LDB TIMESTEP     -1
Info: HOM BACKGROUND SCALING 1
Info: PME BACKGROUND SCALING 1
Info: MIN ATOMS PER PATCH    40
Info: EMPTY PATCH LOAD       40 ATOMS
Info: VELOCITY FILE          mobley_2523689_equil.vel
Info: CENTER OF MASS MOVING INITIALLY? NO
Info: DIELECTRIC             1
Info: EXCLUDE                SCALED ONE-FOUR
Info: 1-4 ELECTROSTATICS SCALED BY 0.833333
Info: MODIFIED 1-4 VDW PARAMETERS WILL BE USED
Info: DCD FILENAME           mobley_2523689_prod.dcd
Info: DCD FREQUENCY          100000
Info: DCD FIRST STEP         100000
Info: DCD FILE WILL CONTAIN UNIT CELL DATA
Info: XST FILENAME           mobley_2523689_prod.xst
Info: XST FREQUENCY          100000
Info: NO VELOCITY DCD OUTPUT
Info: NO FORCE DCD OUTPUT
Info: OUTPUT FILENAME        mobley_2523689_prod
Info: BINARY OUTPUT FILES WILL BE USED
Info: RESTART FILENAME       mobley_2523689_prod.restart
Info: RESTART FREQUENCY      100000
Info: BINARY RESTART FILES WILL BE USED
Info: CUTOFF                 9
Info: PAIRLIST DISTANCE      11
Info: PAIRLIST SHRINK RATE   0.01
Info: PAIRLIST GROW RATE     0.01
Info: PAIRLIST TRIGGER       0.3
Info: PAIRLISTS PER CYCLE    2
Info: PAIRLISTS ENABLED
Info: MARGIN                 2
Info: HYDROGEN GROUP CUTOFF  2.5
Info: PATCH DIMENSION        15.5
Info: ENERGY OUTPUT STEPS    100000
Info: ENERGY EVALUATION STEPS    100000
Info: OUTPUT ENERGY PRECISION 4
Info: CROSSTERM ENERGY INCLUDED IN DIHEDRAL
Info: TIMING OUTPUT STEPS    1000000
Info: PRESSURE OUTPUT STEPS  100000
Info: ALCHEMICAL FEP ON
Info: FEP CURRENT LAMBDA VALUE     0
Info: FEP COMPARISON LAMBDA VALUE  0.05
Info: FEP INTRA-ALCHEMICAL NON-BONDED INTERACTIONS WILL BE RETAINED
Info: FEP INTRA-ALCHEMICAL BONDED INTERACTIONS WILL BE RETAINED
Info: FEP VDW SHIFTING COEFFICIENT 5
Info: FEP ELEC. ACTIVE FOR ANNIHILATED PARTICLES BETWEEN LAMBDA = 0 AND LAMBDA = 0.5
Info: FEP ELEC. ACTIVE FOR EXNIHILATED PARTICLES BETWEEN LAMBDA = 0.5 AND LAMBDA = 1
Info: FEP VDW ACTIVE FOR ANNIHILATED PARTICLES BETWEEN LAMBDA = 0 AND LAMBDA = 1
Info: FEP VDW ACTIVE FOR EXNIHILATED PARTICLES BETWEEN LAMBDA = 0 AND LAMBDA = 1
Info: FEP BOND ACTIVE FOR ANNIHILATED PARTICLES BETWEEN LAMBDA = 1 AND LAMBDA = 1
Info: FEP BOND ACTIVE FOR EXNIHILATED PARTICLES BETWEEN LAMBDA = 0 AND LAMBDA = 0
Info: LANGEVIN DYNAMICS ACTIVE
Info: LANGEVIN TEMPERATURE   300
Info: LANGEVIN USING BBK INTEGRATOR
Info: LANGEVIN DAMPING COEFFICIENT IS 1 INVERSE PS
Info: LANGEVIN DYNAMICS APPLIED TO HYDROGENS
Info: LANGEVIN PISTON PRESSURE CONTROL ACTIVE
Info:        TARGET PRESSURE IS 1.01325 BAR
Info:     OSCILLATION PERIOD IS 50 FS
Info:             DECAY TIME IS 25 FS
Info:     PISTON TEMPERATURE IS 300 K
Info:       PRESSURE CONTROL IS GROUP-BASED
Info:    INITIAL STRAIN RATE IS -0.000349893 -0.000349893 -0.000349893
Info:       CELL FLUCTUATION IS ISOTROPIC
Info: PARTICLE MESH EWALD (PME) ACTIVE
Info: PME TOLERANCE               1e-06
Info: PME EWALD COEFFICIENT       0.348832
Info: PME INTERPOLATION ORDER     4
Info: PME GRID DIMENSIONS         36 32 36
Info: PME MAXIMUM GRID SPACING    1
Info: PME CALCULATION WILL BE PERFORMED ON GPU
Info: FULL ELECTROSTATIC EVALUATION FREQUENCY      2
Info: USING VERLET I (r-RESPA) MTS SCHEME.
Info: C1 SPLITTING OF LONG RANGE ELECTROSTATICS
Info: PLACING ATOMS IN PATCHES BY HYDROGEN GROUPS
Info: RIGID BONDS TO HYDROGEN : ALL
Info:         ERROR TOLERANCE : 1e-08
Info:          MAX ITERATIONS : 100
Info: RIGID WATER USING SETTLE ALGORITHM
Info: RANDOM NUMBER SEED     1743803956
Info: USE HYDROGEN BONDS?    NO
Info: Using AMBER format force field!
Info: AMBER PARM FILE        mobley_2523689.prmtop
Info: COORDINATE PDB         mobley_2523689.pdb
Info: Exclusions will be read from PARM file!
Info: SCNB (VDW SCALING)     2
Info: USING ARITHMETIC MEAN TO COMBINE L-J SIGMA PARAMETERS
Info: BINARY COORDINATES     mobley_2523689_equil.coor
Info: SUMMARY OF PARAMETERS:
Info: 16 BONDS
Info: 21 ANGLES
Info:   21 HARMONIC
Info:   0 COSINE-BASED
Info: 10 DIHEDRAL
Info: 0 IMPROPER
Info: 0 CROSSTERM
Info: 0 VDW
Info: 45 VDW_PAIRS
Info: 0 NBTHOLE_PAIRS
Info: To read alchdata from file: mobley_2523689.pdb
Info: To read alchflag data from column: 5
Info: STRUCTURE SUMMARY:
Info: 2915 ATOMS
Info: 2916 BONDS
Info: 37 ANGLES
Info: 64 DIHEDRALS
Info: 0 IMPROPERS
Info: 0 CROSSTERMS
Info: 2999 EXCLUSIONS
Info: 2900 RIGID BONDS
Info: ALCH: 0 ATOMS TO DISAPPEAR IN FINAL STATE
Info: ALCH: 23 ATOMS TO APPEAR IN FINAL STATE
Info: 5845 DEGREES OF FREEDOM
Info: 979 HYDROGEN GROUPS
Info: 3 ATOMS IN LARGEST HYDROGEN GROUP
Info: 979 MIGRATION GROUPS
Info: 3 ATOMS IN LARGEST MIGRATION GROUP
Info: TOTAL MASS = 17589.1 amu
Info: TOTAL CHARGE = -9.99644e-05 e
Info: MASS DENSITY = 0.957179 g/cm^3
Info: ATOM DENSITY = 0.0955278 atoms/A^3
Info: ADDED 0 IMPLICIT EXCLUSIONS
Info: NONBONDED TABLE R-SQUARED SPACING: 0.0625
Info: NONBONDED TABLE SIZE: 705 POINTS
Info: REMOVING COM VELOCITY -0.0917296 0.103609 -0.0515136
Info: Use 3D box decompostion in PME FFT.
Info: Updated CUDA force table with 4096 elements.
Info: Updated CUDA LJ table with 9 x 9 elements.
Info: Found 25 unique exclusion lists needing 72 bytes
TCL: Running for 1500000 steps
ETITLE: TS BOND ANGLE DIHED IMPRP ELECT VDW BOUNDARY MISC KINETIC TOTAL TEMP POTENTIAL TOTALAVG TEMPAVG PRESSURE GPRESSURE VOLUME PRESSAVG GPRESSAVG
ENERGY: 0 5.6596 9.7101 10.7259 0.0000 -10421.1388 1402.6423 0.0000 0.0000 1684.6050 -7307.7959 290.0708 -8992.4009 -7307.7959 290.0708 -367.8702 -288.4707 30514.6785 -367.8702 -288.4707
ENERGY: 300000 10.9433 14.5266 9.9310 0.0000 -10468.1000 1446.4414 0.0000 0.0000 1763.4115 -7222.8462 303.6404 -8986.2577 -7253.9559 299.0221 -79.4783 9.6024 29880.9997 -97.2869 -15.8037
ENERGY: 600000 7.5778 7.9655 12.3792 0.0000 -10413.6083 1384.0062 0.0000 0.0000 1786.7042 -7214.9753 307.6511 -9001.6796 -7278.5656 301.7719 -278.3933 -239.0212 29957.8447 -48.7223 14.5486
ENERGY: 900000 5.3853 7.2005 9.7408 0.0000 -10497.6367 1471.7104 0.0000 0.0000 1746.1954 -7257.4044 300.6760 -9003.5997 -7282.9851 300.6709 301.1328 366.8545 29647.8550 35.8458 98.8256
ENERGY: 1200000 3.5642 8.4542 10.5367 0.0000 -10466.4832 1401.3836 0.0000 0.0000 1732.6033 -7309.9412 298.3356 -9042.5445 -7285.9000 300.2148 -64.3460 -11.4333 29729.8478 39.9434 99.8454
ENERGY: 1500000 7.0818 6.3192 10.5496 0.0000 -10475.7920 1421.3736 0.0000 0.0000 1740.5800 -7289.8879 299.7090 -9030.4678 -7292.9076 299.3835 -98.8517 -71.1331 29785.9264 52.5964 112.1728
TCL: Running FEP window   2: Lambda1 0.05   Lambda2 0.1    [dLambda 0.05  ]
TCL: Setting parameter firsttimestep to 0
TCL: Setting parameter alchLambda to 0.05
Info: NONBONDED TABLE R-SQUARED SPACING: 0.0625
Info: NONBONDED TABLE SIZE: 705 POINTS
TCL: Setting parameter alchLambda2 to 0.1
Info: NONBONDED TABLE R-SQUARED SPACING: 0.0625
Info: NONBONDED TABLE SIZE: 705 POINTS
TCL: Running for 1500000 steps
ETITLE: TS BOND ANGLE DIHED IMPRP ELECT VDW BOUNDARY MISC KINETIC TOTAL TEMP POTENTIAL TOTALAVG TEMPAVG PRESSURE GPRESSURE VOLUME PRESSAVG GPRESSAVG
ENERGY: 0 7.0818 6.3192 10.5496 0.0000 -10475.7926 1424.9563 0.0000 0.0000 1739.7114 -7287.1743 299.5595 -9026.8857 -7287.1743 299.5595 -148.2544 -63.2490 29785.9264 -148.2544 -63.2490
ENERGY: 300000 7.8046 10.8231 13.0085 0.0000 -10467.7936 1380.8701 0.0000 0.0000 1753.5389 -7301.7484 301.9404 -9055.2873 -7268.9641 302.1059 -575.2508 -429.0518 30082.0840 40.3720 134.2814
ENERGY: 600000 5.3549 7.5811 9.0887 0.0000 -10493.5553 1462.0928 0.0000 0.0000 1768.2964 -7241.1414 304.4815 -9009.4378 -7277.8978 301.1688 412.2940 399.4819 29771.1148 79.1965 135.3577
ENERGY: 900000 3.6817 12.0152 4.6111 0.0000 -10425.3960 1417.2394 0.0000 0.0000 1687.0534 -7300.7952 290.4924 -8987.8486 -7281.1098 298.9309 189.0999 150.1760 29953.4095 22.0427 73.9969
ENERGY: 1200000 5.7452 7.4319 12.2436 0.0000 -10521.7218 1411.0900 0.0000 0.0000 1843.2988 -7241.9123 317.3961 -9085.2111 -7271.8205 300.6846 -287.9006 -178.8056 30004.5341 42.6275 104.9925
ENERGY: 1500000 6.3274 8.6677 9.0866 0.0000 -10475.0748 1433.6914 0.0000 0.0000 1724.2208 -7293.0808 296.8922 -9017.3016 -7273.3717 300.3373 -73.5798 -35.0675 29872.9686 57.3591 122.4658
TCL: Running FEP window   3: Lambda1 0.1    Lambda2 0.15000000000000002 [dLambda 0.05000000000000002]
TCL: Setting parameter firsttimestep to 0
TCL: Setting parameter alchLambda to 0.1
Info: NONBONDED TABLE R-SQUARED SPACING: 0.0625
Info: NONBONDED TABLE SIZE: 705 POINTS
TCL: Setting parameter alchLambda2 to 0.15000000000000002
Info: NONBONDED TABLE R-SQUARED SPACING: 0.0625
Info: NONBONDED TABLE SIZE: 705 POINTS
TCL: Running for 1500000 steps
ETITLE: TS BOND ANGLE DIHED IMPRP ELECT VDW BOUNDARY MISC KINETIC TOTAL TEMP POTENTIAL TOTALAVG TEMPAVG PRESSURE GPRESSURE VOLUME PRESSAVG GPRESSAVG
ENERGY: 0 6.3274 8.6677 9.0866 0.0000 -10475.0746 1437.4620 0.0000 0.0000 1723.3566 -7290.1742 296.7434 -9013.5308 -7290.1742 296.7434 -89.2150 -15.7732 29872.9686 -89.2150 -15.7732
ENERGY: 300000 7.1390 11.2500 10.2080 0.0000 -10453.3620 1335.5275 0.0000 0.0000 1747.8407 -7341.3968 300.9593 -9089.2375 -7335.5489 294.6215 -1303.6931 -1223.5207 30488.3450 -668.0229 -593.9898
ENERGY: 600000 4.3490 11.1989 13.2911 0.0000 -10472.4727 1412.2722 0.0000 0.0000 1728.3094 -7303.0522 297.5962 -9031.3616 -7307.3118 298.0015 123.0248 227.0850 29407.0555 -388.1318 -318.3938
ENERGY: 900000 6.0900 6.2191 13.4139 0.0000 -10358.4652 1382.3815 0.0000 0.0000 1730.5643 -7219.7965 297.9844 -8950.3607 -7288.1145 298.2967 -287.5127 -299.3147 30400.7371 -340.9131 -283.5936
ENERGY: 1200000 6.5475 6.3994 11.9851 0.0000 -10471.5722 1409.6620 0.0000 0.0000 1732.0914 -7304.8867 298.2474 -9036.9781 -7292.2829 298.9477 -193.6955 -158.2326 29873.6901 -267.4518 -205.6891
ENERGY: 1500000 3.6614 7.5879 6.7904 0.0000 -10630.9870 1513.4524 0.0000 0.0000 1724.7461 -7374.7489 296.9826 -9099.4950 -7296.4687 298.9265 496.2593 584.8421 29837.7276 -164.4209 -104.3460
TCL: Running FEP window   4: Lambda1 0.15000000000000002 Lambda2 0.2    [dLambda 0.04999999999999999]
TCL: Setting parameter firsttimestep to 0
TCL: Setting parameter alchLambda to 0.15000000000000002
Info: NONBONDED TABLE R-SQUARED SPACING: 0.0625
Info: NONBONDED TABLE SIZE: 705 POINTS
TCL: Setting parameter alchLambda2 to 0.2
Info: NONBONDED TABLE R-SQUARED SPACING: 0.0625
Info: NONBONDED TABLE SIZE: 705 POINTS
TCL: Running for 1500000 steps
ETITLE: TS BOND ANGLE DIHED IMPRP ELECT VDW BOUNDARY MISC KINETIC TOTAL TEMP POTENTIAL TOTALAVG TEMPAVG PRESSURE GPRESSURE VOLUME PRESSAVG GPRESSAVG
ENERGY: 0 3.6613 7.5879 6.7904 0.0000 -10630.9874 1514.3153 0.0000 0.0000 1723.8712 -7374.7614 296.8320 -9098.6326 -7374.7614 296.8320 514.4131 594.2259 29837.7276 514.4131 594.2259
ENERGY: 300000 9.2436 10.7615 11.8147 0.0000 -10561.2177 1502.7605 0.0000 0.0000 1711.5186 -7315.1189 294.7050 -9026.6374 -7322.6789 300.7517 486.2809 539.4691 30075.3177 56.7774 127.2287
ENERGY: 600000 7.0365 9.3716 12.2281 0.0000 -10530.4916 1505.2269 0.0000 0.0000 1717.3764 -7279.2522 295.7136 -8996.6286 -7309.3440 300.8558 718.6481 836.6322 29955.5239 160.0995 218.7130
ENERGY: 900000 6.0965 8.3714 7.8238 0.0000 -10523.1670 1510.9386 0.0000 0.0000 1762.7526 -7227.1840 303.5269 -8989.9366 -7284.1611 300.0848 642.0576 646.8342 30065.4486 58.1788 108.9857
ENERGY: 1200000 4.8247 4.4355 10.2783 0.0000 -10501.8480 1496.7803 0.0000 0.0000 1715.5312 -7269.9980 295.3959 -8985.5292 -7288.3472 299.6595 669.2321 734.0616 29985.6816 108.0221 159.1519
ENERGY: 1500000 6.9832 9.2156 10.5328 0.0000 -10464.0459 1385.7333 0.0000 0.0000 1754.4885 -7297.0924 302.1040 -9051.5809 -7285.8642 299.7461 -260.7043 -184.2346 29465.1156 55.9127 113.7808
TCL: Running FEP window   5: Lambda1 0.2    Lambda2 0.25   [dLambda 0.04999999999999999]
TCL: Setting parameter firsttimestep to 0
TCL: Setting parameter alchLambda to 0.2
Info: NONBONDED TABLE R-SQUARED SPACING: 0.0625
Info: NONBONDED TABLE SIZE: 705 POINTS
TCL: Setting parameter alchLambda2 to 0.25
Info: NONBONDED TABLE R-SQUARED SPACING: 0.0625
Info: NONBONDED TABLE SIZE: 705 POINTS
TCL: Running for 1500000 steps
ETITLE: TS BOND ANGLE DIHED IMPRP ELECT VDW BOUNDARY MISC KINETIC TOTAL TEMP POTENTIAL TOTALAVG TEMPAVG PRESSURE GPRESSURE VOLUME PRESSAVG GPRESSAVG
ENERGY: 0 6.9832 9.2156 10.5328 0.0000 -10464.0456 1385.3028 0.0000 0.0000 1753.5954 -7298.4158 301.9502 -9052.0112 -7298.4158 301.9502 -263.5108 -179.8166 29465.1156 -263.5108 -179.8166
ENERGY: 300000 7.4757 8.5615 7.7947 0.0000 -10492.2931 1437.7686 0.0000 0.0000 1832.0595 -7198.6331 315.4608 -9030.6926 -7216.8845 307.3338 -9.1829 9.5513 30335.9325 -242.3166 -191.0328
ENERGY: 600000 5.0481 8.6088 4.9483 0.0000 -10560.5700 1496.9453 0.0000 0.0000 1713.4267 -7331.5928 295.0336 -9045.0195 -7263.9477 302.6577 727.0461 769.4192 29686.3133 -211.2373 -154.5123
ENERGY: 900000 11.1455 12.0888 7.8129 0.0000 -10222.3154 1274.2504 0.0000 0.0000 1707.1039 -7209.9139 293.9448 -8917.0178 -7255.6475 301.7629 -749.7998 -788.9860 29919.9255 -160.1112 -112.6970
ENERGY: 1200000 4.9493 14.9705 9.6431 0.0000 -10440.0290 1374.5766 0.0000 0.0000 1661.1627 -7374.7268 286.0343 -9035.8895 -7258.3339 301.0845 -345.7604 -252.4929 29690.4893 -179.0282 -121.3581
ENERGY: 1500000 7.7279 8.1432 8.4032 0.0000 -10414.7445 1379.8245 0.0000 0.0000 1724.5251 -7286.1205 296.9446 -9010.6456 -7264.5887 300.1848 -403.7246 -385.9142 30209.7073 -166.5886 -109.8746
TCL: Running FEP window   6: Lambda1 0.25   Lambda2 0.3    [dLambda 0.04999999999999999]
TCL: Setting parameter firsttimestep to 0
TCL: Setting parameter alchLambda to 0.25
Info: NONBONDED TABLE R-SQUARED SPACING: 0.0625
Info: NONBONDED TABLE SIZE: 705 POINTS
TCL: Setting parameter alchLambda2 to 0.3
Info: NONBONDED TABLE R-SQUARED SPACING: 0.0625
Info: NONBONDED TABLE SIZE: 705 POINTS
TCL: Running for 1500000 steps
ETITLE: TS BOND ANGLE DIHED IMPRP ELECT VDW BOUNDARY MISC KINETIC TOTAL TEMP POTENTIAL TOTALAVG TEMPAVG PRESSURE GPRESSURE VOLUME PRESSAVG GPRESSAVG
ENERGY: 0 7.7279 8.1432 8.4032 0.0000 -10414.7443 1379.7375 0.0000 0.0000 1723.6520 -7287.0804 296.7942 -9010.7324 -7287.0804 296.7942 -475.5807 -379.7618 30209.7073 -475.5807 -379.7618
ENERGY: 300000 4.7945 6.7216 7.3517 0.0000 -10460.4813 1414.8063 0.0000 0.0000 1728.9242 -7297.8831 297.7020 -9026.8073 -7281.4399 296.0022 18.5118 38.2803 29763.5450 -237.7497 -186.5561
ENERGY: 600000 6.3709 12.9061 6.9358 0.0000 -10286.2877 1325.1453 0.0000 0.0000 1729.1238 -7205.8058 297.7364 -8934.9296 -7259.4220 296.8343 -469.0665 -416.1493 30178.6344 -126.0440 -46.7826
ENERGY: 900000 6.0547 6.5590 6.7542 0.0000 -10569.1652 1440.0715 0.0000 0.0000 1747.8192 -7361.9067 300.9556 -9109.7258 -7263.4608 299.4416 135.5724 203.8588 29471.3278 109.2492 184.6570
ENERGY: 1200000 3.0737 7.3622 7.0860 0.0000 -10501.9551 1415.3888 0.0000 0.0000 1797.7678 -7271.2766 309.5562 -9069.0443 -7269.6287 299.9227 -431.6065 -322.9271 30327.9361 71.2693 145.2430
ENERGY: 1500000 7.4384 7.2120 9.9692 0.0000 -10535.8211 1448.9561 0.0000 0.0000 1738.0971 -7324.1482 299.2815 -9062.2453 -7283.2501 299.1832 425.4824 556.0921 29573.8217 108.3185 179.7677
TCL: Running FEP window   7: Lambda1 0.3    Lambda2 0.35   [dLambda 0.04999999999999999]
TCL: Setting parameter firsttimestep to 0
TCL: Setting parameter alchLambda to 0.3
Info: NONBONDED TABLE R-SQUARED SPACING: 0.0625
Info: NONBONDED TABLE SIZE: 705 POINTS
TCL: Setting parameter alchLambda2 to 0.35
Info: NONBONDED TABLE R-SQUARED SPACING: 0.0625
Info: NONBONDED TABLE SIZE: 705 POINTS
TCL: Running for 1500000 steps
ETITLE: TS BOND ANGLE DIHED IMPRP ELECT VDW BOUNDARY MISC KINETIC TOTAL TEMP POTENTIAL TOTALAVG TEMPAVG PRESSURE GPRESSURE VOLUME PRESSAVG GPRESSAVG
ENERGY: 0 7.4384 7.2120 9.9692 0.0000 -10535.8197 1448.1913 0.0000 0.0000 1737.2384 -7325.7704 299.1337 -9063.0088 -7325.7704 299.1337 477.0978 556.0964 29573.8217 477.0978 556.0964
ENERGY: 300000 7.1035 7.4919 10.1557 0.0000 -10433.1507 1368.4763 0.0000 0.0000 1734.0516 -7305.8716 298.5849 -9039.9232 -7299.5033 298.5431 -370.7594 -351.2529 29903.4284 -43.0800 -0.6799
ENERGY: 600000 5.4693 8.5333 9.6254 0.0000 -10494.9508 1416.4163 0.0000 0.0000 1762.0306 -7292.8760 303.4026 -9054.9066 -7280.0688 301.5653 -137.9035 -143.4553 29960.0515 -33.1762 19.1904
ENERGY: 900000 2.9304 9.1607 9.7352 0.0000 -10523.6529 1456.7993 0.0000 0.0000 1731.6347 -7313.3926 298.1688 -9045.0273 -7266.0009 302.1042 413.4933 531.4063 29737.4130 -9.3878 56.8818
ENERGY: 1200000 5.8375 11.7487 6.0612 0.0000 -10554.3347 1524.8183 0.0000 0.0000 1766.7139 -7239.1551 304.2090 -9005.8690 -7280.2230 300.8819 725.9398 836.1117 30062.5699 8.5374 74.3781
ENERGY: 1500000 7.3457 12.5294 8.1679 0.0000 -10462.7293 1399.1879 0.0000 0.0000 1784.8485 -7250.6498 307.3316 -9035.4984 -7277.9694 301.5239 -328.9848 -237.9968 29811.2127 14.3795 79.3049
TCL: Running FEP window   8: Lambda1 0.35   Lambda2 0.39999999999999997 [dLambda 0.04999999999999999]
TCL: Setting parameter firsttimestep to 0
TCL: Setting parameter alchLambda to 0.35
Info: NONBONDED TABLE R-SQUARED SPACING: 0.0625
Info: NONBONDED TABLE SIZE: 705 POINTS
TCL: Setting parameter alchLambda2 to 0.39999999999999997
Info: NONBONDED TABLE R-SQUARED SPACING: 0.0625
Info: NONBONDED TABLE SIZE: 705 POINTS
TCL: Running for 1500000 steps
ETITLE: TS BOND ANGLE DIHED IMPRP ELECT VDW BOUNDARY MISC KINETIC TOTAL TEMP POTENTIAL TOTALAVG TEMPAVG PRESSURE GPRESSURE VOLUME PRESSAVG GPRESSAVG
ENERGY: 0 7.3457 12.5294 8.1679 0.0000 -10462.7299 1398.9659 0.0000 0.0000 1783.9840 -7251.7370 307.1827 -9035.7209 -7251.7370 307.1827 -314.3506 -234.5200 29811.2127 -314.3506 -234.5200
ENERGY: 300000 6.1638 9.8274 12.6460 0.0000 -10643.5637 1498.8620 0.0000 0.0000 1793.4118 -7322.6527 308.8061 -9116.0645 -7291.1544 304.6836 547.4223 563.6053 29636.4288 -242.6375 -172.0239
ENERGY: 600000 7.9638 14.3593 12.6166 0.0000 -10515.1852 1428.2890 0.0000 0.0000 1782.2478 -7269.7088 306.8838 -9051.9566 -7289.0427 303.6829 -114.4600 -25.4701 29932.3963 -0.5462 72.6183
ENERGY: 900000 3.9003 7.6183 10.3048 0.0000 -10366.9982 1411.3889 0.0000 0.0000 1738.0633 -7195.7226 299.2757 -8933.7859 -7277.3384 302.2003 163.1533 227.9535 29987.9673 -64.7937 11.5416
ENERGY: 1200000 4.1075 9.8310 11.3470 0.0000 -10438.0409 1344.0567 0.0000 0.0000 1743.8678 -7324.8309 300.2752 -9068.6987 -7273.3816 301.8864 -669.8804 -602.4626 29808.8769 -17.9145 49.5367
ENERGY: 1500000 7.8354 11.7208 12.5950 0.0000 -10468.9839 1402.7691 0.0000 0.0000 1740.1887 -7293.8750 299.6417 -9034.0637 -7273.5424 301.1045 14.1828 111.2480 29626.1632 4.2283 73.0758
TCL: Running FEP window   9: Lambda1 0.39999999999999997 Lambda2 0.44999999999999996 [dLambda 0.04999999999999999]
TCL: Setting parameter firsttimestep to 0
TCL: Setting parameter alchLambda to 0.39999999999999997
Info: NONBONDED TABLE R-SQUARED SPACING: 0.0625
Info: NONBONDED TABLE SIZE: 705 POINTS
TCL: Setting parameter alchLambda2 to 0.44999999999999996
Info: NONBONDED TABLE R-SQUARED SPACING: 0.0625
Info: NONBONDED TABLE SIZE: 705 POINTS
TCL: Running for 1500000 steps
ETITLE: TS BOND ANGLE DIHED IMPRP ELECT VDW BOUNDARY MISC KINETIC TOTAL TEMP POTENTIAL TOTALAVG TEMPAVG PRESSURE GPRESSURE VOLUME PRESSAVG GPRESSAVG
ENERGY: 0 7.8354 11.7208 12.5950 0.0000 -10468.9835 1402.7097 0.0000 0.0000 1739.3284 -7294.7943 299.4935 -9034.1227 -7294.7943 299.4935 42.4208 121.5618 29626.1632 42.4208 121.5618
ENERGY: 300000 6.4483 11.5643 6.9087 0.0000 -10674.8648 1518.5412 0.0000 0.0000 1779.1498 -7352.2525 306.3503 -9131.4023 -7348.0015 298.6988 854.0376 915.5842 29489.2840 139.9333 215.8686
ENERGY: 600000 6.8617 7.8249 5.9203 0.0000 -10497.0773 1405.4399 0.0000 0.0000 1740.9075 -7330.1231 299.7654 -9071.0306 -7350.7650 297.6198 -21.4419 21.8505 29437.9380 -45.4734 23.2884
ENERGY: 900000 3.7595 6.2391 8.6953 0.0000 -10505.4540 1410.4019 0.0000 0.0000 1735.6215 -7340.7366 298.8553 -9076.3582 -7327.4701 298.4953 19.0088 77.5234 29772.2667 -103.2518 -42.6822
ENERGY: 1200000 5.6165 5.2666 9.5690 0.0000 -10570.0161 1464.9964 0.0000 0.0000 1737.4506 -7347.1171 299.1702 -9084.5676 -7330.8005 298.4719 408.7532 420.5434 29867.7346 -140.8343 -82.7999
ENERGY: 1500000 5.9252 8.4672 12.7898 0.0000 -10381.6777 1438.6851 0.0000 0.0000 1730.9011 -7184.9094 298.0424 -8915.8104 -7310.4899 299.8258 420.9506 515.5238 30070.3267 -135.5714 -78.7839
TCL: Running FEP window  10: Lambda1 0.44999999999999996 Lambda2 0.49999999999999994 [dLambda 0.04999999999999999]
TCL: Setting parameter firsttimestep to 0
TCL: Setting parameter alchLambda to 0.44999999999999996
Info: NONBONDED TABLE R-SQUARED SPACING: 0.0625
Info: NONBONDED TABLE SIZE: 705 POINTS
TCL: Setting parameter alchLambda2 to 0.49999999999999994
Info: NONBONDED TABLE R-SQUARED SPACING: 0.0625
Info: NONBONDED TABLE SIZE: 705 POINTS
TCL: Running for 1500000 steps
ETITLE: TS BOND ANGLE DIHED IMPRP ELECT VDW BOUNDARY MISC KINETIC TOTAL TEMP POTENTIAL TOTALAVG TEMPAVG PRESSURE GPRESSURE VOLUME PRESSAVG GPRESSAVG
ENERGY: 0 5.9252 8.4672 12.7898 0.0000 -10381.6781 1438.7237 0.0000 0.0000 1730.0839 -7185.6883 297.9017 -8915.7722 -7185.6883 297.9017 448.7527 525.4571 30070.3267 448.7527 525.4571
ENERGY: 300000 9.6153 8.4738 7.8622 0.0000 -10347.2787 1347.8515 0.0000 0.0000 1773.6547 -7199.8212 305.4042 -8973.4759 -7240.7553 302.5046 -258.6621 -216.2528 29660.5427 -99.8696 -41.7372
ENERGY: 600000 4.3445 8.1442 6.0757 0.0000 -10445.3279 1396.6014 0.0000 0.0000 1719.5588 -7310.6033 296.0894 -9030.1621 -7245.9282 302.3461 -443.0123 -379.0073 30334.9227 4.6549 71.7954
ENERGY: 900000 7.9119 10.1340 8.3722 0.0000 -10559.0124 1484.1950 0.0000 0.0000 1745.7899 -7302.6094 300.6061 -9048.3992 -7263.0689 301.7412 473.5882 430.5499 29795.2731 35.4877 91.0304
ENERGY: 1200000 3.5591 8.2098 7.2172 0.0000 -10612.5833 1499.5613 0.0000 0.0000 1767.3823 -7326.6537 304.3241 -9094.0360 -7276.8918 301.3826 778.9431 892.3780 29361.0600 83.1506 153.7319
ENERGY: 1500000 2.9895 14.9129 10.4958 0.0000 -10348.3087 1355.3654 0.0000 0.0000 1810.2711 -7154.2741 311.7091 -8964.5452 -7275.8286 301.8539 -435.2383 -386.6003 30192.6990 16.6119 81.9527
TCL: Running FEP window  11: Lambda1 0.49999999999999994 Lambda2 0.5499999999999999 [dLambda 0.04999999999999999]
TCL: Setting parameter firsttimestep to 0
TCL: Setting parameter alchLambda to 0.49999999999999994
Info: NONBONDED TABLE R-SQUARED SPACING: 0.0625
Info: NONBONDED TABLE SIZE: 705 POINTS
TCL: Setting parameter alchLambda2 to 0.5499999999999999
Info: NONBONDED TABLE R-SQUARED SPACING: 0.0625
Info: NONBONDED TABLE SIZE: 705 POINTS
TCL: Running for 1500000 steps
ETITLE: TS BOND ANGLE DIHED IMPRP ELECT VDW BOUNDARY MISC KINETIC TOTAL TEMP POTENTIAL TOTALAVG TEMPAVG PRESSURE GPRESSURE VOLUME PRESSAVG GPRESSAVG
ENERGY: 0 2.9895 14.9129 10.4958 0.0000 -10348.3089 1355.8850 0.0000 0.0000 1809.3980 -7154.6278 311.5588 -8964.0258 -7154.6278 311.5588 -456.0252 -373.4738 30192.6990 -456.0252 -373.4738
ENERGY: 300000 2.9049 7.0392 8.9713 0.0000 -10515.4794 1378.1746 0.0000 0.0000 1738.4648 -7379.9246 299.3448 -9118.3894 -7312.3808 301.9708 -356.5203 -244.4026 29643.1139 -437.6768 -370.9515
ENERGY: 600000 4.6403 11.2984 11.5911 0.0000 -10498.2713 1421.1636 0.0000 0.0000 1755.1743 -7294.4035 302.2220 -9049.5779 -7322.3457 300.4586 78.1673 129.2837 30096.9522 -44.7162 15.2674
ENERGY: 900000 6.3408 7.3217 7.5477 0.0000 -10631.4082 1462.4243 0.0000 0.0000 1772.5330 -7375.2407 305.2110 -9147.7737 -7311.2120 301.9394 457.4858 478.2837 29121.9632 -122.1766 -67.6528
ENERGY: 1200000 8.6726 8.9111 9.8885 0.0000 -10493.0301 1431.3301 0.0000 0.0000 1708.1494 -7326.0784 294.1249 -9034.2278 -7317.4824 300.6784 291.7523 399.8120 29696.2049 -50.1323 4.0924
ENERGY: 1500000 4.6064 7.6681 6.1983 0.0000 -10551.4350 1482.0733 0.0000 0.0000 1762.3474 -7288.5415 303.4572 -9050.8890 -7318.1904 300.4943 432.0021 545.3916 29477.6058 -30.4426 24.9632
TCL: Running FEP window  12: Lambda1 0.5499999999999999 Lambda2 0.6    [dLambda 0.050000000000000044]
TCL: Setting parameter firsttimestep to 0
TCL: Setting parameter alchLambda to 0.5499999999999999
Info: NONBONDED TABLE R-SQUARED SPACING: 0.0625
Info: NONBONDED TABLE SIZE: 705 POINTS
TCL: Setting parameter alchLambda2 to 0.6
Info: NONBONDED TABLE R-SQUARED SPACING: 0.0625
Info: NONBONDED TABLE SIZE: 705 POINTS
TCL: Running for 1500000 steps
ETITLE: TS BOND ANGLE DIHED IMPRP ELECT VDW BOUNDARY MISC KINETIC TOTAL TEMP POTENTIAL TOTALAVG TEMPAVG PRESSURE GPRESSURE VOLUME PRESSAVG GPRESSAVG
ENERGY: 0 4.6064 7.6681 6.1983 0.0000 -10550.8789 1482.3965 0.0000 0.0000 1761.4562 -7288.5535 303.3037 -9050.0097 -7288.5535 303.3037 478.7547 564.2103 29477.6058 478.7547 564.2103
ENERGY: 300000 3.2736 8.2798 8.9405 0.0000 -10642.1058 1515.2801 0.0000 0.0000 1726.0906 -7380.2412 297.2141 -9106.3318 -7298.9202 301.7486 751.9057 816.0920 29882.3948 312.7327 400.4595
ENERGY: 600000 3.4506 10.0782 12.3349 0.0000 -10500.6721 1460.8490 0.0000 0.0000 1703.9130 -7310.0464 293.3954 -9013.9594 -7284.9781 300.2402 513.3273 575.6707 29837.6207 179.3278 265.2218
ENERGY: 900000 3.7710 11.5026 10.7816 0.0000 -10494.6115 1444.0281 0.0000 0.0000 1734.5571 -7289.9711 298.6720 -9024.5282 -7280.5328 299.8762 89.4027 94.6277 30600.6121 164.0197 238.0220
ENERGY: 1200000 7.7200 10.0180 9.4078 0.0000 -10242.3403 1281.1394 0.0000 0.0000 1708.8908 -7225.1643 294.2525 -8934.0551 -7282.9480 299.7923 -910.1680 -864.3639 30121.5841 123.4244 191.1110
ENERGY: 1500000 6.4538 8.3996 5.3173 0.0000 -10571.1635 1504.2733 0.0000 0.0000 1706.1409 -7340.5786 293.7790 -9046.7195 -7285.4399 299.7193 442.7557 482.6466 30119.0279 161.4095 223.6329
TCL: Running FEP window  13: Lambda1 0.6    Lambda2 0.65   [dLambda 0.050000000000000044]
TCL: Setting parameter firsttimestep to 0
TCL: Setting parameter alchLambda to 0.6
Info: NONBONDED TABLE R-SQUARED SPACING: 0.0625
Info: NONBONDED TABLE SIZE: 705 POINTS
TCL: Setting parameter alchLambda2 to 0.65
Info: NONBONDED TABLE R-SQUARED SPACING: 0.0625
Info: NONBONDED TABLE SIZE: 705 POINTS
TCL: Running for 1500000 steps
ETITLE: TS BOND ANGLE DIHED IMPRP ELECT VDW BOUNDARY MISC KINETIC TOTAL TEMP POTENTIAL TOTALAVG TEMPAVG PRESSURE GPRESSURE VOLUME PRESSAVG GPRESSAVG
ENERGY: 0 6.4537 8.3996 5.3173 0.0000 -10570.6777 1503.8873 0.0000 0.0000 1705.2855 -7341.3343 293.6317 -9046.6198 -7341.3343 293.6317 432.5283 491.9063 30119.0279 432.5283 491.9063
ENERGY: 300000 2.5220 10.3526 9.5947 0.0000 -10476.0808 1450.6520 0.0000 0.0000 1674.8043 -7328.1553 288.3832 -9002.9595 -7310.4889 295.5187 306.4866 413.6894 30126.2072 112.0578 185.7567
ENERGY: 600000 4.1213 8.0241 5.9218 0.0000 -10673.9876 1487.7507 0.0000 0.0000 1835.8905 -7332.2792 316.1205 -9168.1697 -7306.0895 300.7320 357.0719 409.4660 29554.6898 180.6004 248.7920
ENERGY: 900000 2.8517 9.4556 5.0332 0.0000 -10464.3010 1419.2332 0.0000 0.0000 1674.2607 -7353.4666 288.2896 -9027.7273 -7310.3260 299.2718 218.4338 298.9675 29993.2595 117.3581 192.4847
ENERGY: 1200000 7.2057 7.4094 10.3287 0.0000 -10453.4480 1417.0953 0.0000 0.0000 1774.9413 -7236.4675 305.6257 -9011.4088 -7306.4169 299.9095 -112.7776 -53.6932 30064.2519 82.7840 152.0532
ENERGY: 1500000 4.8675 5.8632 9.0400 0.0000 -10513.8218 1436.3591 0.0000 0.0000 1682.0091 -7375.6829 289.6238 -9057.6920 -7310.2749 299.6794 -110.3356 -80.8772 30192.6132 51.9862 121.6662
TCL: Running FEP window  14: Lambda1 0.65   Lambda2 0.7000000000000001 [dLambda 0.050000000000000044]
TCL: Setting parameter firsttimestep to 0
TCL: Setting parameter alchLambda to 0.65
Info: NONBONDED TABLE R-SQUARED SPACING: 0.0625
Info: NONBONDED TABLE SIZE: 705 POINTS
TCL: Setting parameter alchLambda2 to 0.7000000000000001
Info: NONBONDED TABLE R-SQUARED SPACING: 0.0625
Info: NONBONDED TABLE SIZE: 705 POINTS
TCL: Running for 1500000 steps
ETITLE: TS BOND ANGLE DIHED IMPRP ELECT VDW BOUNDARY MISC KINETIC TOTAL TEMP POTENTIAL TOTALAVG TEMPAVG PRESSURE GPRESSURE VOLUME PRESSAVG GPRESSAVG
ENERGY: 0 4.8675 5.8632 9.0400 0.0000 -10515.7134 1436.5663 0.0000 0.0000 1681.1369 -7378.2394 289.4736 -9059.3763 -7378.2394 289.4736 -144.7286 -68.2650 30192.6132 -144.7286 -68.2650
ENERGY: 300000 6.0485 11.4826 6.7283 0.0000 -10471.1448 1400.1633 0.0000 0.0000 1760.9220 -7285.8003 303.2117 -9046.7222 -7323.8929 298.6999 -112.0968 -62.6066 29862.2195 -121.7955 -56.1861
ENERGY: 600000 7.3576 7.8771 8.2365 0.0000 -10347.9365 1293.5326 0.0000 0.0000 1777.0877 -7253.8450 305.9953 -9030.9327 -7313.8244 298.7187 -818.6593 -785.9085 30033.7542 -203.5434 -147.6922
ENERGY: 900000 5.8251 14.4721 9.2164 0.0000 -10462.7939 1370.2604 0.0000 0.0000 1731.5137 -7331.5062 298.1479 -9063.0199 -7311.1462 299.7397 -763.5344 -611.4305 30396.5315 -320.2986 -250.1228
ENERGY: 1200000 6.8967 10.1138 9.5927 0.0000 -10543.8429 1460.6305 0.0000 0.0000 1748.5737 -7308.0356 301.0855 -9056.6092 -7321.8852 298.9963 126.6717 120.7201 30129.4947 -225.9137 -157.6966
ENERGY: 1500000 4.6381 8.1041 11.2290 0.0000 -10497.8704 1474.9224 0.0000 0.0000 1727.5480 -7271.4289 297.4651 -8998.9769 -7318.9298 299.3895 290.6457 368.9994 30185.3858 -106.6731 -39.7429
TCL: Running FEP window  15: Lambda1 0.7000000000000001 Lambda2 0.7500000000000001 [dLambda 0.050000000000000044]
TCL: Setting parameter firsttimestep to 0
TCL: Setting parameter alchLambda to 0.7000000000000001
Info: NONBONDED TABLE R-SQUARED SPACING: 0.0625
Info: NONBONDED TABLE SIZE: 705 POINTS
TCL: Setting parameter alchLambda2 to 0.7500000000000001
Info: NONBONDED TABLE R-SQUARED SPACING: 0.0625
Info: NONBONDED TABLE SIZE: 705 POINTS
TCL: Running for 1500000 steps
ETITLE: TS BOND ANGLE DIHED IMPRP ELECT VDW BOUNDARY MISC KINETIC TOTAL TEMP POTENTIAL TOTALAVG TEMPAVG PRESSURE GPRESSURE VOLUME PRESSAVG GPRESSAVG
ENERGY: 0 4.6381 8.1041 11.2290 0.0000 -10499.2394 1474.7386 0.0000 0.0000 1726.6555 -7273.8742 297.3114 -9000.5297 -7273.8742 297.3114 313.7945 377.6326 30185.3858 313.7945 377.6326
ENERGY: 300000 9.7044 7.1593 6.1535 0.0000 -10376.7428 1347.9861 0.0000 0.0000 1725.7014 -7280.0381 297.1471 -9005.7395 -7285.2948 298.6134 -609.7653 -568.6700 30276.2089 -41.9617 16.7322
ENERGY: 600000 5.2057 7.9770 7.4447 0.0000 -10536.7786 1484.7213 0.0000 0.0000 1768.2252 -7263.2048 304.4693 -9031.4299 -7279.2045 301.5958 648.9875 679.8816 30038.8484 31.7973 74.6012
ENERGY: 900000 5.9913 8.8550 9.1441 0.0000 -10677.7525 1501.0602 0.0000 0.0000 1709.0704 -7443.6315 294.2834 -9152.7019 -7304.4559 301.0193 504.3364 544.3190 29736.7622 36.2811 86.4994
ENERGY: 1200000 6.1947 9.2455 6.4623 0.0000 -10384.3175 1355.7996 0.0000 0.0000 1720.6964 -7285.9190 296.2853 -9006.6153 -7300.5962 300.2585 -514.1620 -411.1433 30009.2997 -7.8041 46.2602
ENERGY: 1500000 2.0359 8.5122 8.6749 0.0000 -10488.5895 1394.4753 0.0000 0.0000 1761.4808 -7313.4104 303.3079 -9074.8912 -7290.1957 301.5220 -194.8599 -118.4975 30113.6939 -65.9144 -12.0141
TCL: Running FEP window  16: Lambda1 0.7500000000000001 Lambda2 0.8000000000000002 [dLambda 0.050000000000000044]
TCL: Setting parameter firsttimestep to 0
TCL: Setting parameter alchLambda to 0.7500000000000001
Info: NONBONDED TABLE R-SQUARED SPACING: 0.0625
Info: NONBONDED TABLE SIZE: 705 POINTS
TCL: Setting parameter alchLambda2 to 0.8000000000000002
Info: NONBONDED TABLE R-SQUARED SPACING: 0.0625
Info: NONBONDED TABLE SIZE: 705 POINTS
TCL: Running for 1500000 steps
ETITLE: TS BOND ANGLE DIHED IMPRP ELECT VDW BOUNDARY MISC KINETIC TOTAL TEMP POTENTIAL TOTALAVG TEMPAVG PRESSURE GPRESSURE VOLUME PRESSAVG GPRESSAVG
ENERGY: 0 2.0359 8.5122 8.6749 0.0000 -10489.1481 1394.1565 0.0000 0.0000 1760.6685 -7315.1001 303.1681 -9075.7687 -7315.1001 303.1681 -183.1501 -107.5529 30113.6939 -183.1501 -107.5529
ENERGY: 300000 5.8397 5.6643 12.3425 0.0000 -10373.7431 1370.4307 0.0000 0.0000 1744.6113 -7234.8547 300.4032 -8979.4660 -7323.4174 300.0903 -164.3694 -88.9113 29960.9883 -91.5029 -35.8885
ENERGY: 600000 5.2634 6.2282 8.2251 0.0000 -10560.5417 1461.9369 0.0000 0.0000 1769.4427 -7309.4453 304.6789 -9078.8881 -7315.5248 302.2487 252.8537 375.2194 30275.9410 44.2721 100.0043
ENERGY: 900000 6.1328 12.6483 8.4209 0.0000 -10628.6137 1515.7820 0.0000 0.0000 1754.3615 -7331.2681 302.0821 -9085.6297 -7312.3580 300.0801 695.2335 774.3082 29891.2356 45.8252 108.9202
ENERGY: 1200000 7.6415 5.9806 10.6321 0.0000 -10427.9564 1350.3372 0.0000 0.0000 1767.5504 -7285.8146 304.3531 -9053.3650 -7309.0299 300.5253 -865.9028 -805.6245 30378.2940 -117.6242 -57.6707
ENERGY: 1500000 5.0743 12.1902 5.3611 0.0000 -10712.4210 1531.6057 0.0000 0.0000 1705.7562 -7452.4336 293.7128 -9158.1899 -7311.5190 300.3352 810.3962 810.9869 29728.9167 -47.7782 7.3166
TCL: Running FEP window  17: Lambda1 0.8000000000000002 Lambda2 0.8500000000000002 [dLambda 0.050000000000000044]
TCL: Setting parameter firsttimestep to 0
TCL: Setting parameter alchLambda to 0.8000000000000002
Info: NONBONDED TABLE R-SQUARED SPACING: 0.0625
Info: NONBONDED TABLE SIZE: 705 POINTS
TCL: Setting parameter alchLambda2 to 0.8500000000000002
Info: NONBONDED TABLE R-SQUARED SPACING: 0.0625
Info: NONBONDED TABLE SIZE: 705 POINTS
TCL: Running for 1500000 steps
ETITLE: TS BOND ANGLE DIHED IMPRP ELECT VDW BOUNDARY MISC KINETIC TOTAL TEMP POTENTIAL TOTALAVG TEMPAVG PRESSURE GPRESSURE VOLUME PRESSAVG GPRESSAVG
ENERGY: 0 5.0743 12.1902 5.3611 0.0000 -10714.5895 1531.0736 0.0000 0.0000 1704.8994 -7455.9910 293.5652 -9160.8904 -7455.9910 293.5652 741.8941 814.9102 29728.9167 741.8941 814.9102
ENERGY: 300000 6.0983 10.6323 4.9677 0.0000 -10497.8777 1367.2685 0.0000 0.0000 1774.2350 -7334.6760 305.5041 -9108.9110 -7349.5626 301.9430 -668.6768 -570.0090 30102.8309 -128.1939 -40.1011
ENERGY: 600000 6.0928 7.7570 9.2836 0.0000 -10471.5026 1432.6674 0.0000 0.0000 1772.3386 -7243.3631 305.1775 -9015.7017 -7306.2726 302.3489 440.6113 501.0173 29672.5542 10.9961 90.3185
ENERGY: 900000 6.1325 9.4516 9.8634 0.0000 -10457.1637 1387.0870 0.0000 0.0000 1776.4049 -7268.2243 305.8777 -9044.6292 -7295.7589 302.7528 -211.2412 -190.1992 30252.1627 15.3708 89.4545
ENERGY: 1200000 7.4967 9.4089 9.0298 0.0000 -10447.4399 1376.3550 0.0000 0.0000 1707.2548 -7337.8948 293.9708 -9045.1496 -7290.9721 302.2989 -785.2180 -699.2136 30389.6661 -245.5299 -174.8640
ENERGY: 1500000 10.2942 5.3656 10.5256 0.0000 -10573.5338 1460.5702 0.0000 0.0000 1738.6716 -7348.1066 299.3804 -9086.7782 -7296.4417 301.8082 -98.7446 -95.6466 30237.5626 -232.2458 -163.7169
TCL: Running FEP window  18: Lambda1 0.8500000000000002 Lambda2 0.9000000000000002 [dLambda 0.050000000000000044]
TCL: Setting parameter firsttimestep to 0
TCL: Setting parameter alchLambda to 0.8500000000000002
Info: NONBONDED TABLE R-SQUARED SPACING: 0.0625
Info: NONBONDED TABLE SIZE: 705 POINTS
TCL: Setting parameter alchLambda2 to 0.9000000000000002
Info: NONBONDED TABLE R-SQUARED SPACING: 0.0625
Info: NONBONDED TABLE SIZE: 705 POINTS
TCL: Running for 1500000 steps
ETITLE: TS BOND ANGLE DIHED IMPRP ELECT VDW BOUNDARY MISC KINETIC TOTAL TEMP POTENTIAL TOTALAVG TEMPAVG PRESSURE GPRESSURE VOLUME PRESSAVG GPRESSAVG
ENERGY: 0 10.2942 5.3656 10.5256 0.0000 -10577.4659 1463.5857 0.0000 0.0000 1737.8162 -7349.8785 299.2332 -9087.6947 -7349.8785 299.2332 -127.2399 -56.7720 30237.5626 -127.2399 -56.7720
ENERGY: 300000 7.1204 7.7516 10.0670 0.0000 -10509.5854 1383.6747 0.0000 0.0000 1798.0970 -7302.8746 309.6129 -9100.9716 -7303.6128 303.0991 -443.6229 -419.6110 29965.6600 -237.5911 -188.7230
ENERGY: 600000 4.9444 15.1182 7.6360 0.0000 -10511.7520 1431.4881 0.0000 0.0000 1755.2527 -7297.3125 302.2355 -9052.5653 -7330.9449 299.5141 456.6738 529.7184 29636.9384 55.8611 117.9507
ENERGY: 900000 4.8224 7.4636 12.6781 0.0000 -10579.4210 1488.9677 0.0000 0.0000 1743.5506 -7321.9386 300.2206 -9065.4892 -7324.6772 299.9863 461.6370 527.6772 30008.2576 44.9381 113.2856
ENERGY: 1200000 5.2645 8.6258 6.3662 0.0000 -10529.5461 1402.7360 0.0000 0.0000 1722.7299 -7383.8236 296.6355 -9106.5535 -7326.6122 299.4244 -54.5228 -18.0434 29778.4687 47.7466 114.3779
ENERGY: 1500000 5.3501 6.1011 10.6766 0.0000 -10307.7097 1313.7315 0.0000 0.0000 1702.2383 -7269.6121 293.1070 -8971.8504 -7325.0812 299.2929 -912.7799 -911.1045 30747.7028 -23.7082 34.5887
TCL: Running FEP window  19: Lambda1 0.9000000000000002 Lambda2 0.9500000000000003 [dLambda 0.050000000000000044]
TCL: Setting parameter firsttimestep to 0
TCL: Setting parameter alchLambda to 0.9000000000000002
Info: NONBONDED TABLE R-SQUARED SPACING: 0.0625
Info: NONBONDED TABLE SIZE: 705 POINTS
TCL: Setting parameter alchLambda2 to 0.9500000000000003
Info: NONBONDED TABLE R-SQUARED SPACING: 0.0625
Info: NONBONDED TABLE SIZE: 705 POINTS
TCL: Running for 1500000 steps
ETITLE: TS BOND ANGLE DIHED IMPRP ELECT VDW BOUNDARY MISC KINETIC TOTAL TEMP POTENTIAL TOTALAVG TEMPAVG PRESSURE GPRESSURE VOLUME PRESSAVG GPRESSAVG
ENERGY: 0 5.3501 6.1011 10.6766 0.0000 -10310.7233 1314.9066 0.0000 0.0000 1701.3923 -7272.2965 292.9614 -8973.6889 -7272.2965 292.9614 -968.6950 -886.3996 30747.7028 -968.6950 -886.3996
ENERGY: 300000 5.0285 9.2067 12.4179 0.0000 -10479.0148 1373.3538 0.0000 0.0000 1730.1220 -7348.8859 297.9083 -9079.0079 -7342.9286 298.8242 -452.4652 -409.5919 30117.6418 -565.8215 -491.0461
ENERGY: 600000 7.1905 8.8413 11.7183 0.0000 -10418.3679 1354.8645 0.0000 0.0000 1734.5156 -7301.2376 298.6648 -9035.7532 -7310.6175 300.6403 -559.3535 -523.8525 30261.1307 -494.2056 -426.9930
ENERGY: 900000 10.0432 9.2612 7.7468 0.0000 -10516.5830 1418.8813 0.0000 0.0000 1711.1969 -7359.4536 294.6496 -9070.6505 -7300.4356 301.3099 56.6079 103.8866 29668.4905 -433.3456 -377.2664
ENERGY: 1200000 7.4164 10.0216 5.7188 0.0000 -10365.7285 1416.6739 0.0000 0.0000 1799.1878 -7126.7101 309.8007 -8925.8979 -7300.6660 301.7421 248.3823 340.8356 30602.9857 -265.9686 -211.3322
ENERGY: 1500000 8.4118 8.4983 11.2091 0.0000 -10574.5972 1432.2043 0.0000 0.0000 1746.5658 -7367.7079 300.7397 -9114.2736 -7303.4423 301.7651 -171.2124 -97.6229 30324.4102 -239.4406 -180.9496
TCL: Running FEP window  20: Lambda1 0.9500000000000003 Lambda2 1.0    [dLambda 0.04999999999999971]
TCL: Setting parameter firsttimestep to 0
TCL: Setting parameter alchLambda to 0.9500000000000003
Info: NONBONDED TABLE R-SQUARED SPACING: 0.0625
Info: NONBONDED TABLE SIZE: 705 POINTS
TCL: Setting parameter alchLambda2 to 1.0
Info: NONBONDED TABLE R-SQUARED SPACING: 0.0625
Info: NONBONDED TABLE SIZE: 705 POINTS
TCL: Running for 1500000 steps
ETITLE: TS BOND ANGLE DIHED IMPRP ELECT VDW BOUNDARY MISC KINETIC TOTAL TEMP POTENTIAL TOTALAVG TEMPAVG PRESSURE GPRESSURE VOLUME PRESSAVG GPRESSAVG
ENERGY: 0 8.4118 8.4983 11.2091 0.0000 -10577.9116 1433.2044 0.0000 0.0000 1745.7126 -7370.8754 300.5928 -9116.5880 -7370.8754 300.5928 -158.4582 -75.6256 30324.4102 -158.4582 -75.6256
ENERGY: 300000 4.8749 7.4425 4.7203 0.0000 -10569.7975 1506.3331 0.0000 0.0000 1745.4213 -7301.0056 300.5427 -9046.4268 -7331.0446 300.7945 1163.1062 1168.3487 29682.3451 151.0020 225.1322
ENERGY: 600000 3.8068 7.7066 8.6747 0.0000 -10529.8834 1439.3812 0.0000 0.0000 1817.9878 -7252.3263 313.0378 -9070.3141 -7317.7562 301.2584 334.9445 364.7532 30161.3720 191.5456 249.1140
ENERGY: 900000 3.4855 8.0708 11.8732 0.0000 -10409.8411 1375.7881 0.0000 0.0000 1723.8756 -7286.7478 296.8327 -9010.6235 -7332.0267 299.7967 -527.6222 -351.2182 30356.4646 88.7816 173.8971
ENERGY: 1200000 5.3661 6.6651 12.3107 0.0000 -10403.1329 1351.7843 0.0000 0.0000 1687.2968 -7339.7100 290.5343 -9027.0068 -7329.9249 298.7738 -536.7105 -496.1220 30140.9027 59.8264 141.5948
ENERGY: 1500000 5.3350 6.1340 12.0715 0.0000 -10447.5124 1371.1507 0.0000 0.0000 1799.1494 -7253.6718 309.7941 -9052.8212 -7325.9252 299.9452 23.9899 47.3382 29975.9725 39.4957 108.3559
TCL: Exiting due to exit command.
