Info: SIMULATION PARAMETERS:
Info: TIMESTEP               2
Info: NUMBER OF STEPS        0
Info: STEPS PER CYCLE        10
Info: PERIODIC CELL BASIS 1  32.2345 0 0
Info: PERIODIC CELL BASIS 2  0 30.1802 0
Info: PERIODIC CELL BASIS 3  0 0 31.469
Info: PERIODIC CELL CENTER   0 0 0
Info: WRAPPING WATERS AROUND PERIODIC BOUNDARIES ON OUTPUT.
Info: WRAPPING ALL CLUSTERS AROUND PERIODIC BOUNDARIES ON OUTPUT.
Info: FIRST LDB TIMESTEP     50
Info: LAST LDB TIMESTEP     -1
Info: HOM BACKGROUND SCALING 1
Info: PME BACKGROUND SCALING 1
Info: MIN ATOMS PER PATCH    40
Info: EMPTY PATCH LOAD       40 ATOMS
Info: VELOCITY FILE          mobley_1034539_equil.vel
Info: CENTER OF MASS MOVING INITIALLY? NO
Info: DIELECTRIC             1
Info: EXCLUDE                SCALED ONE-FOUR
Info: 1-4 ELECTROSTATICS SCALED BY 0.833333
Info: MODIFIED 1-4 VDW PARAMETERS WILL BE USED
Info: DCD FILENAME           mobley_1034539_prod.dcd
Info: DCD FREQUENCY          100000
Info: DCD FIRST STEP         100000
Info: DCD FILE WILL CONTAIN UNIT CELL DATA
Info: XST FILENAME           mobley_1034539_prod.xst
Info: XST FREQUENCY          100000
Info: NO VELOCITY DCD OUTPUT
Info: NO FORCE DCD OUTPUT
Info: OUTPUT FILENAME        mobley_1034539_prod
Info: BINARY OUTPUT FILES WILL BE USED
Info: RESTART FILENAME       mobley_1034539_prod.restart
Info: RESTART FREQUENCY      100000
Info: BINARY RESTART FILES WILL BE USED
Info: CUTOFF                 9
Info: PAIRLIST DISTANCE      11
Info: PAIRLIST SHRINK RATE   0.01
Info: PAIRLIST GROW RATE     0.01
Info: PAIRLIST TRIGGER       0.3
Info: PAIRLISTS PER CYCLE    2
Info: PAIRLISTS ENABLED
Info: MARGIN                 2
Info: HYDROGEN GROUP CUTOFF  2.5
Info: PATCH DIMENSION        15.5
Info: ENERGY OUTPUT STEPS    100000
Info: ENERGY EVALUATION STEPS    100000
Info: OUTPUT ENERGY PRECISION 4
Info: CROSSTERM ENERGY INCLUDED IN DIHEDRAL
Info: TIMING OUTPUT STEPS    1000000
Info: PRESSURE OUTPUT STEPS  100000
Info: ALCHEMICAL FEP ON
Info: FEP CURRENT LAMBDA VALUE     1
Info: FEP COMPARISON LAMBDA VALUE  0.95
Info: FEP INTRA-ALCHEMICAL NON-BONDED INTERACTIONS WILL BE RETAINED
Info: FEP INTRA-ALCHEMICAL BONDED INTERACTIONS WILL BE RETAINED
Info: FEP VDW SHIFTING COEFFICIENT 5
Info: FEP ELEC. ACTIVE FOR ANNIHILATED PARTICLES BETWEEN LAMBDA = 0 AND LAMBDA = 0.5
Info: FEP ELEC. ACTIVE FOR EXNIHILATED PARTICLES BETWEEN LAMBDA = 0.5 AND LAMBDA = 1
Info: FEP VDW ACTIVE FOR ANNIHILATED PARTICLES BETWEEN LAMBDA = 0 AND LAMBDA = 1
Info: FEP VDW ACTIVE FOR EXNIHILATED PARTICLES BETWEEN LAMBDA = 0 AND LAMBDA = 1
Info: FEP BOND ACTIVE FOR ANNIHILATED PARTICLES BETWEEN LAMBDA = 1 AND LAMBDA = 1
Info: FEP BOND ACTIVE FOR EXNIHILATED PARTICLES BETWEEN LAMBDA = 0 AND LAMBDA = 0
Info: LANGEVIN DYNAMICS ACTIVE
Info: LANGEVIN TEMPERATURE   300
Info: LANGEVIN USING BBK INTEGRATOR
Info: LANGEVIN DAMPING COEFFICIENT IS 1 INVERSE PS
Info: LANGEVIN DYNAMICS APPLIED TO HYDROGENS
Info: LANGEVIN PISTON PRESSURE CONTROL ACTIVE
Info:        TARGET PRESSURE IS 1.01325 BAR
Info:     OSCILLATION PERIOD IS 50 FS
Info:             DECAY TIME IS 25 FS
Info:     PISTON TEMPERATURE IS 300 K
Info:       PRESSURE CONTROL IS GROUP-BASED
Info:    INITIAL STRAIN RATE IS 0.000377914 0.000377914 0.000377914
Info:       CELL FLUCTUATION IS ISOTROPIC
Info: PARTICLE MESH EWALD (PME) ACTIVE
Info: PME TOLERANCE               1e-06
Info: PME EWALD COEFFICIENT       0.348832
Info: PME INTERPOLATION ORDER     4
Info: PME GRID DIMENSIONS         36 32 32
Info: PME MAXIMUM GRID SPACING    1
Info: PME CALCULATION WILL BE PERFORMED ON GPU
Info: FULL ELECTROSTATIC EVALUATION FREQUENCY      2
Info: USING VERLET I (r-RESPA) MTS SCHEME.
Info: C1 SPLITTING OF LONG RANGE ELECTROSTATICS
Info: PLACING ATOMS IN PATCHES BY HYDROGEN GROUPS
Info: RIGID BONDS TO HYDROGEN : ALL
Info:         ERROR TOLERANCE : 1e-08
Info:          MAX ITERATIONS : 100
Info: RIGID WATER USING SETTLE ALGORITHM
Info: RANDOM NUMBER SEED     1743788016
Info: USE HYDROGEN BONDS?    NO
Info: Using AMBER format force field!
Info: AMBER PARM FILE        mobley_1034539.prmtop
Info: COORDINATE PDB         mobley_1034539.pdb
Info: Exclusions will be read from PARM file!
Info: SCNB (VDW SCALING)     2
Info: USING ARITHMETIC MEAN TO COMBINE L-J SIGMA PARAMETERS
Info: BINARY COORDINATES     mobley_1034539_equil.coor
Info: SUMMARY OF PARAMETERS:
Info: 7 BONDS
Info: 8 ANGLES
Info:   8 HARMONIC
Info:   0 COSINE-BASED
Info: 3 DIHEDRAL
Info: 0 IMPROPER
Info: 0 CROSSTERM
Info: 0 VDW
Info: 15 VDW_PAIRS
Info: 0 NBTHOLE_PAIRS
Info: To read alchdata from file: mobley_1034539.pdb
Info: To read alchflag data from column: 5
Info: STRUCTURE SUMMARY:
Info: 2968 ATOMS
Info: 2969 BONDS
Info: 36 ANGLES
Info: 64 DIHEDRALS
Info: 0 IMPROPERS
Info: 0 CROSSTERMS
Info: 3051 EXCLUSIONS
Info: 2950 RIGID BONDS
Info: ALCH: 0 ATOMS TO DISAPPEAR IN FINAL STATE
Info: ALCH: 22 ATOMS TO APPEAR IN FINAL STATE
Info: 5954 DEGREES OF FREEDOM
Info: 1000 HYDROGEN GROUPS
Info: 3 ATOMS IN LARGEST HYDROGEN GROUP
Info: 1000 MIGRATION GROUPS
Info: 3 ATOMS IN LARGEST MIGRATION GROUP
Info: TOTAL MASS = 18052.6 amu
Info: TOTAL CHARGE = -8.3819e-09 e
Info: MASS DENSITY = 0.979201 g/cm^3
Info: ATOM DENSITY = 0.0969477 atoms/A^3
Info: ADDED 0 IMPLICIT EXCLUSIONS
Info: NONBONDED TABLE R-SQUARED SPACING: 0.0625
Info: NONBONDED TABLE SIZE: 705 POINTS
Info: REMOVING COM VELOCITY -0.119102 0.0870179 -0.0402231
Info: Use 3D box decompostion in PME FFT.
Info: Updated CUDA force table with 4096 elements.
Info: Updated CUDA LJ table with 5 x 5 elements.
Info: Found 25 unique exclusion lists needing 76 bytes
TCL: Running for 1500000 steps
ETITLE: TS BOND ANGLE DIHED IMPRP ELECT VDW BOUNDARY MISC KINETIC TOTAL TEMP POTENTIAL TOTALAVG TEMPAVG PRESSURE GPRESSURE VOLUME PRESSAVG GPRESSAVG
ENERGY: 0 3.2169 7.0832 14.6244 0.0000 -10746.3862 1452.8411 0.0000 0.0000 1786.7390 -7481.8814 302.0248 -9268.6204 -7481.8814 302.0248 48.4280 140.7960 30614.4410 48.4280 140.7960
ENERGY: 300000 9.0313 5.4720 12.2633 0.0000 -10763.7718 1438.7006 0.0000 0.0000 1844.8444 -7453.4602 311.8468 -9298.3046 -7487.0182 302.1394 -257.6640 -120.7885 30823.5779 -165.4935 -71.0682
ENERGY: 600000 6.9695 4.7546 12.0695 0.0000 -10684.2983 1469.8881 0.0000 0.0000 1772.3089 -7418.3076 299.5856 -9190.6165 -7488.9515 300.3322 177.5968 245.5585 31077.7980 -29.0930 42.8766
ENERGY: 900000 6.9528 3.7236 12.0156 0.0000 -10616.2411 1399.7023 0.0000 0.0000 1754.0889 -7439.7579 296.5058 -9193.8468 -7483.3265 299.2610 -118.2630 -93.1105 30802.7425 -63.3589 4.7506
ENERGY: 1200000 7.4468 5.4266 11.7880 0.0000 -10897.0558 1599.9752 0.0000 0.0000 1731.4700 -7540.9492 292.6823 -9272.4192 -7494.0540 298.6046 973.9847 1109.5533 30789.2995 -72.4983 -2.0710
ENERGY: 1500000 5.3493 4.9208 13.1287 0.0000 -10665.7199 1384.5309 0.0000 0.0000 1778.8738 -7478.9164 300.6953 -9257.7902 -7489.3675 298.9784 -82.5578 -6.7582 30506.8250 -112.8440 -45.7863
TCL: Running FEP window   2: Lambda1 0.95   Lambda2 0.8999999999999999 [dLambda -0.050000000000000044]
TCL: Setting parameter firsttimestep to 0
TCL: Setting parameter alchLambda to 0.95
Info: NONBONDED TABLE R-SQUARED SPACING: 0.0625
Info: NONBONDED TABLE SIZE: 705 POINTS
TCL: Setting parameter alchLambda2 to 0.8999999999999999
Info: NONBONDED TABLE R-SQUARED SPACING: 0.0625
Info: NONBONDED TABLE SIZE: 705 POINTS
TCL: Running for 1500000 steps
ETITLE: TS BOND ANGLE DIHED IMPRP ELECT VDW BOUNDARY MISC KINETIC TOTAL TEMP POTENTIAL TOTALAVG TEMPAVG PRESSURE GPRESSURE VOLUME PRESSAVG GPRESSAVG
ENERGY: 0 5.3493 4.9209 13.1287 0.0000 -10665.3462 1385.1724 0.0000 0.0000 1778.0187 -7478.7562 300.5508 -9256.7749 -7478.7562 300.5508 -97.2782 -17.9820 30506.8250 -97.2782 -17.9820
ENERGY: 300000 10.1158 5.0976 11.8021 0.0000 -10677.2001 1407.2721 0.0000 0.0000 1835.0174 -7407.8951 310.1857 -9242.9125 -7451.5548 302.6897 -326.4836 -216.8746 30485.1446 -317.1681 -219.1754
ENERGY: 600000 4.5003 5.6993 12.3730 0.0000 -10678.2245 1398.1528 0.0000 0.0000 1740.1399 -7517.3591 294.1479 -9257.4991 -7474.7603 299.5386 -85.4674 -36.5500 30787.3736 -245.7292 -167.6878
ENERGY: 900000 7.2331 5.1229 11.6065 0.0000 -10614.5256 1396.7118 0.0000 0.0000 1738.5065 -7455.3449 293.8718 -9193.8514 -7486.6903 298.0951 -313.3493 -336.7497 31367.6371 -251.5163 -181.5727
ENERGY: 1200000 10.4497 4.9917 8.1277 0.0000 -10762.0327 1441.5696 0.0000 0.0000 1781.4854 -7515.4086 301.1368 -9296.8940 -7492.0279 298.7900 -262.2745 -204.2656 30753.0453 -178.3300 -112.6909
ENERGY: 1500000 4.8284 4.3132 11.3497 0.0000 -10774.4369 1506.6412 0.0000 0.0000 1722.8886 -7524.4159 291.2318 -9247.3045 -7492.4425 298.6774 434.3374 379.0120 31066.0354 -211.6755 -155.5508
TCL: Running FEP window   3: Lambda1 0.8999999999999999 Lambda2 0.8499999999999999 [dLambda -0.050000000000000044]
TCL: Setting parameter firsttimestep to 0
TCL: Setting parameter alchLambda to 0.8999999999999999
Info: NONBONDED TABLE R-SQUARED SPACING: 0.0625
Info: NONBONDED TABLE SIZE: 705 POINTS
TCL: Setting parameter alchLambda2 to 0.8499999999999999
Info: NONBONDED TABLE R-SQUARED SPACING: 0.0625
Info: NONBONDED TABLE SIZE: 705 POINTS
TCL: Running for 1500000 steps
ETITLE: TS BOND ANGLE DIHED IMPRP ELECT VDW BOUNDARY MISC KINETIC TOTAL TEMP POTENTIAL TOTALAVG TEMPAVG PRESSURE GPRESSURE VOLUME PRESSAVG GPRESSAVG
ENERGY: 0 4.8283 4.3132 11.3497 0.0000 -10773.8208 1506.7765 0.0000 0.0000 1722.0027 -7524.5504 291.0820 -9246.5531 -7524.5504 291.0820 288.0485 362.6252 31066.0354 288.0485 362.6252
ENERGY: 300000 10.0826 3.8889 10.0696 0.0000 -10779.7373 1513.4404 0.0000 0.0000 1760.9740 -7481.2818 297.6696 -9242.2558 -7520.9554 294.8587 614.7377 663.2509 30635.0297 -42.0755 14.1742
ENERGY: 600000 3.4394 3.9872 9.2771 0.0000 -10551.1305 1360.5040 0.0000 0.0000 1782.1540 -7391.7688 301.2498 -9173.9228 -7501.0746 296.8695 -120.1909 -93.6771 30433.0941 -81.4183 -27.2469
ENERGY: 900000 8.1689 6.0925 12.0866 0.0000 -10751.7973 1467.1923 0.0000 0.0000 1776.7289 -7481.5280 300.3328 -9258.2570 -7501.1629 297.0751 110.2558 160.2528 30873.3334 -80.5131 -22.4766
ENERGY: 1200000 7.6446 4.3372 12.0365 0.0000 -10769.2150 1454.3177 0.0000 0.0000 1726.9103 -7563.9686 291.9116 -9290.8790 -7505.1324 296.9843 -148.6152 -126.3811 30734.5492 58.4253 117.5380
ENERGY: 1500000 4.7248 7.0567 8.9856 0.0000 -10668.9968 1440.9228 0.0000 0.0000 1727.9524 -7479.3545 292.0877 -9207.3069 -7501.3519 297.1803 40.2661 134.7978 31063.1870 58.5834 118.7729
TCL: Running FEP window   4: Lambda1 0.8499999999999999 Lambda2 0.7999999999999998 [dLambda -0.050000000000000044]
TCL: Setting parameter firsttimestep to 0
TCL: Setting parameter alchLambda to 0.8499999999999999
Info: NONBONDED TABLE R-SQUARED SPACING: 0.0625
Info: NONBONDED TABLE SIZE: 705 POINTS
TCL: Setting parameter alchLambda2 to 0.7999999999999998
Info: NONBONDED TABLE R-SQUARED SPACING: 0.0625
Info: NONBONDED TABLE SIZE: 705 POINTS
TCL: Running for 1500000 steps
ETITLE: TS BOND ANGLE DIHED IMPRP ELECT VDW BOUNDARY MISC KINETIC TOTAL TEMP POTENTIAL TOTALAVG TEMPAVG PRESSURE GPRESSURE VOLUME PRESSAVG GPRESSAVG
ENERGY: 0 4.7248 7.0567 8.9856 0.0000 -10668.9018 1441.7965 0.0000 0.0000 1727.0517 -7479.2866 291.9355 -9206.3382 -7479.2866 291.9355 40.2243 123.6433 31063.1870 40.2243 123.6433
ENERGY: 300000 4.8516 3.9393 15.1713 0.0000 -10738.9103 1434.0103 0.0000 0.0000 1739.9768 -7540.9608 294.1203 -9280.9376 -7484.3346 297.1779 114.7856 164.9831 30529.7342 207.1353 269.0903
ENERGY: 600000 4.2820 4.2206 8.2516 0.0000 -10780.6768 1467.3450 0.0000 0.0000 1785.8347 -7510.7428 301.8720 -9296.5775 -7486.8428 299.0048 112.0426 158.8474 30373.8785 51.2937 94.5643
ENERGY: 900000 9.5115 4.9052 7.8118 0.0000 -10753.2422 1408.0513 0.0000 0.0000 1781.0451 -7541.9173 301.0624 -9322.9624 -7494.1097 300.5306 -529.7323 -454.9083 30605.9559 19.6271 75.3280
ENERGY: 1200000 4.9978 4.1368 12.4161 0.0000 -10854.7360 1486.2986 0.0000 0.0000 1762.1204 -7584.7663 297.8634 -9346.8867 -7498.3267 300.5787 378.7413 404.0647 30303.5126 43.0778 94.5697
ENERGY: 1500000 3.7203 5.3340 10.7143 0.0000 -10856.4340 1537.5879 0.0000 0.0000 1764.4895 -7534.5879 298.2639 -9299.0774 -7501.7602 300.2184 479.7729 549.1732 30990.2119 88.0417 142.9361
TCL: Running FEP window   5: Lambda1 0.7999999999999998 Lambda2 0.7499999999999998 [dLambda -0.050000000000000044]
TCL: Setting parameter firsttimestep to 0
TCL: Setting parameter alchLambda to 0.7999999999999998
Info: NONBONDED TABLE R-SQUARED SPACING: 0.0625
Info: NONBONDED TABLE SIZE: 705 POINTS
TCL: Setting parameter alchLambda2 to 0.7499999999999998
Info: NONBONDED TABLE R-SQUARED SPACING: 0.0625
Info: NONBONDED TABLE SIZE: 705 POINTS
TCL: Running for 1500000 steps
ETITLE: TS BOND ANGLE DIHED IMPRP ELECT VDW BOUNDARY MISC KINETIC TOTAL TEMP POTENTIAL TOTALAVG TEMPAVG PRESSURE GPRESSURE VOLUME PRESSAVG GPRESSAVG
ENERGY: 0 3.7203 5.3340 10.7143 0.0000 -10856.3807 1538.6912 0.0000 0.0000 1763.6339 -7534.2870 298.1192 -9297.9209 -7534.2870 298.1192 458.7356 544.8696 30990.2119 458.7356 544.8696
ENERGY: 300000 7.4822 5.0547 8.3725 0.0000 -10582.6232 1411.4861 0.0000 0.0000 1769.3694 -7380.8583 299.0887 -9150.2277 -7484.0252 300.1630 -14.0078 127.0495 30823.6290 205.2582 289.4757
ENERGY: 600000 6.0352 3.4506 11.4667 0.0000 -10661.6617 1449.8729 0.0000 0.0000 1768.5388 -7422.2975 298.9483 -9190.8363 -7447.6586 302.8694 234.0572 253.4640 30953.0400 137.8671 193.7599
ENERGY: 900000 11.5100 9.0773 7.2429 0.0000 -10752.1440 1426.1323 0.0000 0.0000 1792.4004 -7505.7810 302.9818 -9298.1814 -7473.1604 300.5841 -484.0891 -436.7004 30878.7090 -85.7423 -30.9142
ENERGY: 1200000 5.8200 4.3504 9.4751 0.0000 -10728.7766 1490.2331 0.0000 0.0000 1794.4714 -7424.4265 303.3319 -9218.8980 -7469.6186 300.7293 383.9788 469.1248 31026.3892 15.6121 78.1961
ENERGY: 1500000 3.9555 4.5035 7.5579 0.0000 -10668.2527 1386.2914 0.0000 0.0000 1771.3840 -7494.5604 299.4293 -9265.9444 -7467.0102 300.7390 -500.2704 -468.3033 30794.9041 -42.5751 18.5130
TCL: Running FEP window   6: Lambda1 0.7499999999999998 Lambda2 0.6999999999999997 [dLambda -0.050000000000000044]
TCL: Setting parameter firsttimestep to 0
TCL: Setting parameter alchLambda to 0.7499999999999998
Info: NONBONDED TABLE R-SQUARED SPACING: 0.0625
Info: NONBONDED TABLE SIZE: 705 POINTS
TCL: Setting parameter alchLambda2 to 0.6999999999999997
Info: NONBONDED TABLE R-SQUARED SPACING: 0.0625
Info: NONBONDED TABLE SIZE: 705 POINTS
TCL: Running for 1500000 steps
ETITLE: TS BOND ANGLE DIHED IMPRP ELECT VDW BOUNDARY MISC KINETIC TOTAL TEMP POTENTIAL TOTALAVG TEMPAVG PRESSURE GPRESSURE VOLUME PRESSAVG GPRESSAVG
ENERGY: 0 3.9555 4.5035 7.5579 0.0000 -10667.8057 1387.4387 0.0000 0.0000 1770.4906 -7493.8594 299.2783 -9264.3501 -7493.8594 299.2783 -539.9740 -467.7234 30794.9041 -539.9740 -467.7234
ENERGY: 300000 6.2339 4.4491 6.9302 0.0000 -10772.0877 1456.4420 0.0000 0.0000 1756.1755 -7541.8570 296.8585 -9298.0325 -7502.5830 299.0069 -106.3422 -45.0447 30666.0492 -184.9931 -106.6938
ENERGY: 600000 7.1551 3.4418 10.4045 0.0000 -10557.1375 1367.2576 0.0000 0.0000 1774.9181 -7393.9604 300.0267 -9168.8785 -7487.6715 298.6050 -377.2513 -280.9591 30716.2441 -202.9720 -134.8384
ENERGY: 900000 4.3935 3.5201 12.0212 0.0000 -10660.7746 1356.7338 0.0000 0.0000 1729.2246 -7554.8813 292.3028 -9284.1059 -7493.2127 298.6390 -689.3960 -593.4243 30305.0182 -182.1063 -119.4843
ENERGY: 1200000 8.5913 4.4023 11.1121 0.0000 -10658.1801 1386.6844 0.0000 0.0000 1815.8437 -7431.5463 306.9446 -9247.3900 -7483.5619 300.3545 -740.2985 -664.8139 31443.4494 -288.1895 -223.0203
ENERGY: 1500000 9.9207 3.6091 11.7448 0.0000 -10646.0435 1384.9634 0.0000 0.0000 1856.2541 -7379.5513 313.7755 -9235.8055 -7478.1356 301.1164 -706.7847 -651.7824 31081.1559 -291.0149 -224.7107
TCL: Running FEP window   7: Lambda1 0.6999999999999997 Lambda2 0.6499999999999997 [dLambda -0.050000000000000044]
TCL: Setting parameter firsttimestep to 0
TCL: Setting parameter alchLambda to 0.6999999999999997
Info: NONBONDED TABLE R-SQUARED SPACING: 0.0625
Info: NONBONDED TABLE SIZE: 705 POINTS
TCL: Setting parameter alchLambda2 to 0.6499999999999997
Info: NONBONDED TABLE R-SQUARED SPACING: 0.0625
Info: NONBONDED TABLE SIZE: 705 POINTS
TCL: Running for 1500000 steps
ETITLE: TS BOND ANGLE DIHED IMPRP ELECT VDW BOUNDARY MISC KINETIC TOTAL TEMP POTENTIAL TOTALAVG TEMPAVG PRESSURE GPRESSURE VOLUME PRESSAVG GPRESSAVG
ENERGY: 0 9.9207 3.6091 11.7448 0.0000 -10646.1510 1385.5939 0.0000 0.0000 1855.3865 -7379.8959 313.6288 -9235.2824 -7379.8959 313.6288 -737.1196 -662.0624 31081.1559 -737.1196 -662.0624
ENERGY: 300000 7.0968 4.5736 10.3269 0.0000 -10790.1253 1476.1130 0.0000 0.0000 1782.7759 -7509.2392 301.3549 -9292.0151 -7443.4299 306.7033 409.0258 512.3859 30425.1360 -147.0328 -83.7707
ENERGY: 600000 3.8324 2.9504 6.9156 0.0000 -10723.5355 1460.9268 0.0000 0.0000 1740.1428 -7508.7676 294.1484 -9248.9104 -7477.6063 301.0656 290.0817 319.9485 30512.9202 -166.6927 -111.1110
ENERGY: 900000 8.9307 5.2554 9.6011 0.0000 -10671.5096 1385.5720 0.0000 0.0000 1743.6047 -7518.5457 294.7336 -9262.1504 -7488.9348 300.1910 -418.6145 -348.6319 30545.7641 -221.9364 -157.7242
ENERGY: 1200000 4.2184 6.8954 8.4262 0.0000 -10751.5924 1471.8407 0.0000 0.0000 1787.1011 -7473.1107 302.0860 -9260.2117 -7480.8711 300.3798 245.4633 326.1279 30941.6970 -114.8659 -52.6546
ENERGY: 1500000 5.7812 5.6189 10.7320 0.0000 -10820.9370 1508.3562 0.0000 0.0000 1827.5264 -7462.9224 308.9194 -9290.4488 -7483.1813 300.4763 463.4997 544.3165 30520.2725 -74.2857 -10.9944
TCL: Running FEP window   8: Lambda1 0.6499999999999997 Lambda2 0.5999999999999996 [dLambda -0.050000000000000044]
TCL: Setting parameter firsttimestep to 0
TCL: Setting parameter alchLambda to 0.6499999999999997
Info: NONBONDED TABLE R-SQUARED SPACING: 0.0625
Info: NONBONDED TABLE SIZE: 705 POINTS
TCL: Setting parameter alchLambda2 to 0.5999999999999996
Info: NONBONDED TABLE R-SQUARED SPACING: 0.0625
Info: NONBONDED TABLE SIZE: 705 POINTS
TCL: Running for 1500000 steps
ETITLE: TS BOND ANGLE DIHED IMPRP ELECT VDW BOUNDARY MISC KINETIC TOTAL TEMP POTENTIAL TOTALAVG TEMPAVG PRESSURE GPRESSURE VOLUME PRESSAVG GPRESSAVG
ENERGY: 0 5.7812 5.6189 10.7320 0.0000 -10820.7540 1509.1444 0.0000 0.0000 1826.6798 -7462.7978 308.7763 -9289.4776 -7462.7978 308.7763 461.2289 541.7396 30520.2725 461.2289 541.7396
ENERGY: 300000 5.9631 6.1278 7.5624 0.0000 -10614.1289 1345.5130 0.0000 0.0000 1774.3125 -7474.6501 299.9243 -9248.9626 -7459.5786 303.0582 -952.9315 -876.7766 30991.6464 -265.8317 -224.9482
ENERGY: 600000 6.8844 4.7091 10.4930 0.0000 -10853.2329 1495.3304 0.0000 0.0000 1724.5069 -7611.3091 291.5053 -9335.8161 -7484.7868 300.6402 380.3555 391.8195 30172.1269 -52.3586 -3.9627
ENERGY: 900000 4.7909 4.6020 9.3938 0.0000 -10575.4774 1322.6849 0.0000 0.0000 1786.5780 -7447.4278 301.9976 -9234.0058 -7483.7041 300.6358 -803.3071 -784.3380 30660.7098 -82.7227 -34.2715
ENERGY: 1200000 6.3906 10.7322 10.4674 0.0000 -10744.9673 1501.7049 0.0000 0.0000 1779.5944 -7436.0777 300.8171 -9215.6721 -7478.1092 300.4854 610.0716 658.4099 30465.0040 39.8453 93.5549
ENERGY: 1500000 4.0794 5.1142 10.6434 0.0000 -10605.9430 1357.2717 0.0000 0.0000 1821.2684 -7407.5659 307.8616 -9228.8343 -7473.0082 300.8592 -703.5793 -579.7594 30710.5882 -27.7608 29.7507
TCL: Running FEP window   9: Lambda1 0.5999999999999996 Lambda2 0.5499999999999996 [dLambda -0.050000000000000044]
TCL: Setting parameter firsttimestep to 0
TCL: Setting parameter alchLambda to 0.5999999999999996
Info: NONBONDED TABLE R-SQUARED SPACING: 0.0625
Info: NONBONDED TABLE SIZE: 705 POINTS
TCL: Setting parameter alchLambda2 to 0.5499999999999996
Info: NONBONDED TABLE R-SQUARED SPACING: 0.0625
Info: NONBONDED TABLE SIZE: 705 POINTS
TCL: Running for 1500000 steps
ETITLE: TS BOND ANGLE DIHED IMPRP ELECT VDW BOUNDARY MISC KINETIC TOTAL TEMP POTENTIAL TOTALAVG TEMPAVG PRESSURE GPRESSURE VOLUME PRESSAVG GPRESSAVG
ENERGY: 0 4.0794 5.1142 10.6434 0.0000 -10605.7216 1358.1571 0.0000 0.0000 1820.3983 -7407.3293 307.7145 -9227.7275 -7407.3293 307.7145 -665.3136 -582.3841 30710.5882 -665.3136 -582.3841
ENERGY: 300000 4.7924 5.7175 14.2803 0.0000 -10677.5939 1335.3014 0.0000 0.0000 1807.6145 -7509.8876 305.5536 -9317.5022 -7508.2176 302.7338 -1121.9406 -1108.4769 30898.1654 -343.8832 -309.3838
ENERGY: 600000 7.0629 3.6449 8.2055 0.0000 -10705.0765 1394.6384 0.0000 0.0000 1774.9921 -7516.5326 300.0392 -9291.5247 -7479.3970 303.1509 -405.3929 -346.9937 30474.2826 -218.8139 -159.2163
ENERGY: 900000 12.7617 5.1615 16.2396 0.0000 -10756.0882 1428.1226 0.0000 0.0000 1746.8136 -7546.9892 295.2760 -9293.8028 -7474.1110 302.5803 -167.6588 -129.6144 30802.8091 -170.1418 -105.6121
ENERGY: 1200000 8.3816 6.5747 12.7628 0.0000 -10627.2242 1369.1304 0.0000 0.0000 1783.5053 -7446.8694 301.4782 -9230.3747 -7482.7934 300.9701 -525.8509 -503.3614 30593.0947 -181.9324 -126.8102
ENERGY: 1500000 6.8030 4.4050 11.7116 0.0000 -10803.1996 1477.5867 0.0000 0.0000 1731.9292 -7570.7641 292.7600 -9302.6933 -7479.1928 300.0105 -57.3329 -34.8774 30911.5921 -137.5670 -84.7871
TCL: Running FEP window  10: Lambda1 0.5499999999999996 Lambda2 0.4999999999999996 [dLambda -0.04999999999999999]
TCL: Setting parameter firsttimestep to 0
TCL: Setting parameter alchLambda to 0.5499999999999996
Info: NONBONDED TABLE R-SQUARED SPACING: 0.0625
Info: NONBONDED TABLE SIZE: 705 POINTS
TCL: Setting parameter alchLambda2 to 0.4999999999999996
Info: NONBONDED TABLE R-SQUARED SPACING: 0.0625
Info: NONBONDED TABLE SIZE: 705 POINTS
TCL: Running for 1500000 steps
ETITLE: TS BOND ANGLE DIHED IMPRP ELECT VDW BOUNDARY MISC KINETIC TOTAL TEMP POTENTIAL TOTALAVG TEMPAVG PRESSURE GPRESSURE VOLUME PRESSAVG GPRESSAVG
ENERGY: 0 6.8030 4.4050 11.7116 0.0000 -10802.9729 1477.7364 0.0000 0.0000 1731.0426 -7571.2744 292.6101 -9302.3170 -7571.2744 292.6101 -135.1613 -48.1415 30911.5921 -135.1613 -48.1415
ENERGY: 300000 2.7290 5.4198 9.5667 0.0000 -10773.4045 1512.4490 0.0000 0.0000 1810.7401 -7432.4999 306.0819 -9243.2400 -7507.5163 295.9421 393.7967 544.4201 30682.3281 -166.5319 -74.8163
ENERGY: 600000 9.0626 6.0041 9.4682 0.0000 -10694.5440 1460.0531 0.0000 0.0000 1734.5730 -7475.3830 293.2069 -9209.9560 -7497.6275 297.1126 -168.8803 -69.1665 31188.3605 -19.3047 62.8698
ENERGY: 900000 8.7000 3.6323 7.8316 0.0000 -10943.4395 1507.8977 0.0000 0.0000 1820.2026 -7595.1753 307.6814 -9415.3779 -7501.4039 299.5899 -99.7510 -17.7272 30165.2811 -76.1815 14.6434
ENERGY: 1200000 5.4257 4.9700 11.7309 0.0000 -10914.5261 1523.3657 0.0000 0.0000 1797.8967 -7571.1371 303.9109 -9369.0338 -7498.6132 299.8470 509.2681 607.4176 29932.7564 41.7331 133.6427
ENERGY: 1500000 6.1921 7.0513 13.8913 0.0000 -10693.6907 1437.3579 0.0000 0.0000 1790.5866 -7438.6116 302.6752 -9229.1982 -7485.0959 300.0169 19.4036 72.2301 30330.1403 -23.2658 62.6973
TCL: Running FEP window  11: Lambda1 0.4999999999999996 Lambda2 0.4499999999999996 [dLambda -0.04999999999999999]
TCL: Setting parameter firsttimestep to 0
TCL: Setting parameter alchLambda to 0.4999999999999996
Info: NONBONDED TABLE R-SQUARED SPACING: 0.0625
Info: NONBONDED TABLE SIZE: 705 POINTS
TCL: Setting parameter alchLambda2 to 0.4499999999999996
Info: NONBONDED TABLE R-SQUARED SPACING: 0.0625
Info: NONBONDED TABLE SIZE: 705 POINTS
TCL: Running for 1500000 steps
ETITLE: TS BOND ANGLE DIHED IMPRP ELECT VDW BOUNDARY MISC KINETIC TOTAL TEMP POTENTIAL TOTALAVG TEMPAVG PRESSURE GPRESSURE VOLUME PRESSAVG GPRESSAVG
ENERGY: 0 6.1921 7.0513 13.8913 0.0000 -10693.5751 1438.2281 0.0000 0.0000 1789.6991 -7438.5133 302.5252 -9228.2123 -7438.5133 302.5252 -17.4819 68.3306 30330.1403 -17.4819 68.3306
ENERGY: 300000 4.4859 4.6999 11.9543 0.0000 -10672.2480 1420.3551 0.0000 0.0000 1724.6825 -7506.0702 291.5350 -9230.7527 -7504.7932 297.6871 -231.6749 -196.4792 30744.4788 143.0474 233.9563
ENERGY: 600000 10.1598 4.5245 9.4428 0.0000 -10662.0293 1436.1174 0.0000 0.0000 1695.8946 -7505.8901 286.6688 -9201.7847 -7490.4016 297.6345 -2.1082 0.0446 30630.6743 73.8541 135.4078
ENERGY: 900000 4.4994 7.2101 13.2289 0.0000 -10756.1067 1484.9606 0.0000 0.0000 1785.2213 -7460.9864 301.7683 -9246.2077 -7503.0044 297.6719 350.9169 408.2541 30428.9046 14.9420 76.9447
ENERGY: 1200000 5.6378 4.3014 11.8193 0.0000 -10789.1260 1469.1366 0.0000 0.0000 1782.6164 -7515.6144 301.3280 -9298.2309 -7502.5176 297.8900 185.8079 266.7256 30287.3158 12.3914 72.0682
ENERGY: 1500000 5.8966 6.6080 9.3116 0.0000 -10448.6930 1317.9153 0.0000 0.0000 1785.7011 -7323.2603 301.8494 -9108.9615 -7494.7368 297.9145 -612.4525 -513.3355 30992.6802 -40.8474 18.5304
TCL: Running FEP window  12: Lambda1 0.4499999999999996 Lambda2 0.39999999999999963 [dLambda -0.04999999999999999]
TCL: Setting parameter firsttimestep to 0
TCL: Setting parameter alchLambda to 0.4499999999999996
Info: NONBONDED TABLE R-SQUARED SPACING: 0.0625
Info: NONBONDED TABLE SIZE: 705 POINTS
TCL: Setting parameter alchLambda2 to 0.39999999999999963
Info: NONBONDED TABLE R-SQUARED SPACING: 0.0625
Info: NONBONDED TABLE SIZE: 705 POINTS
TCL: Running for 1500000 steps
ETITLE: TS BOND ANGLE DIHED IMPRP ELECT VDW BOUNDARY MISC KINETIC TOTAL TEMP POTENTIAL TOTALAVG TEMPAVG PRESSURE GPRESSURE VOLUME PRESSAVG GPRESSAVG
ENERGY: 0 5.8966 6.6080 9.3116 0.0000 -10448.6934 1318.4140 0.0000 0.0000 1784.8720 -7323.5912 301.7092 -9108.4631 -7323.5912 301.7092 -611.6001 -521.7512 30992.6802 -611.6001 -521.7512
ENERGY: 300000 7.0095 4.8246 9.3058 0.0000 -10684.2670 1391.9240 0.0000 0.0000 1785.4485 -7485.7546 301.8067 -9271.2031 -7409.0226 302.6578 -170.0602 -156.2306 30370.9403 -151.2422 -90.3879
ENERGY: 600000 10.5514 3.5009 11.2221 0.0000 -10732.6234 1423.5995 0.0000 0.0000 1770.8948 -7512.8546 299.3466 -9283.7495 -7447.9398 300.5256 -445.1692 -442.4235 30906.5584 -124.4388 -71.1650
ENERGY: 900000 7.3060 5.2804 11.0367 0.0000 -10708.0874 1425.4333 0.0000 0.0000 1807.3248 -7451.7062 305.5046 -9259.0310 -7444.8461 300.1310 -195.3293 -98.6559 30394.9936 -116.6563 -59.3705
ENERGY: 1200000 6.5437 7.5835 13.6364 0.0000 -10699.7103 1398.9529 0.0000 0.0000 1763.8598 -7509.1340 298.1574 -9272.9938 -7459.5340 298.3776 -240.4892 -235.1997 30214.3535 -50.6548 5.4163
ENERGY: 1500000 5.6497 10.9650 10.4560 0.0000 -10615.9023 1345.2582 0.0000 0.0000 1796.1369 -7447.4367 303.6134 -9243.5735 -7449.9792 300.0894 -610.9292 -538.9312 30648.0829 -119.2284 -59.2998
TCL: Running FEP window  13: Lambda1 0.39999999999999963 Lambda2 0.34999999999999964 [dLambda -0.04999999999999999]
TCL: Setting parameter firsttimestep to 0
TCL: Setting parameter alchLambda to 0.39999999999999963
Info: NONBONDED TABLE R-SQUARED SPACING: 0.0625
Info: NONBONDED TABLE SIZE: 705 POINTS
TCL: Setting parameter alchLambda2 to 0.34999999999999964
Info: NONBONDED TABLE R-SQUARED SPACING: 0.0625
Info: NONBONDED TABLE SIZE: 705 POINTS
TCL: Running for 1500000 steps
ETITLE: TS BOND ANGLE DIHED IMPRP ELECT VDW BOUNDARY MISC KINETIC TOTAL TEMP POTENTIAL TOTALAVG TEMPAVG PRESSURE GPRESSURE VOLUME PRESSAVG GPRESSAVG
ENERGY: 0 5.6496 10.9650 10.4560 0.0000 -10615.9042 1346.0406 0.0000 0.0000 1795.2557 -7447.5373 303.4645 -9242.7930 -7447.5373 303.4645 -630.0367 -543.3342 30648.0829 -630.0367 -543.3342
ENERGY: 300000 12.2842 5.5493 7.7635 0.0000 -10746.1570 1441.9540 0.0000 0.0000 1792.4926 -7486.1134 302.9974 -9278.6060 -7492.8605 302.6838 205.6107 210.1809 29964.1200 -202.1167 -154.6191
ENERGY: 600000 3.6453 6.5555 10.2002 0.0000 -10780.8149 1505.2267 0.0000 0.0000 1812.5957 -7442.5914 306.3956 -9255.1871 -7481.0117 302.5230 538.7374 623.1855 30571.6883 -33.6332 10.4406
ENERGY: 900000 8.1299 6.5059 14.4060 0.0000 -10734.8222 1437.2867 0.0000 0.0000 1741.9894 -7526.5044 294.4605 -9268.4938 -7480.2321 300.9677 -20.2203 -16.7982 30454.4630 -20.5780 21.8357
ENERGY: 1200000 7.4891 7.1809 12.9457 0.0000 -10629.3018 1388.0234 0.0000 0.0000 1741.2468 -7472.4160 294.3350 -9213.6627 -7475.9898 300.1552 -278.5241 -216.6503 30707.2462 0.4374 46.4004
ENERGY: 1500000 7.4570 3.2877 10.0593 0.0000 -10865.8573 1552.5649 0.0000 0.0000 1777.9882 -7514.5001 300.5456 -9292.4883 -7483.2842 299.8266 460.8762 528.4097 30534.8375 44.5589 91.2983
TCL: Running FEP window  14: Lambda1 0.34999999999999964 Lambda2 0.29999999999999966 [dLambda -0.04999999999999999]
TCL: Setting parameter firsttimestep to 0
TCL: Setting parameter alchLambda to 0.34999999999999964
Info: NONBONDED TABLE R-SQUARED SPACING: 0.0625
Info: NONBONDED TABLE SIZE: 705 POINTS
TCL: Setting parameter alchLambda2 to 0.29999999999999966
Info: NONBONDED TABLE R-SQUARED SPACING: 0.0625
Info: NONBONDED TABLE SIZE: 705 POINTS
TCL: Running for 1500000 steps
ETITLE: TS BOND ANGLE DIHED IMPRP ELECT VDW BOUNDARY MISC KINETIC TOTAL TEMP POTENTIAL TOTALAVG TEMPAVG PRESSURE GPRESSURE VOLUME PRESSAVG GPRESSAVG
ENERGY: 0 7.4570 3.2877 10.0593 0.0000 -10865.8588 1552.6341 0.0000 0.0000 1777.1228 -7515.2980 300.3993 -9292.4207 -7515.2980 300.3993 424.3234 518.3156 30534.8375 424.3234 518.3156
ENERGY: 300000 5.5461 6.2486 11.0514 0.0000 -10704.4644 1383.7908 0.0000 0.0000 1755.6257 -7542.2019 296.7655 -9297.8276 -7499.5092 303.8762 -626.3472 -626.2182 30517.8673 240.0841 303.6960
ENERGY: 600000 10.2888 3.7002 11.0273 0.0000 -10671.9148 1369.1261 0.0000 0.0000 1752.4300 -7525.3424 296.2254 -9277.7724 -7485.5566 302.1850 -671.9720 -708.3624 30619.7302 44.1364 91.6670
ENERGY: 900000 8.3921 5.1803 10.4769 0.0000 -10717.9152 1482.8269 0.0000 0.0000 1778.3032 -7432.7358 300.5989 -9211.0389 -7489.6844 301.0906 133.8249 205.5679 30752.8717 42.1041 98.0090
ENERGY: 1200000 8.3560 6.0724 15.2219 0.0000 -10742.8063 1416.5882 0.0000 0.0000 1767.3831 -7529.1847 298.7530 -9296.5678 -7485.2957 300.9746 -377.5138 -273.0306 30029.2080 23.7847 88.2646
ENERGY: 1500000 2.9019 6.0967 13.2944 0.0000 -10740.6037 1414.3880 0.0000 0.0000 1723.4480 -7580.4748 291.3263 -9303.9227 -7483.8907 299.8076 -693.6055 -615.6153 31316.1953 -104.8268 -40.4996
TCL: Running FEP window  15: Lambda1 0.29999999999999966 Lambda2 0.24999999999999967 [dLambda -0.04999999999999999]
TCL: Setting parameter firsttimestep to 0
TCL: Setting parameter alchLambda to 0.29999999999999966
Info: NONBONDED TABLE R-SQUARED SPACING: 0.0625
Info: NONBONDED TABLE SIZE: 705 POINTS
TCL: Setting parameter alchLambda2 to 0.24999999999999967
Info: NONBONDED TABLE R-SQUARED SPACING: 0.0625
Info: NONBONDED TABLE SIZE: 705 POINTS
TCL: Running for 1500000 steps
ETITLE: TS BOND ANGLE DIHED IMPRP ELECT VDW BOUNDARY MISC KINETIC TOTAL TEMP POTENTIAL TOTALAVG TEMPAVG PRESSURE GPRESSURE VOLUME PRESSAVG GPRESSAVG
ENERGY: 0 2.9019 6.0967 13.2944 0.0000 -10740.6042 1414.9178 0.0000 0.0000 1722.5257 -7580.8678 291.1704 -9303.3935 -7580.8678 291.1704 -713.1755 -618.2538 31316.1953 -713.1755 -618.2538
ENERGY: 300000 8.5297 5.3289 14.8814 0.0000 -10778.5421 1521.5737 0.0000 0.0000 1767.6028 -7460.6256 298.7901 -9228.2284 -7489.5225 297.5475 438.3818 507.1555 30437.1334 22.6549 91.5443
ENERGY: 600000 4.6135 3.9609 15.7542 0.0000 -10797.9608 1506.8218 0.0000 0.0000 1771.5122 -7495.2982 299.4510 -9266.8104 -7482.5621 298.3547 403.2042 517.6270 30531.8502 38.3802 110.1572
ENERGY: 900000 10.1011 3.8831 11.0426 0.0000 -10628.5659 1345.5465 0.0000 0.0000 1710.2279 -7547.7646 289.0916 -9257.9925 -7484.4457 298.5733 -759.1012 -692.5132 30293.5455 3.4259 71.0613
ENERGY: 1200000 6.4109 6.1849 9.9415 0.0000 -10840.4522 1493.4503 0.0000 0.0000 1786.1384 -7538.3262 301.9233 -9324.4646 -7486.4271 299.4237 527.5429 605.5350 29906.4214 46.8940 113.2219
ENERGY: 1500000 3.4279 6.0126 8.7872 0.0000 -10643.7326 1425.6504 0.0000 0.0000 1779.1520 -7420.7025 300.7424 -9199.8545 -7487.8916 299.6418 -0.9822 41.2088 30544.0012 54.5405 118.9622
TCL: Running FEP window  16: Lambda1 0.24999999999999967 Lambda2 0.19999999999999968 [dLambda -0.04999999999999999]
TCL: Setting parameter firsttimestep to 0
TCL: Setting parameter alchLambda to 0.24999999999999967
Info: NONBONDED TABLE R-SQUARED SPACING: 0.0625
Info: NONBONDED TABLE SIZE: 705 POINTS
TCL: Setting parameter alchLambda2 to 0.19999999999999968
Info: NONBONDED TABLE R-SQUARED SPACING: 0.0625
Info: NONBONDED TABLE SIZE: 705 POINTS
TCL: Running for 1500000 steps
ETITLE: TS BOND ANGLE DIHED IMPRP ELECT VDW BOUNDARY MISC KINETIC TOTAL TEMP POTENTIAL TOTALAVG TEMPAVG PRESSURE GPRESSURE VOLUME PRESSAVG GPRESSAVG
ENERGY: 0 3.4279 6.0126 8.7872 0.0000 -10643.7333 1426.6910 0.0000 0.0000 1778.2595 -7420.5550 300.5915 -9198.8145 -7420.5550 300.5915 -35.9204 40.1340 30544.0012 -35.9204 40.1340
ENERGY: 300000 5.9089 8.4222 8.8175 0.0000 -10593.7329 1349.8036 0.0000 0.0000 1769.1001 -7451.6805 299.0432 -9220.7806 -7470.6931 296.9084 -655.8166 -648.2298 30553.1812 -638.7500 -598.4916
ENERGY: 600000 7.3884 3.8663 9.3616 0.0000 -10641.1766 1456.8783 0.0000 0.0000 1820.5860 -7343.0960 307.7462 -9163.6820 -7446.7033 299.1171 755.9931 776.5633 30192.3402 -81.5144 -22.8051
ENERGY: 900000 4.3251 6.9064 9.6419 0.0000 -10709.7310 1440.2827 0.0000 0.0000 1813.8412 -7434.7337 306.6061 -9248.5749 -7431.9976 302.4708 5.0822 113.2131 30320.6220 -111.5783 -41.4921
ENERGY: 1200000 3.2403 5.1138 12.7363 0.0000 -10720.2016 1427.2979 0.0000 0.0000 1739.5448 -7532.2685 294.0473 -9271.8133 -7445.9536 300.9290 -394.9143 -316.7005 30751.7217 -203.2850 -131.1491
ENERGY: 1500000 7.4851 6.0301 11.5593 0.0000 -10567.3136 1380.6875 0.0000 0.0000 1781.7824 -7379.7693 301.1870 -9161.5517 -7445.1447 301.4262 -473.1729 -431.9096 30755.2688 -237.0958 -168.9418
TCL: Running FEP window  17: Lambda1 0.19999999999999968 Lambda2 0.1499999999999997 [dLambda -0.04999999999999999]
TCL: Setting parameter firsttimestep to 0
TCL: Setting parameter alchLambda to 0.19999999999999968
Info: NONBONDED TABLE R-SQUARED SPACING: 0.0625
Info: NONBONDED TABLE SIZE: 705 POINTS
TCL: Setting parameter alchLambda2 to 0.1499999999999997
Info: NONBONDED TABLE R-SQUARED SPACING: 0.0625
Info: NONBONDED TABLE SIZE: 705 POINTS
TCL: Running for 1500000 steps
ETITLE: TS BOND ANGLE DIHED IMPRP ELECT VDW BOUNDARY MISC KINETIC TOTAL TEMP POTENTIAL TOTALAVG TEMPAVG PRESSURE GPRESSURE VOLUME PRESSAVG GPRESSAVG
ENERGY: 0 7.4851 6.0301 11.5593 0.0000 -10567.3138 1380.4506 0.0000 0.0000 1780.9004 -7380.8884 301.0379 -9161.7888 -7380.8884 301.0379 -524.8673 -442.8805 30755.2688 -524.8673 -442.8805
ENERGY: 300000 7.7081 4.1692 15.1252 0.0000 -10873.7126 1522.0188 0.0000 0.0000 1745.6817 -7579.0094 295.0847 -9324.6912 -7503.5232 297.0733 136.2974 241.5832 30428.8681 -47.9889 57.6550
ENERGY: 600000 8.1833 4.4253 13.4253 0.0000 -10777.2502 1465.4747 0.0000 0.0000 1753.3388 -7532.4028 296.3790 -9285.7416 -7509.2889 297.2813 -408.1892 -276.2269 30854.2045 -98.7824 -2.6961
ENERGY: 900000 7.3943 6.5530 12.5483 0.0000 -10781.4655 1494.1460 0.0000 0.0000 1769.5061 -7491.3178 299.1118 -9260.8239 -7503.0548 298.6130 467.1340 515.3692 30507.3609 -35.0451 45.9632
ENERGY: 1200000 4.5017 4.4377 10.1531 0.0000 -10800.0653 1481.9095 0.0000 0.0000 1819.0838 -7479.9795 307.4923 -9299.0632 -7487.2928 299.4706 148.9488 219.2390 30484.6582 -60.1027 16.1090
ENERGY: 1500000 7.3514 3.2630 10.4503 0.0000 -10627.1736 1397.9654 0.0000 0.0000 1790.6231 -7417.5204 302.6814 -9208.1435 -7482.8370 299.8507 -187.7767 -117.6517 30833.9816 -188.9162 -102.4179
TCL: Running FEP window  18: Lambda1 0.1499999999999997 Lambda2 0.09999999999999969 [dLambda -0.05 ]
TCL: Setting parameter firsttimestep to 0
TCL: Setting parameter alchLambda to 0.1499999999999997
Info: NONBONDED TABLE R-SQUARED SPACING: 0.0625
Info: NONBONDED TABLE SIZE: 705 POINTS
TCL: Setting parameter alchLambda2 to 0.09999999999999969
Info: NONBONDED TABLE R-SQUARED SPACING: 0.0625
Info: NONBONDED TABLE SIZE: 705 POINTS
TCL: Running for 1500000 steps
ETITLE: TS BOND ANGLE DIHED IMPRP ELECT VDW BOUNDARY MISC KINETIC TOTAL TEMP POTENTIAL TOTALAVG TEMPAVG PRESSURE GPRESSURE VOLUME PRESSAVG GPRESSAVG
ENERGY: 0 7.3514 3.2630 10.4503 0.0000 -10627.1745 1398.5352 0.0000 0.0000 1789.7371 -7417.8376 302.5316 -9207.5746 -7417.8376 302.5316 -198.0844 -117.4875 30833.9816 -198.0844 -117.4875
ENERGY: 300000 7.4285 3.9431 12.4697 0.0000 -10690.1333 1383.1769 0.0000 0.0000 1769.0750 -7514.0400 299.0390 -9283.1149 -7476.4337 299.2973 -808.0370 -740.0202 30447.8430 87.2186 156.5583
ENERGY: 600000 6.2754 5.9504 9.0590 0.0000 -10671.1578 1390.1118 0.0000 0.0000 1754.9509 -7504.8103 296.6515 -9259.7612 -7460.4241 300.6194 -837.9305 -728.4154 30975.3166 40.9235 103.1202
ENERGY: 900000 7.1727 2.0418 7.9489 0.0000 -10637.5607 1377.0017 0.0000 0.0000 1762.4973 -7480.8983 297.9271 -9243.3956 -7462.8532 300.1741 -817.5232 -728.6607 30779.7210 17.7708 80.1423
ENERGY: 1200000 6.8823 7.4050 10.2092 0.0000 -10796.4142 1545.7154 0.0000 0.0000 1763.0759 -7463.1263 298.0249 -9226.2023 -7462.5820 300.3583 810.5095 922.5867 30376.8211 -65.0570 3.5077
ENERGY: 1500000 7.8900 4.8782 12.0283 0.0000 -10804.9095 1518.5455 0.0000 0.0000 1862.1935 -7399.3741 314.7794 -9261.5676 -7465.9184 301.3645 410.0475 495.7748 30560.5953 -17.6465 52.7873
TCL: Running FEP window  19: Lambda1 0.09999999999999969 Lambda2 0.049999999999999684 [dLambda -0.05 ]
TCL: Setting parameter firsttimestep to 0
TCL: Setting parameter alchLambda to 0.09999999999999969
Info: NONBONDED TABLE R-SQUARED SPACING: 0.0625
Info: NONBONDED TABLE SIZE: 705 POINTS
TCL: Setting parameter alchLambda2 to 0.049999999999999684
Info: NONBONDED TABLE R-SQUARED SPACING: 0.0625
Info: NONBONDED TABLE SIZE: 705 POINTS
TCL: Running for 1500000 steps
ETITLE: TS BOND ANGLE DIHED IMPRP ELECT VDW BOUNDARY MISC KINETIC TOTAL TEMP POTENTIAL TOTALAVG TEMPAVG PRESSURE GPRESSURE VOLUME PRESSAVG GPRESSAVG
ENERGY: 0 7.8900 4.8782 12.0283 0.0000 -10804.9087 1518.8542 0.0000 0.0000 1861.3147 -7399.9434 314.6309 -9261.2580 -7399.9434 314.6309 413.7532 490.4040 30560.5953 413.7532 490.4040
ENERGY: 300000 7.8091 5.1378 8.3616 0.0000 -10834.7013 1493.0389 0.0000 0.0000 1765.8638 -7554.4901 298.4962 -9320.3539 -7463.4749 302.8893 139.9986 244.9878 30194.4783 -397.4998 -342.2767
ENERGY: 600000 4.7680 4.0628 8.5048 0.0000 -10616.7653 1346.0761 0.0000 0.0000 1749.6197 -7503.7338 295.7503 -9253.3535 -7461.0019 302.6945 -838.8654 -826.4638 30399.8675 -345.8135 -293.2665
ENERGY: 900000 4.2419 6.6464 10.7692 0.0000 -10834.6419 1565.5699 0.0000 0.0000 1740.1369 -7507.2777 294.1474 -9247.4146 -7483.7104 300.2346 880.7963 994.0180 30555.6249 -231.0910 -166.9694
ENERGY: 1200000 4.2761 2.5799 13.3341 0.0000 -10787.6622 1436.6071 0.0000 0.0000 1789.4610 -7541.4040 302.4850 -9330.8649 -7477.8636 301.2927 -154.3454 -84.9569 30021.2000 -175.2715 -117.0626
ENERGY: 1500000 8.1708 7.3869 7.3151 0.0000 -10766.3733 1411.5032 0.0000 0.0000 1770.6828 -7561.3145 299.3108 -9331.9973 -7479.1846 300.7435 -558.6200 -477.4823 30442.8461 -240.8996 -183.0024
TCL: Running FEP window  20: Lambda1 0.049999999999999684 Lambda2 0.0    [dLambda -0.049999999999999684]
TCL: Setting parameter firsttimestep to 0
TCL: Setting parameter alchLambda to 0.049999999999999684
Info: NONBONDED TABLE R-SQUARED SPACING: 0.0625
Info: NONBONDED TABLE SIZE: 705 POINTS
TCL: Setting parameter alchLambda2 to 0.0
Info: NONBONDED TABLE R-SQUARED SPACING: 0.0625
Info: NONBONDED TABLE SIZE: 705 POINTS
TCL: Running for 1500000 steps
ETITLE: TS BOND ANGLE DIHED IMPRP ELECT VDW BOUNDARY MISC KINETIC TOTAL TEMP POTENTIAL TOTALAVG TEMPAVG PRESSURE GPRESSURE VOLUME PRESSAVG GPRESSAVG
ENERGY: 0 8.1708 7.3869 7.3151 0.0000 -10766.3720 1409.1279 0.0000 0.0000 1769.7387 -7564.6326 299.1512 -9334.3713 -7564.6326 299.1512 -574.3366 -491.5371 30442.8461 -574.3366 -491.5371
ENERGY: 300000 10.9874 6.0012 13.8099 0.0000 -10740.9408 1443.6849 0.0000 0.0000 1811.8831 -7454.5743 306.2751 -9266.4574 -7485.4616 300.2189 -300.0454 -274.0683 30523.2330 -61.3091 5.1784
ENERGY: 600000 4.4177 6.0224 7.3122 0.0000 -10795.1113 1489.6927 0.0000 0.0000 1847.4462 -7440.2201 312.2866 -9287.6663 -7481.1092 300.8213 111.3128 156.5644 30428.8154 -140.3608 -71.1501
ENERGY: 900000 5.7847 4.6643 11.1103 0.0000 -10519.7431 1317.1094 0.0000 0.0000 1738.7574 -7442.3169 293.9142 -9181.0743 -7472.2973 299.4774 -1129.8732 -1041.3624 30750.0212 -267.0563 -196.2201
ENERGY: 1200000 6.5751 6.2325 12.3955 0.0000 -10558.8912 1349.2561 0.0000 0.0000 1804.3821 -7380.0499 305.0072 -9184.4320 -7460.4654 300.7481 -712.1317 -575.5114 30112.9362 -266.6936 -181.8276
ENERGY: 1500000 6.3507 6.5787 9.7370 0.0000 -10654.0657 1431.5785 0.0000 0.0000 1801.4169 -7398.4039 304.5059 -9199.8207 -7460.2882 301.2400 84.6022 140.5350 30151.4679 -206.0218 -126.4877
TCL: Exiting due to exit command.
