Info: SIMULATION PARAMETERS:
Info: TIMESTEP               2
Info: NUMBER OF STEPS        0
Info: STEPS PER CYCLE        10
Info: PERIODIC CELL BASIS 1  33.7026 0 0
Info: PERIODIC CELL BASIS 2  0 30.2613 0
Info: PERIODIC CELL BASIS 3  0 0 29.3869
Info: PERIODIC CELL CENTER   0 0 0
Info: WRAPPING WATERS AROUND PERIODIC BOUNDARIES ON OUTPUT.
Info: WRAPPING ALL CLUSTERS AROUND PERIODIC BOUNDARIES ON OUTPUT.
Info: FIRST LDB TIMESTEP     50
Info: LAST LDB TIMESTEP     -1
Info: HOM BACKGROUND SCALING 1
Info: PME BACKGROUND SCALING 1
Info: MIN ATOMS PER PATCH    40
Info: EMPTY PATCH LOAD       40 ATOMS
Info: VELOCITY FILE          mobley_6861308_equil.vel
Info: CENTER OF MASS MOVING INITIALLY? NO
Info: DIELECTRIC             1
Info: EXCLUDE                SCALED ONE-FOUR
Info: 1-4 ELECTROSTATICS SCALED BY 0.833333
Info: MODIFIED 1-4 VDW PARAMETERS WILL BE USED
Info: DCD FILENAME           mobley_6861308_prod.dcd
Info: DCD FREQUENCY          100000
Info: DCD FIRST STEP         100000
Info: DCD FILE WILL CONTAIN UNIT CELL DATA
Info: XST FILENAME           mobley_6861308_prod.xst
Info: XST FREQUENCY          100000
Info: NO VELOCITY DCD OUTPUT
Info: NO FORCE DCD OUTPUT
Info: OUTPUT FILENAME        mobley_6861308_prod
Info: BINARY OUTPUT FILES WILL BE USED
Info: RESTART FILENAME       mobley_6861308_prod.restart
Info: RESTART FREQUENCY      100000
Info: BINARY RESTART FILES WILL BE USED
Info: CUTOFF                 9
Info: PAIRLIST DISTANCE      11
Info: PAIRLIST SHRINK RATE   0.01
Info: PAIRLIST GROW RATE     0.01
Info: PAIRLIST TRIGGER       0.3
Info: PAIRLISTS PER CYCLE    2
Info: PAIRLISTS ENABLED
Info: MARGIN                 2
Info: HYDROGEN GROUP CUTOFF  2.5
Info: PATCH DIMENSION        15.5
Info: ENERGY OUTPUT STEPS    100000
Info: ENERGY EVALUATION STEPS    100000
Info: OUTPUT ENERGY PRECISION 4
Info: CROSSTERM ENERGY INCLUDED IN DIHEDRAL
Info: TIMING OUTPUT STEPS    1000000
Info: PRESSURE OUTPUT STEPS  100000
Info: ALCHEMICAL FEP ON
Info: FEP CURRENT LAMBDA VALUE     1
Info: FEP COMPARISON LAMBDA VALUE  0.95
Info: FEP INTRA-ALCHEMICAL NON-BONDED INTERACTIONS WILL BE RETAINED
Info: FEP INTRA-ALCHEMICAL BONDED INTERACTIONS WILL BE RETAINED
Info: FEP VDW SHIFTING COEFFICIENT 5
Info: FEP ELEC. ACTIVE FOR ANNIHILATED PARTICLES BETWEEN LAMBDA = 0 AND LAMBDA = 0.5
Info: FEP ELEC. ACTIVE FOR EXNIHILATED PARTICLES BETWEEN LAMBDA = 0.5 AND LAMBDA = 1
Info: FEP VDW ACTIVE FOR ANNIHILATED PARTICLES BETWEEN LAMBDA = 0 AND LAMBDA = 1
Info: FEP VDW ACTIVE FOR EXNIHILATED PARTICLES BETWEEN LAMBDA = 0 AND LAMBDA = 1
Info: FEP BOND ACTIVE FOR ANNIHILATED PARTICLES BETWEEN LAMBDA = 1 AND LAMBDA = 1
Info: FEP BOND ACTIVE FOR EXNIHILATED PARTICLES BETWEEN LAMBDA = 0 AND LAMBDA = 0
Info: LANGEVIN DYNAMICS ACTIVE
Info: LANGEVIN TEMPERATURE   300
Info: LANGEVIN USING BBK INTEGRATOR
Info: LANGEVIN DAMPING COEFFICIENT IS 1 INVERSE PS
Info: LANGEVIN DYNAMICS APPLIED TO HYDROGENS
Info: LANGEVIN PISTON PRESSURE CONTROL ACTIVE
Info:        TARGET PRESSURE IS 1.01325 BAR
Info:     OSCILLATION PERIOD IS 50 FS
Info:             DECAY TIME IS 25 FS
Info:     PISTON TEMPERATURE IS 300 K
Info:       PRESSURE CONTROL IS GROUP-BASED
Info:    INITIAL STRAIN RATE IS -0.000474029 -0.000474029 -0.000474029
Info:       CELL FLUCTUATION IS ISOTROPIC
Info: PARTICLE MESH EWALD (PME) ACTIVE
Info: PME TOLERANCE               1e-06
Info: PME EWALD COEFFICIENT       0.348832
Info: PME INTERPOLATION ORDER     4
Info: PME GRID DIMENSIONS         36 32 32
Info: PME MAXIMUM GRID SPACING    1
Info: PME CALCULATION WILL BE PERFORMED ON GPU
Info: FULL ELECTROSTATIC EVALUATION FREQUENCY      2
Info: USING VERLET I (r-RESPA) MTS SCHEME.
Info: C1 SPLITTING OF LONG RANGE ELECTROSTATICS
Info: PLACING ATOMS IN PATCHES BY HYDROGEN GROUPS
Info: RIGID BONDS TO HYDROGEN : ALL
Info:         ERROR TOLERANCE : 1e-08
Info:          MAX ITERATIONS : 100
Info: RIGID WATER USING SETTLE ALGORITHM
Info: RANDOM NUMBER SEED     1743812836
Info: USE HYDROGEN BONDS?    NO
Info: Using AMBER format force field!
Info: AMBER PARM FILE        mobley_6861308.prmtop
Info: COORDINATE PDB         mobley_6861308.pdb
Info: Exclusions will be read from PARM file!
Info: SCNB (VDW SCALING)     2
Info: USING ARITHMETIC MEAN TO COMBINE L-J SIGMA PARAMETERS
Info: BINARY COORDINATES     mobley_6861308_equil.coor
Info: SUMMARY OF PARAMETERS:
Info: 10 BONDS
Info: 12 ANGLES
Info:   12 HARMONIC
Info:   0 COSINE-BASED
Info: 7 DIHEDRAL
Info: 0 IMPROPER
Info: 0 CROSSTERM
Info: 0 VDW
Info: 45 VDW_PAIRS
Info: 0 NBTHOLE_PAIRS
Info: To read alchdata from file: mobley_6861308.pdb
Info: To read alchflag data from column: 5
Info: STRUCTURE SUMMARY:
Info: 2919 ATOMS
Info: 2919 BONDS
Info: 39 ANGLES
Info: 58 DIHEDRALS
Info: 0 IMPROPERS
Info: 0 CROSSTERMS
Info: 3003 EXCLUSIONS
Info: 2907 RIGID BONDS
Info: ALCH: 0 ATOMS TO DISAPPEAR IN FINAL STATE
Info: ALCH: 24 ATOMS TO APPEAR IN FINAL STATE
Info: 5850 DEGREES OF FREEDOM
Info: 977 HYDROGEN GROUPS
Info: 4 ATOMS IN LARGEST HYDROGEN GROUP
Info: 977 MIGRATION GROUPS
Info: 4 ATOMS IN LARGEST MIGRATION GROUP
Info: TOTAL MASS = 17549.6 amu
Info: TOTAL CHARGE = 0.000199981 e
Info: MASS DENSITY = 0.97235 g/cm^3
Info: ATOM DENSITY = 0.0973933 atoms/A^3
Info: ADDED 0 IMPLICIT EXCLUSIONS
Info: NONBONDED TABLE R-SQUARED SPACING: 0.0625
Info: NONBONDED TABLE SIZE: 705 POINTS
Info: REMOVING COM VELOCITY -0.190182 -0.0822613 0.00322568
Info: Use 3D box decompostion in PME FFT.
Info: Updated CUDA force table with 4096 elements.
Info: Updated CUDA LJ table with 9 x 9 elements.
Info: Found 23 unique exclusion lists needing 76 bytes
TCL: Running for 1500000 steps
ETITLE: TS BOND ANGLE DIHED IMPRP ELECT VDW BOUNDARY MISC KINETIC TOTAL TEMP POTENTIAL TOTALAVG TEMPAVG PRESSURE GPRESSURE VOLUME PRESSAVG GPRESSAVG
ENERGY: 0 2.9163 9.2460 6.2649 0.0000 -10776.3670 1445.8572 0.0000 0.0000 1734.6657 -7577.4169 298.4354 -9312.0826 -7577.4169 298.4354 43.8858 122.6459 29971.2532 43.8858 122.6459
ENERGY: 300000 5.8910 10.5490 5.0718 0.0000 -10645.9611 1415.5896 0.0000 0.0000 1731.5408 -7477.3190 297.8978 -9208.8597 -7473.4189 299.7358 -267.8758 -187.6531 29937.8421 -349.3047 -278.4774
ENERGY: 600000 3.9884 10.1026 5.7699 0.0000 -10628.5518 1453.5423 0.0000 0.0000 1799.7372 -7355.4114 309.6304 -9155.1486 -7455.6398 301.3017 640.5881 714.9479 29876.0486 -66.3577 -1.0784
ENERGY: 900000 6.3215 11.2760 2.7544 0.0000 -10657.1365 1363.9271 0.0000 0.0000 1722.8658 -7549.9917 296.4053 -9272.8575 -7464.9407 299.9000 -912.0873 -856.6134 29857.5827 -69.2134 -7.1311
ENERGY: 1200000 4.9743 7.4588 3.6428 0.0000 -10590.3517 1400.4301 0.0000 0.0000 1714.4102 -7459.4354 294.9506 -9173.8456 -7460.4317 299.1067 -113.1943 -32.1754 29744.3458 -173.6031 -111.8437
ENERGY: 1500000 4.9897 12.5502 6.2695 0.0000 -10709.8969 1415.2626 0.0000 0.0000 1714.0120 -7556.8129 294.8821 -9270.8248 -7463.6806 299.4727 -228.4570 -146.8637 29718.1349 -142.6340 -86.2718
TCL: Running FEP window   2: Lambda1 0.95   Lambda2 0.8999999999999999 [dLambda -0.050000000000000044]
TCL: Setting parameter firsttimestep to 0
TCL: Setting parameter alchLambda to 0.95
Info: NONBONDED TABLE R-SQUARED SPACING: 0.0625
Info: NONBONDED TABLE SIZE: 705 POINTS
TCL: Setting parameter alchLambda2 to 0.8999999999999999
Info: NONBONDED TABLE R-SQUARED SPACING: 0.0625
Info: NONBONDED TABLE SIZE: 705 POINTS
TCL: Running for 1500000 steps
ETITLE: TS BOND ANGLE DIHED IMPRP ELECT VDW BOUNDARY MISC KINETIC TOTAL TEMP POTENTIAL TOTALAVG TEMPAVG PRESSURE GPRESSURE VOLUME PRESSAVG GPRESSAVG
ENERGY: 0 4.9897 12.5502 6.2695 0.0000 -10707.4631 1414.8911 0.0000 0.0000 1713.1845 -7555.5781 294.7397 -9268.7626 -7555.5781 294.7397 -242.4494 -162.7769 29718.1349 -242.4494 -162.7769
ENERGY: 300000 6.3595 12.4261 5.7857 0.0000 -10562.9623 1404.7100 0.0000 0.0000 1688.5410 -7445.1400 290.5000 -9133.6810 -7455.4466 297.3732 -619.3010 -526.8814 30685.8993 -451.7059 -357.3436
ENERGY: 600000 4.8061 6.4460 5.8548 0.0000 -10532.9411 1392.6450 0.0000 0.0000 1730.4486 -7392.7407 297.7099 -9123.1893 -7449.9671 297.3067 -284.3106 -152.0260 30133.8023 -324.3227 -246.6318
ENERGY: 900000 3.4540 6.5042 9.2753 0.0000 -10575.1303 1380.2272 0.0000 0.0000 1772.2751 -7403.3945 304.9058 -9175.6696 -7447.9932 298.5860 -344.8654 -300.5973 30413.1360 -246.2362 -184.6528
ENERGY: 1200000 6.8084 8.0985 7.4587 0.0000 -10683.5605 1479.4442 0.0000 0.0000 1761.7939 -7419.9568 303.1026 -9181.7507 -7444.2304 298.8881 635.0867 671.8500 29552.5447 -169.9928 -104.5540
ENERGY: 1500000 3.0157 6.6809 7.6087 0.0000 -10497.2723 1364.7802 0.0000 0.0000 1704.4759 -7410.7109 293.2415 -9115.1868 -7439.4403 298.9102 -227.6190 -174.9052 30241.8092 -187.1004 -126.6855
TCL: Running FEP window   3: Lambda1 0.8999999999999999 Lambda2 0.8499999999999999 [dLambda -0.050000000000000044]
TCL: Setting parameter firsttimestep to 0
TCL: Setting parameter alchLambda to 0.8999999999999999
Info: NONBONDED TABLE R-SQUARED SPACING: 0.0625
Info: NONBONDED TABLE SIZE: 705 POINTS
TCL: Setting parameter alchLambda2 to 0.8499999999999999
Info: NONBONDED TABLE R-SQUARED SPACING: 0.0625
Info: NONBONDED TABLE SIZE: 705 POINTS
TCL: Running for 1500000 steps
ETITLE: TS BOND ANGLE DIHED IMPRP ELECT VDW BOUNDARY MISC KINETIC TOTAL TEMP POTENTIAL TOTALAVG TEMPAVG PRESSURE GPRESSURE VOLUME PRESSAVG GPRESSAVG
ENERGY: 0 3.0157 6.6809 7.6087 0.0000 -10494.3704 1364.6188 0.0000 0.0000 1703.6190 -7408.8273 293.0940 -9112.4462 -7408.8273 293.0940 -252.2382 -184.2930 30241.8092 -252.2382 -184.2930
ENERGY: 300000 3.2773 6.9692 4.5527 0.0000 -10685.7377 1454.9412 0.0000 0.0000 1731.5178 -7484.4794 297.8938 -9215.9973 -7453.0899 297.8831 351.3175 303.5162 29982.9763 -203.9474 -172.5946
ENERGY: 600000 5.0231 11.1283 4.9640 0.0000 -10657.1741 1482.1922 0.0000 0.0000 1724.3509 -7429.5156 296.6608 -9153.8665 -7450.5077 298.6365 297.4839 423.4178 30279.0329 -114.3589 -70.1066
ENERGY: 900000 1.1749 6.0666 6.7900 0.0000 -10561.7938 1358.6289 0.0000 0.0000 1769.3686 -7419.7648 304.4057 -9189.1333 -7434.8910 300.1107 -384.8477 -348.1235 29941.7828 -188.0183 -144.0406
ENERGY: 1200000 4.1019 6.9184 9.4411 0.0000 -10519.4394 1339.2923 0.0000 0.0000 1756.7116 -7402.9740 302.2282 -9159.6856 -7433.0659 301.0781 -758.0104 -674.7826 30321.0254 -184.9382 -141.4568
ENERGY: 1500000 2.9407 6.1952 4.0116 0.0000 -10644.4882 1462.6993 0.0000 0.0000 1740.8428 -7427.7987 299.4981 -9168.6415 -7423.8805 301.3972 378.6605 460.5567 29765.5753 -82.9231 -36.7407
TCL: Running FEP window   4: Lambda1 0.8499999999999999 Lambda2 0.7999999999999998 [dLambda -0.050000000000000044]
TCL: Setting parameter firsttimestep to 0
TCL: Setting parameter alchLambda to 0.8499999999999999
Info: NONBONDED TABLE R-SQUARED SPACING: 0.0625
Info: NONBONDED TABLE SIZE: 705 POINTS
TCL: Setting parameter alchLambda2 to 0.7999999999999998
Info: NONBONDED TABLE R-SQUARED SPACING: 0.0625
Info: NONBONDED TABLE SIZE: 705 POINTS
TCL: Running for 1500000 steps
ETITLE: TS BOND ANGLE DIHED IMPRP ELECT VDW BOUNDARY MISC KINETIC TOTAL TEMP POTENTIAL TOTALAVG TEMPAVG PRESSURE GPRESSURE VOLUME PRESSAVG GPRESSAVG
ENERGY: 0 2.9407 6.1952 4.0116 0.0000 -10642.2092 1462.5074 0.0000 0.0000 1739.9869 -7426.5675 299.3509 -9166.5544 -7426.5675 299.3509 364.3735 448.4796 29765.5753 364.3735 448.4796
ENERGY: 300000 5.0361 11.6039 6.2779 0.0000 -10581.0607 1432.7718 0.0000 0.0000 1778.2203 -7347.1506 305.9286 -9125.3709 -7415.7442 301.4513 179.3421 181.6051 30218.5742 58.7006 101.5019
ENERGY: 600000 2.9995 6.9650 4.0458 0.0000 -10638.0020 1489.7573 0.0000 0.0000 1735.5086 -7398.7259 298.5804 -9134.2345 -7426.3082 300.9936 433.0090 463.0965 30152.8050 208.2634 243.8781
ENERGY: 900000 3.6620 6.8576 5.3904 0.0000 -10786.2692 1462.5580 0.0000 0.0000 1729.7068 -7578.0943 297.5822 -9307.8011 -7442.5434 300.4250 -60.7031 3.7995 29697.3494 227.6640 283.0186
ENERGY: 1200000 4.3157 7.0256 6.3076 0.0000 -10690.8392 1485.5490 0.0000 0.0000 1662.6854 -7524.9558 286.0517 -9187.6412 -7453.7222 298.5074 616.6892 632.6522 29793.8384 237.4698 291.9450
ENERGY: 1500000 2.3308 8.3363 5.5517 0.0000 -10662.1074 1528.9775 0.0000 0.0000 1742.0497 -7374.8614 299.7057 -9116.9111 -7442.6549 298.7735 1062.6143 1200.5338 30417.0719 223.5097 283.0716
TCL: Running FEP window   5: Lambda1 0.7999999999999998 Lambda2 0.7499999999999998 [dLambda -0.050000000000000044]
TCL: Setting parameter firsttimestep to 0
TCL: Setting parameter alchLambda to 0.7999999999999998
Info: NONBONDED TABLE R-SQUARED SPACING: 0.0625
Info: NONBONDED TABLE SIZE: 705 POINTS
TCL: Setting parameter alchLambda2 to 0.7499999999999998
Info: NONBONDED TABLE R-SQUARED SPACING: 0.0625
Info: NONBONDED TABLE SIZE: 705 POINTS
TCL: Running for 1500000 steps
ETITLE: TS BOND ANGLE DIHED IMPRP ELECT VDW BOUNDARY MISC KINETIC TOTAL TEMP POTENTIAL TOTALAVG TEMPAVG PRESSURE GPRESSURE VOLUME PRESSAVG GPRESSAVG
ENERGY: 0 2.3308 8.3363 5.5517 0.0000 -10659.2015 1528.7261 0.0000 0.0000 1741.2008 -7373.0559 299.5597 -9114.2566 -7373.0559 299.5597 1098.7539 1188.8911 30417.0719 1098.7539 1188.8911
ENERGY: 300000 7.1053 10.7280 4.2294 0.0000 -10634.9146 1422.3860 0.0000 0.0000 1746.9445 -7443.5213 300.5478 -9190.4658 -7426.3722 297.5728 -114.7822 -97.3076 29894.4392 279.5248 350.7743
ENERGY: 600000 5.3876 8.3570 7.9699 0.0000 -10673.4294 1485.7225 0.0000 0.0000 1793.3049 -7372.6875 308.5238 -9165.9924 -7437.4392 299.2056 442.4057 525.6802 29978.5365 251.6296 317.0601
ENERGY: 900000 3.6734 11.3290 3.3072 0.0000 -10638.8568 1522.4957 0.0000 0.0000 1785.6440 -7312.4074 307.2058 -9098.0514 -7425.0986 300.6719 1107.6399 1222.6107 29698.3298 161.3828 238.2848
ENERGY: 1200000 1.9061 6.9446 7.1715 0.0000 -10678.3781 1454.4279 0.0000 0.0000 1780.4452 -7427.4828 306.3114 -9207.9280 -7427.9805 299.9170 611.9363 640.3850 29412.5918 63.8645 136.1517
ENERGY: 1500000 2.0006 9.4973 7.3290 0.0000 -10603.3846 1439.7241 0.0000 0.0000 1758.2873 -7386.5464 302.4993 -9144.8337 -7422.9188 300.4188 276.9360 277.0517 30223.1334 4.4849 64.8249
TCL: Running FEP window   6: Lambda1 0.7499999999999998 Lambda2 0.6999999999999997 [dLambda -0.050000000000000044]
TCL: Setting parameter firsttimestep to 0
TCL: Setting parameter alchLambda to 0.7499999999999998
Info: NONBONDED TABLE R-SQUARED SPACING: 0.0625
Info: NONBONDED TABLE SIZE: 705 POINTS
TCL: Setting parameter alchLambda2 to 0.6999999999999997
Info: NONBONDED TABLE R-SQUARED SPACING: 0.0625
Info: NONBONDED TABLE SIZE: 705 POINTS
TCL: Running for 1500000 steps
ETITLE: TS BOND ANGLE DIHED IMPRP ELECT VDW BOUNDARY MISC KINETIC TOTAL TEMP POTENTIAL TOTALAVG TEMPAVG PRESSURE GPRESSURE VOLUME PRESSAVG GPRESSAVG
ENERGY: 0 2.0006 9.4973 7.3290 0.0000 -10600.9201 1439.7832 0.0000 0.0000 1757.4213 -7384.8887 302.3503 -9142.3101 -7384.8887 302.3503 192.3779 271.2589 30223.1334 192.3779 271.2589
ENERGY: 300000 2.1369 10.7090 4.7284 0.0000 -10701.8551 1475.6884 0.0000 0.0000 1725.8739 -7482.7185 296.9228 -9208.5924 -7417.4468 301.3849 173.6124 295.8115 29870.4017 -185.7867 -109.3846
ENERGY: 600000 5.5478 9.0613 4.3908 0.0000 -10587.3084 1391.3621 0.0000 0.0000 1808.8130 -7368.1335 311.1918 -9176.9465 -7389.8281 304.2107 -93.2248 -98.4076 29643.4812 -0.1981 50.0805
ENERGY: 900000 3.8677 6.9331 5.0507 0.0000 -10701.2914 1431.7849 0.0000 0.0000 1795.4850 -7458.1699 308.8988 -9253.6549 -7397.4966 302.8210 218.4810 293.2668 29353.2272 -2.8944 48.2490
ENERGY: 1200000 2.8040 7.8028 3.3376 0.0000 -10527.2926 1356.6788 0.0000 0.0000 1747.2425 -7409.4270 300.5991 -9156.6695 -7402.4753 301.5261 -239.9375 -140.1911 29638.3564 -5.7419 51.4892
ENERGY: 1500000 2.7888 12.0815 10.4147 0.0000 -10579.1201 1361.0972 0.0000 0.0000 1790.0030 -7402.7348 307.9557 -9192.7378 -7402.4378 301.6060 -364.6655 -295.8688 29696.8844 -73.7798 -13.6339
TCL: Running FEP window   7: Lambda1 0.6999999999999997 Lambda2 0.6499999999999997 [dLambda -0.050000000000000044]
TCL: Setting parameter firsttimestep to 0
TCL: Setting parameter alchLambda to 0.6999999999999997
Info: NONBONDED TABLE R-SQUARED SPACING: 0.0625
Info: NONBONDED TABLE SIZE: 705 POINTS
TCL: Setting parameter alchLambda2 to 0.6499999999999997
Info: NONBONDED TABLE R-SQUARED SPACING: 0.0625
Info: NONBONDED TABLE SIZE: 705 POINTS
TCL: Running for 1500000 steps
ETITLE: TS BOND ANGLE DIHED IMPRP ELECT VDW BOUNDARY MISC KINETIC TOTAL TEMP POTENTIAL TOTALAVG TEMPAVG PRESSURE GPRESSURE VOLUME PRESSAVG GPRESSAVG
ENERGY: 0 2.7888 12.0815 10.4147 0.0000 -10576.4294 1359.1921 0.0000 0.0000 1789.1593 -7402.7928 307.8106 -9191.9521 -7402.7928 307.8106 -413.2094 -322.2001 29696.8844 -413.2094 -322.2001
ENERGY: 300000 6.9389 11.6567 5.1598 0.0000 -10688.7380 1422.0864 0.0000 0.0000 1750.4069 -7492.4894 301.1435 -9242.8963 -7443.9861 304.0443 -452.2937 -393.6991 30064.8377 -232.3623 -156.4629
ENERGY: 600000 5.1900 4.2931 4.5444 0.0000 -10444.7325 1386.0433 0.0000 0.0000 1776.2805 -7268.3811 305.5949 -9044.6617 -7421.9166 303.2160 80.2389 77.9993 30196.3895 -325.8020 -267.8042
ENERGY: 900000 6.5578 6.2820 7.2929 0.0000 -10497.8726 1394.1899 0.0000 0.0000 1786.6500 -7296.9001 307.3789 -9083.5501 -7413.9309 304.0477 -95.8700 20.8032 30438.5153 -336.3308 -274.3887
ENERGY: 1200000 5.2028 13.4683 4.2181 0.0000 -10354.8258 1229.7566 0.0000 0.0000 1706.7762 -7395.4037 293.6372 -9102.1799 -7419.4118 302.7195 -1601.6250 -1552.0552 30666.1914 -441.5918 -380.8593
ENERGY: 1500000 8.2678 8.7746 8.5357 0.0000 -10606.3279 1420.0148 0.0000 0.0000 1676.8125 -7483.9225 288.4822 -9160.7350 -7417.3401 302.7234 -401.8963 -293.1239 30529.1990 -359.1081 -303.2666
TCL: Running FEP window   8: Lambda1 0.6499999999999997 Lambda2 0.5999999999999996 [dLambda -0.050000000000000044]
TCL: Setting parameter firsttimestep to 0
TCL: Setting parameter alchLambda to 0.6499999999999997
Info: NONBONDED TABLE R-SQUARED SPACING: 0.0625
Info: NONBONDED TABLE SIZE: 705 POINTS
TCL: Setting parameter alchLambda2 to 0.5999999999999996
Info: NONBONDED TABLE R-SQUARED SPACING: 0.0625
Info: NONBONDED TABLE SIZE: 705 POINTS
TCL: Running for 1500000 steps
ETITLE: TS BOND ANGLE DIHED IMPRP ELECT VDW BOUNDARY MISC KINETIC TOTAL TEMP POTENTIAL TOTALAVG TEMPAVG PRESSURE GPRESSURE VOLUME PRESSAVG GPRESSAVG
ENERGY: 0 8.2678 8.7746 8.5357 0.0000 -10604.2271 1420.5244 0.0000 0.0000 1675.9263 -7482.1984 288.3297 -9158.1247 -7482.1984 288.3297 -382.6782 -294.2097 30529.1990 -382.6782 -294.2097
ENERGY: 300000 3.1051 5.8528 6.9217 0.0000 -10502.5671 1382.0251 0.0000 0.0000 1740.5569 -7364.1054 299.4489 -9104.6623 -7430.2165 294.5579 -275.0604 -205.1394 30122.5847 -126.0457 -70.9591
ENERGY: 600000 4.7595 10.8169 5.3180 0.0000 -10581.1348 1360.8169 0.0000 0.0000 1666.8235 -7532.5999 286.7637 -9199.4234 -7446.3882 295.8274 -700.1389 -651.6202 29863.3877 -30.0853 30.0878
ENERGY: 900000 3.1901 11.6668 4.5926 0.0000 -10719.6837 1509.4454 0.0000 0.0000 1683.9052 -7506.8837 289.7024 -9190.7889 -7438.5270 295.7366 658.4086 665.7802 29590.1504 74.5470 128.0930
ENERGY: 1200000 6.5336 9.8039 5.2559 0.0000 -10521.0093 1349.9212 0.0000 0.0000 1722.8031 -7426.6916 296.3945 -9149.4946 -7442.0052 297.0370 -525.2970 -490.0077 29939.0159 38.4454 84.9009
ENERGY: 1500000 3.5544 10.9022 4.2321 0.0000 -10583.3470 1378.0906 0.0000 0.0000 1740.4225 -7446.1451 299.4258 -9186.5677 -7433.0816 297.7333 -334.8919 -300.0898 29867.7184 -38.0951 6.7014
TCL: Running FEP window   9: Lambda1 0.5999999999999996 Lambda2 0.5499999999999996 [dLambda -0.050000000000000044]
TCL: Setting parameter firsttimestep to 0
TCL: Setting parameter alchLambda to 0.5999999999999996
Info: NONBONDED TABLE R-SQUARED SPACING: 0.0625
Info: NONBONDED TABLE SIZE: 705 POINTS
TCL: Setting parameter alchLambda2 to 0.5499999999999996
Info: NONBONDED TABLE R-SQUARED SPACING: 0.0625
Info: NONBONDED TABLE SIZE: 705 POINTS
TCL: Running for 1500000 steps
ETITLE: TS BOND ANGLE DIHED IMPRP ELECT VDW BOUNDARY MISC KINETIC TOTAL TEMP POTENTIAL TOTALAVG TEMPAVG PRESSURE GPRESSURE VOLUME PRESSAVG GPRESSAVG
ENERGY: 0 3.5544 10.9022 4.2321 0.0000 -10582.5910 1378.1072 0.0000 0.0000 1739.5214 -7446.2736 299.2708 -9185.7950 -7446.2736 299.2708 -370.2715 -306.7706 29867.7184 -370.2715 -306.7706
ENERGY: 300000 6.2839 10.5817 2.9476 0.0000 -10736.0151 1487.4514 0.0000 0.0000 1741.4308 -7487.3198 299.5993 -9228.7505 -7391.6850 300.9046 127.3863 183.2880 30289.5558 -82.0720 -26.9296
ENERGY: 600000 4.9844 5.9544 7.1100 0.0000 -10680.1074 1496.1428 0.0000 0.0000 1731.1913 -7434.7246 297.8376 -9165.9158 -7407.7328 299.8425 700.8769 701.1334 29419.5229 -94.0176 -55.6755
ENERGY: 900000 6.4149 4.7433 7.6959 0.0000 -10621.2972 1437.9780 0.0000 0.0000 1753.1295 -7411.3356 301.6119 -9164.4651 -7411.9637 299.6701 397.9377 403.1573 29628.3595 -74.2305 -35.1165
ENERGY: 1200000 2.9916 5.8830 7.8024 0.0000 -10683.8787 1472.8082 0.0000 0.0000 1730.4094 -7463.9841 297.7031 -9194.3935 -7415.9722 299.7276 189.7016 301.0326 30364.7711 -48.0873 1.0893
ENERGY: 1500000 2.7186 6.0173 5.4575 0.0000 -10686.5020 1492.6199 0.0000 0.0000 1737.0566 -7442.6322 298.8467 -9179.6888 -7416.4456 299.2838 405.7165 405.4731 30199.2166 -22.1739 25.2298
TCL: Running FEP window  10: Lambda1 0.5499999999999996 Lambda2 0.4999999999999996 [dLambda -0.04999999999999999]
TCL: Setting parameter firsttimestep to 0
TCL: Setting parameter alchLambda to 0.5499999999999996
Info: NONBONDED TABLE R-SQUARED SPACING: 0.0625
Info: NONBONDED TABLE SIZE: 705 POINTS
TCL: Setting parameter alchLambda2 to 0.4999999999999996
Info: NONBONDED TABLE R-SQUARED SPACING: 0.0625
Info: NONBONDED TABLE SIZE: 705 POINTS
TCL: Running for 1500000 steps
ETITLE: TS BOND ANGLE DIHED IMPRP ELECT VDW BOUNDARY MISC KINETIC TOTAL TEMP POTENTIAL TOTALAVG TEMPAVG PRESSURE GPRESSURE VOLUME PRESSAVG GPRESSAVG
ENERGY: 0 2.7186 6.0173 5.4575 0.0000 -10685.6711 1492.1236 0.0000 0.0000 1736.2403 -7443.1138 298.7063 -9179.3541 -7443.1138 298.7063 322.0771 395.0989 30199.2166 322.0771 395.0989
ENERGY: 300000 6.4457 6.2380 5.0620 0.0000 -10513.1984 1395.8647 0.0000 0.0000 1759.8591 -7339.7288 302.7697 -9099.5879 -7394.2638 301.5094 -122.7754 -10.4071 29921.5500 -305.6973 -214.1178
ENERGY: 600000 3.3098 10.8655 7.6231 0.0000 -10478.4486 1338.2597 0.0000 0.0000 1782.7758 -7335.6146 306.7123 -9118.3905 -7404.9080 302.5797 -360.6908 -369.1453 30134.8560 -208.6480 -130.9283
ENERGY: 900000 1.7928 9.8292 5.8218 0.0000 -10538.1850 1356.4020 0.0000 0.0000 1733.5233 -7430.8157 298.2388 -9164.3391 -7412.8159 301.0144 -639.2343 -566.3950 30071.0105 -235.1487 -161.2445
ENERGY: 1200000 2.8456 13.0676 6.7759 0.0000 -10634.3817 1458.5429 0.0000 0.0000 1790.3973 -7362.7524 308.0236 -9153.1497 -7406.1512 301.6320 382.0399 471.2715 29888.4485 -106.8067 -31.4094
ENERGY: 1500000 6.2055 10.3755 4.1155 0.0000 -10513.0863 1364.7726 0.0000 0.0000 1788.8187 -7338.7985 307.7520 -9127.6172 -7389.1587 303.0609 -336.5021 -317.1367 30074.2636 -116.0384 -43.5225
TCL: Running FEP window  11: Lambda1 0.4999999999999996 Lambda2 0.4499999999999996 [dLambda -0.04999999999999999]
TCL: Setting parameter firsttimestep to 0
TCL: Setting parameter alchLambda to 0.4999999999999996
Info: NONBONDED TABLE R-SQUARED SPACING: 0.0625
Info: NONBONDED TABLE SIZE: 705 POINTS
TCL: Setting parameter alchLambda2 to 0.4499999999999996
Info: NONBONDED TABLE R-SQUARED SPACING: 0.0625
Info: NONBONDED TABLE SIZE: 705 POINTS
TCL: Running for 1500000 steps
ETITLE: TS BOND ANGLE DIHED IMPRP ELECT VDW BOUNDARY MISC KINETIC TOTAL TEMP POTENTIAL TOTALAVG TEMPAVG PRESSURE GPRESSURE VOLUME PRESSAVG GPRESSAVG
ENERGY: 0 6.2055 10.3755 4.1155 0.0000 -10512.7065 1365.2073 0.0000 0.0000 1787.9926 -7338.8101 307.6098 -9126.8027 -7338.8101 307.6098 -380.6754 -323.6949 30074.2636 -380.6754 -323.6949
ENERGY: 300000 4.3855 10.3996 7.1146 0.0000 -10610.8525 1401.8092 0.0000 0.0000 1660.1340 -7527.0095 285.6128 -9187.1435 -7434.4504 295.2681 -506.4678 -331.4182 30167.5285 -427.1724 -335.4679
ENERGY: 600000 4.1627 6.0925 5.7498 0.0000 -10648.4409 1456.6621 0.0000 0.0000 1681.7349 -7494.0389 289.3291 -9175.7738 -7425.5208 298.0758 -178.7829 -90.9329 30486.4515 -192.9795 -125.4894
ENERGY: 900000 3.0264 10.0823 6.5234 0.0000 -10463.2693 1359.2994 0.0000 0.0000 1747.0915 -7337.2463 300.5731 -9084.3378 -7417.6955 299.2700 -86.0436 -23.6055 29704.1878 -177.9827 -113.4867
ENERGY: 1200000 5.9510 11.1272 5.3662 0.0000 -10579.0979 1400.3269 0.0000 0.0000 1792.1756 -7364.1509 308.3295 -9156.3265 -7413.3317 300.4371 -294.4171 -313.9504 30518.7570 -147.8090 -89.5806
ENERGY: 1500000 2.9027 5.9137 5.9515 0.0000 -10555.8209 1404.0356 0.0000 0.0000 1742.8235 -7394.1939 299.8389 -9137.0174 -7409.9254 299.9764 -272.6404 -220.4492 30153.4475 -149.0170 -85.3157
TCL: Running FEP window  12: Lambda1 0.4499999999999996 Lambda2 0.39999999999999963 [dLambda -0.04999999999999999]
TCL: Setting parameter firsttimestep to 0
TCL: Setting parameter alchLambda to 0.4499999999999996
Info: NONBONDED TABLE R-SQUARED SPACING: 0.0625
Info: NONBONDED TABLE SIZE: 705 POINTS
TCL: Setting parameter alchLambda2 to 0.39999999999999963
Info: NONBONDED TABLE R-SQUARED SPACING: 0.0625
Info: NONBONDED TABLE SIZE: 705 POINTS
TCL: Running for 1500000 steps
ETITLE: TS BOND ANGLE DIHED IMPRP ELECT VDW BOUNDARY MISC KINETIC TOTAL TEMP POTENTIAL TOTALAVG TEMPAVG PRESSURE GPRESSURE VOLUME PRESSAVG GPRESSAVG
ENERGY: 0 2.9027 5.9137 5.9515 0.0000 -10555.8207 1404.6071 0.0000 0.0000 1741.9548 -7394.4909 299.6894 -9136.4457 -7394.4909 299.6894 -306.0835 -226.8211 30153.4475 -306.0835 -226.8211
ENERGY: 300000 2.8398 7.3821 7.5569 0.0000 -10652.1359 1497.3638 0.0000 0.0000 1729.9326 -7407.0607 297.6211 -9136.9933 -7402.8882 300.9434 905.2417 955.8605 29587.1848 221.8105 311.9106
ENERGY: 600000 6.0660 12.4763 5.9492 0.0000 -10639.2982 1428.8864 0.0000 0.0000 1751.0397 -7434.8807 301.2524 -9185.9204 -7404.6817 302.2887 -165.9752 -123.4127 29989.3510 57.2199 135.8490
ENERGY: 900000 3.5079 9.9259 7.1719 0.0000 -10702.3946 1483.4691 0.0000 0.0000 1763.5109 -7434.8087 303.3980 -9198.3197 -7409.8272 302.3573 263.6028 346.4965 29846.7297 167.2293 249.0814
ENERGY: 1200000 6.0362 10.7903 4.7486 0.0000 -10700.8332 1476.9371 0.0000 0.0000 1805.3680 -7396.9529 310.5991 -9202.3209 -7399.1943 302.4368 521.5421 596.7546 29616.8103 173.6627 252.7187
ENERGY: 1500000 3.2582 7.5652 5.9127 0.0000 -10550.6664 1395.4538 0.0000 0.0000 1692.0763 -7446.4001 291.1082 -9138.4765 -7402.6013 301.2736 -218.0483 -184.9735 30055.0969 218.6580 293.6124
TCL: Running FEP window  13: Lambda1 0.39999999999999963 Lambda2 0.34999999999999964 [dLambda -0.04999999999999999]
TCL: Setting parameter firsttimestep to 0
TCL: Setting parameter alchLambda to 0.39999999999999963
Info: NONBONDED TABLE R-SQUARED SPACING: 0.0625
Info: NONBONDED TABLE SIZE: 705 POINTS
TCL: Setting parameter alchLambda2 to 0.34999999999999964
Info: NONBONDED TABLE R-SQUARED SPACING: 0.0625
Info: NONBONDED TABLE SIZE: 705 POINTS
TCL: Running for 1500000 steps
ETITLE: TS BOND ANGLE DIHED IMPRP ELECT VDW BOUNDARY MISC KINETIC TOTAL TEMP POTENTIAL TOTALAVG TEMPAVG PRESSURE GPRESSURE VOLUME PRESSAVG GPRESSAVG
ENERGY: 0 3.2582 7.5652 5.9127 0.0000 -10550.6654 1395.9943 0.0000 0.0000 1691.2266 -7446.7085 290.9620 -9137.9351 -7446.7085 290.9620 -269.3636 -187.3491 30055.0969 -269.3636 -187.3491
ENERGY: 300000 4.2474 12.5694 9.2456 0.0000 -10597.2197 1492.8920 0.0000 0.0000 1689.5636 -7388.7018 290.6759 -9078.2654 -7420.2470 295.8943 772.7435 765.2239 29890.4449 2.8840 48.1429
ENERGY: 600000 3.0590 9.4957 12.4739 0.0000 -10638.0025 1466.5434 0.0000 0.0000 1741.7567 -7404.6736 299.6553 -9146.4304 -7404.5117 299.0354 85.9801 147.0299 30070.9312 -12.4299 42.4942
ENERGY: 900000 3.6359 10.1340 4.5220 0.0000 -10619.5602 1396.9614 0.0000 0.0000 1707.8879 -7496.4190 293.8285 -9204.3069 -7432.2592 296.3261 -319.7398 -201.8129 30098.7810 1.7613 70.1822
ENERGY: 1200000 2.7173 11.1098 4.8601 0.0000 -10617.7416 1409.6728 0.0000 0.0000 1700.9768 -7488.4048 292.6395 -9189.3816 -7429.6999 296.2222 -104.5179 -89.1139 29847.8372 -16.5046 51.1875
ENERGY: 1500000 2.6597 6.2142 5.8698 0.0000 -10795.1922 1556.5730 0.0000 0.0000 1740.1033 -7483.7723 299.3709 -9223.8755 -7428.9555 297.4041 1010.1859 1147.0231 29467.0792 71.8257 146.2767
TCL: Running FEP window  14: Lambda1 0.34999999999999964 Lambda2 0.29999999999999966 [dLambda -0.04999999999999999]
TCL: Setting parameter firsttimestep to 0
TCL: Setting parameter alchLambda to 0.34999999999999964
Info: NONBONDED TABLE R-SQUARED SPACING: 0.0625
Info: NONBONDED TABLE SIZE: 705 POINTS
TCL: Setting parameter alchLambda2 to 0.29999999999999966
Info: NONBONDED TABLE R-SQUARED SPACING: 0.0625
Info: NONBONDED TABLE SIZE: 705 POINTS
TCL: Running for 1500000 steps
ETITLE: TS BOND ANGLE DIHED IMPRP ELECT VDW BOUNDARY MISC KINETIC TOTAL TEMP POTENTIAL TOTALAVG TEMPAVG PRESSURE GPRESSURE VOLUME PRESSAVG GPRESSAVG
ENERGY: 0 2.6597 6.2142 5.8698 0.0000 -10795.1915 1556.9291 0.0000 0.0000 1739.2405 -7484.2782 299.2224 -9223.5187 -7484.2782 299.2224 1042.7227 1141.9119 29467.0792 1042.7227 1141.9119
ENERGY: 300000 3.0509 12.6327 6.8092 0.0000 -10666.2430 1449.3108 0.0000 0.0000 1719.7491 -7474.6903 295.8691 -9194.4394 -7459.0454 299.8371 213.0293 322.3113 29719.5425 63.7220 169.1716
ENERGY: 600000 2.1157 6.2324 6.9255 0.0000 -10522.7245 1409.9978 0.0000 0.0000 1749.7324 -7347.7207 301.0275 -9097.4532 -7434.9196 299.5860 138.1209 241.3781 29830.0675 -11.2633 92.2691
ENERGY: 900000 3.4617 4.9724 5.9764 0.0000 -10672.7821 1470.8664 0.0000 0.0000 1713.1780 -7474.3272 294.7386 -9187.5052 -7431.0965 299.1107 448.8726 403.4315 29988.3608 189.1494 271.2786
ENERGY: 1200000 9.6445 9.2582 4.8665 0.0000 -10534.6838 1424.5092 0.0000 0.0000 1735.2356 -7351.1699 298.5334 -9086.4055 -7412.0800 300.4319 -97.4615 -19.5121 30002.2111 76.8534 149.5604
ENERGY: 1500000 4.7400 7.7849 3.5052 0.0000 -10454.7595 1304.8398 0.0000 0.0000 1777.8775 -7356.0121 305.8696 -9133.8896 -7408.0667 300.6701 -769.5233 -687.2019 30195.7205 22.4172 99.5799
TCL: Running FEP window  15: Lambda1 0.29999999999999966 Lambda2 0.24999999999999967 [dLambda -0.04999999999999999]
TCL: Setting parameter firsttimestep to 0
TCL: Setting parameter alchLambda to 0.29999999999999966
Info: NONBONDED TABLE R-SQUARED SPACING: 0.0625
Info: NONBONDED TABLE SIZE: 705 POINTS
TCL: Setting parameter alchLambda2 to 0.24999999999999967
Info: NONBONDED TABLE R-SQUARED SPACING: 0.0625
Info: NONBONDED TABLE SIZE: 705 POINTS
TCL: Running for 1500000 steps
ETITLE: TS BOND ANGLE DIHED IMPRP ELECT VDW BOUNDARY MISC KINETIC TOTAL TEMP POTENTIAL TOTALAVG TEMPAVG PRESSURE GPRESSURE VOLUME PRESSAVG GPRESSAVG
ENERGY: 0 4.7400 7.7849 3.5052 0.0000 -10454.7607 1305.4679 0.0000 0.0000 1777.0226 -7356.2401 305.7225 -9133.2627 -7356.2401 305.7225 -780.0579 -690.4423 30195.7205 -780.0579 -690.4423
ENERGY: 300000 3.8492 10.1796 7.9938 0.0000 -10530.1379 1402.0633 0.0000 0.0000 1720.3533 -7385.6988 295.9730 -9106.0520 -7389.3522 299.7635 -169.8429 -137.9900 30089.3161 -566.2825 -483.1238
ENERGY: 600000 5.6787 5.7542 4.1311 0.0000 -10651.2198 1485.0440 0.0000 0.0000 1723.5782 -7427.0336 296.5279 -9150.6119 -7403.4141 299.4266 534.1263 574.9540 29842.1117 -310.5005 -236.5364
ENERGY: 900000 4.2773 5.0728 5.7479 0.0000 -10560.2988 1429.2110 0.0000 0.0000 1742.6768 -7373.3131 299.8136 -9115.9899 -7392.4296 300.0231 -22.8397 32.5278 30133.7917 -97.0251 -19.2598
ENERGY: 1200000 4.6095 7.0010 4.5312 0.0000 -10547.9041 1360.7385 0.0000 0.0000 1757.6925 -7413.3314 302.3970 -9171.0239 -7391.5796 300.5756 -775.7711 -783.5023 30351.7674 -224.5314 -156.4967
ENERGY: 1500000 2.3793 13.0197 7.1412 0.0000 -10660.6242 1518.7414 0.0000 0.0000 1741.3620 -7377.9805 299.5874 -9119.3425 -7394.3614 299.8103 1237.8630 1288.2610 29686.8162 -119.8892 -58.0359
TCL: Running FEP window  16: Lambda1 0.24999999999999967 Lambda2 0.19999999999999968 [dLambda -0.04999999999999999]
TCL: Setting parameter firsttimestep to 0
TCL: Setting parameter alchLambda to 0.24999999999999967
Info: NONBONDED TABLE R-SQUARED SPACING: 0.0625
Info: NONBONDED TABLE SIZE: 705 POINTS
TCL: Setting parameter alchLambda2 to 0.19999999999999968
Info: NONBONDED TABLE R-SQUARED SPACING: 0.0625
Info: NONBONDED TABLE SIZE: 705 POINTS
TCL: Running for 1500000 steps
ETITLE: TS BOND ANGLE DIHED IMPRP ELECT VDW BOUNDARY MISC KINETIC TOTAL TEMP POTENTIAL TOTALAVG TEMPAVG PRESSURE GPRESSURE VOLUME PRESSAVG GPRESSAVG
ENERGY: 0 2.3793 13.0197 7.1412 0.0000 -10660.6235 1518.7801 0.0000 0.0000 1740.5108 -7378.7923 299.4410 -9119.3031 -7378.7923 299.4410 1202.3727 1283.2804 29686.8162 1202.3727 1283.2804
ENERGY: 300000 4.2252 10.5035 3.5305 0.0000 -10535.9517 1398.7607 0.0000 0.0000 1779.7525 -7339.1793 306.1922 -9118.9318 -7354.3534 303.8752 -355.7946 -306.8331 30002.6809 191.4479 267.4794
ENERGY: 600000 6.1195 5.3322 7.2190 0.0000 -10659.4332 1466.9876 0.0000 0.0000 1757.7415 -7416.0334 302.4054 -9173.7749 -7381.6096 302.5722 188.3254 223.1276 30071.8768 256.2392 323.4707
ENERGY: 900000 3.3358 11.6237 6.7485 0.0000 -10588.1428 1487.6773 0.0000 0.0000 1771.1192 -7307.6381 304.7069 -9078.7574 -7386.6565 301.9077 711.0460 757.1213 30109.3231 169.5641 232.6102
ENERGY: 1200000 3.2114 10.1220 8.7982 0.0000 -10560.5011 1409.3413 0.0000 0.0000 1798.6874 -7330.3409 309.4498 -9129.0283 -7396.0187 301.5875 94.5512 102.3706 29814.8735 80.8112 136.0937
ENERGY: 1500000 3.3517 7.2526 5.0958 0.0000 -10483.4533 1400.1478 0.0000 0.0000 1776.8664 -7290.7389 305.6957 -9067.6054 -7392.7927 302.1718 -209.7762 -146.9294 30415.3518 93.3073 152.3849
TCL: Running FEP window  17: Lambda1 0.19999999999999968 Lambda2 0.1499999999999997 [dLambda -0.04999999999999999]
TCL: Setting parameter firsttimestep to 0
TCL: Setting parameter alchLambda to 0.19999999999999968
Info: NONBONDED TABLE R-SQUARED SPACING: 0.0625
Info: NONBONDED TABLE SIZE: 705 POINTS
TCL: Setting parameter alchLambda2 to 0.1499999999999997
Info: NONBONDED TABLE R-SQUARED SPACING: 0.0625
Info: NONBONDED TABLE SIZE: 705 POINTS
TCL: Running for 1500000 steps
ETITLE: TS BOND ANGLE DIHED IMPRP ELECT VDW BOUNDARY MISC KINETIC TOTAL TEMP POTENTIAL TOTALAVG TEMPAVG PRESSURE GPRESSURE VOLUME PRESSAVG GPRESSAVG
ENERGY: 0 3.3517 7.2526 5.0958 0.0000 -10483.4531 1400.6532 0.0000 0.0000 1776.0212 -7291.0786 305.5503 -9067.0998 -7291.0786 305.5503 -231.8973 -150.5725 30415.3518 -231.8973 -150.5725
ENERGY: 300000 3.4291 9.6096 4.7383 0.0000 -10609.8119 1421.6495 0.0000 0.0000 1741.3557 -7429.0297 299.5863 -9170.3854 -7348.4726 303.0287 -170.0327 -71.7926 29894.0195 -55.4333 7.9942
ENERGY: 600000 3.9191 6.6795 6.5853 0.0000 -10676.8040 1465.5421 0.0000 0.0000 1764.8258 -7429.2521 303.6242 -9194.0779 -7369.9416 301.5277 574.8300 671.2306 29299.2026 157.5700 227.4265
ENERGY: 900000 2.7287 5.6373 6.7251 0.0000 -10505.9667 1367.9482 0.0000 0.0000 1809.2114 -7313.7160 311.2604 -9122.9274 -7367.9129 302.3347 -527.2146 -430.1675 30314.2089 -61.0469 8.9961
ENERGY: 1200000 4.9107 10.1116 5.4800 0.0000 -10688.1130 1475.7347 0.0000 0.0000 1790.2965 -7401.5795 308.0062 -9191.8759 -7386.0258 301.3072 285.4393 378.0028 29933.4548 -73.4315 -5.0241
ENERGY: 1500000 5.6939 5.3197 5.0037 0.0000 -10614.1130 1447.4102 0.0000 0.0000 1722.7433 -7427.9422 296.3842 -9150.6855 -7403.1143 299.9819 164.9419 184.8133 29774.8136 -57.3655 12.4399
TCL: Running FEP window  18: Lambda1 0.1499999999999997 Lambda2 0.09999999999999969 [dLambda -0.05 ]
TCL: Setting parameter firsttimestep to 0
TCL: Setting parameter alchLambda to 0.1499999999999997
Info: NONBONDED TABLE R-SQUARED SPACING: 0.0625
Info: NONBONDED TABLE SIZE: 705 POINTS
TCL: Setting parameter alchLambda2 to 0.09999999999999969
Info: NONBONDED TABLE R-SQUARED SPACING: 0.0625
Info: NONBONDED TABLE SIZE: 705 POINTS
TCL: Running for 1500000 steps
ETITLE: TS BOND ANGLE DIHED IMPRP ELECT VDW BOUNDARY MISC KINETIC TOTAL TEMP POTENTIAL TOTALAVG TEMPAVG PRESSURE GPRESSURE VOLUME PRESSAVG GPRESSAVG
ENERGY: 0 5.6940 5.3197 5.0037 0.0000 -10614.1135 1445.2395 0.0000 0.0000 1721.8630 -7430.9937 296.2328 -9152.8567 -7430.9937 296.2328 94.2567 168.5207 29774.8136 94.2567 168.5207
ENERGY: 300000 2.5631 7.5029 4.2011 0.0000 -10564.6030 1410.7947 0.0000 0.0000 1765.2002 -7374.3410 303.6886 -9139.5412 -7432.1085 299.0030 -441.5373 -394.9119 30525.7850 89.5052 147.8863
ENERGY: 600000 2.5749 11.9288 2.6688 0.0000 -10554.7971 1466.6572 0.0000 0.0000 1772.3168 -7298.6506 304.9130 -9070.9674 -7399.2239 301.2125 535.8733 680.4272 29757.6082 176.6576 244.0467
ENERGY: 900000 5.1930 7.5626 7.5642 0.0000 -10463.3537 1395.8016 0.0000 0.0000 1750.9588 -7296.2736 301.2385 -9047.2324 -7410.7283 299.6252 132.5156 199.8017 29849.8458 68.2325 143.1825
ENERGY: 1200000 4.0686 6.1434 7.5374 0.0000 -10551.6089 1432.4515 0.0000 0.0000 1786.3433 -7315.0648 307.3261 -9101.4081 -7404.6941 300.2607 -68.6205 23.3470 30332.6486 106.7270 176.2563
ENERGY: 1500000 2.4386 8.6400 8.1137 0.0000 -10601.6569 1406.0639 0.0000 0.0000 1740.3295 -7436.0712 299.4098 -9176.4007 -7404.5870 300.4808 -18.2450 17.3236 29833.9736 72.5061 138.4190
TCL: Running FEP window  19: Lambda1 0.09999999999999969 Lambda2 0.049999999999999684 [dLambda -0.05 ]
TCL: Setting parameter firsttimestep to 0
TCL: Setting parameter alchLambda to 0.09999999999999969
Info: NONBONDED TABLE R-SQUARED SPACING: 0.0625
Info: NONBONDED TABLE SIZE: 705 POINTS
TCL: Setting parameter alchLambda2 to 0.049999999999999684
Info: NONBONDED TABLE R-SQUARED SPACING: 0.0625
Info: NONBONDED TABLE SIZE: 705 POINTS
TCL: Running for 1500000 steps
ETITLE: TS BOND ANGLE DIHED IMPRP ELECT VDW BOUNDARY MISC KINETIC TOTAL TEMP POTENTIAL TOTALAVG TEMPAVG PRESSURE GPRESSURE VOLUME PRESSAVG GPRESSAVG
ENERGY: 0 2.4386 8.6400 8.1137 0.0000 -10601.6554 1405.4041 0.0000 0.0000 1739.4496 -7437.6094 299.2584 -9177.0591 -7437.6094 299.2584 -69.9954 7.7342 29833.9736 -69.9954 7.7342
ENERGY: 300000 5.7640 11.1667 5.4343 0.0000 -10630.2252 1482.9159 0.0000 0.0000 1779.5546 -7345.3897 306.1582 -9124.9443 -7400.8700 300.7522 813.2723 888.8034 29653.6375 31.3897 82.5526
ENERGY: 600000 2.1187 9.6693 6.3794 0.0000 -10533.9997 1389.0100 0.0000 0.0000 1763.0193 -7363.8031 303.3134 -9126.8224 -7398.6872 302.1793 -123.6307 -76.6293 29781.8405 111.2592 162.1189
ENERGY: 900000 5.0538 11.6464 6.4332 0.0000 -10593.7909 1419.3157 0.0000 0.0000 1768.8801 -7382.4617 304.3217 -9151.3418 -7398.8813 301.9539 -159.2136 -104.4564 29800.7300 72.6566 124.6266
ENERGY: 1200000 4.5747 6.1861 6.6882 0.0000 -10666.8620 1428.1563 0.0000 0.0000 1716.9134 -7504.3434 295.3812 -9221.2568 -7409.2185 300.2522 -336.0913 -279.5655 29887.7848 -70.0595 -13.9856
ENERGY: 1500000 3.2535 11.0422 5.8046 0.0000 -10695.3898 1482.6497 0.0000 0.0000 1776.8949 -7415.7448 305.7006 -9192.6398 -7406.1634 301.2137 359.8951 523.1445 29866.6939 15.1093 81.3852
TCL: Running FEP window  20: Lambda1 0.049999999999999684 Lambda2 0.0    [dLambda -0.049999999999999684]
TCL: Setting parameter firsttimestep to 0
TCL: Setting parameter alchLambda to 0.049999999999999684
Info: NONBONDED TABLE R-SQUARED SPACING: 0.0625
Info: NONBONDED TABLE SIZE: 705 POINTS
TCL: Setting parameter alchLambda2 to 0.0
Info: NONBONDED TABLE R-SQUARED SPACING: 0.0625
Info: NONBONDED TABLE SIZE: 705 POINTS
TCL: Running for 1500000 steps
ETITLE: TS BOND ANGLE DIHED IMPRP ELECT VDW BOUNDARY MISC KINETIC TOTAL TEMP POTENTIAL TOTALAVG TEMPAVG PRESSURE GPRESSURE VOLUME PRESSAVG GPRESSAVG
ENERGY: 0 3.2535 11.0422 5.8046 0.0000 -10695.3888 1482.5730 0.0000 0.0000 1776.0028 -7416.7127 305.5471 -9192.7155 -7416.7127 305.5471 445.6684 520.6213 29866.6939 445.6684 520.6213
ENERGY: 300000 4.6649 18.8574 3.4779 0.0000 -10583.7320 1459.5022 0.0000 0.0000 1774.2102 -7323.0194 305.2387 -9097.2296 -7401.9048 302.6036 156.4267 210.2367 30376.0697 103.3752 151.5075
ENERGY: 600000 5.2314 8.8735 4.1282 0.0000 -10636.6137 1475.5487 0.0000 0.0000 1720.4435 -7422.3884 295.9886 -9142.8319 -7392.7892 300.8943 724.1180 759.9168 29420.0395 100.4883 150.2577
ENERGY: 900000 5.1711 8.8956 2.8428 0.0000 -10607.6167 1444.4672 0.0000 0.0000 1798.5802 -7347.6598 309.4314 -9146.2400 -7385.9830 301.0940 208.1550 288.7592 29695.9457 69.5234 129.3239
ENERGY: 1200000 4.0080 8.8487 5.0841 0.0000 -10646.9594 1417.9674 0.0000 0.0000 1731.3349 -7479.7164 297.8623 -9211.0513 -7404.3287 299.4335 -6.6502 96.3085 29739.0112 -29.1137 40.7461
ENERGY: 1500000 5.1011 9.9063 8.5065 0.0000 -10767.1865 1536.3108 0.0000 0.0000 1769.8140 -7437.5478 304.4824 -9207.3618 -7411.5654 299.1950 618.3035 640.1702 29973.0669 -10.4407 59.2410
TCL: Exiting due to exit command.
