Info: SIMULATION PARAMETERS:
Info: TIMESTEP               2
Info: NUMBER OF STEPS        0
Info: STEPS PER CYCLE        10
Info: PERIODIC CELL BASIS 1  31.9903 0 0
Info: PERIODIC CELL BASIS 2  0 29.9516 0
Info: PERIODIC CELL BASIS 3  0 0 31.2306
Info: PERIODIC CELL CENTER   0 0 0
Info: WRAPPING WATERS AROUND PERIODIC BOUNDARIES ON OUTPUT.
Info: WRAPPING ALL CLUSTERS AROUND PERIODIC BOUNDARIES ON OUTPUT.
Info: FIRST LDB TIMESTEP     50
Info: LAST LDB TIMESTEP     -1
Info: HOM BACKGROUND SCALING 1
Info: PME BACKGROUND SCALING 1
Info: MIN ATOMS PER PATCH    40
Info: EMPTY PATCH LOAD       40 ATOMS
Info: VELOCITY FILE          mobley_667278_equil.vel
Info: CENTER OF MASS MOVING INITIALLY? NO
Info: DIELECTRIC             1
Info: EXCLUDE                SCALED ONE-FOUR
Info: 1-4 ELECTROSTATICS SCALED BY 0.833333
Info: MODIFIED 1-4 VDW PARAMETERS WILL BE USED
Info: DCD FILENAME           mobley_667278_prod.dcd
Info: DCD FREQUENCY          100000
Info: DCD FIRST STEP         100000
Info: DCD FILE WILL CONTAIN UNIT CELL DATA
Info: XST FILENAME           mobley_667278_prod.xst
Info: XST FREQUENCY          100000
Info: NO VELOCITY DCD OUTPUT
Info: NO FORCE DCD OUTPUT
Info: OUTPUT FILENAME        mobley_667278_prod
Info: BINARY OUTPUT FILES WILL BE USED
Info: RESTART FILENAME       mobley_667278_prod.restart
Info: RESTART FREQUENCY      100000
Info: BINARY RESTART FILES WILL BE USED
Info: CUTOFF                 9
Info: PAIRLIST DISTANCE      11
Info: PAIRLIST SHRINK RATE   0.01
Info: PAIRLIST GROW RATE     0.01
Info: PAIRLIST TRIGGER       0.3
Info: PAIRLISTS PER CYCLE    2
Info: PAIRLISTS ENABLED
Info: MARGIN                 2
Info: HYDROGEN GROUP CUTOFF  2.5
Info: PATCH DIMENSION        15.5
Info: ENERGY OUTPUT STEPS    100000
Info: ENERGY EVALUATION STEPS    100000
Info: OUTPUT ENERGY PRECISION 4
Info: CROSSTERM ENERGY INCLUDED IN DIHEDRAL
Info: TIMING OUTPUT STEPS    1000000
Info: PRESSURE OUTPUT STEPS  100000
Info: ALCHEMICAL FEP ON
Info: FEP CURRENT LAMBDA VALUE     1
Info: FEP COMPARISON LAMBDA VALUE  0.95
Info: FEP INTRA-ALCHEMICAL NON-BONDED INTERACTIONS WILL BE RETAINED
Info: FEP INTRA-ALCHEMICAL BONDED INTERACTIONS WILL BE RETAINED
Info: FEP VDW SHIFTING COEFFICIENT 5
Info: FEP ELEC. ACTIVE FOR ANNIHILATED PARTICLES BETWEEN LAMBDA = 0 AND LAMBDA = 0.5
Info: FEP ELEC. ACTIVE FOR EXNIHILATED PARTICLES BETWEEN LAMBDA = 0.5 AND LAMBDA = 1
Info: FEP VDW ACTIVE FOR ANNIHILATED PARTICLES BETWEEN LAMBDA = 0 AND LAMBDA = 1
Info: FEP VDW ACTIVE FOR EXNIHILATED PARTICLES BETWEEN LAMBDA = 0 AND LAMBDA = 1
Info: FEP BOND ACTIVE FOR ANNIHILATED PARTICLES BETWEEN LAMBDA = 1 AND LAMBDA = 1
Info: FEP BOND ACTIVE FOR EXNIHILATED PARTICLES BETWEEN LAMBDA = 0 AND LAMBDA = 0
Info: LANGEVIN DYNAMICS ACTIVE
Info: LANGEVIN TEMPERATURE   300
Info: LANGEVIN USING BBK INTEGRATOR
Info: LANGEVIN DAMPING COEFFICIENT IS 1 INVERSE PS
Info: LANGEVIN DYNAMICS APPLIED TO HYDROGENS
Info: LANGEVIN PISTON PRESSURE CONTROL ACTIVE
Info:        TARGET PRESSURE IS 1.01325 BAR
Info:     OSCILLATION PERIOD IS 50 FS
Info:             DECAY TIME IS 25 FS
Info:     PISTON TEMPERATURE IS 300 K
Info:       PRESSURE CONTROL IS GROUP-BASED
Info:    INITIAL STRAIN RATE IS 0.00040872 0.00040872 0.00040872
Info:       CELL FLUCTUATION IS ISOTROPIC
Info: PARTICLE MESH EWALD (PME) ACTIVE
Info: PME TOLERANCE               1e-06
Info: PME EWALD COEFFICIENT       0.348832
Info: PME INTERPOLATION ORDER     4
Info: PME GRID DIMENSIONS         32 32 32
Info: PME MAXIMUM GRID SPACING    1
Info: PME CALCULATION WILL BE PERFORMED ON GPU
Info: FULL ELECTROSTATIC EVALUATION FREQUENCY      2
Info: USING VERLET I (r-RESPA) MTS SCHEME.
Info: C1 SPLITTING OF LONG RANGE ELECTROSTATICS
Info: PLACING ATOMS IN PATCHES BY HYDROGEN GROUPS
Info: RIGID BONDS TO HYDROGEN : ALL
Info:         ERROR TOLERANCE : 1e-08
Info:          MAX ITERATIONS : 100
Info: RIGID WATER USING SETTLE ALGORITHM
Info: RANDOM NUMBER SEED     1743812689
Info: USE HYDROGEN BONDS?    NO
Info: Using AMBER format force field!
Info: AMBER PARM FILE        mobley_667278.prmtop
Info: COORDINATE PDB         mobley_667278.pdb
Info: Exclusions will be read from PARM file!
Info: SCNB (VDW SCALING)     2
Info: USING ARITHMETIC MEAN TO COMBINE L-J SIGMA PARAMETERS
Info: BINARY COORDINATES     mobley_667278_equil.coor
Info: SUMMARY OF PARAMETERS:
Info: 7 BONDS
Info: 8 ANGLES
Info:   8 HARMONIC
Info:   0 COSINE-BASED
Info: 3 DIHEDRAL
Info: 0 IMPROPER
Info: 0 CROSSTERM
Info: 0 VDW
Info: 15 VDW_PAIRS
Info: 0 NBTHOLE_PAIRS
Info: To read alchdata from file: mobley_667278.pdb
Info: To read alchflag data from column: 5
Info: STRUCTURE SUMMARY:
Info: 2950 ATOMS
Info: 2951 BONDS
Info: 36 ANGLES
Info: 64 DIHEDRALS
Info: 0 IMPROPERS
Info: 0 CROSSTERMS
Info: 3033 EXCLUSIONS
Info: 2931 RIGID BONDS
Info: ALCH: 0 ATOMS TO DISAPPEAR IN FINAL STATE
Info: ALCH: 22 ATOMS TO APPEAR IN FINAL STATE
Info: 5919 DEGREES OF FREEDOM
Info: 995 HYDROGEN GROUPS
Info: 3 ATOMS IN LARGEST HYDROGEN GROUP
Info: 995 MIGRATION GROUPS
Info: 3 ATOMS IN LARGEST MIGRATION GROUP
Info: TOTAL MASS = 17978.9 amu
Info: TOTAL CHARGE = -0.000100005 e
Info: MASS DENSITY = 0.997709 g/cm^3
Info: ATOM DENSITY = 0.0985833 atoms/A^3
Info: ADDED 0 IMPLICIT EXCLUSIONS
Info: NONBONDED TABLE R-SQUARED SPACING: 0.0625
Info: NONBONDED TABLE SIZE: 705 POINTS
Info: REMOVING COM VELOCITY 0.0196872 0.0692697 0.360136
Info: Use 3D box decompostion in PME FFT.
Info: Updated CUDA force table with 4096 elements.
Info: Updated CUDA LJ table with 5 x 5 elements.
Info: Found 24 unique exclusion lists needing 72 bytes
TCL: Running for 1500000 steps
ETITLE: TS BOND ANGLE DIHED IMPRP ELECT VDW BOUNDARY MISC KINETIC TOTAL TEMP POTENTIAL TOTALAVG TEMPAVG PRESSURE GPRESSURE VOLUME PRESSAVG GPRESSAVG
ENERGY: 0 5.1267 5.6660 12.9025 0.0000 -10737.1623 1518.2220 0.0000 0.0000 1737.5693 -7457.6758 295.4501 -9195.2451 -7457.6758 295.4501 1272.8464 1348.8444 29923.9383 1272.8464 1348.8444
ENERGY: 300000 8.2503 7.2536 13.7785 0.0000 -10596.8709 1400.6241 0.0000 0.0000 1779.0831 -7387.8814 302.5090 -9166.9645 -7450.9573 297.3572 -207.2582 -152.8912 30622.9867 360.7869 428.5859
ENERGY: 600000 5.9188 4.4143 13.8281 0.0000 -10818.1435 1546.5211 0.0000 0.0000 1734.5373 -7512.9240 294.9346 -9247.4612 -7479.2313 296.5088 726.4595 823.4691 30432.0520 408.8420 466.7519
ENERGY: 900000 7.4167 4.1283 13.5765 0.0000 -10613.1139 1425.1171 0.0000 0.0000 1762.5314 -7400.3438 299.6946 -9162.8752 -7446.7147 298.2608 -25.4897 102.7398 30593.9458 193.1952 266.5258
ENERGY: 1200000 10.4468 4.0043 15.0762 0.0000 -10705.6679 1468.8831 0.0000 0.0000 1744.3873 -7462.8702 296.6094 -9207.2575 -7433.8731 299.2706 58.1376 143.4026 30831.1870 188.4664 256.0834
ENERGY: 1500000 6.0214 5.7493 10.7314 0.0000 -10441.7548 1274.4622 0.0000 0.0000 1773.3556 -7371.4349 301.5351 -9144.7905 -7431.4111 299.4461 -1066.4366 -964.5438 30783.7680 51.3644 121.2586
TCL: Running FEP window   2: Lambda1 0.95   Lambda2 0.8999999999999999 [dLambda -0.050000000000000044]
TCL: Setting parameter firsttimestep to 0
TCL: Setting parameter alchLambda to 0.95
Info: NONBONDED TABLE R-SQUARED SPACING: 0.0625
Info: NONBONDED TABLE SIZE: 705 POINTS
TCL: Setting parameter alchLambda2 to 0.8999999999999999
Info: NONBONDED TABLE R-SQUARED SPACING: 0.0625
Info: NONBONDED TABLE SIZE: 705 POINTS
TCL: Running for 1500000 steps
ETITLE: TS BOND ANGLE DIHED IMPRP ELECT VDW BOUNDARY MISC KINETIC TOTAL TEMP POTENTIAL TOTALAVG TEMPAVG PRESSURE GPRESSURE VOLUME PRESSAVG GPRESSAVG
ENERGY: 0 6.0214 5.7493 10.7314 0.0000 -10441.3235 1275.1692 0.0000 0.0000 1772.4747 -7371.1774 301.3853 -9143.6521 -7371.1774 301.3853 -1070.0820 -979.2652 30783.7680 -1070.0820 -979.2652
ENERGY: 300000 4.4249 3.4736 12.2527 0.0000 -10591.4210 1420.9854 0.0000 0.0000 1730.4627 -7419.8216 294.2417 -9150.2843 -7425.5929 300.0672 -25.0105 7.4784 30868.0446 -721.0809 -666.0448
ENERGY: 600000 9.6082 9.2075 14.5293 0.0000 -10579.5088 1354.6473 0.0000 0.0000 1781.4723 -7410.0441 302.9152 -9191.5164 -7431.9638 299.7711 -280.4033 -212.9310 30411.9193 -464.9712 -404.4241
ENERGY: 900000 6.2011 4.7084 13.7872 0.0000 -10660.2770 1426.3554 0.0000 0.0000 1763.1424 -7446.0826 299.7985 -9209.2250 -7449.6555 299.6333 -169.7778 -190.8580 30811.0710 -277.4499 -221.1659
ENERGY: 1200000 4.6593 3.1499 12.7944 0.0000 -10635.8123 1478.1421 0.0000 0.0000 1708.9937 -7428.0730 290.5912 -9137.0667 -7445.1885 298.2353 111.4561 184.2324 31389.5261 -235.8272 -178.1527
ENERGY: 1500000 6.2843 5.3611 12.6826 0.0000 -10539.8795 1352.8619 0.0000 0.0000 1813.1211 -7349.5684 308.2967 -9162.6895 -7436.9554 299.2345 -666.8085 -628.4756 30925.8401 -204.6296 -147.0618
TCL: Running FEP window   3: Lambda1 0.8999999999999999 Lambda2 0.8499999999999999 [dLambda -0.050000000000000044]
TCL: Setting parameter firsttimestep to 0
TCL: Setting parameter alchLambda to 0.8999999999999999
Info: NONBONDED TABLE R-SQUARED SPACING: 0.0625
Info: NONBONDED TABLE SIZE: 705 POINTS
TCL: Setting parameter alchLambda2 to 0.8499999999999999
Info: NONBONDED TABLE R-SQUARED SPACING: 0.0625
Info: NONBONDED TABLE SIZE: 705 POINTS
TCL: Running for 1500000 steps
ETITLE: TS BOND ANGLE DIHED IMPRP ELECT VDW BOUNDARY MISC KINETIC TOTAL TEMP POTENTIAL TOTALAVG TEMPAVG PRESSURE GPRESSURE VOLUME PRESSAVG GPRESSAVG
ENERGY: 0 6.2843 5.3611 12.6826 0.0000 -10539.4970 1353.4652 0.0000 0.0000 1812.2692 -7349.4345 308.1518 -9161.7037 -7349.4345 308.1518 -732.7560 -644.2628 30925.8401 -732.7560 -644.2628
ENERGY: 300000 4.4084 8.1810 11.4228 0.0000 -10755.1126 1492.6267 0.0000 0.0000 1761.4880 -7476.9858 299.5172 -9238.4738 -7429.8726 301.5171 767.0764 799.3601 29867.5836 14.5956 53.5839
ENERGY: 600000 8.8569 5.7347 13.0673 0.0000 -10709.4470 1439.7494 0.0000 0.0000 1801.5258 -7440.5130 306.3251 -9242.0388 -7429.2570 300.8666 -164.3771 -91.4110 30566.9492 -54.0348 7.8100
ENERGY: 900000 8.8082 3.5424 9.2872 0.0000 -10748.5834 1582.4887 0.0000 0.0000 1785.6172 -7358.8397 303.6200 -9144.4568 -7406.5470 303.1125 1397.8758 1476.6386 30410.4232 116.2696 181.5055
ENERGY: 1200000 7.3009 5.8567 13.5405 0.0000 -10714.6413 1483.6414 0.0000 0.0000 1714.5977 -7489.7040 291.5441 -9204.3017 -7400.7108 302.9728 131.2287 168.7928 30869.0179 112.0122 172.4720
ENERGY: 1500000 6.3138 3.7022 11.7747 0.0000 -10535.9481 1362.7542 0.0000 0.0000 1747.0824 -7404.3208 297.0677 -9151.4032 -7406.0481 301.8063 -345.3118 -254.1211 30190.8666 70.0309 130.9310
TCL: Running FEP window   4: Lambda1 0.8499999999999999 Lambda2 0.7999999999999998 [dLambda -0.050000000000000044]
TCL: Setting parameter firsttimestep to 0
TCL: Setting parameter alchLambda to 0.8499999999999999
Info: NONBONDED TABLE R-SQUARED SPACING: 0.0625
Info: NONBONDED TABLE SIZE: 705 POINTS
TCL: Setting parameter alchLambda2 to 0.7999999999999998
Info: NONBONDED TABLE R-SQUARED SPACING: 0.0625
Info: NONBONDED TABLE SIZE: 705 POINTS
TCL: Running for 1500000 steps
ETITLE: TS BOND ANGLE DIHED IMPRP ELECT VDW BOUNDARY MISC KINETIC TOTAL TEMP POTENTIAL TOTALAVG TEMPAVG PRESSURE GPRESSURE VOLUME PRESSAVG GPRESSAVG
ENERGY: 0 6.3138 3.7022 11.7747 0.0000 -10535.5742 1363.6286 0.0000 0.0000 1746.2199 -7403.9350 296.9210 -9150.1549 -7403.9350 296.9210 -353.0515 -265.6985 30190.8666 -353.0515 -265.6985
ENERGY: 300000 7.0012 6.0219 11.4256 0.0000 -10629.9096 1407.7523 0.0000 0.0000 1732.9913 -7464.7174 294.6717 -9197.7087 -7460.8259 293.7088 -165.9131 -116.4358 30525.8267 -396.0637 -324.5652
ENERGY: 600000 8.7857 6.5160 15.6974 0.0000 -10745.2438 1472.4371 0.0000 0.0000 1815.1927 -7426.6148 308.6489 -9241.8076 -7438.4998 297.9583 327.5021 329.9834 30677.9554 -237.0555 -175.4819
ENERGY: 900000 5.4147 7.5610 12.0614 0.0000 -10631.3861 1412.6221 0.0000 0.0000 1726.9516 -7466.7752 293.6447 -9193.7269 -7427.6950 298.1581 170.4866 185.0516 30619.4511 -70.8049 -20.2804
ENERGY: 1200000 6.5138 5.9768 12.4839 0.0000 -10645.1108 1395.8365 0.0000 0.0000 1789.9244 -7434.3754 304.3524 -9224.2998 -7423.6054 299.0381 -243.4486 -225.7272 30435.7033 -133.4722 -83.7094
ENERGY: 1500000 5.7249 5.2890 12.4621 0.0000 -10670.8670 1423.1518 0.0000 0.0000 1728.0579 -7496.1812 293.8328 -9224.2391 -7437.1647 298.6303 -23.6196 43.1107 30572.1690 -177.6450 -120.0888
TCL: Running FEP window   5: Lambda1 0.7999999999999998 Lambda2 0.7499999999999998 [dLambda -0.050000000000000044]
TCL: Setting parameter firsttimestep to 0
TCL: Setting parameter alchLambda to 0.7999999999999998
Info: NONBONDED TABLE R-SQUARED SPACING: 0.0625
Info: NONBONDED TABLE SIZE: 705 POINTS
TCL: Setting parameter alchLambda2 to 0.7499999999999998
Info: NONBONDED TABLE R-SQUARED SPACING: 0.0625
Info: NONBONDED TABLE SIZE: 705 POINTS
TCL: Running for 1500000 steps
ETITLE: TS BOND ANGLE DIHED IMPRP ELECT VDW BOUNDARY MISC KINETIC TOTAL TEMP POTENTIAL TOTALAVG TEMPAVG PRESSURE GPRESSURE VOLUME PRESSAVG GPRESSAVG
ENERGY: 0 5.7249 5.2890 12.4621 0.0000 -10670.6598 1423.8875 0.0000 0.0000 1727.1984 -7496.0979 293.6867 -9223.2963 -7496.0979 293.6867 -54.2688 32.0421 30572.1690 -54.2688 32.0421
ENERGY: 300000 7.1046 4.4881 14.6870 0.0000 -10602.8143 1454.8459 0.0000 0.0000 1736.6964 -7384.9923 295.3017 -9121.6887 -7441.3517 296.8102 447.8713 488.2834 30619.9749 -169.6315 -113.7527
ENERGY: 600000 7.5087 4.1944 10.0974 0.0000 -10446.8884 1418.9432 0.0000 0.0000 1746.3226 -7259.8221 296.9385 -9006.1447 -7405.7940 297.8818 169.0612 203.8656 31120.1659 -75.4891 -28.2078
ENERGY: 900000 7.0736 3.1153 14.8491 0.0000 -10650.7108 1438.1804 0.0000 0.0000 1774.0110 -7413.4814 301.6465 -9187.4923 -7409.8122 299.1008 84.5814 111.8242 30369.1314 -35.9552 12.6169
ENERGY: 1200000 11.0555 4.4758 12.6308 0.0000 -10547.8184 1494.3113 0.0000 0.0000 1770.8132 -7254.5318 301.1028 -9025.3450 -7401.7758 298.8285 803.0029 858.8564 30862.9706 -13.8375 33.8598
ENERGY: 1500000 6.4749 8.1020 15.3009 0.0000 -10826.2856 1507.6899 0.0000 0.0000 1722.2810 -7566.4369 292.8506 -9288.7178 -7415.5736 298.2952 434.9900 499.5726 30127.4133 6.4821 59.1006
TCL: Running FEP window   6: Lambda1 0.7499999999999998 Lambda2 0.6999999999999997 [dLambda -0.050000000000000044]
TCL: Setting parameter firsttimestep to 0
TCL: Setting parameter alchLambda to 0.7499999999999998
Info: NONBONDED TABLE R-SQUARED SPACING: 0.0625
Info: NONBONDED TABLE SIZE: 705 POINTS
TCL: Setting parameter alchLambda2 to 0.6999999999999997
Info: NONBONDED TABLE R-SQUARED SPACING: 0.0625
Info: NONBONDED TABLE SIZE: 705 POINTS
TCL: Running for 1500000 steps
ETITLE: TS BOND ANGLE DIHED IMPRP ELECT VDW BOUNDARY MISC KINETIC TOTAL TEMP POTENTIAL TOTALAVG TEMPAVG PRESSURE GPRESSURE VOLUME PRESSAVG GPRESSAVG
ENERGY: 0 6.4749 8.1020 15.3009 0.0000 -10826.0346 1508.9433 0.0000 0.0000 1721.4012 -7565.8122 292.7010 -9287.2134 -7565.8122 292.7010 415.1470 497.3160 30127.4133 415.1470 497.3160
ENERGY: 300000 7.1165 2.6082 11.6270 0.0000 -10669.0659 1475.4399 0.0000 0.0000 1793.4955 -7378.7788 304.9596 -9172.2743 -7443.5774 299.5003 686.2415 719.8026 30112.9789 375.0270 403.8599
ENERGY: 600000 7.3970 4.0772 14.5945 0.0000 -10672.4682 1475.4621 0.0000 0.0000 1795.0476 -7375.8898 305.2235 -9170.9374 -7435.2604 300.7534 516.6175 575.6656 30070.3854 195.9316 241.7455
ENERGY: 900000 4.2007 5.0834 11.6690 0.0000 -10573.3049 1422.4467 0.0000 0.0000 1812.7387 -7317.1663 308.2317 -9129.9050 -7420.9497 301.2935 106.7062 156.8339 30694.6668 237.9411 284.4083
ENERGY: 1200000 6.5882 4.9886 12.9322 0.0000 -10623.0879 1448.9540 0.0000 0.0000 1755.5157 -7394.1092 298.5017 -9149.6249 -7412.3860 301.0380 221.9276 237.0369 30518.5737 225.1616 275.1419
ENERGY: 1500000 7.5652 5.9849 13.6835 0.0000 -10743.1341 1555.6685 0.0000 0.0000 1748.0803 -7412.1517 297.2374 -9160.2320 -7413.1970 300.8968 1382.7656 1422.3290 30324.1235 287.2112 335.9790
TCL: Running FEP window   7: Lambda1 0.6999999999999997 Lambda2 0.6499999999999997 [dLambda -0.050000000000000044]
TCL: Setting parameter firsttimestep to 0
TCL: Setting parameter alchLambda to 0.6999999999999997
Info: NONBONDED TABLE R-SQUARED SPACING: 0.0625
Info: NONBONDED TABLE SIZE: 705 POINTS
TCL: Setting parameter alchLambda2 to 0.6499999999999997
Info: NONBONDED TABLE R-SQUARED SPACING: 0.0625
Info: NONBONDED TABLE SIZE: 705 POINTS
TCL: Running for 1500000 steps
ETITLE: TS BOND ANGLE DIHED IMPRP ELECT VDW BOUNDARY MISC KINETIC TOTAL TEMP POTENTIAL TOTALAVG TEMPAVG PRESSURE GPRESSURE VOLUME PRESSAVG GPRESSAVG
ENERGY: 0 7.5652 5.9849 13.6835 0.0000 -10742.7650 1556.6193 0.0000 0.0000 1747.1840 -7411.7282 297.0850 -9158.9121 -7411.7282 297.0850 1336.5898 1417.0539 30324.1235 1336.5898 1417.0539
ENERGY: 300000 9.4133 6.0422 11.6715 0.0000 -10619.1464 1386.6877 0.0000 0.0000 1817.9040 -7387.4277 309.1100 -9205.3317 -7400.9616 302.2842 -233.3422 -177.4450 30556.9258 151.5965 199.7611
ENERGY: 600000 6.0790 4.2878 10.8960 0.0000 -10600.0133 1385.2218 0.0000 0.0000 1774.1176 -7419.4112 301.6647 -9193.5287 -7398.4327 301.8579 -302.6009 -203.1843 30475.7837 101.2693 170.7860
ENERGY: 900000 3.6717 3.8667 10.4467 0.0000 -10730.6726 1455.0512 0.0000 0.0000 1763.6786 -7493.9577 299.8897 -9257.6363 -7403.5446 301.3799 113.4873 271.1273 30317.3787 121.1590 196.2582
ENERGY: 1200000 6.2736 3.9647 11.8190 0.0000 -10658.5012 1450.3552 0.0000 0.0000 1785.1539 -7400.9349 303.5412 -9186.0887 -7397.1973 302.0699 228.4357 286.5975 30692.0348 73.4003 146.9384
ENERGY: 1500000 5.0374 3.1871 14.5613 0.0000 -10596.9627 1384.5379 0.0000 0.0000 1757.2946 -7432.3443 298.8041 -9189.6389 -7406.4070 301.5996 -402.6314 -355.5525 30629.6377 -19.6181 48.5728
TCL: Running FEP window   8: Lambda1 0.6499999999999997 Lambda2 0.5999999999999996 [dLambda -0.050000000000000044]
TCL: Setting parameter firsttimestep to 0
TCL: Setting parameter alchLambda to 0.6499999999999997
Info: NONBONDED TABLE R-SQUARED SPACING: 0.0625
Info: NONBONDED TABLE SIZE: 705 POINTS
TCL: Setting parameter alchLambda2 to 0.5999999999999996
Info: NONBONDED TABLE R-SQUARED SPACING: 0.0625
Info: NONBONDED TABLE SIZE: 705 POINTS
TCL: Running for 1500000 steps
ETITLE: TS BOND ANGLE DIHED IMPRP ELECT VDW BOUNDARY MISC KINETIC TOTAL TEMP POTENTIAL TOTALAVG TEMPAVG PRESSURE GPRESSURE VOLUME PRESSAVG GPRESSAVG
ENERGY: 0 5.0374 3.1871 14.5613 0.0000 -10596.7814 1384.7801 0.0000 0.0000 1756.4249 -7432.7906 298.6563 -9189.2155 -7432.7906 298.6563 -460.9842 -370.2205 30629.6377 -460.9842 -370.2205
ENERGY: 300000 6.0316 6.5037 11.3365 0.0000 -10490.2637 1323.2519 0.0000 0.0000 1763.9957 -7379.1443 299.9436 -9143.1400 -7433.4903 297.7464 -776.6574 -760.8773 30657.2637 -420.2317 -359.1011
ENERGY: 600000 7.6038 7.0897 9.6541 0.0000 -10757.8291 1454.4064 0.0000 0.0000 1801.2937 -7477.7813 306.2856 -9279.0750 -7432.3469 300.7328 -45.1726 82.5080 30706.2297 -334.9735 -261.1818
ENERGY: 900000 4.6401 7.8852 14.8759 0.0000 -10861.8652 1531.6453 0.0000 0.0000 1806.0100 -7496.8086 307.0875 -9302.8186 -7431.7419 301.3287 585.1148 622.0058 30090.9192 -75.6302 -10.9629
ENERGY: 1200000 6.7766 3.6996 9.4571 0.0000 -10701.5874 1437.2957 0.0000 0.0000 1711.7607 -7532.5976 291.0617 -9244.3583 -7432.4656 300.8592 -276.2511 -231.4340 30758.6562 -68.6938 -9.5958
ENERGY: 1500000 6.0350 5.9145 10.0950 0.0000 -10732.4714 1488.3108 0.0000 0.0000 1758.8254 -7463.2906 299.0644 -9222.1160 -7437.8262 300.1920 662.0518 735.7735 30070.2772 -37.0835 26.9055
TCL: Running FEP window   9: Lambda1 0.5999999999999996 Lambda2 0.5499999999999996 [dLambda -0.050000000000000044]
TCL: Setting parameter firsttimestep to 0
TCL: Setting parameter alchLambda to 0.5999999999999996
Info: NONBONDED TABLE R-SQUARED SPACING: 0.0625
Info: NONBONDED TABLE SIZE: 705 POINTS
TCL: Setting parameter alchLambda2 to 0.5499999999999996
Info: NONBONDED TABLE R-SQUARED SPACING: 0.0625
Info: NONBONDED TABLE SIZE: 705 POINTS
TCL: Running for 1500000 steps
ETITLE: TS BOND ANGLE DIHED IMPRP ELECT VDW BOUNDARY MISC KINETIC TOTAL TEMP POTENTIAL TOTALAVG TEMPAVG PRESSURE GPRESSURE VOLUME PRESSAVG GPRESSAVG
ENERGY: 0 6.0351 5.9145 10.0950 0.0000 -10732.2856 1489.2390 0.0000 0.0000 1757.9677 -7463.0342 298.9186 -9221.0020 -7463.0342 298.9186 650.4636 730.6330 30070.2772 650.4636 730.6330
ENERGY: 300000 4.4719 5.5199 14.2394 0.0000 -10717.2924 1454.7652 0.0000 0.0000 1767.9300 -7470.3660 300.6126 -9238.2960 -7467.7355 294.3084 85.4315 187.4851 30303.6686 3.5947 63.4962
ENERGY: 600000 7.7752 3.9963 12.3786 0.0000 -10620.5609 1429.2652 0.0000 0.0000 1784.2652 -7382.8806 303.3901 -9167.1457 -7430.6926 296.4994 -65.9586 15.2063 30769.4497 139.7098 204.0955
ENERGY: 900000 7.1734 3.6022 12.7918 0.0000 -10759.9801 1448.5127 0.0000 0.0000 1722.4021 -7565.4978 292.8712 -9287.8999 -7444.3283 296.9708 -58.1925 -68.8393 30438.7492 138.9453 190.4552
ENERGY: 1200000 2.7403 6.5775 11.8778 0.0000 -10623.4196 1440.0911 0.0000 0.0000 1739.7373 -7422.3956 295.8188 -9162.1329 -7442.6354 297.9349 -85.4775 -14.1783 30903.5398 153.1244 204.1675
ENERGY: 1500000 5.8742 4.1268 11.4269 0.0000 -10697.2043 1438.5493 0.0000 0.0000 1751.0750 -7486.1521 297.7466 -9237.2271 -7437.7646 298.9652 90.5962 201.4917 30454.1196 164.1482 215.1317
TCL: Running FEP window  10: Lambda1 0.5499999999999996 Lambda2 0.4999999999999996 [dLambda -0.04999999999999999]
TCL: Setting parameter firsttimestep to 0
TCL: Setting parameter alchLambda to 0.5499999999999996
Info: NONBONDED TABLE R-SQUARED SPACING: 0.0625
Info: NONBONDED TABLE SIZE: 705 POINTS
TCL: Setting parameter alchLambda2 to 0.4999999999999996
Info: NONBONDED TABLE R-SQUARED SPACING: 0.0625
Info: NONBONDED TABLE SIZE: 705 POINTS
TCL: Running for 1500000 steps
ETITLE: TS BOND ANGLE DIHED IMPRP ELECT VDW BOUNDARY MISC KINETIC TOTAL TEMP POTENTIAL TOTALAVG TEMPAVG PRESSURE GPRESSURE VOLUME PRESSAVG GPRESSAVG
ENERGY: 0 5.8742 4.1268 11.4269 0.0000 -10696.9887 1439.1650 0.0000 0.0000 1750.1965 -7486.1992 297.5972 -9236.3957 -7486.1992 297.5972 105.0062 193.6363 30454.1196 105.0062 193.6363
ENERGY: 300000 8.0822 5.2970 13.5340 0.0000 -10670.9879 1455.8974 0.0000 0.0000 1750.8473 -7437.3299 297.7079 -9188.1773 -7432.2923 301.0188 299.2439 340.2435 30249.9197 -10.3905 56.0303
ENERGY: 600000 3.5303 5.3722 14.1486 0.0000 -10552.2563 1366.8343 0.0000 0.0000 1763.1088 -7399.2621 299.7928 -9162.3709 -7408.3923 301.0066 -588.3416 -583.0258 30759.4096 -120.3810 -62.8114
ENERGY: 900000 12.6536 3.7454 13.4603 0.0000 -10798.1591 1565.4548 0.0000 0.0000 1859.5428 -7343.3021 316.1901 -9202.8449 -7403.1058 302.4072 1514.4712 1559.2523 29865.4997 -45.5553 8.7509
ENERGY: 1200000 11.1974 2.7274 10.2091 0.0000 -10633.2551 1422.1480 0.0000 0.0000 1757.8984 -7429.0748 298.9068 -9186.9732 -7412.0215 301.4443 -326.9397 -239.7754 30920.1818 -26.1725 27.6140
ENERGY: 1500000 7.3853 6.7840 11.1545 0.0000 -10567.4321 1424.1735 0.0000 0.0000 1769.1793 -7348.7555 300.8250 -9117.9348 -7412.0415 300.9940 -51.5955 38.0253 30991.2492 69.5185 127.5047
TCL: Running FEP window  11: Lambda1 0.4999999999999996 Lambda2 0.4499999999999996 [dLambda -0.04999999999999999]
TCL: Setting parameter firsttimestep to 0
TCL: Setting parameter alchLambda to 0.4999999999999996
Info: NONBONDED TABLE R-SQUARED SPACING: 0.0625
Info: NONBONDED TABLE SIZE: 705 POINTS
TCL: Setting parameter alchLambda2 to 0.4499999999999996
Info: NONBONDED TABLE R-SQUARED SPACING: 0.0625
Info: NONBONDED TABLE SIZE: 705 POINTS
TCL: Running for 1500000 steps
ETITLE: TS BOND ANGLE DIHED IMPRP ELECT VDW BOUNDARY MISC KINETIC TOTAL TEMP POTENTIAL TOTALAVG TEMPAVG PRESSURE GPRESSURE VOLUME PRESSAVG GPRESSAVG
ENERGY: 0 7.3853 6.7840 11.1545 0.0000 -10567.2269 1424.6857 0.0000 0.0000 1768.3299 -7348.8876 300.6805 -9117.2174 -7348.8876 300.6805 -65.6082 33.5222 30991.2492 -65.6082 33.5222
ENERGY: 300000 8.1324 4.1163 13.0861 0.0000 -10586.0832 1365.5179 0.0000 0.0000 1745.2897 -7449.9407 296.7629 -9195.2304 -7380.7803 299.7786 -735.6810 -760.6093 30587.3541 -238.6250 -186.1673
ENERGY: 600000 3.5846 5.7431 12.4515 0.0000 -10663.5430 1436.8493 0.0000 0.0000 1747.0889 -7457.8256 297.0688 -9204.9144 -7411.6662 299.5074 -119.4851 -55.3349 30677.6567 -281.1960 -239.4210
ENERGY: 900000 10.6023 2.9119 11.8474 0.0000 -10688.9094 1431.2105 0.0000 0.0000 1802.2030 -7430.1342 306.4402 -9232.3373 -7415.4158 300.6818 -9.7624 24.8081 29984.3322 -121.8678 -64.6392
ENERGY: 1200000 4.0264 7.9960 10.9998 0.0000 -10642.5629 1387.4311 0.0000 0.0000 1779.9295 -7452.1801 302.6529 -9232.1096 -7409.3271 302.0040 -464.9554 -420.0486 30749.1694 -74.0730 -22.2333
ENERGY: 1500000 7.0103 12.0486 12.3414 0.0000 -10796.5334 1521.4573 0.0000 0.0000 1787.1383 -7456.5375 303.8787 -9243.6758 -7419.6781 301.4489 675.7714 720.8343 29893.7429 2.4988 52.8924
TCL: Running FEP window  12: Lambda1 0.4499999999999996 Lambda2 0.39999999999999963 [dLambda -0.04999999999999999]
TCL: Setting parameter firsttimestep to 0
TCL: Setting parameter alchLambda to 0.4499999999999996
Info: NONBONDED TABLE R-SQUARED SPACING: 0.0625
Info: NONBONDED TABLE SIZE: 705 POINTS
TCL: Setting parameter alchLambda2 to 0.39999999999999963
Info: NONBONDED TABLE R-SQUARED SPACING: 0.0625
Info: NONBONDED TABLE SIZE: 705 POINTS
TCL: Running for 1500000 steps
ETITLE: TS BOND ANGLE DIHED IMPRP ELECT VDW BOUNDARY MISC KINETIC TOTAL TEMP POTENTIAL TOTALAVG TEMPAVG PRESSURE GPRESSURE VOLUME PRESSAVG GPRESSAVG
ENERGY: 0 7.0103 12.0486 12.3414 0.0000 -10796.5338 1522.3120 0.0000 0.0000 1786.2189 -7456.6026 303.7223 -9242.8215 -7456.6026 303.7223 633.9005 717.4491 29893.7429 633.9005 717.4491
ENERGY: 300000 4.5499 4.6979 15.2387 0.0000 -10620.9018 1399.8091 0.0000 0.0000 1766.6256 -7429.9805 300.3908 -9196.6062 -7449.0069 303.2729 -202.3595 -203.8879 30487.7372 197.3910 234.3758
ENERGY: 600000 8.3579 4.0289 15.5532 0.0000 -10610.4337 1368.4810 0.0000 0.0000 1737.7744 -7476.2383 295.4850 -9214.0127 -7441.2865 299.8514 -686.3486 -597.6228 30725.1104 -90.1008 -38.2022
ENERGY: 900000 11.4299 5.1319 14.0757 0.0000 -10516.6832 1393.9193 0.0000 0.0000 1788.9103 -7303.2161 304.1800 -9092.1264 -7440.6960 299.6436 -159.5685 -145.2236 30930.3425 -151.7874 -98.3515
ENERGY: 1200000 5.6795 5.1658 16.1059 0.0000 -10654.9322 1414.5930 0.0000 0.0000 1758.3695 -7455.0186 298.9869 -9213.3880 -7442.1707 299.9521 -536.0429 -402.8139 30694.1782 -190.0244 -131.8946
ENERGY: 1500000 6.5685 4.2904 8.5516 0.0000 -10559.0214 1381.5329 0.0000 0.0000 1830.4790 -7327.5989 311.2482 -9158.0779 -7428.0072 300.5726 -462.3995 -419.3583 30646.2388 -162.1354 -103.2847
TCL: Running FEP window  13: Lambda1 0.39999999999999963 Lambda2 0.34999999999999964 [dLambda -0.04999999999999999]
TCL: Setting parameter firsttimestep to 0
TCL: Setting parameter alchLambda to 0.39999999999999963
Info: NONBONDED TABLE R-SQUARED SPACING: 0.0625
Info: NONBONDED TABLE SIZE: 705 POINTS
TCL: Setting parameter alchLambda2 to 0.34999999999999964
Info: NONBONDED TABLE R-SQUARED SPACING: 0.0625
Info: NONBONDED TABLE SIZE: 705 POINTS
TCL: Running for 1500000 steps
ETITLE: TS BOND ANGLE DIHED IMPRP ELECT VDW BOUNDARY MISC KINETIC TOTAL TEMP POTENTIAL TOTALAVG TEMPAVG PRESSURE GPRESSURE VOLUME PRESSAVG GPRESSAVG
ENERGY: 0 6.5685 4.2904 8.5516 0.0000 -10559.0211 1382.0068 0.0000 0.0000 1829.6091 -7327.9947 311.1002 -9157.6038 -7327.9947 311.1002 -504.2806 -423.9964 30646.2388 -504.2806 -423.9964
ENERGY: 300000 9.5477 5.3180 11.6139 0.0000 -10638.3185 1458.1592 0.0000 0.0000 1764.3693 -7389.3104 300.0071 -9153.6797 -7379.7219 304.5787 -15.2858 72.7266 30780.2428 135.6387 200.1237
ENERGY: 600000 5.7041 4.9355 12.3264 0.0000 -10565.4311 1352.2023 0.0000 0.0000 1802.1690 -7388.0938 306.4344 -9190.2628 -7399.1512 302.9655 -799.3037 -709.1522 30521.5914 -15.6340 49.3519
ENERGY: 900000 7.1733 5.7958 12.0816 0.0000 -10727.7709 1452.9440 0.0000 0.0000 1798.1730 -7451.6032 305.7550 -9249.7762 -7397.0222 303.2060 -23.7917 -8.4643 30371.4210 -71.9270 -22.7412
ENERGY: 1200000 2.8480 3.9442 13.8560 0.0000 -10688.3356 1481.4856 0.0000 0.0000 1742.6557 -7443.5461 296.3150 -9186.2019 -7395.5690 302.1675 315.4725 404.8973 30899.5160 -1.7978 57.5526
ENERGY: 1500000 10.2557 4.8489 9.9820 0.0000 -10549.0786 1393.1970 0.0000 0.0000 1767.6863 -7363.1087 300.5711 -9130.7950 -7398.1599 301.3697 -495.4563 -432.3437 30988.1200 -55.4304 3.4325
TCL: Running FEP window  14: Lambda1 0.34999999999999964 Lambda2 0.29999999999999966 [dLambda -0.04999999999999999]
TCL: Setting parameter firsttimestep to 0
TCL: Setting parameter alchLambda to 0.34999999999999964
Info: NONBONDED TABLE R-SQUARED SPACING: 0.0625
Info: NONBONDED TABLE SIZE: 705 POINTS
TCL: Setting parameter alchLambda2 to 0.29999999999999966
Info: NONBONDED TABLE R-SQUARED SPACING: 0.0625
Info: NONBONDED TABLE SIZE: 705 POINTS
TCL: Running for 1500000 steps
ETITLE: TS BOND ANGLE DIHED IMPRP ELECT VDW BOUNDARY MISC KINETIC TOTAL TEMP POTENTIAL TOTALAVG TEMPAVG PRESSURE GPRESSURE VOLUME PRESSAVG GPRESSAVG
ENERGY: 0 10.2557 4.8489 9.9820 0.0000 -10549.0772 1393.2924 0.0000 0.0000 1766.8084 -7363.8897 300.4218 -9130.6981 -7363.8897 300.4218 -539.6307 -441.7549 30988.1200 -539.6307 -441.7549
ENERGY: 300000 7.0292 6.7910 13.4748 0.0000 -10815.4949 1527.3454 0.0000 0.0000 1787.5875 -7473.2671 303.9550 -9260.8546 -7406.9709 300.7406 388.8694 426.6158 30435.8610 -160.6428 -104.3509
ENERGY: 600000 4.7119 6.5243 10.8299 0.0000 -10652.4055 1447.6452 0.0000 0.0000 1765.2101 -7417.4842 300.1501 -9182.6943 -7429.1028 300.7773 288.6335 293.2915 30148.7292 -63.7289 -15.3409
ENERGY: 900000 4.5346 4.9144 10.4469 0.0000 -10743.1686 1459.9859 0.0000 0.0000 1691.9223 -7571.3645 287.6885 -9263.2868 -7432.4016 299.7726 42.2495 134.3019 29968.3819 -4.0676 54.7809
ENERGY: 1200000 3.4454 4.4699 13.1657 0.0000 -10667.8565 1441.5314 0.0000 0.0000 1785.1267 -7420.1174 303.5366 -9205.2441 -7428.9537 300.2306 155.6632 264.9464 30174.4140 39.6398 112.3256
ENERGY: 1500000 4.8110 3.4475 11.9504 0.0000 -10665.8923 1408.8849 0.0000 0.0000 1751.1125 -7485.6859 297.7530 -9236.7984 -7430.4340 299.8485 -340.6384 -275.1660 30408.0041 73.2662 141.6643
TCL: Running FEP window  15: Lambda1 0.29999999999999966 Lambda2 0.24999999999999967 [dLambda -0.04999999999999999]
TCL: Setting parameter firsttimestep to 0
TCL: Setting parameter alchLambda to 0.29999999999999966
Info: NONBONDED TABLE R-SQUARED SPACING: 0.0625
Info: NONBONDED TABLE SIZE: 705 POINTS
TCL: Setting parameter alchLambda2 to 0.24999999999999967
Info: NONBONDED TABLE R-SQUARED SPACING: 0.0625
Info: NONBONDED TABLE SIZE: 705 POINTS
TCL: Running for 1500000 steps
ETITLE: TS BOND ANGLE DIHED IMPRP ELECT VDW BOUNDARY MISC KINETIC TOTAL TEMP POTENTIAL TOTALAVG TEMPAVG PRESSURE GPRESSURE VOLUME PRESSAVG GPRESSAVG
ENERGY: 0 4.8110 3.4475 11.9504 0.0000 -10665.8925 1409.4849 0.0000 0.0000 1750.2257 -7485.9730 297.6022 -9236.1986 -7485.9730 297.6022 -370.9398 -277.6872 30408.0041 -370.9398 -277.6872
ENERGY: 300000 5.4952 4.6429 10.5775 0.0000 -10680.1526 1402.0534 0.0000 0.0000 1766.7551 -7490.6284 300.4128 -9257.3835 -7420.5352 299.1591 -318.0933 -202.2409 30081.5557 63.9654 131.9581
ENERGY: 600000 5.4165 2.9480 14.5486 0.0000 -10854.1140 1615.7636 0.0000 0.0000 1788.8087 -7426.6286 304.1627 -9215.4373 -7417.5825 300.7944 1465.8220 1524.0877 30119.4311 185.7666 248.1642
ENERGY: 900000 6.9404 5.6204 16.7485 0.0000 -10906.4576 1563.7762 0.0000 0.0000 1833.2029 -7480.1693 311.7113 -9313.3722 -7424.0346 301.2633 560.5797 606.7712 30249.6767 218.6149 279.2322
ENERGY: 1200000 6.3090 4.8030 13.5877 0.0000 -10658.7598 1467.7686 0.0000 0.0000 1777.4346 -7388.8569 302.2287 -9166.2915 -7423.5841 300.8820 163.1821 190.8986 30424.3899 201.9375 264.7377
ENERGY: 1500000 6.1369 4.6634 10.9826 0.0000 -10621.3853 1386.1024 0.0000 0.0000 1796.6976 -7416.8023 305.5041 -9213.4999 -7419.5195 301.1895 -577.7264 -540.9596 30783.7040 172.5878 235.2187
TCL: Running FEP window  16: Lambda1 0.24999999999999967 Lambda2 0.19999999999999968 [dLambda -0.04999999999999999]
TCL: Setting parameter firsttimestep to 0
TCL: Setting parameter alchLambda to 0.24999999999999967
Info: NONBONDED TABLE R-SQUARED SPACING: 0.0625
Info: NONBONDED TABLE SIZE: 705 POINTS
TCL: Setting parameter alchLambda2 to 0.19999999999999968
Info: NONBONDED TABLE R-SQUARED SPACING: 0.0625
Info: NONBONDED TABLE SIZE: 705 POINTS
TCL: Running for 1500000 steps
ETITLE: TS BOND ANGLE DIHED IMPRP ELECT VDW BOUNDARY MISC KINETIC TOTAL TEMP POTENTIAL TOTALAVG TEMPAVG PRESSURE GPRESSURE VOLUME PRESSAVG GPRESSAVG
ENERGY: 0 6.1369 4.6634 10.9826 0.0000 -10621.3868 1386.0050 0.0000 0.0000 1795.7705 -7417.8284 305.3464 -9213.5989 -7417.8284 305.3464 -630.5870 -548.2290 30783.7040 -630.5870 -548.2290
ENERGY: 300000 4.4135 5.1211 10.8948 0.0000 -10622.0418 1383.6677 0.0000 0.0000 1751.5603 -7466.3844 297.8291 -9217.9447 -7451.9033 299.8508 -417.0824 -357.8668 29990.7371 -126.2533 -40.7256
ENERGY: 600000 8.8248 6.4909 12.4477 0.0000 -10452.5289 1365.6419 0.0000 0.0000 1778.7109 -7280.4126 302.4457 -9059.1236 -7420.0269 300.9332 -708.8171 -704.3888 31396.5157 -119.3747 -52.4392
ENERGY: 900000 5.1891 6.1639 13.5249 0.0000 -10690.0673 1471.6887 0.0000 0.0000 1745.7775 -7447.7233 296.8458 -9193.5008 -7418.8521 300.2726 104.9222 146.7460 30621.1186 -62.5311 14.5751
ENERGY: 1200000 5.9921 4.0328 11.2372 0.0000 -10592.3271 1483.1238 0.0000 0.0000 1785.6274 -7302.3137 303.6218 -9087.9411 -7419.2291 300.0289 714.2154 779.5082 30119.8179 -138.4756 -61.4079
ENERGY: 1500000 6.7004 6.4021 11.6763 0.0000 -10656.3205 1457.9423 0.0000 0.0000 1787.1213 -7386.4782 303.8758 -9173.5995 -7420.8658 299.7115 -40.2731 67.9984 30455.5669 -103.7934 -31.6953
TCL: Running FEP window  17: Lambda1 0.19999999999999968 Lambda2 0.1499999999999997 [dLambda -0.04999999999999999]
TCL: Setting parameter firsttimestep to 0
TCL: Setting parameter alchLambda to 0.19999999999999968
Info: NONBONDED TABLE R-SQUARED SPACING: 0.0625
Info: NONBONDED TABLE SIZE: 705 POINTS
TCL: Setting parameter alchLambda2 to 0.1499999999999997
Info: NONBONDED TABLE R-SQUARED SPACING: 0.0625
Info: NONBONDED TABLE SIZE: 705 POINTS
TCL: Running for 1500000 steps
ETITLE: TS BOND ANGLE DIHED IMPRP ELECT VDW BOUNDARY MISC KINETIC TOTAL TEMP POTENTIAL TOTALAVG TEMPAVG PRESSURE GPRESSURE VOLUME PRESSAVG GPRESSAVG
ENERGY: 0 6.7004 6.4021 11.6763 0.0000 -10656.3208 1457.5621 0.0000 0.0000 1786.2293 -7387.7506 303.7241 -9173.9799 -7387.7506 303.7241 -24.1760 58.8807 30455.5669 -24.1760 58.8807
ENERGY: 300000 4.7283 4.2350 9.6288 0.0000 -10741.3940 1445.3370 0.0000 0.0000 1715.2974 -7562.1674 291.6631 -9277.4648 -7463.6638 300.8111 -372.9204 -294.3337 30439.3381 -178.7469 -113.6612
ENERGY: 600000 10.3824 4.9076 13.0604 0.0000 -10620.8536 1411.2403 0.0000 0.0000 1763.7167 -7417.5461 299.8961 -9181.2628 -7471.8179 300.3540 -359.3168 -285.4669 30304.1032 -131.7553 -68.9108
ENERGY: 900000 4.2238 4.7099 13.6950 0.0000 -10626.6299 1435.7178 0.0000 0.0000 1757.9969 -7410.2865 298.9236 -9168.2833 -7461.5114 300.2943 132.4512 163.5330 30090.7568 -15.3988 34.1068
ENERGY: 1200000 8.5827 3.8376 9.9583 0.0000 -10699.5683 1488.5041 0.0000 0.0000 1752.9780 -7435.7076 298.0702 -9188.6856 -7448.6892 300.5280 376.5203 508.4471 29998.0655 40.4616 93.4115
ENERGY: 1500000 5.8949 8.0310 10.6388 0.0000 -10674.7248 1492.3116 0.0000 0.0000 1753.0574 -7404.7912 298.0837 -9157.8486 -7445.4241 299.9341 638.4536 692.0799 29756.9723 51.4319 104.8448
TCL: Running FEP window  18: Lambda1 0.1499999999999997 Lambda2 0.09999999999999969 [dLambda -0.05 ]
TCL: Setting parameter firsttimestep to 0
TCL: Setting parameter alchLambda to 0.1499999999999997
Info: NONBONDED TABLE R-SQUARED SPACING: 0.0625
Info: NONBONDED TABLE SIZE: 705 POINTS
TCL: Setting parameter alchLambda2 to 0.09999999999999969
Info: NONBONDED TABLE R-SQUARED SPACING: 0.0625
Info: NONBONDED TABLE SIZE: 705 POINTS
TCL: Running for 1500000 steps
ETITLE: TS BOND ANGLE DIHED IMPRP ELECT VDW BOUNDARY MISC KINETIC TOTAL TEMP POTENTIAL TOTALAVG TEMPAVG PRESSURE GPRESSURE VOLUME PRESSAVG GPRESSAVG
ENERGY: 0 5.8949 8.0310 10.6388 0.0000 -10674.7257 1491.9016 0.0000 0.0000 1752.2237 -7406.0358 297.9419 -9158.2594 -7406.0358 297.9419 592.2907 681.8297 29756.9723 592.2907 681.8297
ENERGY: 300000 8.8899 8.8133 15.7006 0.0000 -10750.3433 1493.6024 0.0000 0.0000 1726.6830 -7496.6541 293.5991 -9223.3371 -7431.9604 300.4021 -9.2844 30.7210 30299.4829 -159.1358 -90.2164
ENERGY: 600000 5.9728 3.4899 11.8151 0.0000 -10595.3748 1433.8279 0.0000 0.0000 1776.4633 -7363.8058 302.0635 -9140.2691 -7398.5125 300.8498 -200.0774 -170.0163 30764.6741 -191.9898 -142.9303
ENERGY: 900000 5.4117 7.7326 10.1920 0.0000 -10661.0630 1429.1765 0.0000 0.0000 1760.0059 -7448.5442 299.2652 -9208.5502 -7395.3374 301.4251 -70.4653 7.2524 30298.6966 -115.0140 -56.6972
ENERGY: 1200000 7.6667 5.6110 15.4655 0.0000 -10638.5124 1428.0113 0.0000 0.0000 1782.5387 -7399.2192 303.0966 -9181.7579 -7403.8173 301.1458 14.5193 80.0660 30042.5891 -95.3542 -38.9042
ENERGY: 1500000 6.7132 5.1997 14.1501 0.0000 -10439.4341 1309.7796 0.0000 0.0000 1814.6010 -7288.9906 308.5483 -9103.5915 -7394.9628 301.9624 -1019.1986 -902.5624 30862.3153 -207.8159 -149.4252
TCL: Running FEP window  19: Lambda1 0.09999999999999969 Lambda2 0.049999999999999684 [dLambda -0.05 ]
TCL: Setting parameter firsttimestep to 0
TCL: Setting parameter alchLambda to 0.09999999999999969
Info: NONBONDED TABLE R-SQUARED SPACING: 0.0625
Info: NONBONDED TABLE SIZE: 705 POINTS
TCL: Setting parameter alchLambda2 to 0.049999999999999684
Info: NONBONDED TABLE R-SQUARED SPACING: 0.0625
Info: NONBONDED TABLE SIZE: 705 POINTS
TCL: Running for 1500000 steps
ETITLE: TS BOND ANGLE DIHED IMPRP ELECT VDW BOUNDARY MISC KINETIC TOTAL TEMP POTENTIAL TOTALAVG TEMPAVG PRESSURE GPRESSURE VOLUME PRESSAVG GPRESSAVG
ENERGY: 0 6.7132 5.1997 14.1501 0.0000 -10439.4331 1309.7820 0.0000 0.0000 1813.7460 -7289.8422 308.4029 -9103.5882 -7289.8422 308.4029 -994.8294 -905.4392 30862.3153 -994.8294 -905.4392
ENERGY: 300000 6.7394 3.9059 8.8349 0.0000 -10645.5934 1377.3449 0.0000 0.0000 1764.8119 -7483.9563 300.0824 -9248.7683 -7386.4854 302.9724 -777.5427 -733.0283 30589.7938 -557.2573 -464.1061
ENERGY: 600000 8.0346 3.9951 10.2881 0.0000 -10594.9852 1409.5318 0.0000 0.0000 1740.7768 -7422.3588 295.9955 -9163.1356 -7410.6649 300.4890 -316.8223 -308.9476 30758.4903 -336.5286 -269.9103
ENERGY: 900000 10.1901 5.8849 11.2007 0.0000 -10610.4523 1401.1600 0.0000 0.0000 1805.9257 -7376.0908 307.0732 -9182.0165 -7407.1578 301.8096 -683.8919 -567.4178 30295.1017 -277.1525 -210.4075
ENERGY: 1200000 7.6573 5.3290 12.9752 0.0000 -10617.5028 1406.6574 0.0000 0.0000 1752.2725 -7432.6115 297.9502 -9184.8840 -7393.5496 302.7086 -325.6692 -253.6000 29938.4530 -345.6259 -276.3074
ENERGY: 1500000 5.3749 5.0650 10.7353 0.0000 -10794.7486 1566.5086 0.0000 0.0000 1750.7526 -7456.3123 297.6918 -9207.0649 -7404.9632 302.1336 1187.7520 1217.1591 29904.9885 -230.7121 -162.0203
TCL: Running FEP window  20: Lambda1 0.049999999999999684 Lambda2 0.0    [dLambda -0.049999999999999684]
TCL: Setting parameter firsttimestep to 0
TCL: Setting parameter alchLambda to 0.049999999999999684
Info: NONBONDED TABLE R-SQUARED SPACING: 0.0625
Info: NONBONDED TABLE SIZE: 705 POINTS
TCL: Setting parameter alchLambda2 to 0.0
Info: NONBONDED TABLE R-SQUARED SPACING: 0.0625
Info: NONBONDED TABLE SIZE: 705 POINTS
TCL: Running for 1500000 steps
ETITLE: TS BOND ANGLE DIHED IMPRP ELECT VDW BOUNDARY MISC KINETIC TOTAL TEMP POTENTIAL TOTALAVG TEMPAVG PRESSURE GPRESSURE VOLUME PRESSAVG GPRESSAVG
ENERGY: 0 5.3749 5.0650 10.7353 0.0000 -10794.7489 1564.9996 0.0000 0.0000 1749.8607 -7458.7134 297.5401 -9208.5741 -7458.7134 297.5401 1114.4234 1201.4092 29904.9885 1114.4234 1201.4092
ENERGY: 300000 9.3494 4.7934 10.1282 0.0000 -10763.4456 1519.7519 0.0000 0.0000 1790.2431 -7429.1796 304.4066 -9219.4227 -7447.9952 299.6936 840.6477 911.0098 29765.0479 603.3759 683.7910
ENERGY: 600000 4.4953 6.4506 15.7569 0.0000 -10767.8171 1485.5627 0.0000 0.0000 1741.9317 -7513.6200 296.1919 -9255.5516 -7455.5081 298.6974 -10.0834 52.5170 30208.0980 404.5214 488.9546
ENERGY: 900000 5.1110 5.3730 14.5803 0.0000 -10710.9505 1474.9447 0.0000 0.0000 1754.4370 -7456.5046 298.3183 -9210.9416 -7460.0197 297.9651 15.7281 107.9725 30293.6294 263.6189 340.1929
ENERGY: 1200000 6.4513 8.1447 11.9449 0.0000 -10526.0490 1357.1630 0.0000 0.0000 1760.3630 -7381.9822 299.3259 -9142.3451 -7439.7668 299.2885 -613.4001 -537.8818 30265.2644 161.5662 236.8618
ENERGY: 1500000 8.3764 7.7991 14.0982 0.0000 -10720.4991 1482.4064 0.0000 0.0000 1682.8485 -7524.9704 286.1456 -9207.8190 -7440.7931 298.7964 191.7403 256.8118 29859.7400 154.6500 225.6253
TCL: Exiting due to exit command.
