Info: SIMULATION PARAMETERS:
Info: TIMESTEP               2
Info: NUMBER OF STEPS        0
Info: STEPS PER CYCLE        10
Info: PERIODIC CELL BASIS 1  30.8526 0 0
Info: PERIODIC CELL BASIS 2  0 29.3781 0
Info: PERIODIC CELL BASIS 3  0 0 33.0264
Info: PERIODIC CELL CENTER   0 0 0
Info: WRAPPING WATERS AROUND PERIODIC BOUNDARIES ON OUTPUT.
Info: WRAPPING ALL CLUSTERS AROUND PERIODIC BOUNDARIES ON OUTPUT.
Info: FIRST LDB TIMESTEP     50
Info: LAST LDB TIMESTEP     -1
Info: HOM BACKGROUND SCALING 1
Info: PME BACKGROUND SCALING 1
Info: MIN ATOMS PER PATCH    40
Info: EMPTY PATCH LOAD       40 ATOMS
Info: VELOCITY FILE          mobley_1728386_equil.vel
Info: CENTER OF MASS MOVING INITIALLY? NO
Info: DIELECTRIC             1
Info: EXCLUDE                SCALED ONE-FOUR
Info: 1-4 ELECTROSTATICS SCALED BY 0.833333
Info: MODIFIED 1-4 VDW PARAMETERS WILL BE USED
Info: DCD FILENAME           mobley_1728386_prod.dcd
Info: DCD FREQUENCY          100000
Info: DCD FIRST STEP         100000
Info: DCD FILE WILL CONTAIN UNIT CELL DATA
Info: XST FILENAME           mobley_1728386_prod.xst
Info: XST FREQUENCY          100000
Info: NO VELOCITY DCD OUTPUT
Info: NO FORCE DCD OUTPUT
Info: OUTPUT FILENAME        mobley_1728386_prod
Info: BINARY OUTPUT FILES WILL BE USED
Info: RESTART FILENAME       mobley_1728386_prod.restart
Info: RESTART FREQUENCY      100000
Info: BINARY RESTART FILES WILL BE USED
Info: CUTOFF                 9
Info: PAIRLIST DISTANCE      11
Info: PAIRLIST SHRINK RATE   0.01
Info: PAIRLIST GROW RATE     0.01
Info: PAIRLIST TRIGGER       0.3
Info: PAIRLISTS PER CYCLE    2
Info: PAIRLISTS ENABLED
Info: MARGIN                 2
Info: HYDROGEN GROUP CUTOFF  2.5
Info: PATCH DIMENSION        15.5
Info: ENERGY OUTPUT STEPS    100000
Info: ENERGY EVALUATION STEPS    100000
Info: OUTPUT ENERGY PRECISION 4
Info: CROSSTERM ENERGY INCLUDED IN DIHEDRAL
Info: TIMING OUTPUT STEPS    1000000
Info: PRESSURE OUTPUT STEPS  100000
Info: ALCHEMICAL FEP ON
Info: FEP CURRENT LAMBDA VALUE     1
Info: FEP COMPARISON LAMBDA VALUE  0.95
Info: FEP INTRA-ALCHEMICAL NON-BONDED INTERACTIONS WILL BE RETAINED
Info: FEP INTRA-ALCHEMICAL BONDED INTERACTIONS WILL BE RETAINED
Info: FEP VDW SHIFTING COEFFICIENT 5
Info: FEP ELEC. ACTIVE FOR ANNIHILATED PARTICLES BETWEEN LAMBDA = 0 AND LAMBDA = 0.5
Info: FEP ELEC. ACTIVE FOR EXNIHILATED PARTICLES BETWEEN LAMBDA = 0.5 AND LAMBDA = 1
Info: FEP VDW ACTIVE FOR ANNIHILATED PARTICLES BETWEEN LAMBDA = 0 AND LAMBDA = 1
Info: FEP VDW ACTIVE FOR EXNIHILATED PARTICLES BETWEEN LAMBDA = 0 AND LAMBDA = 1
Info: FEP BOND ACTIVE FOR ANNIHILATED PARTICLES BETWEEN LAMBDA = 1 AND LAMBDA = 1
Info: FEP BOND ACTIVE FOR EXNIHILATED PARTICLES BETWEEN LAMBDA = 0 AND LAMBDA = 0
Info: LANGEVIN DYNAMICS ACTIVE
Info: LANGEVIN TEMPERATURE   300
Info: LANGEVIN USING BBK INTEGRATOR
Info: LANGEVIN DAMPING COEFFICIENT IS 1 INVERSE PS
Info: LANGEVIN DYNAMICS APPLIED TO HYDROGENS
Info: LANGEVIN PISTON PRESSURE CONTROL ACTIVE
Info:        TARGET PRESSURE IS 1.01325 BAR
Info:     OSCILLATION PERIOD IS 50 FS
Info:             DECAY TIME IS 25 FS
Info:     PISTON TEMPERATURE IS 300 K
Info:       PRESSURE CONTROL IS GROUP-BASED
Info:    INITIAL STRAIN RATE IS 0.000557218 0.000557218 0.000557218
Info:       CELL FLUCTUATION IS ISOTROPIC
Info: PARTICLE MESH EWALD (PME) ACTIVE
Info: PME TOLERANCE               1e-06
Info: PME EWALD COEFFICIENT       0.348832
Info: PME INTERPOLATION ORDER     4
Info: PME GRID DIMENSIONS         32 32 36
Info: PME MAXIMUM GRID SPACING    1
Info: PME CALCULATION WILL BE PERFORMED ON GPU
Info: FULL ELECTROSTATIC EVALUATION FREQUENCY      2
Info: USING VERLET I (r-RESPA) MTS SCHEME.
Info: C1 SPLITTING OF LONG RANGE ELECTROSTATICS
Info: PLACING ATOMS IN PATCHES BY HYDROGEN GROUPS
Info: RIGID BONDS TO HYDROGEN : ALL
Info:         ERROR TOLERANCE : 1e-08
Info:          MAX ITERATIONS : 100
Info: RIGID WATER USING SETTLE ALGORITHM
Info: RANDOM NUMBER SEED     1743753014
Info: USE HYDROGEN BONDS?    NO
Info: Using AMBER format force field!
Info: AMBER PARM FILE        mobley_1728386.prmtop
Info: COORDINATE PDB         mobley_1728386.pdb
Info: Exclusions will be read from PARM file!
Info: SCNB (VDW SCALING)     2
Info: USING ARITHMETIC MEAN TO COMBINE L-J SIGMA PARAMETERS
Info: BINARY COORDINATES     mobley_1728386_equil.coor
Info: SUMMARY OF PARAMETERS:
Info: 8 BONDS
Info: 8 ANGLES
Info:   8 HARMONIC
Info:   0 COSINE-BASED
Info: 6 DIHEDRAL
Info: 0 IMPROPER
Info: 0 CROSSTERM
Info: 0 VDW
Info: 28 VDW_PAIRS
Info: 0 NBTHOLE_PAIRS
Info: To read alchdata from file: mobley_1728386.pdb
Info: To read alchflag data from column: 5
Info: STRUCTURE SUMMARY:
Info: 2923 ATOMS
Info: 2923 BONDS
Info: 24 ANGLES
Info: 42 DIHEDRALS
Info: 0 IMPROPERS
Info: 0 CROSSTERMS
Info: 2976 EXCLUSIONS
Info: 2914 RIGID BONDS
Info: ALCH: 0 ATOMS TO DISAPPEAR IN FINAL STATE
Info: ALCH: 16 ATOMS TO APPEAR IN FINAL STATE
Info: 5855 DEGREES OF FREEDOM
Info: 978 HYDROGEN GROUPS
Info: 3 ATOMS IN LARGEST HYDROGEN GROUP
Info: 978 MIGRATION GROUPS
Info: 3 ATOMS IN LARGEST MIGRATION GROUP
Info: TOTAL MASS = 17578.6 amu
Info: TOTAL CHARGE = -9.99048e-05 e
Info: MASS DENSITY = 0.975142 g/cm^3
Info: ATOM DENSITY = 0.0976455 atoms/A^3
Info: ADDED 0 IMPLICIT EXCLUSIONS
Info: NONBONDED TABLE R-SQUARED SPACING: 0.0625
Info: NONBONDED TABLE SIZE: 705 POINTS
Info: REMOVING COM VELOCITY -0.00510916 -0.0309017 -0.134077
Info: Use 3D box decompostion in PME FFT.
Info: Updated CUDA force table with 4096 elements.
Info: Updated CUDA LJ table with 7 x 7 elements.
Info: Found 18 unique exclusion lists needing 40 bytes
TCL: Running for 1500000 steps
ETITLE: TS BOND ANGLE DIHED IMPRP ELECT VDW BOUNDARY MISC KINETIC TOTAL TEMP POTENTIAL TOTALAVG TEMPAVG PRESSURE GPRESSURE VOLUME PRESSAVG GPRESSAVG
ENERGY: 0 2.4413 3.9437 8.8547 0.0000 -10579.6464 1354.9182 0.0000 0.0000 1769.9600 -7439.5285 304.2474 -9209.4885 -7439.5285 304.2474 -517.6467 -439.5996 29934.8136 -517.6467 -439.5996
ENERGY: 300000 4.8967 5.5916 6.6802 0.0000 -10718.2852 1488.8772 0.0000 0.0000 1724.8299 -7487.4097 296.4898 -9212.2395 -7435.5887 299.5198 403.7640 420.8516 29877.7600 42.3626 95.1802
ENERGY: 600000 3.6799 5.7009 7.6826 0.0000 -10544.5337 1380.2015 0.0000 0.0000 1753.1155 -7394.1533 301.3520 -9147.2688 -7441.3768 300.5686 -382.5368 -302.7389 30184.2412 77.5122 130.4903
ENERGY: 900000 5.1853 8.8507 6.9445 0.0000 -10591.9264 1383.8254 0.0000 0.0000 1718.7721 -7468.3484 295.4485 -9187.1205 -7437.7906 299.8508 -510.6741 -449.5233 30260.5600 52.7286 99.9379
ENERGY: 1200000 4.3967 2.6518 10.0409 0.0000 -10629.7874 1469.9670 0.0000 0.0000 1704.2450 -7438.4861 292.9513 -9142.7310 -7442.3663 299.1417 589.2982 593.7263 29727.4455 20.8971 63.5055
ENERGY: 1500000 0.7648 5.1471 7.7600 0.0000 -10578.6993 1367.5248 0.0000 0.0000 1758.6765 -7438.8262 302.3079 -9197.5027 -7435.6789 299.7978 -526.3431 -482.1075 30209.9464 -24.7650 25.1550
TCL: Running FEP window   2: Lambda1 0.95   Lambda2 0.8999999999999999 [dLambda -0.050000000000000044]
TCL: Setting parameter firsttimestep to 0
TCL: Setting parameter alchLambda to 0.95
Info: NONBONDED TABLE R-SQUARED SPACING: 0.0625
Info: NONBONDED TABLE SIZE: 705 POINTS
TCL: Setting parameter alchLambda2 to 0.8999999999999999
Info: NONBONDED TABLE R-SQUARED SPACING: 0.0625
Info: NONBONDED TABLE SIZE: 705 POINTS
TCL: Running for 1500000 steps
ETITLE: TS BOND ANGLE DIHED IMPRP ELECT VDW BOUNDARY MISC KINETIC TOTAL TEMP POTENTIAL TOTALAVG TEMPAVG PRESSURE GPRESSURE VOLUME PRESSAVG GPRESSAVG
ENERGY: 0 0.7648 5.1471 7.7600 0.0000 -10575.6191 1366.7332 0.0000 0.0000 1757.7964 -7437.4177 302.1566 -9195.2141 -7437.4177 302.1566 -580.1014 -494.3694 30209.9464 -580.1014 -494.3694
ENERGY: 300000 3.6028 2.8680 8.6218 0.0000 -10880.8223 1562.4857 0.0000 0.0000 1790.5689 -7512.6751 307.7900 -9303.2441 -7452.7661 306.1471 995.0815 1019.6337 29632.1689 223.1629 273.1892
ENERGY: 600000 4.0617 2.3972 11.1885 0.0000 -10599.1022 1398.2747 0.0000 0.0000 1782.2632 -7400.9169 306.3623 -9183.1802 -7421.0757 306.2818 -196.8024 -120.0328 30199.8546 36.3012 93.1063
ENERGY: 900000 3.1368 8.3391 6.9862 0.0000 -10879.3004 1602.8622 0.0000 0.0000 1707.9107 -7550.0654 293.5815 -9257.9761 -7422.3843 305.8171 1422.2453 1410.9734 29727.9818 138.3691 192.0342
ENERGY: 1200000 3.4500 5.0236 9.7852 0.0000 -10539.5369 1371.4773 0.0000 0.0000 1741.1603 -7408.6406 299.2969 -9149.8008 -7420.8930 304.5226 -393.4580 -282.0886 30208.0165 151.9941 209.5188
ENERGY: 1500000 2.5771 5.5158 7.5591 0.0000 -10671.0345 1395.1150 0.0000 0.0000 1755.7566 -7504.5110 301.8059 -9260.2675 -7423.5300 304.7687 -213.1978 -177.1081 29892.1932 68.5641 123.9159
TCL: Running FEP window   3: Lambda1 0.8999999999999999 Lambda2 0.8499999999999999 [dLambda -0.050000000000000044]
TCL: Setting parameter firsttimestep to 0
TCL: Setting parameter alchLambda to 0.8999999999999999
Info: NONBONDED TABLE R-SQUARED SPACING: 0.0625
Info: NONBONDED TABLE SIZE: 705 POINTS
TCL: Setting parameter alchLambda2 to 0.8499999999999999
Info: NONBONDED TABLE R-SQUARED SPACING: 0.0625
Info: NONBONDED TABLE SIZE: 705 POINTS
TCL: Running for 1500000 steps
ETITLE: TS BOND ANGLE DIHED IMPRP ELECT VDW BOUNDARY MISC KINETIC TOTAL TEMP POTENTIAL TOTALAVG TEMPAVG PRESSURE GPRESSURE VOLUME PRESSAVG GPRESSAVG
ENERGY: 0 2.5771 5.5158 7.5591 0.0000 -10668.1135 1394.6637 0.0000 0.0000 1754.8800 -7502.9178 301.6553 -9257.7978 -7502.9178 301.6553 -267.7262 -188.6788 29892.1932 -267.7262 -188.6788
ENERGY: 300000 5.4066 5.3958 9.3904 0.0000 -10556.0209 1357.9854 0.0000 0.0000 1752.5981 -7425.2446 301.2630 -9177.8427 -7453.1215 301.1720 -592.6798 -554.0168 29976.9437 -457.7522 -387.4442
ENERGY: 600000 2.7979 1.9576 7.3983 0.0000 -10685.6542 1474.6693 0.0000 0.0000 1753.9486 -7444.8824 301.4952 -9198.8311 -7435.9054 301.6919 628.5939 756.4145 29671.7492 -161.6215 -79.9002
ENERGY: 900000 2.9569 6.0931 6.3386 0.0000 -10868.8977 1579.3693 0.0000 0.0000 1810.1270 -7464.0127 311.1520 -9274.1398 -7444.6777 302.0969 1011.9286 1152.8369 29558.7651 -126.5464 -46.3172
ENERGY: 1200000 3.2510 3.8934 8.1072 0.0000 -10566.0832 1416.2803 0.0000 0.0000 1732.3645 -7402.1869 297.7850 -9134.5514 -7436.9150 301.7047 -223.9629 -158.2900 30413.7983 -125.4729 -48.7427
ENERGY: 1500000 4.8341 3.1261 10.0781 0.0000 -10521.8502 1346.0492 0.0000 0.0000 1791.7710 -7365.9917 307.9966 -9157.7627 -7433.3431 301.7915 -302.0613 -314.3692 29961.0049 -193.8878 -127.2521
TCL: Running FEP window   4: Lambda1 0.8499999999999999 Lambda2 0.7999999999999998 [dLambda -0.050000000000000044]
TCL: Setting parameter firsttimestep to 0
TCL: Setting parameter alchLambda to 0.8499999999999999
Info: NONBONDED TABLE R-SQUARED SPACING: 0.0625
Info: NONBONDED TABLE SIZE: 705 POINTS
TCL: Setting parameter alchLambda2 to 0.7999999999999998
Info: NONBONDED TABLE R-SQUARED SPACING: 0.0625
Info: NONBONDED TABLE SIZE: 705 POINTS
TCL: Running for 1500000 steps
ETITLE: TS BOND ANGLE DIHED IMPRP ELECT VDW BOUNDARY MISC KINETIC TOTAL TEMP POTENTIAL TOTALAVG TEMPAVG PRESSURE GPRESSURE VOLUME PRESSAVG GPRESSAVG
ENERGY: 0 4.8341 3.1261 10.0781 0.0000 -10519.4879 1346.0967 0.0000 0.0000 1790.8502 -7364.5027 307.8384 -9155.3529 -7364.5027 307.8384 -415.6574 -320.8062 29961.0049 -415.6574 -320.8062
ENERGY: 300000 2.8728 2.6890 6.9129 0.0000 -10590.8874 1369.7918 0.0000 0.0000 1740.5484 -7468.0725 299.1917 -9208.6209 -7390.8562 300.1539 -499.4252 -472.5974 29974.6301 -199.8684 -151.5330
ENERGY: 600000 3.0906 5.2291 9.1248 0.0000 -10692.4082 1463.3875 0.0000 0.0000 1783.4174 -7428.1588 306.5607 -9211.5762 -7413.9878 300.0339 440.0424 481.0430 29914.3966 -114.4053 -51.9581
ENERGY: 900000 4.9131 3.3607 10.4793 0.0000 -10573.4432 1346.3009 0.0000 0.0000 1765.0025 -7443.3867 303.3953 -9208.3892 -7412.1515 300.8348 -477.1202 -393.9583 29856.7753 -137.1525 -69.4793
ENERGY: 1200000 4.3225 2.5513 7.2359 0.0000 -10638.4542 1408.5954 0.0000 0.0000 1793.9764 -7421.7727 308.3757 -9215.7491 -7417.4630 301.8349 -427.4566 -364.9287 30328.7175 -193.9598 -128.2843
ENERGY: 1500000 1.8824 6.5096 8.0918 0.0000 -10620.9461 1442.7110 0.0000 0.0000 1747.5691 -7414.1822 300.3986 -9161.7513 -7425.0675 301.4567 212.1813 295.6091 29840.4759 -185.3616 -118.0673
TCL: Running FEP window   5: Lambda1 0.7999999999999998 Lambda2 0.7499999999999998 [dLambda -0.050000000000000044]
TCL: Setting parameter firsttimestep to 0
TCL: Setting parameter alchLambda to 0.7999999999999998
Info: NONBONDED TABLE R-SQUARED SPACING: 0.0625
Info: NONBONDED TABLE SIZE: 705 POINTS
TCL: Setting parameter alchLambda2 to 0.7499999999999998
Info: NONBONDED TABLE R-SQUARED SPACING: 0.0625
Info: NONBONDED TABLE SIZE: 705 POINTS
TCL: Running for 1500000 steps
ETITLE: TS BOND ANGLE DIHED IMPRP ELECT VDW BOUNDARY MISC KINETIC TOTAL TEMP POTENTIAL TOTALAVG TEMPAVG PRESSURE GPRESSURE VOLUME PRESSAVG GPRESSAVG
ENERGY: 0 1.8824 6.5096 8.0918 0.0000 -10617.9416 1442.2505 0.0000 0.0000 1746.7134 -7412.4939 300.2515 -9159.2072 -7412.4939 300.2515 211.7600 284.2696 29840.4759 211.7600 284.2696
ENERGY: 300000 1.8723 4.4581 10.6991 0.0000 -10494.5062 1330.5825 0.0000 0.0000 1780.1699 -7366.7243 306.0025 -9146.8942 -7381.4462 302.6600 -704.6918 -638.5718 30548.4894 -613.8787 -528.9164
ENERGY: 600000 4.6058 4.1996 9.8351 0.0000 -10551.6962 1394.4318 0.0000 0.0000 1772.2491 -7366.3747 304.6409 -9138.6239 -7396.5683 303.3564 -141.6380 -108.7162 30226.9188 -527.4346 -455.7447
ENERGY: 900000 2.6985 7.0327 10.1957 0.0000 -10739.9304 1481.6236 0.0000 0.0000 1744.7411 -7493.6388 299.9124 -9238.3799 -7419.1899 301.5538 538.8410 606.6595 29562.9299 -354.2547 -287.0950
ENERGY: 1200000 3.3553 8.4446 10.6631 0.0000 -10680.6166 1461.5366 0.0000 0.0000 1724.3025 -7472.3145 296.3991 -9196.6169 -7425.3481 300.1155 291.1061 327.1605 29890.9077 -270.5855 -204.3858
ENERGY: 1500000 1.0954 6.6617 8.4057 0.0000 -10630.2783 1381.8552 0.0000 0.0000 1697.0327 -7535.2277 291.7116 -9232.2604 -7439.8020 299.6068 -317.7774 -236.3721 30050.5733 -204.8624 -142.4046
TCL: Running FEP window   6: Lambda1 0.7499999999999998 Lambda2 0.6999999999999997 [dLambda -0.050000000000000044]
TCL: Setting parameter firsttimestep to 0
TCL: Setting parameter alchLambda to 0.7499999999999998
Info: NONBONDED TABLE R-SQUARED SPACING: 0.0625
Info: NONBONDED TABLE SIZE: 705 POINTS
TCL: Setting parameter alchLambda2 to 0.6999999999999997
Info: NONBONDED TABLE R-SQUARED SPACING: 0.0625
Info: NONBONDED TABLE SIZE: 705 POINTS
TCL: Running for 1500000 steps
ETITLE: TS BOND ANGLE DIHED IMPRP ELECT VDW BOUNDARY MISC KINETIC TOTAL TEMP POTENTIAL TOTALAVG TEMPAVG PRESSURE GPRESSURE VOLUME PRESSAVG GPRESSAVG
ENERGY: 0 1.0954 6.6617 8.4057 0.0000 -10628.2343 1381.7256 0.0000 0.0000 1696.1745 -7534.1715 291.5641 -9230.3461 -7534.1715 291.5641 -336.1287 -244.6765 30050.5733 -336.1287 -244.6765
ENERGY: 300000 3.4965 3.9227 10.9189 0.0000 -10639.5026 1434.7433 0.0000 0.0000 1768.9250 -7417.4962 304.0695 -9186.4212 -7469.7519 296.5010 184.7789 231.4562 30017.1274 -6.0303 63.6085
ENERGY: 600000 4.4870 4.8897 8.4071 0.0000 -10666.2195 1464.7582 0.0000 0.0000 1752.8238 -7430.8538 301.3018 -9183.6775 -7461.6866 296.9495 -9.8612 81.5419 30469.8541 -176.8707 -99.6681
ENERGY: 900000 4.4730 2.1089 8.1262 0.0000 -10518.2829 1325.2172 0.0000 0.0000 1735.4546 -7442.9031 298.3161 -9178.3577 -7452.3476 299.2058 -810.8387 -683.1418 30144.5287 -176.2867 -87.6657
ENERGY: 1200000 3.2889 4.5621 8.1604 0.0000 -10728.1328 1473.1583 0.0000 0.0000 1734.4771 -7504.4860 298.1481 -9238.9631 -7455.5207 299.3797 -25.5666 62.0435 30039.2614 -119.2464 -36.1173
ENERGY: 1500000 0.8161 5.8649 11.5022 0.0000 -10652.8066 1438.4304 0.0000 0.0000 1749.6815 -7446.5115 300.7617 -9196.1931 -7454.7830 299.0307 54.4584 107.1118 30173.4390 -72.4618 7.4675
TCL: Running FEP window   7: Lambda1 0.6999999999999997 Lambda2 0.6499999999999997 [dLambda -0.050000000000000044]
TCL: Setting parameter firsttimestep to 0
TCL: Setting parameter alchLambda to 0.6999999999999997
Info: NONBONDED TABLE R-SQUARED SPACING: 0.0625
Info: NONBONDED TABLE SIZE: 705 POINTS
TCL: Setting parameter alchLambda2 to 0.6499999999999997
Info: NONBONDED TABLE R-SQUARED SPACING: 0.0625
Info: NONBONDED TABLE SIZE: 705 POINTS
TCL: Running for 1500000 steps
ETITLE: TS BOND ANGLE DIHED IMPRP ELECT VDW BOUNDARY MISC KINETIC TOTAL TEMP POTENTIAL TOTALAVG TEMPAVG PRESSURE GPRESSURE VOLUME PRESSAVG GPRESSAVG
ENERGY: 0 0.8161 5.8649 11.5022 0.0000 -10650.8016 1438.5382 0.0000 0.0000 1748.8079 -7445.2723 300.6115 -9194.0803 -7445.2723 300.6115 37.3419 103.1748 30173.4390 37.3419 103.1748
ENERGY: 300000 1.0543 6.4921 7.2164 0.0000 -10582.3789 1404.3289 0.0000 0.0000 1749.4527 -7413.8345 300.7223 -9163.2872 -7423.2373 295.9662 -511.3391 -391.8513 30717.7984 9.2103 87.2520
ENERGY: 600000 1.1500 6.3710 6.5351 0.0000 -10687.4363 1475.5638 0.0000 0.0000 1762.0459 -7435.7706 302.8870 -9197.8165 -7439.8241 298.2147 378.3958 405.9005 29988.1055 -54.3743 1.4380
ENERGY: 900000 2.6543 6.1464 7.0935 0.0000 -10477.5746 1339.3117 0.0000 0.0000 1718.3489 -7404.0198 295.3757 -9122.3686 -7436.8717 298.2052 -599.5330 -471.2690 30310.2363 -117.8615 -51.8388
ENERGY: 1200000 6.8333 5.3740 9.6070 0.0000 -10687.3116 1476.3158 0.0000 0.0000 1767.4390 -7421.7425 303.8141 -9189.1815 -7423.8285 298.8564 220.2151 359.6357 30117.3836 -132.4197 -64.5399
ENERGY: 1500000 1.8113 3.2744 7.4301 0.0000 -10602.6601 1445.7348 0.0000 0.0000 1808.0668 -7336.3427 310.7978 -9144.4095 -7422.0810 299.6484 379.1152 396.5445 30025.7348 -67.5142 -5.9342
TCL: Running FEP window   8: Lambda1 0.6499999999999997 Lambda2 0.5999999999999996 [dLambda -0.050000000000000044]
TCL: Setting parameter firsttimestep to 0
TCL: Setting parameter alchLambda to 0.6499999999999997
Info: NONBONDED TABLE R-SQUARED SPACING: 0.0625
Info: NONBONDED TABLE SIZE: 705 POINTS
TCL: Setting parameter alchLambda2 to 0.5999999999999996
Info: NONBONDED TABLE R-SQUARED SPACING: 0.0625
Info: NONBONDED TABLE SIZE: 705 POINTS
TCL: Running for 1500000 steps
ETITLE: TS BOND ANGLE DIHED IMPRP ELECT VDW BOUNDARY MISC KINETIC TOTAL TEMP POTENTIAL TOTALAVG TEMPAVG PRESSURE GPRESSURE VOLUME PRESSAVG GPRESSAVG
ENERGY: 0 1.8113 3.2743 7.4301 0.0000 -10601.2187 1445.4498 0.0000 0.0000 1807.1872 -7336.0659 310.6466 -9143.2531 -7336.0659 310.6466 294.0673 386.1044 30025.7348 294.0673 386.1044
ENERGY: 300000 3.4442 3.8265 9.9904 0.0000 -10591.2538 1402.0908 0.0000 0.0000 1737.3935 -7434.5085 298.6494 -9171.9020 -7421.2229 302.4123 -271.2352 -232.5048 30449.8208 -282.1853 -207.4636
ENERGY: 600000 3.7072 3.8201 8.5554 0.0000 -10524.0834 1396.1506 0.0000 0.0000 1782.6415 -7329.2087 306.4273 -9111.8501 -7396.7105 302.3112 27.6536 140.3701 29933.8932 -214.4711 -142.2638
ENERGY: 900000 4.0050 5.4375 7.9081 0.0000 -10625.9988 1401.9735 0.0000 0.0000 1804.7769 -7401.8978 310.2323 -9206.6747 -7391.6150 303.0188 -188.8589 -182.6860 30218.0642 -261.6762 -210.6795
ENERGY: 1200000 3.7298 5.4141 10.1148 0.0000 -10613.3018 1385.1905 0.0000 0.0000 1727.8329 -7481.0196 297.0060 -9208.8525 -7402.0295 302.2688 -404.5336 -319.3582 29961.2497 -290.8904 -237.6806
ENERGY: 1500000 3.0171 9.8503 6.6100 0.0000 -10567.5965 1409.7031 0.0000 0.0000 1788.1180 -7350.2980 307.3687 -9138.4160 -7407.5013 301.9949 -204.7338 -92.8432 30449.7363 -291.6528 -230.4242
TCL: Running FEP window   9: Lambda1 0.5999999999999996 Lambda2 0.5499999999999996 [dLambda -0.050000000000000044]
TCL: Setting parameter firsttimestep to 0
TCL: Setting parameter alchLambda to 0.5999999999999996
Info: NONBONDED TABLE R-SQUARED SPACING: 0.0625
Info: NONBONDED TABLE SIZE: 705 POINTS
TCL: Setting parameter alchLambda2 to 0.5499999999999996
Info: NONBONDED TABLE R-SQUARED SPACING: 0.0625
Info: NONBONDED TABLE SIZE: 705 POINTS
TCL: Running for 1500000 steps
ETITLE: TS BOND ANGLE DIHED IMPRP ELECT VDW BOUNDARY MISC KINETIC TOTAL TEMP POTENTIAL TOTALAVG TEMPAVG PRESSURE GPRESSURE VOLUME PRESSAVG GPRESSAVG
ENERGY: 0 3.0170 9.8503 6.6100 0.0000 -10566.7866 1409.6888 0.0000 0.0000 1787.2720 -7350.3483 307.2233 -9137.6204 -7350.3483 307.2233 -177.2226 -100.2782 30449.7363 -177.2226 -100.2782
ENERGY: 300000 4.3502 9.1077 9.7338 0.0000 -10646.0047 1399.4963 0.0000 0.0000 1715.9826 -7507.3341 294.9690 -9223.3167 -7402.9683 301.2768 -421.9218 -346.5315 30103.2055 125.2931 180.1932
ENERGY: 600000 3.5347 4.5566 7.6078 0.0000 -10607.1031 1442.3257 0.0000 0.0000 1722.7334 -7426.3450 296.1294 -9149.0784 -7427.7255 297.6581 -149.4724 -93.0505 30401.4348 -56.8635 -0.8173
ENERGY: 900000 2.3369 5.3733 7.9416 0.0000 -10615.2322 1430.2398 0.0000 0.0000 1749.4647 -7419.8759 300.7244 -9169.3406 -7420.3675 299.4249 42.4088 62.4218 30115.2561 46.9808 102.9406
ENERGY: 1200000 3.9911 3.2382 12.7300 0.0000 -10662.0751 1429.5444 0.0000 0.0000 1769.9291 -7442.6422 304.2421 -9212.5713 -7427.5266 299.9979 -223.6438 -169.2400 30336.6407 -74.6865 -12.8021
ENERGY: 1500000 3.9082 5.7831 10.8307 0.0000 -10572.3659 1368.1181 0.0000 0.0000 1709.9866 -7473.7393 293.9383 -9183.7259 -7433.0477 299.7019 -526.7512 -471.6306 30235.4552 -76.3881 -15.0619
TCL: Running FEP window  10: Lambda1 0.5499999999999996 Lambda2 0.4999999999999996 [dLambda -0.04999999999999999]
TCL: Setting parameter firsttimestep to 0
TCL: Setting parameter alchLambda to 0.5499999999999996
Info: NONBONDED TABLE R-SQUARED SPACING: 0.0625
Info: NONBONDED TABLE SIZE: 705 POINTS
TCL: Setting parameter alchLambda2 to 0.4999999999999996
Info: NONBONDED TABLE R-SQUARED SPACING: 0.0625
Info: NONBONDED TABLE SIZE: 705 POINTS
TCL: Running for 1500000 steps
ETITLE: TS BOND ANGLE DIHED IMPRP ELECT VDW BOUNDARY MISC KINETIC TOTAL TEMP POTENTIAL TOTALAVG TEMPAVG PRESSURE GPRESSURE VOLUME PRESSAVG GPRESSAVG
ENERGY: 0 3.9082 5.7831 10.8307 0.0000 -10571.2755 1368.3174 0.0000 0.0000 1709.1185 -7473.3176 293.7891 -9182.4362 -7473.3176 293.7891 -562.1369 -471.5805 30235.4552 -562.1369 -471.5805
ENERGY: 300000 3.3213 5.0448 9.1737 0.0000 -10516.3352 1413.8210 0.0000 0.0000 1742.6725 -7342.3019 299.5569 -9084.9744 -7384.2387 300.4624 114.2848 201.4512 30042.5660 -265.6579 -186.4899
ENERGY: 600000 5.7385 4.7212 8.6608 0.0000 -10667.3409 1521.4066 0.0000 0.0000 1723.5487 -7403.2651 296.2696 -9126.8138 -7387.5978 301.3553 470.7285 535.6917 30686.6668 22.6147 100.1024
ENERGY: 900000 2.5336 4.8202 7.2391 0.0000 -10667.7557 1426.9039 0.0000 0.0000 1764.3508 -7461.9081 303.2832 -9226.2589 -7397.5243 301.0767 -145.2107 -82.4186 30097.6665 -2.2780 77.5174
ENERGY: 1200000 2.9248 3.2415 6.3534 0.0000 -10633.2138 1437.3703 0.0000 0.0000 1759.9310 -7423.3928 302.5235 -9183.3238 -7405.2459 300.7877 63.2092 161.8385 30129.8916 -26.2397 57.5530
ENERGY: 1500000 3.4815 2.7718 9.8442 0.0000 -10429.2674 1334.7912 0.0000 0.0000 1692.7010 -7385.6777 290.9670 -9078.3787 -7407.7514 300.0997 -394.2653 -285.2870 30071.7739 -59.2910 23.8571
TCL: Running FEP window  11: Lambda1 0.4999999999999996 Lambda2 0.4499999999999996 [dLambda -0.04999999999999999]
TCL: Setting parameter firsttimestep to 0
TCL: Setting parameter alchLambda to 0.4999999999999996
Info: NONBONDED TABLE R-SQUARED SPACING: 0.0625
Info: NONBONDED TABLE SIZE: 705 POINTS
TCL: Setting parameter alchLambda2 to 0.4499999999999996
Info: NONBONDED TABLE R-SQUARED SPACING: 0.0625
Info: NONBONDED TABLE SIZE: 705 POINTS
TCL: Running for 1500000 steps
ETITLE: TS BOND ANGLE DIHED IMPRP ELECT VDW BOUNDARY MISC KINETIC TOTAL TEMP POTENTIAL TOTALAVG TEMPAVG PRESSURE GPRESSURE VOLUME PRESSAVG GPRESSAVG
ENERGY: 0 3.4815 2.7718 9.8442 0.0000 -10429.1396 1334.9010 0.0000 0.0000 1691.8547 -7386.2864 290.8215 -9078.1411 -7386.2864 290.8215 -387.9774 -292.7787 30071.7739 -387.9774 -292.7787
ENERGY: 300000 3.0174 5.5508 7.3160 0.0000 -10650.1471 1393.4620 0.0000 0.0000 1752.2661 -7488.5348 301.2060 -9240.8009 -7440.1836 294.2318 -367.9733 -377.6567 29825.3518 -185.9521 -113.2574
ENERGY: 600000 5.1806 5.8394 6.7880 0.0000 -10665.2378 1422.2390 0.0000 0.0000 1809.8506 -7415.3401 311.1044 -9225.1908 -7440.1628 297.8158 -121.3375 -82.1509 29839.4777 -238.8862 -184.8082
ENERGY: 900000 0.7655 7.0377 8.7328 0.0000 -10557.9878 1361.8048 0.0000 0.0000 1717.9187 -7461.7283 295.3018 -9179.6469 -7437.6534 297.6046 -623.8652 -600.9763 30203.8772 -252.8654 -195.1039
ENERGY: 1200000 1.4808 7.8434 7.8507 0.0000 -10686.4165 1426.5624 0.0000 0.0000 1739.3407 -7503.3384 298.9841 -9242.6792 -7432.0868 297.6181 -242.8782 -163.6963 29917.5357 -132.0537 -73.7253
ENERGY: 1500000 4.3933 4.4205 10.5732 0.0000 -10607.6321 1403.0403 0.0000 0.0000 1761.1180 -7424.0866 302.7275 -9185.2047 -7433.2493 298.0503 -514.1387 -425.5569 30325.6427 -58.8170 2.4904
TCL: Running FEP window  12: Lambda1 0.4499999999999996 Lambda2 0.39999999999999963 [dLambda -0.04999999999999999]
TCL: Setting parameter firsttimestep to 0
TCL: Setting parameter alchLambda to 0.4499999999999996
Info: NONBONDED TABLE R-SQUARED SPACING: 0.0625
Info: NONBONDED TABLE SIZE: 705 POINTS
TCL: Setting parameter alchLambda2 to 0.39999999999999963
Info: NONBONDED TABLE R-SQUARED SPACING: 0.0625
Info: NONBONDED TABLE SIZE: 705 POINTS
TCL: Running for 1500000 steps
ETITLE: TS BOND ANGLE DIHED IMPRP ELECT VDW BOUNDARY MISC KINETIC TOTAL TEMP POTENTIAL TOTALAVG TEMPAVG PRESSURE GPRESSURE VOLUME PRESSAVG GPRESSAVG
ENERGY: 0 4.3933 4.4205 10.5732 0.0000 -10607.6322 1402.5982 0.0000 0.0000 1760.2716 -7425.3753 302.5821 -9185.6469 -7425.3753 302.5821 -522.5235 -433.9851 30325.6427 -522.5235 -433.9851
ENERGY: 300000 2.0548 6.7303 9.7351 0.0000 -10635.7920 1476.0507 0.0000 0.0000 1722.5683 -7418.6529 296.1010 -9141.2212 -7380.5405 298.8294 255.7530 220.3765 30447.8137 64.0359 96.2176
ENERGY: 600000 2.8998 5.4226 6.6041 0.0000 -10704.3520 1486.7187 0.0000 0.0000 1785.4286 -7417.2782 306.9064 -9202.7068 -7394.1086 300.1800 562.6149 628.7639 29782.4031 120.2603 153.7306
ENERGY: 900000 3.0412 6.3540 8.5785 0.0000 -10718.8325 1476.5516 0.0000 0.0000 1745.7530 -7478.5543 300.0864 -9224.3072 -7413.1747 300.8442 531.2134 548.5798 29437.6597 128.1423 167.5662
ENERGY: 1200000 4.7676 4.1159 9.1017 0.0000 -10625.6585 1441.0752 0.0000 0.0000 1771.1392 -7395.4590 304.4501 -9166.5982 -7407.8744 300.5584 -101.5189 19.0888 30223.4739 69.0581 123.5872
ENERGY: 1500000 4.1693 6.1075 9.0495 0.0000 -10670.3619 1475.3519 0.0000 0.0000 1757.6009 -7418.0828 302.1230 -9175.6837 -7406.1943 300.5452 443.0963 558.1135 29666.5664 94.4545 152.5861
TCL: Running FEP window  13: Lambda1 0.39999999999999963 Lambda2 0.34999999999999964 [dLambda -0.04999999999999999]
TCL: Setting parameter firsttimestep to 0
TCL: Setting parameter alchLambda to 0.39999999999999963
Info: NONBONDED TABLE R-SQUARED SPACING: 0.0625
Info: NONBONDED TABLE SIZE: 705 POINTS
TCL: Setting parameter alchLambda2 to 0.34999999999999964
Info: NONBONDED TABLE R-SQUARED SPACING: 0.0625
Info: NONBONDED TABLE SIZE: 705 POINTS
TCL: Running for 1500000 steps
ETITLE: TS BOND ANGLE DIHED IMPRP ELECT VDW BOUNDARY MISC KINETIC TOTAL TEMP POTENTIAL TOTALAVG TEMPAVG PRESSURE GPRESSURE VOLUME PRESSAVG GPRESSAVG
ENERGY: 0 4.1693 6.1075 9.0495 0.0000 -10670.3615 1475.7442 0.0000 0.0000 1756.7420 -7418.5490 301.9753 -9175.2910 -7418.5490 301.9753 462.1442 556.1116 29666.5664 462.1442 556.1116
ENERGY: 300000 2.3978 2.4447 8.0662 0.0000 -10546.3406 1374.7519 0.0000 0.0000 1767.5439 -7391.1361 303.8321 -9158.6800 -7410.8995 301.4590 -385.4077 -352.0082 30042.3671 -31.5382 32.2092
ENERGY: 600000 2.7617 6.4267 8.9607 0.0000 -10693.1607 1483.6011 0.0000 0.0000 1759.6475 -7431.7631 302.4748 -9191.4106 -7410.7080 302.6907 439.0047 483.0557 29917.9205 79.9835 145.6422
ENERGY: 900000 1.9814 5.8990 7.5392 0.0000 -10703.3262 1464.0038 0.0000 0.0000 1809.0340 -7414.8688 310.9641 -9223.9028 -7425.4897 302.7344 381.2732 439.8322 29863.5572 67.4077 138.0815
ENERGY: 1200000 2.9016 3.6579 8.3024 0.0000 -10482.1486 1388.4272 0.0000 0.0000 1756.0046 -7322.8550 301.8486 -9078.8595 -7429.1740 301.2390 201.0252 216.8643 30065.8508 -6.7184 65.9686
ENERGY: 1500000 2.5468 6.1968 8.1671 0.0000 -10675.8293 1443.2283 0.0000 0.0000 1778.4367 -7437.2536 305.7045 -9215.6903 -7430.5504 301.1072 91.1585 123.3848 29722.7065 -64.2075 5.7744
TCL: Running FEP window  14: Lambda1 0.34999999999999964 Lambda2 0.29999999999999966 [dLambda -0.04999999999999999]
TCL: Setting parameter firsttimestep to 0
TCL: Setting parameter alchLambda to 0.34999999999999964
Info: NONBONDED TABLE R-SQUARED SPACING: 0.0625
Info: NONBONDED TABLE SIZE: 705 POINTS
TCL: Setting parameter alchLambda2 to 0.29999999999999966
Info: NONBONDED TABLE R-SQUARED SPACING: 0.0625
Info: NONBONDED TABLE SIZE: 705 POINTS
TCL: Running for 1500000 steps
ETITLE: TS BOND ANGLE DIHED IMPRP ELECT VDW BOUNDARY MISC KINETIC TOTAL TEMP POTENTIAL TOTALAVG TEMPAVG PRESSURE GPRESSURE VOLUME PRESSAVG GPRESSAVG
ENERGY: 0 2.5468 6.1968 8.1671 0.0000 -10675.8279 1443.5293 0.0000 0.0000 1777.6303 -7437.7576 305.5659 -9215.3879 -7437.7576 305.5659 42.1284 119.4707 29722.7065 42.1284 119.4707
ENERGY: 300000 2.5170 6.9220 5.3674 0.0000 -10579.9979 1420.4647 0.0000 0.0000 1732.2107 -7412.5161 297.7585 -9144.7268 -7422.0901 301.6605 179.3283 217.2316 29790.1726 -40.5686 4.8563
ENERGY: 600000 2.0997 6.4633 7.0938 0.0000 -10709.2733 1486.7698 0.0000 0.0000 1779.5292 -7427.3175 305.8923 -9206.8467 -7423.8084 303.6993 379.3923 490.1853 29844.1663 43.2339 107.6294
ENERGY: 900000 2.5221 4.6104 6.8997 0.0000 -10618.3986 1415.3031 0.0000 0.0000 1728.0145 -7461.0488 297.0372 -9189.0633 -7437.3928 301.5082 -248.9333 -257.9654 29999.5250 48.7745 110.2845
ENERGY: 1200000 5.1344 3.4696 9.8871 0.0000 -10610.5009 1446.4138 0.0000 0.0000 1772.1932 -7373.4029 304.6313 -9145.5960 -7432.5787 301.8767 323.8685 331.0243 29898.0797 88.7135 150.9230
ENERGY: 1500000 3.7416 6.4401 7.5552 0.0000 -10606.8966 1423.5433 0.0000 0.0000 1765.8074 -7399.8090 303.5336 -9165.6164 -7420.7982 302.6298 58.6320 97.3556 29905.5992 82.6970 144.9082
TCL: Running FEP window  15: Lambda1 0.29999999999999966 Lambda2 0.24999999999999967 [dLambda -0.04999999999999999]
TCL: Setting parameter firsttimestep to 0
TCL: Setting parameter alchLambda to 0.29999999999999966
Info: NONBONDED TABLE R-SQUARED SPACING: 0.0625
Info: NONBONDED TABLE SIZE: 705 POINTS
TCL: Setting parameter alchLambda2 to 0.24999999999999967
Info: NONBONDED TABLE R-SQUARED SPACING: 0.0625
Info: NONBONDED TABLE SIZE: 705 POINTS
TCL: Running for 1500000 steps
ETITLE: TS BOND ANGLE DIHED IMPRP ELECT VDW BOUNDARY MISC KINETIC TOTAL TEMP POTENTIAL TOTALAVG TEMPAVG PRESSURE GPRESSURE VOLUME PRESSAVG GPRESSAVG
ENERGY: 0 3.7416 6.4401 7.5552 0.0000 -10606.8953 1422.7253 0.0000 0.0000 1764.9699 -7401.4632 303.3897 -9166.4331 -7401.4632 303.3897 -6.2715 85.7948 29905.5992 -6.2715 85.7948
ENERGY: 300000 2.5371 3.4838 11.1639 0.0000 -10669.5130 1506.2657 0.0000 0.0000 1683.9601 -7462.1025 289.4645 -9146.0625 -7392.4301 305.1786 413.0616 509.9145 30184.9712 -70.8942 7.3612
ENERGY: 600000 3.1954 4.9820 8.6599 0.0000 -10652.2357 1480.2858 0.0000 0.0000 1725.2643 -7429.8482 296.5645 -9155.1125 -7407.8422 302.9690 334.7912 388.9554 30128.0859 11.0751 80.8000
ENERGY: 900000 3.4426 5.6776 10.8061 0.0000 -10646.2695 1449.7326 0.0000 0.0000 1792.1805 -7384.4301 308.0670 -9176.6106 -7412.5624 302.3813 -2.5436 101.5991 30087.6091 160.4787 239.2930
ENERGY: 1200000 4.3265 6.3739 5.6284 0.0000 -10547.9930 1376.6140 0.0000 0.0000 1728.9547 -7426.0956 297.1988 -9155.0503 -7418.3976 300.8140 -568.6033 -549.3405 30212.2803 167.0136 232.7484
ENERGY: 1500000 3.8394 9.9984 10.0564 0.0000 -10593.9215 1409.0038 0.0000 0.0000 1767.8686 -7393.1548 303.8879 -9161.0234 -7420.6839 300.8698 14.3388 -3.6962 30176.0531 128.4582 187.8551
TCL: Running FEP window  16: Lambda1 0.24999999999999967 Lambda2 0.19999999999999968 [dLambda -0.04999999999999999]
TCL: Setting parameter firsttimestep to 0
TCL: Setting parameter alchLambda to 0.24999999999999967
Info: NONBONDED TABLE R-SQUARED SPACING: 0.0625
Info: NONBONDED TABLE SIZE: 705 POINTS
TCL: Setting parameter alchLambda2 to 0.19999999999999968
Info: NONBONDED TABLE R-SQUARED SPACING: 0.0625
Info: NONBONDED TABLE SIZE: 705 POINTS
TCL: Running for 1500000 steps
ETITLE: TS BOND ANGLE DIHED IMPRP ELECT VDW BOUNDARY MISC KINETIC TOTAL TEMP POTENTIAL TOTALAVG TEMPAVG PRESSURE GPRESSURE VOLUME PRESSAVG GPRESSAVG
ENERGY: 0 3.8394 9.9984 10.0564 0.0000 -10593.9231 1409.2768 0.0000 0.0000 1767.0177 -7393.7344 303.7417 -9160.7521 -7393.7344 303.7417 -74.5905 -3.7103 30176.0531 -74.5905 -3.7103
ENERGY: 300000 5.4827 8.2471 6.0278 0.0000 -10576.4175 1308.1449 0.0000 0.0000 1803.0956 -7445.4193 309.9433 -9248.5149 -7425.1985 303.3861 -1127.5455 -1057.8897 29912.2676 -525.7057 -456.7839
ENERGY: 600000 2.3450 5.4796 10.3250 0.0000 -10447.9960 1341.4916 0.0000 0.0000 1758.3685 -7329.9862 302.2549 -9088.3548 -7406.0218 304.0409 -400.3280 -324.6031 30300.9505 -437.2400 -348.6934
ENERGY: 900000 3.1259 4.3440 11.6069 0.0000 -10576.4685 1409.1995 0.0000 0.0000 1749.0008 -7399.1915 300.6447 -9148.1922 -7404.3566 302.8610 -155.7227 -82.7018 30059.0636 -440.5027 -361.6584
ENERGY: 1200000 3.8057 5.2438 7.3948 0.0000 -10593.7247 1396.8772 0.0000 0.0000 1708.9336 -7471.4696 293.7573 -9180.4032 -7410.9194 301.5581 -887.3244 -803.7606 30909.5864 -344.9191 -269.5537
ENERGY: 1500000 1.6710 9.9521 7.7861 0.0000 -10637.9623 1460.1151 0.0000 0.0000 1734.3084 -7424.1295 298.1191 -9158.4380 -7407.6434 301.6144 111.7228 139.0266 30567.5969 -339.2212 -265.8869
TCL: Running FEP window  17: Lambda1 0.19999999999999968 Lambda2 0.1499999999999997 [dLambda -0.04999999999999999]
TCL: Setting parameter firsttimestep to 0
TCL: Setting parameter alchLambda to 0.19999999999999968
Info: NONBONDED TABLE R-SQUARED SPACING: 0.0625
Info: NONBONDED TABLE SIZE: 705 POINTS
TCL: Setting parameter alchLambda2 to 0.1499999999999997
Info: NONBONDED TABLE R-SQUARED SPACING: 0.0625
Info: NONBONDED TABLE SIZE: 705 POINTS
TCL: Running for 1500000 steps
ETITLE: TS BOND ANGLE DIHED IMPRP ELECT VDW BOUNDARY MISC KINETIC TOTAL TEMP POTENTIAL TOTALAVG TEMPAVG PRESSURE GPRESSURE VOLUME PRESSAVG GPRESSAVG
ENERGY: 0 1.6710 9.9521 7.7861 0.0000 -10637.9625 1460.4019 0.0000 0.0000 1733.4360 -7424.7154 297.9691 -9158.1514 -7424.7154 297.9691 61.5159 139.1867 30567.5969 61.5159 139.1867
ENERGY: 300000 3.9689 3.6129 8.7178 0.0000 -10682.1603 1404.8502 0.0000 0.0000 1710.3125 -7550.6980 293.9943 -9261.0105 -7461.4097 297.9617 -402.9402 -350.2984 29955.6111 48.7531 121.2484
ENERGY: 600000 3.8153 6.1350 7.1611 0.0000 -10639.3753 1468.1792 0.0000 0.0000 1810.3472 -7343.7376 311.1898 -9154.0848 -7438.9317 301.7895 300.5985 350.9304 30098.9083 77.4762 141.6662
ENERGY: 900000 5.5344 7.3046 7.0823 0.0000 -10439.4911 1294.5119 0.0000 0.0000 1719.9046 -7405.1533 295.6432 -9125.0579 -7429.6189 300.5847 -935.0829 -893.5292 30385.6265 -80.2450 -18.9307
ENERGY: 1200000 2.7149 6.0923 7.1618 0.0000 -10652.0846 1484.5913 0.0000 0.0000 1757.4509 -7394.0733 302.0972 -9151.5242 -7424.0800 300.7507 467.6644 575.7933 30080.0822 -81.2569 -11.8285
ENERGY: 1500000 4.0782 6.3222 9.9761 0.0000 -10546.6261 1451.6327 0.0000 0.0000 1630.9846 -7443.6323 280.3582 -9074.6169 -7427.4399 299.4718 -246.4912 -180.8297 30734.2683 -125.5751 -56.5471
TCL: Running FEP window  18: Lambda1 0.1499999999999997 Lambda2 0.09999999999999969 [dLambda -0.05 ]
TCL: Setting parameter firsttimestep to 0
TCL: Setting parameter alchLambda to 0.1499999999999997
Info: NONBONDED TABLE R-SQUARED SPACING: 0.0625
Info: NONBONDED TABLE SIZE: 705 POINTS
TCL: Setting parameter alchLambda2 to 0.09999999999999969
Info: NONBONDED TABLE R-SQUARED SPACING: 0.0625
Info: NONBONDED TABLE SIZE: 705 POINTS
TCL: Running for 1500000 steps
ETITLE: TS BOND ANGLE DIHED IMPRP ELECT VDW BOUNDARY MISC KINETIC TOTAL TEMP POTENTIAL TOTALAVG TEMPAVG PRESSURE GPRESSURE VOLUME PRESSAVG GPRESSAVG
ENERGY: 0 4.0782 6.3222 9.9761 0.0000 -10546.6251 1451.0790 0.0000 0.0000 1630.1409 -7445.0288 280.2132 -9075.1697 -7445.0288 280.2132 -272.6992 -188.2458 30734.2683 -272.6992 -188.2458
ENERGY: 300000 1.3692 5.6002 7.2390 0.0000 -10687.2680 1470.6328 0.0000 0.0000 1758.7453 -7443.6816 302.3197 -9202.4269 -7461.7131 296.1046 271.0594 334.0598 30105.7181 112.0045 179.0223
ENERGY: 600000 1.8556 5.3819 7.2200 0.0000 -10644.2111 1450.0483 0.0000 0.0000 1770.1790 -7409.5264 304.2851 -9179.7054 -7453.9148 296.7251 497.6329 560.1054 29519.7302 130.4413 196.2880
ENERGY: 900000 4.9387 4.8794 11.8904 0.0000 -10658.1285 1460.0025 0.0000 0.0000 1711.8832 -7464.5343 294.2643 -9176.4175 -7465.2895 297.6628 171.6332 219.9528 29725.0858 131.1840 182.6983
ENERGY: 1200000 2.3727 3.6301 9.1621 0.0000 -10637.4616 1483.1021 0.0000 0.0000 1752.9268 -7386.2678 301.3195 -9139.1945 -7439.5277 298.9126 658.6186 672.2537 30129.9115 102.7808 157.3328
ENERGY: 1500000 3.8751 4.6587 7.2729 0.0000 -10606.8132 1411.1506 0.0000 0.0000 1700.5673 -7479.2885 292.3192 -9179.8558 -7438.2856 298.3043 -272.1045 -229.1421 30261.4279 79.1824 140.1825
TCL: Running FEP window  19: Lambda1 0.09999999999999969 Lambda2 0.049999999999999684 [dLambda -0.05 ]
TCL: Setting parameter firsttimestep to 0
TCL: Setting parameter alchLambda to 0.09999999999999969
Info: NONBONDED TABLE R-SQUARED SPACING: 0.0625
Info: NONBONDED TABLE SIZE: 705 POINTS
TCL: Setting parameter alchLambda2 to 0.049999999999999684
Info: NONBONDED TABLE R-SQUARED SPACING: 0.0625
Info: NONBONDED TABLE SIZE: 705 POINTS
TCL: Running for 1500000 steps
ETITLE: TS BOND ANGLE DIHED IMPRP ELECT VDW BOUNDARY MISC KINETIC TOTAL TEMP POTENTIAL TOTALAVG TEMPAVG PRESSURE GPRESSURE VOLUME PRESSAVG GPRESSAVG
ENERGY: 0 3.8751 4.6587 7.2729 0.0000 -10606.8131 1410.5565 0.0000 0.0000 1699.7595 -7480.6905 292.1803 -9180.4500 -7480.6905 292.1803 -306.1756 -234.8388 30261.4279 -306.1756 -234.8388
ENERGY: 300000 2.8245 4.1700 6.3526 0.0000 -10703.8049 1505.1656 0.0000 0.0000 1773.6694 -7411.6229 304.8851 -9185.2922 -7457.7079 297.9307 599.7461 632.6799 30099.6154 -99.4323 -30.3397
ENERGY: 600000 2.8054 2.3706 6.3802 0.0000 -10690.6702 1513.1139 0.0000 0.0000 1756.9318 -7409.0683 302.0080 -9166.0001 -7422.2160 300.7798 733.0363 742.4277 30167.8255 9.7356 80.6046
ENERGY: 900000 3.1824 4.0965 11.9732 0.0000 -10480.3854 1308.4323 0.0000 0.0000 1745.7442 -7406.9568 300.0849 -9152.7010 -7423.9880 299.8754 -828.8864 -736.7965 29918.0439 -54.7982 9.9303
ENERGY: 1200000 2.7037 7.4388 8.6726 0.0000 -10668.8921 1448.9759 0.0000 0.0000 1740.0429 -7461.0582 299.1048 -9201.1011 -7437.5561 298.7902 -59.7630 -7.9796 30119.5851 -37.2781 31.0394
ENERGY: 1500000 6.6577 5.2132 9.0143 0.0000 -10525.8936 1391.2936 0.0000 0.0000 1788.9268 -7324.7880 307.5077 -9113.7148 -7441.1755 298.6469 127.5461 152.1411 29773.2414 -16.6295 48.8761
TCL: Running FEP window  20: Lambda1 0.049999999999999684 Lambda2 0.0    [dLambda -0.049999999999999684]
TCL: Setting parameter firsttimestep to 0
TCL: Setting parameter alchLambda to 0.049999999999999684
Info: NONBONDED TABLE R-SQUARED SPACING: 0.0625
Info: NONBONDED TABLE SIZE: 705 POINTS
TCL: Setting parameter alchLambda2 to 0.0
Info: NONBONDED TABLE R-SQUARED SPACING: 0.0625
Info: NONBONDED TABLE SIZE: 705 POINTS
TCL: Running for 1500000 steps
ETITLE: TS BOND ANGLE DIHED IMPRP ELECT VDW BOUNDARY MISC KINETIC TOTAL TEMP POTENTIAL TOTALAVG TEMPAVG PRESSURE GPRESSURE VOLUME PRESSAVG GPRESSAVG
ENERGY: 0 6.6577 5.2132 9.0143 0.0000 -10525.8959 1391.5896 0.0000 0.0000 1788.0238 -7325.3973 307.3525 -9113.4211 -7325.3973 307.3525 72.0587 152.6173 29773.2414 72.0587 152.6173
ENERGY: 300000 5.2223 4.4421 7.3656 0.0000 -10613.1707 1430.1442 0.0000 0.0000 1752.2664 -7413.7301 301.2060 -9165.9965 -7381.6826 302.4506 -111.7832 -82.6676 30377.3169 -76.6800 -20.9571
ENERGY: 600000 2.6229 8.2576 9.3599 0.0000 -10776.2109 1544.6963 0.0000 0.0000 1788.9872 -7422.2871 307.5181 -9211.2742 -7401.4938 303.0697 1109.4875 1179.6731 29265.2278 70.8190 132.1172
ENERGY: 900000 2.9948 6.3570 10.1717 0.0000 -10500.1765 1350.0335 0.0000 0.0000 1802.6323 -7327.9872 309.8636 -9130.6195 -7393.1369 303.9468 -581.8236 -518.7995 30264.0913 -124.1059 -57.3265
ENERGY: 1200000 3.3435 2.8242 6.9230 0.0000 -10613.6274 1367.6031 0.0000 0.0000 1817.1169 -7415.8165 312.3535 -9232.9335 -7396.5688 303.9213 -653.9257 -649.9937 29959.2838 -162.1157 -100.7328
ENERGY: 1500000 3.7111 4.8778 6.8304 0.0000 -10621.0847 1411.0952 0.0000 0.0000 1713.3839 -7481.1862 294.5223 -9194.5701 -7398.3803 303.3264 -491.9917 -423.4754 30397.3298 -231.3641 -167.7234
TCL: Exiting due to exit command.
