Info: SIMULATION PARAMETERS:
Info: TIMESTEP               2
Info: NUMBER OF STEPS        0
Info: STEPS PER CYCLE        10
Info: PERIODIC CELL BASIS 1  30.4339 0 0
Info: PERIODIC CELL BASIS 2  0 29.8423 0
Info: PERIODIC CELL BASIS 3  0 0 33.0923
Info: PERIODIC CELL CENTER   0 0 0
Info: WRAPPING WATERS AROUND PERIODIC BOUNDARIES ON OUTPUT.
Info: WRAPPING ALL CLUSTERS AROUND PERIODIC BOUNDARIES ON OUTPUT.
Info: FIRST LDB TIMESTEP     50
Info: LAST LDB TIMESTEP     -1
Info: HOM BACKGROUND SCALING 1
Info: PME BACKGROUND SCALING 1
Info: MIN ATOMS PER PATCH    40
Info: EMPTY PATCH LOAD       40 ATOMS
Info: VELOCITY FILE          mobley_2354112_equil.vel
Info: CENTER OF MASS MOVING INITIALLY? NO
Info: DIELECTRIC             1
Info: EXCLUDE                SCALED ONE-FOUR
Info: 1-4 ELECTROSTATICS SCALED BY 0.833333
Info: MODIFIED 1-4 VDW PARAMETERS WILL BE USED
Info: DCD FILENAME           mobley_2354112_prod.dcd
Info: DCD FREQUENCY          100000
Info: DCD FIRST STEP         100000
Info: DCD FILE WILL CONTAIN UNIT CELL DATA
Info: XST FILENAME           mobley_2354112_prod.xst
Info: XST FREQUENCY          100000
Info: NO VELOCITY DCD OUTPUT
Info: NO FORCE DCD OUTPUT
Info: OUTPUT FILENAME        mobley_2354112_prod
Info: BINARY OUTPUT FILES WILL BE USED
Info: RESTART FILENAME       mobley_2354112_prod.restart
Info: RESTART FREQUENCY      100000
Info: BINARY RESTART FILES WILL BE USED
Info: CUTOFF                 9
Info: PAIRLIST DISTANCE      11
Info: PAIRLIST SHRINK RATE   0.01
Info: PAIRLIST GROW RATE     0.01
Info: PAIRLIST TRIGGER       0.3
Info: PAIRLISTS PER CYCLE    2
Info: PAIRLISTS ENABLED
Info: MARGIN                 2
Info: HYDROGEN GROUP CUTOFF  2.5
Info: PATCH DIMENSION        15.5
Info: ENERGY OUTPUT STEPS    100000
Info: ENERGY EVALUATION STEPS    100000
Info: OUTPUT ENERGY PRECISION 4
Info: CROSSTERM ENERGY INCLUDED IN DIHEDRAL
Info: TIMING OUTPUT STEPS    1000000
Info: PRESSURE OUTPUT STEPS  100000
Info: ALCHEMICAL FEP ON
Info: FEP CURRENT LAMBDA VALUE     1
Info: FEP COMPARISON LAMBDA VALUE  0.95
Info: FEP INTRA-ALCHEMICAL NON-BONDED INTERACTIONS WILL BE RETAINED
Info: FEP INTRA-ALCHEMICAL BONDED INTERACTIONS WILL BE RETAINED
Info: FEP VDW SHIFTING COEFFICIENT 5
Info: FEP ELEC. ACTIVE FOR ANNIHILATED PARTICLES BETWEEN LAMBDA = 0 AND LAMBDA = 0.5
Info: FEP ELEC. ACTIVE FOR EXNIHILATED PARTICLES BETWEEN LAMBDA = 0.5 AND LAMBDA = 1
Info: FEP VDW ACTIVE FOR ANNIHILATED PARTICLES BETWEEN LAMBDA = 0 AND LAMBDA = 1
Info: FEP VDW ACTIVE FOR EXNIHILATED PARTICLES BETWEEN LAMBDA = 0 AND LAMBDA = 1
Info: FEP BOND ACTIVE FOR ANNIHILATED PARTICLES BETWEEN LAMBDA = 1 AND LAMBDA = 1
Info: FEP BOND ACTIVE FOR EXNIHILATED PARTICLES BETWEEN LAMBDA = 0 AND LAMBDA = 0
Info: LANGEVIN DYNAMICS ACTIVE
Info: LANGEVIN TEMPERATURE   300
Info: LANGEVIN USING BBK INTEGRATOR
Info: LANGEVIN DAMPING COEFFICIENT IS 1 INVERSE PS
Info: LANGEVIN DYNAMICS APPLIED TO HYDROGENS
Info: LANGEVIN PISTON PRESSURE CONTROL ACTIVE
Info:        TARGET PRESSURE IS 1.01325 BAR
Info:     OSCILLATION PERIOD IS 50 FS
Info:             DECAY TIME IS 25 FS
Info:     PISTON TEMPERATURE IS 300 K
Info:       PRESSURE CONTROL IS GROUP-BASED
Info:    INITIAL STRAIN RATE IS -0.000239696 -0.000239696 -0.000239696
Info:       CELL FLUCTUATION IS ISOTROPIC
Info: PARTICLE MESH EWALD (PME) ACTIVE
Info: PME TOLERANCE               1e-06
Info: PME EWALD COEFFICIENT       0.348832
Info: PME INTERPOLATION ORDER     4
Info: PME GRID DIMENSIONS         32 32 36
Info: PME MAXIMUM GRID SPACING    1
Info: PME CALCULATION WILL BE PERFORMED ON GPU
Info: FULL ELECTROSTATIC EVALUATION FREQUENCY      2
Info: USING VERLET I (r-RESPA) MTS SCHEME.
Info: C1 SPLITTING OF LONG RANGE ELECTROSTATICS
Info: PLACING ATOMS IN PATCHES BY HYDROGEN GROUPS
Info: RIGID BONDS TO HYDROGEN : ALL
Info:         ERROR TOLERANCE : 1e-08
Info:          MAX ITERATIONS : 100
Info: RIGID WATER USING SETTLE ALGORITHM
Info: RANDOM NUMBER SEED     1743779007
Info: USE HYDROGEN BONDS?    NO
Info: Using AMBER format force field!
Info: AMBER PARM FILE        mobley_2354112.prmtop
Info: COORDINATE PDB         mobley_2354112.pdb
Info: Exclusions will be read from PARM file!
Info: SCNB (VDW SCALING)     2
Info: USING ARITHMETIC MEAN TO COMBINE L-J SIGMA PARAMETERS
Info: BINARY COORDINATES     mobley_2354112_equil.coor
Info: SUMMARY OF PARAMETERS:
Info: 9 BONDS
Info: 9 ANGLES
Info:   9 HARMONIC
Info:   0 COSINE-BASED
Info: 6 DIHEDRAL
Info: 0 IMPROPER
Info: 0 CROSSTERM
Info: 0 VDW
Info: 28 VDW_PAIRS
Info: 0 NBTHOLE_PAIRS
Info: To read alchdata from file: mobley_2354112.pdb
Info: To read alchflag data from column: 5
Info: STRUCTURE SUMMARY:
Info: 2911 ATOMS
Info: 2911 BONDS
Info: 31 ANGLES
Info: 47 DIHEDRALS
Info: 0 IMPROPERS
Info: 0 CROSSTERMS
Info: 2980 EXCLUSIONS
Info: 2902 RIGID BONDS
Info: ALCH: 0 ATOMS TO DISAPPEAR IN FINAL STATE
Info: ALCH: 19 ATOMS TO APPEAR IN FINAL STATE
Info: 5831 DEGREES OF FREEDOM
Info: 973 HYDROGEN GROUPS
Info: 4 ATOMS IN LARGEST HYDROGEN GROUP
Info: 973 MIGRATION GROUPS
Info: 4 ATOMS IN LARGEST MIGRATION GROUP
Info: TOTAL MASS = 17489.6 amu
Info: TOTAL CHARGE = -9.99719e-05 e
Info: MASS DENSITY = 0.966322 g/cm^3
Info: ATOM DENSITY = 0.0968558 atoms/A^3
Info: ADDED 0 IMPLICIT EXCLUSIONS
Info: NONBONDED TABLE R-SQUARED SPACING: 0.0625
Info: NONBONDED TABLE SIZE: 705 POINTS
Info: REMOVING COM VELOCITY -0.160593 0.177554 0.168772
Info: Use 3D box decompostion in PME FFT.
Info: Updated CUDA force table with 4096 elements.
Info: Updated CUDA LJ table with 7 x 7 elements.
Info: Found 20 unique exclusion lists needing 56 bytes
TCL: Running for 1500000 steps
ETITLE: TS BOND ANGLE DIHED IMPRP ELECT VDW BOUNDARY MISC KINETIC TOTAL TEMP POTENTIAL TOTALAVG TEMPAVG PRESSURE GPRESSURE VOLUME PRESSAVG GPRESSAVG
ENERGY: 0 3.3772 8.3839 4.6461 0.0000 -10626.9745 1460.8056 0.0000 0.0000 1746.0992 -7403.6625 301.3813 -9149.7618 -7403.6625 301.3813 233.9235 327.9490 30055.0008 233.9235 327.9490
ENERGY: 300000 3.7380 5.8872 1.2699 0.0000 -10510.9963 1396.1616 0.0000 0.0000 1735.5847 -7368.3549 299.5664 -9103.9395 -7424.0200 296.0857 -119.3412 -80.7262 29944.2285 -13.8117 60.9284
ENERGY: 600000 2.4878 7.5779 1.7594 0.0000 -10602.7042 1400.9920 0.0000 0.0000 1713.1554 -7476.7318 295.6951 -9189.8872 -7415.2506 296.7345 -413.1944 -314.3231 30031.6130 -117.9062 -29.9149
ENERGY: 900000 1.8963 7.8413 5.9203 0.0000 -10529.2492 1380.3461 0.0000 0.0000 1712.9106 -7420.3345 295.6528 -9133.2451 -7410.6474 298.0814 -277.7556 -210.0822 29846.4897 -106.8907 -26.9780
ENERGY: 1200000 4.6131 9.4066 2.0025 0.0000 -10398.7434 1293.7127 0.0000 0.0000 1721.0228 -7367.9857 297.0530 -9089.0085 -7406.6989 299.0263 -1117.7884 -1027.9646 30293.5011 -201.6857 -134.2874
ENERGY: 1500000 3.4281 5.0869 4.2889 0.0000 -10523.7534 1404.0293 0.0000 0.0000 1689.7781 -7417.1421 291.6601 -9106.9202 -7407.5332 298.8254 -211.3035 -53.5322 30010.4805 -167.0418 -92.2981
TCL: Running FEP window   2: Lambda1 0.95   Lambda2 0.8999999999999999 [dLambda -0.050000000000000044]
TCL: Setting parameter firsttimestep to 0
TCL: Setting parameter alchLambda to 0.95
Info: NONBONDED TABLE R-SQUARED SPACING: 0.0625
Info: NONBONDED TABLE SIZE: 705 POINTS
TCL: Setting parameter alchLambda2 to 0.8999999999999999
Info: NONBONDED TABLE R-SQUARED SPACING: 0.0625
Info: NONBONDED TABLE SIZE: 705 POINTS
TCL: Running for 1500000 steps
ETITLE: TS BOND ANGLE DIHED IMPRP ELECT VDW BOUNDARY MISC KINETIC TOTAL TEMP POTENTIAL TOTALAVG TEMPAVG PRESSURE GPRESSURE VOLUME PRESSAVG GPRESSAVG
ENERGY: 0 3.4281 5.0869 4.2889 0.0000 -10522.3315 1404.2603 0.0000 0.0000 1688.9228 -7416.3445 291.5125 -9105.2673 -7416.3445 291.5125 -150.3760 -65.5825 30010.4805 -150.3760 -65.5825
ENERGY: 300000 1.7389 3.3218 3.6688 0.0000 -10546.0135 1433.0652 0.0000 0.0000 1824.9742 -7279.2446 314.9953 -9104.2188 -7415.3359 299.5951 351.2667 374.5704 29980.5116 -67.9743 -12.8781
ENERGY: 600000 1.5169 6.9884 3.7583 0.0000 -10366.1666 1253.8572 0.0000 0.0000 1787.1723 -7312.8735 308.4706 -9100.0458 -7405.5058 299.6672 -1136.1276 -1059.7498 29911.7963 -398.9525 -333.2324
ENERGY: 900000 5.4369 6.4452 3.9574 0.0000 -10449.7391 1400.4754 0.0000 0.0000 1772.2177 -7261.2064 305.8894 -9033.4242 -7406.6838 298.7500 149.3791 222.3872 29828.8483 -330.1437 -261.7599
ENERGY: 1200000 2.1861 4.5872 2.2399 0.0000 -10327.1359 1271.1838 0.0000 0.0000 1752.7973 -7294.1417 302.5374 -9046.9390 -7391.3865 298.9065 -906.2824 -824.7470 30331.1870 -348.1645 -281.1238
ENERGY: 1500000 1.2727 7.8501 4.3268 0.0000 -10485.9435 1396.6444 0.0000 0.0000 1738.4658 -7337.3837 300.0637 -9075.8495 -7380.9146 298.9442 -240.1696 -137.9007 30168.6089 -294.5938 -227.3653
TCL: Running FEP window   3: Lambda1 0.8999999999999999 Lambda2 0.8499999999999999 [dLambda -0.050000000000000044]
TCL: Setting parameter firsttimestep to 0
TCL: Setting parameter alchLambda to 0.8999999999999999
Info: NONBONDED TABLE R-SQUARED SPACING: 0.0625
Info: NONBONDED TABLE SIZE: 705 POINTS
TCL: Setting parameter alchLambda2 to 0.8499999999999999
Info: NONBONDED TABLE R-SQUARED SPACING: 0.0625
Info: NONBONDED TABLE SIZE: 705 POINTS
TCL: Running for 1500000 steps
ETITLE: TS BOND ANGLE DIHED IMPRP ELECT VDW BOUNDARY MISC KINETIC TOTAL TEMP POTENTIAL TOTALAVG TEMPAVG PRESSURE GPRESSURE VOLUME PRESSAVG GPRESSAVG
ENERGY: 0 1.2727 7.8501 4.3268 0.0000 -10484.4578 1395.9618 0.0000 0.0000 1737.6211 -7337.4253 299.9179 -9075.0464 -7337.4253 299.9179 -246.7190 -155.2504 30168.6089 -246.7190 -155.2504
ENERGY: 300000 2.7568 6.7751 3.6474 0.0000 -10514.8934 1384.8209 0.0000 0.0000 1728.0220 -7388.8712 298.2611 -9116.8932 -7333.0776 303.2743 -443.0061 -435.5663 30371.5425 75.6819 120.3632
ENERGY: 600000 0.9273 6.5359 4.7310 0.0000 -10507.4393 1375.3176 0.0000 0.0000 1705.1056 -7414.8219 294.3057 -9119.9275 -7374.4915 300.4761 -182.6362 -103.1423 29857.7146 109.6241 157.1898
ENERGY: 900000 3.3355 6.2790 1.6922 0.0000 -10632.4035 1489.3858 0.0000 0.0000 1666.3518 -7465.3592 287.6167 -9131.7110 -7384.1446 299.7717 289.6979 367.4950 30348.7249 67.2148 113.8480
ENERGY: 1200000 2.5448 4.8751 4.6306 0.0000 -10480.4558 1380.9857 0.0000 0.0000 1775.6274 -7311.7922 306.4779 -9087.4196 -7386.6212 300.0647 -351.2018 -286.4049 30320.4264 26.1765 69.3868
ENERGY: 1500000 3.6381 8.1884 3.6379 0.0000 -10557.4069 1459.3372 0.0000 0.0000 1716.5427 -7366.0625 296.2797 -9082.6053 -7386.4170 299.8486 214.4011 340.7751 30381.8013 78.7572 125.3890
TCL: Running FEP window   4: Lambda1 0.8499999999999999 Lambda2 0.7999999999999998 [dLambda -0.050000000000000044]
TCL: Setting parameter firsttimestep to 0
TCL: Setting parameter alchLambda to 0.8499999999999999
Info: NONBONDED TABLE R-SQUARED SPACING: 0.0625
Info: NONBONDED TABLE SIZE: 705 POINTS
TCL: Setting parameter alchLambda2 to 0.7999999999999998
Info: NONBONDED TABLE R-SQUARED SPACING: 0.0625
Info: NONBONDED TABLE SIZE: 705 POINTS
TCL: Running for 1500000 steps
ETITLE: TS BOND ANGLE DIHED IMPRP ELECT VDW BOUNDARY MISC KINETIC TOTAL TEMP POTENTIAL TOTALAVG TEMPAVG PRESSURE GPRESSURE VOLUME PRESSAVG GPRESSAVG
ENERGY: 0 3.6381 8.1884 3.6379 0.0000 -10556.0047 1459.4169 0.0000 0.0000 1715.6660 -7365.4573 296.1284 -9081.1233 -7365.4573 296.1284 239.8961 332.1035 30381.8013 239.8961 332.1035
ENERGY: 300000 1.9500 6.1722 2.1556 0.0000 -10633.4393 1440.6954 0.0000 0.0000 1704.9007 -7477.5655 294.2703 -9182.4662 -7384.9584 299.6281 -26.4802 79.6084 29974.2080 156.5258 217.5657
ENERGY: 600000 1.2408 4.9370 5.4556 0.0000 -10495.5001 1389.1579 0.0000 0.0000 1799.2798 -7295.4290 310.5604 -9094.7088 -7367.9689 301.8333 -26.7385 4.5619 29998.7502 183.3069 231.2104
ENERGY: 900000 5.3335 5.2951 2.7038 0.0000 -10574.8625 1366.7567 0.0000 0.0000 1754.2254 -7440.5481 302.7839 -9194.7735 -7377.8234 300.8860 -533.0302 -502.2341 29854.3246 8.5734 61.7585
ENERGY: 1200000 0.3653 9.9277 0.8967 0.0000 -10525.9191 1445.8349 0.0000 0.0000 1764.0169 -7304.8776 304.4739 -9068.8945 -7368.2110 301.3069 316.2333 350.9804 30271.2115 39.1231 96.4389
ENERGY: 1500000 2.5206 6.3131 2.2607 0.0000 -10547.8954 1404.8050 0.0000 0.0000 1754.1961 -7377.7999 302.7788 -9131.9960 -7376.2392 300.6672 -134.6957 -140.6298 30225.0117 53.9441 116.5854
TCL: Running FEP window   5: Lambda1 0.7999999999999998 Lambda2 0.7499999999999998 [dLambda -0.050000000000000044]
TCL: Setting parameter firsttimestep to 0
TCL: Setting parameter alchLambda to 0.7999999999999998
Info: NONBONDED TABLE R-SQUARED SPACING: 0.0625
Info: NONBONDED TABLE SIZE: 705 POINTS
TCL: Setting parameter alchLambda2 to 0.7499999999999998
Info: NONBONDED TABLE R-SQUARED SPACING: 0.0625
Info: NONBONDED TABLE SIZE: 705 POINTS
TCL: Running for 1500000 steps
ETITLE: TS BOND ANGLE DIHED IMPRP ELECT VDW BOUNDARY MISC KINETIC TOTAL TEMP POTENTIAL TOTALAVG TEMPAVG PRESSURE GPRESSURE VOLUME PRESSAVG GPRESSAVG
ENERGY: 0 2.5206 6.3131 2.2607 0.0000 -10546.8984 1404.7826 0.0000 0.0000 1753.3586 -7377.6627 302.6343 -9131.0214 -7377.6627 302.6343 -242.3470 -149.1636 30225.0117 -242.3470 -149.1636
ENERGY: 300000 3.3381 6.6279 4.8620 0.0000 -10592.9225 1375.5751 0.0000 0.0000 1732.5835 -7469.9359 299.0484 -9202.5194 -7363.8537 303.2291 -471.4666 -370.2060 29908.8834 -248.8529 -144.1909
ENERGY: 600000 3.6025 5.3699 5.4995 0.0000 -10698.2155 1472.1401 0.0000 0.0000 1694.1965 -7517.4071 292.4227 -9211.6035 -7397.6653 300.7705 -67.5530 -14.0647 30010.0890 -184.8153 -96.1311
ENERGY: 900000 2.0444 7.8003 2.5680 0.0000 -10592.1185 1432.1826 0.0000 0.0000 1782.7493 -7364.7740 307.7072 -9147.5232 -7402.9632 300.5447 79.8419 139.3426 30090.9157 -204.1311 -126.9921
ENERGY: 1200000 2.6812 3.6002 1.0082 0.0000 -10612.5980 1427.5024 0.0000 0.0000 1784.1711 -7393.6348 307.9526 -9177.8059 -7391.3852 301.5578 -7.5514 47.8291 29849.5159 -153.9083 -84.9609
ENERGY: 1500000 3.1397 6.6757 4.0335 0.0000 -10538.9645 1399.7755 0.0000 0.0000 1730.5747 -7394.7654 298.7017 -9125.3401 -7394.7910 299.8710 -173.4913 -158.4761 30023.7802 -153.4463 -81.6555
TCL: Running FEP window   6: Lambda1 0.7499999999999998 Lambda2 0.6999999999999997 [dLambda -0.050000000000000044]
TCL: Setting parameter firsttimestep to 0
TCL: Setting parameter alchLambda to 0.7499999999999998
Info: NONBONDED TABLE R-SQUARED SPACING: 0.0625
Info: NONBONDED TABLE SIZE: 705 POINTS
TCL: Setting parameter alchLambda2 to 0.6999999999999997
Info: NONBONDED TABLE R-SQUARED SPACING: 0.0625
Info: NONBONDED TABLE SIZE: 705 POINTS
TCL: Running for 1500000 steps
ETITLE: TS BOND ANGLE DIHED IMPRP ELECT VDW BOUNDARY MISC KINETIC TOTAL TEMP POTENTIAL TOTALAVG TEMPAVG PRESSURE GPRESSURE VOLUME PRESSAVG GPRESSAVG
ENERGY: 0 3.1397 6.6757 4.0335 0.0000 -10538.3732 1400.2654 0.0000 0.0000 1729.6789 -7394.5801 298.5471 -9124.2590 -7394.5801 298.5471 -258.0740 -162.4976 30023.7802 -258.0740 -162.4976
ENERGY: 300000 2.1728 4.8103 3.2881 0.0000 -10540.2427 1447.1550 0.0000 0.0000 1730.1527 -7352.6638 298.6289 -9082.8165 -7384.0557 297.9286 519.0513 565.3069 29945.1702 117.2327 174.2133
ENERGY: 600000 1.5138 5.9260 2.0943 0.0000 -10635.3802 1434.9551 0.0000 0.0000 1767.2219 -7423.6691 305.0271 -9190.8911 -7381.7471 299.0014 -282.4055 -135.1054 30199.0751 -97.8397 -35.6790
ENERGY: 900000 1.9543 8.2397 4.2180 0.0000 -10496.3291 1392.9376 0.0000 0.0000 1736.7709 -7352.2087 299.7712 -9088.9796 -7383.0661 299.5738 14.7934 -1.7475 29939.7084 -55.2572 -4.7138
ENERGY: 1200000 4.1401 4.8005 2.7449 0.0000 -10642.9185 1432.9618 0.0000 0.0000 1735.7822 -7462.4890 299.6005 -9198.2711 -7397.5709 299.7294 -8.2974 38.7297 29711.1240 -125.0160 -74.4897
ENERGY: 1500000 4.7528 7.4618 2.8742 0.0000 -10550.2379 1442.2004 0.0000 0.0000 1740.7544 -7352.1943 300.4587 -9092.9487 -7391.9248 300.4540 705.4208 689.6557 29295.0878 -45.4255 1.0400
TCL: Running FEP window   7: Lambda1 0.6999999999999997 Lambda2 0.6499999999999997 [dLambda -0.050000000000000044]
TCL: Setting parameter firsttimestep to 0
TCL: Setting parameter alchLambda to 0.6999999999999997
Info: NONBONDED TABLE R-SQUARED SPACING: 0.0625
Info: NONBONDED TABLE SIZE: 705 POINTS
TCL: Setting parameter alchLambda2 to 0.6499999999999997
Info: NONBONDED TABLE R-SQUARED SPACING: 0.0625
Info: NONBONDED TABLE SIZE: 705 POINTS
TCL: Running for 1500000 steps
ETITLE: TS BOND ANGLE DIHED IMPRP ELECT VDW BOUNDARY MISC KINETIC TOTAL TEMP POTENTIAL TOTALAVG TEMPAVG PRESSURE GPRESSURE VOLUME PRESSAVG GPRESSAVG
ENERGY: 0 4.7528 7.4618 2.8742 0.0000 -10548.2624 1441.7864 0.0000 0.0000 1739.8935 -7351.4937 300.3102 -9091.3872 -7351.4937 300.3102 593.3179 679.0801 29295.0878 593.3179 679.0801
ENERGY: 300000 1.3440 5.4854 3.8981 0.0000 -10520.3979 1409.4376 0.0000 0.0000 1714.5929 -7385.6398 295.9432 -9100.2327 -7386.4021 301.1168 -328.3516 -251.0113 30386.1573 154.1203 227.1556
ENERGY: 600000 3.8625 4.0371 1.6809 0.0000 -10448.3800 1343.6045 0.0000 0.0000 1723.6011 -7371.5938 297.4980 -9095.1949 -7385.6611 300.2874 -518.5281 -467.7752 29817.2510 7.4787 72.0604
ENERGY: 900000 1.8021 5.5828 4.4525 0.0000 -10553.9613 1412.7363 0.0000 0.0000 1754.1870 -7375.2007 302.7772 -9129.3877 -7372.5429 301.3720 91.0118 108.4516 29736.1530 -18.9769 50.8771
ENERGY: 1200000 1.3081 4.0384 3.1545 0.0000 -10499.4852 1412.8186 0.0000 0.0000 1810.5697 -7267.5959 312.5090 -9078.1655 -7369.9975 302.8188 43.1938 65.1771 30476.6180 -20.3833 39.1670
ENERGY: 1500000 2.7449 16.5249 2.3085 0.0000 -10489.8113 1357.3761 0.0000 0.0000 1749.2979 -7361.5590 301.9334 -9110.8569 -7371.2254 301.7283 -542.3162 -513.1145 29962.2929 -81.9750 -29.6694
TCL: Running FEP window   8: Lambda1 0.6499999999999997 Lambda2 0.5999999999999996 [dLambda -0.050000000000000044]
TCL: Setting parameter firsttimestep to 0
TCL: Setting parameter alchLambda to 0.6499999999999997
Info: NONBONDED TABLE R-SQUARED SPACING: 0.0625
Info: NONBONDED TABLE SIZE: 705 POINTS
TCL: Setting parameter alchLambda2 to 0.5999999999999996
Info: NONBONDED TABLE R-SQUARED SPACING: 0.0625
Info: NONBONDED TABLE SIZE: 705 POINTS
TCL: Running for 1500000 steps
ETITLE: TS BOND ANGLE DIHED IMPRP ELECT VDW BOUNDARY MISC KINETIC TOTAL TEMP POTENTIAL TOTALAVG TEMPAVG PRESSURE GPRESSURE VOLUME PRESSAVG GPRESSAVG
ENERGY: 0 2.7449 16.5249 2.3085 0.0000 -10487.9927 1357.0137 0.0000 0.0000 1748.4961 -7360.9044 301.7950 -9109.4006 -7360.9044 301.7950 -597.5482 -520.7421 29962.2929 -597.5482 -520.7421
ENERGY: 300000 2.1846 6.4473 1.7352 0.0000 -10564.1748 1401.4975 0.0000 0.0000 1792.8866 -7359.4235 309.4569 -9152.3101 -7369.2208 301.7283 -181.8973 -58.8627 29704.4533 151.2891 217.0066
ENERGY: 600000 5.7968 6.5348 4.3735 0.0000 -10655.5848 1456.7448 0.0000 0.0000 1804.4403 -7377.6945 311.4511 -9182.1348 -7382.7773 301.7479 20.2580 171.5489 29710.1484 56.8260 108.6955
ENERGY: 900000 2.7317 5.5050 3.3398 0.0000 -10632.2272 1410.2956 0.0000 0.0000 1688.5840 -7521.7709 291.4540 -9210.3549 -7404.3102 300.7393 -318.9216 -250.1530 29515.1624 42.7876 101.5782
ENERGY: 1200000 2.4051 5.4923 4.7266 0.0000 -10403.8033 1343.2947 0.0000 0.0000 1793.8646 -7254.0199 309.6257 -9047.8845 -7384.2109 301.4827 -591.6964 -511.8850 30412.2406 -50.1778 12.8315
ENERGY: 1500000 4.9548 6.2929 4.9085 0.0000 -10556.2587 1407.2773 0.0000 0.0000 1757.0144 -7375.8109 303.2653 -9132.8252 -7385.1720 301.2104 -339.0241 -316.8579 30107.1898 -105.9403 -43.9680
TCL: Running FEP window   9: Lambda1 0.5999999999999996 Lambda2 0.5499999999999996 [dLambda -0.050000000000000044]
TCL: Setting parameter firsttimestep to 0
TCL: Setting parameter alchLambda to 0.5999999999999996
Info: NONBONDED TABLE R-SQUARED SPACING: 0.0625
Info: NONBONDED TABLE SIZE: 705 POINTS
TCL: Setting parameter alchLambda2 to 0.5499999999999996
Info: NONBONDED TABLE R-SQUARED SPACING: 0.0625
Info: NONBONDED TABLE SIZE: 705 POINTS
TCL: Running for 1500000 steps
ETITLE: TS BOND ANGLE DIHED IMPRP ELECT VDW BOUNDARY MISC KINETIC TOTAL TEMP POTENTIAL TOTALAVG TEMPAVG PRESSURE GPRESSURE VOLUME PRESSAVG GPRESSAVG
ENERGY: 0 4.9548 6.2929 4.9085 0.0000 -10555.0995 1406.3491 0.0000 0.0000 1756.1781 -7376.4161 303.1209 -9132.5942 -7376.4161 303.1209 -402.7798 -330.1313 30107.1898 -402.7798 -330.1313
ENERGY: 300000 2.3665 4.8499 1.7322 0.0000 -10535.0815 1397.2671 0.0000 0.0000 1765.9356 -7362.9301 304.8051 -9128.8657 -7375.6518 301.6509 -188.2485 -104.7501 29981.5466 -415.4068 -323.9330
ENERGY: 600000 4.5077 9.5137 3.2377 0.0000 -10589.4427 1459.4368 0.0000 0.0000 1715.2847 -7397.4620 296.0626 -9112.7468 -7379.1612 300.1771 395.4902 424.0150 29615.3573 -54.0412 3.3828
ENERGY: 900000 2.4795 9.1666 2.9397 0.0000 -10453.3619 1398.8829 0.0000 0.0000 1753.9126 -7285.9805 302.7299 -9039.8932 -7356.7697 300.5146 -200.5527 -201.9191 30618.1945 -76.1119 -18.8286
ENERGY: 1200000 0.9009 6.2220 1.2122 0.0000 -10438.9637 1333.6662 0.0000 0.0000 1738.3535 -7358.6089 300.0443 -9096.9625 -7361.0321 300.6073 -744.6055 -628.0490 30278.5984 -102.0236 -34.1247
ENERGY: 1500000 2.6807 4.2088 2.7320 0.0000 -10423.8424 1292.4733 0.0000 0.0000 1728.0152 -7393.7325 298.2599 -9121.7477 -7371.4607 300.0417 -1076.4623 -967.1952 29914.1567 -115.3831 -44.1225
TCL: Running FEP window  10: Lambda1 0.5499999999999996 Lambda2 0.4999999999999996 [dLambda -0.04999999999999999]
TCL: Setting parameter firsttimestep to 0
TCL: Setting parameter alchLambda to 0.5499999999999996
Info: NONBONDED TABLE R-SQUARED SPACING: 0.0625
Info: NONBONDED TABLE SIZE: 705 POINTS
TCL: Setting parameter alchLambda2 to 0.4999999999999996
Info: NONBONDED TABLE R-SQUARED SPACING: 0.0625
Info: NONBONDED TABLE SIZE: 705 POINTS
TCL: Running for 1500000 steps
ETITLE: TS BOND ANGLE DIHED IMPRP ELECT VDW BOUNDARY MISC KINETIC TOTAL TEMP POTENTIAL TOTALAVG TEMPAVG PRESSURE GPRESSURE VOLUME PRESSAVG GPRESSAVG
ENERGY: 0 2.6807 4.2088 2.7320 0.0000 -10423.5252 1292.5112 0.0000 0.0000 1727.1279 -7394.2648 298.1068 -9121.3926 -7394.2648 298.1068 -1071.4783 -972.1858 29914.1567 -1071.4783 -972.1858
ENERGY: 300000 4.5589 6.0738 4.3856 0.0000 -10681.3849 1511.7589 0.0000 0.0000 1759.6375 -7394.9702 303.7180 -9154.6076 -7390.3902 299.9092 699.2702 655.5328 29837.1024 -182.2492 -156.4341
ENERGY: 600000 4.5056 6.7766 3.6538 0.0000 -10500.0534 1384.4555 0.0000 0.0000 1754.7843 -7345.8776 302.8803 -9100.6619 -7397.8566 299.2835 -110.6563 -141.8197 30034.1801 11.1533 36.1278
ENERGY: 900000 6.3732 3.3273 1.9600 0.0000 -10561.8620 1420.6744 0.0000 0.0000 1711.2962 -7418.2310 295.3742 -9129.5271 -7395.9234 299.3085 -18.9289 11.6920 29698.6833 41.9279 77.2103
ENERGY: 1200000 2.6261 10.0312 4.8388 0.0000 -10552.8728 1425.5795 0.0000 0.0000 1688.2094 -7421.5878 291.3893 -9109.7971 -7394.5415 298.9502 23.9098 78.5090 30123.2573 31.2772 74.1818
ENERGY: 1500000 3.7974 6.5447 3.9254 0.0000 -10539.9209 1473.5494 0.0000 0.0000 1729.3914 -7322.7126 298.4975 -9052.1040 -7394.7766 298.7205 519.6341 551.3708 30099.9567 49.5752 92.8037
TCL: Running FEP window  11: Lambda1 0.4999999999999996 Lambda2 0.4499999999999996 [dLambda -0.04999999999999999]
TCL: Setting parameter firsttimestep to 0
TCL: Setting parameter alchLambda to 0.4999999999999996
Info: NONBONDED TABLE R-SQUARED SPACING: 0.0625
Info: NONBONDED TABLE SIZE: 705 POINTS
TCL: Setting parameter alchLambda2 to 0.4499999999999996
Info: NONBONDED TABLE R-SQUARED SPACING: 0.0625
Info: NONBONDED TABLE SIZE: 705 POINTS
TCL: Running for 1500000 steps
ETITLE: TS BOND ANGLE DIHED IMPRP ELECT VDW BOUNDARY MISC KINETIC TOTAL TEMP POTENTIAL TOTALAVG TEMPAVG PRESSURE GPRESSURE VOLUME PRESSAVG GPRESSAVG
ENERGY: 0 3.7974 6.5446 3.9254 0.0000 -10539.7139 1473.5044 0.0000 0.0000 1728.5069 -7323.4351 298.3448 -9051.9421 -7323.4351 298.3448 464.1736 543.8847 30099.9567 464.1736 543.8847
ENERGY: 300000 1.1885 2.9178 2.2690 0.0000 -10527.0039 1408.1365 0.0000 0.0000 1815.1817 -7297.3105 313.3051 -9112.4922 -7360.3628 299.4211 -193.4441 -104.4378 30213.4066 -156.4718 -81.1448
ENERGY: 600000 3.8635 6.2320 2.7511 0.0000 -10518.5811 1453.9878 0.0000 0.0000 1751.9648 -7299.7818 302.3937 -9051.7466 -7352.8626 299.7642 -63.9460 -4.0528 30645.5517 -208.4103 -144.0184
ENERGY: 900000 4.0040 5.5861 4.2467 0.0000 -10396.1869 1349.5432 0.0000 0.0000 1747.0220 -7285.7851 301.5405 -9032.8070 -7357.8246 299.7452 -213.8257 -231.6594 29800.7459 -114.2177 -66.9098
ENERGY: 1200000 5.0149 5.8681 2.7821 0.0000 -10581.5946 1509.8140 0.0000 0.0000 1761.9398 -7296.1756 304.1154 -9058.1154 -7348.6356 299.8086 901.0203 955.7683 29703.7409 -1.4682 51.1024
ENERGY: 1500000 1.8352 5.9688 1.7890 0.0000 -10534.9616 1415.8995 0.0000 0.0000 1748.4649 -7361.0043 301.7896 -9109.4692 -7349.2132 299.5389 51.4446 156.4668 29642.1957 14.9936 70.9781
TCL: Running FEP window  12: Lambda1 0.4499999999999996 Lambda2 0.39999999999999963 [dLambda -0.04999999999999999]
TCL: Setting parameter firsttimestep to 0
TCL: Setting parameter alchLambda to 0.4499999999999996
Info: NONBONDED TABLE R-SQUARED SPACING: 0.0625
Info: NONBONDED TABLE SIZE: 705 POINTS
TCL: Setting parameter alchLambda2 to 0.39999999999999963
Info: NONBONDED TABLE R-SQUARED SPACING: 0.0625
Info: NONBONDED TABLE SIZE: 705 POINTS
TCL: Running for 1500000 steps
ETITLE: TS BOND ANGLE DIHED IMPRP ELECT VDW BOUNDARY MISC KINETIC TOTAL TEMP POTENTIAL TOTALAVG TEMPAVG PRESSURE GPRESSURE VOLUME PRESSAVG GPRESSAVG
ENERGY: 0 1.8352 5.9688 1.7890 0.0000 -10534.9619 1416.0888 0.0000 0.0000 1747.5893 -7361.6909 301.6385 -9109.2802 -7361.6909 301.6385 55.6976 152.3945 29642.1957 55.6976 152.3945
ENERGY: 300000 2.1356 6.2525 2.5488 0.0000 -10595.3724 1423.4932 0.0000 0.0000 1772.3847 -7388.5576 305.9182 -9160.9423 -7363.9581 300.0201 -140.7436 -79.6650 29910.0004 -78.8554 -27.8022
ENERGY: 600000 1.7557 5.6273 4.9621 0.0000 -10617.4158 1473.0319 0.0000 0.0000 1719.4779 -7412.5608 296.7864 -9132.0387 -7371.6278 299.6279 349.6301 401.2635 29912.0276 123.8131 173.5553
ENERGY: 900000 2.6558 6.7081 4.5925 0.0000 -10409.9630 1344.3033 0.0000 0.0000 1733.7397 -7317.9636 299.2480 -9051.7033 -7377.9732 298.5147 -456.2036 -430.1778 30106.3919 -9.4720 39.4350
ENERGY: 1200000 5.6221 7.9410 2.4728 0.0000 -10738.1127 1505.5960 0.0000 0.0000 1728.1102 -7488.3705 298.2763 -9216.4808 -7398.5226 299.2148 565.7708 636.6521 29745.3368 76.7368 128.1824
ENERGY: 1500000 3.0771 6.0144 1.0615 0.0000 -10487.4431 1380.5844 0.0000 0.0000 1696.0261 -7400.6796 292.7385 -9096.7057 -7396.0731 298.5225 -278.3974 -265.0394 30297.2091 13.8452 68.6223
TCL: Running FEP window  13: Lambda1 0.39999999999999963 Lambda2 0.34999999999999964 [dLambda -0.04999999999999999]
TCL: Setting parameter firsttimestep to 0
TCL: Setting parameter alchLambda to 0.39999999999999963
Info: NONBONDED TABLE R-SQUARED SPACING: 0.0625
Info: NONBONDED TABLE SIZE: 705 POINTS
TCL: Setting parameter alchLambda2 to 0.34999999999999964
Info: NONBONDED TABLE R-SQUARED SPACING: 0.0625
Info: NONBONDED TABLE SIZE: 705 POINTS
TCL: Running for 1500000 steps
ETITLE: TS BOND ANGLE DIHED IMPRP ELECT VDW BOUNDARY MISC KINETIC TOTAL TEMP POTENTIAL TOTALAVG TEMPAVG PRESSURE GPRESSURE VOLUME PRESSAVG GPRESSAVG
ENERGY: 0 3.0771 6.0144 1.0615 0.0000 -10487.4426 1380.6774 0.0000 0.0000 1695.2053 -7401.4068 292.5968 -9096.6121 -7401.4068 292.5968 -362.2869 -271.8925 30297.2091 -362.2869 -271.8925
ENERGY: 300000 2.3736 6.4755 2.9988 0.0000 -10602.0550 1476.2706 0.0000 0.0000 1804.5291 -7309.4073 311.4664 -9113.9365 -7369.3038 300.2341 532.2789 628.4686 29650.2116 11.3840 91.0789
ENERGY: 600000 2.0477 2.7982 2.6565 0.0000 -10538.9846 1400.7850 0.0000 0.0000 1715.0928 -7415.6044 296.0295 -9130.6972 -7360.4112 301.4659 -340.7670 -228.4874 29976.6601 46.1640 107.6528
ENERGY: 900000 7.1370 4.7095 2.8875 0.0000 -10506.1569 1361.2901 0.0000 0.0000 1747.9985 -7382.1343 301.7091 -9130.1328 -7356.7265 300.8858 -532.6910 -473.3674 29972.9966 -105.7124 -48.2588
ENERGY: 1200000 3.1585 7.9446 2.8678 0.0000 -10631.6962 1431.8935 0.0000 0.0000 1769.8824 -7415.9495 305.4863 -9185.8319 -7373.1431 301.2930 299.4293 357.1726 29374.7030 -80.9964 -20.4197
ENERGY: 1500000 2.7321 5.6684 3.6844 0.0000 -10527.6300 1405.6460 0.0000 0.0000 1740.8522 -7369.0469 300.4756 -9109.8991 -7379.3561 300.0670 -315.0305 -264.8918 30462.3800 -131.7156 -71.4825
TCL: Running FEP window  14: Lambda1 0.34999999999999964 Lambda2 0.29999999999999966 [dLambda -0.04999999999999999]
TCL: Setting parameter firsttimestep to 0
TCL: Setting parameter alchLambda to 0.34999999999999964
Info: NONBONDED TABLE R-SQUARED SPACING: 0.0625
Info: NONBONDED TABLE SIZE: 705 POINTS
TCL: Setting parameter alchLambda2 to 0.29999999999999966
Info: NONBONDED TABLE R-SQUARED SPACING: 0.0625
Info: NONBONDED TABLE SIZE: 705 POINTS
TCL: Running for 1500000 steps
ETITLE: TS BOND ANGLE DIHED IMPRP ELECT VDW BOUNDARY MISC KINETIC TOTAL TEMP POTENTIAL TOTALAVG TEMPAVG PRESSURE GPRESSURE VOLUME PRESSAVG GPRESSAVG
ENERGY: 0 2.7321 5.6684 3.6844 0.0000 -10527.6288 1405.9436 0.0000 0.0000 1740.0007 -7369.5997 300.3287 -9109.6004 -7369.5997 300.3287 -351.5036 -267.4960 30462.3800 -351.5036 -267.4960
ENERGY: 300000 3.8255 6.2484 7.4392 0.0000 -10545.4406 1448.4729 0.0000 0.0000 1754.4412 -7325.0133 302.8211 -9079.4545 -7342.6115 302.3470 143.4275 214.1458 30234.9727 -97.5470 -19.8584
ENERGY: 600000 4.1738 6.5246 4.7725 0.0000 -10552.5608 1436.0282 0.0000 0.0000 1694.1088 -7406.9528 292.4076 -9101.0616 -7380.8879 298.6597 144.9298 228.1819 29878.5038 39.9399 107.2037
ENERGY: 900000 2.4088 10.2729 5.2541 0.0000 -10612.9215 1450.0139 0.0000 0.0000 1750.6432 -7394.3285 302.1656 -9144.9717 -7377.7361 300.0782 58.6565 88.1810 29767.9342 84.5025 147.0470
ENERGY: 1200000 2.2791 5.8020 2.8750 0.0000 -10661.8113 1461.0399 0.0000 0.0000 1765.8153 -7424.0000 304.7843 -9189.8153 -7377.4737 299.7220 236.4543 269.6016 29528.3222 -7.7580 53.6684
ENERGY: 1500000 3.5957 9.0464 3.4945 0.0000 -10505.3235 1378.9250 0.0000 0.0000 1739.4229 -7370.8390 300.2289 -9110.2619 -7383.5961 298.9595 -67.1480 -8.3468 29530.3385 -110.4169 -55.9882
TCL: Running FEP window  15: Lambda1 0.29999999999999966 Lambda2 0.24999999999999967 [dLambda -0.04999999999999999]
TCL: Setting parameter firsttimestep to 0
TCL: Setting parameter alchLambda to 0.29999999999999966
Info: NONBONDED TABLE R-SQUARED SPACING: 0.0625
Info: NONBONDED TABLE SIZE: 705 POINTS
TCL: Setting parameter alchLambda2 to 0.24999999999999967
Info: NONBONDED TABLE R-SQUARED SPACING: 0.0625
Info: NONBONDED TABLE SIZE: 705 POINTS
TCL: Running for 1500000 steps
ETITLE: TS BOND ANGLE DIHED IMPRP ELECT VDW BOUNDARY MISC KINETIC TOTAL TEMP POTENTIAL TOTALAVG TEMPAVG PRESSURE GPRESSURE VOLUME PRESSAVG GPRESSAVG
ENERGY: 0 3.5957 9.0464 3.4945 0.0000 -10505.3236 1379.5983 0.0000 0.0000 1738.5725 -7371.0162 300.0821 -9109.5888 -7371.0162 300.0821 -89.2967 -9.8827 29530.3385 -89.2967 -9.8827
ENERGY: 300000 4.0024 6.1589 4.0763 0.0000 -10617.3001 1439.8366 0.0000 0.0000 1729.3721 -7433.8537 298.4941 -9163.2258 -7373.1514 302.4482 -74.5776 8.4654 29621.5536 12.9843 103.4894
ENERGY: 600000 3.8222 7.1814 4.2239 0.0000 -10529.5049 1418.2863 0.0000 0.0000 1741.4158 -7354.5754 300.5729 -9095.9911 -7369.0696 300.9322 87.7298 137.4344 29507.4950 -87.5032 -3.0464
ENERGY: 900000 7.3245 8.0385 5.9015 0.0000 -10733.2879 1480.8224 0.0000 0.0000 1792.0693 -7439.1316 309.3158 -9231.2009 -7359.8569 303.1006 -63.9348 76.5537 29532.8041 -21.2873 73.5689
ENERGY: 1200000 1.5376 5.2160 1.8271 0.0000 -10645.6061 1482.4169 0.0000 0.0000 1702.0628 -7452.5456 293.7805 -9154.6084 -7361.6423 302.2497 202.1461 271.5031 30377.0667 -30.1310 57.5702
ENERGY: 1500000 3.6465 3.3064 2.0957 0.0000 -10578.9429 1486.3528 0.0000 0.0000 1704.3695 -7379.1720 294.1786 -9083.5415 -7368.2930 301.4210 217.7336 232.3661 30434.5559 20.7652 101.8905
TCL: Running FEP window  16: Lambda1 0.24999999999999967 Lambda2 0.19999999999999968 [dLambda -0.04999999999999999]
TCL: Setting parameter firsttimestep to 0
TCL: Setting parameter alchLambda to 0.24999999999999967
Info: NONBONDED TABLE R-SQUARED SPACING: 0.0625
Info: NONBONDED TABLE SIZE: 705 POINTS
TCL: Setting parameter alchLambda2 to 0.19999999999999968
Info: NONBONDED TABLE R-SQUARED SPACING: 0.0625
Info: NONBONDED TABLE SIZE: 705 POINTS
TCL: Running for 1500000 steps
ETITLE: TS BOND ANGLE DIHED IMPRP ELECT VDW BOUNDARY MISC KINETIC TOTAL TEMP POTENTIAL TOTALAVG TEMPAVG PRESSURE GPRESSURE VOLUME PRESSAVG GPRESSAVG
ENERGY: 0 3.6465 3.3064 2.0957 0.0000 -10578.9429 1486.2903 0.0000 0.0000 1703.5136 -7380.0904 294.0309 -9083.6040 -7380.0904 294.0309 140.3823 228.8869 30434.5559 140.3823 228.8869
ENERGY: 300000 2.3707 6.5454 1.7873 0.0000 -10543.9865 1359.2326 0.0000 0.0000 1720.0858 -7453.9646 296.8913 -9174.0504 -7395.5006 294.8984 -763.1475 -669.2072 29649.1894 -286.4053 -208.1928
ENERGY: 600000 1.1399 5.7279 3.1836 0.0000 -10505.5505 1375.9426 0.0000 0.0000 1712.8524 -7406.7042 295.6428 -9119.5566 -7393.5092 294.5001 -566.4707 -471.1462 30243.0122 -237.3099 -161.7216
ENERGY: 900000 2.4771 7.3895 4.0323 0.0000 -10386.6963 1335.4753 0.0000 0.0000 1677.0958 -7360.2263 289.4711 -9037.3221 -7384.5916 295.4486 -832.1916 -729.7255 30252.0879 -327.5358 -253.9615
ENERGY: 1200000 5.2815 5.3654 2.7504 0.0000 -10463.0460 1372.5379 0.0000 0.0000 1716.4642 -7360.6466 296.2662 -9077.1107 -7381.7733 296.3263 -266.0515 -217.1927 29966.9244 -239.1869 -167.6822
ENERGY: 1500000 2.1657 7.4678 3.8999 0.0000 -10549.6586 1455.3010 0.0000 0.0000 1752.5141 -7328.3102 302.4885 -9080.8243 -7377.1919 297.5636 271.3869 304.5555 29787.2155 -184.6815 -116.2455
TCL: Running FEP window  17: Lambda1 0.19999999999999968 Lambda2 0.1499999999999997 [dLambda -0.04999999999999999]
TCL: Setting parameter firsttimestep to 0
TCL: Setting parameter alchLambda to 0.19999999999999968
Info: NONBONDED TABLE R-SQUARED SPACING: 0.0625
Info: NONBONDED TABLE SIZE: 705 POINTS
TCL: Setting parameter alchLambda2 to 0.1499999999999997
Info: NONBONDED TABLE R-SQUARED SPACING: 0.0625
Info: NONBONDED TABLE SIZE: 705 POINTS
TCL: Running for 1500000 steps
ETITLE: TS BOND ANGLE DIHED IMPRP ELECT VDW BOUNDARY MISC KINETIC TOTAL TEMP POTENTIAL TOTALAVG TEMPAVG PRESSURE GPRESSURE VOLUME PRESSAVG GPRESSAVG
ENERGY: 0 2.1657 7.4678 3.8999 0.0000 -10549.6569 1455.1041 0.0000 0.0000 1751.6797 -7329.3397 302.3445 -9081.0195 -7329.3397 302.3445 215.0415 300.9479 29787.2155 215.0415 300.9479
ENERGY: 300000 2.9225 7.5818 2.7390 0.0000 -10455.2191 1355.4515 0.0000 0.0000 1734.6585 -7351.8658 299.4066 -9086.5243 -7334.5105 303.5789 -163.8714 -138.3340 29333.9404 -121.7377 -92.2300
ENERGY: 600000 1.2601 5.4753 3.2033 0.0000 -10511.8308 1399.0275 0.0000 0.0000 1737.9482 -7364.9165 299.9744 -9102.8647 -7349.3610 301.7081 -4.4432 27.5753 29827.6104 -106.3727 -78.1904
ENERGY: 900000 2.2509 7.4263 1.4019 0.0000 -10424.3296 1329.4867 0.0000 0.0000 1728.0001 -7355.7636 298.2573 -9083.7637 -7338.6753 302.7537 -664.7068 -661.9101 29998.1868 -122.9200 -90.3828
ENERGY: 1200000 3.1241 5.6881 7.0451 0.0000 -10495.4984 1391.1933 0.0000 0.0000 1751.0063 -7337.4416 302.2282 -9088.4479 -7344.2726 302.5347 -316.0097 -265.9609 29947.0476 -145.4628 -105.8072
ENERGY: 1500000 3.4943 7.6261 4.7382 0.0000 -10304.4584 1319.2571 0.0000 0.0000 1706.1041 -7263.2386 294.4780 -8969.3427 -7343.2738 301.3040 -574.9064 -475.1806 30057.6679 -99.0796 -50.4469
TCL: Running FEP window  18: Lambda1 0.1499999999999997 Lambda2 0.09999999999999969 [dLambda -0.05 ]
TCL: Setting parameter firsttimestep to 0
TCL: Setting parameter alchLambda to 0.1499999999999997
Info: NONBONDED TABLE R-SQUARED SPACING: 0.0625
Info: NONBONDED TABLE SIZE: 705 POINTS
TCL: Setting parameter alchLambda2 to 0.09999999999999969
Info: NONBONDED TABLE R-SQUARED SPACING: 0.0625
Info: NONBONDED TABLE SIZE: 705 POINTS
TCL: Running for 1500000 steps
ETITLE: TS BOND ANGLE DIHED IMPRP ELECT VDW BOUNDARY MISC KINETIC TOTAL TEMP POTENTIAL TOTALAVG TEMPAVG PRESSURE GPRESSURE VOLUME PRESSAVG GPRESSAVG
ENERGY: 0 3.4943 7.6261 4.7382 0.0000 -10304.4587 1319.0243 0.0000 0.0000 1705.2443 -7264.3316 294.3296 -8969.5759 -7264.3316 294.3296 -560.7729 -479.4521 30057.6679 -560.7729 -479.4521
ENERGY: 300000 2.9021 5.7040 2.5814 0.0000 -10490.9805 1337.3753 0.0000 0.0000 1734.2096 -7408.2082 299.3291 -9142.4178 -7336.5796 300.9123 -719.9248 -669.1902 29440.9892 -457.8364 -405.9563
ENERGY: 600000 5.5528 11.0238 2.2168 0.0000 -10388.3364 1299.9355 0.0000 0.0000 1776.5517 -7293.0559 306.6374 -9069.6075 -7338.1301 301.8121 -881.4353 -794.5683 30145.6923 -527.8290 -454.3741
ENERGY: 900000 1.9236 7.4889 5.9493 0.0000 -10737.0894 1498.9726 0.0000 0.0000 1783.2600 -7439.4950 307.7953 -9222.7550 -7356.5153 300.3406 355.8092 364.1017 29523.8017 -402.8122 -340.3549
ENERGY: 1200000 1.5910 4.1923 3.5191 0.0000 -10529.2414 1442.4844 0.0000 0.0000 1678.1781 -7399.2764 289.6579 -9077.4545 -7356.2223 298.8849 54.8760 129.2266 30209.2863 -338.9853 -269.5510
ENERGY: 1500000 4.7168 6.7242 3.3133 0.0000 -10418.7749 1335.0122 0.0000 0.0000 1759.9741 -7309.0342 303.7761 -9069.0084 -7352.0195 299.9145 -554.3049 -552.6942 29918.5751 -300.4905 -236.1848
TCL: Running FEP window  19: Lambda1 0.09999999999999969 Lambda2 0.049999999999999684 [dLambda -0.05 ]
TCL: Setting parameter firsttimestep to 0
TCL: Setting parameter alchLambda to 0.09999999999999969
Info: NONBONDED TABLE R-SQUARED SPACING: 0.0625
Info: NONBONDED TABLE SIZE: 705 POINTS
TCL: Setting parameter alchLambda2 to 0.049999999999999684
Info: NONBONDED TABLE R-SQUARED SPACING: 0.0625
Info: NONBONDED TABLE SIZE: 705 POINTS
TCL: Running for 1500000 steps
ETITLE: TS BOND ANGLE DIHED IMPRP ELECT VDW BOUNDARY MISC KINETIC TOTAL TEMP POTENTIAL TOTALAVG TEMPAVG PRESSURE GPRESSURE VOLUME PRESSAVG GPRESSAVG
ENERGY: 0 4.7168 6.7242 3.3133 0.0000 -10418.7755 1335.4629 0.0000 0.0000 1759.0792 -7309.4790 303.6216 -9068.5582 -7309.4790 303.6216 -637.0347 -553.0620 29918.5751 -637.0347 -553.0620
ENERGY: 300000 1.7671 9.3512 1.0778 0.0000 -10549.6157 1451.8015 0.0000 0.0000 1747.5959 -7338.0222 301.6396 -9085.6181 -7362.3183 302.8784 561.3936 578.0842 29668.6308 -15.6433 59.0694
ENERGY: 600000 1.9585 5.1722 4.3836 0.0000 -10474.2677 1346.7945 0.0000 0.0000 1800.5991 -7315.3598 310.7881 -9115.9589 -7348.4410 303.0306 -347.5461 -388.9699 29528.6667 -170.9522 -117.4333
ENERGY: 900000 3.8192 3.5195 2.6779 0.0000 -10564.3266 1441.4703 0.0000 0.0000 1751.3585 -7361.4813 302.2890 -9112.8397 -7347.1777 302.0711 428.0354 451.1644 29607.7198 -70.1174 -19.5051
ENERGY: 1200000 2.2744 5.0766 3.0551 0.0000 -10431.9991 1320.8016 0.0000 0.0000 1716.2043 -7384.5872 296.2213 -9100.7915 -7361.4452 301.1692 -783.0704 -747.5970 30069.3545 -83.0077 -34.4670
ENERGY: 1500000 3.3495 7.4825 1.4842 0.0000 -10573.6686 1435.6705 0.0000 0.0000 1785.6359 -7340.0460 308.2054 -9125.6818 -7360.1445 302.1994 140.9614 237.7595 29531.5231 -137.5671 -81.1234
TCL: Running FEP window  20: Lambda1 0.049999999999999684 Lambda2 0.0    [dLambda -0.049999999999999684]
TCL: Setting parameter firsttimestep to 0
TCL: Setting parameter alchLambda to 0.049999999999999684
Info: NONBONDED TABLE R-SQUARED SPACING: 0.0625
Info: NONBONDED TABLE SIZE: 705 POINTS
TCL: Setting parameter alchLambda2 to 0.0
Info: NONBONDED TABLE R-SQUARED SPACING: 0.0625
Info: NONBONDED TABLE SIZE: 705 POINTS
TCL: Running for 1500000 steps
ETITLE: TS BOND ANGLE DIHED IMPRP ELECT VDW BOUNDARY MISC KINETIC TOTAL TEMP POTENTIAL TOTALAVG TEMPAVG PRESSURE GPRESSURE VOLUME PRESSAVG GPRESSAVG
ENERGY: 0 3.3495 7.4826 1.4842 0.0000 -10573.6672 1434.0364 0.0000 0.0000 1784.7661 -7342.5484 308.0553 -9127.3145 -7342.5484 308.0553 140.4815 230.6349 29531.5231 140.4815 230.6349
ENERGY: 300000 2.5186 4.3183 3.3121 0.0000 -10399.4204 1355.6229 0.0000 0.0000 1728.9000 -7304.7484 298.4126 -9033.6484 -7373.6859 301.5087 -326.5811 -233.1124 30299.5655 -204.5766 -134.2477
ENERGY: 600000 0.8050 12.3630 4.3103 0.0000 -10706.1646 1459.6742 0.0000 0.0000 1780.1178 -7448.8944 307.2530 -9229.0122 -7366.1840 303.7576 60.7680 129.3119 29470.2525 -18.3922 49.5831
ENERGY: 900000 4.2819 8.0940 6.0357 0.0000 -10631.9022 1477.6933 0.0000 0.0000 1712.0050 -7423.7922 295.4965 -9135.7972 -7378.8919 302.4923 407.9667 403.7784 29745.1156 10.9943 77.2897
ENERGY: 1200000 2.2606 6.3433 2.0839 0.0000 -10655.3333 1475.4011 0.0000 0.0000 1729.8420 -7439.4024 298.5752 -9169.2443 -7376.6132 302.0232 325.5131 373.9252 29469.8684 -78.4435 -11.4641
ENERGY: 1500000 2.0393 6.7226 6.4669 0.0000 -10691.9689 1530.4795 0.0000 0.0000 1720.1900 -7426.0706 296.9093 -9146.2606 -7376.4945 302.0536 739.4684 827.8994 29473.6793 -26.7709 41.7563
TCL: Exiting due to exit command.
