Info: SIMULATION PARAMETERS:
Info: TIMESTEP               2
Info: NUMBER OF STEPS        0
Info: STEPS PER CYCLE        10
Info: PERIODIC CELL BASIS 1  30.7847 0 0
Info: PERIODIC CELL BASIS 2  0 33.2687 0
Info: PERIODIC CELL BASIS 3  0 0 29.2547
Info: PERIODIC CELL CENTER   0 0 0
Info: WRAPPING WATERS AROUND PERIODIC BOUNDARIES ON OUTPUT.
Info: WRAPPING ALL CLUSTERS AROUND PERIODIC BOUNDARIES ON OUTPUT.
Info: FIRST LDB TIMESTEP     50
Info: LAST LDB TIMESTEP     -1
Info: HOM BACKGROUND SCALING 1
Info: PME BACKGROUND SCALING 1
Info: MIN ATOMS PER PATCH    40
Info: EMPTY PATCH LOAD       40 ATOMS
Info: VELOCITY FILE          mobley_6620221_equil.vel
Info: CENTER OF MASS MOVING INITIALLY? NO
Info: DIELECTRIC             1
Info: EXCLUDE                SCALED ONE-FOUR
Info: 1-4 ELECTROSTATICS SCALED BY 0.833333
Info: MODIFIED 1-4 VDW PARAMETERS WILL BE USED
Info: DCD FILENAME           mobley_6620221_prod.dcd
Info: DCD FREQUENCY          100000
Info: DCD FIRST STEP         100000
Info: DCD FILE WILL CONTAIN UNIT CELL DATA
Info: XST FILENAME           mobley_6620221_prod.xst
Info: XST FREQUENCY          100000
Info: NO VELOCITY DCD OUTPUT
Info: NO FORCE DCD OUTPUT
Info: OUTPUT FILENAME        mobley_6620221_prod
Info: BINARY OUTPUT FILES WILL BE USED
Info: RESTART FILENAME       mobley_6620221_prod.restart
Info: RESTART FREQUENCY      100000
Info: BINARY RESTART FILES WILL BE USED
Info: CUTOFF                 9
Info: PAIRLIST DISTANCE      11
Info: PAIRLIST SHRINK RATE   0.01
Info: PAIRLIST GROW RATE     0.01
Info: PAIRLIST TRIGGER       0.3
Info: PAIRLISTS PER CYCLE    2
Info: PAIRLISTS ENABLED
Info: MARGIN                 2
Info: HYDROGEN GROUP CUTOFF  2.5
Info: PATCH DIMENSION        15.5
Info: ENERGY OUTPUT STEPS    100000
Info: ENERGY EVALUATION STEPS    100000
Info: OUTPUT ENERGY PRECISION 4
Info: CROSSTERM ENERGY INCLUDED IN DIHEDRAL
Info: TIMING OUTPUT STEPS    1000000
Info: PRESSURE OUTPUT STEPS  100000
Info: ALCHEMICAL FEP ON
Info: FEP CURRENT LAMBDA VALUE     0
Info: FEP COMPARISON LAMBDA VALUE  0.05
Info: FEP INTRA-ALCHEMICAL NON-BONDED INTERACTIONS WILL BE RETAINED
Info: FEP INTRA-ALCHEMICAL BONDED INTERACTIONS WILL BE RETAINED
Info: FEP VDW SHIFTING COEFFICIENT 5
Info: FEP ELEC. ACTIVE FOR ANNIHILATED PARTICLES BETWEEN LAMBDA = 0 AND LAMBDA = 0.5
Info: FEP ELEC. ACTIVE FOR EXNIHILATED PARTICLES BETWEEN LAMBDA = 0.5 AND LAMBDA = 1
Info: FEP VDW ACTIVE FOR ANNIHILATED PARTICLES BETWEEN LAMBDA = 0 AND LAMBDA = 1
Info: FEP VDW ACTIVE FOR EXNIHILATED PARTICLES BETWEEN LAMBDA = 0 AND LAMBDA = 1
Info: FEP BOND ACTIVE FOR ANNIHILATED PARTICLES BETWEEN LAMBDA = 1 AND LAMBDA = 1
Info: FEP BOND ACTIVE FOR EXNIHILATED PARTICLES BETWEEN LAMBDA = 0 AND LAMBDA = 0
Info: LANGEVIN DYNAMICS ACTIVE
Info: LANGEVIN TEMPERATURE   300
Info: LANGEVIN USING BBK INTEGRATOR
Info: LANGEVIN DAMPING COEFFICIENT IS 1 INVERSE PS
Info: LANGEVIN DYNAMICS APPLIED TO HYDROGENS
Info: LANGEVIN PISTON PRESSURE CONTROL ACTIVE
Info:        TARGET PRESSURE IS 1.01325 BAR
Info:     OSCILLATION PERIOD IS 50 FS
Info:             DECAY TIME IS 25 FS
Info:     PISTON TEMPERATURE IS 300 K
Info:       PRESSURE CONTROL IS GROUP-BASED
Info:    INITIAL STRAIN RATE IS -4.56909e-05 -4.56909e-05 -4.56909e-05
Info:       CELL FLUCTUATION IS ISOTROPIC
Info: PARTICLE MESH EWALD (PME) ACTIVE
Info: PME TOLERANCE               1e-06
Info: PME EWALD COEFFICIENT       0.348832
Info: PME INTERPOLATION ORDER     4
Info: PME GRID DIMENSIONS         32 36 32
Info: PME MAXIMUM GRID SPACING    1
Info: PME CALCULATION WILL BE PERFORMED ON GPU
Info: FULL ELECTROSTATIC EVALUATION FREQUENCY      2
Info: USING VERLET I (r-RESPA) MTS SCHEME.
Info: C1 SPLITTING OF LONG RANGE ELECTROSTATICS
Info: PLACING ATOMS IN PATCHES BY HYDROGEN GROUPS
Info: RIGID BONDS TO HYDROGEN : ALL
Info:         ERROR TOLERANCE : 1e-08
Info:          MAX ITERATIONS : 100
Info: RIGID WATER USING SETTLE ALGORITHM
Info: RANDOM NUMBER SEED     1743816868
Info: USE HYDROGEN BONDS?    NO
Info: Using AMBER format force field!
Info: AMBER PARM FILE        mobley_6620221.prmtop
Info: COORDINATE PDB         mobley_6620221.pdb
Info: Exclusions will be read from PARM file!
Info: SCNB (VDW SCALING)     2
Info: USING ARITHMETIC MEAN TO COMBINE L-J SIGMA PARAMETERS
Info: BINARY COORDINATES     mobley_6620221_equil.coor
Info: SUMMARY OF PARAMETERS:
Info: 15 BONDS
Info: 20 ANGLES
Info:   20 HARMONIC
Info:   0 COSINE-BASED
Info: 12 DIHEDRAL
Info: 0 IMPROPER
Info: 0 CROSSTERM
Info: 0 VDW
Info: 66 VDW_PAIRS
Info: 0 NBTHOLE_PAIRS
Info: To read alchdata from file: mobley_6620221.pdb
Info: To read alchflag data from column: 5
Info: STRUCTURE SUMMARY:
Info: 2929 ATOMS
Info: 2930 BONDS
Info: 56 ANGLES
Info: 93 DIHEDRALS
Info: 0 IMPROPERS
Info: 0 CROSSTERMS
Info: 3054 EXCLUSIONS
Info: 2913 RIGID BONDS
Info: ALCH: 0 ATOMS TO DISAPPEAR IN FINAL STATE
Info: ALCH: 31 ATOMS TO APPEAR IN FINAL STATE
Info: 5874 DEGREES OF FREEDOM
Info: 982 HYDROGEN GROUPS
Info: 4 ATOMS IN LARGEST HYDROGEN GROUP
Info: 982 MIGRATION GROUPS
Info: 4 ATOMS IN LARGEST MIGRATION GROUP
Info: TOTAL MASS = 17624.7 amu
Info: TOTAL CHARGE = -0.000300046 e
Info: MASS DENSITY = 0.976822 g/cm^3
Info: ATOM DENSITY = 0.0977583 atoms/A^3
Info: ADDED 0 IMPLICIT EXCLUSIONS
Info: NONBONDED TABLE R-SQUARED SPACING: 0.0625
Info: NONBONDED TABLE SIZE: 705 POINTS
Info: REMOVING COM VELOCITY -0.163572 -0.00731386 -0.0825357
Info: Use 3D box decompostion in PME FFT.
Info: Updated CUDA force table with 4096 elements.
Info: Updated CUDA LJ table with 11 x 11 elements.
Info: Found 32 unique exclusion lists needing 124 bytes
TCL: Running for 1500000 steps
ETITLE: TS BOND ANGLE DIHED IMPRP ELECT VDW BOUNDARY MISC KINETIC TOTAL TEMP POTENTIAL TOTALAVG TEMPAVG PRESSURE GPRESSURE VOLUME PRESSAVG GPRESSAVG
ENERGY: 0 5.5472 23.6368 9.5542 0.0000 -10638.2156 1477.2144 0.0000 0.0000 1739.2702 -7382.9928 298.0050 -9122.2630 -7382.9928 298.0050 483.0469 558.4227 29961.6502 483.0469 558.4227
ENERGY: 300000 5.1650 24.5350 12.7837 0.0000 -10523.2974 1402.5510 0.0000 0.0000 1818.5237 -7259.7389 311.5842 -9078.2626 -7366.5792 302.0764 553.5916 551.0787 29448.9849 30.5357 79.2907
ENERGY: 600000 3.6784 26.2657 15.1104 0.0000 -10635.0005 1431.7351 0.0000 0.0000 1785.3661 -7372.8449 305.9030 -9158.2109 -7367.8169 301.8478 373.0399 444.2039 29288.9058 76.6791 126.2121
ENERGY: 900000 5.2104 24.4506 14.5076 0.0000 -10559.2964 1440.4130 0.0000 0.0000 1768.1380 -7306.5768 302.9512 -9074.7148 -7363.8116 303.0647 118.3772 130.4805 29920.6590 141.0417 185.1771
ENERGY: 1200000 2.5307 22.8790 10.0169 0.0000 -10599.9426 1380.2709 0.0000 0.0000 1707.8871 -7476.3579 292.6278 -9184.2451 -7388.2896 301.1900 -650.6526 -583.7749 30258.9123 124.6497 173.3478
ENERGY: 1500000 10.1120 22.3906 11.0505 0.0000 -10726.8309 1580.5670 0.0000 0.0000 1746.0808 -7356.6300 299.1719 -9102.7108 -7381.6613 301.2820 1131.7587 1247.7784 29858.8704 191.8953 245.8912
TCL: Running FEP window   2: Lambda1 0.05   Lambda2 0.1    [dLambda 0.05  ]
TCL: Setting parameter firsttimestep to 0
TCL: Setting parameter alchLambda to 0.05
Info: NONBONDED TABLE R-SQUARED SPACING: 0.0625
Info: NONBONDED TABLE SIZE: 705 POINTS
TCL: Setting parameter alchLambda2 to 0.1
Info: NONBONDED TABLE R-SQUARED SPACING: 0.0625
Info: NONBONDED TABLE SIZE: 705 POINTS
TCL: Running for 1500000 steps
ETITLE: TS BOND ANGLE DIHED IMPRP ELECT VDW BOUNDARY MISC KINETIC TOTAL TEMP POTENTIAL TOTALAVG TEMPAVG PRESSURE GPRESSURE VOLUME PRESSAVG GPRESSAVG
ENERGY: 0 10.1120 22.3906 11.0505 0.0000 -10726.8316 1589.4027 0.0000 0.0000 1745.1903 -7348.6856 299.0193 -9093.8758 -7348.6856 299.0193 1166.4963 1261.5913 29858.8704 1166.4963 1261.5913
ENERGY: 300000 2.8980 25.2894 13.4510 0.0000 -10612.4902 1399.6830 0.0000 0.0000 1703.1865 -7467.9823 291.8224 -9171.1688 -7427.1934 295.9266 -356.7250 -255.6367 29666.8755 96.2162 191.0302
ENERGY: 600000 8.8787 18.4171 13.2080 0.0000 -10652.0087 1498.9462 0.0000 0.0000 1725.1901 -7387.3685 295.5925 -9112.5586 -7414.3160 295.6534 507.0852 568.0268 29897.9558 24.8966 99.8785
ENERGY: 900000 3.9964 24.0929 10.5946 0.0000 -10657.6197 1462.3451 0.0000 0.0000 1759.2960 -7397.2947 301.4362 -9156.5907 -7401.5959 295.8329 283.3552 318.0265 29935.6200 124.3217 189.3450
ENERGY: 1200000 3.5492 27.2982 8.9138 0.0000 -10566.0304 1405.9472 0.0000 0.0000 1780.4919 -7339.8300 305.0679 -9120.3219 -7388.5270 297.5204 -118.9407 -1.2262 29764.7904 122.2928 184.4996
ENERGY: 1500000 2.5998 19.5297 11.5527 0.0000 -10715.3442 1532.1785 0.0000 0.0000 1785.9852 -7363.4984 306.0091 -9149.4835 -7392.1682 297.6339 799.9226 894.2578 29797.7493 153.4512 221.7618
TCL: Running FEP window   3: Lambda1 0.1    Lambda2 0.15000000000000002 [dLambda 0.05000000000000002]
TCL: Setting parameter firsttimestep to 0
TCL: Setting parameter alchLambda to 0.1
Info: NONBONDED TABLE R-SQUARED SPACING: 0.0625
Info: NONBONDED TABLE SIZE: 705 POINTS
TCL: Setting parameter alchLambda2 to 0.15000000000000002
Info: NONBONDED TABLE R-SQUARED SPACING: 0.0625
Info: NONBONDED TABLE SIZE: 705 POINTS
TCL: Running for 1500000 steps
ETITLE: TS BOND ANGLE DIHED IMPRP ELECT VDW BOUNDARY MISC KINETIC TOTAL TEMP POTENTIAL TOTALAVG TEMPAVG PRESSURE GPRESSURE VOLUME PRESSAVG GPRESSAVG
ENERGY: 0 2.5998 19.5297 11.5527 0.0000 -10715.3438 1536.9193 0.0000 0.0000 1785.1116 -7359.6307 305.8594 -9144.7423 -7359.6307 305.8594 806.4413 911.7371 29797.7493 806.4413 911.7371
ENERGY: 300000 6.1959 28.5692 10.1694 0.0000 -10659.3619 1453.4990 0.0000 0.0000 1708.4681 -7452.4601 292.7274 -9160.9283 -7401.4247 297.8213 295.2492 329.9115 29583.6310 593.8282 656.8283
ENERGY: 600000 4.6317 23.0545 14.2201 0.0000 -10670.3134 1469.9936 0.0000 0.0000 1732.9395 -7425.4740 296.9203 -9158.4135 -7397.5329 296.2821 457.0804 417.5988 30023.9231 341.8939 385.1366
ENERGY: 900000 6.4209 20.3079 14.6690 0.0000 -10604.4243 1454.5825 0.0000 0.0000 1787.0544 -7321.3896 306.1923 -9108.4441 -7391.4335 297.4778 251.1510 358.3990 29618.9492 157.1601 203.9661
ENERGY: 1200000 3.7505 26.3979 10.7796 0.0000 -10661.0867 1524.8110 0.0000 0.0000 1752.7396 -7342.6081 300.3128 -9095.3477 -7381.0400 298.1404 1129.7982 1223.7686 29572.2608 164.8286 221.7694
ENERGY: 1500000 3.4274 17.8603 13.4753 0.0000 -10699.5427 1461.7207 0.0000 0.0000 1802.5953 -7400.4637 308.8550 -9203.0590 -7388.5872 298.4699 234.6169 299.8418 29426.9221 132.1210 189.1423
TCL: Running FEP window   4: Lambda1 0.15000000000000002 Lambda2 0.2    [dLambda 0.04999999999999999]
TCL: Setting parameter firsttimestep to 0
TCL: Setting parameter alchLambda to 0.15000000000000002
Info: NONBONDED TABLE R-SQUARED SPACING: 0.0625
Info: NONBONDED TABLE SIZE: 705 POINTS
TCL: Setting parameter alchLambda2 to 0.2
Info: NONBONDED TABLE R-SQUARED SPACING: 0.0625
Info: NONBONDED TABLE SIZE: 705 POINTS
TCL: Running for 1500000 steps
ETITLE: TS BOND ANGLE DIHED IMPRP ELECT VDW BOUNDARY MISC KINETIC TOTAL TEMP POTENTIAL TOTALAVG TEMPAVG PRESSURE GPRESSURE VOLUME PRESSAVG GPRESSAVG
ENERGY: 0 3.4274 17.8603 13.4753 0.0000 -10699.5429 1465.3307 0.0000 0.0000 1801.7168 -7397.7324 308.7045 -9199.4492 -7397.7324 308.7045 237.7549 316.2270 29426.9221 237.7549 316.2270
ENERGY: 300000 6.7605 20.7024 10.2327 0.0000 -10525.3118 1330.4956 0.0000 0.0000 1795.2834 -7361.8371 307.6022 -9157.1205 -7365.7471 302.2047 -403.1831 -378.6513 29831.4290 -142.7294 -67.9742
ENERGY: 600000 4.7864 26.2834 12.7662 0.0000 -10687.9321 1478.4514 0.0000 0.0000 1759.5728 -7406.0719 301.4836 -9165.6447 -7371.7763 303.6836 627.3634 711.5312 29385.7890 76.6058 159.1546
ENERGY: 900000 9.9523 23.1769 10.1044 0.0000 -10507.2279 1386.9761 0.0000 0.0000 1748.0994 -7328.9187 299.5177 -9077.0181 -7358.8843 303.4155 -296.7547 -285.3489 30016.5270 27.0025 100.1296
ENERGY: 1200000 2.3316 26.7289 13.3098 0.0000 -10785.8640 1521.6540 0.0000 0.0000 1717.1464 -7504.6933 294.2143 -9221.8397 -7375.8473 301.2635 714.0427 756.6666 29713.2329 74.5608 147.0040
ENERGY: 1500000 4.3884 21.1128 14.0686 0.0000 -10569.6887 1441.6203 0.0000 0.0000 1723.7241 -7364.7744 295.3413 -9088.4985 -7372.2406 300.7592 252.3524 309.8368 30246.1059 49.9330 121.7618
TCL: Running FEP window   5: Lambda1 0.2    Lambda2 0.25   [dLambda 0.04999999999999999]
TCL: Setting parameter firsttimestep to 0
TCL: Setting parameter alchLambda to 0.2
Info: NONBONDED TABLE R-SQUARED SPACING: 0.0625
Info: NONBONDED TABLE SIZE: 705 POINTS
TCL: Setting parameter alchLambda2 to 0.25
Info: NONBONDED TABLE R-SQUARED SPACING: 0.0625
Info: NONBONDED TABLE SIZE: 705 POINTS
TCL: Running for 1500000 steps
ETITLE: TS BOND ANGLE DIHED IMPRP ELECT VDW BOUNDARY MISC KINETIC TOTAL TEMP POTENTIAL TOTALAVG TEMPAVG PRESSURE GPRESSURE VOLUME PRESSAVG GPRESSAVG
ENERGY: 0 4.3884 21.1128 14.0686 0.0000 -10569.6892 1442.1224 0.0000 0.0000 1722.8418 -7365.1551 295.1901 -9087.9969 -7365.1551 295.1901 239.3380 318.4434 30246.1059 239.3380 318.4434
ENERGY: 300000 3.2201 23.8788 16.6805 0.0000 -10432.0388 1268.3853 0.0000 0.0000 1781.9493 -7337.9248 305.3176 -9119.8741 -7335.6385 301.4741 -1185.3302 -1141.4458 29951.0321 -570.4283 -517.1824
ENERGY: 600000 5.0255 28.5138 11.8404 0.0000 -10478.9504 1304.2609 0.0000 0.0000 1698.5238 -7430.7859 291.0235 -9129.3098 -7366.8951 300.0778 -1111.0320 -1003.3990 29997.7877 -359.6259 -281.6329
ENERGY: 900000 5.1583 28.8878 12.0613 0.0000 -10606.7366 1454.2699 0.0000 0.0000 1755.8168 -7350.5425 300.8400 -9106.3592 -7371.9136 299.1111 146.2267 216.5731 29653.6537 -265.8292 -188.4143
ENERGY: 1200000 4.9402 25.3879 8.7697 0.0000 -10634.9080 1365.3982 0.0000 0.0000 1792.2009 -7438.2111 307.0741 -9230.4120 -7370.4672 299.5264 -712.9398 -630.4184 29707.0746 -210.7425 -136.4320
ENERGY: 1500000 5.4713 21.0612 8.6743 0.0000 -10658.7895 1471.5195 0.0000 0.0000 1694.2458 -7457.8173 290.2905 -9152.0632 -7375.8640 298.6229 356.7963 411.9991 29703.5354 -159.0934 -87.8834
TCL: Running FEP window   6: Lambda1 0.25   Lambda2 0.3    [dLambda 0.04999999999999999]
TCL: Setting parameter firsttimestep to 0
TCL: Setting parameter alchLambda to 0.25
Info: NONBONDED TABLE R-SQUARED SPACING: 0.0625
Info: NONBONDED TABLE SIZE: 705 POINTS
TCL: Setting parameter alchLambda2 to 0.3
Info: NONBONDED TABLE R-SQUARED SPACING: 0.0625
Info: NONBONDED TABLE SIZE: 705 POINTS
TCL: Running for 1500000 steps
ETITLE: TS BOND ANGLE DIHED IMPRP ELECT VDW BOUNDARY MISC KINETIC TOTAL TEMP POTENTIAL TOTALAVG TEMPAVG PRESSURE GPRESSURE VOLUME PRESSAVG GPRESSAVG
ENERGY: 0 5.4714 21.0612 8.6743 0.0000 -10658.7897 1471.7022 0.0000 0.0000 1693.3482 -7458.5326 290.1367 -9151.8808 -7458.5326 290.1367 319.4351 421.2591 29703.5354 319.4351 421.2591
ENERGY: 300000 4.6885 24.1116 9.8589 0.0000 -10539.9011 1296.5039 0.0000 0.0000 1755.2906 -7449.4476 300.7499 -9204.7382 -7432.3447 294.9343 -1375.7594 -1324.3179 30388.0191 -476.6702 -392.9839
ENERGY: 600000 7.1393 24.8524 13.3634 0.0000 -10647.9318 1507.3374 0.0000 0.0000 1767.6466 -7327.5926 302.8669 -9095.2392 -7433.5914 295.8218 510.1715 629.7339 30272.8038 -207.5021 -132.5605
ENERGY: 900000 3.6832 24.8383 9.4814 0.0000 -10642.2317 1447.3610 0.0000 0.0000 1740.2737 -7416.5941 298.1769 -9156.8678 -7412.1060 298.0439 476.1281 531.2396 29673.4214 -69.1293 6.9000
ENERGY: 1200000 8.7007 21.7405 10.3596 0.0000 -10586.3072 1382.8166 0.0000 0.0000 1735.5308 -7427.1589 297.3643 -9162.6897 -7403.6219 298.8652 -725.7810 -602.0964 30197.5855 -121.3572 -51.2523
ENERGY: 1500000 6.3800 19.7672 17.0487 0.0000 -10552.2520 1345.0359 0.0000 0.0000 1763.1817 -7400.8386 302.1019 -9164.0203 -7399.6133 299.1367 -491.3689 -404.2131 29807.9896 -47.7827 21.8151
TCL: Running FEP window   7: Lambda1 0.3    Lambda2 0.35   [dLambda 0.04999999999999999]
TCL: Setting parameter firsttimestep to 0
TCL: Setting parameter alchLambda to 0.3
Info: NONBONDED TABLE R-SQUARED SPACING: 0.0625
Info: NONBONDED TABLE SIZE: 705 POINTS
TCL: Setting parameter alchLambda2 to 0.35
Info: NONBONDED TABLE R-SQUARED SPACING: 0.0625
Info: NONBONDED TABLE SIZE: 705 POINTS
TCL: Running for 1500000 steps
ETITLE: TS BOND ANGLE DIHED IMPRP ELECT VDW BOUNDARY MISC KINETIC TOTAL TEMP POTENTIAL TOTALAVG TEMPAVG PRESSURE GPRESSURE VOLUME PRESSAVG GPRESSAVG
ENERGY: 0 6.3800 19.7672 17.0487 0.0000 -10552.2520 1344.7566 0.0000 0.0000 1762.3113 -7401.9882 301.9528 -9164.2995 -7401.9882 301.9528 -504.1335 -395.9227 29807.9896 -504.1335 -395.9227
ENERGY: 300000 4.3184 24.2294 15.0654 0.0000 -10583.9045 1402.0380 0.0000 0.0000 1705.1086 -7433.1447 292.1517 -9138.2533 -7406.2090 300.1108 -289.9315 -195.6711 30335.0248 -348.6285 -263.3134
ENERGY: 600000 7.2231 25.1673 9.8568 0.0000 -10604.5887 1413.0896 0.0000 0.0000 1749.3223 -7399.9297 299.7273 -9149.2519 -7393.1305 301.1738 -220.6122 -153.2360 29995.6470 -208.4690 -125.0516
ENERGY: 900000 7.8331 24.0347 9.5664 0.0000 -10582.8950 1422.1515 0.0000 0.0000 1759.9931 -7359.3163 301.5556 -9119.3093 -7394.4538 300.7678 -89.5760 -11.1879 30289.0063 -48.0727 24.5838
ENERGY: 1200000 5.6615 25.5858 10.8619 0.0000 -10544.8021 1373.3896 0.0000 0.0000 1769.8393 -7359.4640 303.2427 -9129.3033 -7394.5881 301.1157 -284.4584 -123.6719 29745.0507 55.1663 133.8707
ENERGY: 1500000 4.1033 21.9956 12.4787 0.0000 -10624.8427 1444.1282 0.0000 0.0000 1808.0447 -7334.0922 309.7887 -9142.1369 -7399.8493 301.6531 310.5842 384.1279 30175.9748 71.3561 141.8693
TCL: Running FEP window   8: Lambda1 0.35   Lambda2 0.39999999999999997 [dLambda 0.04999999999999999]
TCL: Setting parameter firsttimestep to 0
TCL: Setting parameter alchLambda to 0.35
Info: NONBONDED TABLE R-SQUARED SPACING: 0.0625
Info: NONBONDED TABLE SIZE: 705 POINTS
TCL: Setting parameter alchLambda2 to 0.39999999999999997
Info: NONBONDED TABLE R-SQUARED SPACING: 0.0625
Info: NONBONDED TABLE SIZE: 705 POINTS
TCL: Running for 1500000 steps
ETITLE: TS BOND ANGLE DIHED IMPRP ELECT VDW BOUNDARY MISC KINETIC TOTAL TEMP POTENTIAL TOTALAVG TEMPAVG PRESSURE GPRESSURE VOLUME PRESSAVG GPRESSAVG
ENERGY: 0 4.1033 21.9956 12.4787 0.0000 -10624.8442 1445.1808 0.0000 0.0000 1807.1770 -7333.9088 309.6401 -9141.0858 -7333.9088 309.6401 312.4396 400.5806 30175.9748 312.4396 400.5806
ENERGY: 300000 4.1041 21.3738 11.1090 0.0000 -10571.4293 1424.6609 0.0000 0.0000 1808.8123 -7301.3691 309.9202 -9110.1814 -7355.5253 303.8181 203.5603 217.0655 29999.8192 15.5048 85.5731
ENERGY: 600000 4.2096 18.8710 11.8427 0.0000 -10746.6778 1508.5612 0.0000 0.0000 1714.9092 -7488.2841 293.8310 -9203.1933 -7385.2404 301.2345 820.8053 881.2374 29521.7333 100.3351 166.5493
ENERGY: 900000 4.8222 29.4860 13.0711 0.0000 -10501.8008 1381.2476 0.0000 0.0000 1720.2550 -7352.9189 294.7469 -9073.1739 -7384.1266 301.2006 -330.5623 -302.2153 30347.7294 23.2794 90.3347
ENERGY: 1200000 7.7756 25.0905 11.1009 0.0000 -10706.5593 1483.8201 0.0000 0.0000 1697.4750 -7481.2972 290.8438 -9178.7722 -7390.7728 300.7678 438.2371 442.0043 29866.4538 35.8002 98.8614
ENERGY: 1500000 5.0593 22.8171 13.0394 0.0000 -10597.4933 1393.3688 0.0000 0.0000 1741.5857 -7421.6230 298.4017 -9163.2087 -7400.3002 300.3339 -368.9657 -351.0314 30116.0946 -45.9568 10.8353
TCL: Running FEP window   9: Lambda1 0.39999999999999997 Lambda2 0.44999999999999996 [dLambda 0.04999999999999999]
TCL: Setting parameter firsttimestep to 0
TCL: Setting parameter alchLambda to 0.39999999999999997
Info: NONBONDED TABLE R-SQUARED SPACING: 0.0625
Info: NONBONDED TABLE SIZE: 705 POINTS
TCL: Setting parameter alchLambda2 to 0.44999999999999996
Info: NONBONDED TABLE R-SQUARED SPACING: 0.0625
Info: NONBONDED TABLE SIZE: 705 POINTS
TCL: Running for 1500000 steps
ETITLE: TS BOND ANGLE DIHED IMPRP ELECT VDW BOUNDARY MISC KINETIC TOTAL TEMP POTENTIAL TOTALAVG TEMPAVG PRESSURE GPRESSURE VOLUME PRESSAVG GPRESSAVG
ENERGY: 0 5.0593 22.8171 13.0394 0.0000 -10597.4936 1393.8538 0.0000 0.0000 1740.7220 -7422.0020 298.2537 -9162.7240 -7422.0020 298.2537 -419.2892 -335.9072 30116.0946 -419.2892 -335.9072
ENERGY: 300000 5.6065 19.7112 14.1310 0.0000 -10715.8699 1500.1274 0.0000 0.0000 1695.1239 -7481.1698 290.4410 -9176.2937 -7392.6623 297.6966 812.9614 837.3914 29685.1077 98.8191 164.4621
ENERGY: 600000 6.2307 22.3652 11.5579 0.0000 -10514.4180 1399.7578 0.0000 0.0000 1746.4898 -7328.0167 299.2420 -9074.5065 -7383.4823 298.5479 -75.7658 20.5367 30037.6872 -60.3505 4.8862
ENERGY: 900000 7.4627 21.2491 10.8386 0.0000 -10610.0335 1404.6900 0.0000 0.0000 1739.0433 -7426.7497 297.9661 -9165.7930 -7383.5942 299.4262 -172.0884 -26.5074 29973.3581 -90.4486 -10.5944
ENERGY: 1200000 4.4604 25.0433 11.3599 0.0000 -10661.9115 1457.4644 0.0000 0.0000 1781.2724 -7382.3113 305.2016 -9163.5836 -7388.5727 299.5503 220.4838 237.5000 30218.2576 -145.3398 -71.4676
ENERGY: 1500000 4.3174 24.5906 11.7183 0.0000 -10637.0149 1468.0477 0.0000 0.0000 1767.3522 -7360.9886 302.8165 -9128.3408 -7383.9760 300.5798 675.5646 684.6154 29869.4504 -55.0272 11.7686
TCL: Running FEP window  10: Lambda1 0.44999999999999996 Lambda2 0.49999999999999994 [dLambda 0.04999999999999999]
TCL: Setting parameter firsttimestep to 0
TCL: Setting parameter alchLambda to 0.44999999999999996
Info: NONBONDED TABLE R-SQUARED SPACING: 0.0625
Info: NONBONDED TABLE SIZE: 705 POINTS
TCL: Setting parameter alchLambda2 to 0.49999999999999994
Info: NONBONDED TABLE R-SQUARED SPACING: 0.0625
Info: NONBONDED TABLE SIZE: 705 POINTS
TCL: Running for 1500000 steps
ETITLE: TS BOND ANGLE DIHED IMPRP ELECT VDW BOUNDARY MISC KINETIC TOTAL TEMP POTENTIAL TOTALAVG TEMPAVG PRESSURE GPRESSURE VOLUME PRESSAVG GPRESSAVG
ENERGY: 0 4.3174 24.5906 11.7183 0.0000 -10637.0172 1467.4539 0.0000 0.0000 1766.4844 -7362.4526 302.6678 -9128.9370 -7362.4526 302.6678 613.8835 690.0470 29869.4504 613.8835 690.0470
ENERGY: 300000 4.1024 22.3027 10.5749 0.0000 -10610.9123 1374.1640 0.0000 0.0000 1709.3967 -7490.3716 292.8865 -9199.7682 -7379.9611 301.7911 -389.4767 -343.3913 29922.4457 140.9649 210.7582
ENERGY: 600000 4.5485 23.2355 14.8974 0.0000 -10656.3944 1414.1716 0.0000 0.0000 1768.4267 -7431.1147 303.0006 -9199.5414 -7384.5149 302.6172 -117.6269 -66.2165 29751.6602 26.4923 104.6633
ENERGY: 900000 9.1840 19.2544 12.3242 0.0000 -10597.8252 1397.7230 0.0000 0.0000 1763.7206 -7395.6192 302.1943 -9159.3397 -7392.6122 300.9452 -661.6549 -607.9345 30432.2052 -104.3078 -29.1684
ENERGY: 1200000 4.9289 21.6908 12.1726 0.0000 -10525.6306 1329.1827 0.0000 0.0000 1762.8418 -7394.8137 302.0437 -9157.6555 -7388.5451 300.4156 -718.6965 -646.2126 29968.1872 -111.3502 -39.6910
ENERGY: 1500000 2.5253 23.6898 11.3911 0.0000 -10482.7119 1364.5960 0.0000 0.0000 1728.0382 -7352.4715 296.0805 -9080.5097 -7386.1217 299.6897 -176.0501 -180.6215 30123.4612 -176.9405 -105.2973
TCL: Running FEP window  11: Lambda1 0.49999999999999994 Lambda2 0.5499999999999999 [dLambda 0.04999999999999999]
TCL: Setting parameter firsttimestep to 0
TCL: Setting parameter alchLambda to 0.49999999999999994
Info: NONBONDED TABLE R-SQUARED SPACING: 0.0625
Info: NONBONDED TABLE SIZE: 705 POINTS
TCL: Setting parameter alchLambda2 to 0.5499999999999999
Info: NONBONDED TABLE R-SQUARED SPACING: 0.0625
Info: NONBONDED TABLE SIZE: 705 POINTS
TCL: Running for 1500000 steps
ETITLE: TS BOND ANGLE DIHED IMPRP ELECT VDW BOUNDARY MISC KINETIC TOTAL TEMP POTENTIAL TOTALAVG TEMPAVG PRESSURE GPRESSURE VOLUME PRESSAVG GPRESSAVG
ENERGY: 0 2.5253 23.6898 11.3911 0.0000 -10482.7101 1364.8187 0.0000 0.0000 1727.1649 -7353.1203 295.9308 -9080.2852 -7353.1203 295.9308 -243.4388 -163.7728 30123.4612 -243.4388 -163.7728
ENERGY: 300000 4.6030 19.0657 12.6349 0.0000 -10621.0302 1434.2093 0.0000 0.0000 1727.1462 -7423.3710 295.9276 -9150.5172 -7385.4471 297.6453 114.0620 229.1285 29947.1440 50.6672 111.3573
ENERGY: 600000 6.6612 21.8563 13.1854 0.0000 -10517.9402 1391.3465 0.0000 0.0000 1804.8488 -7280.0421 309.2411 -9084.8909 -7364.6245 300.8466 -211.6186 -93.7324 30208.0083 -45.3884 26.2444
ENERGY: 900000 5.9194 22.0584 13.9506 0.0000 -10419.8732 1341.7025 0.0000 0.0000 1740.4994 -7295.7429 298.2156 -9036.2422 -7366.6271 298.6008 -717.1487 -597.9831 30653.9693 -181.2617 -101.0746
ENERGY: 1200000 5.5417 22.3984 11.8712 0.0000 -10616.5560 1468.6422 0.0000 0.0000 1739.6608 -7368.4417 298.0719 -9108.1025 -7360.8104 299.4349 465.0361 510.0091 29999.6319 -120.9910 -45.4092
ENERGY: 1500000 7.7798 22.0437 12.3774 0.0000 -10490.4848 1383.4601 0.0000 0.0000 1720.8304 -7343.9934 294.8455 -9064.8238 -7355.0954 298.7859 275.3499 357.5978 29727.9247 -84.1403 -4.2684
TCL: Running FEP window  12: Lambda1 0.5499999999999999 Lambda2 0.6    [dLambda 0.050000000000000044]
TCL: Setting parameter firsttimestep to 0
TCL: Setting parameter alchLambda to 0.5499999999999999
Info: NONBONDED TABLE R-SQUARED SPACING: 0.0625
Info: NONBONDED TABLE SIZE: 705 POINTS
TCL: Setting parameter alchLambda2 to 0.6
Info: NONBONDED TABLE R-SQUARED SPACING: 0.0625
Info: NONBONDED TABLE SIZE: 705 POINTS
TCL: Running for 1500000 steps
ETITLE: TS BOND ANGLE DIHED IMPRP ELECT VDW BOUNDARY MISC KINETIC TOTAL TEMP POTENTIAL TOTALAVG TEMPAVG PRESSURE GPRESSURE VOLUME PRESSAVG GPRESSAVG
ENERGY: 0 7.7798 22.0437 12.3774 0.0000 -10490.5041 1384.1052 0.0000 0.0000 1719.9979 -7344.2001 294.7029 -9064.1979 -7344.2001 294.7029 288.9120 378.5332 29727.9247 288.9120 378.5332
ENERGY: 300000 4.1628 24.0296 12.5797 0.0000 -10532.8392 1390.0471 0.0000 0.0000 1728.0065 -7374.0135 296.0751 -9102.0201 -7391.4302 297.4542 -240.5940 -222.7052 30604.4407 -23.5646 21.9660
ENERGY: 600000 5.9460 25.8741 13.9614 0.0000 -10534.6622 1392.3208 0.0000 0.0000 1716.9808 -7379.5791 294.1859 -9096.5600 -7402.5981 296.7798 -304.8754 -197.5843 30076.3478 -109.2292 -49.8390
ENERGY: 900000 4.5312 26.3440 12.4443 0.0000 -10766.2386 1503.0484 0.0000 0.0000 1723.7454 -7496.1254 295.3450 -9219.8708 -7399.9943 297.8620 651.6390 692.8028 29920.4027 53.5953 111.4426
ENERGY: 1200000 3.4128 19.3755 10.1775 0.0000 -10529.4385 1398.7349 0.0000 0.0000 1691.8387 -7405.8991 289.8781 -9097.7378 -7387.6238 297.7598 35.3194 96.5303 30049.5623 91.1192 143.4508
ENERGY: 1500000 4.5957 20.9107 11.0904 0.0000 -10552.1878 1424.5870 0.0000 0.0000 1720.7031 -7370.3010 294.8237 -9091.0041 -7394.0475 297.2358 480.9667 538.5081 29821.0234 148.0033 199.3856
TCL: Running FEP window  13: Lambda1 0.6    Lambda2 0.65   [dLambda 0.050000000000000044]
TCL: Setting parameter firsttimestep to 0
TCL: Setting parameter alchLambda to 0.6
Info: NONBONDED TABLE R-SQUARED SPACING: 0.0625
Info: NONBONDED TABLE SIZE: 705 POINTS
TCL: Setting parameter alchLambda2 to 0.65
Info: NONBONDED TABLE R-SQUARED SPACING: 0.0625
Info: NONBONDED TABLE SIZE: 705 POINTS
TCL: Running for 1500000 steps
ETITLE: TS BOND ANGLE DIHED IMPRP ELECT VDW BOUNDARY MISC KINETIC TOTAL TEMP POTENTIAL TOTALAVG TEMPAVG PRESSURE GPRESSURE VOLUME PRESSAVG GPRESSAVG
ENERGY: 0 4.5957 20.9107 11.0904 0.0000 -10552.3695 1424.7298 0.0000 0.0000 1719.8345 -7371.2084 294.6749 -9091.0429 -7371.2084 294.6749 478.7593 553.4476 29821.0234 478.7593 553.4476
ENERGY: 300000 3.8717 21.9322 13.0086 0.0000 -10486.7375 1349.8738 0.0000 0.0000 1818.7620 -7279.2892 311.6250 -9098.0511 -7346.6325 301.5006 -263.9791 -179.6403 29980.1427 203.8547 290.0882
ENERGY: 600000 4.5102 25.8981 9.2150 0.0000 -10490.1467 1335.7782 0.0000 0.0000 1697.2937 -7417.4515 290.8127 -9114.7452 -7361.2544 298.9243 -778.9477 -643.4502 30355.5715 -8.1670 79.6155
ENERGY: 900000 11.6748 21.6660 9.9140 0.0000 -10563.6390 1408.6700 0.0000 0.0000 1791.1582 -7320.5559 306.8954 -9111.7142 -7363.4928 299.3555 -78.7475 -35.6091 30184.1749 91.5275 166.9259
ENERGY: 1200000 7.2824 20.3732 10.0335 0.0000 -10640.3101 1443.1002 0.0000 0.0000 1792.9167 -7366.6042 307.1967 -9159.5209 -7370.5087 299.9948 199.0872 216.0006 29908.9181 -20.2124 54.9629
ENERGY: 1500000 9.0928 23.6614 11.8508 0.0000 -10730.9117 1523.8596 0.0000 0.0000 1746.7141 -7415.7330 299.2804 -9162.4471 -7368.0428 300.5739 635.9776 688.5262 29938.3209 17.1816 89.1821
TCL: Running FEP window  14: Lambda1 0.65   Lambda2 0.7000000000000001 [dLambda 0.050000000000000044]
TCL: Setting parameter firsttimestep to 0
TCL: Setting parameter alchLambda to 0.65
Info: NONBONDED TABLE R-SQUARED SPACING: 0.0625
Info: NONBONDED TABLE SIZE: 705 POINTS
TCL: Setting parameter alchLambda2 to 0.7000000000000001
Info: NONBONDED TABLE R-SQUARED SPACING: 0.0625
Info: NONBONDED TABLE SIZE: 705 POINTS
TCL: Running for 1500000 steps
ETITLE: TS BOND ANGLE DIHED IMPRP ELECT VDW BOUNDARY MISC KINETIC TOTAL TEMP POTENTIAL TOTALAVG TEMPAVG PRESSURE GPRESSURE VOLUME PRESSAVG GPRESSAVG
ENERGY: 0 9.0928 23.6614 11.8508 0.0000 -10731.0033 1523.1304 0.0000 0.0000 1745.8414 -7417.4265 299.1309 -9163.2679 -7417.4265 299.1309 624.1304 696.8064 29938.3209 624.1304 696.8064
ENERGY: 300000 5.0649 19.8036 12.2671 0.0000 -10579.6267 1385.0657 0.0000 0.0000 1713.5415 -7443.8839 293.5966 -9157.4254 -7383.0087 297.7125 -340.9628 -375.9735 30314.8534 134.0113 188.6256
ENERGY: 600000 5.1265 25.3072 8.7383 0.0000 -10705.2403 1478.7685 0.0000 0.0000 1763.6023 -7423.6975 302.1740 -9187.2998 -7411.7093 297.8640 323.5146 407.7089 29654.5089 144.2133 200.6043
ENERGY: 900000 7.7550 26.5510 9.9963 0.0000 -10567.0951 1461.8714 0.0000 0.0000 1772.6489 -7288.2724 303.7240 -9060.9214 -7382.1068 299.8244 75.6271 200.1063 30302.9656 65.1988 136.5549
ENERGY: 1200000 5.0954 19.0494 14.0230 0.0000 -10658.6801 1409.8180 0.0000 0.0000 1705.0426 -7505.6517 292.1404 -9210.6943 -7383.0618 299.1622 -124.4716 -115.9034 29714.1134 -76.2857 -15.6038
ENERGY: 1500000 2.8076 23.0050 13.3821 0.0000 -10664.7446 1448.2179 0.0000 0.0000 1682.8859 -7494.4461 288.3441 -9177.3320 -7387.2150 298.7977 8.1543 89.7333 30061.3482 -28.0876 30.0800
TCL: Running FEP window  15: Lambda1 0.7000000000000001 Lambda2 0.7500000000000001 [dLambda 0.050000000000000044]
TCL: Setting parameter firsttimestep to 0
TCL: Setting parameter alchLambda to 0.7000000000000001
Info: NONBONDED TABLE R-SQUARED SPACING: 0.0625
Info: NONBONDED TABLE SIZE: 705 POINTS
TCL: Setting parameter alchLambda2 to 0.7500000000000001
Info: NONBONDED TABLE R-SQUARED SPACING: 0.0625
Info: NONBONDED TABLE SIZE: 705 POINTS
TCL: Running for 1500000 steps
ETITLE: TS BOND ANGLE DIHED IMPRP ELECT VDW BOUNDARY MISC KINETIC TOTAL TEMP POTENTIAL TOTALAVG TEMPAVG PRESSURE GPRESSURE VOLUME PRESSAVG GPRESSAVG
ENERGY: 0 2.8076 23.0050 13.3821 0.0000 -10666.4569 1447.6450 0.0000 0.0000 1682.0058 -7497.6114 288.1933 -9179.6172 -7497.6114 288.1933 31.3057 98.7126 30061.3482 31.3057 98.7126
ENERGY: 300000 2.9750 25.5635 9.5955 0.0000 -10647.3599 1451.4925 0.0000 0.0000 1748.0672 -7409.6662 299.5122 -9157.7334 -7423.3569 296.6811 691.0243 661.4561 29477.0554 -29.2498 19.2537
ENERGY: 600000 6.3343 24.2200 11.8322 0.0000 -10672.3243 1458.3537 0.0000 0.0000 1731.6049 -7439.9792 296.6916 -9171.5841 -7428.9514 296.9658 143.4096 151.7777 30199.5645 -182.7251 -125.8326
ENERGY: 900000 9.2006 24.0874 11.7597 0.0000 -10523.6069 1371.1671 0.0000 0.0000 1711.5865 -7395.8056 293.2617 -9107.3921 -7418.8373 297.2680 -284.6152 -207.5361 30553.2076 -206.9901 -146.0195
ENERGY: 1200000 7.7204 24.2703 12.7001 0.0000 -10679.8437 1447.8161 0.0000 0.0000 1765.2739 -7422.0628 302.4604 -9187.3367 -7418.6062 297.0075 442.5539 539.8068 29670.2777 -152.6056 -88.0883
ENERGY: 1500000 5.0373 20.5684 11.6297 0.0000 -10617.7682 1408.6426 0.0000 0.0000 1782.8765 -7389.0137 305.4764 -9171.8901 -7407.4466 298.2662 185.5486 277.1629 29900.5561 -72.7795 -0.4456
TCL: Running FEP window  16: Lambda1 0.7500000000000001 Lambda2 0.8000000000000002 [dLambda 0.050000000000000044]
TCL: Setting parameter firsttimestep to 0
TCL: Setting parameter alchLambda to 0.7500000000000001
Info: NONBONDED TABLE R-SQUARED SPACING: 0.0625
Info: NONBONDED TABLE SIZE: 705 POINTS
TCL: Setting parameter alchLambda2 to 0.8000000000000002
Info: NONBONDED TABLE R-SQUARED SPACING: 0.0625
Info: NONBONDED TABLE SIZE: 705 POINTS
TCL: Running for 1500000 steps
ETITLE: TS BOND ANGLE DIHED IMPRP ELECT VDW BOUNDARY MISC KINETIC TOTAL TEMP POTENTIAL TOTALAVG TEMPAVG PRESSURE GPRESSURE VOLUME PRESSAVG GPRESSAVG
ENERGY: 0 5.0373 20.5684 11.6297 0.0000 -10619.6717 1408.4167 0.0000 0.0000 1782.0311 -7391.9885 305.3316 -9174.0196 -7391.9885 305.3316 185.8641 284.5119 29900.5561 185.8641 284.5119
ENERGY: 300000 13.6029 22.5940 12.3884 0.0000 -10592.4057 1385.1939 0.0000 0.0000 1741.6323 -7416.9942 298.4097 -9158.6265 -7384.7364 301.8594 -338.8177 -208.8449 30167.7843 -79.3449 6.4830
ENERGY: 600000 4.9338 22.3398 14.0550 0.0000 -10794.9496 1535.5807 0.0000 0.0000 1737.9555 -7480.0848 297.7797 -9218.0403 -7403.5055 299.8710 727.8428 780.7910 30051.5232 12.5591 74.2326
ENERGY: 900000 3.2178 23.8174 12.5831 0.0000 -10504.6726 1366.1221 0.0000 0.0000 1774.9012 -7324.0309 304.1099 -9098.9321 -7394.5364 300.1766 40.9983 85.4395 29933.5099 2.4560 64.5963
ENERGY: 1200000 4.3364 18.9968 12.4046 0.0000 -10605.7126 1405.4943 0.0000 0.0000 1770.6970 -7393.7835 303.3896 -9164.4805 -7389.4705 300.8089 -57.2849 30.0011 30064.7937 33.6181 100.2285
ENERGY: 1500000 4.0997 27.0614 13.0075 0.0000 -10633.8862 1453.8668 0.0000 0.0000 1670.1317 -7465.7192 286.1588 -9135.8508 -7386.5837 300.9170 246.0884 284.4050 30078.3455 75.4108 145.8595
TCL: Running FEP window  17: Lambda1 0.8000000000000002 Lambda2 0.8500000000000002 [dLambda 0.050000000000000044]
TCL: Setting parameter firsttimestep to 0
TCL: Setting parameter alchLambda to 0.8000000000000002
Info: NONBONDED TABLE R-SQUARED SPACING: 0.0625
Info: NONBONDED TABLE SIZE: 705 POINTS
TCL: Setting parameter alchLambda2 to 0.8500000000000002
Info: NONBONDED TABLE R-SQUARED SPACING: 0.0625
Info: NONBONDED TABLE SIZE: 705 POINTS
TCL: Running for 1500000 steps
ETITLE: TS BOND ANGLE DIHED IMPRP ELECT VDW BOUNDARY MISC KINETIC TOTAL TEMP POTENTIAL TOTALAVG TEMPAVG PRESSURE GPRESSURE VOLUME PRESSAVG GPRESSAVG
ENERGY: 0 4.0997 27.0614 13.0075 0.0000 -10635.9163 1453.9818 0.0000 0.0000 1669.2357 -7468.5302 286.0053 -9137.7660 -7468.5302 286.0053 230.5327 303.4129 30078.3455 230.5327 303.4129
ENERGY: 300000 6.5380 17.8334 11.9556 0.0000 -10663.1870 1473.1780 0.0000 0.0000 1737.3960 -7416.2861 297.6838 -9153.6821 -7466.3971 293.0586 320.6377 385.2130 30135.1768 326.6718 387.7703
ENERGY: 600000 5.6120 22.9015 9.2214 0.0000 -10631.4731 1433.5374 0.0000 0.0000 1743.9981 -7416.2026 298.8150 -9160.2007 -7430.0252 295.2890 107.2890 211.2351 30101.8473 -12.9639 67.4586
ENERGY: 900000 6.3506 24.2341 18.0865 0.0000 -10651.1419 1409.1636 0.0000 0.0000 1728.6320 -7464.6752 296.1822 -9193.3072 -7428.0073 295.9870 -154.7513 -126.6758 29795.4566 29.9117 104.7382
ENERGY: 1200000 7.3270 25.3865 11.5594 0.0000 -10619.6646 1428.7865 0.0000 0.0000 1731.8279 -7414.7773 296.7298 -9146.6052 -7416.5179 295.6290 169.5848 253.8111 30039.5235 111.2102 186.7842
ENERGY: 1500000 10.2678 22.8894 12.1417 0.0000 -10625.9454 1448.6792 0.0000 0.0000 1732.4697 -7399.4976 296.8398 -9131.9673 -7419.5314 296.2384 488.3236 510.5987 30326.8387 106.0269 175.8157
TCL: Running FEP window  18: Lambda1 0.8500000000000002 Lambda2 0.9000000000000002 [dLambda 0.050000000000000044]
TCL: Setting parameter firsttimestep to 0
TCL: Setting parameter alchLambda to 0.8500000000000002
Info: NONBONDED TABLE R-SQUARED SPACING: 0.0625
Info: NONBONDED TABLE SIZE: 705 POINTS
TCL: Setting parameter alchLambda2 to 0.9000000000000002
Info: NONBONDED TABLE R-SQUARED SPACING: 0.0625
Info: NONBONDED TABLE SIZE: 705 POINTS
TCL: Running for 1500000 steps
ETITLE: TS BOND ANGLE DIHED IMPRP ELECT VDW BOUNDARY MISC KINETIC TOTAL TEMP POTENTIAL TOTALAVG TEMPAVG PRESSURE GPRESSURE VOLUME PRESSAVG GPRESSAVG
ENERGY: 0 10.2678 22.8894 12.1417 0.0000 -10627.3691 1447.9233 0.0000 0.0000 1731.6063 -7402.5406 296.6918 -9134.1470 -7402.5406 296.6918 431.7098 514.7876 30326.8387 431.7098 514.7876
ENERGY: 300000 5.2178 23.2156 12.7723 0.0000 -10630.1783 1410.3646 0.0000 0.0000 1700.5881 -7478.0198 291.3772 -9178.6080 -7419.2033 296.3353 -280.5473 -176.1698 30137.4084 192.2524 269.3255
ENERGY: 600000 7.3887 14.5272 11.3051 0.0000 -10623.8603 1417.8136 0.0000 0.0000 1805.4497 -7367.3761 309.3441 -9172.8257 -7398.5451 298.5472 54.4008 98.3438 30137.4299 97.3805 176.4927
ENERGY: 900000 4.5457 20.4249 14.3619 0.0000 -10525.2505 1359.6732 0.0000 0.0000 1763.2709 -7362.9740 302.1172 -9126.2449 -7404.3141 298.6350 -369.0054 -328.4393 30411.1429 31.9612 96.2411
ENERGY: 1200000 7.0035 23.6698 13.2888 0.0000 -10536.6524 1385.2815 0.0000 0.0000 1692.0181 -7415.3906 289.9088 -9107.4088 -7413.5315 297.8442 -181.9015 -152.5691 30203.2969 -50.2578 11.5449
ENERGY: 1500000 4.3898 23.3980 12.5323 0.0000 -10551.7246 1352.5494 0.0000 0.0000 1766.6590 -7392.1961 302.6977 -9158.8552 -7413.6804 297.7643 -701.4186 -624.7677 30154.6820 -33.1222 29.9181
TCL: Running FEP window  19: Lambda1 0.9000000000000002 Lambda2 0.9500000000000003 [dLambda 0.050000000000000044]
TCL: Setting parameter firsttimestep to 0
TCL: Setting parameter alchLambda to 0.9000000000000002
Info: NONBONDED TABLE R-SQUARED SPACING: 0.0625
Info: NONBONDED TABLE SIZE: 705 POINTS
TCL: Setting parameter alchLambda2 to 0.9500000000000003
Info: NONBONDED TABLE R-SQUARED SPACING: 0.0625
Info: NONBONDED TABLE SIZE: 705 POINTS
TCL: Running for 1500000 steps
ETITLE: TS BOND ANGLE DIHED IMPRP ELECT VDW BOUNDARY MISC KINETIC TOTAL TEMP POTENTIAL TOTALAVG TEMPAVG PRESSURE GPRESSURE VOLUME PRESSAVG GPRESSAVG
ENERGY: 0 4.3898 23.3980 12.5323 0.0000 -10554.4887 1353.4713 0.0000 0.0000 1765.7982 -7394.8991 302.5503 -9160.6973 -7394.8991 302.5503 -676.9842 -603.8664 30154.6820 -676.9842 -603.8664
ENERGY: 300000 4.5055 24.5084 11.7108 0.0000 -10579.6651 1387.9646 0.0000 0.0000 1733.4656 -7417.5102 297.0104 -9150.9758 -7368.0713 304.5966 -314.0018 -226.0523 30294.3850 -366.8665 -296.1398
ENERGY: 600000 8.4875 18.3650 11.3042 0.0000 -10468.7429 1404.1322 0.0000 0.0000 1726.2591 -7300.1950 295.7757 -9026.4541 -7360.1608 304.4917 -16.7708 60.5809 30591.4993 -260.1259 -196.8625
ENERGY: 900000 4.8226 19.8096 11.9236 0.0000 -10539.1787 1404.2516 0.0000 0.0000 1756.8594 -7341.5120 301.0187 -9098.3714 -7368.9819 302.2997 642.0351 602.4517 29422.3124 -217.1318 -155.4738
ENERGY: 1200000 8.2014 23.9076 14.0645 0.0000 -10505.4870 1359.5309 0.0000 0.0000 1700.3826 -7399.3999 291.3420 -9099.7826 -7382.6381 300.5207 -140.4031 -149.4659 30168.7281 -114.2067 -61.0350
ENERGY: 1500000 8.2664 20.8060 13.7583 0.0000 -10623.6501 1424.2634 0.0000 0.0000 1703.8669 -7452.6892 291.9390 -9156.5560 -7378.3896 299.8940 -279.5853 -232.7305 30633.9462 -82.0163 -23.3483
TCL: Running FEP window  20: Lambda1 0.9500000000000003 Lambda2 1.0    [dLambda 0.04999999999999971]
TCL: Setting parameter firsttimestep to 0
TCL: Setting parameter alchLambda to 0.9500000000000003
Info: NONBONDED TABLE R-SQUARED SPACING: 0.0625
Info: NONBONDED TABLE SIZE: 705 POINTS
TCL: Setting parameter alchLambda2 to 1.0
Info: NONBONDED TABLE R-SQUARED SPACING: 0.0625
Info: NONBONDED TABLE SIZE: 705 POINTS
TCL: Running for 1500000 steps
ETITLE: TS BOND ANGLE DIHED IMPRP ELECT VDW BOUNDARY MISC KINETIC TOTAL TEMP POTENTIAL TOTALAVG TEMPAVG PRESSURE GPRESSURE VOLUME PRESSAVG GPRESSAVG
ENERGY: 0 8.2664 20.8060 13.7583 0.0000 -10625.3612 1423.7931 0.0000 0.0000 1702.9894 -7455.7481 291.7886 -9158.7375 -7455.7481 291.7886 -298.2319 -224.1527 30633.9462 -298.2319 -224.1527
ENERGY: 300000 12.5891 22.5348 14.9762 0.0000 -10631.2891 1467.4597 0.0000 0.0000 1763.9719 -7349.7573 302.2373 -9113.7292 -7397.3740 301.5253 579.5990 669.3874 30080.3587 -13.0121 56.6643
ENERGY: 600000 6.5032 24.0639 13.8531 0.0000 -10541.3053 1400.3463 0.0000 0.0000 1814.3113 -7282.2275 310.8624 -9096.5389 -7393.9962 302.6307 -106.6857 -65.4719 30494.0066 -32.9618 41.4060
ENERGY: 900000 4.9166 21.8277 10.9123 0.0000 -10608.5547 1430.9114 0.0000 0.0000 1804.6565 -7335.3301 309.2082 -9139.9867 -7372.0719 303.2567 451.7441 477.2324 29984.0711 -91.5480 -30.4109
ENERGY: 1200000 6.6858 18.7637 14.9978 0.0000 -10431.8116 1279.9721 0.0000 0.0000 1774.5856 -7336.8065 304.0559 -9111.3921 -7373.5089 303.4421 -975.3474 -950.6914 30473.3975 -205.8334 -147.7735
ENERGY: 1500000 6.3561 23.8902 12.9304 0.0000 -10589.8699 1375.4157 0.0000 0.0000 1736.2989 -7434.9787 297.4959 -9171.2775 -7382.9378 302.4670 -287.0268 -192.1886 30065.7064 -184.1443 -123.4789
TCL: Exiting due to exit command.
