Info: SIMULATION PARAMETERS:
Info: TIMESTEP               2
Info: NUMBER OF STEPS        0
Info: STEPS PER CYCLE        10
Info: PERIODIC CELL BASIS 1  29.9269 0 0
Info: PERIODIC CELL BASIS 2  0 33.0669 0
Info: PERIODIC CELL BASIS 3  0 0 30.5621
Info: PERIODIC CELL CENTER   0 0 0
Info: WRAPPING WATERS AROUND PERIODIC BOUNDARIES ON OUTPUT.
Info: WRAPPING ALL CLUSTERS AROUND PERIODIC BOUNDARIES ON OUTPUT.
Info: FIRST LDB TIMESTEP     50
Info: LAST LDB TIMESTEP     -1
Info: HOM BACKGROUND SCALING 1
Info: PME BACKGROUND SCALING 1
Info: MIN ATOMS PER PATCH    40
Info: EMPTY PATCH LOAD       40 ATOMS
Info: VELOCITY FILE          mobley_3060426_equil.vel
Info: CENTER OF MASS MOVING INITIALLY? NO
Info: DIELECTRIC             1
Info: EXCLUDE                SCALED ONE-FOUR
Info: 1-4 ELECTROSTATICS SCALED BY 0.833333
Info: MODIFIED 1-4 VDW PARAMETERS WILL BE USED
Info: DCD FILENAME           mobley_3060426_prod.dcd
Info: DCD FREQUENCY          100000
Info: DCD FIRST STEP         100000
Info: DCD FILE WILL CONTAIN UNIT CELL DATA
Info: XST FILENAME           mobley_3060426_prod.xst
Info: XST FREQUENCY          100000
Info: NO VELOCITY DCD OUTPUT
Info: NO FORCE DCD OUTPUT
Info: OUTPUT FILENAME        mobley_3060426_prod
Info: BINARY OUTPUT FILES WILL BE USED
Info: RESTART FILENAME       mobley_3060426_prod.restart
Info: RESTART FREQUENCY      100000
Info: BINARY RESTART FILES WILL BE USED
Info: CUTOFF                 9
Info: PAIRLIST DISTANCE      11
Info: PAIRLIST SHRINK RATE   0.01
Info: PAIRLIST GROW RATE     0.01
Info: PAIRLIST TRIGGER       0.3
Info: PAIRLISTS PER CYCLE    2
Info: PAIRLISTS ENABLED
Info: MARGIN                 2
Info: HYDROGEN GROUP CUTOFF  2.5
Info: PATCH DIMENSION        15.5
Info: ENERGY OUTPUT STEPS    100000
Info: ENERGY EVALUATION STEPS    100000
Info: OUTPUT ENERGY PRECISION 4
Info: CROSSTERM ENERGY INCLUDED IN DIHEDRAL
Info: TIMING OUTPUT STEPS    1000000
Info: PRESSURE OUTPUT STEPS  100000
Info: ALCHEMICAL FEP ON
Info: FEP CURRENT LAMBDA VALUE     0
Info: FEP COMPARISON LAMBDA VALUE  0.05
Info: FEP INTRA-ALCHEMICAL NON-BONDED INTERACTIONS WILL BE RETAINED
Info: FEP INTRA-ALCHEMICAL BONDED INTERACTIONS WILL BE RETAINED
Info: FEP VDW SHIFTING COEFFICIENT 5
Info: FEP ELEC. ACTIVE FOR ANNIHILATED PARTICLES BETWEEN LAMBDA = 0 AND LAMBDA = 0.5
Info: FEP ELEC. ACTIVE FOR EXNIHILATED PARTICLES BETWEEN LAMBDA = 0.5 AND LAMBDA = 1
Info: FEP VDW ACTIVE FOR ANNIHILATED PARTICLES BETWEEN LAMBDA = 0 AND LAMBDA = 1
Info: FEP VDW ACTIVE FOR EXNIHILATED PARTICLES BETWEEN LAMBDA = 0 AND LAMBDA = 1
Info: FEP BOND ACTIVE FOR ANNIHILATED PARTICLES BETWEEN LAMBDA = 1 AND LAMBDA = 1
Info: FEP BOND ACTIVE FOR EXNIHILATED PARTICLES BETWEEN LAMBDA = 0 AND LAMBDA = 0
Info: LANGEVIN DYNAMICS ACTIVE
Info: LANGEVIN TEMPERATURE   300
Info: LANGEVIN USING BBK INTEGRATOR
Info: LANGEVIN DAMPING COEFFICIENT IS 1 INVERSE PS
Info: LANGEVIN DYNAMICS APPLIED TO HYDROGENS
Info: LANGEVIN PISTON PRESSURE CONTROL ACTIVE
Info:        TARGET PRESSURE IS 1.01325 BAR
Info:     OSCILLATION PERIOD IS 50 FS
Info:             DECAY TIME IS 25 FS
Info:     PISTON TEMPERATURE IS 300 K
Info:       PRESSURE CONTROL IS GROUP-BASED
Info:    INITIAL STRAIN RATE IS -0.000388387 -0.000388387 -0.000388387
Info:       CELL FLUCTUATION IS ISOTROPIC
Info: PARTICLE MESH EWALD (PME) ACTIVE
Info: PME TOLERANCE               1e-06
Info: PME EWALD COEFFICIENT       0.348832
Info: PME INTERPOLATION ORDER     4
Info: PME GRID DIMENSIONS         32 36 32
Info: PME MAXIMUM GRID SPACING    1
Info: PME CALCULATION WILL BE PERFORMED ON GPU
Info: FULL ELECTROSTATIC EVALUATION FREQUENCY      2
Info: USING VERLET I (r-RESPA) MTS SCHEME.
Info: C1 SPLITTING OF LONG RANGE ELECTROSTATICS
Info: PLACING ATOMS IN PATCHES BY HYDROGEN GROUPS
Info: RIGID BONDS TO HYDROGEN : ALL
Info:         ERROR TOLERANCE : 1e-08
Info:          MAX ITERATIONS : 100
Info: RIGID WATER USING SETTLE ALGORITHM
Info: RANDOM NUMBER SEED     1743908935
Info: USE HYDROGEN BONDS?    NO
Info: Using AMBER format force field!
Info: AMBER PARM FILE        mobley_3060426.prmtop
Info: COORDINATE PDB         mobley_3060426.pdb
Info: Exclusions will be read from PARM file!
Info: SCNB (VDW SCALING)     2
Info: USING ARITHMETIC MEAN TO COMBINE L-J SIGMA PARAMETERS
Info: BINARY COORDINATES     mobley_3060426_equil.coor
Info: SUMMARY OF PARAMETERS:
Info: 4 BONDS
Info: 3 ANGLES
Info:   3 HARMONIC
Info:   0 COSINE-BASED
Info: 5 DIHEDRAL
Info: 0 IMPROPER
Info: 0 CROSSTERM
Info: 0 VDW
Info: 10 VDW_PAIRS
Info: 0 NBTHOLE_PAIRS
Info: To read alchdata from file: mobley_3060426.pdb
Info: To read alchflag data from column: 5
Info: STRUCTURE SUMMARY:
Info: 2957 ATOMS
Info: 2956 BONDS
Info: 54 ANGLES
Info: 84 DIHEDRALS
Info: 0 IMPROPERS
Info: 0 CROSSTERMS
Info: 3082 EXCLUSIONS
Info: 2948 RIGID BONDS
Info: ALCH: 0 ATOMS TO DISAPPEAR IN FINAL STATE
Info: ALCH: 29 ATOMS TO APPEAR IN FINAL STATE
Info: 5923 DEGREES OF FREEDOM
Info: 985 HYDROGEN GROUPS
Info: 4 ATOMS IN LARGEST HYDROGEN GROUP
Info: 985 MIGRATION GROUPS
Info: 4 ATOMS IN LARGEST MIGRATION GROUP
Info: TOTAL MASS = 17711.9 amu
Info: TOTAL CHARGE = 0.00029999 e
Info: MASS DENSITY = 0.972489 g/cm^3
Info: ATOM DENSITY = 0.0977715 atoms/A^3
Info: ADDED 0 IMPLICIT EXCLUSIONS
Info: NONBONDED TABLE R-SQUARED SPACING: 0.0625
Info: NONBONDED TABLE SIZE: 705 POINTS
Info: REMOVING COM VELOCITY 0.0756151 0.139712 0.0178505
Info: Use 3D box decompostion in PME FFT.
Info: Updated CUDA force table with 4096 elements.
Info: Updated CUDA LJ table with 4 x 4 elements.
Info: Found 32 unique exclusion lists needing 124 bytes
TCL: Running for 1500000 steps
ETITLE: TS BOND ANGLE DIHED IMPRP ELECT VDW BOUNDARY MISC KINETIC TOTAL TEMP POTENTIAL TOTALAVG TEMPAVG PRESSURE GPRESSURE VOLUME PRESSAVG GPRESSAVG
ENERGY: 0 1.5404 10.4895 7.4326 0.0000 -10787.4647 1590.1445 0.0000 0.0000 1735.1707 -7442.6870 294.8430 -9177.8577 -7442.6870 294.8430 1200.4449 1295.2149 30243.9773 1200.4449 1295.2149
ENERGY: 300000 6.4834 11.0664 4.1464 0.0000 -10600.7453 1431.7477 0.0000 0.0000 1794.0472 -7353.2541 304.8474 -9147.3013 -7412.2915 302.6268 -124.8611 -21.4070 30282.3489 321.9508 397.9443
ENERGY: 600000 1.8054 14.1142 4.8939 0.0000 -10569.9226 1364.8494 0.0000 0.0000 1723.9585 -7460.3011 292.9378 -9184.2596 -7424.3964 302.0123 -489.1043 -494.2800 30166.3520 211.5853 271.8571
ENERGY: 900000 7.4799 15.0605 5.3585 0.0000 -10742.1629 1446.1088 0.0000 0.0000 1715.4383 -7552.7169 291.4901 -9268.1552 -7435.9055 300.5441 -36.5766 -5.2422 29642.0623 231.9603 290.5797
ENERGY: 1200000 4.4553 14.3705 4.4764 0.0000 -10511.0475 1331.7945 0.0000 0.0000 1794.4654 -7361.4853 304.9185 -9155.9507 -7432.1504 300.4156 -920.4927 -867.4190 30271.2953 196.2902 255.5254
ENERGY: 1500000 2.5396 13.1242 6.0623 0.0000 -10833.0167 1556.9182 0.0000 0.0000 1841.2371 -7413.1354 312.8660 -9254.3724 -7438.0454 300.7773 781.4920 899.4795 29855.6341 233.6107 296.8494
TCL: Running FEP window   2: Lambda1 0.05   Lambda2 0.1    [dLambda 0.05  ]
TCL: Setting parameter firsttimestep to 0
TCL: Setting parameter alchLambda to 0.05
Info: NONBONDED TABLE R-SQUARED SPACING: 0.0625
Info: NONBONDED TABLE SIZE: 705 POINTS
TCL: Setting parameter alchLambda2 to 0.1
Info: NONBONDED TABLE R-SQUARED SPACING: 0.0625
Info: NONBONDED TABLE SIZE: 705 POINTS
TCL: Running for 1500000 steps
ETITLE: TS BOND ANGLE DIHED IMPRP ELECT VDW BOUNDARY MISC KINETIC TOTAL TEMP POTENTIAL TOTALAVG TEMPAVG PRESSURE GPRESSURE VOLUME PRESSAVG GPRESSAVG
ENERGY: 0 2.5396 13.1242 6.0623 0.0000 -10833.0171 1558.9744 0.0000 0.0000 1840.3652 -7411.9514 312.7178 -9252.3165 -7411.9514 312.7178 827.4457 909.1065 29855.6341 827.4457 909.1065
ENERGY: 300000 3.2306 8.5639 5.5989 0.0000 -10809.5369 1554.0610 0.0000 0.0000 1775.7962 -7462.2862 301.7462 -9238.0824 -7471.9366 303.5500 848.8071 891.2849 29988.8100 310.6676 369.5958
ENERGY: 600000 2.1002 14.6486 3.8408 0.0000 -10739.1214 1529.3307 0.0000 0.0000 1820.2415 -7368.9596 309.2984 -9189.2011 -7442.8614 305.1500 1007.5140 1015.0466 29592.2257 7.8207 63.6406
ENERGY: 900000 2.5176 14.5777 3.7307 0.0000 -10759.8068 1543.3713 0.0000 0.0000 1759.8350 -7435.7745 299.0340 -9195.6095 -7430.7815 304.3733 960.0633 1053.2352 29813.6645 66.3273 129.9435
ENERGY: 1200000 2.3421 13.6839 6.1037 0.0000 -10742.4925 1469.5103 0.0000 0.0000 1781.1932 -7469.6594 302.6632 -9250.8525 -7427.0398 304.0926 113.7922 106.0843 30124.0456 81.0498 141.5118
ENERGY: 1500000 4.7049 17.7727 5.8608 0.0000 -10671.9088 1380.2090 0.0000 0.0000 1689.0630 -7574.2984 287.0083 -9263.3614 -7443.2505 301.8782 -528.6633 -462.9643 30002.7699 44.8655 111.2631
TCL: Running FEP window   3: Lambda1 0.1    Lambda2 0.15000000000000002 [dLambda 0.05000000000000002]
TCL: Setting parameter firsttimestep to 0
TCL: Setting parameter alchLambda to 0.1
Info: NONBONDED TABLE R-SQUARED SPACING: 0.0625
Info: NONBONDED TABLE SIZE: 705 POINTS
TCL: Setting parameter alchLambda2 to 0.15000000000000002
Info: NONBONDED TABLE R-SQUARED SPACING: 0.0625
Info: NONBONDED TABLE SIZE: 705 POINTS
TCL: Running for 1500000 steps
ETITLE: TS BOND ANGLE DIHED IMPRP ELECT VDW BOUNDARY MISC KINETIC TOTAL TEMP POTENTIAL TOTALAVG TEMPAVG PRESSURE GPRESSURE VOLUME PRESSAVG GPRESSAVG
ENERGY: 0 4.7049 17.7727 5.8608 0.0000 -10671.9116 1381.7031 0.0000 0.0000 1688.1617 -7573.7084 286.8552 -9261.8701 -7573.7084 286.8552 -547.0372 -453.7710 30002.7699 -547.0372 -453.7710
ENERGY: 300000 1.7482 11.9293 4.1066 0.0000 -10801.4228 1554.3613 0.0000 0.0000 1715.5861 -7513.6912 291.5152 -9229.2773 -7459.5531 297.1557 949.1504 944.9317 29892.2564 284.8829 344.6822
ENERGY: 600000 4.1353 11.7333 3.9375 0.0000 -10592.3788 1403.4574 0.0000 0.0000 1790.6612 -7378.4541 304.2721 -9169.1152 -7439.5904 298.9838 -118.8298 -50.6547 30186.1237 -3.0904 45.1705
ENERGY: 900000 2.9368 16.1992 3.8713 0.0000 -10701.1959 1455.8116 0.0000 0.0000 1770.8832 -7451.4939 300.9113 -9222.3771 -7441.1438 299.6588 57.3750 48.2896 30115.4882 -84.9897 -41.8571
ENERGY: 1200000 6.8027 11.9636 5.1277 0.0000 -10693.4943 1529.8954 0.0000 0.0000 1783.7575 -7355.9475 303.0990 -9139.7049 -7425.3535 300.4488 615.0253 643.1262 30740.5795 -23.0593 14.7982
ENERGY: 1500000 3.4267 12.5713 4.9400 0.0000 -10619.5847 1357.4945 0.0000 0.0000 1775.2422 -7465.9099 301.6520 -9241.1521 -7433.0814 300.2487 -809.5028 -770.4523 30155.2283 -124.8589 -77.7519
TCL: Running FEP window   4: Lambda1 0.15000000000000002 Lambda2 0.2    [dLambda 0.04999999999999999]
TCL: Setting parameter firsttimestep to 0
TCL: Setting parameter alchLambda to 0.15000000000000002
Info: NONBONDED TABLE R-SQUARED SPACING: 0.0625
Info: NONBONDED TABLE SIZE: 705 POINTS
TCL: Setting parameter alchLambda2 to 0.2
Info: NONBONDED TABLE R-SQUARED SPACING: 0.0625
Info: NONBONDED TABLE SIZE: 705 POINTS
TCL: Running for 1500000 steps
ETITLE: TS BOND ANGLE DIHED IMPRP ELECT VDW BOUNDARY MISC KINETIC TOTAL TEMP POTENTIAL TOTALAVG TEMPAVG PRESSURE GPRESSURE VOLUME PRESSAVG GPRESSAVG
ENERGY: 0 3.4267 12.5713 4.9400 0.0000 -10619.5835 1358.0063 0.0000 0.0000 1774.3639 -7466.2753 301.5028 -9240.6392 -7466.2753 301.5028 -846.4843 -761.9570 30155.2283 -846.4843 -761.9570
ENERGY: 300000 5.2841 14.0213 4.6089 0.0000 -10673.1596 1443.0868 0.0000 0.0000 1796.4901 -7409.6683 305.2625 -9206.1584 -7457.0017 301.2687 -42.1277 29.6897 30371.5912 -480.4623 -398.1734
ENERGY: 600000 0.6260 14.5311 8.0584 0.0000 -10589.8571 1392.1170 0.0000 0.0000 1789.8128 -7384.7119 304.1279 -9174.5246 -7446.9044 300.8089 -256.6764 -209.7369 30267.7558 -227.0160 -149.6982
ENERGY: 900000 0.9802 13.1027 5.8864 0.0000 -10533.6517 1359.1712 0.0000 0.0000 1748.8773 -7405.6341 297.1721 -9154.5113 -7440.2938 301.3237 -382.6566 -365.7035 30371.4200 -128.4480 -60.6103
ENERGY: 1200000 2.7148 15.9578 6.3409 0.0000 -10631.1240 1441.5316 0.0000 0.0000 1754.6484 -7409.9305 298.1527 -9164.5788 -7433.6698 300.6881 56.6720 137.6662 30326.1452 -134.3104 -73.4640
ENERGY: 1500000 1.5724 13.9644 5.4133 0.0000 -10674.9387 1452.8561 0.0000 0.0000 1755.9693 -7445.1631 298.3772 -9201.1324 -7435.0896 300.0057 70.1018 147.5809 30337.4309 -87.5765 -31.1464
TCL: Running FEP window   5: Lambda1 0.2    Lambda2 0.25   [dLambda 0.04999999999999999]
TCL: Setting parameter firsttimestep to 0
TCL: Setting parameter alchLambda to 0.2
Info: NONBONDED TABLE R-SQUARED SPACING: 0.0625
Info: NONBONDED TABLE SIZE: 705 POINTS
TCL: Setting parameter alchLambda2 to 0.25
Info: NONBONDED TABLE R-SQUARED SPACING: 0.0625
Info: NONBONDED TABLE SIZE: 705 POINTS
TCL: Running for 1500000 steps
ETITLE: TS BOND ANGLE DIHED IMPRP ELECT VDW BOUNDARY MISC KINETIC TOTAL TEMP POTENTIAL TOTALAVG TEMPAVG PRESSURE GPRESSURE VOLUME PRESSAVG GPRESSAVG
ENERGY: 0 1.5724 13.9644 5.4133 0.0000 -10674.9374 1454.4827 0.0000 0.0000 1755.1098 -7444.3947 298.2311 -9199.5045 -7444.3947 298.2311 94.9494 160.5811 30337.4309 94.9494 160.5811
ENERGY: 300000 1.9735 17.8343 5.6968 0.0000 -10647.0689 1445.3169 0.0000 0.0000 1787.0408 -7389.2066 303.6569 -9176.2475 -7419.7759 303.4650 112.4375 142.1509 30303.8432 -58.6938 -6.7723
ENERGY: 600000 3.8506 13.5556 5.8758 0.0000 -10553.8312 1410.9116 0.0000 0.0000 1786.1362 -7333.5013 303.5032 -9119.6374 -7418.1001 304.5018 182.6202 195.7534 30011.7633 -150.3137 -102.6240
ENERGY: 900000 3.1641 18.2447 3.3502 0.0000 -10659.6803 1427.0190 0.0000 0.0000 1743.8484 -7464.0539 296.3176 -9207.9023 -7435.1715 303.1625 -160.5203 -119.9188 30387.9302 -156.1099 -96.3417
ENERGY: 1200000 3.4383 13.2603 5.3150 0.0000 -10639.2106 1463.4446 0.0000 0.0000 1757.5204 -7396.2321 298.6407 -9153.7524 -7439.3459 301.6358 123.2289 140.0525 30582.0093 -129.5119 -72.2640
ENERGY: 1500000 5.4258 11.5156 5.4088 0.0000 -10674.4707 1438.7409 0.0000 0.0000 1780.1404 -7433.2391 302.4844 -9213.3795 -7434.4721 301.9239 6.2680 53.0082 30142.9943 -68.2680 -10.9657
TCL: Running FEP window   6: Lambda1 0.25   Lambda2 0.3    [dLambda 0.04999999999999999]
TCL: Setting parameter firsttimestep to 0
TCL: Setting parameter alchLambda to 0.25
Info: NONBONDED TABLE R-SQUARED SPACING: 0.0625
Info: NONBONDED TABLE SIZE: 705 POINTS
TCL: Setting parameter alchLambda2 to 0.3
Info: NONBONDED TABLE R-SQUARED SPACING: 0.0625
Info: NONBONDED TABLE SIZE: 705 POINTS
TCL: Running for 1500000 steps
ETITLE: TS BOND ANGLE DIHED IMPRP ELECT VDW BOUNDARY MISC KINETIC TOTAL TEMP POTENTIAL TOTALAVG TEMPAVG PRESSURE GPRESSURE VOLUME PRESSAVG GPRESSAVG
ENERGY: 0 5.4258 11.5156 5.4088 0.0000 -10674.4690 1439.5542 0.0000 0.0000 1779.2681 -7433.2965 302.3361 -9212.5646 -7433.2965 302.3361 -39.2905 63.2481 30142.9943 -39.2905 63.2481
ENERGY: 300000 3.5569 11.1497 5.7093 0.0000 -10851.5204 1568.2264 0.0000 0.0000 1745.8338 -7517.0443 296.6549 -9262.8781 -7481.6268 299.2583 892.5065 956.2965 29920.6804 108.4340 152.3696
ENERGY: 600000 1.6487 14.7825 6.2301 0.0000 -10746.5728 1522.5590 0.0000 0.0000 1787.3896 -7413.9628 303.7161 -9201.3524 -7464.8885 301.7153 542.7249 672.8030 30276.1410 28.7822 97.2323
ENERGY: 900000 2.6902 15.8728 4.6195 0.0000 -10651.2638 1396.5677 0.0000 0.0000 1800.9556 -7430.5580 306.0213 -9231.5135 -7439.5963 303.1429 -168.2734 -155.3661 29965.8512 151.3673 204.0957
ENERGY: 1200000 3.1470 13.4641 4.7796 0.0000 -10440.1248 1345.9083 0.0000 0.0000 1807.8164 -7265.0094 307.1871 -9072.8258 -7438.9409 302.1848 -647.1884 -563.2906 30747.0148 133.5995 190.9088
ENERGY: 1500000 2.4521 17.3557 5.1325 0.0000 -10630.0170 1442.9082 0.0000 0.0000 1726.4027 -7435.7659 293.3531 -9162.1685 -7433.3538 301.4596 320.7862 342.1226 30093.8704 75.2859 129.0949
TCL: Running FEP window   7: Lambda1 0.3    Lambda2 0.35   [dLambda 0.04999999999999999]
TCL: Setting parameter firsttimestep to 0
TCL: Setting parameter alchLambda to 0.3
Info: NONBONDED TABLE R-SQUARED SPACING: 0.0625
Info: NONBONDED TABLE SIZE: 705 POINTS
TCL: Setting parameter alchLambda2 to 0.35
Info: NONBONDED TABLE R-SQUARED SPACING: 0.0625
Info: NONBONDED TABLE SIZE: 705 POINTS
TCL: Running for 1500000 steps
ETITLE: TS BOND ANGLE DIHED IMPRP ELECT VDW BOUNDARY MISC KINETIC TOTAL TEMP POTENTIAL TOTALAVG TEMPAVG PRESSURE GPRESSURE VOLUME PRESSAVG GPRESSAVG
ENERGY: 0 2.4521 17.3557 5.1325 0.0000 -10630.0168 1443.7724 0.0000 0.0000 1725.4991 -7435.8049 293.1996 -9161.3041 -7435.8049 293.1996 279.3485 356.7520 30093.8704 279.3485 356.7520
ENERGY: 300000 2.9478 22.0336 4.0006 0.0000 -10516.8767 1340.0636 0.0000 0.0000 1753.3466 -7394.4843 297.9315 -9147.8310 -7433.7371 298.5333 -808.3792 -711.2088 30434.0982 15.8197 78.1754
ENERGY: 600000 6.5827 18.5982 4.3322 0.0000 -10735.8521 1485.8248 0.0000 0.0000 1759.1031 -7461.4112 298.9096 -9220.5143 -7435.4254 299.9008 37.9527 103.4863 30416.8556 -64.7500 -5.3503
ENERGY: 900000 2.1167 12.5689 5.9404 0.0000 -10691.8158 1429.6983 0.0000 0.0000 1834.3929 -7407.0988 311.7030 -9241.4917 -7440.3362 300.7534 -200.7920 -194.3382 30377.9123 -121.8937 -71.7138
ENERGY: 1200000 1.3262 13.9840 5.0466 0.0000 -10652.6019 1458.5654 0.0000 0.0000 1783.3343 -7390.3454 303.0271 -9173.6797 -7430.3637 301.1442 158.1364 264.6445 30336.6707 -138.0525 -78.8808
ENERGY: 1500000 2.6197 18.3669 5.1550 0.0000 -10676.5898 1405.4339 0.0000 0.0000 1811.8110 -7433.2033 307.8659 -9245.0143 -7435.1280 301.7879 -328.5911 -292.2747 30264.6711 -86.5433 -28.4667
TCL: Running FEP window   8: Lambda1 0.35   Lambda2 0.39999999999999997 [dLambda 0.04999999999999999]
TCL: Setting parameter firsttimestep to 0
TCL: Setting parameter alchLambda to 0.35
Info: NONBONDED TABLE R-SQUARED SPACING: 0.0625
Info: NONBONDED TABLE SIZE: 705 POINTS
TCL: Setting parameter alchLambda2 to 0.39999999999999997
Info: NONBONDED TABLE R-SQUARED SPACING: 0.0625
Info: NONBONDED TABLE SIZE: 705 POINTS
TCL: Running for 1500000 steps
ETITLE: TS BOND ANGLE DIHED IMPRP ELECT VDW BOUNDARY MISC KINETIC TOTAL TEMP POTENTIAL TOTALAVG TEMPAVG PRESSURE GPRESSURE VOLUME PRESSAVG GPRESSAVG
ENERGY: 0 2.6197 18.3669 5.1550 0.0000 -10676.5882 1406.4414 0.0000 0.0000 1810.9211 -7433.0842 307.7146 -9244.0053 -7433.0842 307.7146 -363.0032 -279.9510 30264.6711 -363.0032 -279.9510
ENERGY: 300000 1.5682 13.7521 7.4414 0.0000 -10720.2646 1456.9322 0.0000 0.0000 1738.7739 -7501.7969 295.4553 -9240.5708 -7449.7074 300.0467 -47.5801 8.6905 30521.7165 18.9113 88.6984
ENERGY: 600000 2.3086 11.3933 4.7685 0.0000 -10594.3604 1424.2553 0.0000 0.0000 1762.9625 -7388.6722 299.5654 -9151.6347 -7433.6139 302.3145 -261.6915 -234.7977 30682.7571 -69.1552 -2.4931
ENERGY: 900000 1.5312 12.9368 4.8642 0.0000 -10674.7388 1449.9707 0.0000 0.0000 1777.6387 -7427.7973 302.0593 -9205.4360 -7427.4690 301.8627 -199.6274 -146.5901 30863.2859 -9.6790 51.6606
ENERGY: 1200000 1.9509 9.6493 6.3103 0.0000 -10694.7014 1469.8326 0.0000 0.0000 1784.0411 -7422.9172 303.1472 -9206.9583 -7429.3129 301.4555 290.5397 329.2204 30124.9396 34.2095 88.4412
ENERGY: 1500000 4.5409 8.5681 5.2443 0.0000 -10706.7693 1462.2159 0.0000 0.0000 1778.5522 -7447.6480 302.2145 -9226.2002 -7437.8266 300.8178 14.2677 139.4699 30415.0704 15.8421 72.3763
TCL: Running FEP window   9: Lambda1 0.39999999999999997 Lambda2 0.44999999999999996 [dLambda 0.04999999999999999]
TCL: Setting parameter firsttimestep to 0
TCL: Setting parameter alchLambda to 0.39999999999999997
Info: NONBONDED TABLE R-SQUARED SPACING: 0.0625
Info: NONBONDED TABLE SIZE: 705 POINTS
TCL: Setting parameter alchLambda2 to 0.44999999999999996
Info: NONBONDED TABLE R-SQUARED SPACING: 0.0625
Info: NONBONDED TABLE SIZE: 705 POINTS
TCL: Running for 1500000 steps
ETITLE: TS BOND ANGLE DIHED IMPRP ELECT VDW BOUNDARY MISC KINETIC TOTAL TEMP POTENTIAL TOTALAVG TEMPAVG PRESSURE GPRESSURE VOLUME PRESSAVG GPRESSAVG
ENERGY: 0 4.5409 8.5681 5.2443 0.0000 -10706.7708 1461.8940 0.0000 0.0000 1777.6375 -7448.8861 302.0590 -9226.5236 -7448.8861 302.0590 54.1019 143.4022 30415.0704 54.1019 143.4022
ENERGY: 300000 9.3546 20.8600 4.7951 0.0000 -10584.9800 1435.2860 0.0000 0.0000 1799.5289 -7315.1554 305.7789 -9114.6843 -7463.9402 296.9115 6.6742 94.2680 30484.4418 -444.7908 -371.0457
ENERGY: 600000 10.2704 11.3613 3.8044 0.0000 -10574.0720 1413.2289 0.0000 0.0000 1756.4599 -7378.9470 298.4605 -9135.4069 -7441.8117 297.0752 -441.8248 -340.1597 30610.1383 -264.8036 -188.4401
ENERGY: 900000 3.7073 15.3798 6.4711 0.0000 -10528.0829 1359.8244 0.0000 0.0000 1801.9802 -7340.7201 306.1954 -9142.7003 -7422.5963 298.5466 -384.1806 -357.7868 30206.0089 -143.2702 -77.6262
ENERGY: 1200000 2.0322 16.6396 6.1619 0.0000 -10564.8575 1450.8599 0.0000 0.0000 1781.6194 -7307.5445 302.7357 -9089.1639 -7408.0977 299.0708 217.4083 190.6644 31021.8367 -134.2545 -77.8331
ENERGY: 1500000 0.9971 18.9930 4.5340 0.0000 -10614.5408 1432.9233 0.0000 0.0000 1828.9614 -7328.1320 310.7801 -9157.0934 -7403.2667 300.7041 116.2157 187.8932 30416.7672 -143.3547 -90.0180
TCL: Running FEP window  10: Lambda1 0.44999999999999996 Lambda2 0.49999999999999994 [dLambda 0.04999999999999999]
TCL: Setting parameter firsttimestep to 0
TCL: Setting parameter alchLambda to 0.44999999999999996
Info: NONBONDED TABLE R-SQUARED SPACING: 0.0625
Info: NONBONDED TABLE SIZE: 705 POINTS
TCL: Setting parameter alchLambda2 to 0.49999999999999994
Info: NONBONDED TABLE R-SQUARED SPACING: 0.0625
Info: NONBONDED TABLE SIZE: 705 POINTS
TCL: Running for 1500000 steps
ETITLE: TS BOND ANGLE DIHED IMPRP ELECT VDW BOUNDARY MISC KINETIC TOTAL TEMP POTENTIAL TOTALAVG TEMPAVG PRESSURE GPRESSURE VOLUME PRESSAVG GPRESSAVG
ENERGY: 0 0.9971 18.9930 4.5340 0.0000 -10614.5398 1432.5309 0.0000 0.0000 1828.0724 -7329.4124 310.6290 -9157.4848 -7329.4124 310.6290 100.8873 191.1316 30416.7672 100.8873 191.1316
ENERGY: 300000 2.7656 18.9111 6.5322 0.0000 -10694.0228 1483.5879 0.0000 0.0000 1811.8537 -7370.3721 307.8731 -9182.2259 -7377.8736 302.8316 269.5063 340.3249 30455.8654 50.6455 114.5036
ENERGY: 600000 4.0951 18.2743 4.9285 0.0000 -10318.8364 1281.2377 0.0000 0.0000 1750.8996 -7259.4012 297.5157 -9010.3008 -7377.9213 300.5891 -909.9507 -848.7676 30760.8020 -146.2345 -82.1557
ENERGY: 900000 2.7441 10.9635 4.3386 0.0000 -10738.9749 1432.6969 0.0000 0.0000 1807.9128 -7480.3191 307.2035 -9288.2319 -7409.3676 301.2103 -304.8007 -246.4659 30698.4801 -110.5179 -50.4313
ENERGY: 1200000 7.5929 12.1266 4.1069 0.0000 -10491.7764 1373.4519 0.0000 0.0000 1784.1077 -7310.3904 303.1585 -9094.4980 -7396.7102 300.8810 -301.0006 -247.2239 30480.5571 -147.7301 -93.5739
ENERGY: 1500000 3.5778 15.3398 3.9300 0.0000 -10702.6249 1449.0387 0.0000 0.0000 1779.4646 -7451.2739 302.3695 -9230.7385 -7404.1968 300.8599 198.1648 246.0151 29998.9013 -158.9885 -104.1422
TCL: Running FEP window  11: Lambda1 0.49999999999999994 Lambda2 0.5499999999999999 [dLambda 0.04999999999999999]
TCL: Setting parameter firsttimestep to 0
TCL: Setting parameter alchLambda to 0.49999999999999994
Info: NONBONDED TABLE R-SQUARED SPACING: 0.0625
Info: NONBONDED TABLE SIZE: 705 POINTS
TCL: Setting parameter alchLambda2 to 0.5499999999999999
Info: NONBONDED TABLE R-SQUARED SPACING: 0.0625
Info: NONBONDED TABLE SIZE: 705 POINTS
TCL: Running for 1500000 steps
ETITLE: TS BOND ANGLE DIHED IMPRP ELECT VDW BOUNDARY MISC KINETIC TOTAL TEMP POTENTIAL TOTALAVG TEMPAVG PRESSURE GPRESSURE VOLUME PRESSAVG GPRESSAVG
ENERGY: 0 3.5777 15.3398 3.9300 0.0000 -10702.6238 1448.9665 0.0000 0.0000 1778.5849 -7452.2247 302.2200 -9230.8097 -7452.2247 302.2200 185.9825 254.0862 29998.9013 185.9825 254.0862
ENERGY: 300000 2.4454 14.8770 7.0888 0.0000 -10614.2720 1411.6320 0.0000 0.0000 1788.0538 -7390.1750 303.8290 -9178.2288 -7383.5453 303.9787 -573.3144 -423.7273 31115.6118 -138.7475 -26.7942
ENERGY: 600000 2.2701 13.8721 4.7290 0.0000 -10738.9057 1564.8880 0.0000 0.0000 1828.0414 -7325.1052 310.6238 -9153.1465 -7391.4428 304.8658 1093.9492 1247.1068 30225.4574 44.5577 145.8173
ENERGY: 900000 6.4458 9.8358 5.5995 0.0000 -10789.1132 1523.6044 0.0000 0.0000 1854.0142 -7389.6135 315.0371 -9243.6277 -7404.3862 304.8191 907.2849 947.2767 29989.3749 68.5344 148.2221
ENERGY: 1200000 1.7129 16.3237 6.2958 0.0000 -10655.0215 1455.8628 0.0000 0.0000 1790.8994 -7383.9270 304.3125 -9174.8263 -7415.4014 303.2875 300.3687 329.1253 30394.5660 113.5749 188.6714
ENERGY: 1500000 2.4221 18.9151 5.0770 0.0000 -10631.2461 1378.6759 0.0000 0.0000 1790.2989 -7435.8569 304.2105 -9226.1559 -7412.2267 303.0457 -571.1146 -529.6440 30515.9554 64.4721 135.1028
TCL: Running FEP window  12: Lambda1 0.5499999999999999 Lambda2 0.6    [dLambda 0.050000000000000044]
TCL: Setting parameter firsttimestep to 0
TCL: Setting parameter alchLambda to 0.5499999999999999
Info: NONBONDED TABLE R-SQUARED SPACING: 0.0625
Info: NONBONDED TABLE SIZE: 705 POINTS
TCL: Setting parameter alchLambda2 to 0.6
Info: NONBONDED TABLE R-SQUARED SPACING: 0.0625
Info: NONBONDED TABLE SIZE: 705 POINTS
TCL: Running for 1500000 steps
ETITLE: TS BOND ANGLE DIHED IMPRP ELECT VDW BOUNDARY MISC KINETIC TOTAL TEMP POTENTIAL TOTALAVG TEMPAVG PRESSURE GPRESSURE VOLUME PRESSAVG GPRESSAVG
ENERGY: 0 2.4221 18.9151 5.0770 0.0000 -10631.3327 1378.9670 0.0000 0.0000 1789.4294 -7436.5221 304.0627 -9225.9514 -7436.5221 304.0627 -590.4455 -517.2874 30515.9554 -590.4455 -517.2874
ENERGY: 300000 3.1479 18.2556 5.6387 0.0000 -10665.2333 1468.4531 0.0000 0.0000 1763.8047 -7405.9333 299.7086 -9169.7380 -7402.1115 302.4956 527.2337 509.0629 30045.3927 -105.2314 -40.2178
ENERGY: 600000 4.0598 11.2016 4.9422 0.0000 -10838.0531 1541.3372 0.0000 0.0000 1779.6976 -7496.8148 302.4091 -9276.5124 -7433.1764 299.9654 528.5737 534.6101 30440.6887 63.3712 115.6022
ENERGY: 900000 3.0368 13.5560 6.4965 0.0000 -10755.1456 1525.1417 0.0000 0.0000 1786.5022 -7420.4125 303.5654 -9206.9147 -7421.8039 301.1161 645.3355 663.3269 30289.9282 204.7253 264.0027
ENERGY: 1200000 2.4389 13.5457 4.9971 0.0000 -10648.4760 1505.3608 0.0000 0.0000 1791.1237 -7331.0098 304.3506 -9122.1334 -7414.6390 303.1623 596.2784 648.8496 30396.9060 185.2926 249.8837
ENERGY: 1500000 0.4720 16.0307 4.5016 0.0000 -10564.2965 1365.2808 0.0000 0.0000 1796.3235 -7381.6879 305.2342 -9178.0114 -7409.1962 303.5957 -438.2575 -406.7357 30355.0986 57.3176 118.2592
TCL: Running FEP window  13: Lambda1 0.6    Lambda2 0.65   [dLambda 0.050000000000000044]
TCL: Setting parameter firsttimestep to 0
TCL: Setting parameter alchLambda to 0.6
Info: NONBONDED TABLE R-SQUARED SPACING: 0.0625
Info: NONBONDED TABLE SIZE: 705 POINTS
TCL: Setting parameter alchLambda2 to 0.65
Info: NONBONDED TABLE R-SQUARED SPACING: 0.0625
Info: NONBONDED TABLE SIZE: 705 POINTS
TCL: Running for 1500000 steps
ETITLE: TS BOND ANGLE DIHED IMPRP ELECT VDW BOUNDARY MISC KINETIC TOTAL TEMP POTENTIAL TOTALAVG TEMPAVG PRESSURE GPRESSURE VOLUME PRESSAVG GPRESSAVG
ENERGY: 0 0.4720 16.0308 4.5016 0.0000 -10564.2877 1366.0421 0.0000 0.0000 1795.4535 -7381.7878 305.0864 -9177.2413 -7381.7878 305.0864 -478.1764 -389.8604 30355.0986 -478.1764 -389.8604
ENERGY: 300000 3.1671 18.6325 5.3148 0.0000 -10622.7694 1447.2562 0.0000 0.0000 1788.6318 -7359.7671 303.9272 -9148.3989 -7411.9844 300.4906 301.9619 400.8959 30174.3925 107.5854 187.4798
ENERGY: 600000 2.4549 17.3780 3.4994 0.0000 -10483.7873 1351.4223 0.0000 0.0000 1720.4282 -7388.6044 292.3380 -9109.0326 -7407.3575 298.2114 -713.4635 -651.1315 30750.0526 -130.2030 -57.8632
ENERGY: 900000 1.2741 14.1016 3.3987 0.0000 -10734.2345 1461.4044 0.0000 0.0000 1746.7532 -7507.3024 296.8111 -9254.0556 -7418.0471 297.4047 14.4292 67.1287 30596.2370 -119.5569 -46.7803
ENERGY: 1200000 2.8214 16.6673 4.2684 0.0000 -10795.5069 1452.9201 0.0000 0.0000 1768.4515 -7550.3782 300.4981 -9318.8297 -7423.9967 298.8105 24.3524 110.6288 29753.9240 -0.4838 74.5636
ENERGY: 1500000 3.1713 11.1036 5.5081 0.0000 -10652.5065 1443.7692 0.0000 0.0000 1774.2363 -7414.7180 301.4811 -9188.9543 -7426.9235 298.5909 -274.6819 -175.6945 30817.9583 5.1495 81.8450
TCL: Running FEP window  14: Lambda1 0.65   Lambda2 0.7000000000000001 [dLambda 0.050000000000000044]
TCL: Setting parameter firsttimestep to 0
TCL: Setting parameter alchLambda to 0.65
Info: NONBONDED TABLE R-SQUARED SPACING: 0.0625
Info: NONBONDED TABLE SIZE: 705 POINTS
TCL: Setting parameter alchLambda2 to 0.7000000000000001
Info: NONBONDED TABLE R-SQUARED SPACING: 0.0625
Info: NONBONDED TABLE SIZE: 705 POINTS
TCL: Running for 1500000 steps
ETITLE: TS BOND ANGLE DIHED IMPRP ELECT VDW BOUNDARY MISC KINETIC TOTAL TEMP POTENTIAL TOTALAVG TEMPAVG PRESSURE GPRESSURE VOLUME PRESSAVG GPRESSAVG
ENERGY: 0 3.1713 11.1036 5.5081 0.0000 -10652.5332 1443.4963 0.0000 0.0000 1773.3803 -7415.8735 301.3357 -9189.2538 -7415.8735 301.3357 -230.7451 -167.8095 30817.9583 -230.7451 -167.8095
ENERGY: 300000 2.1547 13.4907 3.7835 0.0000 -10562.3044 1365.0261 0.0000 0.0000 1776.4089 -7401.4404 301.8503 -9177.8493 -7472.5959 295.7774 -323.1634 -297.6701 30183.6840 -462.1263 -414.5317
ENERGY: 600000 3.0280 15.9911 5.1206 0.0000 -10632.0317 1425.0859 0.0000 0.0000 1772.0389 -7410.7672 301.1077 -9182.8061 -7430.6955 299.8678 -56.0643 -46.6427 30509.1704 -408.0837 -368.0248
ENERGY: 900000 1.4421 12.2268 5.1289 0.0000 -10694.3035 1461.6300 0.0000 0.0000 1771.0029 -7442.8728 300.9317 -9213.8757 -7442.0781 298.7219 545.9567 549.4329 29955.3509 -175.8338 -141.3960
ENERGY: 1200000 4.1195 12.8020 6.5153 0.0000 -10598.9396 1354.0056 0.0000 0.0000 1690.3585 -7531.1387 287.2285 -9221.4972 -7434.6920 299.0681 -840.2687 -724.5700 30614.7628 -214.0698 -161.9053
ENERGY: 1500000 1.4114 14.3807 3.5894 0.0000 -10714.3574 1516.8505 0.0000 0.0000 1807.1888 -7370.9366 307.0805 -9178.1254 -7427.9148 299.8260 978.0193 1035.4961 29913.9840 -88.4736 -35.1990
TCL: Running FEP window  15: Lambda1 0.7000000000000001 Lambda2 0.7500000000000001 [dLambda 0.050000000000000044]
TCL: Setting parameter firsttimestep to 0
TCL: Setting parameter alchLambda to 0.7000000000000001
Info: NONBONDED TABLE R-SQUARED SPACING: 0.0625
Info: NONBONDED TABLE SIZE: 705 POINTS
TCL: Setting parameter alchLambda2 to 0.7500000000000001
Info: NONBONDED TABLE R-SQUARED SPACING: 0.0625
Info: NONBONDED TABLE SIZE: 705 POINTS
TCL: Running for 1500000 steps
ETITLE: TS BOND ANGLE DIHED IMPRP ELECT VDW BOUNDARY MISC KINETIC TOTAL TEMP POTENTIAL TOTALAVG TEMPAVG PRESSURE GPRESSURE VOLUME PRESSAVG GPRESSAVG
ENERGY: 0 1.4114 14.3807 3.5894 0.0000 -10714.3269 1516.5886 0.0000 0.0000 1806.3416 -7372.0152 306.9365 -9178.3568 -7372.0152 306.9365 987.7166 1047.7689 29913.9840 987.7166 1047.7689
ENERGY: 300000 2.2357 15.6940 5.4080 0.0000 -10530.7701 1380.6211 0.0000 0.0000 1778.2362 -7348.5750 302.1608 -9126.8113 -7397.8129 301.5650 -475.3845 -411.9499 30863.7726 97.6794 172.7392
ENERGY: 600000 4.9080 15.1433 3.4197 0.0000 -10702.4754 1430.7422 0.0000 0.0000 1792.4084 -7455.8538 304.5690 -9248.2622 -7405.4115 301.2517 -447.4156 -369.2746 30867.9368 -38.8994 31.8140
ENERGY: 900000 3.9816 15.6299 4.4658 0.0000 -10530.6701 1373.1387 0.0000 0.0000 1746.6632 -7386.7911 296.7958 -9133.4543 -7408.7097 300.8537 -414.4098 -356.6003 30407.1301 -56.5785 8.1725
ENERGY: 1200000 2.9888 13.7440 4.1109 0.0000 -10745.5926 1493.4762 0.0000 0.0000 1772.1470 -7459.1256 301.1261 -9231.2726 -7411.0661 301.3251 399.8896 468.9270 30366.3218 -7.2848 55.2792
ENERGY: 1500000 2.6434 14.5989 3.5272 0.0000 -10637.7589 1421.2828 0.0000 0.0000 1765.1721 -7430.5344 299.9409 -9195.7065 -7417.5693 300.7505 47.4220 142.8466 30203.3133 -37.5306 22.7671
TCL: Running FEP window  16: Lambda1 0.7500000000000001 Lambda2 0.8000000000000002 [dLambda 0.050000000000000044]
TCL: Setting parameter firsttimestep to 0
TCL: Setting parameter alchLambda to 0.7500000000000001
Info: NONBONDED TABLE R-SQUARED SPACING: 0.0625
Info: NONBONDED TABLE SIZE: 705 POINTS
TCL: Setting parameter alchLambda2 to 0.8000000000000002
Info: NONBONDED TABLE R-SQUARED SPACING: 0.0625
Info: NONBONDED TABLE SIZE: 705 POINTS
TCL: Running for 1500000 steps
ETITLE: TS BOND ANGLE DIHED IMPRP ELECT VDW BOUNDARY MISC KINETIC TOTAL TEMP POTENTIAL TOTALAVG TEMPAVG PRESSURE GPRESSURE VOLUME PRESSAVG GPRESSAVG
ENERGY: 0 2.6434 14.5990 3.5272 0.0000 -10637.7721 1421.8831 0.0000 0.0000 1764.3011 -7430.8183 299.7929 -9195.1195 -7430.8183 299.7929 74.2887 163.0697 30203.3133 74.2887 163.0697
ENERGY: 300000 2.1132 17.2813 3.9921 0.0000 -10832.2834 1555.0897 0.0000 0.0000 1773.1047 -7480.7024 301.2888 -9253.8071 -7440.1289 299.7570 950.2985 952.1192 30090.7433 211.6704 272.6753
ENERGY: 600000 2.8278 10.3233 4.3733 0.0000 -10580.2441 1437.7110 0.0000 0.0000 1774.2909 -7350.7178 301.4904 -9125.0086 -7418.2379 301.3331 109.7887 166.2007 30680.7180 41.1206 92.1482
ENERGY: 900000 6.2852 14.8202 3.5934 0.0000 -10704.0040 1429.4969 0.0000 0.0000 1786.3891 -7463.4191 303.5461 -9249.8083 -7436.2767 300.6922 -109.5557 -16.0111 30294.6969 107.8327 164.5350
ENERGY: 1200000 1.0794 9.2097 3.4488 0.0000 -10654.4668 1422.6295 0.0000 0.0000 1697.1469 -7520.9526 288.3820 -9218.0995 -7455.1262 298.7602 -225.2483 -215.0982 30670.1689 -8.2232 41.8418
ENERGY: 1500000 3.7116 10.8960 5.7495 0.0000 -10644.8066 1388.0457 0.0000 0.0000 1766.4011 -7470.0027 300.1497 -9236.4038 -7454.2920 298.6319 -609.1406 -493.5944 30515.5935 6.4047 60.6578
TCL: Running FEP window  17: Lambda1 0.8000000000000002 Lambda2 0.8500000000000002 [dLambda 0.050000000000000044]
TCL: Setting parameter firsttimestep to 0
TCL: Setting parameter alchLambda to 0.8000000000000002
Info: NONBONDED TABLE R-SQUARED SPACING: 0.0625
Info: NONBONDED TABLE SIZE: 705 POINTS
TCL: Setting parameter alchLambda2 to 0.8500000000000002
Info: NONBONDED TABLE R-SQUARED SPACING: 0.0625
Info: NONBONDED TABLE SIZE: 705 POINTS
TCL: Running for 1500000 steps
ETITLE: TS BOND ANGLE DIHED IMPRP ELECT VDW BOUNDARY MISC KINETIC TOTAL TEMP POTENTIAL TOTALAVG TEMPAVG PRESSURE GPRESSURE VOLUME PRESSAVG GPRESSAVG
ENERGY: 0 3.7116 10.8960 5.7495 0.0000 -10644.8223 1388.3095 0.0000 0.0000 1765.5281 -7470.6276 300.0014 -9236.1557 -7470.6276 300.0014 -574.1393 -480.1251 30515.5935 -574.1393 -480.1251
ENERGY: 300000 2.2537 16.4902 5.8049 0.0000 -10627.7729 1362.7876 0.0000 0.0000 1822.4498 -7417.9866 309.6736 -9240.4364 -7442.0983 304.6680 -886.1400 -797.6651 30954.7684 -329.3150 -262.4632
ENERGY: 600000 0.6203 17.3897 4.4011 0.0000 -10554.2903 1340.4763 0.0000 0.0000 1787.3440 -7404.0588 303.7084 -9191.4029 -7427.9615 304.4498 -512.7634 -499.9822 30282.1482 -122.9529 -63.1858
ENERGY: 900000 5.5914 17.5426 5.5072 0.0000 -10566.3456 1368.9221 0.0000 0.0000 1777.1756 -7391.6067 301.9806 -9168.7823 -7430.2563 302.5519 -651.4303 -626.4161 30673.5912 -19.1673 39.5921
ENERGY: 1200000 2.3647 11.1031 4.5207 0.0000 -10707.7048 1478.5205 0.0000 0.0000 1740.2186 -7470.9772 295.7008 -9211.1958 -7416.9681 302.1459 278.9990 329.4579 30727.3189 101.9135 161.0963
ENERGY: 1500000 1.0621 13.4848 5.6735 0.0000 -10600.3010 1421.7908 0.0000 0.0000 1735.8961 -7422.3937 294.9663 -9158.2899 -7415.8773 301.9300 177.4389 282.2354 30283.7984 183.2241 238.6654
TCL: Running FEP window  18: Lambda1 0.8500000000000002 Lambda2 0.9000000000000002 [dLambda 0.050000000000000044]
TCL: Setting parameter firsttimestep to 0
TCL: Setting parameter alchLambda to 0.8500000000000002
Info: NONBONDED TABLE R-SQUARED SPACING: 0.0625
Info: NONBONDED TABLE SIZE: 705 POINTS
TCL: Setting parameter alchLambda2 to 0.9000000000000002
Info: NONBONDED TABLE R-SQUARED SPACING: 0.0625
Info: NONBONDED TABLE SIZE: 705 POINTS
TCL: Running for 1500000 steps
ETITLE: TS BOND ANGLE DIHED IMPRP ELECT VDW BOUNDARY MISC KINETIC TOTAL TEMP POTENTIAL TOTALAVG TEMPAVG PRESSURE GPRESSURE VOLUME PRESSAVG GPRESSAVG
ENERGY: 0 1.0621 13.4848 5.6735 0.0000 -10600.3687 1423.0459 0.0000 0.0000 1735.0404 -7422.0621 294.8209 -9157.1025 -7422.0621 294.8209 228.5353 311.9489 30283.7984 228.5353 311.9489
ENERGY: 300000 1.1419 11.1787 3.8383 0.0000 -10605.1791 1444.6417 0.0000 0.0000 1735.2117 -7409.1667 294.8500 -9144.3785 -7395.3734 298.1532 75.6648 124.6658 31112.5342 -139.7626 -104.6349
ENERGY: 600000 2.5700 12.7858 4.3608 0.0000 -10737.8760 1425.6511 0.0000 0.0000 1779.8684 -7512.6399 302.4381 -9292.5083 -7429.0242 298.5647 -221.2748 -127.7236 30289.3637 -2.2600 52.6246
ENERGY: 900000 1.9222 13.2498 3.4673 0.0000 -10730.1489 1456.7188 0.0000 0.0000 1740.5240 -7514.2669 295.7527 -9254.7909 -7430.1966 298.3870 -162.3204 -89.8855 30849.4450 -114.9219 -37.9751
ENERGY: 1200000 5.1654 12.6514 5.1081 0.0000 -10665.2079 1438.9465 0.0000 0.0000 1786.2279 -7417.1086 303.5187 -9203.3365 -7431.3834 298.8705 -35.9754 31.8756 30108.7126 -142.6522 -63.4494
ENERGY: 1500000 3.8532 17.0566 4.1080 0.0000 -10679.8281 1422.6154 0.0000 0.0000 1787.2591 -7444.9358 303.6940 -9232.1949 -7431.3889 299.2992 -244.4752 -165.5320 30302.9971 -172.5154 -93.8483
TCL: Running FEP window  19: Lambda1 0.9000000000000002 Lambda2 0.9500000000000003 [dLambda 0.050000000000000044]
TCL: Setting parameter firsttimestep to 0
TCL: Setting parameter alchLambda to 0.9000000000000002
Info: NONBONDED TABLE R-SQUARED SPACING: 0.0625
Info: NONBONDED TABLE SIZE: 705 POINTS
TCL: Setting parameter alchLambda2 to 0.9500000000000003
Info: NONBONDED TABLE R-SQUARED SPACING: 0.0625
Info: NONBONDED TABLE SIZE: 705 POINTS
TCL: Running for 1500000 steps
ETITLE: TS BOND ANGLE DIHED IMPRP ELECT VDW BOUNDARY MISC KINETIC TOTAL TEMP POTENTIAL TOTALAVG TEMPAVG PRESSURE GPRESSURE VOLUME PRESSAVG GPRESSAVG
ENERGY: 0 3.8532 17.0566 4.1080 0.0000 -10679.8505 1422.6561 0.0000 0.0000 1786.3674 -7445.8092 303.5425 -9232.1767 -7445.8092 303.5425 -231.3464 -149.8622 30302.9971 -231.3464 -149.8622
ENERGY: 300000 2.1759 16.7382 4.7093 0.0000 -10641.2489 1380.5437 0.0000 0.0000 1726.3026 -7510.7792 293.3361 -9237.0819 -7467.4814 298.8871 -362.6738 -306.8735 30524.9306 -334.8220 -263.6179
ENERGY: 600000 3.8059 14.1527 7.0230 0.0000 -10655.0987 1474.7356 0.0000 0.0000 1815.9249 -7339.4567 308.5649 -9155.3816 -7459.5579 301.4735 563.1030 526.4613 30399.5799 -277.0427 -238.0955
ENERGY: 900000 1.9666 14.8823 3.9627 0.0000 -10551.9959 1357.7956 0.0000 0.0000 1786.7856 -7386.6032 303.6135 -9173.3887 -7459.7947 301.0105 -488.2911 -472.9359 30625.3923 -273.3609 -239.2685
ENERGY: 1200000 3.3175 16.1947 8.1104 0.0000 -10716.0455 1436.7586 0.0000 0.0000 1820.9034 -7430.7609 309.4109 -9251.6643 -7453.3826 301.7903 -198.5701 -155.7580 30602.6703 -115.3966 -82.7520
ENERGY: 1500000 2.5184 10.1916 5.3383 0.0000 -10721.6419 1446.6320 0.0000 0.0000 1774.8046 -7482.1570 301.5777 -9256.9616 -7441.3486 302.2223 11.0364 44.4924 30464.7205 -54.9437 -19.9838
TCL: Running FEP window  20: Lambda1 0.9500000000000003 Lambda2 1.0    [dLambda 0.04999999999999971]
TCL: Setting parameter firsttimestep to 0
TCL: Setting parameter alchLambda to 0.9500000000000003
Info: NONBONDED TABLE R-SQUARED SPACING: 0.0625
Info: NONBONDED TABLE SIZE: 705 POINTS
TCL: Setting parameter alchLambda2 to 1.0
Info: NONBONDED TABLE R-SQUARED SPACING: 0.0625
Info: NONBONDED TABLE SIZE: 705 POINTS
TCL: Running for 1500000 steps
ETITLE: TS BOND ANGLE DIHED IMPRP ELECT VDW BOUNDARY MISC KINETIC TOTAL TEMP POTENTIAL TOTALAVG TEMPAVG PRESSURE GPRESSURE VOLUME PRESSAVG GPRESSAVG
ENERGY: 0 2.5184 10.1916 5.3383 0.0000 -10721.6445 1446.4647 0.0000 0.0000 1773.9243 -7483.2072 301.4281 -9257.1315 -7483.2072 301.4281 -26.4331 59.5545 30464.7205 -26.4331 59.5545
ENERGY: 300000 1.4710 12.7210 3.8929 0.0000 -10542.7853 1381.3421 0.0000 0.0000 1797.2855 -7346.0729 305.3977 -9143.3583 -7418.8269 300.8667 -309.6564 -266.2643 30866.3807 -260.9406 -198.4348
ENERGY: 600000 2.6014 13.5068 4.9307 0.0000 -10581.9599 1411.6869 0.0000 0.0000 1770.0072 -7379.2269 300.7625 -9149.2341 -7422.1029 299.8354 -88.1450 -24.3792 30522.8909 -262.5779 -213.5048
ENERGY: 900000 4.5223 20.8370 4.5649 0.0000 -10527.3159 1393.8963 0.0000 0.0000 1827.0006 -7276.4946 310.4469 -9103.4952 -7393.7801 301.4307 -92.5076 -53.4293 30565.5666 -150.4600 -104.2856
ENERGY: 1200000 3.1980 18.8672 5.0772 0.0000 -10703.3322 1499.3966 0.0000 0.0000 1751.6267 -7425.1664 297.6393 -9176.7932 -7402.8299 299.9752 1038.1763 1091.9187 29719.0907 -72.4725 -21.9037
ENERGY: 1500000 2.5557 13.3541 4.1310 0.0000 -10604.5563 1319.8745 0.0000 0.0000 1758.6203 -7506.0206 298.8276 -9264.6410 -7409.5807 300.1493 -1002.9929 -920.6172 30321.4914 -145.7151 -91.1989
TCL: Exiting due to exit command.
