Info: SIMULATION PARAMETERS:
Info: TIMESTEP               2
Info: NUMBER OF STEPS        0
Info: STEPS PER CYCLE        10
Info: PERIODIC CELL BASIS 1  30.8972 0 0
Info: PERIODIC CELL BASIS 2  0 31.5976 0
Info: PERIODIC CELL BASIS 3  0 0 31.6656
Info: PERIODIC CELL CENTER   0 0 0
Info: WRAPPING WATERS AROUND PERIODIC BOUNDARIES ON OUTPUT.
Info: WRAPPING ALL CLUSTERS AROUND PERIODIC BOUNDARIES ON OUTPUT.
Info: FIRST LDB TIMESTEP     50
Info: LAST LDB TIMESTEP     -1
Info: HOM BACKGROUND SCALING 1
Info: PME BACKGROUND SCALING 1
Info: MIN ATOMS PER PATCH    40
Info: EMPTY PATCH LOAD       40 ATOMS
Info: VELOCITY FILE          mobley_6911232_equil.vel
Info: CENTER OF MASS MOVING INITIALLY? NO
Info: DIELECTRIC             1
Info: EXCLUDE                SCALED ONE-FOUR
Info: 1-4 ELECTROSTATICS SCALED BY 0.833333
Info: MODIFIED 1-4 VDW PARAMETERS WILL BE USED
Info: DCD FILENAME           mobley_6911232_prod.dcd
Info: DCD FREQUENCY          100000
Info: DCD FIRST STEP         100000
Info: DCD FILE WILL CONTAIN UNIT CELL DATA
Info: XST FILENAME           mobley_6911232_prod.xst
Info: XST FREQUENCY          100000
Info: NO VELOCITY DCD OUTPUT
Info: NO FORCE DCD OUTPUT
Info: OUTPUT FILENAME        mobley_6911232_prod
Info: BINARY OUTPUT FILES WILL BE USED
Info: RESTART FILENAME       mobley_6911232_prod.restart
Info: RESTART FREQUENCY      100000
Info: BINARY RESTART FILES WILL BE USED
Info: CUTOFF                 9
Info: PAIRLIST DISTANCE      11
Info: PAIRLIST SHRINK RATE   0.01
Info: PAIRLIST GROW RATE     0.01
Info: PAIRLIST TRIGGER       0.3
Info: PAIRLISTS PER CYCLE    2
Info: PAIRLISTS ENABLED
Info: MARGIN                 2
Info: HYDROGEN GROUP CUTOFF  2.5
Info: PATCH DIMENSION        15.5
Info: ENERGY OUTPUT STEPS    100000
Info: ENERGY EVALUATION STEPS    100000
Info: OUTPUT ENERGY PRECISION 4
Info: CROSSTERM ENERGY INCLUDED IN DIHEDRAL
Info: TIMING OUTPUT STEPS    1000000
Info: PRESSURE OUTPUT STEPS  100000
Info: ALCHEMICAL FEP ON
Info: FEP CURRENT LAMBDA VALUE     1
Info: FEP COMPARISON LAMBDA VALUE  0.95
Info: FEP INTRA-ALCHEMICAL NON-BONDED INTERACTIONS WILL BE RETAINED
Info: FEP INTRA-ALCHEMICAL BONDED INTERACTIONS WILL BE RETAINED
Info: FEP VDW SHIFTING COEFFICIENT 5
Info: FEP ELEC. ACTIVE FOR ANNIHILATED PARTICLES BETWEEN LAMBDA = 0 AND LAMBDA = 0.5
Info: FEP ELEC. ACTIVE FOR EXNIHILATED PARTICLES BETWEEN LAMBDA = 0.5 AND LAMBDA = 1
Info: FEP VDW ACTIVE FOR ANNIHILATED PARTICLES BETWEEN LAMBDA = 0 AND LAMBDA = 1
Info: FEP VDW ACTIVE FOR EXNIHILATED PARTICLES BETWEEN LAMBDA = 0 AND LAMBDA = 1
Info: FEP BOND ACTIVE FOR ANNIHILATED PARTICLES BETWEEN LAMBDA = 1 AND LAMBDA = 1
Info: FEP BOND ACTIVE FOR EXNIHILATED PARTICLES BETWEEN LAMBDA = 0 AND LAMBDA = 0
Info: LANGEVIN DYNAMICS ACTIVE
Info: LANGEVIN TEMPERATURE   300
Info: LANGEVIN USING BBK INTEGRATOR
Info: LANGEVIN DAMPING COEFFICIENT IS 1 INVERSE PS
Info: LANGEVIN DYNAMICS APPLIED TO HYDROGENS
Info: LANGEVIN PISTON PRESSURE CONTROL ACTIVE
Info:        TARGET PRESSURE IS 1.01325 BAR
Info:     OSCILLATION PERIOD IS 50 FS
Info:             DECAY TIME IS 25 FS
Info:     PISTON TEMPERATURE IS 300 K
Info:       PRESSURE CONTROL IS GROUP-BASED
Info:    INITIAL STRAIN RATE IS 0.000213767 0.000213767 0.000213767
Info:       CELL FLUCTUATION IS ISOTROPIC
Info: PARTICLE MESH EWALD (PME) ACTIVE
Info: PME TOLERANCE               1e-06
Info: PME EWALD COEFFICIENT       0.348832
Info: PME INTERPOLATION ORDER     4
Info: PME GRID DIMENSIONS         32 32 32
Info: PME MAXIMUM GRID SPACING    1
Info: PME CALCULATION WILL BE PERFORMED ON GPU
Info: FULL ELECTROSTATIC EVALUATION FREQUENCY      2
Info: USING VERLET I (r-RESPA) MTS SCHEME.
Info: C1 SPLITTING OF LONG RANGE ELECTROSTATICS
Info: PLACING ATOMS IN PATCHES BY HYDROGEN GROUPS
Info: RIGID BONDS TO HYDROGEN : ALL
Info:         ERROR TOLERANCE : 1e-08
Info:          MAX ITERATIONS : 100
Info: RIGID WATER USING SETTLE ALGORITHM
Info: RANDOM NUMBER SEED     1743725227
Info: USE HYDROGEN BONDS?    NO
Info: Using AMBER format force field!
Info: AMBER PARM FILE        mobley_6911232.prmtop
Info: COORDINATE PDB         mobley_6911232.pdb
Info: Exclusions will be read from PARM file!
Info: SCNB (VDW SCALING)     2
Info: USING ARITHMETIC MEAN TO COMBINE L-J SIGMA PARAMETERS
Info: BINARY COORDINATES     mobley_6911232_equil.coor
Info: SUMMARY OF PARAMETERS:
Info: 6 BONDS
Info: 7 ANGLES
Info:   7 HARMONIC
Info:   0 COSINE-BASED
Info: 6 DIHEDRAL
Info: 0 IMPROPER
Info: 0 CROSSTERM
Info: 0 VDW
Info: 21 VDW_PAIRS
Info: 0 NBTHOLE_PAIRS
Info: To read alchdata from file: mobley_6911232.pdb
Info: To read alchflag data from column: 5
Info: STRUCTURE SUMMARY:
Info: 3000 ATOMS
Info: 2999 BONDS
Info: 19 ANGLES
Info: 19 DIHEDRALS
Info: 0 IMPROPERS
Info: 0 CROSSTERMS
Info: 3033 EXCLUSIONS
Info: 2996 RIGID BONDS
Info: ALCH: 0 ATOMS TO DISAPPEAR IN FINAL STATE
Info: ALCH: 12 ATOMS TO APPEAR IN FINAL STATE
Info: 6004 DEGREES OF FREEDOM
Info: 1000 HYDROGEN GROUPS
Info: 4 ATOMS IN LARGEST HYDROGEN GROUP
Info: 1000 MIGRATION GROUPS
Info: 4 ATOMS IN LARGEST MIGRATION GROUP
Info: TOTAL MASS = 18004 amu
Info: TOTAL CHARGE = 0.000200026 e
Info: MASS DENSITY = 0.967095 g/cm^3
Info: ATOM DENSITY = 0.0970423 atoms/A^3
Info: ADDED 0 IMPLICIT EXCLUSIONS
Info: NONBONDED TABLE R-SQUARED SPACING: 0.0625
Info: NONBONDED TABLE SIZE: 705 POINTS
Info: REMOVING COM VELOCITY 0.149039 0.109112 0.287639
Info: Use 3D box decompostion in PME FFT.
Info: Updated CUDA force table with 4096 elements.
Info: Updated CUDA LJ table with 6 x 6 elements.
Info: Found 15 unique exclusion lists needing 28 bytes
TCL: Running for 1500000 steps
ETITLE: TS BOND ANGLE DIHED IMPRP ELECT VDW BOUNDARY MISC KINETIC TOTAL TEMP POTENTIAL TOTALAVG TEMPAVG PRESSURE GPRESSURE VOLUME PRESSAVG GPRESSAVG
ENERGY: 0 3.3317 4.7169 1.3122 0.0000 -10884.5076 1420.4075 0.0000 0.0000 1782.5520 -7672.1873 298.8078 -9454.7393 -7672.1873 298.8078 -517.2027 -448.8819 30914.3432 -517.2027 -448.8819
ENERGY: 300000 0.6976 5.0033 1.0407 0.0000 -10966.7782 1504.7156 0.0000 0.0000 1786.8951 -7668.4260 299.5358 -9455.3211 -7639.9430 299.4133 272.5647 332.6450 30818.9999 86.0324 137.3528
ENERGY: 600000 1.3916 4.7146 1.7642 0.0000 -10875.3780 1450.7571 0.0000 0.0000 1808.8291 -7607.9214 303.2126 -9416.7505 -7638.6718 300.1409 -340.0070 -227.8011 31288.5626 -45.5198 14.2923
ENERGY: 900000 0.7820 3.8909 3.3066 0.0000 -10929.8505 1463.0929 0.0000 0.0000 1732.4821 -7726.2960 290.4146 -9458.7781 -7640.6997 300.1726 -140.2661 -23.1407 30851.5947 -100.4087 -30.4878
ENERGY: 1200000 1.0694 8.1565 2.0366 0.0000 -10848.1643 1449.1769 0.0000 0.0000 1790.9166 -7596.8084 300.2099 -9387.7250 -7621.7619 300.5122 376.1845 429.3911 30246.5343 -123.9329 -60.4286
ENERGY: 1500000 1.4409 1.7981 1.3731 0.0000 -10873.3335 1445.9418 0.0000 0.0000 1817.6857 -7605.0938 304.6972 -9422.7795 -7615.6781 301.1953 -199.7378 -158.3820 31118.8687 -124.6242 -63.9097
TCL: Running FEP window   2: Lambda1 0.95   Lambda2 0.8999999999999999 [dLambda -0.050000000000000044]
TCL: Setting parameter firsttimestep to 0
TCL: Setting parameter alchLambda to 0.95
Info: NONBONDED TABLE R-SQUARED SPACING: 0.0625
Info: NONBONDED TABLE SIZE: 705 POINTS
TCL: Setting parameter alchLambda2 to 0.8999999999999999
Info: NONBONDED TABLE R-SQUARED SPACING: 0.0625
Info: NONBONDED TABLE SIZE: 705 POINTS
TCL: Running for 1500000 steps
ETITLE: TS BOND ANGLE DIHED IMPRP ELECT VDW BOUNDARY MISC KINETIC TOTAL TEMP POTENTIAL TOTALAVG TEMPAVG PRESSURE GPRESSURE VOLUME PRESSAVG GPRESSAVG
ENERGY: 0 1.4409 1.7981 1.3731 0.0000 -10872.8142 1446.0399 0.0000 0.0000 1816.8018 -7605.3603 304.5491 -9422.1621 -7605.3603 304.5491 -227.9407 -162.3093 31118.8687 -227.9407 -162.3093
ENERGY: 300000 2.4339 3.5008 1.7607 0.0000 -10869.0882 1472.1249 0.0000 0.0000 1780.3735 -7608.8944 298.4426 -9389.2679 -7635.6431 299.0176 98.1782 162.0663 30863.6561 -350.6627 -256.7386
ENERGY: 600000 0.4748 7.1584 0.8801 0.0000 -10978.8609 1543.8432 0.0000 0.0000 1806.3808 -7620.1236 302.8022 -9426.5044 -7617.5705 298.9522 559.1506 659.7931 30701.2007 -53.5456 29.1787
ENERGY: 900000 0.2546 5.1326 1.1381 0.0000 -10699.6655 1348.3718 0.0000 0.0000 1827.5810 -7517.1875 306.3560 -9344.7684 -7620.3360 299.1881 -1043.7164 -957.1903 31622.8109 -114.9961 -39.6391
ENERGY: 1200000 0.8184 4.7507 1.5341 0.0000 -10892.0556 1465.2651 0.0000 0.0000 1782.1163 -7637.5711 298.7347 -9419.6874 -7620.1831 299.3808 84.3441 138.4310 30707.9306 -39.6689 40.9858
ENERGY: 1500000 0.9304 4.0549 2.2934 0.0000 -10839.9987 1511.6081 0.0000 0.0000 1766.9572 -7554.1547 296.1936 -9321.1119 -7603.2703 299.3122 514.6564 600.4173 31048.9435 -5.7985 73.7114
TCL: Running FEP window   3: Lambda1 0.8999999999999999 Lambda2 0.8499999999999999 [dLambda -0.050000000000000044]
TCL: Setting parameter firsttimestep to 0
TCL: Setting parameter alchLambda to 0.8999999999999999
Info: NONBONDED TABLE R-SQUARED SPACING: 0.0625
Info: NONBONDED TABLE SIZE: 705 POINTS
TCL: Setting parameter alchLambda2 to 0.8499999999999999
Info: NONBONDED TABLE R-SQUARED SPACING: 0.0625
Info: NONBONDED TABLE SIZE: 705 POINTS
TCL: Running for 1500000 steps
ETITLE: TS BOND ANGLE DIHED IMPRP ELECT VDW BOUNDARY MISC KINETIC TOTAL TEMP POTENTIAL TOTALAVG TEMPAVG PRESSURE GPRESSURE VOLUME PRESSAVG GPRESSAVG
ENERGY: 0 0.9304 4.0549 2.2934 0.0000 -10839.4517 1511.3598 0.0000 0.0000 1766.0689 -7554.7443 296.0447 -9320.8132 -7554.7443 296.0447 523.7257 585.9264 31048.9435 523.7257 585.9264
ENERGY: 300000 0.0243 5.2081 1.4027 0.0000 -10886.9790 1512.1022 0.0000 0.0000 1832.3908 -7535.8510 307.1622 -9368.2417 -7587.7560 300.9038 527.1327 579.4088 30790.0469 383.1448 453.6380
ENERGY: 600000 0.7308 5.4947 0.8933 0.0000 -10865.3226 1448.0927 0.0000 0.0000 1789.3677 -7620.7435 299.9503 -9410.1112 -7589.8145 299.7200 -6.5016 134.3826 30838.1093 225.7672 303.6139
ENERGY: 900000 0.5993 4.5310 0.8763 0.0000 -10818.3939 1445.6623 0.0000 0.0000 1777.6421 -7589.0829 297.9847 -9366.7250 -7595.2978 300.0067 24.5776 97.1278 30681.3894 184.2003 259.0702
ENERGY: 1200000 1.0984 1.9514 0.9586 0.0000 -10837.4209 1442.6498 0.0000 0.0000 1725.2326 -7665.5300 289.1994 -9390.7626 -7608.9724 299.1288 -84.8135 -72.9011 31054.8485 19.8996 85.5582
ENERGY: 1500000 0.3949 4.3208 1.5348 0.0000 -10926.3165 1459.3250 0.0000 0.0000 1840.0426 -7620.6983 308.4449 -9460.7410 -7610.8942 300.4457 -146.0698 -83.6174 31122.8523 10.9412 78.4771
TCL: Running FEP window   4: Lambda1 0.8499999999999999 Lambda2 0.7999999999999998 [dLambda -0.050000000000000044]
TCL: Setting parameter firsttimestep to 0
TCL: Setting parameter alchLambda to 0.8499999999999999
Info: NONBONDED TABLE R-SQUARED SPACING: 0.0625
Info: NONBONDED TABLE SIZE: 705 POINTS
TCL: Setting parameter alchLambda2 to 0.7999999999999998
Info: NONBONDED TABLE R-SQUARED SPACING: 0.0625
Info: NONBONDED TABLE SIZE: 705 POINTS
TCL: Running for 1500000 steps
ETITLE: TS BOND ANGLE DIHED IMPRP ELECT VDW BOUNDARY MISC KINETIC TOTAL TEMP POTENTIAL TOTALAVG TEMPAVG PRESSURE GPRESSURE VOLUME PRESSAVG GPRESSAVG
ENERGY: 0 0.3949 4.3208 1.5348 0.0000 -10926.0102 1459.6836 0.0000 0.0000 1839.1439 -7620.9322 308.2942 -9460.0761 -7620.9322 308.2942 -173.8665 -84.9256 31122.8523 -173.8665 -84.9256
ENERGY: 300000 1.5472 6.2093 1.8172 0.0000 -10857.6828 1472.0940 0.0000 0.0000 1823.0506 -7552.9645 305.5965 -9376.0151 -7623.4623 301.5165 21.4488 96.9303 30953.9463 20.5966 104.1593
ENERGY: 600000 0.8607 3.8223 2.2883 0.0000 -10907.2831 1521.6690 0.0000 0.0000 1788.8480 -7589.7949 299.8632 -9378.6428 -7603.3998 301.2457 741.6296 749.1456 30445.7011 211.1946 263.4158
ENERGY: 900000 1.5519 5.9446 0.9557 0.0000 -10793.4774 1449.6869 0.0000 0.0000 1789.7564 -7545.5819 300.0155 -9335.3383 -7595.3261 300.7096 -146.2776 -54.2551 31307.8979 110.2971 167.4386
ENERGY: 1200000 0.6036 5.9764 2.9954 0.0000 -11045.8437 1533.3888 0.0000 0.0000 1786.6642 -7716.2152 299.4971 -9502.8795 -7602.7392 300.7566 297.0585 402.0857 30639.4369 80.4903 142.3430
ENERGY: 1500000 0.9857 6.9079 2.6556 0.0000 -10925.4869 1535.4866 0.0000 0.0000 1816.3432 -7563.1078 304.4722 -9379.4510 -7598.4447 301.5815 711.8008 744.6836 30870.0990 134.3930 192.0066
TCL: Running FEP window   5: Lambda1 0.7999999999999998 Lambda2 0.7499999999999998 [dLambda -0.050000000000000044]
TCL: Setting parameter firsttimestep to 0
TCL: Setting parameter alchLambda to 0.7999999999999998
Info: NONBONDED TABLE R-SQUARED SPACING: 0.0625
Info: NONBONDED TABLE SIZE: 705 POINTS
TCL: Setting parameter alchLambda2 to 0.7499999999999998
Info: NONBONDED TABLE R-SQUARED SPACING: 0.0625
Info: NONBONDED TABLE SIZE: 705 POINTS
TCL: Running for 1500000 steps
ETITLE: TS BOND ANGLE DIHED IMPRP ELECT VDW BOUNDARY MISC KINETIC TOTAL TEMP POTENTIAL TOTALAVG TEMPAVG PRESSURE GPRESSURE VOLUME PRESSAVG GPRESSAVG
ENERGY: 0 0.9857 6.9079 2.6556 0.0000 -10924.9694 1535.7242 0.0000 0.0000 1815.4083 -7563.2876 304.3155 -9378.6959 -7563.2876 304.3155 650.0796 739.8604 30870.0990 650.0796 739.8604
ENERGY: 300000 1.1059 4.8103 1.8774 0.0000 -10865.7653 1477.8918 0.0000 0.0000 1813.6581 -7566.4219 304.0221 -9380.0800 -7595.0369 304.0049 284.5335 350.1161 30497.9182 200.9159 274.1750
ENERGY: 600000 1.5962 3.1425 1.6574 0.0000 -10748.3117 1394.0977 0.0000 0.0000 1759.6208 -7588.1972 294.9638 -9347.8179 -7621.0448 299.8983 -301.9106 -224.6609 30848.3841 30.3596 102.9046
ENERGY: 900000 0.4742 6.0947 2.8993 0.0000 -10874.5659 1472.9638 0.0000 0.0000 1781.6621 -7610.4719 298.6586 -9392.1340 -7615.9166 298.8233 211.5249 340.3801 30605.0844 44.8988 120.0179
ENERGY: 1200000 2.8922 4.8379 1.2878 0.0000 -10814.9110 1432.4828 0.0000 0.0000 1788.5676 -7584.8426 299.8162 -9373.4102 -7608.9867 299.3677 -386.4836 -328.0462 31153.1636 -41.0969 25.1139
ENERGY: 1500000 1.6289 6.4907 1.7793 0.0000 -10988.5116 1492.5477 0.0000 0.0000 1783.2593 -7702.8057 298.9263 -9486.0650 -7610.4833 299.1983 37.2093 104.7429 30645.9245 -96.3367 -27.0294
TCL: Running FEP window   6: Lambda1 0.7499999999999998 Lambda2 0.6999999999999997 [dLambda -0.050000000000000044]
TCL: Setting parameter firsttimestep to 0
TCL: Setting parameter alchLambda to 0.7499999999999998
Info: NONBONDED TABLE R-SQUARED SPACING: 0.0625
Info: NONBONDED TABLE SIZE: 705 POINTS
TCL: Setting parameter alchLambda2 to 0.6999999999999997
Info: NONBONDED TABLE R-SQUARED SPACING: 0.0625
Info: NONBONDED TABLE SIZE: 705 POINTS
TCL: Running for 1500000 steps
ETITLE: TS BOND ANGLE DIHED IMPRP ELECT VDW BOUNDARY MISC KINETIC TOTAL TEMP POTENTIAL TOTALAVG TEMPAVG PRESSURE GPRESSURE VOLUME PRESSAVG GPRESSAVG
ENERGY: 0 1.6289 6.4907 1.7793 0.0000 -10987.9637 1492.7279 0.0000 0.0000 1782.3138 -7703.0231 298.7679 -9485.3369 -7703.0231 298.7679 21.3312 100.4477 30645.9245 21.3312 100.4477
ENERGY: 300000 1.8425 6.8471 2.2740 0.0000 -10836.5940 1391.8429 0.0000 0.0000 1815.8157 -7617.9717 304.3838 -9433.7874 -7631.4924 301.7712 -597.0278 -605.2214 30719.4469 -533.6128 -496.8318
ENERGY: 600000 0.9284 3.5554 2.0350 0.0000 -10715.3902 1379.4663 0.0000 0.0000 1815.7790 -7513.6262 304.3776 -9329.4052 -7625.2822 300.2176 -529.3602 -418.5361 31089.9895 -484.1015 -420.6192
ENERGY: 900000 1.1675 5.1518 1.0000 0.0000 -10924.9794 1454.2509 0.0000 0.0000 1820.3999 -7643.0092 305.1522 -9463.4091 -7623.0529 301.8395 -124.1676 -81.2035 30783.7310 -425.6202 -362.2959
ENERGY: 1200000 0.5341 3.5291 1.0104 0.0000 -10979.1169 1531.4827 0.0000 0.0000 1769.0294 -7673.5311 296.5410 -9442.5605 -7628.8361 300.8466 634.1012 683.0482 30703.7275 -276.8390 -216.8710
ENERGY: 1500000 0.8841 3.3030 2.0971 0.0000 -10824.0003 1472.2478 0.0000 0.0000 1875.1050 -7470.3632 314.3224 -9345.4683 -7612.9272 301.6389 315.8800 339.9893 30900.7256 -258.6431 -203.4062
TCL: Running FEP window   7: Lambda1 0.6999999999999997 Lambda2 0.6499999999999997 [dLambda -0.050000000000000044]
TCL: Setting parameter firsttimestep to 0
TCL: Setting parameter alchLambda to 0.6999999999999997
Info: NONBONDED TABLE R-SQUARED SPACING: 0.0625
Info: NONBONDED TABLE SIZE: 705 POINTS
TCL: Setting parameter alchLambda2 to 0.6499999999999997
Info: NONBONDED TABLE R-SQUARED SPACING: 0.0625
Info: NONBONDED TABLE SIZE: 705 POINTS
TCL: Running for 1500000 steps
ETITLE: TS BOND ANGLE DIHED IMPRP ELECT VDW BOUNDARY MISC KINETIC TOTAL TEMP POTENTIAL TOTALAVG TEMPAVG PRESSURE GPRESSURE VOLUME PRESSAVG GPRESSAVG
ENERGY: 0 0.8841 3.3030 2.0971 0.0000 -10823.2067 1472.5604 0.0000 0.0000 1874.2448 -7470.1173 314.1782 -9344.3621 -7470.1173 314.1782 247.5853 336.7287 30900.7256 247.5853 336.7287
ENERGY: 300000 0.0864 4.3766 1.9739 0.0000 -10906.1820 1472.2787 0.0000 0.0000 1790.0617 -7637.4047 300.0666 -9427.4664 -7605.0993 301.0435 -75.3053 35.1243 31066.9033 84.0398 152.1719
ENERGY: 600000 1.0906 4.3813 1.8522 0.0000 -10845.3512 1388.2361 0.0000 0.0000 1812.2140 -7637.5770 303.7800 -9449.7910 -7628.9243 300.6074 -519.5244 -467.9316 30667.6071 -41.0206 41.6092
ENERGY: 900000 1.4939 6.9674 1.2206 0.0000 -10925.7285 1499.6988 0.0000 0.0000 1799.8684 -7616.4794 301.7105 -9416.3478 -7624.6818 301.3379 508.5805 546.3932 30459.0853 -46.9298 26.2358
ENERGY: 1200000 0.6407 7.5298 1.7242 0.0000 -10804.0219 1403.1256 0.0000 0.0000 1866.1335 -7524.8680 312.8185 -9391.0015 -7618.0290 302.3571 -424.6156 -337.9016 30840.7973 -15.3461 62.6308
ENERGY: 1500000 0.3272 4.7953 2.0706 0.0000 -10770.3280 1373.4546 0.0000 0.0000 1777.9510 -7611.7293 298.0365 -9389.6803 -7611.6731 301.7580 -1085.9882 -1007.3096 31783.4387 -62.9886 15.6542
TCL: Running FEP window   8: Lambda1 0.6499999999999997 Lambda2 0.5999999999999996 [dLambda -0.050000000000000044]
TCL: Setting parameter firsttimestep to 0
TCL: Setting parameter alchLambda to 0.6499999999999997
Info: NONBONDED TABLE R-SQUARED SPACING: 0.0625
Info: NONBONDED TABLE SIZE: 705 POINTS
TCL: Setting parameter alchLambda2 to 0.5999999999999996
Info: NONBONDED TABLE R-SQUARED SPACING: 0.0625
Info: NONBONDED TABLE SIZE: 705 POINTS
TCL: Running for 1500000 steps
ETITLE: TS BOND ANGLE DIHED IMPRP ELECT VDW BOUNDARY MISC KINETIC TOTAL TEMP POTENTIAL TOTALAVG TEMPAVG PRESSURE GPRESSURE VOLUME PRESSAVG GPRESSAVG
ENERGY: 0 0.3272 4.7953 2.0706 0.0000 -10769.4229 1373.2262 0.0000 0.0000 1777.0771 -7611.9264 297.8900 -9389.0036 -7611.9264 297.8900 -1088.2070 -1012.5839 31783.4387 -1088.2070 -1012.5839
ENERGY: 300000 0.7553 5.7791 3.3914 0.0000 -10944.6881 1538.3528 0.0000 0.0000 1777.7268 -7618.6827 297.9989 -9396.4095 -7634.0252 294.8840 383.8333 430.2823 31331.4722 -370.4409 -326.3727
ENERGY: 600000 0.5252 6.3164 1.8653 0.0000 -10715.4307 1370.1691 0.0000 0.0000 1828.7149 -7507.8399 306.5460 -9336.5548 -7606.4224 298.4707 -592.5288 -537.2262 30989.4170 -395.1282 -355.8381
ENERGY: 900000 0.8207 7.0085 3.4548 0.0000 -10817.5624 1368.0393 0.0000 0.0000 1831.3751 -7606.8640 306.9920 -9438.2391 -7609.0291 299.8863 -526.9022 -447.7467 30539.9027 -260.2155 -208.0306
ENERGY: 1200000 0.1098 4.3609 1.2778 0.0000 -10725.6757 1421.6077 0.0000 0.0000 1765.2306 -7533.0891 295.9042 -9298.3196 -7606.1725 299.4504 -352.5532 -208.2680 31503.3074 -195.6408 -134.1740
ENERGY: 1500000 0.9616 5.6785 1.1286 0.0000 -10940.5966 1511.1396 0.0000 0.0000 1789.9885 -7631.6997 300.0544 -9421.6883 -7608.1426 299.5173 191.9133 248.8491 31169.0170 -176.8237 -110.4763
TCL: Running FEP window   9: Lambda1 0.5999999999999996 Lambda2 0.5499999999999996 [dLambda -0.050000000000000044]
TCL: Setting parameter firsttimestep to 0
TCL: Setting parameter alchLambda to 0.5999999999999996
Info: NONBONDED TABLE R-SQUARED SPACING: 0.0625
Info: NONBONDED TABLE SIZE: 705 POINTS
TCL: Setting parameter alchLambda2 to 0.5499999999999996
Info: NONBONDED TABLE R-SQUARED SPACING: 0.0625
Info: NONBONDED TABLE SIZE: 705 POINTS
TCL: Running for 1500000 steps
ETITLE: TS BOND ANGLE DIHED IMPRP ELECT VDW BOUNDARY MISC KINETIC TOTAL TEMP POTENTIAL TOTALAVG TEMPAVG PRESSURE GPRESSURE VOLUME PRESSAVG GPRESSAVG
ENERGY: 0 0.9616 5.6785 1.1286 0.0000 -10940.3583 1510.6913 0.0000 0.0000 1789.0851 -7632.8131 299.9029 -9421.8982 -7632.8131 299.9029 151.3699 242.9449 31169.0170 151.3699 242.9449
ENERGY: 300000 0.1238 3.4995 1.6524 0.0000 -10802.6666 1394.1072 0.0000 0.0000 1832.4507 -7570.8330 307.1723 -9403.2837 -7624.4933 303.4372 -702.3372 -549.3534 31053.7816 -166.0059 -72.1730
ENERGY: 600000 0.7572 4.7171 0.9959 0.0000 -10709.4941 1373.7760 0.0000 0.0000 1845.3746 -7483.8733 309.3387 -9329.2479 -7606.4906 303.8421 -644.3684 -569.2411 31369.1341 -224.6262 -132.0338
ENERGY: 900000 1.5509 6.1882 2.3605 0.0000 -10960.4132 1538.3657 0.0000 0.0000 1863.8791 -7548.0689 312.4406 -9411.9480 -7606.8247 302.3192 330.2387 436.7589 30906.1739 -77.9679 8.0252
ENERGY: 1200000 1.9509 2.6081 3.4966 0.0000 -10900.5637 1448.0204 0.0000 0.0000 1855.2685 -7589.2193 310.9972 -9444.4878 -7598.0952 303.3232 9.0341 81.1804 30752.3513 -22.2564 55.7049
ENERGY: 1500000 0.3220 2.7539 1.3924 0.0000 -11014.5934 1501.1575 0.0000 0.0000 1805.3152 -7703.6523 302.6236 -9508.9674 -7600.3540 303.0478 192.6611 188.3979 30400.0865 -16.2451 52.5083
TCL: Running FEP window  10: Lambda1 0.5499999999999996 Lambda2 0.4999999999999996 [dLambda -0.04999999999999999]
TCL: Setting parameter firsttimestep to 0
TCL: Setting parameter alchLambda to 0.5499999999999996
Info: NONBONDED TABLE R-SQUARED SPACING: 0.0625
Info: NONBONDED TABLE SIZE: 705 POINTS
TCL: Setting parameter alchLambda2 to 0.4999999999999996
Info: NONBONDED TABLE R-SQUARED SPACING: 0.0625
Info: NONBONDED TABLE SIZE: 705 POINTS
TCL: Running for 1500000 steps
ETITLE: TS BOND ANGLE DIHED IMPRP ELECT VDW BOUNDARY MISC KINETIC TOTAL TEMP POTENTIAL TOTALAVG TEMPAVG PRESSURE GPRESSURE VOLUME PRESSAVG GPRESSAVG
ENERGY: 0 0.3220 2.7539 1.3924 0.0000 -11014.5825 1501.3445 0.0000 0.0000 1804.4387 -7704.3309 302.4766 -9508.7696 -7704.3309 302.4766 115.7690 190.1229 30400.0865 115.7690 190.1229
ENERGY: 300000 1.7403 5.2106 1.8421 0.0000 -10862.6570 1471.4045 0.0000 0.0000 1775.6563 -7606.8032 297.6519 -9382.4595 -7644.0597 302.5406 115.9750 147.9365 30884.3424 65.2902 120.9473
ENERGY: 600000 0.8106 3.4026 1.2691 0.0000 -10867.0381 1464.6284 0.0000 0.0000 1742.5994 -7654.3280 292.1106 -9396.9274 -7639.9267 301.3504 215.2432 275.3076 30632.6934 56.7263 110.4422
ENERGY: 900000 0.7660 3.7467 1.3975 0.0000 -10680.2916 1414.2019 0.0000 0.0000 1800.7695 -7459.4100 301.8616 -9260.1796 -7616.5954 301.4790 -122.9889 8.2803 31079.8136 -14.3201 50.2790
ENERGY: 1200000 0.3765 4.4496 1.4603 0.0000 -10974.0739 1523.4454 0.0000 0.0000 1771.0389 -7673.3032 296.8779 -9444.3422 -7623.2856 300.5123 184.7515 235.6153 31271.2585 -22.6280 40.3612
ENERGY: 1500000 1.3467 3.7441 0.8477 0.0000 -10745.8721 1365.2770 0.0000 0.0000 1790.1995 -7584.4571 300.0897 -9374.6566 -7628.8284 300.0525 -827.2756 -801.6005 31337.2430 -71.4689 -10.4247
TCL: Running FEP window  11: Lambda1 0.4999999999999996 Lambda2 0.4499999999999996 [dLambda -0.04999999999999999]
TCL: Setting parameter firsttimestep to 0
TCL: Setting parameter alchLambda to 0.4999999999999996
Info: NONBONDED TABLE R-SQUARED SPACING: 0.0625
Info: NONBONDED TABLE SIZE: 705 POINTS
TCL: Setting parameter alchLambda2 to 0.4499999999999996
Info: NONBONDED TABLE R-SQUARED SPACING: 0.0625
Info: NONBONDED TABLE SIZE: 705 POINTS
TCL: Running for 1500000 steps
ETITLE: TS BOND ANGLE DIHED IMPRP ELECT VDW BOUNDARY MISC KINETIC TOTAL TEMP POTENTIAL TOTALAVG TEMPAVG PRESSURE GPRESSURE VOLUME PRESSAVG GPRESSAVG
ENERGY: 0 1.3467 3.7441 0.8477 0.0000 -10745.8215 1365.6171 0.0000 0.0000 1789.3500 -7584.9159 299.9473 -9374.2659 -7584.9159 299.9473 -888.1853 -803.4972 31337.2430 -888.1853 -803.4972
ENERGY: 300000 0.5090 2.5451 0.9686 0.0000 -10744.1095 1400.5005 0.0000 0.0000 1779.9728 -7559.6134 298.3754 -9339.5862 -7590.1277 301.6182 -37.2440 -18.6259 30539.6484 -460.9677 -402.2538
ENERGY: 600000 0.5123 4.0232 1.3247 0.0000 -10881.5642 1462.1095 0.0000 0.0000 1780.4325 -7633.1621 298.4525 -9413.5945 -7604.6622 299.1719 -131.9377 -97.5040 31032.0095 -386.3906 -333.0432
ENERGY: 900000 0.7018 6.2259 1.8740 0.0000 -10907.9913 1461.9962 0.0000 0.0000 1770.9161 -7666.2772 296.8573 -9437.1934 -7608.7720 299.1708 -80.2734 -65.9400 31126.8285 -264.2395 -214.9110
ENERGY: 1200000 0.6243 2.9663 2.9949 0.0000 -10748.7491 1393.5778 0.0000 0.0000 1808.7540 -7539.8318 303.2000 -9348.5858 -7599.8987 300.0810 -393.8188 -410.1569 30981.9144 -243.5104 -200.1803
ENERGY: 1500000 0.4721 3.1031 1.1410 0.0000 -10967.4707 1483.5575 0.0000 0.0000 1787.2799 -7691.9172 299.6003 -9479.1971 -7602.4520 300.1938 -103.9874 -33.5532 31089.3529 -268.4170 -222.6603
TCL: Running FEP window  12: Lambda1 0.4499999999999996 Lambda2 0.39999999999999963 [dLambda -0.04999999999999999]
TCL: Setting parameter firsttimestep to 0
TCL: Setting parameter alchLambda to 0.4499999999999996
Info: NONBONDED TABLE R-SQUARED SPACING: 0.0625
Info: NONBONDED TABLE SIZE: 705 POINTS
TCL: Setting parameter alchLambda2 to 0.39999999999999963
Info: NONBONDED TABLE R-SQUARED SPACING: 0.0625
Info: NONBONDED TABLE SIZE: 705 POINTS
TCL: Running for 1500000 steps
ETITLE: TS BOND ANGLE DIHED IMPRP ELECT VDW BOUNDARY MISC KINETIC TOTAL TEMP POTENTIAL TOTALAVG TEMPAVG PRESSURE GPRESSURE VOLUME PRESSAVG GPRESSAVG
ENERGY: 0 0.4721 3.1031 1.1410 0.0000 -10967.4710 1482.8979 0.0000 0.0000 1786.4014 -7693.4556 299.4531 -9479.8570 -7693.4556 299.4531 -131.1260 -43.7479 31089.3529 -131.1260 -43.7479
ENERGY: 300000 0.0417 7.4423 3.3098 0.0000 -10876.3037 1400.0130 0.0000 0.0000 1823.1807 -7642.3163 305.6183 -9465.4969 -7658.9831 300.2024 -539.7896 -469.1854 30612.0921 -202.5638 -167.5749
ENERGY: 600000 1.2828 5.6577 0.8436 0.0000 -10958.3792 1542.1304 0.0000 0.0000 1857.0504 -7551.4144 311.2959 -9408.4648 -7635.4708 300.9289 572.7401 654.4781 30663.0021 5.7807 61.5983
ENERGY: 900000 0.2078 4.8525 1.4186 0.0000 -10814.0355 1413.8782 0.0000 0.0000 1806.3877 -7587.2906 302.8033 -9393.6782 -7628.1127 300.9564 -292.3601 -234.3021 30769.9491 3.3269 53.3926
ENERGY: 1200000 0.7287 3.9019 1.4380 0.0000 -10855.4278 1459.0032 0.0000 0.0000 1781.8328 -7608.5232 298.6872 -9390.3560 -7629.4648 300.8942 102.0446 140.7208 30725.9045 11.1955 62.5328
ENERGY: 1500000 1.8009 6.4196 1.7898 0.0000 -10808.9381 1441.8028 0.0000 0.0000 1786.3963 -7570.7288 299.4522 -9357.1251 -7630.3999 300.8072 -216.5995 -190.2177 31361.5365 -9.5916 38.6661
TCL: Running FEP window  13: Lambda1 0.39999999999999963 Lambda2 0.34999999999999964 [dLambda -0.04999999999999999]
TCL: Setting parameter firsttimestep to 0
TCL: Setting parameter alchLambda to 0.39999999999999963
Info: NONBONDED TABLE R-SQUARED SPACING: 0.0625
Info: NONBONDED TABLE SIZE: 705 POINTS
TCL: Setting parameter alchLambda2 to 0.34999999999999964
Info: NONBONDED TABLE R-SQUARED SPACING: 0.0625
Info: NONBONDED TABLE SIZE: 705 POINTS
TCL: Running for 1500000 steps
ETITLE: TS BOND ANGLE DIHED IMPRP ELECT VDW BOUNDARY MISC KINETIC TOTAL TEMP POTENTIAL TOTALAVG TEMPAVG PRESSURE GPRESSURE VOLUME PRESSAVG GPRESSAVG
ENERGY: 0 1.8009 6.4196 1.7898 0.0000 -10808.9387 1441.9373 0.0000 0.0000 1785.4582 -7571.5329 299.2950 -9356.9911 -7571.5329 299.2950 -265.5920 -192.1257 31361.5365 -265.5920 -192.1257
ENERGY: 300000 0.6216 4.6860 0.9510 0.0000 -10885.8153 1515.3049 0.0000 0.0000 1753.2693 -7610.9824 293.8991 -9364.2517 -7606.5246 298.3184 290.9707 305.3103 31354.8078 -190.4683 -142.2792
ENERGY: 600000 0.0946 3.7477 1.0784 0.0000 -10906.6144 1493.0571 0.0000 0.0000 1802.3240 -7606.3126 302.1222 -9408.6366 -7623.0476 298.6294 287.4812 326.9387 30659.8718 -105.9075 -47.6847
ENERGY: 900000 0.0563 5.5196 2.6646 0.0000 -10797.5974 1458.8641 0.0000 0.0000 1820.6645 -7509.8283 305.1965 -9330.4928 -7604.6567 299.5726 -142.5234 -91.2370 31355.2811 -36.8794 22.3332
ENERGY: 1200000 2.2196 7.7987 1.0237 0.0000 -10983.7642 1463.4971 0.0000 0.0000 1785.2939 -7723.9312 299.2674 -9509.2251 -7625.7888 298.6439 -362.7806 -295.6587 30660.5934 -50.7300 12.9867
ENERGY: 1500000 0.8257 5.6253 1.8603 0.0000 -10806.9462 1423.1991 0.0000 0.0000 1798.2368 -7577.1989 301.4370 -9375.4358 -7623.9660 299.2009 7.3710 84.4520 30352.3873 -115.9623 -48.0484
TCL: Running FEP window  14: Lambda1 0.34999999999999964 Lambda2 0.29999999999999966 [dLambda -0.04999999999999999]
TCL: Setting parameter firsttimestep to 0
TCL: Setting parameter alchLambda to 0.34999999999999964
Info: NONBONDED TABLE R-SQUARED SPACING: 0.0625
Info: NONBONDED TABLE SIZE: 705 POINTS
TCL: Setting parameter alchLambda2 to 0.29999999999999966
Info: NONBONDED TABLE R-SQUARED SPACING: 0.0625
Info: NONBONDED TABLE SIZE: 705 POINTS
TCL: Running for 1500000 steps
ETITLE: TS BOND ANGLE DIHED IMPRP ELECT VDW BOUNDARY MISC KINETIC TOTAL TEMP POTENTIAL TOTALAVG TEMPAVG PRESSURE GPRESSURE VOLUME PRESSAVG GPRESSAVG
ENERGY: 0 0.8257 5.6253 1.8603 0.0000 -10806.9464 1423.1637 0.0000 0.0000 1797.2981 -7578.1733 301.2797 -9375.4715 -7578.1733 301.2797 1.2569 78.3006 30352.3873 1.2569 78.3006
ENERGY: 300000 0.7492 9.2444 2.4379 0.0000 -10992.3374 1496.2116 0.0000 0.0000 1820.0552 -7663.6391 305.0944 -9483.6942 -7622.3272 301.8984 259.9276 332.0903 30317.5614 -143.1776 -88.8211
ENERGY: 600000 0.4950 7.0254 0.9327 0.0000 -10848.3152 1468.5518 0.0000 0.0000 1782.9003 -7588.4099 298.8662 -9371.3102 -7631.1764 300.8762 265.5947 315.8022 30526.3525 67.1740 113.3555
ENERGY: 900000 3.8289 2.4658 2.3609 0.0000 -10792.4456 1421.8420 0.0000 0.0000 1737.8137 -7624.1343 291.3083 -9361.9480 -7627.6145 299.8782 -1.9727 57.7593 30620.4810 85.5067 138.3723
ENERGY: 1200000 0.3664 5.1586 1.2220 0.0000 -10802.6159 1405.7253 0.0000 0.0000 1786.9936 -7603.1499 299.5523 -9390.1435 -7625.7471 300.1920 -460.7579 -432.0631 30735.4095 29.3038 75.3485
ENERGY: 1500000 1.6115 4.9328 1.7304 0.0000 -11074.5989 1569.4520 0.0000 0.0000 1812.0387 -7684.8335 303.7506 -9496.8722 -7624.2448 300.4603 382.8653 395.2431 31057.5781 22.1606 66.3285
TCL: Running FEP window  15: Lambda1 0.29999999999999966 Lambda2 0.24999999999999967 [dLambda -0.04999999999999999]
TCL: Setting parameter firsttimestep to 0
TCL: Setting parameter alchLambda to 0.29999999999999966
Info: NONBONDED TABLE R-SQUARED SPACING: 0.0625
Info: NONBONDED TABLE SIZE: 705 POINTS
TCL: Setting parameter alchLambda2 to 0.24999999999999967
Info: NONBONDED TABLE R-SQUARED SPACING: 0.0625
Info: NONBONDED TABLE SIZE: 705 POINTS
TCL: Running for 1500000 steps
ETITLE: TS BOND ANGLE DIHED IMPRP ELECT VDW BOUNDARY MISC KINETIC TOTAL TEMP POTENTIAL TOTALAVG TEMPAVG PRESSURE GPRESSURE VOLUME PRESSAVG GPRESSAVG
ENERGY: 0 1.6115 4.9328 1.7304 0.0000 -11074.5989 1568.9056 0.0000 0.0000 1811.1781 -7686.2405 303.6064 -9497.4187 -7686.2405 303.6064 315.8245 389.5396 31057.5781 315.8245 389.5396
ENERGY: 300000 0.1755 4.3979 2.5909 0.0000 -10891.3207 1467.2232 0.0000 0.0000 1713.6086 -7703.3247 287.2509 -9416.9333 -7677.2171 298.5876 -204.2142 -192.7621 31294.4279 -201.8303 -163.9551
ENERGY: 600000 0.6753 3.6687 2.2586 0.0000 -10918.9058 1486.1276 0.0000 0.0000 1792.8651 -7633.3105 300.5366 -9426.1756 -7640.2965 300.0775 237.5067 272.9079 30485.9033 -155.9686 -111.4890
ENERGY: 900000 1.0202 4.4055 2.0557 0.0000 -10891.3127 1471.1180 0.0000 0.0000 1776.3993 -7636.3140 297.7764 -9412.7133 -7644.6224 300.0705 158.5055 189.8856 30695.8212 -157.1080 -105.7785
ENERGY: 1200000 0.6849 4.5850 2.1189 0.0000 -10832.4827 1426.2798 0.0000 0.0000 1766.6202 -7632.1940 296.1371 -9398.8142 -7633.5958 299.7154 -290.1131 -258.2197 30878.0681 -189.2834 -142.8796
ENERGY: 1500000 1.6077 3.2093 1.4497 0.0000 -10991.6672 1543.9059 0.0000 0.0000 1807.9360 -7633.5586 303.0629 -9441.4946 -7634.5842 299.6714 491.1089 524.5477 30684.8015 -131.7984 -80.6665
TCL: Running FEP window  16: Lambda1 0.24999999999999967 Lambda2 0.19999999999999968 [dLambda -0.04999999999999999]
TCL: Setting parameter firsttimestep to 0
TCL: Setting parameter alchLambda to 0.24999999999999967
Info: NONBONDED TABLE R-SQUARED SPACING: 0.0625
Info: NONBONDED TABLE SIZE: 705 POINTS
TCL: Setting parameter alchLambda2 to 0.19999999999999968
Info: NONBONDED TABLE R-SQUARED SPACING: 0.0625
Info: NONBONDED TABLE SIZE: 705 POINTS
TCL: Running for 1500000 steps
ETITLE: TS BOND ANGLE DIHED IMPRP ELECT VDW BOUNDARY MISC KINETIC TOTAL TEMP POTENTIAL TOTALAVG TEMPAVG PRESSURE GPRESSURE VOLUME PRESSAVG GPRESSAVG
ENERGY: 0 1.6077 3.2093 1.4497 0.0000 -10991.6665 1544.1591 0.0000 0.0000 1807.0338 -7634.2069 302.9116 -9441.2406 -7634.2069 302.9116 443.0641 525.0503 30684.8015 443.0641 525.0503
ENERGY: 300000 0.2563 3.9022 4.1387 0.0000 -10985.1066 1526.3237 0.0000 0.0000 1767.6881 -7682.7976 296.3162 -9450.4857 -7642.9508 300.4623 436.8926 531.0418 30425.1496 258.0028 348.6425
ENERGY: 600000 0.5291 5.6136 3.8682 0.0000 -10897.6948 1470.0797 0.0000 0.0000 1749.2735 -7668.3308 293.2293 -9417.6043 -7646.0848 299.2325 -112.9655 -93.4885 31086.3206 106.7455 176.3350
ENERGY: 900000 0.2922 5.8014 2.4055 0.0000 -11035.2746 1557.8168 0.0000 0.0000 1801.4676 -7667.4910 301.9786 -9468.9586 -7653.9326 298.5251 419.8895 458.3410 30716.9778 144.2421 205.5555
ENERGY: 1200000 0.9521 4.7478 2.8913 0.0000 -10880.1107 1469.9338 0.0000 0.0000 1740.8665 -7660.7191 291.8201 -9401.5856 -7658.7112 297.2582 -129.0474 -164.5398 31379.5339 16.1541 74.2090
ENERGY: 1500000 0.2173 3.7538 1.2150 0.0000 -10782.8561 1438.0885 0.0000 0.0000 1820.9002 -7518.6813 305.2361 -9339.5815 -7651.1079 297.6414 -352.1593 -256.9135 31391.2177 -5.5766 58.8217
TCL: Running FEP window  17: Lambda1 0.19999999999999968 Lambda2 0.1499999999999997 [dLambda -0.04999999999999999]
TCL: Setting parameter firsttimestep to 0
TCL: Setting parameter alchLambda to 0.19999999999999968
Info: NONBONDED TABLE R-SQUARED SPACING: 0.0625
Info: NONBONDED TABLE SIZE: 705 POINTS
TCL: Setting parameter alchLambda2 to 0.1499999999999997
Info: NONBONDED TABLE R-SQUARED SPACING: 0.0625
Info: NONBONDED TABLE SIZE: 705 POINTS
TCL: Running for 1500000 steps
ETITLE: TS BOND ANGLE DIHED IMPRP ELECT VDW BOUNDARY MISC KINETIC TOTAL TEMP POTENTIAL TOTALAVG TEMPAVG PRESSURE GPRESSURE VOLUME PRESSAVG GPRESSAVG
ENERGY: 0 0.2173 3.7538 1.2150 0.0000 -10782.8572 1438.1645 0.0000 0.0000 1820.0601 -7519.4466 305.0952 -9339.5066 -7519.4466 305.0952 -343.2193 -258.0338 31391.2177 -343.2193 -258.0338
ENERGY: 300000 0.4823 6.8608 1.7265 0.0000 -11041.3589 1555.6520 0.0000 0.0000 1798.6810 -7677.9562 301.5115 -9476.6372 -7563.7156 303.3543 783.5682 762.6335 30290.8357 101.0364 154.6932
ENERGY: 600000 0.3662 3.9522 0.7767 0.0000 -10869.2778 1439.3142 0.0000 0.0000 1847.9299 -7576.9386 309.7670 -9424.8685 -7591.0718 302.0907 -301.2303 -230.8097 31032.0180 -73.2342 -24.6360
ENERGY: 900000 0.2739 6.0590 1.1593 0.0000 -10872.4836 1410.2127 0.0000 0.0000 1765.1735 -7689.6053 295.8946 -9454.7788 -7595.7786 302.0886 -671.6764 -587.7634 30894.5866 -34.5071 6.1835
ENERGY: 1200000 0.1519 6.2685 2.9132 0.0000 -10856.8350 1484.1201 0.0000 0.0000 1765.8320 -7597.5492 296.0050 -9363.3812 -7599.2452 301.4690 152.1591 233.2579 31036.7514 -19.6594 27.7983
ENERGY: 1500000 0.9718 4.1136 2.8836 0.0000 -10994.3518 1510.9536 0.0000 0.0000 1825.0496 -7650.3796 305.9316 -9475.4292 -7610.9984 301.3162 433.1765 419.5455 30632.9786 39.8991 85.1467
TCL: Running FEP window  18: Lambda1 0.1499999999999997 Lambda2 0.09999999999999969 [dLambda -0.05 ]
TCL: Setting parameter firsttimestep to 0
TCL: Setting parameter alchLambda to 0.1499999999999997
Info: NONBONDED TABLE R-SQUARED SPACING: 0.0625
Info: NONBONDED TABLE SIZE: 705 POINTS
TCL: Setting parameter alchLambda2 to 0.09999999999999969
Info: NONBONDED TABLE R-SQUARED SPACING: 0.0625
Info: NONBONDED TABLE SIZE: 705 POINTS
TCL: Running for 1500000 steps
ETITLE: TS BOND ANGLE DIHED IMPRP ELECT VDW BOUNDARY MISC KINETIC TOTAL TEMP POTENTIAL TOTALAVG TEMPAVG PRESSURE GPRESSURE VOLUME PRESSAVG GPRESSAVG
ENERGY: 0 0.9718 4.1136 2.8836 0.0000 -10994.3515 1511.2452 0.0000 0.0000 1824.1165 -7651.0209 305.7752 -9475.1373 -7651.0209 305.7752 349.3635 418.8742 30632.9786 349.3635 418.8742
ENERGY: 300000 0.1581 6.8718 3.0080 0.0000 -10940.0134 1495.7465 0.0000 0.0000 1898.2374 -7535.9917 318.2000 -9434.2291 -7635.2322 306.2081 100.7567 186.8881 30761.2026 90.0345 145.6089
ENERGY: 600000 1.6841 4.0294 2.5891 0.0000 -10761.4138 1382.5077 0.0000 0.0000 1834.2942 -7536.3093 307.4813 -9370.6036 -7595.4705 305.5704 -622.1996 -599.2797 30984.9320 68.0324 113.1480
ENERGY: 900000 0.3381 4.8940 5.7528 0.0000 -10928.7575 1522.2673 0.0000 0.0000 1812.6704 -7582.8348 303.8565 -9395.5052 -7598.9680 304.3130 406.8437 432.1186 30841.1577 89.5016 144.7934
ENERGY: 1200000 1.5290 5.8886 2.4618 0.0000 -10801.4267 1440.8659 0.0000 0.0000 1843.4925 -7507.1889 309.0232 -9350.6814 -7590.8404 303.9251 -193.6653 -88.3332 31139.9687 -14.2364 48.3190
ENERGY: 1500000 3.3661 3.9127 2.1539 0.0000 -11009.4578 1547.5134 0.0000 0.0000 1830.8343 -7621.6774 306.9013 -9452.5118 -7589.2575 303.6768 630.4464 661.7159 30476.3319 82.6182 139.8260
TCL: Running FEP window  19: Lambda1 0.09999999999999969 Lambda2 0.049999999999999684 [dLambda -0.05 ]
TCL: Setting parameter firsttimestep to 0
TCL: Setting parameter alchLambda to 0.09999999999999969
Info: NONBONDED TABLE R-SQUARED SPACING: 0.0625
Info: NONBONDED TABLE SIZE: 705 POINTS
TCL: Setting parameter alchLambda2 to 0.049999999999999684
Info: NONBONDED TABLE R-SQUARED SPACING: 0.0625
Info: NONBONDED TABLE SIZE: 705 POINTS
TCL: Running for 1500000 steps
ETITLE: TS BOND ANGLE DIHED IMPRP ELECT VDW BOUNDARY MISC KINETIC TOTAL TEMP POTENTIAL TOTALAVG TEMPAVG PRESSURE GPRESSURE VOLUME PRESSAVG GPRESSAVG
ENERGY: 0 3.3661 3.9127 2.1539 0.0000 -11009.4595 1547.0319 0.0000 0.0000 1829.9782 -7623.0168 306.7578 -9452.9950 -7623.0168 306.7578 582.9343 657.5619 30476.3319 582.9343 657.5619
ENERGY: 300000 1.1317 5.5309 1.1749 0.0000 -10767.6259 1458.7167 0.0000 0.0000 1804.4645 -7496.6072 302.4810 -9301.0717 -7587.8445 304.4055 410.2872 500.0713 30457.8300 196.5108 283.4016
ENERGY: 600000 0.1700 6.7150 1.2026 0.0000 -10805.2995 1401.0790 0.0000 0.0000 1802.1164 -7594.0166 302.0874 -9396.1330 -7603.1551 301.9585 -730.3700 -603.7199 31340.3994 15.4370 88.5378
ENERGY: 900000 2.1221 3.8638 1.5975 0.0000 -10895.4150 1476.7759 0.0000 0.0000 1792.9057 -7618.1499 300.5434 -9411.0556 -7603.4711 300.9276 -175.5810 -132.2732 31134.3130 -17.6497 50.8635
ENERGY: 1200000 3.0112 7.6217 3.1961 0.0000 -10745.1685 1388.9159 0.0000 0.0000 1756.8762 -7585.5475 294.5038 -9342.4237 -7610.1545 299.5575 -710.9288 -691.4015 31035.4382 -53.2834 3.7904
ENERGY: 1500000 0.9125 4.0505 0.8750 0.0000 -10929.0594 1468.6291 0.0000 0.0000 1778.7797 -7675.8126 298.1754 -9454.5923 -7610.5941 300.0393 -99.7545 -109.5331 30759.5635 -136.4390 -85.1858
TCL: Running FEP window  20: Lambda1 0.049999999999999684 Lambda2 0.0    [dLambda -0.049999999999999684]
TCL: Setting parameter firsttimestep to 0
TCL: Setting parameter alchLambda to 0.049999999999999684
Info: NONBONDED TABLE R-SQUARED SPACING: 0.0625
Info: NONBONDED TABLE SIZE: 705 POINTS
TCL: Setting parameter alchLambda2 to 0.0
Info: NONBONDED TABLE R-SQUARED SPACING: 0.0625
Info: NONBONDED TABLE SIZE: 705 POINTS
TCL: Running for 1500000 steps
ETITLE: TS BOND ANGLE DIHED IMPRP ELECT VDW BOUNDARY MISC KINETIC TOTAL TEMP POTENTIAL TOTALAVG TEMPAVG PRESSURE GPRESSURE VOLUME PRESSAVG GPRESSAVG
ENERGY: 0 0.9125 4.0505 0.8750 0.0000 -10929.0596 1468.7126 0.0000 0.0000 1777.8798 -7676.6293 298.0246 -9454.5090 -7676.6293 298.0246 -189.8015 -113.7050 30759.5635 -189.8015 -113.7050
ENERGY: 300000 0.1796 7.3772 0.8814 0.0000 -10769.9631 1343.1140 0.0000 0.0000 1791.8042 -7626.6067 300.3587 -9418.4109 -7637.9257 299.8017 -1122.8739 -1084.7046 31166.9334 -76.8827 -15.4965
ENERGY: 600000 0.3620 4.5445 0.7758 0.0000 -10874.4541 1469.3244 0.0000 0.0000 1733.5205 -7665.9269 290.5887 -9399.4474 -7637.7093 297.2131 -67.4998 -33.3903 30751.8134 -174.1819 -108.4098
ENERGY: 900000 2.5861 5.3608 4.0445 0.0000 -10916.0862 1454.5124 0.0000 0.0000 1806.0382 -7643.5443 302.7448 -9449.5825 -7636.4993 298.0242 -670.2231 -619.8522 31387.9917 -299.6545 -240.2556
ENERGY: 1200000 0.5672 4.5535 2.5030 0.0000 -10785.0003 1442.2828 0.0000 0.0000 1770.7927 -7564.3009 296.8366 -9335.0937 -7634.1077 298.1669 -249.4941 -206.0682 31212.2213 -267.5160 -203.8319
ENERGY: 1500000 2.9029 7.1529 1.1252 0.0000 -10883.5636 1432.9337 0.0000 0.0000 1785.0079 -7654.4410 299.2195 -9439.4489 -7631.3381 298.8441 -665.0364 -556.5487 31071.7273 -355.1688 -288.3949
TCL: Exiting due to exit command.
