Info: SIMULATION PARAMETERS:
Info: TIMESTEP               2
Info: NUMBER OF STEPS        0
Info: STEPS PER CYCLE        10
Info: PERIODIC CELL BASIS 1  31.1411 0 0
Info: PERIODIC CELL BASIS 2  0 28.6239 0
Info: PERIODIC CELL BASIS 3  0 0 34.673
Info: PERIODIC CELL CENTER   0 0 0
Info: WRAPPING WATERS AROUND PERIODIC BOUNDARIES ON OUTPUT.
Info: WRAPPING ALL CLUSTERS AROUND PERIODIC BOUNDARIES ON OUTPUT.
Info: FIRST LDB TIMESTEP     50
Info: LAST LDB TIMESTEP     -1
Info: HOM BACKGROUND SCALING 1
Info: PME BACKGROUND SCALING 1
Info: MIN ATOMS PER PATCH    40
Info: EMPTY PATCH LOAD       40 ATOMS
Info: VELOCITY FILE          mobley_397645_equil.vel
Info: CENTER OF MASS MOVING INITIALLY? NO
Info: DIELECTRIC             1
Info: EXCLUDE                SCALED ONE-FOUR
Info: 1-4 ELECTROSTATICS SCALED BY 0.833333
Info: MODIFIED 1-4 VDW PARAMETERS WILL BE USED
Info: DCD FILENAME           mobley_397645_prod.dcd
Info: DCD FREQUENCY          100000
Info: DCD FIRST STEP         100000
Info: DCD FILE WILL CONTAIN UNIT CELL DATA
Info: XST FILENAME           mobley_397645_prod.xst
Info: XST FREQUENCY          100000
Info: NO VELOCITY DCD OUTPUT
Info: NO FORCE DCD OUTPUT
Info: OUTPUT FILENAME        mobley_397645_prod
Info: BINARY OUTPUT FILES WILL BE USED
Info: RESTART FILENAME       mobley_397645_prod.restart
Info: RESTART FREQUENCY      100000
Info: BINARY RESTART FILES WILL BE USED
Info: CUTOFF                 9
Info: PAIRLIST DISTANCE      11
Info: PAIRLIST SHRINK RATE   0.01
Info: PAIRLIST GROW RATE     0.01
Info: PAIRLIST TRIGGER       0.3
Info: PAIRLISTS PER CYCLE    2
Info: PAIRLISTS ENABLED
Info: MARGIN                 2
Info: HYDROGEN GROUP CUTOFF  2.5
Info: PATCH DIMENSION        15.5
Info: ENERGY OUTPUT STEPS    100000
Info: ENERGY EVALUATION STEPS    100000
Info: OUTPUT ENERGY PRECISION 4
Info: CROSSTERM ENERGY INCLUDED IN DIHEDRAL
Info: TIMING OUTPUT STEPS    1000000
Info: PRESSURE OUTPUT STEPS  100000
Info: ALCHEMICAL FEP ON
Info: FEP CURRENT LAMBDA VALUE     0
Info: FEP COMPARISON LAMBDA VALUE  0.05
Info: FEP INTRA-ALCHEMICAL NON-BONDED INTERACTIONS WILL BE RETAINED
Info: FEP INTRA-ALCHEMICAL BONDED INTERACTIONS WILL BE RETAINED
Info: FEP VDW SHIFTING COEFFICIENT 5
Info: FEP ELEC. ACTIVE FOR ANNIHILATED PARTICLES BETWEEN LAMBDA = 0 AND LAMBDA = 0.5
Info: FEP ELEC. ACTIVE FOR EXNIHILATED PARTICLES BETWEEN LAMBDA = 0.5 AND LAMBDA = 1
Info: FEP VDW ACTIVE FOR ANNIHILATED PARTICLES BETWEEN LAMBDA = 0 AND LAMBDA = 1
Info: FEP VDW ACTIVE FOR EXNIHILATED PARTICLES BETWEEN LAMBDA = 0 AND LAMBDA = 1
Info: FEP BOND ACTIVE FOR ANNIHILATED PARTICLES BETWEEN LAMBDA = 1 AND LAMBDA = 1
Info: FEP BOND ACTIVE FOR EXNIHILATED PARTICLES BETWEEN LAMBDA = 0 AND LAMBDA = 0
Info: LANGEVIN DYNAMICS ACTIVE
Info: LANGEVIN TEMPERATURE   300
Info: LANGEVIN USING BBK INTEGRATOR
Info: LANGEVIN DAMPING COEFFICIENT IS 1 INVERSE PS
Info: LANGEVIN DYNAMICS APPLIED TO HYDROGENS
Info: LANGEVIN PISTON PRESSURE CONTROL ACTIVE
Info:        TARGET PRESSURE IS 1.01325 BAR
Info:     OSCILLATION PERIOD IS 50 FS
Info:             DECAY TIME IS 25 FS
Info:     PISTON TEMPERATURE IS 300 K
Info:       PRESSURE CONTROL IS GROUP-BASED
Info:    INITIAL STRAIN RATE IS 0.00025267 0.00025267 0.00025267
Info:       CELL FLUCTUATION IS ISOTROPIC
Info: PARTICLE MESH EWALD (PME) ACTIVE
Info: PME TOLERANCE               1e-06
Info: PME EWALD COEFFICIENT       0.348832
Info: PME INTERPOLATION ORDER     4
Info: PME GRID DIMENSIONS         32 32 36
Info: PME MAXIMUM GRID SPACING    1
Info: PME CALCULATION WILL BE PERFORMED ON GPU
Info: FULL ELECTROSTATIC EVALUATION FREQUENCY      2
Info: USING VERLET I (r-RESPA) MTS SCHEME.
Info: C1 SPLITTING OF LONG RANGE ELECTROSTATICS
Info: PLACING ATOMS IN PATCHES BY HYDROGEN GROUPS
Info: RIGID BONDS TO HYDROGEN : ALL
Info:         ERROR TOLERANCE : 1e-08
Info:          MAX ITERATIONS : 100
Info: RIGID WATER USING SETTLE ALGORITHM
Info: RANDOM NUMBER SEED     1743869281
Info: USE HYDROGEN BONDS?    NO
Info: Using AMBER format force field!
Info: AMBER PARM FILE        mobley_397645.prmtop
Info: COORDINATE PDB         mobley_397645.pdb
Info: Exclusions will be read from PARM file!
Info: SCNB (VDW SCALING)     2
Info: USING ARITHMETIC MEAN TO COMBINE L-J SIGMA PARAMETERS
Info: BINARY COORDINATES     mobley_397645_equil.coor
Info: SUMMARY OF PARAMETERS:
Info: 11 BONDS
Info: 13 ANGLES
Info:   13 HARMONIC
Info:   0 COSINE-BASED
Info: 11 DIHEDRAL
Info: 0 IMPROPER
Info: 0 CROSSTERM
Info: 0 VDW
Info: 45 VDW_PAIRS
Info: 0 NBTHOLE_PAIRS
Info: To read alchdata from file: mobley_397645.pdb
Info: To read alchflag data from column: 5
Info: STRUCTURE SUMMARY:
Info: 2967 ATOMS
Info: 2967 BONDS
Info: 34 ANGLES
Info: 54 DIHEDRALS
Info: 0 IMPROPERS
Info: 0 CROSSTERMS
Info: 3040 EXCLUSIONS
Info: 2956 RIGID BONDS
Info: ALCH: 0 ATOMS TO DISAPPEAR IN FINAL STATE
Info: ALCH: 21 ATOMS TO APPEAR IN FINAL STATE
Info: 5945 DEGREES OF FREEDOM
Info: 993 HYDROGEN GROUPS
Info: 4 ATOMS IN LARGEST HYDROGEN GROUP
Info: 993 MIGRATION GROUPS
Info: 4 ATOMS IN LARGEST MIGRATION GROUP
Info: TOTAL MASS = 17841.9 amu
Info: TOTAL CHARGE = 0.00019994 e
Info: MASS DENSITY = 0.95862 g/cm^3
Info: ATOM DENSITY = 0.0959984 atoms/A^3
Info: ADDED 0 IMPLICIT EXCLUSIONS
Info: NONBONDED TABLE R-SQUARED SPACING: 0.0625
Info: NONBONDED TABLE SIZE: 705 POINTS
Info: REMOVING COM VELOCITY 0.113261 0.13869 0.0506785
Info: Use 3D box decompostion in PME FFT.
Info: Updated CUDA force table with 4096 elements.
Info: Updated CUDA LJ table with 9 x 9 elements.
Info: Found 20 unique exclusion lists needing 56 bytes
TCL: Running for 1500000 steps
ETITLE: TS BOND ANGLE DIHED IMPRP ELECT VDW BOUNDARY MISC KINETIC TOTAL TEMP POTENTIAL TOTALAVG TEMPAVG PRESSURE GPRESSURE VOLUME PRESSAVG GPRESSAVG
ENERGY: 0 2.3807 6.3146 8.6303 0.0000 -10584.2763 1378.9563 0.0000 0.0000 1770.3603 -7417.6342 299.7093 -9187.9945 -7417.6342 299.7093 -476.7334 -391.0193 30906.7679 -476.7334 -391.0193
ENERGY: 300000 2.0710 5.1762 6.0180 0.0000 -10710.6566 1424.6080 0.0000 0.0000 1750.3908 -7522.3926 296.3286 -9272.7833 -7486.4032 299.8922 -493.6074 -368.6741 30779.2705 -431.2321 -334.5322
ENERGY: 600000 2.8323 9.3173 9.7520 0.0000 -10562.2784 1352.2412 0.0000 0.0000 1789.8183 -7398.3173 303.0034 -9188.1357 -7473.8725 299.5374 -523.0370 -503.4492 30433.9815 -323.8653 -251.6573
ENERGY: 900000 4.7157 3.6803 5.7591 0.0000 -10647.1465 1445.6126 0.0000 0.0000 1779.7086 -7407.6702 301.2919 -9187.3788 -7471.7707 299.3253 154.4504 122.7607 30724.5270 -284.6618 -225.0374
ENERGY: 1200000 1.1159 5.2614 7.3086 0.0000 -10815.7675 1525.0847 0.0000 0.0000 1724.7413 -7552.2556 291.9863 -9276.9969 -7483.5311 298.7374 482.0781 542.0957 30473.1788 -128.5251 -67.7904
ENERGY: 1500000 3.6350 8.5698 5.6055 0.0000 -10625.6870 1366.6281 0.0000 0.0000 1782.4000 -7458.8486 301.7475 -9241.2486 -7480.1596 300.1087 -590.8671 -611.1457 30672.5764 -66.8624 -9.7118
TCL: Running FEP window   2: Lambda1 0.05   Lambda2 0.1    [dLambda 0.05  ]
TCL: Setting parameter firsttimestep to 0
TCL: Setting parameter alchLambda to 0.05
Info: NONBONDED TABLE R-SQUARED SPACING: 0.0625
Info: NONBONDED TABLE SIZE: 705 POINTS
TCL: Setting parameter alchLambda2 to 0.1
Info: NONBONDED TABLE R-SQUARED SPACING: 0.0625
Info: NONBONDED TABLE SIZE: 705 POINTS
TCL: Running for 1500000 steps
ETITLE: TS BOND ANGLE DIHED IMPRP ELECT VDW BOUNDARY MISC KINETIC TOTAL TEMP POTENTIAL TOTALAVG TEMPAVG PRESSURE GPRESSURE VOLUME PRESSAVG GPRESSAVG
ENERGY: 0 3.6350 8.5698 5.6055 0.0000 -10625.6876 1369.9690 0.0000 0.0000 1781.4954 -7456.4130 301.5944 -9237.9083 -7456.4130 301.5944 -680.2626 -604.3527 30672.5764 -680.2626 -604.3527
ENERGY: 300000 4.9410 7.6892 4.3551 0.0000 -10778.7432 1563.3185 0.0000 0.0000 1785.8921 -7412.5473 302.3387 -9198.4394 -7471.9322 298.8728 1344.3710 1363.0119 30042.9829 243.5697 322.7294
ENERGY: 600000 6.9362 3.9348 4.9198 0.0000 -10639.1923 1328.0515 0.0000 0.0000 1827.2484 -7468.1017 309.3400 -9295.3501 -7486.5468 300.3526 -911.4563 -878.7873 30635.0563 -41.4670 38.1929
ENERGY: 900000 4.6397 6.5169 3.5027 0.0000 -10705.0450 1441.3229 0.0000 0.0000 1749.6785 -7499.3843 296.2080 -9249.0628 -7487.4671 299.7627 -196.8426 -87.4576 30472.6422 -61.1757 18.1773
ENERGY: 1200000 2.8073 8.0906 4.3919 0.0000 -10859.4174 1473.7543 0.0000 0.0000 1754.3838 -7615.9895 297.0046 -9370.3733 -7492.7342 300.2432 -261.5341 -137.5616 30298.7936 -118.0332 -37.0288
ENERGY: 1500000 3.0607 6.4824 5.9664 0.0000 -10972.3389 1600.0507 0.0000 0.0000 1793.0617 -7563.7170 303.5525 -9356.7787 -7492.8050 300.5762 857.5955 925.1494 30239.0060 -113.6297 -37.1597
TCL: Running FEP window   3: Lambda1 0.1    Lambda2 0.15000000000000002 [dLambda 0.05000000000000002]
TCL: Setting parameter firsttimestep to 0
TCL: Setting parameter alchLambda to 0.1
Info: NONBONDED TABLE R-SQUARED SPACING: 0.0625
Info: NONBONDED TABLE SIZE: 705 POINTS
TCL: Setting parameter alchLambda2 to 0.15000000000000002
Info: NONBONDED TABLE R-SQUARED SPACING: 0.0625
Info: NONBONDED TABLE SIZE: 705 POINTS
TCL: Running for 1500000 steps
ETITLE: TS BOND ANGLE DIHED IMPRP ELECT VDW BOUNDARY MISC KINETIC TOTAL TEMP POTENTIAL TOTALAVG TEMPAVG PRESSURE GPRESSURE VOLUME PRESSAVG GPRESSAVG
ENERGY: 0 3.0607 6.4824 5.9664 0.0000 -10972.3389 1602.6320 0.0000 0.0000 1792.1906 -7562.0068 303.4050 -9354.1975 -7562.0068 303.4050 867.0212 938.6869 30239.0060 867.0212 938.6869
ENERGY: 300000 1.7338 8.5710 7.5495 0.0000 -10778.9119 1457.1091 0.0000 0.0000 1740.7667 -7563.1818 294.6993 -9303.9485 -7529.5612 297.0917 -450.0828 -356.0179 30746.9495 -28.2684 30.1432
ENERGY: 600000 4.1612 4.5340 6.8043 0.0000 -10770.1954 1442.6118 0.0000 0.0000 1792.4234 -7519.6606 303.4444 -9312.0840 -7499.8342 299.8330 -87.5109 37.4023 30239.7414 -20.5163 45.5353
ENERGY: 900000 1.9979 3.5927 4.6848 0.0000 -10722.8903 1431.7487 0.0000 0.0000 1762.7135 -7518.1529 298.4147 -9280.8663 -7501.2177 299.3484 -430.9852 -371.7875 30897.3429 -67.0264 -1.9464
ENERGY: 1200000 3.7964 9.3028 8.8759 0.0000 -10722.4568 1447.9847 0.0000 0.0000 1728.5335 -7523.9635 292.6283 -9252.4970 -7495.2855 299.7765 -24.0247 67.9581 30281.5980 -55.3348 10.8689
ENERGY: 1500000 0.5445 8.4648 6.4682 0.0000 -10891.9978 1528.2369 0.0000 0.0000 1729.9827 -7618.3006 292.8736 -9348.2833 -7503.2971 299.5737 357.6351 421.3380 30513.3012 -25.8768 40.4985
TCL: Running FEP window   4: Lambda1 0.15000000000000002 Lambda2 0.2    [dLambda 0.04999999999999999]
TCL: Setting parameter firsttimestep to 0
TCL: Setting parameter alchLambda to 0.15000000000000002
Info: NONBONDED TABLE R-SQUARED SPACING: 0.0625
Info: NONBONDED TABLE SIZE: 705 POINTS
TCL: Setting parameter alchLambda2 to 0.2
Info: NONBONDED TABLE R-SQUARED SPACING: 0.0625
Info: NONBONDED TABLE SIZE: 705 POINTS
TCL: Running for 1500000 steps
ETITLE: TS BOND ANGLE DIHED IMPRP ELECT VDW BOUNDARY MISC KINETIC TOTAL TEMP POTENTIAL TOTALAVG TEMPAVG PRESSURE GPRESSURE VOLUME PRESSAVG GPRESSAVG
ENERGY: 0 0.5445 8.4648 6.4682 0.0000 -10891.9984 1530.3601 0.0000 0.0000 1729.0853 -7617.0754 292.7217 -9346.1607 -7617.0754 292.7217 350.0910 434.1172 30513.3012 350.0910 434.1172
ENERGY: 300000 2.7642 7.2849 5.5210 0.0000 -10705.1988 1396.6720 0.0000 0.0000 1742.5124 -7550.4443 294.9948 -9292.9567 -7510.1481 299.6004 -616.5032 -505.8749 30358.6358 -178.1027 -88.2976
ENERGY: 600000 5.3293 11.1437 7.9839 0.0000 -10760.7431 1471.1457 0.0000 0.0000 1749.3790 -7515.7614 296.1573 -9265.1404 -7494.6618 299.0229 -148.3593 -52.2329 30706.1584 -247.2423 -153.2711
ENERGY: 900000 4.2831 7.0471 6.5950 0.0000 -10864.0242 1573.1676 0.0000 0.0000 1789.5557 -7483.3756 302.9589 -9272.9314 -7486.3646 300.1675 783.7535 803.3186 30495.8549 -342.3922 -260.8434
ENERGY: 1200000 4.6146 6.8955 6.4670 0.0000 -10648.8323 1362.8239 0.0000 0.0000 1786.2360 -7481.7953 302.3969 -9268.0314 -7496.2597 299.5271 -745.4624 -695.2102 30631.3044 -335.2543 -261.0301
ENERGY: 1500000 5.3274 12.4110 8.3914 0.0000 -10658.9547 1440.0170 0.0000 0.0000 1781.1600 -7411.6480 301.5376 -9192.8080 -7491.7171 299.4127 89.1094 112.1555 30599.7728 -259.1382 -190.6553
TCL: Running FEP window   5: Lambda1 0.2    Lambda2 0.25   [dLambda 0.04999999999999999]
TCL: Setting parameter firsttimestep to 0
TCL: Setting parameter alchLambda to 0.2
Info: NONBONDED TABLE R-SQUARED SPACING: 0.0625
Info: NONBONDED TABLE SIZE: 705 POINTS
TCL: Setting parameter alchLambda2 to 0.25
Info: NONBONDED TABLE R-SQUARED SPACING: 0.0625
Info: NONBONDED TABLE SIZE: 705 POINTS
TCL: Running for 1500000 steps
ETITLE: TS BOND ANGLE DIHED IMPRP ELECT VDW BOUNDARY MISC KINETIC TOTAL TEMP POTENTIAL TOTALAVG TEMPAVG PRESSURE GPRESSURE VOLUME PRESSAVG GPRESSAVG
ENERGY: 0 5.3274 12.4110 8.3914 0.0000 -10658.9536 1442.3336 0.0000 0.0000 1780.2898 -7410.2005 301.3903 -9190.4903 -7410.2005 301.3903 46.6334 126.9036 30599.7728 46.6334 126.9036
ENERGY: 300000 4.4596 10.9533 4.8167 0.0000 -10645.9982 1410.5341 0.0000 0.0000 1732.7519 -7482.4826 293.3424 -9215.2345 -7515.4990 295.2927 -300.7759 -335.4291 30650.4032 98.7047 137.5675
ENERGY: 600000 2.9197 6.4792 9.9362 0.0000 -10523.1250 1255.0317 0.0000 0.0000 1784.8823 -7463.8760 302.1678 -9248.7584 -7508.2612 297.6782 -1285.4603 -1252.5270 30456.0296 -305.0541 -266.7595
ENERGY: 900000 1.6319 5.9888 5.4570 0.0000 -10724.3868 1458.0528 0.0000 0.0000 1802.7843 -7450.4720 305.1984 -9253.2562 -7486.7346 300.7042 479.2626 501.0895 30175.5366 -223.6575 -189.0023
ENERGY: 1200000 3.3360 5.3931 6.3908 0.0000 -10821.3239 1506.4750 0.0000 0.0000 1777.8538 -7521.8752 300.9779 -9299.7290 -7496.4782 300.3848 385.3032 444.0094 30278.5784 -155.0972 -112.3386
ENERGY: 1500000 3.4590 6.0522 5.8857 0.0000 -10790.6120 1511.6373 0.0000 0.0000 1739.5236 -7524.0541 294.4889 -9263.5778 -7494.5725 300.6132 413.0148 433.1521 30223.2793 -108.8392 -64.0376
TCL: Running FEP window   6: Lambda1 0.25   Lambda2 0.3    [dLambda 0.04999999999999999]
TCL: Setting parameter firsttimestep to 0
TCL: Setting parameter alchLambda to 0.25
Info: NONBONDED TABLE R-SQUARED SPACING: 0.0625
Info: NONBONDED TABLE SIZE: 705 POINTS
TCL: Setting parameter alchLambda2 to 0.3
Info: NONBONDED TABLE R-SQUARED SPACING: 0.0625
Info: NONBONDED TABLE SIZE: 705 POINTS
TCL: Running for 1500000 steps
ETITLE: TS BOND ANGLE DIHED IMPRP ELECT VDW BOUNDARY MISC KINETIC TOTAL TEMP POTENTIAL TOTALAVG TEMPAVG PRESSURE GPRESSURE VOLUME PRESSAVG GPRESSAVG
ENERGY: 0 3.4590 6.0522 5.8857 0.0000 -10790.6131 1512.7440 0.0000 0.0000 1738.6300 -7523.8422 294.3376 -9262.4722 -7523.8422 294.3376 362.4684 444.3448 30223.2793 362.4684 444.3448
ENERGY: 300000 4.8667 6.8290 10.4696 0.0000 -10820.0976 1512.3045 0.0000 0.0000 1757.6464 -7527.9813 297.5569 -9285.6278 -7490.4191 299.6898 429.0693 543.3243 30348.3507 217.2310 289.9740
ENERGY: 600000 1.3224 7.6103 6.8356 0.0000 -10681.1666 1413.0496 0.0000 0.0000 1799.9500 -7452.3987 304.7186 -9252.3487 -7498.4064 300.0406 -201.1887 -88.9734 30403.7934 142.4324 212.3634
ENERGY: 900000 3.2116 5.3297 7.8101 0.0000 -10723.3755 1499.2655 0.0000 0.0000 1707.8299 -7499.9286 289.1233 -9207.7586 -7501.9931 298.5051 210.6960 277.0922 30773.5392 194.6708 262.8197
ENERGY: 1200000 4.7965 9.3850 6.1892 0.0000 -10608.0708 1383.8015 0.0000 0.0000 1789.6987 -7414.1998 302.9831 -9203.8986 -7492.9484 299.1869 -355.3478 -239.3327 30374.4903 101.6442 165.0249
ENERGY: 1500000 5.2162 6.3162 7.2924 0.0000 -10685.7775 1400.2686 0.0000 0.0000 1773.4689 -7493.2152 300.2355 -9266.6841 -7501.1238 299.2812 -499.1354 -458.4219 30525.6461 41.5665 103.9265
TCL: Running FEP window   7: Lambda1 0.3    Lambda2 0.35   [dLambda 0.04999999999999999]
TCL: Setting parameter firsttimestep to 0
TCL: Setting parameter alchLambda to 0.3
Info: NONBONDED TABLE R-SQUARED SPACING: 0.0625
Info: NONBONDED TABLE SIZE: 705 POINTS
TCL: Setting parameter alchLambda2 to 0.35
Info: NONBONDED TABLE R-SQUARED SPACING: 0.0625
Info: NONBONDED TABLE SIZE: 705 POINTS
TCL: Running for 1500000 steps
ETITLE: TS BOND ANGLE DIHED IMPRP ELECT VDW BOUNDARY MISC KINETIC TOTAL TEMP POTENTIAL TOTALAVG TEMPAVG PRESSURE GPRESSURE VOLUME PRESSAVG GPRESSAVG
ENERGY: 0 5.2162 6.3162 7.2924 0.0000 -10685.7781 1400.3675 0.0000 0.0000 1772.5910 -7493.9948 300.0869 -9266.5858 -7493.9948 300.0869 -530.7585 -452.2407 30525.6461 -530.7585 -452.2407
ENERGY: 300000 2.6901 7.3998 6.0665 0.0000 -10751.1116 1482.5630 0.0000 0.0000 1765.6145 -7486.7778 298.9059 -9252.3923 -7491.8567 300.4018 28.3986 59.9710 30865.1263 -195.8237 -131.8261
ENERGY: 600000 2.3052 8.7140 7.4047 0.0000 -10655.6896 1400.5553 0.0000 0.0000 1742.5585 -7494.1520 295.0026 -9236.7105 -7479.8474 300.5816 -449.1908 -382.6641 30839.0638 -296.3728 -214.7195
ENERGY: 900000 5.2818 5.2995 5.3279 0.0000 -10529.2208 1366.1013 0.0000 0.0000 1793.0714 -7354.1390 303.5541 -9147.2104 -7465.5001 300.5862 -668.0701 -595.8443 31033.9824 -373.1257 -297.4009
ENERGY: 1200000 3.3679 7.6795 5.4720 0.0000 -10733.9626 1444.3915 0.0000 0.0000 1736.6756 -7536.3761 294.0067 -9273.0517 -7465.9666 300.8381 -153.6860 -97.3031 30735.6090 -370.6871 -300.6428
ENERGY: 1500000 2.0499 7.6180 6.7580 0.0000 -10918.9798 1553.2320 0.0000 0.0000 1767.8346 -7581.4874 299.2817 -9349.3220 -7479.0870 300.1472 738.5351 758.2993 30150.3686 -285.7200 -222.0205
TCL: Running FEP window   8: Lambda1 0.35   Lambda2 0.39999999999999997 [dLambda 0.04999999999999999]
TCL: Setting parameter firsttimestep to 0
TCL: Setting parameter alchLambda to 0.35
Info: NONBONDED TABLE R-SQUARED SPACING: 0.0625
Info: NONBONDED TABLE SIZE: 705 POINTS
TCL: Setting parameter alchLambda2 to 0.39999999999999997
Info: NONBONDED TABLE R-SQUARED SPACING: 0.0625
Info: NONBONDED TABLE SIZE: 705 POINTS
TCL: Running for 1500000 steps
ETITLE: TS BOND ANGLE DIHED IMPRP ELECT VDW BOUNDARY MISC KINETIC TOTAL TEMP POTENTIAL TOTALAVG TEMPAVG PRESSURE GPRESSURE VOLUME PRESSAVG GPRESSAVG
ENERGY: 0 2.0499 7.6180 6.7580 0.0000 -10918.9777 1552.5134 0.0000 0.0000 1766.9450 -7583.0935 299.1311 -9350.0385 -7583.0935 299.1311 679.8820 758.0943 30150.3686 679.8820 758.0943
ENERGY: 300000 3.2178 7.1871 5.3838 0.0000 -10779.2782 1468.2673 0.0000 0.0000 1788.7690 -7506.4532 302.8257 -9295.2222 -7540.2539 299.5753 459.8754 531.8729 29836.7164 173.3172 271.2764
ENERGY: 600000 2.9266 11.7722 4.4331 0.0000 -10721.6312 1494.2608 0.0000 0.0000 1767.2356 -7441.0030 299.1803 -9208.2386 -7514.5061 298.4425 509.0368 532.1832 30493.0749 29.6078 111.7050
ENERGY: 900000 1.7792 3.7956 6.0117 0.0000 -10676.6002 1431.9324 0.0000 0.0000 1798.0269 -7435.0544 304.3930 -9233.0813 -7499.9564 300.3048 -200.7079 -113.7677 31016.7095 -70.0933 3.6284
ENERGY: 1200000 5.7303 7.4768 7.4257 0.0000 -10661.4235 1412.7649 0.0000 0.0000 1816.4439 -7411.5819 307.5109 -9228.0259 -7488.2120 301.0909 -118.9662 -117.1350 30311.0509 -127.2648 -61.5174
ENERGY: 1500000 1.7373 5.8879 5.7024 0.0000 -10601.3462 1341.1223 0.0000 0.0000 1825.5963 -7421.3000 309.0603 -9246.8963 -7483.4363 302.1970 -762.6770 -665.9809 30528.5224 -136.8382 -65.9070
TCL: Running FEP window   9: Lambda1 0.39999999999999997 Lambda2 0.44999999999999996 [dLambda 0.04999999999999999]
TCL: Setting parameter firsttimestep to 0
TCL: Setting parameter alchLambda to 0.39999999999999997
Info: NONBONDED TABLE R-SQUARED SPACING: 0.0625
Info: NONBONDED TABLE SIZE: 705 POINTS
TCL: Setting parameter alchLambda2 to 0.44999999999999996
Info: NONBONDED TABLE R-SQUARED SPACING: 0.0625
Info: NONBONDED TABLE SIZE: 705 POINTS
TCL: Running for 1500000 steps
ETITLE: TS BOND ANGLE DIHED IMPRP ELECT VDW BOUNDARY MISC KINETIC TOTAL TEMP POTENTIAL TOTALAVG TEMPAVG PRESSURE GPRESSURE VOLUME PRESSAVG GPRESSAVG
ENERGY: 0 1.7373 5.8879 5.7024 0.0000 -10601.3450 1341.2644 0.0000 0.0000 1824.7141 -7422.0389 308.9110 -9246.7530 -7422.0389 308.9110 -740.9009 -661.6810 30528.5224 -740.9009 -661.6810
ENERGY: 300000 0.7326 5.7506 5.3859 0.0000 -10628.2318 1394.4751 0.0000 0.0000 1727.7082 -7494.1794 292.4886 -9221.8877 -7469.9816 298.3064 -320.1202 -270.3022 30692.3468 -369.6924 -290.2735
ENERGY: 600000 4.3961 5.9214 5.1998 0.0000 -10788.7523 1498.9042 0.0000 0.0000 1774.0774 -7500.2535 300.3386 -9274.3308 -7499.6071 297.9185 253.8684 194.6907 30812.6990 -272.4347 -222.8394
ENERGY: 900000 2.4801 5.9438 7.8472 0.0000 -10532.5439 1318.8311 0.0000 0.0000 1800.3413 -7397.1004 304.7849 -9197.4417 -7486.3357 298.5842 -613.5662 -477.9716 30188.2620 -231.6981 -170.8733
ENERGY: 1200000 0.9264 3.6066 8.9792 0.0000 -10595.0082 1405.3410 0.0000 0.0000 1776.5333 -7399.6217 300.7543 -9176.1550 -7478.6766 297.9369 -25.2499 7.8857 30658.5338 -224.0481 -161.1127
ENERGY: 1500000 4.4213 11.3423 5.8510 0.0000 -10636.7193 1379.7345 0.0000 0.0000 1810.4858 -7424.8845 306.5022 -9235.3703 -7468.7683 298.9182 -380.6430 -276.5460 30234.3338 -110.6558 -43.8050
TCL: Running FEP window  10: Lambda1 0.44999999999999996 Lambda2 0.49999999999999994 [dLambda 0.04999999999999999]
TCL: Setting parameter firsttimestep to 0
TCL: Setting parameter alchLambda to 0.44999999999999996
Info: NONBONDED TABLE R-SQUARED SPACING: 0.0625
Info: NONBONDED TABLE SIZE: 705 POINTS
TCL: Setting parameter alchLambda2 to 0.49999999999999994
Info: NONBONDED TABLE R-SQUARED SPACING: 0.0625
Info: NONBONDED TABLE SIZE: 705 POINTS
TCL: Running for 1500000 steps
ETITLE: TS BOND ANGLE DIHED IMPRP ELECT VDW BOUNDARY MISC KINETIC TOTAL TEMP POTENTIAL TOTALAVG TEMPAVG PRESSURE GPRESSURE VOLUME PRESSAVG GPRESSAVG
ENERGY: 0 4.4213 11.3423 5.8510 0.0000 -10636.7178 1379.7639 0.0000 0.0000 1809.6184 -7425.7209 306.3554 -9235.3393 -7425.7209 306.3554 -342.8209 -268.0516 30234.3338 -342.8209 -268.0516
ENERGY: 300000 2.1575 7.6725 7.0862 0.0000 -10800.9885 1470.5903 0.0000 0.0000 1744.2124 -7569.2696 295.2826 -9313.4820 -7489.2185 301.7456 53.8842 100.2722 30442.4781 33.1283 66.0649
ENERGY: 600000 5.6076 5.2291 7.3980 0.0000 -10793.7644 1504.1533 0.0000 0.0000 1829.2623 -7442.1140 309.6810 -9271.3763 -7473.4666 302.5257 307.9171 399.0155 30447.8959 1.6720 39.0198
ENERGY: 900000 3.3458 8.5457 6.9273 0.0000 -10775.1709 1425.1072 0.0000 0.0000 1742.8998 -7588.3450 295.0604 -9331.2448 -7483.6770 301.8611 -405.9693 -366.2369 30638.1559 -6.2293 36.5293
ENERGY: 1200000 1.8475 5.6071 6.2929 0.0000 -10817.0789 1519.5788 0.0000 0.0000 1786.0083 -7497.7442 302.3584 -9283.7526 -7493.3697 300.9149 920.2588 951.6351 29915.0202 204.0875 240.5265
ENERGY: 1500000 2.5442 7.0636 3.0200 0.0000 -10607.1334 1366.4301 0.0000 0.0000 1754.3686 -7473.7069 297.0020 -9228.0755 -7486.9014 301.2521 -578.9203 -532.8846 30882.9261 116.3268 157.1842
TCL: Running FEP window  11: Lambda1 0.49999999999999994 Lambda2 0.5499999999999999 [dLambda 0.04999999999999999]
TCL: Setting parameter firsttimestep to 0
TCL: Setting parameter alchLambda to 0.49999999999999994
Info: NONBONDED TABLE R-SQUARED SPACING: 0.0625
Info: NONBONDED TABLE SIZE: 705 POINTS
TCL: Setting parameter alchLambda2 to 0.5499999999999999
Info: NONBONDED TABLE R-SQUARED SPACING: 0.0625
Info: NONBONDED TABLE SIZE: 705 POINTS
TCL: Running for 1500000 steps
ETITLE: TS BOND ANGLE DIHED IMPRP ELECT VDW BOUNDARY MISC KINETIC TOTAL TEMP POTENTIAL TOTALAVG TEMPAVG PRESSURE GPRESSURE VOLUME PRESSAVG GPRESSAVG
ENERGY: 0 2.5442 7.0636 3.0200 0.0000 -10607.1328 1367.3002 0.0000 0.0000 1753.4458 -7473.7590 296.8458 -9227.2048 -7473.7590 296.8458 -607.4244 -514.5648 30882.9261 -607.4244 -514.5648
ENERGY: 300000 3.3189 11.4934 6.0190 0.0000 -10507.7068 1337.8668 0.0000 0.0000 1742.7161 -7406.2926 295.0293 -9149.0086 -7456.6876 298.7342 -257.9335 -215.2168 30178.5405 -163.1484 -118.6899
ENERGY: 600000 3.6313 5.2550 4.9287 0.0000 -10692.3079 1416.2565 0.0000 0.0000 1780.8641 -7481.3722 301.4875 -9262.2363 -7465.5647 298.9448 -473.4752 -329.5328 30618.0475 -162.7640 -93.6959
ENERGY: 900000 2.3471 7.5793 7.8689 0.0000 -10661.5521 1410.4613 0.0000 0.0000 1814.2854 -7419.0101 307.1455 -9233.2955 -7463.2352 300.1794 -281.6189 -262.4183 30928.0351 -223.2498 -170.3713
ENERGY: 1200000 1.6443 4.9441 5.4976 0.0000 -10734.6262 1478.5065 0.0000 0.0000 1764.8821 -7479.1516 298.7819 -9244.0337 -7468.9278 301.0746 201.7766 287.6794 30793.9453 -185.4891 -132.9963
ENERGY: 1500000 3.7395 6.2228 7.0831 0.0000 -10750.0316 1480.8445 0.0000 0.0000 1710.7231 -7541.4186 289.6131 -9252.1418 -7476.4733 300.0143 481.7871 498.3435 30314.5613 -177.8619 -129.1991
TCL: Running FEP window  12: Lambda1 0.5499999999999999 Lambda2 0.6    [dLambda 0.050000000000000044]
TCL: Setting parameter firsttimestep to 0
TCL: Setting parameter alchLambda to 0.5499999999999999
Info: NONBONDED TABLE R-SQUARED SPACING: 0.0625
Info: NONBONDED TABLE SIZE: 705 POINTS
TCL: Setting parameter alchLambda2 to 0.6
Info: NONBONDED TABLE R-SQUARED SPACING: 0.0625
Info: NONBONDED TABLE SIZE: 705 POINTS
TCL: Running for 1500000 steps
ETITLE: TS BOND ANGLE DIHED IMPRP ELECT VDW BOUNDARY MISC KINETIC TOTAL TEMP POTENTIAL TOTALAVG TEMPAVG PRESSURE GPRESSURE VOLUME PRESSAVG GPRESSAVG
ENERGY: 0 3.7395 6.2228 7.0831 0.0000 -10749.7541 1480.8900 0.0000 0.0000 1709.8376 -7541.9810 289.4632 -9251.8186 -7541.9810 289.4632 441.8657 509.2687 30314.5613 441.8657 509.2687
ENERGY: 300000 6.2483 7.0495 4.8999 0.0000 -10920.5892 1522.6738 0.0000 0.0000 1739.6139 -7640.1037 294.5041 -9379.7176 -7529.1396 293.6884 271.9867 293.9181 29928.5474 -51.7405 -11.6193
ENERGY: 600000 4.0608 6.9086 4.1614 0.0000 -10967.3086 1581.2967 0.0000 0.0000 1806.1056 -7564.7756 305.7607 -9370.8812 -7525.0555 296.1504 1148.5014 1120.0181 29752.8363 14.9754 55.4194
ENERGY: 900000 3.6832 6.1665 4.3847 0.0000 -10772.3200 1474.5181 0.0000 0.0000 1794.5712 -7488.9964 303.8080 -9283.5675 -7517.1354 298.4018 470.2232 478.7210 30254.2423 101.8662 135.2527
ENERGY: 1200000 2.8397 11.5700 3.2128 0.0000 -10623.9592 1356.8367 0.0000 0.0000 1828.4153 -7421.0848 309.5376 -9249.5001 -7488.7083 300.2218 -424.3407 -409.9461 30616.1863 46.2088 87.7688
ENERGY: 1500000 3.5016 7.2317 4.2406 0.0000 -10811.9635 1480.1121 0.0000 0.0000 1808.4461 -7508.4314 306.1569 -9316.8775 -7497.7685 300.7169 211.6360 276.1694 30546.5657 -13.0505 34.6853
TCL: Running FEP window  13: Lambda1 0.6    Lambda2 0.65   [dLambda 0.050000000000000044]
TCL: Setting parameter firsttimestep to 0
TCL: Setting parameter alchLambda to 0.6
Info: NONBONDED TABLE R-SQUARED SPACING: 0.0625
Info: NONBONDED TABLE SIZE: 705 POINTS
TCL: Setting parameter alchLambda2 to 0.65
Info: NONBONDED TABLE R-SQUARED SPACING: 0.0625
Info: NONBONDED TABLE SIZE: 705 POINTS
TCL: Running for 1500000 steps
ETITLE: TS BOND ANGLE DIHED IMPRP ELECT VDW BOUNDARY MISC KINETIC TOTAL TEMP POTENTIAL TOTALAVG TEMPAVG PRESSURE GPRESSURE VOLUME PRESSAVG GPRESSAVG
ENERGY: 0 3.5016 7.2317 4.2406 0.0000 -10812.1829 1479.9318 0.0000 0.0000 1807.5547 -7509.7226 306.0060 -9317.2772 -7509.7226 306.0060 193.8797 281.6277 30546.5657 193.8797 281.6277
ENERGY: 300000 4.3199 7.7371 5.9270 0.0000 -10575.1364 1331.6145 0.0000 0.0000 1824.4855 -7401.0524 308.8723 -9225.5379 -7448.2679 304.2900 -1055.4447 -986.2906 30936.0601 -393.4483 -341.2491
ENERGY: 600000 2.9951 4.9476 6.8728 0.0000 -10731.7752 1405.9294 0.0000 0.0000 1816.0426 -7494.9878 307.4430 -9311.0304 -7452.0395 302.2188 -531.4469 -477.5113 30561.3759 -282.2736 -233.6775
ENERGY: 900000 3.2740 3.4032 7.9494 0.0000 -10734.6238 1459.5370 0.0000 0.0000 1766.0757 -7494.3845 298.9839 -9260.4602 -7462.9490 301.1048 257.1551 287.9342 30439.0119 -239.4943 -194.7145
ENERGY: 1200000 1.2962 11.5458 6.2890 0.0000 -10726.6353 1451.3697 0.0000 0.0000 1707.4917 -7548.6431 289.0661 -9256.1347 -7481.9541 299.8630 245.2281 351.2215 30081.0228 -207.7460 -155.4717
ENERGY: 1500000 2.1351 3.4742 6.2198 0.0000 -10712.4362 1362.0945 0.0000 0.0000 1824.2201 -7514.2925 308.8274 -9338.5126 -7500.6093 300.3250 -682.5371 -667.7778 30464.0132 -225.4865 -177.3548
TCL: Running FEP window  14: Lambda1 0.65   Lambda2 0.7000000000000001 [dLambda 0.050000000000000044]
TCL: Setting parameter firsttimestep to 0
TCL: Setting parameter alchLambda to 0.65
Info: NONBONDED TABLE R-SQUARED SPACING: 0.0625
Info: NONBONDED TABLE SIZE: 705 POINTS
TCL: Setting parameter alchLambda2 to 0.7000000000000001
Info: NONBONDED TABLE R-SQUARED SPACING: 0.0625
Info: NONBONDED TABLE SIZE: 705 POINTS
TCL: Running for 1500000 steps
ETITLE: TS BOND ANGLE DIHED IMPRP ELECT VDW BOUNDARY MISC KINETIC TOTAL TEMP POTENTIAL TOTALAVG TEMPAVG PRESSURE GPRESSURE VOLUME PRESSAVG GPRESSAVG
ENERGY: 0 2.1351 3.4742 6.2198 0.0000 -10712.8419 1362.0058 0.0000 0.0000 1823.3323 -7515.6747 308.6771 -9339.0070 -7515.6747 308.6771 -721.8571 -658.7497 30464.0132 -721.8571 -658.7497
ENERGY: 300000 3.4622 8.4290 7.9525 0.0000 -10732.5506 1450.2459 0.0000 0.0000 1776.0756 -7486.3856 300.6768 -9262.4612 -7501.3361 302.1160 8.9555 130.0359 30476.8810 -79.5760 -16.8385
ENERGY: 600000 3.3394 6.7557 11.2998 0.0000 -10715.8417 1466.1416 0.0000 0.0000 1776.3042 -7452.0012 300.7155 -9228.3053 -7476.8474 303.6158 292.1464 393.9030 30182.0004 -116.5010 -49.1480
ENERGY: 900000 4.3280 5.5895 7.8359 0.0000 -10798.9491 1494.5074 0.0000 0.0000 1763.1264 -7523.5618 298.4846 -9286.6882 -7490.7170 303.4440 146.5682 253.4454 30550.6964 -74.0141 1.4352
ENERGY: 1200000 4.5890 3.8278 7.0033 0.0000 -10757.0316 1459.0885 0.0000 0.0000 1701.9568 -7580.5663 288.1291 -9282.5231 -7495.4513 301.2557 186.1196 212.6379 30251.3213 -15.9432 50.6983
ENERGY: 1500000 1.8707 7.1257 6.7439 0.0000 -10621.2999 1400.5795 0.0000 0.0000 1734.7376 -7470.2425 293.6786 -9204.9801 -7495.2468 300.8768 -63.4127 12.9347 30602.6443 -0.2431 68.9030
TCL: Running FEP window  15: Lambda1 0.7000000000000001 Lambda2 0.7500000000000001 [dLambda 0.050000000000000044]
TCL: Setting parameter firsttimestep to 0
TCL: Setting parameter alchLambda to 0.7000000000000001
Info: NONBONDED TABLE R-SQUARED SPACING: 0.0625
Info: NONBONDED TABLE SIZE: 705 POINTS
TCL: Setting parameter alchLambda2 to 0.7500000000000001
Info: NONBONDED TABLE R-SQUARED SPACING: 0.0625
Info: NONBONDED TABLE SIZE: 705 POINTS
TCL: Running for 1500000 steps
ETITLE: TS BOND ANGLE DIHED IMPRP ELECT VDW BOUNDARY MISC KINETIC TOTAL TEMP POTENTIAL TOTALAVG TEMPAVG PRESSURE GPRESSURE VOLUME PRESSAVG GPRESSAVG
ENERGY: 0 1.8707 7.1257 6.7439 0.0000 -10621.4905 1401.1913 0.0000 0.0000 1733.8526 -7470.7062 293.5288 -9204.5589 -7470.7062 293.5288 -53.4327 28.5139 30602.6443 -53.4327 28.5139
ENERGY: 300000 1.9042 8.4118 6.6960 0.0000 -10677.6097 1375.3818 0.0000 0.0000 1741.4667 -7543.7492 294.8178 -9285.2159 -7502.8356 296.1063 -590.5036 -505.4013 30472.2296 -192.8239 -116.8736
ENERGY: 600000 2.8440 7.1644 7.7922 0.0000 -10726.3005 1460.5505 0.0000 0.0000 1767.8437 -7480.1057 299.2832 -9247.9494 -7475.1689 297.9451 206.9882 250.7116 30445.4530 -144.9431 -83.9472
ENERGY: 900000 0.9365 9.5325 5.6800 0.0000 -10854.5281 1564.2342 0.0000 0.0000 1815.6686 -7458.4762 307.3796 -9274.1448 -7477.8821 299.9359 1189.9146 1209.6218 30274.8409 -130.7590 -74.4204
ENERGY: 1200000 2.5122 11.2204 5.8483 0.0000 -10708.3047 1443.7385 0.0000 0.0000 1723.2303 -7521.7550 291.7305 -9244.9853 -7481.0456 299.4534 -171.0063 -121.6451 30695.1017 -137.4208 -78.4902
ENERGY: 1500000 1.3223 6.5242 8.4834 0.0000 -10661.3403 1463.8574 0.0000 0.0000 1801.4186 -7379.7344 304.9672 -9181.1530 -7477.4181 300.6570 344.4463 459.1147 30852.4663 -120.7258 -54.3569
TCL: Running FEP window  16: Lambda1 0.7500000000000001 Lambda2 0.8000000000000002 [dLambda 0.050000000000000044]
TCL: Setting parameter firsttimestep to 0
TCL: Setting parameter alchLambda to 0.7500000000000001
Info: NONBONDED TABLE R-SQUARED SPACING: 0.0625
Info: NONBONDED TABLE SIZE: 705 POINTS
TCL: Setting parameter alchLambda2 to 0.8000000000000002
Info: NONBONDED TABLE R-SQUARED SPACING: 0.0625
Info: NONBONDED TABLE SIZE: 705 POINTS
TCL: Running for 1500000 steps
ETITLE: TS BOND ANGLE DIHED IMPRP ELECT VDW BOUNDARY MISC KINETIC TOTAL TEMP POTENTIAL TOTALAVG TEMPAVG PRESSURE GPRESSURE VOLUME PRESSAVG GPRESSAVG
ENERGY: 0 1.3223 6.5242 8.4834 0.0000 -10661.7145 1465.5874 0.0000 0.0000 1800.5580 -7379.2392 304.8215 -9179.7972 -7379.2392 304.8215 413.2533 490.4054 30852.4663 413.2533 490.4054
ENERGY: 300000 2.2436 10.0425 7.2383 0.0000 -10799.0373 1484.2383 0.0000 0.0000 1777.6121 -7517.6625 300.9370 -9295.2746 -7458.1691 302.6413 169.8183 222.9727 30504.7412 118.7864 173.6246
ENERGY: 600000 3.5244 7.9468 8.7945 0.0000 -10732.9880 1409.4938 0.0000 0.0000 1784.0611 -7519.1675 302.0287 -9303.2286 -7495.4175 299.8262 -303.6716 -270.1096 30424.1729 210.3287 270.3223
ENERGY: 900000 7.1651 12.1434 5.1206 0.0000 -10677.7042 1344.8925 0.0000 0.0000 1822.5167 -7485.8658 308.5390 -9308.3826 -7489.1919 300.7131 -956.7872 -849.8577 30291.0985 98.5470 159.7146
ENERGY: 1200000 2.3105 4.5694 6.4886 0.0000 -10733.7343 1469.1763 0.0000 0.0000 1762.2377 -7488.9518 298.3342 -9251.1895 -7486.4967 300.6741 342.4504 414.3749 30486.9622 191.0277 254.1892
ENERGY: 1500000 2.6288 7.8245 6.0910 0.0000 -10745.3284 1446.4861 0.0000 0.0000 1752.1913 -7530.1065 296.6334 -9282.2978 -7493.3223 299.9027 66.6724 85.6256 30361.0694 130.6773 187.8187
TCL: Running FEP window  17: Lambda1 0.8000000000000002 Lambda2 0.8500000000000002 [dLambda 0.050000000000000044]
TCL: Setting parameter firsttimestep to 0
TCL: Setting parameter alchLambda to 0.8000000000000002
Info: NONBONDED TABLE R-SQUARED SPACING: 0.0625
Info: NONBONDED TABLE SIZE: 705 POINTS
TCL: Setting parameter alchLambda2 to 0.8500000000000002
Info: NONBONDED TABLE R-SQUARED SPACING: 0.0625
Info: NONBONDED TABLE SIZE: 705 POINTS
TCL: Running for 1500000 steps
ETITLE: TS BOND ANGLE DIHED IMPRP ELECT VDW BOUNDARY MISC KINETIC TOTAL TEMP POTENTIAL TOTALAVG TEMPAVG PRESSURE GPRESSURE VOLUME PRESSAVG GPRESSAVG
ENERGY: 0 2.6288 7.8245 6.0910 0.0000 -10746.4198 1447.3220 0.0000 0.0000 1751.2858 -7531.2676 296.4801 -9282.5534 -7531.2676 296.4801 27.9764 107.2450 30361.0694 27.9764 107.2450
ENERGY: 300000 3.8008 5.9710 4.3941 0.0000 -10712.6813 1421.2975 0.0000 0.0000 1772.4277 -7504.7902 300.0593 -9277.2179 -7519.8536 299.0227 -359.5480 -302.6631 30953.4829 56.7685 123.3712
ENERGY: 600000 4.7401 8.8641 9.4786 0.0000 -10657.0685 1446.7535 0.0000 0.0000 1778.3990 -7408.8331 301.0702 -9187.2321 -7498.2304 299.6137 156.9402 256.6438 30740.2004 154.5912 229.3689
ENERGY: 900000 3.3392 4.1055 5.9010 0.0000 -10684.5016 1385.9023 0.0000 0.0000 1767.6105 -7517.6432 299.2438 -9285.2538 -7492.5644 299.9984 -637.7713 -631.9592 30797.4500 49.4530 120.8790
ENERGY: 1200000 2.5305 6.7338 9.0322 0.0000 -10757.2529 1446.3590 0.0000 0.0000 1790.7504 -7501.8469 303.1612 -9292.5973 -7497.0624 300.6199 -283.3177 -195.2202 30843.9767 -2.3503 63.8539
ENERGY: 1500000 3.0148 5.4887 8.9179 0.0000 -10744.9402 1439.7242 0.0000 0.0000 1746.1188 -7541.6758 295.6054 -9287.7947 -7492.7773 300.5752 57.3952 -17.8818 30535.0096 -119.5920 -62.7587
TCL: Running FEP window  18: Lambda1 0.8500000000000002 Lambda2 0.9000000000000002 [dLambda 0.050000000000000044]
TCL: Setting parameter firsttimestep to 0
TCL: Setting parameter alchLambda to 0.8500000000000002
Info: NONBONDED TABLE R-SQUARED SPACING: 0.0625
Info: NONBONDED TABLE SIZE: 705 POINTS
TCL: Setting parameter alchLambda2 to 0.9000000000000002
Info: NONBONDED TABLE R-SQUARED SPACING: 0.0625
Info: NONBONDED TABLE SIZE: 705 POINTS
TCL: Running for 1500000 steps
ETITLE: TS BOND ANGLE DIHED IMPRP ELECT VDW BOUNDARY MISC KINETIC TOTAL TEMP POTENTIAL TOTALAVG TEMPAVG PRESSURE GPRESSURE VOLUME PRESSAVG GPRESSAVG
ENERGY: 0 3.0148 5.4887 8.9179 0.0000 -10746.2926 1440.0400 0.0000 0.0000 1745.2343 -7543.5968 295.4556 -9288.8312 -7543.5968 295.4556 -85.3649 -4.6192 30535.0096 -85.3649 -4.6192
ENERGY: 300000 3.4442 5.2960 5.6252 0.0000 -10543.2233 1319.9851 0.0000 0.0000 1779.8838 -7428.9890 301.3215 -9208.8728 -7481.5679 300.1231 -818.7924 -789.1733 30803.6583 -335.4979 -288.4735
ENERGY: 600000 4.3186 6.2034 7.0848 0.0000 -10643.6481 1406.0841 0.0000 0.0000 1722.9386 -7497.0187 291.6811 -9219.9573 -7475.9144 299.4471 -142.4856 -175.4556 30722.6233 -176.8825 -144.8781
ENERGY: 900000 1.9991 5.4262 5.1056 0.0000 -10620.4452 1400.0403 0.0000 0.0000 1799.9055 -7407.9686 304.7111 -9207.8741 -7470.1935 299.7029 -203.6244 -198.3583 30962.3507 -227.3964 -180.5147
ENERGY: 1200000 3.0833 6.1009 8.7182 0.0000 -10813.0885 1501.1904 0.0000 0.0000 1743.5112 -7550.4846 295.1639 -9293.9958 -7481.0897 299.5388 214.4135 277.7403 30686.7539 -218.4101 -161.6193
ENERGY: 1500000 4.3959 5.4421 6.1723 0.0000 -10797.6300 1527.1620 0.0000 0.0000 1748.0089 -7506.4488 295.9254 -9254.4577 -7480.0086 299.4553 447.6048 495.7466 30745.5627 -204.7873 -141.1799
TCL: Running FEP window  19: Lambda1 0.9000000000000002 Lambda2 0.9500000000000003 [dLambda 0.050000000000000044]
TCL: Setting parameter firsttimestep to 0
TCL: Setting parameter alchLambda to 0.9000000000000002
Info: NONBONDED TABLE R-SQUARED SPACING: 0.0625
Info: NONBONDED TABLE SIZE: 705 POINTS
TCL: Setting parameter alchLambda2 to 0.9500000000000003
Info: NONBONDED TABLE R-SQUARED SPACING: 0.0625
Info: NONBONDED TABLE SIZE: 705 POINTS
TCL: Running for 1500000 steps
ETITLE: TS BOND ANGLE DIHED IMPRP ELECT VDW BOUNDARY MISC KINETIC TOTAL TEMP POTENTIAL TOTALAVG TEMPAVG PRESSURE GPRESSURE VOLUME PRESSAVG GPRESSAVG
ENERGY: 0 4.3959 5.4421 6.1723 0.0000 -10799.3160 1528.1578 0.0000 0.0000 1747.0952 -7508.0527 295.7707 -9255.1479 -7508.0527 295.7707 452.8597 514.9743 30745.5627 452.8597 514.9743
ENERGY: 300000 4.2595 5.8331 5.9789 0.0000 -10702.3574 1399.9513 0.0000 0.0000 1762.9831 -7523.3515 298.4604 -9286.3346 -7539.6641 296.8931 -850.7201 -811.4434 31295.3057 19.4535 73.3223
ENERGY: 600000 6.6691 5.3426 5.4955 0.0000 -10763.2667 1491.8844 0.0000 0.0000 1716.8760 -7536.9990 290.6548 -9253.8750 -7532.2315 296.8815 204.4786 296.3741 30430.0220 -63.0967 -0.4720
ENERGY: 900000 4.9037 7.7166 10.1017 0.0000 -10772.4348 1466.3062 0.0000 0.0000 1752.8716 -7530.5350 296.7486 -9283.4066 -7513.9310 297.5659 -6.5666 73.1438 30754.5082 38.1882 100.3489
ENERGY: 1200000 3.8499 7.1518 7.5385 0.0000 -10672.3328 1418.9177 0.0000 0.0000 1770.5765 -7464.2985 299.7459 -9234.8750 -7512.2197 298.4552 94.4747 112.4048 30357.6815 6.6335 63.9747
ENERGY: 1500000 5.0533 4.5471 10.5166 0.0000 -10825.4904 1450.7552 0.0000 0.0000 1771.9543 -7582.6638 299.9791 -9354.6181 -7513.1155 299.0888 -142.8732 -74.8014 30307.4355 -34.0500 24.5278
TCL: Running FEP window  20: Lambda1 0.9500000000000003 Lambda2 1.0    [dLambda 0.04999999999999971]
TCL: Setting parameter firsttimestep to 0
TCL: Setting parameter alchLambda to 0.9500000000000003
Info: NONBONDED TABLE R-SQUARED SPACING: 0.0625
Info: NONBONDED TABLE SIZE: 705 POINTS
TCL: Setting parameter alchLambda2 to 1.0
Info: NONBONDED TABLE R-SQUARED SPACING: 0.0625
Info: NONBONDED TABLE SIZE: 705 POINTS
TCL: Running for 1500000 steps
ETITLE: TS BOND ANGLE DIHED IMPRP ELECT VDW BOUNDARY MISC KINETIC TOTAL TEMP POTENTIAL TOTALAVG TEMPAVG PRESSURE GPRESSURE VOLUME PRESSAVG GPRESSAVG
ENERGY: 0 5.0533 4.5471 10.5166 0.0000 -10826.8246 1450.8498 0.0000 0.0000 1771.0857 -7584.7719 299.8321 -9355.8577 -7584.7719 299.8321 -152.1617 -61.1477 30307.4355 -152.1617 -61.1477
ENERGY: 300000 3.7330 7.0963 6.1375 0.0000 -10739.2380 1448.9667 0.0000 0.0000 1787.6856 -7485.6189 302.6423 -9273.3045 -7522.8800 300.1232 -0.3914 132.4848 30325.7913 -12.5434 65.9659
ENERGY: 600000 3.6463 9.4970 5.6247 0.0000 -10688.6419 1437.1151 0.0000 0.0000 1772.4101 -7460.3487 300.0563 -9232.7588 -7506.9955 298.6912 -304.5560 -244.6003 31431.7909 -1.7822 73.7244
ENERGY: 900000 2.3803 5.3189 6.6494 0.0000 -10772.1214 1359.3516 0.0000 0.0000 1748.5456 -7649.8756 296.0162 -9398.4212 -7533.8382 296.4988 -769.9872 -727.4481 30154.3520 -182.5805 -108.5407
ENERGY: 1200000 7.8675 7.1266 7.8296 0.0000 -10686.5448 1373.5948 0.0000 0.0000 1761.1009 -7529.0255 298.1417 -9290.1263 -7528.2783 296.6123 -537.3973 -517.0102 30694.1045 -121.9804 -64.8173
ENERGY: 1500000 3.4007 10.0043 5.1417 0.0000 -10671.4285 1409.7180 0.0000 0.0000 1777.0426 -7466.1212 300.8405 -9243.1638 -7529.8949 296.8750 -179.3136 -128.8687 30694.5679 -104.8067 -50.3616
TCL: Exiting due to exit command.
