Info: SIMULATION PARAMETERS:
Info: TIMESTEP               2
Info: NUMBER OF STEPS        0
Info: STEPS PER CYCLE        10
Info: PERIODIC CELL BASIS 1  30.1333 0 0
Info: PERIODIC CELL BASIS 2  0 32.384 0
Info: PERIODIC CELL BASIS 3  0 0 31.3991
Info: PERIODIC CELL CENTER   0 0 0
Info: WRAPPING WATERS AROUND PERIODIC BOUNDARIES ON OUTPUT.
Info: WRAPPING ALL CLUSTERS AROUND PERIODIC BOUNDARIES ON OUTPUT.
Info: FIRST LDB TIMESTEP     50
Info: LAST LDB TIMESTEP     -1
Info: HOM BACKGROUND SCALING 1
Info: PME BACKGROUND SCALING 1
Info: MIN ATOMS PER PATCH    40
Info: EMPTY PATCH LOAD       40 ATOMS
Info: VELOCITY FILE          mobley_1615431_equil.vel
Info: CENTER OF MASS MOVING INITIALLY? NO
Info: DIELECTRIC             1
Info: EXCLUDE                SCALED ONE-FOUR
Info: 1-4 ELECTROSTATICS SCALED BY 0.833333
Info: MODIFIED 1-4 VDW PARAMETERS WILL BE USED
Info: DCD FILENAME           mobley_1615431_prod.dcd
Info: DCD FREQUENCY          100000
Info: DCD FIRST STEP         100000
Info: DCD FILE WILL CONTAIN UNIT CELL DATA
Info: XST FILENAME           mobley_1615431_prod.xst
Info: XST FREQUENCY          100000
Info: NO VELOCITY DCD OUTPUT
Info: NO FORCE DCD OUTPUT
Info: OUTPUT FILENAME        mobley_1615431_prod
Info: BINARY OUTPUT FILES WILL BE USED
Info: RESTART FILENAME       mobley_1615431_prod.restart
Info: RESTART FREQUENCY      100000
Info: BINARY RESTART FILES WILL BE USED
Info: CUTOFF                 9
Info: PAIRLIST DISTANCE      11
Info: PAIRLIST SHRINK RATE   0.01
Info: PAIRLIST GROW RATE     0.01
Info: PAIRLIST TRIGGER       0.3
Info: PAIRLISTS PER CYCLE    2
Info: PAIRLISTS ENABLED
Info: MARGIN                 2
Info: HYDROGEN GROUP CUTOFF  2.5
Info: PATCH DIMENSION        15.5
Info: ENERGY OUTPUT STEPS    100000
Info: ENERGY EVALUATION STEPS    100000
Info: OUTPUT ENERGY PRECISION 4
Info: CROSSTERM ENERGY INCLUDED IN DIHEDRAL
Info: TIMING OUTPUT STEPS    1000000
Info: PRESSURE OUTPUT STEPS  100000
Info: ALCHEMICAL FEP ON
Info: FEP CURRENT LAMBDA VALUE     1
Info: FEP COMPARISON LAMBDA VALUE  0.95
Info: FEP INTRA-ALCHEMICAL NON-BONDED INTERACTIONS WILL BE RETAINED
Info: FEP INTRA-ALCHEMICAL BONDED INTERACTIONS WILL BE RETAINED
Info: FEP VDW SHIFTING COEFFICIENT 5
Info: FEP ELEC. ACTIVE FOR ANNIHILATED PARTICLES BETWEEN LAMBDA = 0 AND LAMBDA = 0.5
Info: FEP ELEC. ACTIVE FOR EXNIHILATED PARTICLES BETWEEN LAMBDA = 0.5 AND LAMBDA = 1
Info: FEP VDW ACTIVE FOR ANNIHILATED PARTICLES BETWEEN LAMBDA = 0 AND LAMBDA = 1
Info: FEP VDW ACTIVE FOR EXNIHILATED PARTICLES BETWEEN LAMBDA = 0 AND LAMBDA = 1
Info: FEP BOND ACTIVE FOR ANNIHILATED PARTICLES BETWEEN LAMBDA = 1 AND LAMBDA = 1
Info: FEP BOND ACTIVE FOR EXNIHILATED PARTICLES BETWEEN LAMBDA = 0 AND LAMBDA = 0
Info: LANGEVIN DYNAMICS ACTIVE
Info: LANGEVIN TEMPERATURE   300
Info: LANGEVIN USING BBK INTEGRATOR
Info: LANGEVIN DAMPING COEFFICIENT IS 1 INVERSE PS
Info: LANGEVIN DYNAMICS APPLIED TO HYDROGENS
Info: LANGEVIN PISTON PRESSURE CONTROL ACTIVE
Info:        TARGET PRESSURE IS 1.01325 BAR
Info:     OSCILLATION PERIOD IS 50 FS
Info:             DECAY TIME IS 25 FS
Info:     PISTON TEMPERATURE IS 300 K
Info:       PRESSURE CONTROL IS GROUP-BASED
Info:    INITIAL STRAIN RATE IS -0.000608882 -0.000608882 -0.000608882
Info:       CELL FLUCTUATION IS ISOTROPIC
Info: PARTICLE MESH EWALD (PME) ACTIVE
Info: PME TOLERANCE               1e-06
Info: PME EWALD COEFFICIENT       0.348832
Info: PME INTERPOLATION ORDER     4
Info: PME GRID DIMENSIONS         32 36 32
Info: PME MAXIMUM GRID SPACING    1
Info: PME CALCULATION WILL BE PERFORMED ON GPU
Info: FULL ELECTROSTATIC EVALUATION FREQUENCY      2
Info: USING VERLET I (r-RESPA) MTS SCHEME.
Info: C1 SPLITTING OF LONG RANGE ELECTROSTATICS
Info: PLACING ATOMS IN PATCHES BY HYDROGEN GROUPS
Info: RIGID BONDS TO HYDROGEN : ALL
Info:         ERROR TOLERANCE : 1e-08
Info:          MAX ITERATIONS : 100
Info: RIGID WATER USING SETTLE ALGORITHM
Info: RANDOM NUMBER SEED     1743863911
Info: USE HYDROGEN BONDS?    NO
Info: Using AMBER format force field!
Info: AMBER PARM FILE        mobley_1615431.prmtop
Info: COORDINATE PDB         mobley_1615431.pdb
Info: Exclusions will be read from PARM file!
Info: SCNB (VDW SCALING)     2
Info: USING ARITHMETIC MEAN TO COMBINE L-J SIGMA PARAMETERS
Info: BINARY COORDINATES     mobley_1615431_equil.coor
Info: SUMMARY OF PARAMETERS:
Info: 6 BONDS
Info: 7 ANGLES
Info:   7 HARMONIC
Info:   0 COSINE-BASED
Info: 7 DIHEDRAL
Info: 0 IMPROPER
Info: 0 CROSSTERM
Info: 0 VDW
Info: 21 VDW_PAIRS
Info: 0 NBTHOLE_PAIRS
Info: To read alchdata from file: mobley_1615431.pdb
Info: To read alchflag data from column: 5
Info: STRUCTURE SUMMARY:
Info: 2991 ATOMS
Info: 2990 BONDS
Info: 37 ANGLES
Info: 58 DIHEDRALS
Info: 0 IMPROPERS
Info: 0 CROSSTERMS
Info: 3069 EXCLUSIONS
Info: 2984 RIGID BONDS
Info: ALCH: 0 ATOMS TO DISAPPEAR IN FINAL STATE
Info: ALCH: 21 ATOMS TO APPEAR IN FINAL STATE
Info: 5989 DEGREES OF FREEDOM
Info: 997 HYDROGEN GROUPS
Info: 4 ATOMS IN LARGEST HYDROGEN GROUP
Info: 997 MIGRATION GROUPS
Info: 4 ATOMS IN LARGEST MIGRATION GROUP
Info: TOTAL MASS = 17938 amu
Info: TOTAL CHARGE = 9.99942e-05 e
Info: MASS DENSITY = 0.972164 g/cm^3
Info: ATOM DENSITY = 0.0976163 atoms/A^3
Info: ADDED 0 IMPLICIT EXCLUSIONS
Info: NONBONDED TABLE R-SQUARED SPACING: 0.0625
Info: NONBONDED TABLE SIZE: 705 POINTS
Info: REMOVING COM VELOCITY 0.174507 0.00995608 0.262606
Info: Use 3D box decompostion in PME FFT.
Info: Updated CUDA force table with 4096 elements.
Info: Updated CUDA LJ table with 6 x 6 elements.
Info: Found 24 unique exclusion lists needing 68 bytes
TCL: Running for 1500000 steps
ETITLE: TS BOND ANGLE DIHED IMPRP ELECT VDW BOUNDARY MISC KINETIC TOTAL TEMP POTENTIAL TOTALAVG TEMPAVG PRESSURE GPRESSURE VOLUME PRESSAVG GPRESSAVG
ENERGY: 0 2.3243 8.0310 5.6718 0.0000 -10877.8473 1492.5746 0.0000 0.0000 1805.7132 -7563.5324 303.4484 -9369.2456 -7563.5324 303.4484 338.4979 425.2344 30640.3724 338.4979 425.2344
ENERGY: 300000 1.8636 8.6488 7.7123 0.0000 -10818.7538 1410.7263 0.0000 0.0000 1783.5922 -7606.2106 299.7310 -9389.8028 -7584.2738 299.2436 -274.8822 -180.3987 30400.5943 172.2604 243.1037
ENERGY: 600000 3.0880 9.2809 4.0667 0.0000 -10759.8915 1390.3126 0.0000 0.0000 1829.5176 -7523.6257 307.4487 -9353.1433 -7556.1963 301.1662 -538.5884 -492.5226 31162.4900 -21.3462 51.3614
ENERGY: 900000 6.5831 4.6354 6.2966 0.0000 -10909.8409 1477.0589 0.0000 0.0000 1798.1094 -7617.1575 302.1706 -9415.2669 -7555.0758 301.4272 212.8971 277.6413 30326.0422 4.4516 81.6914
ENERGY: 1200000 2.1959 11.7248 6.4038 0.0000 -10771.2261 1388.2422 0.0000 0.0000 1759.9415 -7602.7178 295.7565 -9362.6594 -7561.2262 299.6837 -391.2551 -324.9839 30593.7438 -70.5142 2.3404
ENERGY: 1500000 0.5198 9.1863 3.9571 0.0000 -10778.4363 1391.4979 0.0000 0.0000 1795.9130 -7577.3621 301.8015 -9373.2752 -7566.4242 299.8403 -585.1812 -553.2070 31195.1446 -122.3827 -50.4741
TCL: Running FEP window   2: Lambda1 0.95   Lambda2 0.8999999999999999 [dLambda -0.050000000000000044]
TCL: Setting parameter firsttimestep to 0
TCL: Setting parameter alchLambda to 0.95
Info: NONBONDED TABLE R-SQUARED SPACING: 0.0625
Info: NONBONDED TABLE SIZE: 705 POINTS
TCL: Setting parameter alchLambda2 to 0.8999999999999999
Info: NONBONDED TABLE R-SQUARED SPACING: 0.0625
Info: NONBONDED TABLE SIZE: 705 POINTS
TCL: Running for 1500000 steps
ETITLE: TS BOND ANGLE DIHED IMPRP ELECT VDW BOUNDARY MISC KINETIC TOTAL TEMP POTENTIAL TOTALAVG TEMPAVG PRESSURE GPRESSURE VOLUME PRESSAVG GPRESSAVG
ENERGY: 0 0.5198 9.1863 3.9571 0.0000 -10777.6805 1391.3235 0.0000 0.0000 1795.0608 -7577.6329 301.6583 -9372.6937 -7577.6329 301.6583 -639.3823 -567.4765 31195.1446 -639.3823 -567.4765
ENERGY: 300000 1.6032 8.7104 6.9895 0.0000 -10791.8198 1430.3974 0.0000 0.0000 1797.7191 -7546.4003 302.1050 -9344.1194 -7591.6880 300.5148 -140.3824 -70.9036 30686.4399 89.2693 159.2539
ENERGY: 600000 1.0968 9.3463 8.0077 0.0000 -10891.2019 1480.8729 0.0000 0.0000 1796.3563 -7595.5219 301.8760 -9391.8782 -7593.6792 300.9998 462.3723 567.5856 30159.2974 166.3638 229.2846
ENERGY: 900000 0.9128 9.2294 6.1589 0.0000 -10912.0258 1540.1184 0.0000 0.0000 1814.8665 -7540.7398 304.9866 -9355.6063 -7574.5795 302.9040 511.5082 540.1640 31232.1624 250.4383 312.1817
ENERGY: 1200000 1.7021 8.3331 5.0638 0.0000 -10823.2404 1460.8807 0.0000 0.0000 1791.7038 -7555.5569 301.0941 -9347.2607 -7566.8295 301.8313 -86.3894 -7.4455 30959.5445 116.6423 185.0753
ENERGY: 1500000 0.8484 12.9234 5.2754 0.0000 -10881.7933 1452.9452 0.0000 0.0000 1800.2104 -7609.5906 302.5237 -9409.8010 -7566.8254 301.9177 -184.2690 -166.0980 30985.0704 145.4568 214.7679
TCL: Running FEP window   3: Lambda1 0.8999999999999999 Lambda2 0.8499999999999999 [dLambda -0.050000000000000044]
TCL: Setting parameter firsttimestep to 0
TCL: Setting parameter alchLambda to 0.8999999999999999
Info: NONBONDED TABLE R-SQUARED SPACING: 0.0625
Info: NONBONDED TABLE SIZE: 705 POINTS
TCL: Setting parameter alchLambda2 to 0.8499999999999999
Info: NONBONDED TABLE R-SQUARED SPACING: 0.0625
Info: NONBONDED TABLE SIZE: 705 POINTS
TCL: Running for 1500000 steps
ETITLE: TS BOND ANGLE DIHED IMPRP ELECT VDW BOUNDARY MISC KINETIC TOTAL TEMP POTENTIAL TOTALAVG TEMPAVG PRESSURE GPRESSURE VOLUME PRESSAVG GPRESSAVG
ENERGY: 0 0.8484 12.9234 5.2754 0.0000 -10880.7724 1453.3874 0.0000 0.0000 1799.3329 -7609.0050 302.3762 -9408.3379 -7609.0050 302.3762 -248.8415 -172.3857 30985.0704 -248.8415 -172.3857
ENERGY: 300000 4.1907 9.3902 8.6499 0.0000 -10606.9421 1307.4989 0.0000 0.0000 1756.1274 -7521.0851 295.1155 -9277.2124 -7580.0196 298.1785 -1038.1023 -1082.3900 31288.4060 -596.2220 -524.1701
ENERGY: 600000 1.5804 10.9917 6.7891 0.0000 -10973.2092 1550.9187 0.0000 0.0000 1815.6160 -7587.3133 305.1125 -9402.9293 -7579.1474 299.9664 1006.3256 1071.0837 30054.0579 -287.2574 -219.1743
ENERGY: 900000 0.7880 11.0209 4.7522 0.0000 -10781.1869 1434.3656 0.0000 0.0000 1770.1471 -7560.1132 297.4715 -9330.2602 -7560.5900 300.0915 -149.9709 -151.5644 31177.7998 -258.5481 -197.6696
ENERGY: 1200000 0.5348 11.4753 6.5085 0.0000 -10958.5805 1524.1305 0.0000 0.0000 1830.9409 -7584.9905 307.6879 -9415.9314 -7560.4476 300.8959 267.8208 362.1065 31033.4515 -161.9872 -95.8789
ENERGY: 1500000 0.3721 8.7065 5.9028 0.0000 -10827.4210 1394.9206 0.0000 0.0000 1821.5787 -7595.9403 306.1146 -9417.5190 -7560.1768 301.6110 -670.5193 -581.6222 30974.4314 -229.8229 -166.6452
TCL: Running FEP window   4: Lambda1 0.8499999999999999 Lambda2 0.7999999999999998 [dLambda -0.050000000000000044]
TCL: Setting parameter firsttimestep to 0
TCL: Setting parameter alchLambda to 0.8499999999999999
Info: NONBONDED TABLE R-SQUARED SPACING: 0.0625
Info: NONBONDED TABLE SIZE: 705 POINTS
TCL: Setting parameter alchLambda2 to 0.7999999999999998
Info: NONBONDED TABLE R-SQUARED SPACING: 0.0625
Info: NONBONDED TABLE SIZE: 705 POINTS
TCL: Running for 1500000 steps
ETITLE: TS BOND ANGLE DIHED IMPRP ELECT VDW BOUNDARY MISC KINETIC TOTAL TEMP POTENTIAL TOTALAVG TEMPAVG PRESSURE GPRESSURE VOLUME PRESSAVG GPRESSAVG
ENERGY: 0 0.3721 8.7065 5.9028 0.0000 -10826.8974 1394.5736 0.0000 0.0000 1820.7052 -7596.6371 305.9678 -9417.3423 -7596.6371 305.9678 -686.9315 -595.8321 30974.4314 -686.9315 -595.8321
ENERGY: 300000 0.6861 8.5381 6.2461 0.0000 -10853.4326 1419.3841 0.0000 0.0000 1804.6949 -7613.8833 303.2773 -9418.5782 -7585.2147 302.5745 -258.6375 -141.0018 30481.9266 -326.1301 -220.0130
ENERGY: 600000 1.0610 8.5044 4.8646 0.0000 -10743.8385 1347.1627 0.0000 0.0000 1814.4526 -7567.7931 304.9170 -9382.2458 -7590.3209 301.8883 -991.3246 -966.0787 31246.8580 -193.9261 -111.5607
ENERGY: 900000 2.2822 8.7285 9.5602 0.0000 -10883.3325 1503.8737 0.0000 0.0000 1828.3978 -7530.4902 307.2605 -9358.8879 -7587.4863 301.8512 502.8253 567.7044 30592.2081 -101.6931 -22.0480
ENERGY: 1200000 0.6449 6.8075 6.5665 0.0000 -10875.9784 1495.4880 0.0000 0.0000 1808.1722 -7558.2994 303.8616 -9366.4716 -7569.4319 302.5875 358.7433 437.6947 30717.5002 -61.5380 20.3744
ENERGY: 1500000 5.6874 11.8879 5.4684 0.0000 -10799.2932 1442.6761 0.0000 0.0000 1782.3574 -7551.2160 299.5235 -9333.5734 -7567.9483 302.6379 -241.3671 -206.2120 30707.0363 -9.5860 68.4143
TCL: Running FEP window   5: Lambda1 0.7999999999999998 Lambda2 0.7499999999999998 [dLambda -0.050000000000000044]
TCL: Setting parameter firsttimestep to 0
TCL: Setting parameter alchLambda to 0.7999999999999998
Info: NONBONDED TABLE R-SQUARED SPACING: 0.0625
Info: NONBONDED TABLE SIZE: 705 POINTS
TCL: Setting parameter alchLambda2 to 0.7499999999999998
Info: NONBONDED TABLE R-SQUARED SPACING: 0.0625
Info: NONBONDED TABLE SIZE: 705 POINTS
TCL: Running for 1500000 steps
ETITLE: TS BOND ANGLE DIHED IMPRP ELECT VDW BOUNDARY MISC KINETIC TOTAL TEMP POTENTIAL TOTALAVG TEMPAVG PRESSURE GPRESSURE VOLUME PRESSAVG GPRESSAVG
ENERGY: 0 5.6874 11.8879 5.4684 0.0000 -10798.4099 1441.7657 0.0000 0.0000 1781.4747 -7552.1258 299.3751 -9333.6005 -7552.1258 299.3751 -320.2144 -226.5762 30707.0363 -320.2144 -226.5762
ENERGY: 300000 2.2561 12.3444 5.8505 0.0000 -10823.1105 1465.7127 0.0000 0.0000 1767.8255 -7569.1214 297.0814 -9336.9469 -7580.2684 297.9536 361.5549 362.4774 30690.0589 -180.8357 -121.6538
ENERGY: 600000 1.3654 8.6608 7.9101 0.0000 -10940.5420 1509.4194 0.0000 0.0000 1781.4041 -7631.7821 299.3633 -9413.1862 -7587.8967 296.5601 184.9328 243.4226 30636.1904 -215.0678 -152.6511
ENERGY: 900000 1.2949 9.4053 6.3095 0.0000 -10918.7759 1499.1497 0.0000 0.0000 1752.3298 -7650.2867 294.4774 -9402.6165 -7602.6899 296.4493 465.4718 495.0930 30467.2365 -93.3240 -48.7548
ENERGY: 1200000 1.1610 9.1000 6.5373 0.0000 -10746.4438 1380.1702 0.0000 0.0000 1789.4618 -7560.0136 300.7174 -9349.4753 -7601.2275 297.3100 -701.3155 -616.8108 30948.5256 -151.8871 -102.4191
ENERGY: 1500000 1.8088 6.9331 8.3745 0.0000 -10914.6918 1522.6912 0.0000 0.0000 1772.9406 -7601.9436 297.9410 -9374.8842 -7605.2128 297.5039 607.9903 594.7531 30730.5789 -82.4228 -35.5452
TCL: Running FEP window   6: Lambda1 0.7499999999999998 Lambda2 0.6999999999999997 [dLambda -0.050000000000000044]
TCL: Setting parameter firsttimestep to 0
TCL: Setting parameter alchLambda to 0.7499999999999998
Info: NONBONDED TABLE R-SQUARED SPACING: 0.0625
Info: NONBONDED TABLE SIZE: 705 POINTS
TCL: Setting parameter alchLambda2 to 0.6999999999999997
Info: NONBONDED TABLE R-SQUARED SPACING: 0.0625
Info: NONBONDED TABLE SIZE: 705 POINTS
TCL: Running for 1500000 steps
ETITLE: TS BOND ANGLE DIHED IMPRP ELECT VDW BOUNDARY MISC KINETIC TOTAL TEMP POTENTIAL TOTALAVG TEMPAVG PRESSURE GPRESSURE VOLUME PRESSAVG GPRESSAVG
ENERGY: 0 1.8088 6.9331 8.3745 0.0000 -10914.2174 1522.5539 0.0000 0.0000 1772.0277 -7602.5194 297.7876 -9374.5471 -7602.5194 297.7876 504.3768 582.2667 30730.5789 504.3768 582.2667
ENERGY: 300000 1.0380 9.7332 4.8795 0.0000 -10802.4455 1392.1663 0.0000 0.0000 1782.9243 -7611.7042 299.6187 -9394.6285 -7614.0760 298.7692 -513.3971 -456.2763 31007.6372 37.3321 127.9580
ENERGY: 600000 1.0389 9.4019 3.6459 0.0000 -10794.1771 1425.2291 0.0000 0.0000 1777.9295 -7576.9318 298.7794 -9354.8613 -7589.4970 299.1440 -156.0754 -64.7879 30880.7920 77.0576 157.4343
ENERGY: 900000 0.6369 12.9511 6.0378 0.0000 -11025.4269 1546.0958 0.0000 0.0000 1835.5386 -7624.1666 308.4605 -9459.7053 -7587.7403 300.4355 723.3603 790.2996 30059.8642 198.5870 271.3227
ENERGY: 1200000 0.4231 13.9313 5.7734 0.0000 -10883.5279 1519.2426 0.0000 0.0000 1761.7216 -7582.4360 296.0556 -9344.1575 -7593.3829 299.2706 661.6898 618.3795 30495.2598 241.9407 297.6259
ENERGY: 1500000 3.1958 13.4689 4.5641 0.0000 -10823.1981 1416.4641 0.0000 0.0000 1698.5130 -7686.9922 285.4335 -9385.5052 -7594.2713 299.0162 -500.8810 -411.6935 30739.8941 101.0473 163.3907
TCL: Running FEP window   7: Lambda1 0.6999999999999997 Lambda2 0.6499999999999997 [dLambda -0.050000000000000044]
TCL: Setting parameter firsttimestep to 0
TCL: Setting parameter alchLambda to 0.6999999999999997
Info: NONBONDED TABLE R-SQUARED SPACING: 0.0625
Info: NONBONDED TABLE SIZE: 705 POINTS
TCL: Setting parameter alchLambda2 to 0.6499999999999997
Info: NONBONDED TABLE R-SQUARED SPACING: 0.0625
Info: NONBONDED TABLE SIZE: 705 POINTS
TCL: Running for 1500000 steps
ETITLE: TS BOND ANGLE DIHED IMPRP ELECT VDW BOUNDARY MISC KINETIC TOTAL TEMP POTENTIAL TOTALAVG TEMPAVG PRESSURE GPRESSURE VOLUME PRESSAVG GPRESSAVG
ENERGY: 0 3.1958 13.4689 4.5641 0.0000 -10822.4628 1417.0507 0.0000 0.0000 1697.6317 -7686.5516 285.2854 -9384.1833 -7686.5516 285.2854 -498.0952 -411.3511 30739.8941 -498.0952 -411.3511
ENERGY: 300000 1.3484 11.3739 5.1117 0.0000 -10784.3933 1425.4101 0.0000 0.0000 1794.3730 -7546.7761 301.5427 -9341.1491 -7569.5613 296.6312 -88.2459 -23.2455 30418.2342 -235.8804 -204.7003
ENERGY: 600000 1.6633 9.1072 4.6474 0.0000 -10784.0532 1376.6515 0.0000 0.0000 1825.8959 -7566.0878 306.8401 -9391.9837 -7563.5433 299.5200 -785.8674 -740.2355 31178.5653 -353.7116 -303.0355
ENERGY: 900000 0.4765 11.2971 8.8011 0.0000 -10789.8090 1477.7202 0.0000 0.0000 1814.9153 -7476.5989 304.9948 -9291.5141 -7556.4267 299.0603 382.7728 407.8629 30845.7439 -159.9316 -108.1626
ENERGY: 1200000 1.4680 12.7221 6.1248 0.0000 -10787.0554 1404.3614 0.0000 0.0000 1833.0668 -7529.3123 308.0451 -9362.3791 -7552.2057 299.3930 -107.8530 -60.3047 30556.0129 -174.0744 -130.8435
ENERGY: 1500000 0.2639 9.9620 5.0665 0.0000 -10955.1670 1507.7890 0.0000 0.0000 1761.9872 -7670.0983 296.1003 -9432.0856 -7567.7268 299.0492 226.2134 238.2666 30821.2954 -180.8188 -138.2580
TCL: Running FEP window   8: Lambda1 0.6499999999999997 Lambda2 0.5999999999999996 [dLambda -0.050000000000000044]
TCL: Setting parameter firsttimestep to 0
TCL: Setting parameter alchLambda to 0.6499999999999997
Info: NONBONDED TABLE R-SQUARED SPACING: 0.0625
Info: NONBONDED TABLE SIZE: 705 POINTS
TCL: Setting parameter alchLambda2 to 0.5999999999999996
Info: NONBONDED TABLE R-SQUARED SPACING: 0.0625
Info: NONBONDED TABLE SIZE: 705 POINTS
TCL: Running for 1500000 steps
ETITLE: TS BOND ANGLE DIHED IMPRP ELECT VDW BOUNDARY MISC KINETIC TOTAL TEMP POTENTIAL TOTALAVG TEMPAVG PRESSURE GPRESSURE VOLUME PRESSAVG GPRESSAVG
ENERGY: 0 0.2639 9.9620 5.0665 0.0000 -10954.1881 1507.0656 0.0000 0.0000 1761.0761 -7670.7540 295.9472 -9431.8301 -7670.7540 295.9472 133.6082 218.3803 30821.2954 133.6082 218.3803
ENERGY: 300000 2.6888 14.5633 5.3569 0.0000 -10743.7160 1446.8701 0.0000 0.0000 1810.2559 -7463.9809 304.2118 -9274.2369 -7552.1705 300.9331 0.3080 30.4398 31089.0449 31.2208 106.2235
ENERGY: 600000 2.7314 12.1282 5.4368 0.0000 -10789.8141 1445.5675 0.0000 0.0000 1865.3542 -7458.5960 313.4710 -9323.9502 -7554.5750 302.0862 -27.2217 118.1957 30796.5771 3.5336 88.7583
ENERGY: 900000 1.6447 10.5143 4.6237 0.0000 -10872.5201 1492.9545 0.0000 0.0000 1811.6955 -7551.0874 304.4537 -9362.7829 -7566.1326 301.7804 508.8793 545.3275 30438.4704 -9.6076 68.0934
ENERGY: 1200000 1.3790 9.2944 6.7649 0.0000 -10786.0734 1418.3228 0.0000 0.0000 1761.2853 -7589.0270 295.9823 -9350.3123 -7572.3871 300.2904 -181.2571 -124.2559 30476.7256 15.8060 88.3485
ENERGY: 1500000 1.1232 12.1836 6.4029 0.0000 -10880.2225 1424.9981 0.0000 0.0000 1753.2757 -7682.2388 294.6363 -9435.5145 -7581.0547 299.7290 -337.9967 -345.2639 30773.7084 36.2731 110.6878
TCL: Running FEP window   9: Lambda1 0.5999999999999996 Lambda2 0.5499999999999996 [dLambda -0.050000000000000044]
TCL: Setting parameter firsttimestep to 0
TCL: Setting parameter alchLambda to 0.5999999999999996
Info: NONBONDED TABLE R-SQUARED SPACING: 0.0625
Info: NONBONDED TABLE SIZE: 705 POINTS
TCL: Setting parameter alchLambda2 to 0.5499999999999996
Info: NONBONDED TABLE R-SQUARED SPACING: 0.0625
Info: NONBONDED TABLE SIZE: 705 POINTS
TCL: Running for 1500000 steps
ETITLE: TS BOND ANGLE DIHED IMPRP ELECT VDW BOUNDARY MISC KINETIC TOTAL TEMP POTENTIAL TOTALAVG TEMPAVG PRESSURE GPRESSURE VOLUME PRESSAVG GPRESSAVG
ENERGY: 0 1.1232 12.1836 6.4029 0.0000 -10879.1860 1424.4422 0.0000 0.0000 1752.3782 -7682.6559 294.4855 -9435.0341 -7682.6559 294.4855 -435.7097 -357.4719 30773.7084 -435.7097 -357.4719
ENERGY: 300000 0.3641 14.5361 5.7039 0.0000 -10743.1863 1401.5731 0.0000 0.0000 1747.1703 -7573.8389 293.6103 -9321.0091 -7609.5059 295.2064 -478.2491 -389.8199 31023.3716 -476.2333 -418.5604
ENERGY: 600000 2.8902 9.6094 5.8017 0.0000 -10861.5510 1439.5587 0.0000 0.0000 1802.5188 -7601.1721 302.9116 -9403.6909 -7617.3698 296.9729 -497.9559 -464.4833 31160.9847 -460.2043 -414.8417
ENERGY: 900000 4.9035 11.0445 8.2199 0.0000 -10805.4342 1428.3748 0.0000 0.0000 1776.7327 -7576.1588 298.5783 -9352.8915 -7609.8373 296.7377 -366.1814 -381.0950 30703.1925 -391.8221 -354.7446
ENERGY: 1200000 1.6153 11.2937 8.0890 0.0000 -10776.0451 1389.1880 0.0000 0.0000 1747.2615 -7618.5977 293.6256 -9365.8592 -7607.2984 296.9814 -741.7181 -683.3291 30959.1577 -389.1330 -340.5176
ENERGY: 1500000 1.9607 8.5272 6.2750 0.0000 -10860.6694 1480.6985 0.0000 0.0000 1710.6331 -7652.5748 287.4703 -9363.2079 -7603.3585 295.8826 127.1180 170.8761 30713.8290 -313.8075 -256.9790
TCL: Running FEP window  10: Lambda1 0.5499999999999996 Lambda2 0.4999999999999996 [dLambda -0.04999999999999999]
TCL: Setting parameter firsttimestep to 0
TCL: Setting parameter alchLambda to 0.5499999999999996
Info: NONBONDED TABLE R-SQUARED SPACING: 0.0625
Info: NONBONDED TABLE SIZE: 705 POINTS
TCL: Setting parameter alchLambda2 to 0.4999999999999996
Info: NONBONDED TABLE R-SQUARED SPACING: 0.0625
Info: NONBONDED TABLE SIZE: 705 POINTS
TCL: Running for 1500000 steps
ETITLE: TS BOND ANGLE DIHED IMPRP ELECT VDW BOUNDARY MISC KINETIC TOTAL TEMP POTENTIAL TOTALAVG TEMPAVG PRESSURE GPRESSURE VOLUME PRESSAVG GPRESSAVG
ENERGY: 0 1.9607 8.5272 6.2750 0.0000 -10860.3339 1480.1785 0.0000 0.0000 1709.7401 -7653.6524 287.3202 -9363.3925 -7653.6524 287.3202 69.0732 157.7052 30713.8290 69.0732 157.7052
ENERGY: 300000 0.8008 8.6032 5.8899 0.0000 -10909.8923 1528.7632 0.0000 0.0000 1791.5832 -7574.2520 301.0739 -9365.8352 -7601.9984 297.1844 568.9865 600.7751 30550.3003 167.4278 219.3677
ENERGY: 600000 3.4097 11.3433 4.9013 0.0000 -10821.6539 1410.0257 0.0000 0.0000 1775.1565 -7616.8174 298.3134 -9391.9739 -7602.0077 298.0280 -618.3977 -598.4246 31239.6179 40.8473 91.6188
ENERGY: 900000 0.9876 8.0904 8.5332 0.0000 -10854.6200 1495.0110 0.0000 0.0000 1794.8853 -7547.1125 301.6288 -9341.9978 -7586.3567 298.1734 224.4573 316.4700 30896.8022 -53.5127 8.7099
ENERGY: 1200000 1.7508 11.8090 9.2770 0.0000 -10799.1282 1445.4530 0.0000 0.0000 1802.0921 -7528.7463 302.8399 -9330.8384 -7574.6305 299.5769 -380.6158 -212.0640 31038.6687 -92.4516 -12.0740
ENERGY: 1500000 2.1515 16.5844 4.5302 0.0000 -10802.5270 1414.7637 0.0000 0.0000 1788.6097 -7575.8875 300.5742 -9364.4972 -7576.8569 299.6823 -344.8958 -297.1180 30852.2916 -94.1852 -18.0516
TCL: Running FEP window  11: Lambda1 0.4999999999999996 Lambda2 0.4499999999999996 [dLambda -0.04999999999999999]
TCL: Setting parameter firsttimestep to 0
TCL: Setting parameter alchLambda to 0.4999999999999996
Info: NONBONDED TABLE R-SQUARED SPACING: 0.0625
Info: NONBONDED TABLE SIZE: 705 POINTS
TCL: Setting parameter alchLambda2 to 0.4499999999999996
Info: NONBONDED TABLE R-SQUARED SPACING: 0.0625
Info: NONBONDED TABLE SIZE: 705 POINTS
TCL: Running for 1500000 steps
ETITLE: TS BOND ANGLE DIHED IMPRP ELECT VDW BOUNDARY MISC KINETIC TOTAL TEMP POTENTIAL TOTALAVG TEMPAVG PRESSURE GPRESSURE VOLUME PRESSAVG GPRESSAVG
ENERGY: 0 2.1515 16.5844 4.5302 0.0000 -10802.2032 1415.1146 0.0000 0.0000 1787.7534 -7576.0691 300.4303 -9363.8225 -7576.0691 300.4303 -391.1656 -301.5560 30852.2916 -391.1656 -301.5560
ENERGY: 300000 0.4117 6.1266 8.2470 0.0000 -10873.1499 1482.8316 0.0000 0.0000 1710.9348 -7664.5982 287.5210 -9375.5330 -7605.3215 298.8916 -168.8735 -100.2531 31167.5577 -327.4681 -239.6547
ENERGY: 600000 0.7191 11.0529 5.2064 0.0000 -10787.6252 1393.2362 0.0000 0.0000 1773.2725 -7604.1381 297.9968 -9377.4105 -7600.3564 296.7128 -580.1581 -545.9174 30726.6699 -349.9460 -292.5983
ENERGY: 900000 0.6239 13.8952 5.9607 0.0000 -10879.1830 1437.1763 0.0000 0.0000 1740.1209 -7681.4060 292.4257 -9421.5269 -7596.3021 297.1170 -333.3012 -270.5746 30646.8172 -258.7619 -203.0318
ENERGY: 1200000 1.0753 8.3799 6.3472 0.0000 -10749.5482 1425.6836 0.0000 0.0000 1787.1939 -7520.8684 300.3362 -9308.0623 -7588.6325 297.7565 -244.0035 -218.6274 31226.4043 -274.7948 -214.1659
ENERGY: 1500000 1.6924 9.5844 4.2842 0.0000 -10737.5369 1414.0782 0.0000 0.0000 1730.9905 -7576.9073 290.8913 -9307.8977 -7574.3289 298.2420 -663.7746 -581.9510 31367.4094 -243.3678 -185.6199
TCL: Running FEP window  12: Lambda1 0.4499999999999996 Lambda2 0.39999999999999963 [dLambda -0.04999999999999999]
TCL: Setting parameter firsttimestep to 0
TCL: Setting parameter alchLambda to 0.4499999999999996
Info: NONBONDED TABLE R-SQUARED SPACING: 0.0625
Info: NONBONDED TABLE SIZE: 705 POINTS
TCL: Setting parameter alchLambda2 to 0.39999999999999963
Info: NONBONDED TABLE R-SQUARED SPACING: 0.0625
Info: NONBONDED TABLE SIZE: 705 POINTS
TCL: Running for 1500000 steps
ETITLE: TS BOND ANGLE DIHED IMPRP ELECT VDW BOUNDARY MISC KINETIC TOTAL TEMP POTENTIAL TOTALAVG TEMPAVG PRESSURE GPRESSURE VOLUME PRESSAVG GPRESSAVG
ENERGY: 0 1.6924 9.5844 4.2842 0.0000 -10737.5380 1413.8298 0.0000 0.0000 1730.1002 -7578.0470 290.7417 -9308.1472 -7578.0470 290.7417 -678.4800 -591.5540 31367.4094 -678.4800 -591.5540
ENERGY: 300000 2.2565 11.7338 4.9105 0.0000 -10880.5767 1485.7523 0.0000 0.0000 1780.0017 -7595.9219 299.1276 -9375.9236 -7600.8512 295.9140 522.2299 484.8669 30214.2119 -35.7305 14.3493
ENERGY: 600000 0.7212 8.3764 7.4276 0.0000 -10826.5102 1383.7114 0.0000 0.0000 1816.6342 -7609.6394 305.2837 -9426.2735 -7583.5029 298.0122 -577.9355 -494.1821 30267.4344 -165.7368 -111.2036
ENERGY: 900000 4.8018 9.5195 4.0089 0.0000 -10859.1028 1464.0811 0.0000 0.0000 1791.5650 -7585.1266 301.0708 -9376.6915 -7583.8835 297.5872 168.7409 179.9638 30503.2727 -99.4799 -60.2618
ENERGY: 1200000 0.6013 12.0634 7.1665 0.0000 -10852.5316 1455.0670 0.0000 0.0000 1785.3222 -7592.3112 300.0217 -9377.6334 -7584.3723 298.1444 251.5870 334.3031 30302.9284 2.4194 45.4651
ENERGY: 1500000 1.9758 7.3968 4.1744 0.0000 -10811.7234 1466.7986 0.0000 0.0000 1807.8663 -7523.5114 303.8102 -9331.3777 -7576.8081 298.7195 75.6423 100.8892 31030.0924 6.9099 48.8809
TCL: Running FEP window  13: Lambda1 0.39999999999999963 Lambda2 0.34999999999999964 [dLambda -0.04999999999999999]
TCL: Setting parameter firsttimestep to 0
TCL: Setting parameter alchLambda to 0.39999999999999963
Info: NONBONDED TABLE R-SQUARED SPACING: 0.0625
Info: NONBONDED TABLE SIZE: 705 POINTS
TCL: Setting parameter alchLambda2 to 0.34999999999999964
Info: NONBONDED TABLE R-SQUARED SPACING: 0.0625
Info: NONBONDED TABLE SIZE: 705 POINTS
TCL: Running for 1500000 steps
ETITLE: TS BOND ANGLE DIHED IMPRP ELECT VDW BOUNDARY MISC KINETIC TOTAL TEMP POTENTIAL TOTALAVG TEMPAVG PRESSURE GPRESSURE VOLUME PRESSAVG GPRESSAVG
ENERGY: 0 1.9758 7.3968 4.1744 0.0000 -10811.7245 1466.5210 0.0000 0.0000 1806.9989 -7524.6574 303.6645 -9331.6564 -7524.6574 303.6645 3.0530 91.9895 31030.0924 3.0530 91.9895
ENERGY: 300000 2.6743 7.1679 6.8423 0.0000 -10789.0108 1418.1018 0.0000 0.0000 1749.2872 -7604.9373 293.9661 -9354.2245 -7577.6499 298.7083 -308.7746 -223.9181 30507.0501 26.6078 83.4229
ENERGY: 600000 0.9283 9.5307 6.2308 0.0000 -10951.9857 1524.6715 0.0000 0.0000 1796.0494 -7614.5750 301.8244 -9410.6244 -7579.7268 299.0343 263.4396 346.0790 30848.2927 17.6874 73.1575
ENERGY: 900000 2.7362 9.6386 6.7825 0.0000 -10842.0843 1438.6486 0.0000 0.0000 1787.2060 -7597.0723 300.3383 -9384.2784 -7574.9979 299.7991 -412.2224 -265.7919 30943.5541 32.0024 100.7584
ENERGY: 1200000 2.6583 12.3579 7.8021 0.0000 -10885.5108 1531.4776 0.0000 0.0000 1712.2142 -7619.0007 287.7360 -9331.2149 -7583.4538 298.4799 290.5881 430.0359 30941.2091 69.0730 141.7470
ENERGY: 1500000 1.4819 9.6843 4.2736 0.0000 -10909.4330 1530.6966 0.0000 0.0000 1723.2623 -7640.0342 289.5926 -9363.2966 -7578.0584 298.9573 636.1312 743.9058 30397.0544 210.6327 286.2362
TCL: Running FEP window  14: Lambda1 0.34999999999999964 Lambda2 0.29999999999999966 [dLambda -0.04999999999999999]
TCL: Setting parameter firsttimestep to 0
TCL: Setting parameter alchLambda to 0.34999999999999964
Info: NONBONDED TABLE R-SQUARED SPACING: 0.0625
Info: NONBONDED TABLE SIZE: 705 POINTS
TCL: Setting parameter alchLambda2 to 0.29999999999999966
Info: NONBONDED TABLE R-SQUARED SPACING: 0.0625
Info: NONBONDED TABLE SIZE: 705 POINTS
TCL: Running for 1500000 steps
ETITLE: TS BOND ANGLE DIHED IMPRP ELECT VDW BOUNDARY MISC KINETIC TOTAL TEMP POTENTIAL TOTALAVG TEMPAVG PRESSURE GPRESSURE VOLUME PRESSAVG GPRESSAVG
ENERGY: 0 1.4819 9.6843 4.2736 0.0000 -10909.4320 1530.4390 0.0000 0.0000 1722.3619 -7641.1913 289.4413 -9363.5532 -7641.1913 289.4413 654.3012 735.2475 30397.0544 654.3012 735.2475
ENERGY: 300000 1.3034 9.8573 6.6711 0.0000 -10803.9387 1448.6700 0.0000 0.0000 1783.5569 -7553.8799 299.7251 -9337.4369 -7561.3169 298.2704 -207.5418 -141.3648 30842.3980 -19.0307 64.7091
ENERGY: 600000 1.3712 7.6833 6.8169 0.0000 -10821.0938 1460.0264 0.0000 0.0000 1730.8274 -7614.3686 290.8639 -9345.1960 -7553.1344 298.7947 -8.1041 82.9727 30754.4502 -194.5142 -125.8339
ENERGY: 900000 1.8895 10.1281 4.1972 0.0000 -10832.5546 1410.3716 0.0000 0.0000 1801.8088 -7604.1594 302.7923 -9405.9682 -7553.2196 300.5702 -531.8788 -441.5222 30446.3099 -105.9493 -36.3572
ENERGY: 1200000 2.4299 11.4625 7.4370 0.0000 -10823.2875 1457.2408 0.0000 0.0000 1777.0606 -7567.6567 298.6334 -9344.7173 -7566.0434 298.6346 11.4778 48.2048 30574.4598 -257.1130 -193.7545
ENERGY: 1500000 2.7371 9.2525 4.8669 0.0000 -10658.1871 1300.5204 0.0000 0.0000 1818.3778 -7522.4323 305.5767 -9340.8101 -7567.3216 299.1140 -1312.7608 -1291.7103 30922.8557 -350.6168 -287.7251
TCL: Running FEP window  15: Lambda1 0.29999999999999966 Lambda2 0.24999999999999967 [dLambda -0.04999999999999999]
TCL: Setting parameter firsttimestep to 0
TCL: Setting parameter alchLambda to 0.29999999999999966
Info: NONBONDED TABLE R-SQUARED SPACING: 0.0625
Info: NONBONDED TABLE SIZE: 705 POINTS
TCL: Setting parameter alchLambda2 to 0.24999999999999967
Info: NONBONDED TABLE R-SQUARED SPACING: 0.0625
Info: NONBONDED TABLE SIZE: 705 POINTS
TCL: Running for 1500000 steps
ETITLE: TS BOND ANGLE DIHED IMPRP ELECT VDW BOUNDARY MISC KINETIC TOTAL TEMP POTENTIAL TOTALAVG TEMPAVG PRESSURE GPRESSURE VOLUME PRESSAVG GPRESSAVG
ENERGY: 0 2.7371 9.2525 4.8669 0.0000 -10658.1873 1300.1465 0.0000 0.0000 1817.4600 -7523.7242 305.4224 -9341.1842 -7523.7242 305.4224 -1382.7603 -1298.9855 30922.8557 -1382.7603 -1298.9855
ENERGY: 300000 1.0646 8.4852 3.9345 0.0000 -10832.6084 1429.0020 0.0000 0.0000 1854.0159 -7536.1063 311.5656 -9390.1222 -7552.1070 306.7322 -95.3299 -57.1815 30340.0096 -601.2565 -557.6090
ENERGY: 600000 1.1196 13.6758 8.5249 0.0000 -10896.8820 1491.7888 0.0000 0.0000 1762.9676 -7618.8053 296.2650 -9381.7729 -7571.3427 303.1225 356.1405 363.2595 30480.3601 -156.8598 -111.6178
ENERGY: 900000 1.3143 11.3655 5.7046 0.0000 -10795.3050 1432.2629 0.0000 0.0000 1754.0283 -7590.6294 294.7628 -9344.6577 -7568.2705 302.2040 -85.0895 -43.2974 30471.3761 -247.4821 -194.5645
ENERGY: 1200000 0.5885 11.7215 5.4663 0.0000 -10683.9297 1409.0818 0.0000 0.0000 1738.4399 -7518.6317 292.1432 -9257.0716 -7548.7144 302.0757 -462.3115 -346.1741 31344.7161 -281.8949 -226.8600
ENERGY: 1500000 0.8617 5.5940 8.0218 0.0000 -10864.1879 1477.0751 0.0000 0.0000 1756.2186 -7616.4167 295.1309 -9372.6353 -7566.0488 300.4509 43.8573 35.5896 31137.5998 -256.3181 -207.9082
TCL: Running FEP window  16: Lambda1 0.24999999999999967 Lambda2 0.19999999999999968 [dLambda -0.04999999999999999]
TCL: Setting parameter firsttimestep to 0
TCL: Setting parameter alchLambda to 0.24999999999999967
Info: NONBONDED TABLE R-SQUARED SPACING: 0.0625
Info: NONBONDED TABLE SIZE: 705 POINTS
TCL: Setting parameter alchLambda2 to 0.19999999999999968
Info: NONBONDED TABLE R-SQUARED SPACING: 0.0625
Info: NONBONDED TABLE SIZE: 705 POINTS
TCL: Running for 1500000 steps
ETITLE: TS BOND ANGLE DIHED IMPRP ELECT VDW BOUNDARY MISC KINETIC TOTAL TEMP POTENTIAL TOTALAVG TEMPAVG PRESSURE GPRESSURE VOLUME PRESSAVG GPRESSAVG
ENERGY: 0 0.8617 5.5940 8.0218 0.0000 -10864.1877 1477.3494 0.0000 0.0000 1755.3324 -7617.0284 294.9819 -9372.3608 -7617.0284 294.9819 -41.9627 30.0165 31137.5998 -41.9627 30.0165
ENERGY: 300000 0.7672 9.6280 6.2040 0.0000 -10836.9798 1435.3743 0.0000 0.0000 1808.3732 -7576.6330 303.8954 -9385.0063 -7586.7320 299.4549 -247.1801 -191.0833 30724.4811 194.5973 240.1112
ENERGY: 600000 1.5236 11.2378 5.5098 0.0000 -10875.3579 1480.3762 0.0000 0.0000 1833.8283 -7542.8822 308.1731 -9376.7105 -7576.8114 301.2575 -91.7907 -31.2458 30794.0464 102.2317 160.4712
ENERGY: 900000 3.2630 14.9784 4.0981 0.0000 -10714.4781 1439.5378 0.0000 0.0000 1779.4999 -7473.1009 299.0433 -9252.6008 -7557.7828 301.9398 193.2795 265.1378 30814.1726 55.5392 130.0769
ENERGY: 1200000 1.4159 12.6071 7.8139 0.0000 -10726.3395 1399.2188 0.0000 0.0000 1762.7821 -7542.5017 296.2339 -9305.2838 -7560.3157 301.4342 -191.1373 -169.1878 30780.7167 -21.5580 40.1928
ENERGY: 1500000 2.8300 9.6497 9.6982 0.0000 -10723.6196 1374.7652 0.0000 0.0000 1806.3577 -7520.3188 303.5567 -9326.6765 -7558.4282 301.8940 -419.6962 -360.5754 30326.2541 -50.8155 9.3842
TCL: Running FEP window  17: Lambda1 0.19999999999999968 Lambda2 0.1499999999999997 [dLambda -0.04999999999999999]
TCL: Setting parameter firsttimestep to 0
TCL: Setting parameter alchLambda to 0.19999999999999968
Info: NONBONDED TABLE R-SQUARED SPACING: 0.0625
Info: NONBONDED TABLE SIZE: 705 POINTS
TCL: Setting parameter alchLambda2 to 0.1499999999999997
Info: NONBONDED TABLE R-SQUARED SPACING: 0.0625
Info: NONBONDED TABLE SIZE: 705 POINTS
TCL: Running for 1500000 steps
ETITLE: TS BOND ANGLE DIHED IMPRP ELECT VDW BOUNDARY MISC KINETIC TOTAL TEMP POTENTIAL TOTALAVG TEMPAVG PRESSURE GPRESSURE VOLUME PRESSAVG GPRESSAVG
ENERGY: 0 2.8300 9.6497 9.6982 0.0000 -10723.6212 1375.0161 0.0000 0.0000 1805.4830 -7520.9443 303.4097 -9326.4272 -7520.9443 303.4097 -451.8643 -360.4582 30326.2541 -451.8643 -360.4582
ENERGY: 300000 0.0388 9.1440 6.5182 0.0000 -10763.3710 1408.6129 0.0000 0.0000 1789.4732 -7549.5839 300.7193 -9339.0571 -7538.4004 301.2906 -364.7684 -297.9245 30829.9462 -242.8490 -163.4805
ENERGY: 600000 1.5951 6.8109 5.7387 0.0000 -10795.5803 1459.5373 0.0000 0.0000 1722.7368 -7599.1615 289.5043 -9321.8983 -7554.1921 300.2668 -113.2316 -43.4558 30891.9244 -44.0962 15.0649
ENERGY: 900000 2.3624 7.3416 7.0933 0.0000 -10804.8903 1522.5902 0.0000 0.0000 1721.8813 -7543.6216 289.3605 -9265.5028 -7564.1371 297.0685 467.7429 542.3345 30922.1988 19.4065 70.8821
ENERGY: 1200000 2.5012 7.2645 7.0797 0.0000 -10815.4743 1464.7816 0.0000 0.0000 1736.0174 -7597.8299 291.7361 -9333.8473 -7581.7918 296.4402 57.7703 136.6496 30734.2454 50.5711 112.0152
ENERGY: 1500000 1.5966 9.3354 6.4271 0.0000 -10742.5740 1458.5055 0.0000 0.0000 1731.0764 -7535.6329 290.9057 -9266.7093 -7578.6859 296.0780 -130.5252 -45.0595 31157.9577 19.8256 77.2668
TCL: Running FEP window  18: Lambda1 0.1499999999999997 Lambda2 0.09999999999999969 [dLambda -0.05 ]
TCL: Setting parameter firsttimestep to 0
TCL: Setting parameter alchLambda to 0.1499999999999997
Info: NONBONDED TABLE R-SQUARED SPACING: 0.0625
Info: NONBONDED TABLE SIZE: 705 POINTS
TCL: Setting parameter alchLambda2 to 0.09999999999999969
Info: NONBONDED TABLE R-SQUARED SPACING: 0.0625
Info: NONBONDED TABLE SIZE: 705 POINTS
TCL: Running for 1500000 steps
ETITLE: TS BOND ANGLE DIHED IMPRP ELECT VDW BOUNDARY MISC KINETIC TOTAL TEMP POTENTIAL TOTALAVG TEMPAVG PRESSURE GPRESSURE VOLUME PRESSAVG GPRESSAVG
ENERGY: 0 1.5966 9.3354 6.4271 0.0000 -10742.5757 1458.7873 0.0000 0.0000 1730.1989 -7536.2304 290.7583 -9266.4293 -7536.2304 290.7583 -118.9267 -45.9465 31157.9577 -118.9267 -45.9465
ENERGY: 300000 1.4533 10.6370 5.5109 0.0000 -10862.6221 1489.4191 0.0000 0.0000 1787.0693 -7568.5325 300.3153 -9355.6019 -7564.8734 297.3706 131.1440 236.7501 30788.2168 -136.6328 -71.1993
ENERGY: 600000 1.1447 7.3727 7.3211 0.0000 -10877.5802 1489.8733 0.0000 0.0000 1751.0605 -7620.8079 294.2641 -9371.8684 -7564.8730 298.3512 116.5025 207.0337 30436.3280 -81.5157 -9.1769
ENERGY: 900000 1.1168 10.0854 8.0541 0.0000 -10813.5486 1388.3296 0.0000 0.0000 1824.7166 -7581.2462 306.6419 -9405.9628 -7568.0372 299.6511 -492.7848 -492.6354 30093.5998 -145.4931 -98.2637
ENERGY: 1200000 1.7071 12.0151 5.1830 0.0000 -10887.8646 1530.5030 0.0000 0.0000 1846.5967 -7491.8597 310.3188 -9338.4564 -7554.9221 300.0306 694.5168 757.1610 30568.5837 -51.5470 0.5884
ENERGY: 1500000 1.2244 10.5636 6.3618 0.0000 -10859.9116 1472.5571 0.0000 0.0000 1776.8796 -7592.3251 298.6029 -9369.2048 -7563.6647 299.7425 10.4197 111.6980 30621.9135 -84.6145 -20.7449
TCL: Running FEP window  19: Lambda1 0.09999999999999969 Lambda2 0.049999999999999684 [dLambda -0.05 ]
TCL: Setting parameter firsttimestep to 0
TCL: Setting parameter alchLambda to 0.09999999999999969
Info: NONBONDED TABLE R-SQUARED SPACING: 0.0625
Info: NONBONDED TABLE SIZE: 705 POINTS
TCL: Setting parameter alchLambda2 to 0.049999999999999684
Info: NONBONDED TABLE R-SQUARED SPACING: 0.0625
Info: NONBONDED TABLE SIZE: 705 POINTS
TCL: Running for 1500000 steps
ETITLE: TS BOND ANGLE DIHED IMPRP ELECT VDW BOUNDARY MISC KINETIC TOTAL TEMP POTENTIAL TOTALAVG TEMPAVG PRESSURE GPRESSURE VOLUME PRESSAVG GPRESSAVG
ENERGY: 0 1.2244 10.5636 6.3618 0.0000 -10859.9120 1471.9822 0.0000 0.0000 1775.9683 -7593.8117 298.4498 -9369.7800 -7593.8117 298.4498 33.5457 106.0337 30621.9135 33.5457 106.0337
ENERGY: 300000 2.7631 10.1997 4.2049 0.0000 -10903.2946 1510.0723 0.0000 0.0000 1814.6532 -7561.4014 304.9508 -9376.0546 -7561.2791 301.4167 362.0721 449.1363 30151.0484 -60.6807 7.5981
ENERGY: 600000 1.6974 10.1568 5.6026 0.0000 -10958.0142 1570.6474 0.0000 0.0000 1793.5148 -7576.3951 301.3985 -9369.9099 -7557.5441 300.5036 1042.8148 1116.0669 30206.9003 64.6772 143.9027
ENERGY: 900000 0.8591 8.2624 4.0649 0.0000 -10854.1040 1495.2684 0.0000 0.0000 1761.6315 -7584.0178 296.0405 -9345.6493 -7564.8958 298.4957 148.2014 241.5864 30764.2701 44.5027 115.0602
ENERGY: 1200000 0.6554 15.7808 7.2952 0.0000 -11032.8253 1520.4602 0.0000 0.0000 1777.1976 -7711.4360 298.6564 -9488.6337 -7578.0715 298.4558 287.2836 360.6507 30032.6095 1.6708 70.0859
ENERGY: 1500000 1.1613 9.7431 7.4916 0.0000 -10792.0055 1408.4371 0.0000 0.0000 1732.5708 -7632.6016 291.1569 -9365.1724 -7579.5431 299.3060 -191.7550 -147.3370 30060.8740 -22.7221 46.7985
TCL: Running FEP window  20: Lambda1 0.049999999999999684 Lambda2 0.0    [dLambda -0.049999999999999684]
TCL: Setting parameter firsttimestep to 0
TCL: Setting parameter alchLambda to 0.049999999999999684
Info: NONBONDED TABLE R-SQUARED SPACING: 0.0625
Info: NONBONDED TABLE SIZE: 705 POINTS
TCL: Setting parameter alchLambda2 to 0.0
Info: NONBONDED TABLE R-SQUARED SPACING: 0.0625
Info: NONBONDED TABLE SIZE: 705 POINTS
TCL: Running for 1500000 steps
ETITLE: TS BOND ANGLE DIHED IMPRP ELECT VDW BOUNDARY MISC KINETIC TOTAL TEMP POTENTIAL TOTALAVG TEMPAVG PRESSURE GPRESSURE VOLUME PRESSAVG GPRESSAVG
ENERGY: 0 1.1613 9.7431 7.4916 0.0000 -10792.0089 1405.8942 0.0000 0.0000 1731.6900 -7636.0287 291.0089 -9367.7187 -7636.0287 291.0089 -242.4193 -154.8740 30060.8740 -242.4193 -154.8740
ENERGY: 300000 1.9713 9.1362 5.1151 0.0000 -10861.6595 1445.5865 0.0000 0.0000 1787.7348 -7612.1156 300.4271 -9399.8503 -7613.3458 296.1531 -250.6062 -174.1868 30506.3327 -158.2908 -83.5069
ENERGY: 600000 1.0670 10.0252 5.3444 0.0000 -10748.9748 1420.6074 0.0000 0.0000 1745.6562 -7566.2746 293.3559 -9311.9309 -7590.8942 296.7415 31.1415 59.7074 30722.2816 38.1141 114.1525
ENERGY: 900000 2.3088 6.2876 5.0172 0.0000 -10826.3084 1455.3564 0.0000 0.0000 1764.0420 -7593.2965 296.4456 -9357.3384 -7580.5880 297.6392 20.3373 78.1363 30422.6115 53.2583 128.2073
ENERGY: 1200000 2.0964 15.8431 4.9169 0.0000 -10976.9583 1507.2574 0.0000 0.0000 1771.7052 -7675.1393 297.7334 -9446.8445 -7580.4346 298.2394 170.6093 230.5880 30133.3975 32.6821 97.2642
ENERGY: 1500000 1.0186 6.3059 5.9007 0.0000 -10784.9131 1465.0550 0.0000 0.0000 1809.3461 -7497.2867 304.0589 -9306.6328 -7560.4207 299.2430 402.5820 448.6135 30307.2964 63.6663 121.5623
TCL: Exiting due to exit command.
