Info: SIMULATION PARAMETERS:
Info: TIMESTEP               2
Info: NUMBER OF STEPS        0
Info: STEPS PER CYCLE        10
Info: PERIODIC CELL BASIS 1  32.2958 0 0
Info: PERIODIC CELL BASIS 2  0 28.5015 0
Info: PERIODIC CELL BASIS 3  0 0 32.828
Info: PERIODIC CELL CENTER   0 0 0
Info: WRAPPING WATERS AROUND PERIODIC BOUNDARIES ON OUTPUT.
Info: WRAPPING ALL CLUSTERS AROUND PERIODIC BOUNDARIES ON OUTPUT.
Info: FIRST LDB TIMESTEP     50
Info: LAST LDB TIMESTEP     -1
Info: HOM BACKGROUND SCALING 1
Info: PME BACKGROUND SCALING 1
Info: MIN ATOMS PER PATCH    40
Info: EMPTY PATCH LOAD       40 ATOMS
Info: VELOCITY FILE          mobley_3265457_equil.vel
Info: CENTER OF MASS MOVING INITIALLY? NO
Info: DIELECTRIC             1
Info: EXCLUDE                SCALED ONE-FOUR
Info: 1-4 ELECTROSTATICS SCALED BY 0.833333
Info: MODIFIED 1-4 VDW PARAMETERS WILL BE USED
Info: DCD FILENAME           mobley_3265457_prod.dcd
Info: DCD FREQUENCY          100000
Info: DCD FIRST STEP         100000
Info: DCD FILE WILL CONTAIN UNIT CELL DATA
Info: XST FILENAME           mobley_3265457_prod.xst
Info: XST FREQUENCY          100000
Info: NO VELOCITY DCD OUTPUT
Info: NO FORCE DCD OUTPUT
Info: OUTPUT FILENAME        mobley_3265457_prod
Info: BINARY OUTPUT FILES WILL BE USED
Info: RESTART FILENAME       mobley_3265457_prod.restart
Info: RESTART FREQUENCY      100000
Info: BINARY RESTART FILES WILL BE USED
Info: CUTOFF                 9
Info: PAIRLIST DISTANCE      11
Info: PAIRLIST SHRINK RATE   0.01
Info: PAIRLIST GROW RATE     0.01
Info: PAIRLIST TRIGGER       0.3
Info: PAIRLISTS PER CYCLE    2
Info: PAIRLISTS ENABLED
Info: MARGIN                 2
Info: HYDROGEN GROUP CUTOFF  2.5
Info: PATCH DIMENSION        15.5
Info: ENERGY OUTPUT STEPS    100000
Info: ENERGY EVALUATION STEPS    100000
Info: OUTPUT ENERGY PRECISION 4
Info: CROSSTERM ENERGY INCLUDED IN DIHEDRAL
Info: TIMING OUTPUT STEPS    1000000
Info: PRESSURE OUTPUT STEPS  100000
Info: ALCHEMICAL FEP ON
Info: FEP CURRENT LAMBDA VALUE     0
Info: FEP COMPARISON LAMBDA VALUE  0.05
Info: FEP INTRA-ALCHEMICAL NON-BONDED INTERACTIONS WILL BE RETAINED
Info: FEP INTRA-ALCHEMICAL BONDED INTERACTIONS WILL BE RETAINED
Info: FEP VDW SHIFTING COEFFICIENT 5
Info: FEP ELEC. ACTIVE FOR ANNIHILATED PARTICLES BETWEEN LAMBDA = 0 AND LAMBDA = 0.5
Info: FEP ELEC. ACTIVE FOR EXNIHILATED PARTICLES BETWEEN LAMBDA = 0.5 AND LAMBDA = 1
Info: FEP VDW ACTIVE FOR ANNIHILATED PARTICLES BETWEEN LAMBDA = 0 AND LAMBDA = 1
Info: FEP VDW ACTIVE FOR EXNIHILATED PARTICLES BETWEEN LAMBDA = 0 AND LAMBDA = 1
Info: FEP BOND ACTIVE FOR ANNIHILATED PARTICLES BETWEEN LAMBDA = 1 AND LAMBDA = 1
Info: FEP BOND ACTIVE FOR EXNIHILATED PARTICLES BETWEEN LAMBDA = 0 AND LAMBDA = 0
Info: LANGEVIN DYNAMICS ACTIVE
Info: LANGEVIN TEMPERATURE   300
Info: LANGEVIN USING BBK INTEGRATOR
Info: LANGEVIN DAMPING COEFFICIENT IS 1 INVERSE PS
Info: LANGEVIN DYNAMICS APPLIED TO HYDROGENS
Info: LANGEVIN PISTON PRESSURE CONTROL ACTIVE
Info:        TARGET PRESSURE IS 1.01325 BAR
Info:     OSCILLATION PERIOD IS 50 FS
Info:             DECAY TIME IS 25 FS
Info:     PISTON TEMPERATURE IS 300 K
Info:       PRESSURE CONTROL IS GROUP-BASED
Info:    INITIAL STRAIN RATE IS -0.000233208 -0.000233208 -0.000233208
Info:       CELL FLUCTUATION IS ISOTROPIC
Info: PARTICLE MESH EWALD (PME) ACTIVE
Info: PME TOLERANCE               1e-06
Info: PME EWALD COEFFICIENT       0.348832
Info: PME INTERPOLATION ORDER     4
Info: PME GRID DIMENSIONS         36 32 36
Info: PME MAXIMUM GRID SPACING    1
Info: PME CALCULATION WILL BE PERFORMED ON GPU
Info: FULL ELECTROSTATIC EVALUATION FREQUENCY      2
Info: USING VERLET I (r-RESPA) MTS SCHEME.
Info: C1 SPLITTING OF LONG RANGE ELECTROSTATICS
Info: PLACING ATOMS IN PATCHES BY HYDROGEN GROUPS
Info: RIGID BONDS TO HYDROGEN : ALL
Info:         ERROR TOLERANCE : 1e-08
Info:          MAX ITERATIONS : 100
Info: RIGID WATER USING SETTLE ALGORITHM
Info: RANDOM NUMBER SEED     1743938015
Info: USE HYDROGEN BONDS?    NO
Info: Using AMBER format force field!
Info: AMBER PARM FILE        mobley_3265457.prmtop
Info: COORDINATE PDB         mobley_3265457.pdb
Info: Exclusions will be read from PARM file!
Info: SCNB (VDW SCALING)     2
Info: USING ARITHMETIC MEAN TO COMBINE L-J SIGMA PARAMETERS
Info: BINARY COORDINATES     mobley_3265457_equil.coor
Info: SUMMARY OF PARAMETERS:
Info: 13 BONDS
Info: 13 ANGLES
Info:   13 HARMONIC
Info:   0 COSINE-BASED
Info: 6 DIHEDRAL
Info: 0 IMPROPER
Info: 0 CROSSTERM
Info: 0 VDW
Info: 66 VDW_PAIRS
Info: 0 NBTHOLE_PAIRS
Info: To read alchdata from file: mobley_3265457.pdb
Info: To read alchflag data from column: 5
Info: STRUCTURE SUMMARY:
Info: 2957 ATOMS
Info: 2957 BONDS
Info: 36 ANGLES
Info: 47 DIHEDRALS
Info: 0 IMPROPERS
Info: 0 CROSSTERMS
Info: 3030 EXCLUSIONS
Info: 2943 RIGID BONDS
Info: ALCH: 0 ATOMS TO DISAPPEAR IN FINAL STATE
Info: ALCH: 23 ATOMS TO APPEAR IN FINAL STATE
Info: 5928 DEGREES OF FREEDOM
Info: 992 HYDROGEN GROUPS
Info: 4 ATOMS IN LARGEST HYDROGEN GROUP
Info: 992 MIGRATION GROUPS
Info: 4 ATOMS IN LARGEST MIGRATION GROUP
Info: TOTAL MASS = 17836.3 amu
Info: TOTAL CHARGE = -0.000299972 e
Info: MASS DENSITY = 0.980177 g/cm^3
Info: ATOM DENSITY = 0.0978572 atoms/A^3
Info: ADDED 0 IMPLICIT EXCLUSIONS
Info: NONBONDED TABLE R-SQUARED SPACING: 0.0625
Info: NONBONDED TABLE SIZE: 705 POINTS
Info: REMOVING COM VELOCITY -0.127007 -0.245106 -0.112282
Info: Use 3D box decompostion in PME FFT.
Info: Updated CUDA force table with 4096 elements.
Info: Updated CUDA LJ table with 11 x 11 elements.
Info: Found 26 unique exclusion lists needing 76 bytes
TCL: Running for 1500000 steps
ETITLE: TS BOND ANGLE DIHED IMPRP ELECT VDW BOUNDARY MISC KINETIC TOTAL TEMP POTENTIAL TOTALAVG TEMPAVG PRESSURE GPRESSURE VOLUME PRESSAVG GPRESSAVG
ENERGY: 0 6.3342 7.5138 7.6094 0.0000 -10726.2578 1508.0488 0.0000 0.0000 1748.0833 -7448.6683 296.7866 -9196.7515 -7448.6683 296.7866 565.8698 668.4675 30217.5078 565.8698 668.4675
ENERGY: 300000 3.5074 6.9221 7.7695 0.0000 -10763.0707 1482.6178 0.0000 0.0000 1726.5863 -7535.6676 293.1369 -9262.2539 -7413.0246 302.0442 339.8561 407.0245 29754.0844 141.9399 213.9867
ENERGY: 600000 3.5445 10.3673 6.1731 0.0000 -10695.2941 1465.2481 0.0000 0.0000 1824.2165 -7385.7445 309.7124 -9209.9610 -7403.2323 303.9436 372.9959 471.2331 30077.7458 34.4512 99.5812
ENERGY: 900000 3.4550 9.2641 8.3262 0.0000 -10643.4292 1388.6281 0.0000 0.0000 1743.8557 -7489.9001 296.0689 -9233.7559 -7414.5983 301.8048 -548.6179 -466.0816 30503.4614 -109.8913 -46.4934
ENERGY: 1200000 8.4658 10.6785 4.0817 0.0000 -10692.5755 1482.9426 0.0000 0.0000 1772.8537 -7413.5533 300.9921 -9186.4070 -7427.4033 300.9455 223.9710 341.4062 30045.3815 -30.0366 45.2271
ENERGY: 1500000 3.2675 9.4130 7.5665 0.0000 -10588.6263 1428.4656 0.0000 0.0000 1813.4467 -7326.4670 307.8839 -9139.9138 -7426.9180 300.3743 -86.3755 -30.8366 30720.2716 -54.2850 14.1595
TCL: Running FEP window   2: Lambda1 0.05   Lambda2 0.1    [dLambda 0.05  ]
TCL: Setting parameter firsttimestep to 0
TCL: Setting parameter alchLambda to 0.05
Info: NONBONDED TABLE R-SQUARED SPACING: 0.0625
Info: NONBONDED TABLE SIZE: 705 POINTS
TCL: Setting parameter alchLambda2 to 0.1
Info: NONBONDED TABLE R-SQUARED SPACING: 0.0625
Info: NONBONDED TABLE SIZE: 705 POINTS
TCL: Running for 1500000 steps
ETITLE: TS BOND ANGLE DIHED IMPRP ELECT VDW BOUNDARY MISC KINETIC TOTAL TEMP POTENTIAL TOTALAVG TEMPAVG PRESSURE GPRESSURE VOLUME PRESSAVG GPRESSAVG
ENERGY: 0 3.2675 9.4130 7.5665 0.0000 -10588.6289 1430.6118 0.0000 0.0000 1812.5763 -7325.1939 307.7361 -9137.7701 -7325.1939 307.7361 -115.7297 -24.8090 30720.2716 -115.7297 -24.8090
ENERGY: 300000 4.6523 6.5607 10.2522 0.0000 -10709.8160 1501.6611 0.0000 0.0000 1755.3295 -7431.3603 298.0169 -9186.6898 -7390.9858 303.5215 366.3993 419.6212 30270.3388 -159.8958 -83.7362
ENERGY: 600000 3.2914 10.6478 8.2075 0.0000 -10571.0065 1379.0402 0.0000 0.0000 1785.2707 -7384.5489 303.1002 -9169.8196 -7407.7823 304.3818 -80.5555 -17.0766 29860.6916 78.5430 141.7186
ENERGY: 900000 3.5415 6.0346 7.6708 0.0000 -10598.1388 1396.0435 0.0000 0.0000 1767.1571 -7417.6913 300.0249 -9184.8485 -7408.3817 303.5852 -368.7307 -358.0016 30458.4423 -69.6606 -11.9340
ENERGY: 1200000 3.2053 10.8863 7.8230 0.0000 -10743.7931 1464.3369 0.0000 0.0000 1744.3809 -7513.1607 296.1580 -9257.5416 -7418.3105 302.0410 139.5441 190.2560 29991.6939 -101.7914 -44.4046
ENERGY: 1500000 5.1381 12.9024 5.5091 0.0000 -10756.6146 1483.3562 0.0000 0.0000 1731.4061 -7518.3027 293.9552 -9249.7088 -7429.6616 302.0905 -159.2755 -49.9315 30610.9235 -85.5398 -22.8322
TCL: Running FEP window   3: Lambda1 0.1    Lambda2 0.15000000000000002 [dLambda 0.05000000000000002]
TCL: Setting parameter firsttimestep to 0
TCL: Setting parameter alchLambda to 0.1
Info: NONBONDED TABLE R-SQUARED SPACING: 0.0625
Info: NONBONDED TABLE SIZE: 705 POINTS
TCL: Setting parameter alchLambda2 to 0.15000000000000002
Info: NONBONDED TABLE R-SQUARED SPACING: 0.0625
Info: NONBONDED TABLE SIZE: 705 POINTS
TCL: Running for 1500000 steps
ETITLE: TS BOND ANGLE DIHED IMPRP ELECT VDW BOUNDARY MISC KINETIC TOTAL TEMP POTENTIAL TOTALAVG TEMPAVG PRESSURE GPRESSURE VOLUME PRESSAVG GPRESSAVG
ENERGY: 0 5.1381 12.9024 5.5091 0.0000 -10756.6138 1489.3735 0.0000 0.0000 1730.5055 -7513.1853 293.8023 -9243.6908 -7513.1853 293.8023 -127.5471 -35.0373 30610.9235 -127.5471 -35.0373
ENERGY: 300000 8.4151 6.2421 13.0474 0.0000 -10743.8050 1432.6932 0.0000 0.0000 1780.9667 -7502.4405 302.3695 -9283.4072 -7495.4413 300.5748 -480.5662 -445.2259 30088.0594 -244.0506 -171.0961
ENERGY: 600000 5.4057 7.7410 8.7105 0.0000 -10617.9761 1410.8531 0.0000 0.0000 1813.5478 -7371.7181 307.9011 -9185.2658 -7442.1602 303.3256 -35.6005 -39.9338 30006.4217 -187.0914 -131.2250
ENERGY: 900000 5.1051 8.9718 6.2138 0.0000 -10658.9288 1446.6454 0.0000 0.0000 1765.3646 -7426.6281 299.7206 -9191.9928 -7447.4771 301.3634 -227.9120 -155.3774 30491.8531 -297.7832 -236.7062
ENERGY: 1200000 5.6200 7.0828 7.1629 0.0000 -10719.0445 1475.3226 0.0000 0.0000 1737.7265 -7486.1297 295.0283 -9223.8562 -7449.7111 300.8812 -74.8511 75.8063 29994.7422 -219.5968 -152.7318
ENERGY: 1500000 3.0671 9.6104 6.1064 0.0000 -10730.5604 1468.2907 0.0000 0.0000 1737.4526 -7506.0332 294.9818 -9243.4858 -7445.9470 301.2612 515.8751 593.2160 29619.4786 -236.1149 -172.6561
TCL: Running FEP window   4: Lambda1 0.15000000000000002 Lambda2 0.2    [dLambda 0.04999999999999999]
TCL: Setting parameter firsttimestep to 0
TCL: Setting parameter alchLambda to 0.15000000000000002
Info: NONBONDED TABLE R-SQUARED SPACING: 0.0625
Info: NONBONDED TABLE SIZE: 705 POINTS
TCL: Setting parameter alchLambda2 to 0.2
Info: NONBONDED TABLE R-SQUARED SPACING: 0.0625
Info: NONBONDED TABLE SIZE: 705 POINTS
TCL: Running for 1500000 steps
ETITLE: TS BOND ANGLE DIHED IMPRP ELECT VDW BOUNDARY MISC KINETIC TOTAL TEMP POTENTIAL TOTALAVG TEMPAVG PRESSURE GPRESSURE VOLUME PRESSAVG GPRESSAVG
ENERGY: 0 3.0671 9.6104 6.1064 0.0000 -10730.5610 1469.0634 0.0000 0.0000 1736.5826 -7506.1311 294.8340 -9242.7137 -7506.1311 294.8340 518.5763 600.6557 29619.4786 518.5763 600.6557
ENERGY: 300000 1.9031 9.4702 8.2979 0.0000 -10646.8032 1393.8080 0.0000 0.0000 1753.4241 -7479.8999 297.6934 -9233.3241 -7459.9401 296.6257 -592.9697 -561.3507 30560.5556 -215.4379 -162.1995
ENERGY: 600000 7.2733 10.2856 5.8418 0.0000 -10702.7200 1494.4250 0.0000 0.0000 1774.5590 -7410.3354 301.2816 -9184.8944 -7435.6315 299.9867 574.2408 575.1662 30253.8781 -159.9375 -95.6950
ENERGY: 900000 5.4326 6.0229 9.7576 0.0000 -10719.5076 1454.8809 0.0000 0.0000 1764.6088 -7478.8048 299.5923 -9243.4136 -7436.8477 300.2456 0.2514 88.2539 30248.5058 -186.1653 -113.5561
ENERGY: 1200000 6.6111 10.0529 9.3890 0.0000 -10751.8659 1442.0533 0.0000 0.0000 1697.6353 -7586.1243 288.2216 -9283.7596 -7453.1615 299.5471 -72.5745 -19.4349 29639.9958 -206.3527 -136.6829
ENERGY: 1500000 2.6623 7.4938 9.0529 0.0000 -10712.2276 1457.6847 0.0000 0.0000 1780.5995 -7454.7344 302.3072 -9235.3339 -7446.9685 299.5201 100.6281 129.3111 30386.6822 -147.8067 -79.5408
TCL: Running FEP window   5: Lambda1 0.2    Lambda2 0.25   [dLambda 0.04999999999999999]
TCL: Setting parameter firsttimestep to 0
TCL: Setting parameter alchLambda to 0.2
Info: NONBONDED TABLE R-SQUARED SPACING: 0.0625
Info: NONBONDED TABLE SIZE: 705 POINTS
TCL: Setting parameter alchLambda2 to 0.25
Info: NONBONDED TABLE R-SQUARED SPACING: 0.0625
Info: NONBONDED TABLE SIZE: 705 POINTS
TCL: Running for 1500000 steps
ETITLE: TS BOND ANGLE DIHED IMPRP ELECT VDW BOUNDARY MISC KINETIC TOTAL TEMP POTENTIAL TOTALAVG TEMPAVG PRESSURE GPRESSURE VOLUME PRESSAVG GPRESSAVG
ENERGY: 0 2.6623 7.4938 9.0529 0.0000 -10712.2291 1460.9555 0.0000 0.0000 1779.7576 -7452.3070 302.1642 -9232.0646 -7452.3070 302.1642 73.7050 150.0648 30386.6822 73.7050 150.0648
ENERGY: 300000 3.3552 13.2680 3.9028 0.0000 -10681.0612 1462.2101 0.0000 0.0000 1774.2305 -7424.0946 301.2259 -9198.3251 -7427.4630 303.2445 630.0176 734.2123 29864.3781 585.0865 656.0066
ENERGY: 600000 6.8361 9.0024 9.5898 0.0000 -10763.0149 1539.7685 0.0000 0.0000 1781.0814 -7416.7367 302.3890 -9197.8181 -7437.6910 301.3407 862.2222 967.3846 29920.3838 642.1465 715.1194
ENERGY: 900000 2.3615 8.3387 15.4177 0.0000 -10656.7793 1464.9462 0.0000 0.0000 1744.9971 -7420.7181 296.2627 -9165.7153 -7438.0880 300.6898 58.9730 113.1744 30472.5755 454.9355 516.8128
ENERGY: 1200000 3.5504 16.2845 4.3043 0.0000 -10719.3844 1496.7127 0.0000 0.0000 1775.1065 -7423.4260 301.3746 -9198.5325 -7441.1927 300.3411 324.4321 408.1882 30715.1861 392.1036 456.0446
ENERGY: 1500000 4.3417 9.1097 7.5600 0.0000 -10732.2222 1453.1319 0.0000 0.0000 1787.2240 -7470.8550 303.4319 -9258.0789 -7443.7308 300.3325 -9.1831 -9.2980 30352.7289 239.1464 299.9498
TCL: Running FEP window   6: Lambda1 0.25   Lambda2 0.3    [dLambda 0.04999999999999999]
TCL: Setting parameter firsttimestep to 0
TCL: Setting parameter alchLambda to 0.25
Info: NONBONDED TABLE R-SQUARED SPACING: 0.0625
Info: NONBONDED TABLE SIZE: 705 POINTS
TCL: Setting parameter alchLambda2 to 0.3
Info: NONBONDED TABLE R-SQUARED SPACING: 0.0625
Info: NONBONDED TABLE SIZE: 705 POINTS
TCL: Running for 1500000 steps
ETITLE: TS BOND ANGLE DIHED IMPRP ELECT VDW BOUNDARY MISC KINETIC TOTAL TEMP POTENTIAL TOTALAVG TEMPAVG PRESSURE GPRESSURE VOLUME PRESSAVG GPRESSAVG
ENERGY: 0 4.3417 9.1097 7.5600 0.0000 -10732.2236 1452.5396 0.0000 0.0000 1786.3587 -7472.3139 303.2849 -9258.6726 -7472.3139 303.2849 -96.9041 -8.2848 30352.7289 -96.9041 -8.2848
ENERGY: 300000 3.9910 12.2576 7.3387 0.0000 -10702.5072 1504.6084 0.0000 0.0000 1744.6059 -7429.7056 296.1962 -9174.3115 -7460.3801 300.3120 560.5977 610.6766 30495.4029 25.5127 94.6693
ENERGY: 600000 1.8940 14.9701 7.4276 0.0000 -10715.7847 1507.3299 0.0000 0.0000 1750.7282 -7433.4349 297.2357 -9184.1630 -7453.6097 299.9241 667.3929 710.5665 30353.8283 -21.3925 45.7537
ENERGY: 900000 3.2884 12.4894 6.5375 0.0000 -10766.3532 1515.4278 0.0000 0.0000 1745.7029 -7482.9073 296.3825 -9228.6102 -7447.9016 299.8038 551.0031 564.0232 30218.6347 -74.4165 -3.4636
ENERGY: 1200000 6.7703 5.7012 12.0003 0.0000 -10684.3984 1480.9265 0.0000 0.0000 1824.4275 -7354.5726 309.7482 -9179.0001 -7421.1587 301.4261 374.1326 487.9133 30217.7584 -90.8242 -16.2675
ENERGY: 1500000 4.0319 12.3387 7.3498 0.0000 -10693.7627 1497.0746 0.0000 0.0000 1776.5239 -7396.4438 301.6152 -9172.9676 -7426.4117 301.0174 501.0220 592.2500 30423.9670 12.5008 90.2719
TCL: Running FEP window   7: Lambda1 0.3    Lambda2 0.35   [dLambda 0.04999999999999999]
TCL: Setting parameter firsttimestep to 0
TCL: Setting parameter alchLambda to 0.3
Info: NONBONDED TABLE R-SQUARED SPACING: 0.0625
Info: NONBONDED TABLE SIZE: 705 POINTS
TCL: Setting parameter alchLambda2 to 0.35
Info: NONBONDED TABLE R-SQUARED SPACING: 0.0625
Info: NONBONDED TABLE SIZE: 705 POINTS
TCL: Running for 1500000 steps
ETITLE: TS BOND ANGLE DIHED IMPRP ELECT VDW BOUNDARY MISC KINETIC TOTAL TEMP POTENTIAL TOTALAVG TEMPAVG PRESSURE GPRESSURE VOLUME PRESSAVG GPRESSAVG
ENERGY: 0 4.0319 12.3387 7.3498 0.0000 -10693.7611 1496.8008 0.0000 0.0000 1775.6364 -7397.6035 301.4645 -9173.2399 -7397.6035 301.4645 497.1436 600.4545 30423.9670 497.1436 600.4545
ENERGY: 300000 9.9069 9.1957 9.2825 0.0000 -10733.1275 1475.2532 0.0000 0.0000 1769.2950 -7460.1943 300.3879 -9229.4893 -7432.6450 296.7105 304.1249 296.9659 29938.0667 153.2006 219.9641
ENERGY: 600000 5.6584 7.0938 7.9332 0.0000 -10834.2062 1533.0620 0.0000 0.0000 1811.3082 -7469.1507 307.5208 -9280.4589 -7460.2190 296.1208 680.5905 717.2870 30126.4936 304.5395 365.5669
ENERGY: 900000 8.1023 9.0947 7.6896 0.0000 -10772.0994 1479.4040 0.0000 0.0000 1747.5103 -7520.2985 296.6893 -9267.8088 -7450.0629 298.0279 -86.3057 -8.4616 30392.5145 316.8708 382.3314
ENERGY: 1200000 3.0073 9.0545 7.1758 0.0000 -10583.7505 1371.2498 0.0000 0.0000 1751.0610 -7442.2021 297.2922 -9193.2632 -7446.3093 298.2381 -316.1204 -232.2510 30212.5763 177.6136 251.5262
ENERGY: 1500000 4.6969 7.4223 6.1713 0.0000 -10682.0382 1470.7895 0.0000 0.0000 1721.3543 -7471.6039 292.2486 -9192.9582 -7451.2935 298.2019 696.6415 759.0520 30131.8032 227.0214 296.6738
TCL: Running FEP window   8: Lambda1 0.35   Lambda2 0.39999999999999997 [dLambda 0.04999999999999999]
TCL: Setting parameter firsttimestep to 0
TCL: Setting parameter alchLambda to 0.35
Info: NONBONDED TABLE R-SQUARED SPACING: 0.0625
Info: NONBONDED TABLE SIZE: 705 POINTS
TCL: Setting parameter alchLambda2 to 0.39999999999999997
Info: NONBONDED TABLE R-SQUARED SPACING: 0.0625
Info: NONBONDED TABLE SIZE: 705 POINTS
TCL: Running for 1500000 steps
ETITLE: TS BOND ANGLE DIHED IMPRP ELECT VDW BOUNDARY MISC KINETIC TOTAL TEMP POTENTIAL TOTALAVG TEMPAVG PRESSURE GPRESSURE VOLUME PRESSAVG GPRESSAVG
ENERGY: 0 4.6969 7.4223 6.1713 0.0000 -10682.0361 1471.5492 0.0000 0.0000 1720.4933 -7471.7031 292.1024 -9192.1965 -7471.7031 292.1024 683.1128 770.2158 30131.8032 683.1128 770.2158
ENERGY: 300000 5.2346 8.5976 9.5764 0.0000 -10673.6555 1459.2743 0.0000 0.0000 1787.5803 -7403.3922 303.4924 -9190.9725 -7452.5352 297.1389 230.0721 261.3012 30151.2416 124.9306 192.7028
ENERGY: 600000 6.4193 7.9030 6.8964 0.0000 -10702.1823 1481.4650 0.0000 0.0000 1787.1576 -7412.3410 303.4206 -9199.4986 -7449.3626 298.9311 524.5280 582.8178 29946.0011 181.3309 254.4561
ENERGY: 900000 3.0176 11.1908 8.7806 0.0000 -10747.4638 1468.5166 0.0000 0.0000 1748.9407 -7507.0176 296.9322 -9255.9583 -7455.5664 299.2347 -55.3775 63.6883 30524.0873 100.7743 176.1564
ENERGY: 1200000 4.4551 8.0521 6.3311 0.0000 -10687.0731 1486.0916 0.0000 0.0000 1809.0688 -7373.0744 307.1406 -9182.1432 -7448.2083 300.3406 385.1280 511.4327 30293.3913 185.5605 257.4594
ENERGY: 1500000 6.3313 13.2537 4.4578 0.0000 -10661.6448 1427.6272 0.0000 0.0000 1807.5128 -7402.4620 306.8765 -9209.9748 -7440.0459 300.5184 -319.2115 -275.9808 30580.8035 110.2357 179.9826
TCL: Running FEP window   9: Lambda1 0.39999999999999997 Lambda2 0.44999999999999996 [dLambda 0.04999999999999999]
TCL: Setting parameter firsttimestep to 0
TCL: Setting parameter alchLambda to 0.39999999999999997
Info: NONBONDED TABLE R-SQUARED SPACING: 0.0625
Info: NONBONDED TABLE SIZE: 705 POINTS
TCL: Setting parameter alchLambda2 to 0.44999999999999996
Info: NONBONDED TABLE R-SQUARED SPACING: 0.0625
Info: NONBONDED TABLE SIZE: 705 POINTS
TCL: Running for 1500000 steps
ETITLE: TS BOND ANGLE DIHED IMPRP ELECT VDW BOUNDARY MISC KINETIC TOTAL TEMP POTENTIAL TOTALAVG TEMPAVG PRESSURE GPRESSURE VOLUME PRESSAVG GPRESSAVG
ENERGY: 0 6.3313 13.2537 4.4578 0.0000 -10661.6452 1428.0011 0.0000 0.0000 1806.6195 -7402.9818 306.7248 -9209.6013 -7402.9818 306.7248 -336.5855 -264.8301 30580.8035 -336.5855 -264.8301
ENERGY: 300000 6.3654 9.5080 6.5270 0.0000 -10629.5476 1396.6924 0.0000 0.0000 1740.0976 -7470.3572 295.4308 -9210.4548 -7432.2442 299.6941 -427.8678 -378.9081 30372.3159 -143.8558 -61.0967
ENERGY: 600000 3.1020 6.8671 11.2618 0.0000 -10694.0721 1451.2062 0.0000 0.0000 1885.6010 -7336.0338 320.1341 -9221.6349 -7394.5388 302.9504 -23.8841 56.7751 30575.6163 -68.2062 7.5203
ENERGY: 900000 6.7138 12.4671 10.1101 0.0000 -10548.6726 1436.2508 0.0000 0.0000 1745.6137 -7337.5171 296.3673 -9083.1308 -7406.0844 301.2456 394.5669 390.9447 30576.4149 -17.6560 47.4591
ENERGY: 1200000 5.7447 8.5744 7.7415 0.0000 -10662.8051 1429.2101 0.0000 0.0000 1773.6744 -7437.8601 301.1314 -9211.5344 -7422.6395 300.2339 -165.8149 -87.4628 30536.4151 -78.2789 -13.7896
ENERGY: 1500000 7.3267 9.5693 6.2096 0.0000 -10775.1256 1467.7450 0.0000 0.0000 1760.4719 -7523.8031 298.8899 -9284.2750 -7437.7895 299.2111 -44.9288 85.1215 30122.9785 -114.2664 -44.8852
TCL: Running FEP window  10: Lambda1 0.44999999999999996 Lambda2 0.49999999999999994 [dLambda 0.04999999999999999]
TCL: Setting parameter firsttimestep to 0
TCL: Setting parameter alchLambda to 0.44999999999999996
Info: NONBONDED TABLE R-SQUARED SPACING: 0.0625
Info: NONBONDED TABLE SIZE: 705 POINTS
TCL: Setting parameter alchLambda2 to 0.49999999999999994
Info: NONBONDED TABLE R-SQUARED SPACING: 0.0625
Info: NONBONDED TABLE SIZE: 705 POINTS
TCL: Running for 1500000 steps
ETITLE: TS BOND ANGLE DIHED IMPRP ELECT VDW BOUNDARY MISC KINETIC TOTAL TEMP POTENTIAL TOTALAVG TEMPAVG PRESSURE GPRESSURE VOLUME PRESSAVG GPRESSAVG
ENERGY: 0 7.3267 9.5693 6.2096 0.0000 -10775.1263 1468.1139 0.0000 0.0000 1759.5441 -7524.3628 298.7324 -9283.9068 -7524.3628 298.7324 -13.3056 97.0837 30122.9785 -13.3056 97.0837
ENERGY: 300000 8.1307 7.2799 7.5090 0.0000 -10562.0008 1322.9331 0.0000 0.0000 1715.0502 -7501.0980 291.1783 -9216.1482 -7467.2998 296.6469 -858.1329 -781.6540 30096.7289 -385.2433 -283.9126
ENERGY: 600000 3.4670 9.4619 5.3388 0.0000 -10788.7914 1501.7591 0.0000 0.0000 1767.5619 -7501.2027 300.0937 -9268.7646 -7454.4097 299.1981 30.5520 131.1886 30512.0690 -330.8402 -236.2831
ENERGY: 900000 6.2342 9.3755 8.7676 0.0000 -10642.7072 1399.1168 0.0000 0.0000 1739.1433 -7480.0697 295.2688 -9219.2130 -7454.4300 299.3728 -506.5489 -404.1674 30547.4237 -316.2833 -225.3476
ENERGY: 1200000 4.7617 10.0782 10.4222 0.0000 -10712.2408 1443.6129 0.0000 0.0000 1717.2435 -7526.1224 291.5507 -9243.3658 -7463.9910 298.5036 -192.5924 -120.6169 30654.5775 -382.4812 -289.9585
ENERGY: 1500000 7.5195 8.2173 6.4837 0.0000 -10592.6477 1321.9452 0.0000 0.0000 1807.3390 -7441.1430 306.8469 -9248.4820 -7456.0673 300.3096 -1131.9395 -1080.3452 30582.8405 -368.3947 -277.5660
TCL: Running FEP window  11: Lambda1 0.49999999999999994 Lambda2 0.5499999999999999 [dLambda 0.04999999999999999]
TCL: Setting parameter firsttimestep to 0
TCL: Setting parameter alchLambda to 0.49999999999999994
Info: NONBONDED TABLE R-SQUARED SPACING: 0.0625
Info: NONBONDED TABLE SIZE: 705 POINTS
TCL: Setting parameter alchLambda2 to 0.5499999999999999
Info: NONBONDED TABLE R-SQUARED SPACING: 0.0625
Info: NONBONDED TABLE SIZE: 705 POINTS
TCL: Running for 1500000 steps
ETITLE: TS BOND ANGLE DIHED IMPRP ELECT VDW BOUNDARY MISC KINETIC TOTAL TEMP POTENTIAL TOTALAVG TEMPAVG PRESSURE GPRESSURE VOLUME PRESSAVG GPRESSAVG
ENERGY: 0 7.5196 8.2173 6.4837 0.0000 -10592.6469 1322.2277 0.0000 0.0000 1806.4548 -7441.7439 306.6968 -9248.1986 -7441.7439 306.6968 -1143.7156 -1069.4956 30582.8405 -1143.7156 -1069.4956
ENERGY: 300000 2.9722 5.5152 11.5284 0.0000 -10642.4414 1459.0650 0.0000 0.0000 1803.3754 -7359.9853 306.1740 -9163.3606 -7437.3370 302.0396 198.4443 287.8940 30842.1973 -409.1959 -320.2016
ENERGY: 600000 4.6092 7.9273 10.0791 0.0000 -10530.2152 1366.9162 0.0000 0.0000 1778.7384 -7361.9450 301.9912 -9140.6834 -7438.2610 301.3354 -531.5502 -474.9963 30881.3349 -235.3027 -162.6587
ENERGY: 900000 3.4881 11.6123 5.2484 0.0000 -10690.1952 1433.3114 0.0000 0.0000 1772.1105 -7464.4244 300.8659 -9236.5350 -7429.1993 301.2649 -424.9822 -312.2991 30564.3167 -325.1851 -250.3901
ENERGY: 1200000 4.6018 5.0561 10.0051 0.0000 -10708.7899 1437.1617 0.0000 0.0000 1803.3789 -7448.5862 306.1746 -9251.9650 -7417.2750 302.3706 345.9363 385.5156 29840.2335 -189.8033 -118.5398
ENERGY: 1500000 3.3543 14.9736 6.8013 0.0000 -10700.5822 1474.8328 0.0000 0.0000 1710.9167 -7489.7035 290.4765 -9200.6202 -7426.2822 301.0419 72.0054 163.7882 30591.5441 -189.4652 -116.7181
TCL: Running FEP window  12: Lambda1 0.5499999999999999 Lambda2 0.6    [dLambda 0.050000000000000044]
TCL: Setting parameter firsttimestep to 0
TCL: Setting parameter alchLambda to 0.5499999999999999
Info: NONBONDED TABLE R-SQUARED SPACING: 0.0625
Info: NONBONDED TABLE SIZE: 705 POINTS
TCL: Setting parameter alchLambda2 to 0.6
Info: NONBONDED TABLE R-SQUARED SPACING: 0.0625
Info: NONBONDED TABLE SIZE: 705 POINTS
TCL: Running for 1500000 steps
ETITLE: TS BOND ANGLE DIHED IMPRP ELECT VDW BOUNDARY MISC KINETIC TOTAL TEMP POTENTIAL TOTALAVG TEMPAVG PRESSURE GPRESSURE VOLUME PRESSAVG GPRESSAVG
ENERGY: 0 3.3543 14.9736 6.8013 0.0000 -10700.7577 1474.7183 0.0000 0.0000 1710.0207 -7490.8894 290.3244 -9200.9101 -7490.8894 290.3244 96.2868 174.4859 30591.5441 96.2868 174.4859
ENERGY: 300000 7.5466 13.6831 6.6180 0.0000 -10725.7551 1439.6357 0.0000 0.0000 1802.4412 -7455.8305 306.0154 -9258.2717 -7480.2485 295.9011 -94.4489 -14.0852 30374.4464 38.9887 85.0107
ENERGY: 600000 8.2258 8.8184 3.8387 0.0000 -10460.7365 1360.7855 0.0000 0.0000 1808.6838 -7270.3843 307.0753 -9079.0681 -7425.5893 297.8002 -680.2818 -606.5201 31194.9055 -205.6386 -155.0532
ENERGY: 900000 3.2537 7.9222 11.1719 0.0000 -10807.6054 1501.3044 0.0000 0.0000 1789.9852 -7493.9680 303.9006 -9283.9532 -7438.7107 297.9082 464.5922 594.1368 30186.6760 -18.9281 42.8892
ENERGY: 1200000 6.2398 10.3120 11.1021 0.0000 -10846.2219 1580.2160 0.0000 0.0000 1777.3139 -7461.0380 301.7493 -9238.3520 -7438.6031 297.4383 1239.7907 1294.8922 29985.7250 66.1676 125.5185
ENERGY: 1500000 4.3244 5.7216 8.8929 0.0000 -10766.0768 1512.7965 0.0000 0.0000 1727.5273 -7506.8141 293.2967 -9234.3414 -7442.5231 298.0861 667.6799 752.8830 29827.6839 150.1040 209.5057
TCL: Running FEP window  13: Lambda1 0.6    Lambda2 0.65   [dLambda 0.050000000000000044]
TCL: Setting parameter firsttimestep to 0
TCL: Setting parameter alchLambda to 0.6
Info: NONBONDED TABLE R-SQUARED SPACING: 0.0625
Info: NONBONDED TABLE SIZE: 705 POINTS
TCL: Setting parameter alchLambda2 to 0.65
Info: NONBONDED TABLE R-SQUARED SPACING: 0.0625
Info: NONBONDED TABLE SIZE: 705 POINTS
TCL: Running for 1500000 steps
ETITLE: TS BOND ANGLE DIHED IMPRP ELECT VDW BOUNDARY MISC KINETIC TOTAL TEMP POTENTIAL TOTALAVG TEMPAVG PRESSURE GPRESSURE VOLUME PRESSAVG GPRESSAVG
ENERGY: 0 4.3244 5.7216 8.8929 0.0000 -10766.7781 1513.0374 0.0000 0.0000 1726.6228 -7508.1790 293.1431 -9234.8018 -7508.1790 293.1431 687.7524 765.9046 29827.6839 687.7524 765.9046
ENERGY: 300000 3.8465 9.2731 8.0900 0.0000 -10730.2584 1493.8864 0.0000 0.0000 1796.9692 -7418.1931 305.0864 -9215.1623 -7469.3345 299.1936 592.4042 705.0364 30309.0118 285.6684 382.3729
ENERGY: 600000 8.3803 10.7617 5.2372 0.0000 -10557.7785 1343.1141 0.0000 0.0000 1798.3341 -7391.9511 305.3181 -9190.2852 -7441.1390 300.7519 -777.5768 -763.4816 30483.1505 91.5043 166.9008
ENERGY: 900000 2.6341 6.3430 7.4165 0.0000 -10613.9118 1376.4122 0.0000 0.0000 1762.1553 -7458.9508 299.1757 -9221.1061 -7447.0013 300.2839 -426.1326 -423.9080 30735.2346 -25.9143 36.7109
ENERGY: 1200000 3.2393 10.6711 6.3668 0.0000 -10603.9399 1351.7731 0.0000 0.0000 1776.5926 -7455.2970 301.6269 -9231.8896 -7440.9534 299.8548 -964.9040 -828.9158 30889.3111 -156.2180 -89.1628
ENERGY: 1500000 3.2167 6.8746 7.0620 0.0000 -10702.7336 1418.6657 0.0000 0.0000 1772.1573 -7494.7573 300.8739 -9266.9146 -7433.4746 300.6734 -340.4232 -305.7684 30585.9503 -138.8587 -71.4351
TCL: Running FEP window  14: Lambda1 0.65   Lambda2 0.7000000000000001 [dLambda 0.050000000000000044]
TCL: Setting parameter firsttimestep to 0
TCL: Setting parameter alchLambda to 0.65
Info: NONBONDED TABLE R-SQUARED SPACING: 0.0625
Info: NONBONDED TABLE SIZE: 705 POINTS
TCL: Setting parameter alchLambda2 to 0.7000000000000001
Info: NONBONDED TABLE R-SQUARED SPACING: 0.0625
Info: NONBONDED TABLE SIZE: 705 POINTS
TCL: Running for 1500000 steps
ETITLE: TS BOND ANGLE DIHED IMPRP ELECT VDW BOUNDARY MISC KINETIC TOTAL TEMP POTENTIAL TOTALAVG TEMPAVG PRESSURE GPRESSURE VOLUME PRESSAVG GPRESSAVG
ENERGY: 0 3.2167 6.8746 7.0620 0.0000 -10703.3124 1418.9501 0.0000 0.0000 1771.2724 -7495.9367 300.7236 -9267.2091 -7495.9367 300.7236 -397.1268 -295.7145 30585.9503 -397.1268 -295.7145
ENERGY: 300000 6.1598 11.4637 8.3454 0.0000 -10702.9859 1457.2925 0.0000 0.0000 1742.8152 -7476.9093 295.8922 -9219.7245 -7461.8515 301.6385 179.8847 259.2140 30274.0161 2.2597 76.0654
ENERGY: 600000 2.5272 7.9021 5.6531 0.0000 -10771.3939 1447.1797 0.0000 0.0000 1785.8961 -7522.2356 303.2064 -9308.1317 -7463.9790 302.1836 -127.0164 -26.7482 30099.3908 34.8115 110.2589
ENERGY: 900000 7.2250 6.6615 8.3744 0.0000 -10639.2236 1366.9717 0.0000 0.0000 1764.4484 -7485.5426 299.5651 -9249.9910 -7456.4481 303.0065 -669.0826 -598.3204 30191.4736 27.1044 90.6878
ENERGY: 1200000 4.9916 9.7098 11.9208 0.0000 -10605.8575 1381.9406 0.0000 0.0000 1750.9803 -7446.3144 297.2785 -9197.2947 -7457.3403 302.8215 -542.1782 -471.2780 30919.8115 -86.8007 -25.1526
ENERGY: 1500000 5.8306 11.0960 11.2982 0.0000 -10656.0942 1456.2627 0.0000 0.0000 1748.8137 -7422.7930 296.9106 -9171.6066 -7444.6946 303.2537 193.6716 283.1712 30266.2404 -33.3849 33.2542
TCL: Running FEP window  15: Lambda1 0.7000000000000001 Lambda2 0.7500000000000001 [dLambda 0.050000000000000044]
TCL: Setting parameter firsttimestep to 0
TCL: Setting parameter alchLambda to 0.7000000000000001
Info: NONBONDED TABLE R-SQUARED SPACING: 0.0625
Info: NONBONDED TABLE SIZE: 705 POINTS
TCL: Setting parameter alchLambda2 to 0.7500000000000001
Info: NONBONDED TABLE R-SQUARED SPACING: 0.0625
Info: NONBONDED TABLE SIZE: 705 POINTS
TCL: Running for 1500000 steps
ETITLE: TS BOND ANGLE DIHED IMPRP ELECT VDW BOUNDARY MISC KINETIC TOTAL TEMP POTENTIAL TOTALAVG TEMPAVG PRESSURE GPRESSURE VOLUME PRESSAVG GPRESSAVG
ENERGY: 0 5.8306 11.0960 11.2982 0.0000 -10657.3362 1458.3823 0.0000 0.0000 1747.9348 -7422.7943 296.7614 -9170.7291 -7422.7943 296.7614 236.6240 317.4842 30266.2404 236.6240 317.4842
ENERGY: 300000 3.3496 9.3440 8.1684 0.0000 -10657.6022 1345.5973 0.0000 0.0000 1817.9964 -7473.1464 308.6564 -9291.1429 -7459.8833 302.2268 -567.3612 -571.1284 30100.1063 145.8578 170.3107
ENERGY: 600000 10.6504 8.7333 10.7945 0.0000 -10728.4512 1431.0686 0.0000 0.0000 1812.3856 -7454.8188 307.7038 -9267.2044 -7459.5639 302.6787 -245.7806 -184.1356 30464.4036 -133.7887 -95.8285
ENERGY: 900000 2.1522 10.8638 3.9452 0.0000 -10661.5663 1400.7155 0.0000 0.0000 1734.7321 -7509.1574 294.5199 -9243.8895 -7454.1519 301.6628 -437.3316 -329.1912 30413.7741 -95.0917 -40.3946
ENERGY: 1200000 2.1111 11.6460 10.0276 0.0000 -10743.4900 1519.0824 0.0000 0.0000 1798.5282 -7402.0947 305.3511 -9200.6229 -7439.5609 302.3181 773.0940 850.5688 30304.6115 -5.0854 48.2900
ENERGY: 1500000 7.3201 7.0933 5.5747 0.0000 -10714.9080 1441.5361 0.0000 0.0000 1798.3283 -7455.0556 305.3171 -9253.3839 -7442.8949 302.7585 -48.0584 35.3970 30656.5727 -44.7068 21.1697
TCL: Running FEP window  16: Lambda1 0.7500000000000001 Lambda2 0.8000000000000002 [dLambda 0.050000000000000044]
TCL: Setting parameter firsttimestep to 0
TCL: Setting parameter alchLambda to 0.7500000000000001
Info: NONBONDED TABLE R-SQUARED SPACING: 0.0625
Info: NONBONDED TABLE SIZE: 705 POINTS
TCL: Setting parameter alchLambda2 to 0.8000000000000002
Info: NONBONDED TABLE R-SQUARED SPACING: 0.0625
Info: NONBONDED TABLE SIZE: 705 POINTS
TCL: Running for 1500000 steps
ETITLE: TS BOND ANGLE DIHED IMPRP ELECT VDW BOUNDARY MISC KINETIC TOTAL TEMP POTENTIAL TOTALAVG TEMPAVG PRESSURE GPRESSURE VOLUME PRESSAVG GPRESSAVG
ENERGY: 0 7.3201 7.0933 5.5747 0.0000 -10715.6550 1441.9047 0.0000 0.0000 1797.4479 -7456.3144 305.1677 -9253.7623 -7456.3144 305.1677 -48.5686 50.4005 30656.5727 -48.5686 50.4005
ENERGY: 300000 5.4126 8.2261 7.4363 0.0000 -10812.9060 1516.5853 0.0000 0.0000 1740.9546 -7534.2912 295.5763 -9275.2458 -7464.8617 300.9421 658.3443 748.2401 30240.6311 65.6590 145.4384
ENERGY: 600000 6.0590 11.2649 9.5030 0.0000 -10707.7158 1479.8421 0.0000 0.0000 1766.1594 -7434.8874 299.8555 -9201.0468 -7455.4340 299.9281 84.5353 218.6357 30499.2341 87.1904 159.0973
ENERGY: 900000 4.2893 7.5553 11.0704 0.0000 -10797.1353 1462.2297 0.0000 0.0000 1751.5995 -7560.3910 297.3836 -9311.9906 -7463.9962 299.8759 89.9530 146.1254 30325.0248 254.1314 316.2619
ENERGY: 1200000 6.3201 6.0237 5.1355 0.0000 -10653.3114 1433.3931 0.0000 0.0000 1842.9646 -7359.4743 312.8954 -9202.4389 -7455.5452 301.3319 -137.4249 -104.5336 30952.8977 181.8044 246.3814
ENERGY: 1500000 4.9978 7.7117 7.6168 0.0000 -10709.9156 1451.6491 0.0000 0.0000 1770.4952 -7467.4450 300.5917 -9237.9402 -7455.5296 300.6649 150.7814 182.1920 30050.9360 156.0908 219.7686
TCL: Running FEP window  17: Lambda1 0.8000000000000002 Lambda2 0.8500000000000002 [dLambda 0.050000000000000044]
TCL: Setting parameter firsttimestep to 0
TCL: Setting parameter alchLambda to 0.8000000000000002
Info: NONBONDED TABLE R-SQUARED SPACING: 0.0625
Info: NONBONDED TABLE SIZE: 705 POINTS
TCL: Setting parameter alchLambda2 to 0.8500000000000002
Info: NONBONDED TABLE R-SQUARED SPACING: 0.0625
Info: NONBONDED TABLE SIZE: 705 POINTS
TCL: Running for 1500000 steps
ETITLE: TS BOND ANGLE DIHED IMPRP ELECT VDW BOUNDARY MISC KINETIC TOTAL TEMP POTENTIAL TOTALAVG TEMPAVG PRESSURE GPRESSURE VOLUME PRESSAVG GPRESSAVG
ENERGY: 0 4.9978 7.7117 7.6168 0.0000 -10711.6667 1451.1932 0.0000 0.0000 1769.5709 -7470.5762 300.4347 -9240.1471 -7470.5762 300.4347 96.9589 187.2468 30050.9360 96.9589 187.2468
ENERGY: 300000 3.4489 6.8721 11.1184 0.0000 -10732.9589 1410.5077 0.0000 0.0000 1778.7961 -7522.2156 302.0010 -9301.0117 -7511.2520 296.4624 -633.9291 -615.1349 30599.4374 -359.2775 -309.0459
ENERGY: 600000 4.8709 15.3363 7.1597 0.0000 -10700.7969 1435.8347 0.0000 0.0000 1761.3910 -7476.2044 299.0460 -9237.5954 -7486.2371 299.0775 135.6154 209.0725 29893.6819 -192.8179 -130.3182
ENERGY: 900000 5.5527 5.5960 7.9885 0.0000 -10718.0243 1397.7302 0.0000 0.0000 1827.4756 -7473.6813 310.2657 -9301.1568 -7464.8010 301.9481 -95.8811 0.8153 29812.1891 -75.3091 -9.5619
ENERGY: 1200000 4.0273 8.4540 7.6132 0.0000 -10678.2877 1432.9356 0.0000 0.0000 1829.4800 -7395.7777 310.6060 -9225.2577 -7451.7698 302.5395 -39.5416 50.3717 30672.0161 -66.7657 -0.3676
ENERGY: 1500000 6.1073 8.8245 8.5740 0.0000 -10655.3965 1466.3326 0.0000 0.0000 1791.7349 -7373.8232 304.1977 -9165.5580 -7447.8436 302.9044 346.9404 412.2468 30787.1316 -39.9885 26.3116
TCL: Running FEP window  18: Lambda1 0.8500000000000002 Lambda2 0.9000000000000002 [dLambda 0.050000000000000044]
TCL: Setting parameter firsttimestep to 0
TCL: Setting parameter alchLambda to 0.8500000000000002
Info: NONBONDED TABLE R-SQUARED SPACING: 0.0625
Info: NONBONDED TABLE SIZE: 705 POINTS
TCL: Setting parameter alchLambda2 to 0.9000000000000002
Info: NONBONDED TABLE R-SQUARED SPACING: 0.0625
Info: NONBONDED TABLE SIZE: 705 POINTS
TCL: Running for 1500000 steps
ETITLE: TS BOND ANGLE DIHED IMPRP ELECT VDW BOUNDARY MISC KINETIC TOTAL TEMP POTENTIAL TOTALAVG TEMPAVG PRESSURE GPRESSURE VOLUME PRESSAVG GPRESSAVG
ENERGY: 0 6.1073 8.8245 8.5740 0.0000 -10658.1624 1467.3892 0.0000 0.0000 1790.8537 -7376.4138 304.0481 -9167.2674 -7376.4138 304.0481 358.8303 435.4809 30787.1316 358.8303 435.4809
ENERGY: 300000 2.9639 6.0540 8.8844 0.0000 -10640.9306 1399.7283 0.0000 0.0000 1759.4669 -7463.8331 298.7193 -9223.3001 -7438.2733 301.0035 -285.9452 -208.6295 30685.2300 10.8337 70.8167
ENERGY: 600000 5.7444 7.8511 6.4671 0.0000 -10629.6722 1430.2431 0.0000 0.0000 1768.5951 -7410.7714 300.2691 -9179.3665 -7426.1245 300.4742 9.8715 18.8137 30736.8116 12.6999 70.3185
ENERGY: 900000 6.3427 7.9365 11.0934 0.0000 -10641.0432 1423.6467 0.0000 0.0000 1778.2391 -7413.7847 301.9064 -9192.0238 -7435.0889 299.5622 105.4306 131.5887 30433.5719 39.3983 89.6183
ENERGY: 1200000 6.2304 5.8310 7.4169 0.0000 -10676.6353 1423.1832 0.0000 0.0000 1705.4333 -7528.5405 289.5456 -9233.9738 -7435.1020 299.3595 -103.4144 -38.1258 30483.6870 93.4029 147.5513
ENERGY: 1500000 5.4872 5.0491 5.3322 0.0000 -10497.2377 1299.0379 0.0000 0.0000 1798.5741 -7383.7572 305.3589 -9182.3312 -7424.3209 300.4848 -1019.3000 -896.6862 30616.6172 -44.8518 14.8112
TCL: Running FEP window  19: Lambda1 0.9000000000000002 Lambda2 0.9500000000000003 [dLambda 0.050000000000000044]
TCL: Setting parameter firsttimestep to 0
TCL: Setting parameter alchLambda to 0.9000000000000002
Info: NONBONDED TABLE R-SQUARED SPACING: 0.0625
Info: NONBONDED TABLE SIZE: 705 POINTS
TCL: Setting parameter alchLambda2 to 0.9500000000000003
Info: NONBONDED TABLE R-SQUARED SPACING: 0.0625
Info: NONBONDED TABLE SIZE: 705 POINTS
TCL: Running for 1500000 steps
ETITLE: TS BOND ANGLE DIHED IMPRP ELECT VDW BOUNDARY MISC KINETIC TOTAL TEMP POTENTIAL TOTALAVG TEMPAVG PRESSURE GPRESSURE VOLUME PRESSAVG GPRESSAVG
ENERGY: 0 5.4872 5.0491 5.3322 0.0000 -10498.9904 1299.4284 0.0000 0.0000 1797.6799 -7386.0136 305.2070 -9183.6935 -7386.0136 305.2070 -972.2829 -880.2967 30616.6172 -972.2829 -880.2967
ENERGY: 300000 4.6445 7.6851 7.0713 0.0000 -10621.3693 1378.2337 0.0000 0.0000 1836.3518 -7387.3829 311.7727 -9223.7347 -7433.3051 305.8084 -580.7921 -562.4392 30765.8494 -521.5467 -491.0681
ENERGY: 600000 4.8733 7.9319 7.3365 0.0000 -10747.3272 1499.9377 0.0000 0.0000 1770.5394 -7456.7083 300.5992 -9227.2477 -7441.3897 302.4087 386.1558 458.1814 30342.6512 -208.1391 -166.3248
ENERGY: 900000 7.7867 9.8506 3.9096 0.0000 -10750.2679 1456.6905 0.0000 0.0000 1802.9510 -7469.0794 306.1020 -9272.0304 -7420.1012 303.8231 46.5913 97.2864 30201.0855 -233.8618 -190.4621
ENERGY: 1200000 4.0116 9.7769 6.7690 0.0000 -10639.8680 1436.0379 0.0000 0.0000 1820.6504 -7362.6220 309.1069 -9183.2725 -7418.0345 303.6131 326.8914 360.4255 30428.5453 -198.7938 -150.3993
ENERGY: 1500000 7.2702 8.1654 6.2414 0.0000 -10866.2611 1605.4800 0.0000 0.0000 1755.8484 -7483.2557 298.1050 -9239.1041 -7433.7400 302.3502 1257.7869 1288.9188 30320.4481 -29.2714 17.0044
TCL: Running FEP window  20: Lambda1 0.9500000000000003 Lambda2 1.0    [dLambda 0.04999999999999971]
TCL: Setting parameter firsttimestep to 0
TCL: Setting parameter alchLambda to 0.9500000000000003
Info: NONBONDED TABLE R-SQUARED SPACING: 0.0625
Info: NONBONDED TABLE SIZE: 705 POINTS
TCL: Setting parameter alchLambda2 to 1.0
Info: NONBONDED TABLE R-SQUARED SPACING: 0.0625
Info: NONBONDED TABLE SIZE: 705 POINTS
TCL: Running for 1500000 steps
ETITLE: TS BOND ANGLE DIHED IMPRP ELECT VDW BOUNDARY MISC KINETIC TOTAL TEMP POTENTIAL TOTALAVG TEMPAVG PRESSURE GPRESSURE VOLUME PRESSAVG GPRESSAVG
ENERGY: 0 7.2702 8.1654 6.2414 0.0000 -10868.9801 1607.1539 0.0000 0.0000 1754.9581 -7485.1910 297.9538 -9240.1492 -7485.1910 297.9538 1249.8446 1322.8119 30320.4481 1249.8446 1322.8119
ENERGY: 300000 3.7376 8.4665 4.4040 0.0000 -10659.9298 1375.9024 0.0000 0.0000 1725.1959 -7542.2234 292.9008 -9267.4193 -7482.5528 296.4623 -404.5459 -290.8462 30261.7630 458.2184 545.8715
ENERGY: 600000 4.9360 8.1128 9.6347 0.0000 -10548.2981 1408.0756 0.0000 0.0000 1791.7616 -7325.7775 304.2022 -9117.5391 -7454.3895 299.3455 -142.2126 -115.8783 30857.0238 257.4571 339.1736
ENERGY: 900000 3.9262 12.9864 13.9100 0.0000 -10760.5252 1517.9125 0.0000 0.0000 1752.3340 -7459.4560 297.5083 -9211.7901 -7471.0580 298.1315 640.7263 722.1762 30347.9488 175.3369 257.4007
ENERGY: 1200000 5.4712 7.5910 12.9529 0.0000 -10485.8311 1334.2597 0.0000 0.0000 1781.5055 -7344.0509 302.4610 -9125.5565 -7454.7595 298.8119 -748.0129 -679.3606 30875.5027 70.6276 144.1141
ENERGY: 1500000 2.6766 5.4140 12.2243 0.0000 -10722.7357 1407.4759 0.0000 0.0000 1719.5093 -7575.4356 291.9354 -9294.9449 -7459.6677 298.6266 -258.6290 -269.4071 30156.9656 32.0535 96.4197
TCL: Exiting due to exit command.
