Info: SIMULATION PARAMETERS:
Info: TIMESTEP               2
Info: NUMBER OF STEPS        0
Info: STEPS PER CYCLE        10
Info: PERIODIC CELL BASIS 1  30.2673 0 0
Info: PERIODIC CELL BASIS 2  0 30.3142 0
Info: PERIODIC CELL BASIS 3  0 0 32.9111
Info: PERIODIC CELL CENTER   0 0 0
Info: WRAPPING WATERS AROUND PERIODIC BOUNDARIES ON OUTPUT.
Info: WRAPPING ALL CLUSTERS AROUND PERIODIC BOUNDARIES ON OUTPUT.
Info: FIRST LDB TIMESTEP     50
Info: LAST LDB TIMESTEP     -1
Info: HOM BACKGROUND SCALING 1
Info: PME BACKGROUND SCALING 1
Info: MIN ATOMS PER PATCH    40
Info: EMPTY PATCH LOAD       40 ATOMS
Info: VELOCITY FILE          mobley_3259411_equil.vel
Info: CENTER OF MASS MOVING INITIALLY? NO
Info: DIELECTRIC             1
Info: EXCLUDE                SCALED ONE-FOUR
Info: 1-4 ELECTROSTATICS SCALED BY 0.833333
Info: MODIFIED 1-4 VDW PARAMETERS WILL BE USED
Info: DCD FILENAME           mobley_3259411_prod.dcd
Info: DCD FREQUENCY          100000
Info: DCD FIRST STEP         100000
Info: DCD FILE WILL CONTAIN UNIT CELL DATA
Info: XST FILENAME           mobley_3259411_prod.xst
Info: XST FREQUENCY          100000
Info: NO VELOCITY DCD OUTPUT
Info: NO FORCE DCD OUTPUT
Info: OUTPUT FILENAME        mobley_3259411_prod
Info: BINARY OUTPUT FILES WILL BE USED
Info: RESTART FILENAME       mobley_3259411_prod.restart
Info: RESTART FREQUENCY      100000
Info: BINARY RESTART FILES WILL BE USED
Info: CUTOFF                 9
Info: PAIRLIST DISTANCE      11
Info: PAIRLIST SHRINK RATE   0.01
Info: PAIRLIST GROW RATE     0.01
Info: PAIRLIST TRIGGER       0.3
Info: PAIRLISTS PER CYCLE    2
Info: PAIRLISTS ENABLED
Info: MARGIN                 2
Info: HYDROGEN GROUP CUTOFF  2.5
Info: PATCH DIMENSION        15.5
Info: ENERGY OUTPUT STEPS    100000
Info: ENERGY EVALUATION STEPS    100000
Info: OUTPUT ENERGY PRECISION 4
Info: CROSSTERM ENERGY INCLUDED IN DIHEDRAL
Info: TIMING OUTPUT STEPS    1000000
Info: PRESSURE OUTPUT STEPS  100000
Info: ALCHEMICAL FEP ON
Info: FEP CURRENT LAMBDA VALUE     0
Info: FEP COMPARISON LAMBDA VALUE  0.05
Info: FEP INTRA-ALCHEMICAL NON-BONDED INTERACTIONS WILL BE RETAINED
Info: FEP INTRA-ALCHEMICAL BONDED INTERACTIONS WILL BE RETAINED
Info: FEP VDW SHIFTING COEFFICIENT 5
Info: FEP ELEC. ACTIVE FOR ANNIHILATED PARTICLES BETWEEN LAMBDA = 0 AND LAMBDA = 0.5
Info: FEP ELEC. ACTIVE FOR EXNIHILATED PARTICLES BETWEEN LAMBDA = 0.5 AND LAMBDA = 1
Info: FEP VDW ACTIVE FOR ANNIHILATED PARTICLES BETWEEN LAMBDA = 0 AND LAMBDA = 1
Info: FEP VDW ACTIVE FOR EXNIHILATED PARTICLES BETWEEN LAMBDA = 0 AND LAMBDA = 1
Info: FEP BOND ACTIVE FOR ANNIHILATED PARTICLES BETWEEN LAMBDA = 1 AND LAMBDA = 1
Info: FEP BOND ACTIVE FOR EXNIHILATED PARTICLES BETWEEN LAMBDA = 0 AND LAMBDA = 0
Info: LANGEVIN DYNAMICS ACTIVE
Info: LANGEVIN TEMPERATURE   300
Info: LANGEVIN USING BBK INTEGRATOR
Info: LANGEVIN DAMPING COEFFICIENT IS 1 INVERSE PS
Info: LANGEVIN DYNAMICS APPLIED TO HYDROGENS
Info: LANGEVIN PISTON PRESSURE CONTROL ACTIVE
Info:        TARGET PRESSURE IS 1.01325 BAR
Info:     OSCILLATION PERIOD IS 50 FS
Info:             DECAY TIME IS 25 FS
Info:     PISTON TEMPERATURE IS 300 K
Info:       PRESSURE CONTROL IS GROUP-BASED
Info:    INITIAL STRAIN RATE IS 0.000198573 0.000198573 0.000198573
Info:       CELL FLUCTUATION IS ISOTROPIC
Info: PARTICLE MESH EWALD (PME) ACTIVE
Info: PME TOLERANCE               1e-06
Info: PME EWALD COEFFICIENT       0.348832
Info: PME INTERPOLATION ORDER     4
Info: PME GRID DIMENSIONS         32 32 36
Info: PME MAXIMUM GRID SPACING    1
Info: PME CALCULATION WILL BE PERFORMED ON GPU
Info: FULL ELECTROSTATIC EVALUATION FREQUENCY      2
Info: USING VERLET I (r-RESPA) MTS SCHEME.
Info: C1 SPLITTING OF LONG RANGE ELECTROSTATICS
Info: PLACING ATOMS IN PATCHES BY HYDROGEN GROUPS
Info: RIGID BONDS TO HYDROGEN : ALL
Info:         ERROR TOLERANCE : 1e-08
Info:          MAX ITERATIONS : 100
Info: RIGID WATER USING SETTLE ALGORITHM
Info: RANDOM NUMBER SEED     1743841148
Info: USE HYDROGEN BONDS?    NO
Info: Using AMBER format force field!
Info: AMBER PARM FILE        mobley_3259411.prmtop
Info: COORDINATE PDB         mobley_3259411.pdb
Info: Exclusions will be read from PARM file!
Info: SCNB (VDW SCALING)     2
Info: USING ARITHMETIC MEAN TO COMBINE L-J SIGMA PARAMETERS
Info: BINARY COORDINATES     mobley_3259411_equil.coor
Info: SUMMARY OF PARAMETERS:
Info: 6 BONDS
Info: 6 ANGLES
Info:   6 HARMONIC
Info:   0 COSINE-BASED
Info: 7 DIHEDRAL
Info: 0 IMPROPER
Info: 0 CROSSTERM
Info: 0 VDW
Info: 15 VDW_PAIRS
Info: 0 NBTHOLE_PAIRS
Info: To read alchdata from file: mobley_3259411.pdb
Info: To read alchflag data from column: 5
Info: STRUCTURE SUMMARY:
Info: 2945 ATOMS
Info: 2944 BONDS
Info: 21 ANGLES
Info: 39 DIHEDRALS
Info: 0 IMPROPERS
Info: 0 CROSSTERMS
Info: 2992 EXCLUSIONS
Info: 2939 RIGID BONDS
Info: ALCH: 0 ATOMS TO DISAPPEAR IN FINAL STATE
Info: ALCH: 14 ATOMS TO APPEAR IN FINAL STATE
Info: 5896 DEGREES OF FREEDOM
Info: 983 HYDROGEN GROUPS
Info: 3 ATOMS IN LARGEST HYDROGEN GROUP
Info: 983 MIGRATION GROUPS
Info: 3 ATOMS IN LARGEST MIGRATION GROUP
Info: TOTAL MASS = 17693.7 amu
Info: TOTAL CHARGE = 9.99272e-05 e
Info: MASS DENSITY = 0.973009 g/cm^3
Info: ATOM DENSITY = 0.0975267 atoms/A^3
Info: ADDED 0 IMPLICIT EXCLUSIONS
Info: NONBONDED TABLE R-SQUARED SPACING: 0.0625
Info: NONBONDED TABLE SIZE: 705 POINTS
Info: REMOVING COM VELOCITY 0.0472159 0.181515 -0.0914752
Info: Use 3D box decompostion in PME FFT.
Info: Updated CUDA force table with 4096 elements.
Info: Updated CUDA LJ table with 5 x 5 elements.
Info: Found 17 unique exclusion lists needing 36 bytes
TCL: Running for 1500000 steps
ETITLE: TS BOND ANGLE DIHED IMPRP ELECT VDW BOUNDARY MISC KINETIC TOTAL TEMP POTENTIAL TOTALAVG TEMPAVG PRESSURE GPRESSURE VOLUME PRESSAVG GPRESSAVG
ENERGY: 0 0.6722 11.6993 3.2929 0.0000 -10658.5758 1446.5061 0.0000 0.0000 1758.9478 -7437.4574 300.2520 -9196.4052 -7437.4574 300.2520 49.9918 133.0296 30196.8473 49.9918 133.0296
ENERGY: 300000 1.9048 4.1695 4.6768 0.0000 -10526.4327 1377.1065 0.0000 0.0000 1785.9636 -7352.6117 304.8636 -9138.5752 -7438.2361 299.0885 -157.1128 -20.8144 29974.3331 -8.7837 92.0181
ENERGY: 600000 2.0829 3.2850 6.1830 0.0000 -10705.3832 1410.8925 0.0000 0.0000 1728.7554 -7554.1843 295.0981 -9282.9398 -7447.3659 299.7071 -319.2912 -238.9722 29955.7782 -346.2086 -261.4190
ENERGY: 900000 1.9097 3.3215 3.7984 0.0000 -10693.9919 1422.6923 0.0000 0.0000 1798.6420 -7463.6279 307.0278 -9262.2699 -7437.8121 300.3312 -283.2468 -253.3407 29805.7613 -200.1645 -125.0630
ENERGY: 1200000 1.2682 7.6693 5.2656 0.0000 -10684.5303 1429.2369 0.0000 0.0000 1773.1888 -7467.9014 302.6829 -9241.0902 -7442.9487 300.4201 -214.4790 -143.5941 30143.0507 -207.0282 -132.7054
ENERGY: 1500000 2.4219 5.4387 3.8780 0.0000 -10499.3537 1307.9203 0.0000 0.0000 1705.0720 -7474.6227 291.0554 -9179.6948 -7441.2588 299.5502 -920.6915 -818.7343 30120.0741 -199.8454 -122.2731
TCL: Running FEP window   2: Lambda1 0.05   Lambda2 0.1    [dLambda 0.05  ]
TCL: Setting parameter firsttimestep to 0
TCL: Setting parameter alchLambda to 0.05
Info: NONBONDED TABLE R-SQUARED SPACING: 0.0625
Info: NONBONDED TABLE SIZE: 705 POINTS
TCL: Setting parameter alchLambda2 to 0.1
Info: NONBONDED TABLE R-SQUARED SPACING: 0.0625
Info: NONBONDED TABLE SIZE: 705 POINTS
TCL: Running for 1500000 steps
ETITLE: TS BOND ANGLE DIHED IMPRP ELECT VDW BOUNDARY MISC KINETIC TOTAL TEMP POTENTIAL TOTALAVG TEMPAVG PRESSURE GPRESSURE VOLUME PRESSAVG GPRESSAVG
ENERGY: 0 2.4219 5.4387 3.8780 0.0000 -10499.3568 1310.2825 0.0000 0.0000 1704.1720 -7473.1637 290.9017 -9177.3357 -7473.1637 290.9017 -890.8744 -811.1998 30120.0741 -890.8744 -811.1998
ENERGY: 300000 1.6332 6.1261 3.9016 0.0000 -10527.7460 1374.9729 0.0000 0.0000 1750.6258 -7390.4863 298.8314 -9141.1122 -7435.8472 302.5850 -368.2632 -321.8278 30452.1016 -427.4246 -334.4517
ENERGY: 600000 4.6359 3.8971 3.7939 0.0000 -10638.2341 1425.3641 0.0000 0.0000 1770.0481 -7430.4951 302.1468 -9200.5432 -7443.0083 300.1646 -37.6552 12.9840 29848.8674 -243.2419 -170.4597
ENERGY: 900000 1.1749 5.6605 5.3702 0.0000 -10672.5398 1448.2056 0.0000 0.0000 1746.7903 -7465.3383 298.1767 -9212.1285 -7442.7652 300.3345 -83.3260 -75.0080 30393.8621 -75.7485 -19.5143
ENERGY: 1200000 1.4526 3.9531 4.9611 0.0000 -10798.6080 1573.6430 0.0000 0.0000 1764.1302 -7450.4681 301.1366 -9214.5983 -7446.2774 299.6328 1291.0301 1362.0482 29572.8791 40.7591 96.0997
ENERGY: 1500000 2.0881 5.8946 3.8212 0.0000 -10604.8885 1397.8665 0.0000 0.0000 1764.6060 -7430.6121 301.2178 -9195.2181 -7454.2345 299.9369 -354.5729 -286.1221 30029.9384 -87.4335 -29.8098
TCL: Running FEP window   3: Lambda1 0.1    Lambda2 0.15000000000000002 [dLambda 0.05000000000000002]
TCL: Setting parameter firsttimestep to 0
TCL: Setting parameter alchLambda to 0.1
Info: NONBONDED TABLE R-SQUARED SPACING: 0.0625
Info: NONBONDED TABLE SIZE: 705 POINTS
TCL: Setting parameter alchLambda2 to 0.15000000000000002
Info: NONBONDED TABLE R-SQUARED SPACING: 0.0625
Info: NONBONDED TABLE SIZE: 705 POINTS
TCL: Running for 1500000 steps
ETITLE: TS BOND ANGLE DIHED IMPRP ELECT VDW BOUNDARY MISC KINETIC TOTAL TEMP POTENTIAL TOTALAVG TEMPAVG PRESSURE GPRESSURE VOLUME PRESSAVG GPRESSAVG
ENERGY: 0 2.0881 5.8946 3.8212 0.0000 -10604.8878 1399.1559 0.0000 0.0000 1763.7239 -7430.2040 301.0673 -9193.9280 -7430.2040 301.0673 -366.7538 -281.3677 30029.9384 -366.7538 -281.3677
ENERGY: 300000 1.0623 6.0318 3.5295 0.0000 -10576.4336 1440.5207 0.0000 0.0000 1768.0996 -7357.1897 301.8142 -9125.2893 -7446.7355 298.3834 115.2213 222.2323 30300.5899 84.6095 177.4976
ENERGY: 600000 0.5582 6.3239 6.7793 0.0000 -10587.5373 1406.9625 0.0000 0.0000 1749.2664 -7417.6470 298.5994 -9166.9134 -7463.8385 297.3967 -242.0205 -216.3439 30518.5920 -0.2715 75.5595
ENERGY: 900000 0.5773 5.0292 5.6980 0.0000 -10678.0893 1432.3397 0.0000 0.0000 1743.2898 -7491.1552 297.5791 -9234.4450 -7449.6469 298.6575 -34.6341 49.7729 29973.4814 -90.3062 -10.0396
ENERGY: 1200000 2.3431 4.0083 5.8343 0.0000 -10631.1288 1389.6139 0.0000 0.0000 1727.7256 -7501.6036 294.9224 -9229.3293 -7459.8614 297.5933 -565.4557 -467.5050 30555.0208 -167.0585 -93.6743
ENERGY: 1500000 1.6205 8.0015 4.8986 0.0000 -10617.7200 1397.8079 0.0000 0.0000 1767.6935 -7437.6979 301.7449 -9205.3915 -7464.9709 297.9738 -555.5502 -460.2520 30393.6878 -194.5109 -124.1580
TCL: Running FEP window   4: Lambda1 0.15000000000000002 Lambda2 0.2    [dLambda 0.04999999999999999]
TCL: Setting parameter firsttimestep to 0
TCL: Setting parameter alchLambda to 0.15000000000000002
Info: NONBONDED TABLE R-SQUARED SPACING: 0.0625
Info: NONBONDED TABLE SIZE: 705 POINTS
TCL: Setting parameter alchLambda2 to 0.2
Info: NONBONDED TABLE R-SQUARED SPACING: 0.0625
Info: NONBONDED TABLE SIZE: 705 POINTS
TCL: Running for 1500000 steps
ETITLE: TS BOND ANGLE DIHED IMPRP ELECT VDW BOUNDARY MISC KINETIC TOTAL TEMP POTENTIAL TOTALAVG TEMPAVG PRESSURE GPRESSURE VOLUME PRESSAVG GPRESSAVG
ENERGY: 0 1.6205 8.0015 4.8986 0.0000 -10617.7209 1398.7938 0.0000 0.0000 1766.8255 -7437.5811 301.5967 -9204.4065 -7437.5811 301.5967 -539.2164 -454.0753 30393.6878 -539.2164 -454.0753
ENERGY: 300000 0.7041 4.1514 4.2718 0.0000 -10733.2383 1504.5072 0.0000 0.0000 1743.7841 -7475.8197 297.6635 -9219.6038 -7452.3546 302.6764 722.6423 733.4840 29953.9728 -74.3499 -17.2659
ENERGY: 600000 0.1506 6.8112 3.7479 0.0000 -10538.6727 1324.7709 0.0000 0.0000 1724.6753 -7478.5169 294.4017 -9203.1922 -7440.9911 301.7723 -718.5771 -741.2585 30169.0732 -235.5027 -194.7007
ENERGY: 900000 3.3998 2.3029 4.4909 0.0000 -10591.0709 1417.4418 0.0000 0.0000 1747.9503 -7415.4850 298.3747 -9163.4354 -7437.9442 302.4847 -50.2298 7.3749 30159.5149 -111.1625 -64.0281
ENERGY: 1200000 3.3560 4.6485 4.4305 0.0000 -10676.8473 1455.5662 0.0000 0.0000 1763.4273 -7445.4187 301.0166 -9208.8460 -7440.2907 302.9907 278.1179 374.8417 29710.3970 -43.8959 7.7982
ENERGY: 1500000 1.7390 5.9152 5.1868 0.0000 -10572.8551 1378.4455 0.0000 0.0000 1775.8001 -7405.7685 303.1287 -9181.5687 -7439.5966 302.6627 -767.7633 -696.8441 30922.8298 -107.8063 -53.7241
TCL: Running FEP window   5: Lambda1 0.2    Lambda2 0.25   [dLambda 0.04999999999999999]
TCL: Setting parameter firsttimestep to 0
TCL: Setting parameter alchLambda to 0.2
Info: NONBONDED TABLE R-SQUARED SPACING: 0.0625
Info: NONBONDED TABLE SIZE: 705 POINTS
TCL: Setting parameter alchLambda2 to 0.25
Info: NONBONDED TABLE R-SQUARED SPACING: 0.0625
Info: NONBONDED TABLE SIZE: 705 POINTS
TCL: Running for 1500000 steps
ETITLE: TS BOND ANGLE DIHED IMPRP ELECT VDW BOUNDARY MISC KINETIC TOTAL TEMP POTENTIAL TOTALAVG TEMPAVG PRESSURE GPRESSURE VOLUME PRESSAVG GPRESSAVG
ENERGY: 0 1.7390 5.9152 5.1868 0.0000 -10572.8549 1379.6134 0.0000 0.0000 1774.9638 -7405.4368 302.9859 -9180.4006 -7405.4368 302.9859 -766.0200 -685.6185 30922.8298 -766.0200 -685.6185
ENERGY: 300000 1.2341 5.4901 4.9912 0.0000 -10577.1139 1397.3399 0.0000 0.0000 1764.8736 -7403.1850 301.2635 -9168.0587 -7435.6398 299.8220 -209.7531 -165.5757 30435.3514 -115.1686 -76.2663
ENERGY: 600000 1.9149 7.8437 4.3885 0.0000 -10711.9646 1497.1324 0.0000 0.0000 1802.3120 -7398.3731 307.6542 -9200.6851 -7432.1645 301.7126 498.8694 541.9444 30215.3508 2.7613 40.8338
ENERGY: 900000 2.5720 4.5312 5.9255 0.0000 -10778.9850 1509.3550 0.0000 0.0000 1767.7948 -7488.8064 301.7622 -9256.6012 -7435.7964 302.4919 331.7796 398.0239 30320.6639 -9.8952 36.1144
ENERGY: 1200000 5.1043 8.3282 3.3794 0.0000 -10659.8364 1432.8286 0.0000 0.0000 1796.5335 -7413.6624 306.6678 -9210.1959 -7436.3380 302.3150 -163.3968 -107.7555 30471.7753 14.8702 56.9456
ENERGY: 1500000 1.1146 5.0286 5.1538 0.0000 -10668.5679 1452.2706 0.0000 0.0000 1778.2768 -7426.7234 303.5514 -9205.0002 -7444.7259 302.0733 -125.8865 -48.6274 30839.9903 26.8977 69.6058
TCL: Running FEP window   6: Lambda1 0.25   Lambda2 0.3    [dLambda 0.04999999999999999]
TCL: Setting parameter firsttimestep to 0
TCL: Setting parameter alchLambda to 0.25
Info: NONBONDED TABLE R-SQUARED SPACING: 0.0625
Info: NONBONDED TABLE SIZE: 705 POINTS
TCL: Setting parameter alchLambda2 to 0.3
Info: NONBONDED TABLE R-SQUARED SPACING: 0.0625
Info: NONBONDED TABLE SIZE: 705 POINTS
TCL: Running for 1500000 steps
ETITLE: TS BOND ANGLE DIHED IMPRP ELECT VDW BOUNDARY MISC KINETIC TOTAL TEMP POTENTIAL TOTALAVG TEMPAVG PRESSURE GPRESSURE VOLUME PRESSAVG GPRESSAVG
ENERGY: 0 1.1146 5.0286 5.1538 0.0000 -10668.5695 1452.5634 0.0000 0.0000 1777.4218 -7427.2872 303.4055 -9204.7090 -7427.2872 303.4055 -139.8854 -43.9444 30839.9903 -139.8854 -43.9444
ENERGY: 300000 1.3051 6.3762 6.0290 0.0000 -10612.5084 1365.0302 0.0000 0.0000 1771.5448 -7462.2232 302.4023 -9233.7680 -7464.8108 302.2101 -632.2965 -613.9016 30112.3520 -71.6534 -48.1858
ENERGY: 600000 1.2950 9.3024 4.1449 0.0000 -10628.7595 1397.0075 0.0000 0.0000 1775.9479 -7441.0618 303.1539 -9217.0097 -7470.2639 301.4371 -371.3541 -313.5186 30187.0280 -182.6322 -137.3582
ENERGY: 900000 2.2040 4.2196 3.3667 0.0000 -10810.2906 1554.2060 0.0000 0.0000 1748.8049 -7497.4895 298.5206 -9246.2944 -7458.4700 301.6900 892.5711 934.9437 29993.4751 -21.3365 34.0605
ENERGY: 1200000 1.5525 6.3897 4.9793 0.0000 -10629.4086 1460.1468 0.0000 0.0000 1745.8275 -7410.5127 298.0123 -9156.3402 -7449.0083 301.3949 301.0951 341.1768 30243.3544 5.0725 60.1305
ENERGY: 1500000 6.5884 4.1464 4.8095 0.0000 -10745.6237 1420.6295 0.0000 0.0000 1649.7197 -7659.7302 281.6068 -9309.4499 -7466.5685 299.5007 -745.6943 -668.5277 30212.4909 -64.1596 -11.7186
TCL: Running FEP window   7: Lambda1 0.3    Lambda2 0.35   [dLambda 0.04999999999999999]
TCL: Setting parameter firsttimestep to 0
TCL: Setting parameter alchLambda to 0.3
Info: NONBONDED TABLE R-SQUARED SPACING: 0.0625
Info: NONBONDED TABLE SIZE: 705 POINTS
TCL: Setting parameter alchLambda2 to 0.35
Info: NONBONDED TABLE R-SQUARED SPACING: 0.0625
Info: NONBONDED TABLE SIZE: 705 POINTS
TCL: Running for 1500000 steps
ETITLE: TS BOND ANGLE DIHED IMPRP ELECT VDW BOUNDARY MISC KINETIC TOTAL TEMP POTENTIAL TOTALAVG TEMPAVG PRESSURE GPRESSURE VOLUME PRESSAVG GPRESSAVG
ENERGY: 0 6.5884 4.1464 4.8095 0.0000 -10745.6255 1420.6423 0.0000 0.0000 1648.8452 -7660.5936 281.4575 -9309.4388 -7660.5936 281.4575 -750.6920 -667.9061 30212.4909 -750.6920 -667.9061
ENERGY: 300000 1.1186 3.9131 4.2688 0.0000 -10591.7470 1383.6733 0.0000 0.0000 1740.4255 -7458.3478 297.0902 -9198.7733 -7482.9295 294.5438 -793.7384 -713.0903 30824.2571 -481.3173 -412.2438
ENERGY: 600000 2.4350 5.7304 3.7759 0.0000 -10571.1113 1394.8119 0.0000 0.0000 1761.2012 -7403.1569 300.6366 -9164.3581 -7470.7004 296.4847 -427.5463 -419.1203 30348.5874 -151.3326 -85.7860
ENERGY: 900000 2.7499 4.1001 3.9429 0.0000 -10663.0226 1412.9371 0.0000 0.0000 1753.9221 -7485.3705 299.3941 -9239.2926 -7456.2461 297.7025 -275.3833 -202.1350 30535.3902 -224.0223 -158.5209
ENERGY: 1200000 0.5424 6.8331 6.4135 0.0000 -10652.4659 1391.0590 0.0000 0.0000 1748.3971 -7499.2207 298.4510 -9247.6178 -7438.0316 300.0537 -514.3685 -416.1265 30462.8469 -233.7306 -175.3216
ENERGY: 1500000 2.0065 8.3344 4.3327 0.0000 -10729.0590 1441.9983 0.0000 0.0000 1778.6180 -7493.7691 303.6097 -9272.3871 -7441.4542 299.6694 -239.4061 -132.2544 30246.8897 -166.2765 -107.3019
TCL: Running FEP window   8: Lambda1 0.35   Lambda2 0.39999999999999997 [dLambda 0.04999999999999999]
TCL: Setting parameter firsttimestep to 0
TCL: Setting parameter alchLambda to 0.35
Info: NONBONDED TABLE R-SQUARED SPACING: 0.0625
Info: NONBONDED TABLE SIZE: 705 POINTS
TCL: Setting parameter alchLambda2 to 0.39999999999999997
Info: NONBONDED TABLE R-SQUARED SPACING: 0.0625
Info: NONBONDED TABLE SIZE: 705 POINTS
TCL: Running for 1500000 steps
ETITLE: TS BOND ANGLE DIHED IMPRP ELECT VDW BOUNDARY MISC KINETIC TOTAL TEMP POTENTIAL TOTALAVG TEMPAVG PRESSURE GPRESSURE VOLUME PRESSAVG GPRESSAVG
ENERGY: 0 2.0065 8.3344 4.3327 0.0000 -10729.0581 1441.8689 0.0000 0.0000 1777.7434 -7494.7721 303.4604 -9272.5155 -7494.7721 303.4604 -204.7794 -131.3039 30246.8897 -204.7794 -131.3039
ENERGY: 300000 0.1991 7.8977 3.7727 0.0000 -10463.6106 1301.4549 0.0000 0.0000 1757.2620 -7393.0242 299.9642 -9150.2862 -7445.7042 299.7703 -756.8743 -662.3420 30083.4341 -559.2133 -483.9655
ENERGY: 600000 1.0065 5.4547 5.5380 0.0000 -10709.8789 1489.3042 0.0000 0.0000 1778.3236 -7430.2519 303.5594 -9208.5755 -7447.2887 299.5937 223.0926 357.3818 30653.2597 -237.9191 -163.8445
ENERGY: 900000 3.1872 3.8813 4.1782 0.0000 -10772.9373 1532.7796 0.0000 0.0000 1746.2045 -7482.7065 298.0767 -9228.9110 -7443.8639 299.6233 697.3393 749.6063 30114.4531 -64.2168 6.4038
ENERGY: 1200000 1.9791 5.0388 2.8786 0.0000 -10684.7413 1423.6075 0.0000 0.0000 1811.7564 -7439.4809 309.2664 -9251.2373 -7444.7295 301.0641 -284.0134 -239.8457 30120.5622 -35.2198 26.2670
ENERGY: 1500000 2.1079 10.0558 4.0859 0.0000 -10851.3411 1611.6643 0.0000 0.0000 1722.3322 -7501.0950 294.0017 -9223.4272 -7449.1168 300.8022 1380.8511 1363.3650 30153.4889 60.4896 117.5351
TCL: Running FEP window   9: Lambda1 0.39999999999999997 Lambda2 0.44999999999999996 [dLambda 0.04999999999999999]
TCL: Setting parameter firsttimestep to 0
TCL: Setting parameter alchLambda to 0.39999999999999997
Info: NONBONDED TABLE R-SQUARED SPACING: 0.0625
Info: NONBONDED TABLE SIZE: 705 POINTS
TCL: Setting parameter alchLambda2 to 0.44999999999999996
Info: NONBONDED TABLE R-SQUARED SPACING: 0.0625
Info: NONBONDED TABLE SIZE: 705 POINTS
TCL: Running for 1500000 steps
ETITLE: TS BOND ANGLE DIHED IMPRP ELECT VDW BOUNDARY MISC KINETIC TOTAL TEMP POTENTIAL TOTALAVG TEMPAVG PRESSURE GPRESSURE VOLUME PRESSAVG GPRESSAVG
ENERGY: 0 2.1079 10.0558 4.0859 0.0000 -10851.3422 1611.6359 0.0000 0.0000 1721.4577 -7501.9989 293.8524 -9223.4566 -7501.9989 293.8524 1291.6662 1364.4748 30153.4889 1291.6662 1364.4748
ENERGY: 300000 2.0709 9.1002 4.5253 0.0000 -10500.4780 1289.7928 0.0000 0.0000 1714.7993 -7480.1895 292.7158 -9194.9888 -7444.7197 297.4905 -1382.5437 -1294.8588 30491.0451 -416.5522 -341.9619
ENERGY: 600000 2.6732 7.4242 5.3991 0.0000 -10712.6824 1437.9163 0.0000 0.0000 1750.0085 -7509.2612 298.7260 -9259.2698 -7465.6995 298.1773 -175.4078 -104.4372 30202.5528 -303.6980 -235.8672
ENERGY: 900000 3.5829 2.5651 5.0796 0.0000 -10587.9276 1427.9402 0.0000 0.0000 1705.1466 -7443.6131 291.0681 -9148.7598 -7461.7806 297.0019 -84.7579 -34.5476 30435.0786 -248.6345 -182.5909
ENERGY: 1200000 1.3529 7.3554 6.1359 0.0000 -10706.8285 1489.9417 0.0000 0.0000 1771.8090 -7430.2337 302.4474 -9202.0427 -7457.7977 297.6351 386.9774 544.0570 30287.1506 -145.4064 -78.7548
ENERGY: 1500000 0.6627 4.9395 6.8686 0.0000 -10805.9174 1502.0170 0.0000 0.0000 1718.4885 -7572.9411 293.3456 -9291.4297 -7473.6620 296.0652 419.7890 501.0865 29576.1300 -33.9676 29.7499
TCL: Running FEP window  10: Lambda1 0.44999999999999996 Lambda2 0.49999999999999994 [dLambda 0.04999999999999999]
TCL: Setting parameter firsttimestep to 0
TCL: Setting parameter alchLambda to 0.44999999999999996
Info: NONBONDED TABLE R-SQUARED SPACING: 0.0625
Info: NONBONDED TABLE SIZE: 705 POINTS
TCL: Setting parameter alchLambda2 to 0.49999999999999994
Info: NONBONDED TABLE R-SQUARED SPACING: 0.0625
Info: NONBONDED TABLE SIZE: 705 POINTS
TCL: Running for 1500000 steps
ETITLE: TS BOND ANGLE DIHED IMPRP ELECT VDW BOUNDARY MISC KINETIC TOTAL TEMP POTENTIAL TOTALAVG TEMPAVG PRESSURE GPRESSURE VOLUME PRESSAVG GPRESSAVG
ENERGY: 0 0.6627 4.9395 6.8686 0.0000 -10805.9183 1501.6250 0.0000 0.0000 1717.5741 -7574.2484 293.1895 -9291.8226 -7574.2484 293.1895 416.8180 505.6111 29576.1300 416.8180 505.6111
ENERGY: 300000 1.4084 6.6539 4.3249 0.0000 -10669.4338 1420.5691 0.0000 0.0000 1749.6768 -7486.8007 298.6694 -9236.4774 -7479.3177 298.4950 -127.8750 -17.5567 29764.1347 -270.5265 -185.1168
ENERGY: 600000 2.2037 5.7177 6.6201 0.0000 -10600.1263 1402.2249 0.0000 0.0000 1809.9742 -7373.3856 308.9622 -9183.3598 -7435.5426 301.9317 -27.2365 -33.6939 29996.5043 -307.2103 -247.4375
ENERGY: 900000 0.6955 5.2615 4.0626 0.0000 -10628.7261 1397.2412 0.0000 0.0000 1729.6673 -7491.7981 295.2538 -9221.4654 -7442.7130 301.7789 -279.1890 -260.1866 30270.8811 -288.2989 -233.4011
ENERGY: 1200000 2.1458 6.8154 6.0761 0.0000 -10691.6751 1473.2248 0.0000 0.0000 1780.9854 -7422.4275 304.0138 -9203.4130 -7434.8070 301.8298 214.0689 308.5555 30571.1796 -273.0307 -220.0550
ENERGY: 1500000 1.2783 10.3872 5.1442 0.0000 -10673.9556 1424.3119 0.0000 0.0000 1745.1098 -7487.7243 297.8898 -9232.8340 -7433.6344 301.3923 -228.6922 -149.6630 30092.3456 -280.2966 -227.4184
TCL: Running FEP window  11: Lambda1 0.49999999999999994 Lambda2 0.5499999999999999 [dLambda 0.04999999999999999]
TCL: Setting parameter firsttimestep to 0
TCL: Setting parameter alchLambda to 0.49999999999999994
Info: NONBONDED TABLE R-SQUARED SPACING: 0.0625
Info: NONBONDED TABLE SIZE: 705 POINTS
TCL: Setting parameter alchLambda2 to 0.5499999999999999
Info: NONBONDED TABLE R-SQUARED SPACING: 0.0625
Info: NONBONDED TABLE SIZE: 705 POINTS
TCL: Running for 1500000 steps
ETITLE: TS BOND ANGLE DIHED IMPRP ELECT VDW BOUNDARY MISC KINETIC TOTAL TEMP POTENTIAL TOTALAVG TEMPAVG PRESSURE GPRESSURE VOLUME PRESSAVG GPRESSAVG
ENERGY: 0 1.2783 10.3872 5.1442 0.0000 -10673.9564 1423.8562 0.0000 0.0000 1744.2636 -7489.0270 297.7454 -9233.2906 -7489.0270 297.7454 -245.4162 -148.6029 30092.3456 -245.4162 -148.6029
ENERGY: 300000 0.4572 2.7081 3.9345 0.0000 -10853.6064 1607.2455 0.0000 0.0000 1716.6318 -7522.6294 293.0286 -9239.2612 -7516.8551 296.7290 1293.6445 1354.7537 30067.3983 428.5270 510.1183
ENERGY: 600000 0.3986 8.4761 4.4752 0.0000 -10761.9917 1470.6906 0.0000 0.0000 1719.2238 -7558.7275 293.4711 -9277.9513 -7494.9075 300.3118 96.2452 94.3447 30167.8713 332.6756 388.9436
ENERGY: 900000 1.8439 6.1576 4.9778 0.0000 -10707.0309 1475.8684 0.0000 0.0000 1716.1978 -7501.9853 292.9546 -9218.1832 -7478.5945 300.6585 366.8460 383.8516 29968.2476 141.3866 204.9532
ENERGY: 1200000 3.1135 10.1120 5.8850 0.0000 -10783.9666 1563.1708 0.0000 0.0000 1768.7930 -7432.8923 301.9325 -9201.6853 -7468.8515 301.3297 867.3791 897.3309 30365.3304 214.2564 279.9590
ENERGY: 1500000 1.0576 5.0428 4.4812 0.0000 -10727.2892 1483.4489 0.0000 0.0000 1698.4844 -7534.7744 289.9309 -9233.2588 -7468.6940 300.3286 392.8361 453.1406 30109.6508 211.0171 279.7405
TCL: Running FEP window  12: Lambda1 0.5499999999999999 Lambda2 0.6    [dLambda 0.050000000000000044]
TCL: Setting parameter firsttimestep to 0
TCL: Setting parameter alchLambda to 0.5499999999999999
Info: NONBONDED TABLE R-SQUARED SPACING: 0.0625
Info: NONBONDED TABLE SIZE: 705 POINTS
TCL: Setting parameter alchLambda2 to 0.6
Info: NONBONDED TABLE R-SQUARED SPACING: 0.0625
Info: NONBONDED TABLE SIZE: 705 POINTS
TCL: Running for 1500000 steps
ETITLE: TS BOND ANGLE DIHED IMPRP ELECT VDW BOUNDARY MISC KINETIC TOTAL TEMP POTENTIAL TOTALAVG TEMPAVG PRESSURE GPRESSURE VOLUME PRESSAVG GPRESSAVG
ENERGY: 0 1.0576 5.0428 4.4812 0.0000 -10728.4752 1483.7197 0.0000 0.0000 1697.5965 -7536.5774 289.7793 -9234.1739 -7536.5774 289.7793 379.1364 456.9772 30109.6508 379.1364 456.9772
ENERGY: 300000 2.6022 4.5973 6.9821 0.0000 -10688.0018 1470.8721 0.0000 0.0000 1738.6379 -7464.3101 296.7851 -9202.9481 -7452.0037 298.4659 245.4651 260.7603 30243.3013 257.0370 326.4860
ENERGY: 600000 0.3549 8.8285 4.9567 0.0000 -10656.9475 1445.6332 0.0000 0.0000 1743.7954 -7453.3789 297.6655 -9197.1743 -7449.3318 299.0300 166.5856 190.4392 30077.5095 82.3531 133.3580
ENERGY: 900000 2.4227 6.6914 4.6480 0.0000 -10605.7856 1462.8050 0.0000 0.0000 1809.8781 -7319.3404 308.9458 -9129.2185 -7425.6123 300.2131 201.5117 246.7153 30676.8896 48.5825 106.6734
ENERGY: 1200000 1.4977 4.5592 4.7793 0.0000 -10808.0110 1519.1413 0.0000 0.0000 1737.7693 -7540.2643 296.6368 -9278.0336 -7426.1939 301.0117 632.2418 737.5022 29779.4062 1.7336 75.6655
ENERGY: 1500000 1.7178 5.2327 3.9189 0.0000 -10637.1725 1448.9189 0.0000 0.0000 1750.3200 -7427.0641 298.7792 -9177.3841 -7427.6813 300.8504 263.6641 318.9666 30342.3387 -37.8452 35.0461
TCL: Running FEP window  13: Lambda1 0.6    Lambda2 0.65   [dLambda 0.050000000000000044]
TCL: Setting parameter firsttimestep to 0
TCL: Setting parameter alchLambda to 0.6
Info: NONBONDED TABLE R-SQUARED SPACING: 0.0625
Info: NONBONDED TABLE SIZE: 705 POINTS
TCL: Setting parameter alchLambda2 to 0.65
Info: NONBONDED TABLE R-SQUARED SPACING: 0.0625
Info: NONBONDED TABLE SIZE: 705 POINTS
TCL: Running for 1500000 steps
ETITLE: TS BOND ANGLE DIHED IMPRP ELECT VDW BOUNDARY MISC KINETIC TOTAL TEMP POTENTIAL TOTALAVG TEMPAVG PRESSURE GPRESSURE VOLUME PRESSAVG GPRESSAVG
ENERGY: 0 1.7178 5.2327 3.9189 0.0000 -10638.0179 1448.7655 0.0000 0.0000 1749.4388 -7428.9442 298.6288 -9178.3830 -7428.9442 298.6288 237.4062 318.4070 30342.3387 237.4062 318.4070
ENERGY: 300000 1.2689 2.7938 6.0964 0.0000 -10727.0161 1468.3117 0.0000 0.0000 1757.2763 -7491.2690 299.9666 -9248.5454 -7443.4126 301.5639 355.3052 355.3924 30150.9200 -216.5061 -183.7151
ENERGY: 600000 0.3682 5.3868 4.2493 0.0000 -10584.3710 1407.4057 0.0000 0.0000 1655.5629 -7511.3982 282.6042 -9166.9611 -7446.9678 298.7752 -155.5026 -13.0900 30064.6070 109.3351 171.0568
ENERGY: 900000 0.7894 5.5248 4.8445 0.0000 -10671.9086 1380.1072 0.0000 0.0000 1763.5685 -7517.0742 301.0407 -9280.6427 -7458.0644 299.1666 -320.1983 -276.4723 29779.2021 46.6373 104.3430
ENERGY: 1200000 0.3001 4.4499 6.6280 0.0000 -10724.1299 1512.1798 0.0000 0.0000 1792.8400 -7407.7321 306.0374 -9200.5721 -7461.0591 298.5574 444.9093 528.7288 30376.5061 19.7699 79.2279
ENERGY: 1500000 0.7490 5.0560 4.6873 0.0000 -10597.8504 1408.4217 0.0000 0.0000 1749.7123 -7429.2241 298.6755 -9178.9365 -7458.2081 299.7444 -200.6282 -166.3859 30631.0836 60.0370 118.3481
TCL: Running FEP window  14: Lambda1 0.65   Lambda2 0.7000000000000001 [dLambda 0.050000000000000044]
TCL: Setting parameter firsttimestep to 0
TCL: Setting parameter alchLambda to 0.65
Info: NONBONDED TABLE R-SQUARED SPACING: 0.0625
Info: NONBONDED TABLE SIZE: 705 POINTS
TCL: Setting parameter alchLambda2 to 0.7000000000000001
Info: NONBONDED TABLE R-SQUARED SPACING: 0.0625
Info: NONBONDED TABLE SIZE: 705 POINTS
TCL: Running for 1500000 steps
ETITLE: TS BOND ANGLE DIHED IMPRP ELECT VDW BOUNDARY MISC KINETIC TOTAL TEMP POTENTIAL TOTALAVG TEMPAVG PRESSURE GPRESSURE VOLUME PRESSAVG GPRESSAVG
ENERGY: 0 0.7490 5.0560 4.6873 0.0000 -10599.9239 1409.6337 0.0000 0.0000 1748.8167 -7430.9812 298.5226 -9179.7979 -7430.9812 298.5226 -242.6356 -156.1387 30631.0836 -242.6356 -156.1387
ENERGY: 300000 0.8474 4.0766 4.0749 0.0000 -10785.3793 1467.1287 0.0000 0.0000 1716.0095 -7593.2421 292.9224 -9309.2516 -7495.1930 294.0230 4.3354 99.0144 29787.7749 -91.9706 -1.6854
ENERGY: 600000 2.3957 5.1841 5.3769 0.0000 -10695.8564 1445.7404 0.0000 0.0000 1707.3759 -7529.7835 291.4487 -9237.1594 -7480.8590 296.0678 183.8827 292.4048 30059.3008 -18.1641 63.8854
ENERGY: 900000 2.0071 4.1138 4.1906 0.0000 -10703.5226 1460.3659 0.0000 0.0000 1701.0625 -7531.7827 290.3710 -9232.8452 -7481.6059 295.8038 -63.6712 11.4770 30603.1397 -74.9971 5.7337
ENERGY: 1200000 1.5208 3.6564 6.1707 0.0000 -10457.1241 1339.5421 0.0000 0.0000 1775.7884 -7330.4458 303.1266 -9106.2341 -7465.3911 297.1739 -529.9190 -521.8706 30421.0039 -144.3993 -70.0462
ENERGY: 1500000 1.2535 6.7554 3.4867 0.0000 -10479.8366 1332.6163 0.0000 0.0000 1762.6097 -7373.1150 300.8771 -9135.7247 -7454.9248 298.8108 -666.8535 -618.0880 30520.5214 -164.2821 -101.1488
TCL: Running FEP window  15: Lambda1 0.7000000000000001 Lambda2 0.7500000000000001 [dLambda 0.050000000000000044]
TCL: Setting parameter firsttimestep to 0
TCL: Setting parameter alchLambda to 0.7000000000000001
Info: NONBONDED TABLE R-SQUARED SPACING: 0.0625
Info: NONBONDED TABLE SIZE: 705 POINTS
TCL: Setting parameter alchLambda2 to 0.7500000000000001
Info: NONBONDED TABLE R-SQUARED SPACING: 0.0625
Info: NONBONDED TABLE SIZE: 705 POINTS
TCL: Running for 1500000 steps
ETITLE: TS BOND ANGLE DIHED IMPRP ELECT VDW BOUNDARY MISC KINETIC TOTAL TEMP POTENTIAL TOTALAVG TEMPAVG PRESSURE GPRESSURE VOLUME PRESSAVG GPRESSAVG
ENERGY: 0 1.2535 6.7554 3.4867 0.0000 -10481.3851 1333.2910 0.0000 0.0000 1761.7515 -7374.8470 300.7306 -9136.5985 -7374.8470 300.7306 -698.6128 -610.3094 30520.5214 -698.6128 -610.3094
ENERGY: 300000 0.2754 4.5789 3.6721 0.0000 -10735.2115 1485.3563 0.0000 0.0000 1763.7349 -7477.5938 301.0691 -9241.3287 -7430.8064 298.5810 271.8808 304.7413 30464.0493 -5.7181 40.1257
ENERGY: 600000 4.3385 5.3760 6.0721 0.0000 -10488.7758 1347.3270 0.0000 0.0000 1758.0418 -7367.6203 300.0973 -9125.6621 -7427.3151 299.6558 -976.1612 -845.3877 30854.6433 -39.8451 27.1132
ENERGY: 900000 0.7417 7.4978 4.0311 0.0000 -10644.3529 1446.8744 0.0000 0.0000 1707.4080 -7477.7999 291.4541 -9185.2079 -7437.4335 299.5938 223.2401 294.3840 29965.3007 -147.1483 -71.4459
ENERGY: 1200000 1.1027 5.4783 4.2313 0.0000 -10729.0041 1461.4775 0.0000 0.0000 1782.8689 -7473.8453 304.3353 -9256.7142 -7445.2397 300.8615 174.0917 223.0215 30098.8142 -167.2724 -93.3526
ENERGY: 1500000 1.1060 8.0708 5.2315 0.0000 -10735.8749 1500.0831 0.0000 0.0000 1774.1267 -7447.2569 302.8430 -9221.3836 -7444.1597 301.1658 558.9349 608.8394 30053.9144 -93.2393 -24.1510
TCL: Running FEP window  16: Lambda1 0.7500000000000001 Lambda2 0.8000000000000002 [dLambda 0.050000000000000044]
TCL: Setting parameter firsttimestep to 0
TCL: Setting parameter alchLambda to 0.7500000000000001
Info: NONBONDED TABLE R-SQUARED SPACING: 0.0625
Info: NONBONDED TABLE SIZE: 705 POINTS
TCL: Setting parameter alchLambda2 to 0.8000000000000002
Info: NONBONDED TABLE R-SQUARED SPACING: 0.0625
Info: NONBONDED TABLE SIZE: 705 POINTS
TCL: Running for 1500000 steps
ETITLE: TS BOND ANGLE DIHED IMPRP ELECT VDW BOUNDARY MISC KINETIC TOTAL TEMP POTENTIAL TOTALAVG TEMPAVG PRESSURE GPRESSURE VOLUME PRESSAVG GPRESSAVG
ENERGY: 0 1.1060 8.0708 5.2315 0.0000 -10737.4927 1501.1087 0.0000 0.0000 1773.2372 -7448.7386 302.6912 -9221.9758 -7448.7386 302.6912 534.6109 625.6209 30053.9144 534.6109 625.6209
ENERGY: 300000 2.9350 7.4457 5.4446 0.0000 -10559.7784 1358.2179 0.0000 0.0000 1724.4717 -7461.2635 294.3669 -9185.7353 -7452.4529 300.6408 -838.4693 -724.6674 30600.0453 -177.2638 -108.8737
ENERGY: 600000 1.3990 8.0641 3.7949 0.0000 -10690.3922 1442.0636 0.0000 0.0000 1767.9122 -7467.1583 301.7822 -9235.0705 -7447.7885 300.2987 2.2157 36.2271 30280.4466 -99.3034 -27.9789
ENERGY: 900000 0.9901 4.8794 3.6288 0.0000 -10595.8193 1380.2660 0.0000 0.0000 1727.9606 -7478.0943 294.9625 -9206.0549 -7448.8758 300.1941 -657.9076 -573.7698 30594.2468 -269.1733 -197.6115
ENERGY: 1200000 2.7585 6.2716 4.8923 0.0000 -10612.8402 1412.8190 0.0000 0.0000 1757.5064 -7428.5923 300.0059 -9186.0988 -7445.0707 300.3490 -348.1578 -264.9990 30740.7731 -317.6986 -238.1457
ENERGY: 1500000 2.4136 6.3694 4.6126 0.0000 -10683.4114 1479.0269 0.0000 0.0000 1774.7558 -7416.2329 302.9504 -9190.9888 -7447.2381 300.4397 290.3237 332.7857 30465.4294 -292.7978 -222.4323
TCL: Running FEP window  17: Lambda1 0.8000000000000002 Lambda2 0.8500000000000002 [dLambda 0.050000000000000044]
TCL: Setting parameter firsttimestep to 0
TCL: Setting parameter alchLambda to 0.8000000000000002
Info: NONBONDED TABLE R-SQUARED SPACING: 0.0625
Info: NONBONDED TABLE SIZE: 705 POINTS
TCL: Setting parameter alchLambda2 to 0.8500000000000002
Info: NONBONDED TABLE R-SQUARED SPACING: 0.0625
Info: NONBONDED TABLE SIZE: 705 POINTS
TCL: Running for 1500000 steps
ETITLE: TS BOND ANGLE DIHED IMPRP ELECT VDW BOUNDARY MISC KINETIC TOTAL TEMP POTENTIAL TOTALAVG TEMPAVG PRESSURE GPRESSURE VOLUME PRESSAVG GPRESSAVG
ENERGY: 0 2.4136 6.3694 4.6126 0.0000 -10686.4520 1481.6419 0.0000 0.0000 1773.8891 -7417.5254 302.8024 -9191.4145 -7417.5254 302.8024 267.6316 361.8816 30465.4294 267.6316 361.8816
ENERGY: 300000 1.9573 3.7256 3.5417 0.0000 -10678.9434 1404.0247 0.0000 0.0000 1797.5470 -7468.1471 306.8408 -9265.6941 -7448.2911 301.5291 -356.3838 -387.4536 30408.7637 -276.6967 -216.5647
ENERGY: 600000 0.8507 4.3084 4.4856 0.0000 -10630.8392 1418.7479 0.0000 0.0000 1748.0742 -7454.3723 298.3959 -9202.4466 -7462.0425 300.4390 -7.3326 53.9587 30187.1833 -153.5720 -78.9375
ENERGY: 900000 2.5536 10.6902 4.6064 0.0000 -10593.8099 1405.8685 0.0000 0.0000 1775.7525 -7394.3387 303.1205 -9170.0912 -7459.6147 300.4909 -175.3181 -59.1570 30603.3994 -233.4412 -157.9972
ENERGY: 1200000 2.5786 8.2771 3.1608 0.0000 -10588.9318 1362.4470 0.0000 0.0000 1716.1524 -7496.3159 292.9468 -9212.4683 -7454.7990 300.7609 -558.3288 -555.7446 30291.1995 -217.9223 -145.1794
ENERGY: 1500000 2.1811 3.3488 6.6292 0.0000 -10740.0287 1497.0394 0.0000 0.0000 1778.4959 -7452.3343 303.5888 -9230.8302 -7457.8630 300.1741 554.6818 633.8513 30045.1806 -168.1085 -94.4287
TCL: Running FEP window  18: Lambda1 0.8500000000000002 Lambda2 0.9000000000000002 [dLambda 0.050000000000000044]
TCL: Setting parameter firsttimestep to 0
TCL: Setting parameter alchLambda to 0.8500000000000002
Info: NONBONDED TABLE R-SQUARED SPACING: 0.0625
Info: NONBONDED TABLE SIZE: 705 POINTS
TCL: Setting parameter alchLambda2 to 0.9000000000000002
Info: NONBONDED TABLE R-SQUARED SPACING: 0.0625
Info: NONBONDED TABLE SIZE: 705 POINTS
TCL: Running for 1500000 steps
ETITLE: TS BOND ANGLE DIHED IMPRP ELECT VDW BOUNDARY MISC KINETIC TOTAL TEMP POTENTIAL TOTALAVG TEMPAVG PRESSURE GPRESSURE VOLUME PRESSAVG GPRESSAVG
ENERGY: 0 2.1811 3.3488 6.6292 0.0000 -10743.0728 1499.2540 0.0000 0.0000 1777.6132 -7454.0465 303.4381 -9231.6597 -7454.0465 303.4381 577.6372 663.2717 30045.1806 577.6372 663.2717
ENERGY: 300000 1.0543 3.0504 4.1181 0.0000 -10520.0979 1333.8017 0.0000 0.0000 1715.1813 -7462.8922 292.7810 -9178.0735 -7428.9186 305.9164 -465.6204 -465.5609 30328.5503 128.6647 178.3441
ENERGY: 600000 1.4284 4.7098 3.4217 0.0000 -10554.5114 1342.4359 0.0000 0.0000 1707.5130 -7495.0026 291.4721 -9202.5156 -7436.5930 304.1539 -943.7291 -859.9606 30594.4078 15.3924 68.2049
ENERGY: 900000 1.3827 6.3678 3.5766 0.0000 -10772.4138 1479.2626 0.0000 0.0000 1781.5418 -7500.2824 304.1088 -9281.8241 -7456.4321 302.9562 302.1920 273.5710 30021.5621 7.2725 54.7852
ENERGY: 1200000 0.8433 3.2047 4.2302 0.0000 -10524.5101 1384.1601 0.0000 0.0000 1753.8109 -7378.2609 299.3751 -9132.0718 -7443.4803 303.5041 -104.9385 -29.2647 30289.0607 -24.3537 26.7167
ENERGY: 1500000 1.3411 3.9505 4.6576 0.0000 -10530.9520 1351.5847 0.0000 0.0000 1743.0233 -7426.3948 297.5337 -9169.4181 -7445.3738 302.5125 -468.5654 -465.4535 30299.6529 -71.3899 -20.8604
TCL: Running FEP window  19: Lambda1 0.9000000000000002 Lambda2 0.9500000000000003 [dLambda 0.050000000000000044]
TCL: Setting parameter firsttimestep to 0
TCL: Setting parameter alchLambda to 0.9000000000000002
Info: NONBONDED TABLE R-SQUARED SPACING: 0.0625
Info: NONBONDED TABLE SIZE: 705 POINTS
TCL: Setting parameter alchLambda2 to 0.9500000000000003
Info: NONBONDED TABLE R-SQUARED SPACING: 0.0625
Info: NONBONDED TABLE SIZE: 705 POINTS
TCL: Running for 1500000 steps
ETITLE: TS BOND ANGLE DIHED IMPRP ELECT VDW BOUNDARY MISC KINETIC TOTAL TEMP POTENTIAL TOTALAVG TEMPAVG PRESSURE GPRESSURE VOLUME PRESSAVG GPRESSAVG
ENERGY: 0 1.3411 3.9505 4.6576 0.0000 -10533.0649 1352.0529 0.0000 0.0000 1742.1033 -7428.9594 297.3766 -9171.0628 -7428.9594 297.3766 -530.0040 -454.1953 30299.6529 -530.0040 -454.1953
ENERGY: 300000 2.9009 4.9165 3.9739 0.0000 -10803.2263 1527.5254 0.0000 0.0000 1731.2496 -7532.6600 295.5239 -9263.9096 -7467.3578 302.8622 621.1771 668.1465 29933.0041 -135.3347 -64.6505
ENERGY: 600000 2.0851 5.7847 3.9248 0.0000 -10723.5245 1443.6695 0.0000 0.0000 1799.5040 -7468.5566 307.1749 -9268.0605 -7448.6274 303.0758 -52.7566 -6.9699 29975.1180 -58.3974 10.3984
ENERGY: 900000 2.5302 6.3205 7.0672 0.0000 -10820.9836 1516.5785 0.0000 0.0000 1713.0405 -7575.4467 292.4156 -9288.4871 -7467.3719 301.1653 523.2935 616.9912 29793.7951 -36.6826 29.8388
ENERGY: 1200000 1.0487 3.5603 4.5392 0.0000 -10695.0750 1433.2805 0.0000 0.0000 1815.5961 -7437.0502 309.9218 -9252.6463 -7468.9755 301.4399 156.4406 222.0012 30164.6592 -11.8989 54.2737
ENERGY: 1500000 2.2711 6.2449 3.2076 0.0000 -10901.8960 1557.6944 0.0000 0.0000 1739.8852 -7592.5928 296.9980 -9332.4780 -7471.5318 300.8436 345.4906 487.1665 30407.6365 -34.6573 43.3657
TCL: Running FEP window  20: Lambda1 0.9500000000000003 Lambda2 1.0    [dLambda 0.04999999999999971]
TCL: Setting parameter firsttimestep to 0
TCL: Setting parameter alchLambda to 0.9500000000000003
Info: NONBONDED TABLE R-SQUARED SPACING: 0.0625
Info: NONBONDED TABLE SIZE: 705 POINTS
TCL: Setting parameter alchLambda2 to 1.0
Info: NONBONDED TABLE R-SQUARED SPACING: 0.0625
Info: NONBONDED TABLE SIZE: 705 POINTS
TCL: Running for 1500000 steps
ETITLE: TS BOND ANGLE DIHED IMPRP ELECT VDW BOUNDARY MISC KINETIC TOTAL TEMP POTENTIAL TOTALAVG TEMPAVG PRESSURE GPRESSURE VOLUME PRESSAVG GPRESSAVG
ENERGY: 0 2.2711 6.2449 3.2076 0.0000 -10905.7684 1560.2309 0.0000 0.0000 1739.0138 -7594.8001 296.8492 -9333.8139 -7594.8001 296.8492 445.0752 516.0559 30407.6365 445.0752 516.0559
ENERGY: 300000 2.9498 7.6275 4.9600 0.0000 -10546.2790 1390.8638 0.0000 0.0000 1729.6155 -7410.2624 295.2449 -9139.8779 -7474.6525 297.6610 79.1852 192.8682 30087.6854 69.7459 135.6286
ENERGY: 600000 2.2522 2.9839 3.7766 0.0000 -10576.4384 1331.9358 0.0000 0.0000 1709.9619 -7525.5281 291.8901 -9235.4900 -7497.6242 296.3370 -787.1235 -788.9775 30108.4956 -146.4935 -88.1645
ENERGY: 900000 0.8193 5.1046 3.8501 0.0000 -10787.8794 1504.3531 0.0000 0.0000 1726.8049 -7546.9474 294.7652 -9273.7523 -7489.6382 296.4073 117.6759 219.4472 30548.4680 -133.8778 -58.8855
ENERGY: 1200000 2.3189 5.2419 4.9782 0.0000 -10786.6513 1484.7597 0.0000 0.0000 1758.0321 -7531.3206 300.0957 -9289.3527 -7489.6007 297.7367 200.7370 271.3128 30155.9367 -118.5285 -56.0746
ENERGY: 1500000 3.9593 7.1263 3.3101 0.0000 -10693.0526 1485.6847 0.0000 0.0000 1724.7441 -7468.2280 294.4134 -9192.9721 -7495.3636 297.4276 243.6977 312.0744 30585.0604 -67.2692 -3.1476
TCL: Exiting due to exit command.
