Info: SIMULATION PARAMETERS:
Info: TIMESTEP               2
Info: NUMBER OF STEPS        0
Info: STEPS PER CYCLE        10
Info: PERIODIC CELL BASIS 1  30.4663 0 0
Info: PERIODIC CELL BASIS 2  0 30.126 0
Info: PERIODIC CELL BASIS 3  0 0 32.1687
Info: PERIODIC CELL CENTER   0 0 0
Info: WRAPPING WATERS AROUND PERIODIC BOUNDARIES ON OUTPUT.
Info: WRAPPING ALL CLUSTERS AROUND PERIODIC BOUNDARIES ON OUTPUT.
Info: FIRST LDB TIMESTEP     50
Info: LAST LDB TIMESTEP     -1
Info: HOM BACKGROUND SCALING 1
Info: PME BACKGROUND SCALING 1
Info: MIN ATOMS PER PATCH    40
Info: EMPTY PATCH LOAD       40 ATOMS
Info: VELOCITY FILE          mobley_1903702_equil.vel
Info: CENTER OF MASS MOVING INITIALLY? NO
Info: DIELECTRIC             1
Info: EXCLUDE                SCALED ONE-FOUR
Info: 1-4 ELECTROSTATICS SCALED BY 0.833333
Info: MODIFIED 1-4 VDW PARAMETERS WILL BE USED
Info: DCD FILENAME           mobley_1903702_prod.dcd
Info: DCD FREQUENCY          100000
Info: DCD FIRST STEP         100000
Info: DCD FILE WILL CONTAIN UNIT CELL DATA
Info: XST FILENAME           mobley_1903702_prod.xst
Info: XST FREQUENCY          100000
Info: NO VELOCITY DCD OUTPUT
Info: NO FORCE DCD OUTPUT
Info: OUTPUT FILENAME        mobley_1903702_prod
Info: BINARY OUTPUT FILES WILL BE USED
Info: RESTART FILENAME       mobley_1903702_prod.restart
Info: RESTART FREQUENCY      100000
Info: BINARY RESTART FILES WILL BE USED
Info: CUTOFF                 9
Info: PAIRLIST DISTANCE      11
Info: PAIRLIST SHRINK RATE   0.01
Info: PAIRLIST GROW RATE     0.01
Info: PAIRLIST TRIGGER       0.3
Info: PAIRLISTS PER CYCLE    2
Info: PAIRLISTS ENABLED
Info: MARGIN                 2
Info: HYDROGEN GROUP CUTOFF  2.5
Info: PATCH DIMENSION        15.5
Info: ENERGY OUTPUT STEPS    100000
Info: ENERGY EVALUATION STEPS    100000
Info: OUTPUT ENERGY PRECISION 4
Info: CROSSTERM ENERGY INCLUDED IN DIHEDRAL
Info: TIMING OUTPUT STEPS    1000000
Info: PRESSURE OUTPUT STEPS  100000
Info: ALCHEMICAL FEP ON
Info: FEP CURRENT LAMBDA VALUE     0
Info: FEP COMPARISON LAMBDA VALUE  0.05
Info: FEP INTRA-ALCHEMICAL NON-BONDED INTERACTIONS WILL BE RETAINED
Info: FEP INTRA-ALCHEMICAL BONDED INTERACTIONS WILL BE RETAINED
Info: FEP VDW SHIFTING COEFFICIENT 5
Info: FEP ELEC. ACTIVE FOR ANNIHILATED PARTICLES BETWEEN LAMBDA = 0 AND LAMBDA = 0.5
Info: FEP ELEC. ACTIVE FOR EXNIHILATED PARTICLES BETWEEN LAMBDA = 0.5 AND LAMBDA = 1
Info: FEP VDW ACTIVE FOR ANNIHILATED PARTICLES BETWEEN LAMBDA = 0 AND LAMBDA = 1
Info: FEP VDW ACTIVE FOR EXNIHILATED PARTICLES BETWEEN LAMBDA = 0 AND LAMBDA = 1
Info: FEP BOND ACTIVE FOR ANNIHILATED PARTICLES BETWEEN LAMBDA = 1 AND LAMBDA = 1
Info: FEP BOND ACTIVE FOR EXNIHILATED PARTICLES BETWEEN LAMBDA = 0 AND LAMBDA = 0
Info: LANGEVIN DYNAMICS ACTIVE
Info: LANGEVIN TEMPERATURE   300
Info: LANGEVIN USING BBK INTEGRATOR
Info: LANGEVIN DAMPING COEFFICIENT IS 1 INVERSE PS
Info: LANGEVIN DYNAMICS APPLIED TO HYDROGENS
Info: LANGEVIN PISTON PRESSURE CONTROL ACTIVE
Info:        TARGET PRESSURE IS 1.01325 BAR
Info:     OSCILLATION PERIOD IS 50 FS
Info:             DECAY TIME IS 25 FS
Info:     PISTON TEMPERATURE IS 300 K
Info:       PRESSURE CONTROL IS GROUP-BASED
Info:    INITIAL STRAIN RATE IS -0.000188696 -0.000188696 -0.000188696
Info:       CELL FLUCTUATION IS ISOTROPIC
Info: PARTICLE MESH EWALD (PME) ACTIVE
Info: PME TOLERANCE               1e-06
Info: PME EWALD COEFFICIENT       0.348832
Info: PME INTERPOLATION ORDER     4
Info: PME GRID DIMENSIONS         32 32 36
Info: PME MAXIMUM GRID SPACING    1
Info: PME CALCULATION WILL BE PERFORMED ON GPU
Info: FULL ELECTROSTATIC EVALUATION FREQUENCY      2
Info: USING VERLET I (r-RESPA) MTS SCHEME.
Info: C1 SPLITTING OF LONG RANGE ELECTROSTATICS
Info: PLACING ATOMS IN PATCHES BY HYDROGEN GROUPS
Info: RIGID BONDS TO HYDROGEN : ALL
Info:         ERROR TOLERANCE : 1e-08
Info:          MAX ITERATIONS : 100
Info: RIGID WATER USING SETTLE ALGORITHM
Info: RANDOM NUMBER SEED     1743740067
Info: USE HYDROGEN BONDS?    NO
Info: Using AMBER format force field!
Info: AMBER PARM FILE        mobley_1903702.prmtop
Info: COORDINATE PDB         mobley_1903702.pdb
Info: Exclusions will be read from PARM file!
Info: SCNB (VDW SCALING)     2
Info: USING ARITHMETIC MEAN TO COMBINE L-J SIGMA PARAMETERS
Info: BINARY COORDINATES     mobley_1903702_equil.coor
Info: SUMMARY OF PARAMETERS:
Info: 7 BONDS
Info: 7 ANGLES
Info:   7 HARMONIC
Info:   0 COSINE-BASED
Info: 9 DIHEDRAL
Info: 0 IMPROPER
Info: 0 CROSSTERM
Info: 0 VDW
Info: 21 VDW_PAIRS
Info: 0 NBTHOLE_PAIRS
Info: To read alchdata from file: mobley_1903702.pdb
Info: To read alchflag data from column: 5
Info: STRUCTURE SUMMARY:
Info: 2910 ATOMS
Info: 2909 BONDS
Info: 25 ANGLES
Info: 39 DIHEDRALS
Info: 0 IMPROPERS
Info: 0 CROSSTERMS
Info: 2964 EXCLUSIONS
Info: 2905 RIGID BONDS
Info: ALCH: 0 ATOMS TO DISAPPEAR IN FINAL STATE
Info: ALCH: 15 ATOMS TO APPEAR IN FINAL STATE
Info: 5825 DEGREES OF FREEDOM
Info: 970 HYDROGEN GROUPS
Info: 4 ATOMS IN LARGEST HYDROGEN GROUP
Info: 970 MIGRATION GROUPS
Info: 4 ATOMS IN LARGEST MIGRATION GROUP
Info: TOTAL MASS = 17459.6 amu
Info: TOTAL CHARGE = 0.00010002 e
Info: MASS DENSITY = 0.981965 g/cm^3
Info: ATOM DENSITY = 0.098559 atoms/A^3
Info: ADDED 0 IMPLICIT EXCLUSIONS
Info: NONBONDED TABLE R-SQUARED SPACING: 0.0625
Info: NONBONDED TABLE SIZE: 705 POINTS
Info: REMOVING COM VELOCITY 0.0869828 -0.261155 0.00660815
Info: Use 3D box decompostion in PME FFT.
Info: Updated CUDA force table with 4096 elements.
Info: Updated CUDA LJ table with 6 x 6 elements.
Info: Found 18 unique exclusion lists needing 40 bytes
TCL: Running for 1500000 steps
ETITLE: TS BOND ANGLE DIHED IMPRP ELECT VDW BOUNDARY MISC KINETIC TOTAL TEMP POTENTIAL TOTALAVG TEMPAVG PRESSURE GPRESSURE VOLUME PRESSAVG GPRESSAVG
ENERGY: 0 0.8952 9.4974 3.5307 0.0000 -10496.9102 1414.6591 0.0000 0.0000 1734.3412 -7333.9865 299.6602 -9068.3278 -7333.9865 299.6602 269.2579 356.6260 29525.4595 269.2579 356.6260
ENERGY: 300000 2.6918 5.4659 3.2539 0.0000 -10615.6057 1427.6697 0.0000 0.0000 1752.2006 -7424.3238 302.7459 -9176.5244 -7396.5614 301.6205 106.7831 141.6655 29494.5571 -36.4122 15.4098
ENERGY: 600000 0.6655 7.3979 2.8949 0.0000 -10508.5920 1401.2105 0.0000 0.0000 1687.6486 -7408.7745 291.5926 -9096.4231 -7407.4865 299.7190 -86.2462 55.1191 29484.4339 -19.8797 44.6197
ENERGY: 900000 1.7792 6.8305 3.0853 0.0000 -10431.4163 1370.6562 0.0000 0.0000 1817.2733 -7231.7918 313.9892 -9049.0651 -7381.5817 302.3130 -71.9694 -56.4024 29960.8329 -121.2179 -59.2547
ENERGY: 1200000 0.3277 4.9798 2.2669 0.0000 -10570.6898 1376.6054 0.0000 0.0000 1726.1699 -7460.3401 298.2483 -9186.5101 -7378.0568 301.9914 -499.9802 -417.3837 29726.1268 -145.3089 -84.6078
ENERGY: 1500000 0.8710 6.7319 2.6093 0.0000 -10625.7802 1473.3816 0.0000 0.0000 1713.7086 -7428.4777 296.0953 -9142.1863 -7380.9586 301.6168 218.8277 290.0324 29721.7267 -177.6287 -114.4956
TCL: Running FEP window   2: Lambda1 0.05   Lambda2 0.1    [dLambda 0.05  ]
TCL: Setting parameter firsttimestep to 0
TCL: Setting parameter alchLambda to 0.05
Info: NONBONDED TABLE R-SQUARED SPACING: 0.0625
Info: NONBONDED TABLE SIZE: 705 POINTS
TCL: Setting parameter alchLambda2 to 0.1
Info: NONBONDED TABLE R-SQUARED SPACING: 0.0625
Info: NONBONDED TABLE SIZE: 705 POINTS
TCL: Running for 1500000 steps
ETITLE: TS BOND ANGLE DIHED IMPRP ELECT VDW BOUNDARY MISC KINETIC TOTAL TEMP POTENTIAL TOTALAVG TEMPAVG PRESSURE GPRESSURE VOLUME PRESSAVG GPRESSAVG
ENERGY: 0 0.8710 6.7319 2.6093 0.0000 -10625.7790 1476.0476 0.0000 0.0000 1712.8119 -7426.7073 295.9403 -9139.5191 -7426.7073 295.9403 189.8795 294.8082 29721.7267 189.8795 294.8082
ENERGY: 300000 0.6978 9.0445 3.0433 0.0000 -10539.0587 1401.9908 0.0000 0.0000 1667.3854 -7456.8969 288.0915 -9124.2823 -7448.3301 292.5784 -245.7328 -204.5962 30050.5783 145.3100 224.0358
ENERGY: 600000 0.3541 6.6306 2.7855 0.0000 -10487.9648 1412.2317 0.0000 0.0000 1712.6014 -7353.3616 295.9039 -9065.9630 -7423.0136 295.2952 -234.8928 -153.7080 30302.7892 107.0066 170.8523
ENERGY: 900000 1.3652 6.7233 3.2018 0.0000 -10594.6398 1418.6054 0.0000 0.0000 1727.0661 -7437.6779 298.4032 -9164.7441 -7405.0848 297.0259 -40.2923 9.5011 29724.0588 -100.0960 -37.7291
ENERGY: 1200000 0.8276 6.3343 2.6631 0.0000 -10594.2841 1427.2215 0.0000 0.0000 1741.7975 -7415.4402 300.9484 -9157.2376 -7400.9616 296.7659 -25.5578 18.9838 29407.4193 -82.2368 -21.9938
ENERGY: 1500000 1.4737 7.1385 2.7770 0.0000 -10542.9760 1396.9597 0.0000 0.0000 1694.3792 -7440.2479 292.7555 -9134.6271 -7402.3769 297.1908 -135.7430 -110.9167 29523.5944 -67.3706 -15.6186
TCL: Running FEP window   3: Lambda1 0.1    Lambda2 0.15000000000000002 [dLambda 0.05000000000000002]
TCL: Setting parameter firsttimestep to 0
TCL: Setting parameter alchLambda to 0.1
Info: NONBONDED TABLE R-SQUARED SPACING: 0.0625
Info: NONBONDED TABLE SIZE: 705 POINTS
TCL: Setting parameter alchLambda2 to 0.15000000000000002
Info: NONBONDED TABLE R-SQUARED SPACING: 0.0625
Info: NONBONDED TABLE SIZE: 705 POINTS
TCL: Running for 1500000 steps
ETITLE: TS BOND ANGLE DIHED IMPRP ELECT VDW BOUNDARY MISC KINETIC TOTAL TEMP POTENTIAL TOTALAVG TEMPAVG PRESSURE GPRESSURE VOLUME PRESSAVG GPRESSAVG
ENERGY: 0 1.4737 7.1385 2.7770 0.0000 -10542.9744 1397.5400 0.0000 0.0000 1693.5037 -7440.5414 292.6042 -9134.0451 -7440.5414 292.6042 -191.2115 -107.6762 29523.5944 -191.2115 -107.6762
ENERGY: 300000 1.0054 8.5878 3.5416 0.0000 -10538.7217 1456.7700 0.0000 0.0000 1763.9986 -7304.8183 304.7844 -9068.8169 -7367.1025 298.3302 383.1164 476.5285 29875.3078 -77.1101 1.2146
ENERGY: 600000 0.9087 5.0860 2.6427 0.0000 -10399.7441 1355.6633 0.0000 0.0000 1665.5440 -7369.8993 287.7734 -9035.4434 -7349.1214 299.3542 -450.3458 -294.4850 29890.8381 -175.2473 -82.3255
ENERGY: 900000 0.8332 6.1040 3.3457 0.0000 -10583.4040 1383.7339 0.0000 0.0000 1703.1412 -7486.2461 294.2694 -9189.3873 -7357.5076 299.8952 -527.8886 -527.2457 29854.7497 -251.7783 -175.8026
ENERGY: 1200000 5.6636 7.3539 2.3439 0.0000 -10544.8972 1410.3317 0.0000 0.0000 1710.4949 -7408.7092 295.5400 -9119.2041 -7369.2858 299.6376 -231.8942 -222.0809 30141.3122 -174.9786 -102.2375
ENERGY: 1500000 0.3488 9.3519 3.3494 0.0000 -10690.3059 1545.3360 0.0000 0.0000 1787.2980 -7344.6218 308.8100 -9131.9198 -7362.3228 300.4292 1056.1548 1130.7350 29458.5670 -150.9693 -83.0447
TCL: Running FEP window   4: Lambda1 0.15000000000000002 Lambda2 0.2    [dLambda 0.04999999999999999]
TCL: Setting parameter firsttimestep to 0
TCL: Setting parameter alchLambda to 0.15000000000000002
Info: NONBONDED TABLE R-SQUARED SPACING: 0.0625
Info: NONBONDED TABLE SIZE: 705 POINTS
TCL: Setting parameter alchLambda2 to 0.2
Info: NONBONDED TABLE R-SQUARED SPACING: 0.0625
Info: NONBONDED TABLE SIZE: 705 POINTS
TCL: Running for 1500000 steps
ETITLE: TS BOND ANGLE DIHED IMPRP ELECT VDW BOUNDARY MISC KINETIC TOTAL TEMP POTENTIAL TOTALAVG TEMPAVG PRESSURE GPRESSURE VOLUME PRESSAVG GPRESSAVG
ENERGY: 0 0.3488 9.3519 3.3494 0.0000 -10690.3074 1545.8028 0.0000 0.0000 1786.4433 -7345.0112 308.6624 -9131.4545 -7345.0112 308.6624 1051.5503 1135.7841 29458.5670 1051.5503 1135.7841
ENERGY: 300000 0.9312 5.2426 3.8826 0.0000 -10639.2323 1483.0193 0.0000 0.0000 1688.8550 -7457.3016 291.8010 -9146.1566 -7421.3206 297.6806 355.3824 360.2099 29851.9287 288.1681 334.6426
ENERGY: 600000 0.9343 7.2161 2.9465 0.0000 -10547.3799 1378.9055 0.0000 0.0000 1691.2165 -7466.1611 292.2090 -9157.3776 -7419.8943 295.3080 -691.0506 -573.7437 29904.3475 35.0231 101.7436
ENERGY: 900000 3.3088 3.7447 5.2585 0.0000 -10481.9229 1402.6064 0.0000 0.0000 1803.7154 -7263.2890 311.6466 -9067.0044 -7388.5662 297.9380 -327.8234 -272.9674 30557.1292 42.0693 104.9084
ENERGY: 1200000 1.0002 11.2460 5.4274 0.0000 -10589.3294 1459.6372 0.0000 0.0000 1708.3377 -7403.6809 295.1672 -9112.0185 -7391.2800 299.3255 203.0165 268.6822 29928.4054 63.2477 119.5087
ENERGY: 1500000 0.5170 5.4881 4.4070 0.0000 -10495.8685 1344.7478 0.0000 0.0000 1702.3381 -7438.3705 294.1306 -9140.7086 -7388.1644 299.7718 -794.8382 -743.3317 30198.5661 34.1866 88.0763
TCL: Running FEP window   5: Lambda1 0.2    Lambda2 0.25   [dLambda 0.04999999999999999]
TCL: Setting parameter firsttimestep to 0
TCL: Setting parameter alchLambda to 0.2
Info: NONBONDED TABLE R-SQUARED SPACING: 0.0625
Info: NONBONDED TABLE SIZE: 705 POINTS
TCL: Setting parameter alchLambda2 to 0.25
Info: NONBONDED TABLE R-SQUARED SPACING: 0.0625
Info: NONBONDED TABLE SIZE: 705 POINTS
TCL: Running for 1500000 steps
ETITLE: TS BOND ANGLE DIHED IMPRP ELECT VDW BOUNDARY MISC KINETIC TOTAL TEMP POTENTIAL TOTALAVG TEMPAVG PRESSURE GPRESSURE VOLUME PRESSAVG GPRESSAVG
ENERGY: 0 0.5170 5.4881 4.4070 0.0000 -10495.8699 1344.5649 0.0000 0.0000 1701.4643 -7439.4287 293.9797 -9140.8930 -7439.4287 293.9797 -820.0133 -740.6316 30198.5661 -820.0133 -740.6316
ENERGY: 300000 1.8982 10.6401 4.1548 0.0000 -10600.3148 1437.3971 0.0000 0.0000 1678.6780 -7467.5466 290.0426 -9146.2246 -7420.6004 296.7826 -20.9343 -36.0900 29978.9788 -311.8472 -240.5668
ENERGY: 600000 1.9667 6.3925 2.7937 0.0000 -10580.8600 1411.1751 0.0000 0.0000 1713.4538 -7445.0782 296.0512 -9158.5320 -7409.2291 297.5493 -80.0464 -12.6587 29750.5380 -140.9294 -86.4506
ENERGY: 900000 0.9093 4.9101 2.6854 0.0000 -10449.6138 1353.7860 0.0000 0.0000 1704.2715 -7383.0514 294.4647 -9087.3230 -7384.2841 298.4885 -624.6003 -536.3985 30372.5898 -102.3363 -35.8004
ENERGY: 1200000 0.5665 10.7944 3.5624 0.0000 -10584.3458 1481.8653 0.0000 0.0000 1710.6465 -7376.9107 295.5662 -9087.5572 -7390.2212 297.3146 651.7212 707.2196 29497.3790 -21.3082 43.2259
ENERGY: 1500000 1.9508 9.2352 3.4133 0.0000 -10813.4403 1546.5131 0.0000 0.0000 1781.1436 -7471.1843 307.7467 -9252.3279 -7407.3339 297.7619 658.9205 711.4651 29587.9087 83.2182 146.3378
TCL: Running FEP window   6: Lambda1 0.25   Lambda2 0.3    [dLambda 0.04999999999999999]
TCL: Setting parameter firsttimestep to 0
TCL: Setting parameter alchLambda to 0.25
Info: NONBONDED TABLE R-SQUARED SPACING: 0.0625
Info: NONBONDED TABLE SIZE: 705 POINTS
TCL: Setting parameter alchLambda2 to 0.3
Info: NONBONDED TABLE R-SQUARED SPACING: 0.0625
Info: NONBONDED TABLE SIZE: 705 POINTS
TCL: Running for 1500000 steps
ETITLE: TS BOND ANGLE DIHED IMPRP ELECT VDW BOUNDARY MISC KINETIC TOTAL TEMP POTENTIAL TOTALAVG TEMPAVG PRESSURE GPRESSURE VOLUME PRESSAVG GPRESSAVG
ENERGY: 0 1.9508 9.2352 3.4133 0.0000 -10813.4406 1546.7134 0.0000 0.0000 1780.2963 -7471.8316 307.6003 -9252.1279 -7471.8316 307.6003 621.6149 714.3280 29587.9087 621.6149 714.3280
ENERGY: 300000 2.0713 8.5020 3.2388 0.0000 -10427.1620 1371.9788 0.0000 0.0000 1695.7483 -7345.6228 292.9921 -9041.3711 -7387.6267 300.8845 -271.7776 -181.1737 30107.3640 -40.7580 22.7722
ENERGY: 600000 1.7612 7.6120 2.9110 0.0000 -10523.7410 1352.9330 0.0000 0.0000 1770.4147 -7388.1090 305.8930 -9158.5238 -7389.6737 300.9777 -805.4572 -754.0937 30026.5159 -38.1053 17.5309
ENERGY: 900000 0.6369 7.3223 2.8565 0.0000 -10658.9294 1480.8718 0.0000 0.0000 1758.5809 -7408.6610 303.8483 -9167.2419 -7388.7740 302.1828 339.5259 412.9815 29704.7297 -193.7783 -132.4447
ENERGY: 1200000 1.4590 10.5973 3.8650 0.0000 -10359.3846 1297.1359 0.0000 0.0000 1757.1329 -7289.1944 303.5981 -9046.3273 -7392.0126 301.3729 -1054.4961 -986.9984 30346.6746 -248.6585 -182.3535
ENERGY: 1500000 1.7957 4.9067 3.3014 0.0000 -10415.3539 1371.8651 0.0000 0.0000 1659.0622 -7374.4228 286.6534 -9033.4850 -7388.3418 300.2496 -124.0786 -90.3976 30029.8635 -223.2885 -161.5696
TCL: Running FEP window   7: Lambda1 0.3    Lambda2 0.35   [dLambda 0.04999999999999999]
TCL: Setting parameter firsttimestep to 0
TCL: Setting parameter alchLambda to 0.3
Info: NONBONDED TABLE R-SQUARED SPACING: 0.0625
Info: NONBONDED TABLE SIZE: 705 POINTS
TCL: Setting parameter alchLambda2 to 0.35
Info: NONBONDED TABLE R-SQUARED SPACING: 0.0625
Info: NONBONDED TABLE SIZE: 705 POINTS
TCL: Running for 1500000 steps
ETITLE: TS BOND ANGLE DIHED IMPRP ELECT VDW BOUNDARY MISC KINETIC TOTAL TEMP POTENTIAL TOTALAVG TEMPAVG PRESSURE GPRESSURE VOLUME PRESSAVG GPRESSAVG
ENERGY: 0 1.7957 4.9067 3.3014 0.0000 -10415.3553 1371.6488 0.0000 0.0000 1658.2268 -7375.4759 286.5091 -9033.7027 -7375.4759 286.5091 -160.6273 -89.6339 30029.8635 -160.6273 -89.6339
ENERGY: 300000 1.1348 5.1131 3.2622 0.0000 -10545.2621 1446.9374 0.0000 0.0000 1706.6836 -7382.1309 294.8815 -9088.8145 -7358.5960 293.7059 440.4500 470.1885 29734.6247 -3.0483 36.8428
ENERGY: 600000 0.7839 5.0331 4.3141 0.0000 -10632.7594 1458.1827 0.0000 0.0000 1703.0019 -7461.4437 294.2453 -9164.4456 -7368.6458 297.1942 166.6474 163.6850 29720.9930 93.9423 120.8797
ENERGY: 900000 1.3041 5.8906 2.2218 0.0000 -10551.1998 1336.5937 0.0000 0.0000 1719.4831 -7485.7065 297.0930 -9205.1896 -7378.9875 297.6315 -828.0922 -812.5706 29809.7913 -38.0324 -0.6840
ENERGY: 1200000 0.4310 8.3063 3.8665 0.0000 -10456.0974 1374.8561 0.0000 0.0000 1742.9175 -7325.7201 301.1420 -9068.6376 -7363.4315 298.9768 -123.9716 -18.7858 29711.3381 -62.1289 -15.9581
ENERGY: 1500000 0.4307 4.3413 2.6913 0.0000 -10397.6910 1304.5282 0.0000 0.0000 1724.6605 -7361.0390 297.9875 -9085.6995 -7379.6452 298.9672 -762.9968 -719.1924 29754.4263 -49.7368 0.4496
TCL: Running FEP window   8: Lambda1 0.35   Lambda2 0.39999999999999997 [dLambda 0.04999999999999999]
TCL: Setting parameter firsttimestep to 0
TCL: Setting parameter alchLambda to 0.35
Info: NONBONDED TABLE R-SQUARED SPACING: 0.0625
Info: NONBONDED TABLE SIZE: 705 POINTS
TCL: Setting parameter alchLambda2 to 0.39999999999999997
Info: NONBONDED TABLE R-SQUARED SPACING: 0.0625
Info: NONBONDED TABLE SIZE: 705 POINTS
TCL: Running for 1500000 steps
ETITLE: TS BOND ANGLE DIHED IMPRP ELECT VDW BOUNDARY MISC KINETIC TOTAL TEMP POTENTIAL TOTALAVG TEMPAVG PRESSURE GPRESSURE VOLUME PRESSAVG GPRESSAVG
ENERGY: 0 0.4307 4.3413 2.6913 0.0000 -10397.6918 1304.3078 0.0000 0.0000 1723.7880 -7362.1327 297.8368 -9085.9207 -7362.1327 297.8368 -804.0968 -715.3412 29754.4263 -804.0968 -715.3412
ENERGY: 300000 1.9669 9.7504 3.0999 0.0000 -10664.8117 1490.6692 0.0000 0.0000 1727.1086 -7432.2167 298.4105 -9159.3252 -7381.8102 301.4393 617.9106 645.5765 29423.1177 -338.8109 -284.3800
ENERGY: 600000 0.3942 7.4250 3.6046 0.0000 -10402.4399 1332.7975 0.0000 0.0000 1751.5230 -7306.6954 302.6288 -9058.2185 -7377.3997 299.5422 -577.9323 -510.2838 30203.9991 -282.0258 -228.9384
ENERGY: 900000 0.9088 4.7063 3.3823 0.0000 -10730.5469 1490.6517 0.0000 0.0000 1729.8901 -7501.0077 298.8911 -9230.8978 -7396.8866 298.9291 277.5112 344.4057 29369.5061 23.6845 79.3149
ENERGY: 1200000 1.5161 5.7071 2.4043 0.0000 -10634.6562 1470.5648 0.0000 0.0000 1694.2218 -7460.2421 292.7283 -9154.4639 -7397.8173 299.6816 151.9815 211.7803 30277.1310 17.2268 72.9729
ENERGY: 1500000 0.6483 7.8292 2.7768 0.0000 -10634.1658 1465.5206 0.0000 0.0000 1701.8155 -7455.5753 294.0404 -9157.3909 -7399.8680 299.0436 259.0953 369.6191 29698.9962 -29.2978 29.0561
TCL: Running FEP window   9: Lambda1 0.39999999999999997 Lambda2 0.44999999999999996 [dLambda 0.04999999999999999]
TCL: Setting parameter firsttimestep to 0
TCL: Setting parameter alchLambda to 0.39999999999999997
Info: NONBONDED TABLE R-SQUARED SPACING: 0.0625
Info: NONBONDED TABLE SIZE: 705 POINTS
TCL: Setting parameter alchLambda2 to 0.44999999999999996
Info: NONBONDED TABLE R-SQUARED SPACING: 0.0625
Info: NONBONDED TABLE SIZE: 705 POINTS
TCL: Running for 1500000 steps
ETITLE: TS BOND ANGLE DIHED IMPRP ELECT VDW BOUNDARY MISC KINETIC TOTAL TEMP POTENTIAL TOTALAVG TEMPAVG PRESSURE GPRESSURE VOLUME PRESSAVG GPRESSAVG
ENERGY: 0 0.6482 7.8292 2.7768 0.0000 -10634.1661 1465.3487 0.0000 0.0000 1700.9554 -7456.6077 293.8917 -9157.5631 -7456.6077 293.8917 294.1260 372.8432 29698.9962 294.1260 372.8432
ENERGY: 300000 3.2726 9.6504 2.3975 0.0000 -10553.9136 1383.6111 0.0000 0.0000 1746.6535 -7408.3285 301.7875 -9154.9820 -7397.1592 300.1268 -536.2881 -516.0610 30079.3548 -504.3795 -452.8107
ENERGY: 600000 0.8500 4.6227 2.6845 0.0000 -10586.2511 1476.8048 0.0000 0.0000 1699.1720 -7402.1170 293.5836 -9101.2890 -7393.2941 299.5315 543.9349 606.6673 29686.3426 -317.1666 -261.8954
ENERGY: 900000 0.2562 5.4579 4.2061 0.0000 -10694.2791 1519.9460 0.0000 0.0000 1678.2580 -7486.1550 289.9701 -9164.4130 -7406.2052 297.8212 898.2376 912.3361 29364.9538 -149.6041 -89.8875
ENERGY: 1200000 1.2040 6.9193 3.6397 0.0000 -10652.5625 1431.6808 0.0000 0.0000 1723.1455 -7485.9732 297.7258 -9209.1187 -7402.3731 298.8041 -235.1283 -159.5682 29911.5238 -233.0301 -172.9011
ENERGY: 1500000 1.2735 8.2170 2.5236 0.0000 -10440.1546 1332.5727 0.0000 0.0000 1724.1082 -7371.4595 297.8921 -9095.5678 -7396.0199 298.8955 -634.3838 -589.3383 29926.8471 -198.9755 -137.2942
TCL: Running FEP window  10: Lambda1 0.44999999999999996 Lambda2 0.49999999999999994 [dLambda 0.04999999999999999]
TCL: Setting parameter firsttimestep to 0
TCL: Setting parameter alchLambda to 0.44999999999999996
Info: NONBONDED TABLE R-SQUARED SPACING: 0.0625
Info: NONBONDED TABLE SIZE: 705 POINTS
TCL: Setting parameter alchLambda2 to 0.49999999999999994
Info: NONBONDED TABLE R-SQUARED SPACING: 0.0625
Info: NONBONDED TABLE SIZE: 705 POINTS
TCL: Running for 1500000 steps
ETITLE: TS BOND ANGLE DIHED IMPRP ELECT VDW BOUNDARY MISC KINETIC TOTAL TEMP POTENTIAL TOTALAVG TEMPAVG PRESSURE GPRESSURE VOLUME PRESSAVG GPRESSAVG
ENERGY: 0 1.2735 8.2170 2.5236 0.0000 -10440.1556 1332.9430 0.0000 0.0000 1723.2356 -7371.9629 297.7413 -9095.1984 -7371.9629 297.7413 -667.8071 -579.3933 29926.8471 -667.8071 -579.3933
ENERGY: 300000 1.5921 3.7906 4.5735 0.0000 -10563.1603 1438.7242 0.0000 0.0000 1758.8126 -7355.6672 303.8883 -9114.4797 -7349.5254 304.3451 -258.2738 -120.9632 30347.2905 -365.6009 -263.0630
ENERGY: 600000 1.0508 6.6355 2.5670 0.0000 -10660.4364 1471.6633 0.0000 0.0000 1761.9720 -7416.5478 304.4342 -9178.5197 -7371.0355 303.0561 442.9742 485.6691 29478.8113 -71.9962 5.4156
ENERGY: 900000 1.4241 4.1410 2.7130 0.0000 -10629.2515 1446.5691 0.0000 0.0000 1719.1359 -7455.2684 297.0330 -9174.4043 -7361.6297 303.2430 -172.1965 -20.5356 29635.6803 -47.9646 34.0872
ENERGY: 1200000 0.8456 5.2925 4.5939 0.0000 -10519.3273 1406.6553 0.0000 0.0000 1666.3289 -7435.6112 287.9090 -9101.9401 -7381.3669 301.2313 -272.4365 -167.8522 30059.1632 -54.8927 27.3073
ENERGY: 1500000 0.9861 5.0789 4.1766 0.0000 -10541.4680 1435.2724 0.0000 0.0000 1693.2516 -7402.7025 292.5607 -9095.9541 -7381.8504 300.1403 -186.7877 -186.1430 30577.4696 -70.1950 5.0439
TCL: Running FEP window  11: Lambda1 0.49999999999999994 Lambda2 0.5499999999999999 [dLambda 0.04999999999999999]
TCL: Setting parameter firsttimestep to 0
TCL: Setting parameter alchLambda to 0.49999999999999994
Info: NONBONDED TABLE R-SQUARED SPACING: 0.0625
Info: NONBONDED TABLE SIZE: 705 POINTS
TCL: Setting parameter alchLambda2 to 0.5499999999999999
Info: NONBONDED TABLE R-SQUARED SPACING: 0.0625
Info: NONBONDED TABLE SIZE: 705 POINTS
TCL: Running for 1500000 steps
ETITLE: TS BOND ANGLE DIHED IMPRP ELECT VDW BOUNDARY MISC KINETIC TOTAL TEMP POTENTIAL TOTALAVG TEMPAVG PRESSURE GPRESSURE VOLUME PRESSAVG GPRESSAVG
ENERGY: 0 0.9861 5.0789 4.1766 0.0000 -10541.4687 1435.5667 0.0000 0.0000 1692.4151 -7403.2453 292.4161 -9095.6604 -7403.2453 292.4161 -247.5038 -178.3854 30577.4696 -247.5038 -178.3854
ENERGY: 300000 1.7587 6.0981 2.9788 0.0000 -10644.3584 1460.6424 0.0000 0.0000 1732.7053 -7440.1752 299.3775 -9172.8805 -7366.9207 299.5514 -62.4692 27.8091 30140.2106 -184.1054 -92.0808
ENERGY: 600000 1.5566 5.7136 3.2172 0.0000 -10599.8817 1448.1950 0.0000 0.0000 1747.5169 -7393.6824 301.9367 -9141.1993 -7366.9377 301.1239 163.8596 134.6284 30031.5563 -157.7945 -95.3173
ENERGY: 900000 1.4155 7.3166 4.3987 0.0000 -10403.8014 1341.5359 0.0000 0.0000 1739.1716 -7309.9631 300.4947 -9049.1346 -7366.8323 301.1609 -704.2040 -603.9184 30403.8097 -105.3611 -36.4180
ENERGY: 1200000 1.9901 5.6870 3.3290 0.0000 -10689.6416 1500.3490 0.0000 0.0000 1715.2282 -7463.0583 296.3578 -9178.2865 -7378.5553 300.7142 515.9114 619.5788 29552.3359 -75.0515 1.9241
ENERGY: 1500000 0.3680 8.4275 2.7000 0.0000 -10618.6211 1405.4051 0.0000 0.0000 1785.8161 -7415.9044 308.5540 -9201.7205 -7376.8915 301.5676 -178.0893 -117.6832 29714.7845 -119.5496 -45.6425
TCL: Running FEP window  12: Lambda1 0.5499999999999999 Lambda2 0.6    [dLambda 0.050000000000000044]
TCL: Setting parameter firsttimestep to 0
TCL: Setting parameter alchLambda to 0.5499999999999999
Info: NONBONDED TABLE R-SQUARED SPACING: 0.0625
Info: NONBONDED TABLE SIZE: 705 POINTS
TCL: Setting parameter alchLambda2 to 0.6
Info: NONBONDED TABLE R-SQUARED SPACING: 0.0625
Info: NONBONDED TABLE SIZE: 705 POINTS
TCL: Running for 1500000 steps
ETITLE: TS BOND ANGLE DIHED IMPRP ELECT VDW BOUNDARY MISC KINETIC TOTAL TEMP POTENTIAL TOTALAVG TEMPAVG PRESSURE GPRESSURE VOLUME PRESSAVG GPRESSAVG
ENERGY: 0 0.3680 8.4275 2.7000 0.0000 -10618.6940 1405.4259 0.0000 0.0000 1784.9683 -7416.8044 308.4075 -9201.7727 -7416.8044 308.4075 -202.1443 -111.1442 29714.7845 -202.1443 -111.1442
ENERGY: 300000 2.3365 4.6065 2.8671 0.0000 -10470.5448 1352.7770 0.0000 0.0000 1747.9723 -7359.9853 302.0153 -9107.9576 -7376.3690 302.4405 -494.1189 -387.3726 29752.3991 -457.0563 -398.4631
ENERGY: 600000 1.0067 7.3380 2.4569 0.0000 -10498.8045 1363.0079 0.0000 0.0000 1747.3370 -7377.6579 301.9056 -9124.9950 -7367.2872 301.4130 -458.0607 -396.8980 30056.0635 -341.0430 -286.0342
ENERGY: 900000 1.4206 6.9149 3.1048 0.0000 -10525.4615 1437.3271 0.0000 0.0000 1782.5128 -7294.1813 307.9833 -9076.6941 -7357.1197 301.3745 394.2475 428.4808 29822.2845 -185.4790 -125.4616
ENERGY: 1200000 2.5749 7.5462 5.2855 0.0000 -10501.1027 1361.1588 0.0000 0.0000 1750.7825 -7373.7548 302.5009 -9124.5374 -7366.1013 301.4442 -544.3077 -507.4990 29879.5983 -98.0917 -50.0740
ENERGY: 1500000 0.7237 11.0216 4.0648 0.0000 -10561.1297 1374.0299 0.0000 0.0000 1686.6438 -7484.6459 291.4190 -9171.2897 -7373.3604 300.5386 -446.6426 -361.5253 29773.0655 -78.1046 -23.1215
TCL: Running FEP window  13: Lambda1 0.6    Lambda2 0.65   [dLambda 0.050000000000000044]
TCL: Setting parameter firsttimestep to 0
TCL: Setting parameter alchLambda to 0.6
Info: NONBONDED TABLE R-SQUARED SPACING: 0.0625
Info: NONBONDED TABLE SIZE: 705 POINTS
TCL: Setting parameter alchLambda2 to 0.65
Info: NONBONDED TABLE R-SQUARED SPACING: 0.0625
Info: NONBONDED TABLE SIZE: 705 POINTS
TCL: Running for 1500000 steps
ETITLE: TS BOND ANGLE DIHED IMPRP ELECT VDW BOUNDARY MISC KINETIC TOTAL TEMP POTENTIAL TOTALAVG TEMPAVG PRESSURE GPRESSURE VOLUME PRESSAVG GPRESSAVG
ENERGY: 0 0.7237 11.0216 4.0648 0.0000 -10561.1120 1373.6951 0.0000 0.0000 1685.7424 -7485.8644 291.2632 -9171.6068 -7485.8644 291.2632 -434.0265 -361.6197 29773.0655 -434.0265 -361.6197
ENERGY: 300000 1.5687 6.0394 2.6914 0.0000 -10599.8986 1384.7001 0.0000 0.0000 1751.1894 -7453.7096 302.5712 -9204.8990 -7425.6415 298.0151 -243.3346 -144.6717 29350.6534 -313.3883 -234.2469
ENERGY: 600000 0.5783 8.6482 2.5052 0.0000 -10524.3569 1375.2673 0.0000 0.0000 1764.6886 -7372.6693 304.9036 -9137.3579 -7403.1629 299.0522 -223.9336 -178.6031 29689.3891 -402.0982 -349.6283
ENERGY: 900000 0.3201 6.5820 2.4261 0.0000 -10564.7820 1472.2608 0.0000 0.0000 1739.6653 -7343.5277 300.5801 -9083.1931 -7370.2164 299.9505 532.6355 512.1619 30113.6555 -293.7997 -256.8357
ENERGY: 1200000 0.7188 5.1838 2.8607 0.0000 -10462.0858 1340.5039 0.0000 0.0000 1796.4272 -7316.3915 310.3874 -9112.8187 -7368.3134 300.8087 -764.6313 -688.1823 30331.6335 -339.5685 -295.5705
ENERGY: 1500000 1.5329 4.9384 4.2221 0.0000 -10574.2779 1470.6198 0.0000 0.0000 1686.7362 -7406.2285 291.4349 -9092.9647 -7378.1324 299.7555 523.3690 657.5380 29768.5731 -272.2346 -224.5385
TCL: Running FEP window  14: Lambda1 0.65   Lambda2 0.7000000000000001 [dLambda 0.050000000000000044]
TCL: Setting parameter firsttimestep to 0
TCL: Setting parameter alchLambda to 0.65
Info: NONBONDED TABLE R-SQUARED SPACING: 0.0625
Info: NONBONDED TABLE SIZE: 705 POINTS
TCL: Setting parameter alchLambda2 to 0.7000000000000001
Info: NONBONDED TABLE R-SQUARED SPACING: 0.0625
Info: NONBONDED TABLE SIZE: 705 POINTS
TCL: Running for 1500000 steps
ETITLE: TS BOND ANGLE DIHED IMPRP ELECT VDW BOUNDARY MISC KINETIC TOTAL TEMP POTENTIAL TOTALAVG TEMPAVG PRESSURE GPRESSURE VOLUME PRESSAVG GPRESSAVG
ENERGY: 0 1.5329 4.9384 4.2221 0.0000 -10574.5157 1471.7859 0.0000 0.0000 1685.8508 -7406.1856 291.2820 -9092.0365 -7406.1856 291.2820 605.2936 680.6809 29768.5731 605.2936 680.6809
ENERGY: 300000 1.3459 4.1511 3.6094 0.0000 -10657.9996 1518.8227 0.0000 0.0000 1735.2078 -7394.8627 299.8099 -9130.0706 -7388.7807 297.9751 767.5412 913.6549 29398.4393 316.5005 397.7953
ENERGY: 600000 0.2437 5.5953 2.9539 0.0000 -10527.8134 1415.3646 0.0000 0.0000 1751.9226 -7351.7334 302.6979 -9103.6560 -7374.6802 299.1968 223.9986 229.2879 29791.2662 118.2906 194.0820
ENERGY: 900000 1.1214 8.7402 4.0504 0.0000 -10652.6082 1486.7521 0.0000 0.0000 1767.9361 -7384.0079 305.4647 -9151.9440 -7382.0218 299.8415 488.6700 500.8404 29807.3354 84.2944 158.4497
ENERGY: 1200000 0.1170 12.0921 3.8791 0.0000 -10622.6839 1446.3757 0.0000 0.0000 1715.8467 -7444.3733 296.4647 -9160.2201 -7383.1399 299.9395 114.2985 115.4689 29604.2616 -37.4953 27.7291
ENERGY: 1500000 0.1238 5.1813 3.6654 0.0000 -10550.5880 1401.8973 0.0000 0.0000 1746.7283 -7392.9920 301.8004 -9139.7202 -7372.3994 300.0940 -191.8532 -92.2143 29793.9654 -39.9129 28.2594
TCL: Running FEP window  15: Lambda1 0.7000000000000001 Lambda2 0.7500000000000001 [dLambda 0.050000000000000044]
TCL: Setting parameter firsttimestep to 0
TCL: Setting parameter alchLambda to 0.7000000000000001
Info: NONBONDED TABLE R-SQUARED SPACING: 0.0625
Info: NONBONDED TABLE SIZE: 705 POINTS
TCL: Setting parameter alchLambda2 to 0.7500000000000001
Info: NONBONDED TABLE R-SQUARED SPACING: 0.0625
Info: NONBONDED TABLE SIZE: 705 POINTS
TCL: Running for 1500000 steps
ETITLE: TS BOND ANGLE DIHED IMPRP ELECT VDW BOUNDARY MISC KINETIC TOTAL TEMP POTENTIAL TOTALAVG TEMPAVG PRESSURE GPRESSURE VOLUME PRESSAVG GPRESSAVG
ENERGY: 0 0.1238 5.1813 3.6654 0.0000 -10551.0349 1401.5800 0.0000 0.0000 1745.8598 -7394.6246 301.6503 -9140.4844 -7394.6246 301.6503 -179.2919 -92.2654 29793.9654 -179.2919 -92.2654
ENERGY: 300000 0.8450 4.6026 3.4095 0.0000 -10554.6615 1443.4379 0.0000 0.0000 1778.3880 -7323.9784 307.2706 -9102.3663 -7365.3737 305.9989 119.1960 98.7478 30467.8500 -53.8351 12.0635
ENERGY: 600000 0.4056 6.4642 3.3303 0.0000 -10487.2629 1397.2278 0.0000 0.0000 1766.4045 -7313.4305 305.2001 -9079.8350 -7363.0286 304.1215 -44.5190 -15.4181 30061.3384 -63.5516 -5.4931
ENERGY: 900000 1.0838 3.5038 3.3228 0.0000 -10531.4331 1407.8885 0.0000 0.0000 1771.8128 -7343.8214 306.1345 -9115.6343 -7363.1153 302.8613 78.6679 158.1125 29726.9587 -72.0937 -8.7397
ENERGY: 1200000 0.5498 5.3410 4.8290 0.0000 -10513.0108 1350.0313 0.0000 0.0000 1698.7972 -7453.4625 293.5188 -9152.2597 -7372.7566 302.2918 -487.9816 -486.0665 29653.0344 11.5844 65.7712
ENERGY: 1500000 1.5731 7.4128 2.2903 0.0000 -10517.8747 1404.5332 0.0000 0.0000 1775.5284 -7326.5370 306.7765 -9102.0654 -7373.5325 301.5863 30.0289 148.6330 29696.7742 27.5943 88.3431
TCL: Running FEP window  16: Lambda1 0.7500000000000001 Lambda2 0.8000000000000002 [dLambda 0.050000000000000044]
TCL: Setting parameter firsttimestep to 0
TCL: Setting parameter alchLambda to 0.7500000000000001
Info: NONBONDED TABLE R-SQUARED SPACING: 0.0625
Info: NONBONDED TABLE SIZE: 705 POINTS
TCL: Setting parameter alchLambda2 to 0.8000000000000002
Info: NONBONDED TABLE R-SQUARED SPACING: 0.0625
Info: NONBONDED TABLE SIZE: 705 POINTS
TCL: Running for 1500000 steps
ETITLE: TS BOND ANGLE DIHED IMPRP ELECT VDW BOUNDARY MISC KINETIC TOTAL TEMP POTENTIAL TOTALAVG TEMPAVG PRESSURE GPRESSURE VOLUME PRESSAVG GPRESSAVG
ENERGY: 0 1.5731 7.4128 2.2903 0.0000 -10518.6570 1404.5796 0.0000 0.0000 1774.6978 -7328.1035 306.6330 -9102.8013 -7328.1035 306.6330 83.2346 155.2319 29696.7742 83.2346 155.2319
ENERGY: 300000 0.9535 4.7967 3.8282 0.0000 -10601.9257 1452.9975 0.0000 0.0000 1722.1332 -7417.2166 297.5508 -9139.3498 -7371.9247 300.3387 163.0801 178.1017 29984.8751 -25.7751 25.7362
ENERGY: 600000 0.9774 6.1138 2.2777 0.0000 -10611.5038 1414.4654 0.0000 0.0000 1763.2930 -7424.3764 304.6625 -9187.6695 -7394.7484 300.9039 -183.6291 -112.1967 30080.0917 -32.4348 29.4189
ENERGY: 900000 1.0551 5.5039 2.7338 0.0000 -10708.4593 1498.7711 0.0000 0.0000 1766.9310 -7433.4644 305.2910 -9200.3954 -7399.7236 300.9768 375.1098 421.8013 29904.2980 -88.4946 -30.6870
ENERGY: 1200000 2.2563 6.2933 2.9201 0.0000 -10478.0466 1365.3327 0.0000 0.0000 1713.0143 -7388.2297 295.9753 -9101.2441 -7388.4594 301.1837 -459.7782 -446.4786 30433.3448 -80.2430 -21.0015
ENERGY: 1500000 1.5852 9.3786 2.6987 0.0000 -10321.7360 1312.5503 0.0000 0.0000 1739.9601 -7255.5632 300.6310 -8995.5233 -7377.8766 301.0205 -527.0635 -479.2506 29993.2640 -88.2566 -27.4611
TCL: Running FEP window  17: Lambda1 0.8000000000000002 Lambda2 0.8500000000000002 [dLambda 0.050000000000000044]
TCL: Setting parameter firsttimestep to 0
TCL: Setting parameter alchLambda to 0.8000000000000002
Info: NONBONDED TABLE R-SQUARED SPACING: 0.0625
Info: NONBONDED TABLE SIZE: 705 POINTS
TCL: Setting parameter alchLambda2 to 0.8500000000000002
Info: NONBONDED TABLE R-SQUARED SPACING: 0.0625
Info: NONBONDED TABLE SIZE: 705 POINTS
TCL: Running for 1500000 steps
ETITLE: TS BOND ANGLE DIHED IMPRP ELECT VDW BOUNDARY MISC KINETIC TOTAL TEMP POTENTIAL TOTALAVG TEMPAVG PRESSURE GPRESSURE VOLUME PRESSAVG GPRESSAVG
ENERGY: 0 1.5852 9.3786 2.6987 0.0000 -10323.6717 1313.7428 0.0000 0.0000 1739.0997 -7257.1668 300.4823 -8996.2665 -7257.1668 300.4823 -537.7094 -466.6451 29993.2640 -537.7094 -466.6451
ENERGY: 300000 1.6768 11.0609 3.1795 0.0000 -10513.3821 1365.5960 0.0000 0.0000 1716.1812 -7415.6876 296.5225 -9131.8689 -7373.7626 299.7061 -370.7346 -351.5522 29735.1680 77.4685 132.0517
ENERGY: 600000 1.3739 8.6915 2.9414 0.0000 -10386.7697 1349.2931 0.0000 0.0000 1732.9697 -7291.5001 299.4232 -9024.4698 -7379.1856 298.7581 -314.3408 -291.1809 29808.1231 -44.5748 10.9189
ENERGY: 900000 0.6320 5.9641 2.7070 0.0000 -10686.3560 1499.9101 0.0000 0.0000 1685.7185 -7491.4243 291.2591 -9177.1428 -7383.6383 298.6160 612.7506 627.8277 29797.3923 86.2334 140.1725
ENERGY: 1200000 0.8256 6.0431 2.1074 0.0000 -10633.5180 1530.2932 0.0000 0.0000 1738.5145 -7355.7342 300.3812 -9094.2487 -7382.4309 298.4186 837.1527 916.6344 29876.0405 196.5959 258.8216
ENERGY: 1500000 0.5820 5.6519 3.0080 0.0000 -10534.9414 1413.2510 0.0000 0.0000 1744.7680 -7367.6806 301.4617 -9112.4486 -7386.2679 298.7187 -16.4293 108.4218 29728.5114 146.0786 211.1336
TCL: Running FEP window  18: Lambda1 0.8500000000000002 Lambda2 0.9000000000000002 [dLambda 0.050000000000000044]
TCL: Setting parameter firsttimestep to 0
TCL: Setting parameter alchLambda to 0.8500000000000002
Info: NONBONDED TABLE R-SQUARED SPACING: 0.0625
Info: NONBONDED TABLE SIZE: 705 POINTS
TCL: Setting parameter alchLambda2 to 0.9000000000000002
Info: NONBONDED TABLE R-SQUARED SPACING: 0.0625
Info: NONBONDED TABLE SIZE: 705 POINTS
TCL: Running for 1500000 steps
ETITLE: TS BOND ANGLE DIHED IMPRP ELECT VDW BOUNDARY MISC KINETIC TOTAL TEMP POTENTIAL TOTALAVG TEMPAVG PRESSURE GPRESSURE VOLUME PRESSAVG GPRESSAVG
ENERGY: 0 0.5820 5.6519 3.0080 0.0000 -10536.0016 1414.2000 0.0000 0.0000 1743.8832 -7368.6766 301.3088 -9112.5598 -7368.6766 301.3088 33.0470 121.0144 29728.5114 33.0470 121.0144
ENERGY: 300000 1.8934 9.0717 2.5470 0.0000 -10484.7133 1379.8959 0.0000 0.0000 1754.4554 -7336.8499 303.1355 -9091.3053 -7332.6959 302.6267 -479.0288 -404.4549 30216.2748 -196.6813 -134.0481
ENERGY: 600000 1.0410 7.7319 2.6582 0.0000 -10480.7898 1382.2507 0.0000 0.0000 1767.2591 -7319.8490 305.3477 -9087.1081 -7323.6675 304.3089 -218.9098 -142.6255 29976.7565 -189.3832 -114.5643
ENERGY: 900000 0.2458 10.6297 3.5637 0.0000 -10632.0292 1379.8870 0.0000 0.0000 1735.7937 -7501.9094 299.9111 -9237.7031 -7360.9637 302.2832 -676.8027 -552.1111 30053.0720 -190.5621 -107.7705
ENERGY: 1200000 4.1815 8.3144 2.9062 0.0000 -10536.0356 1404.9308 0.0000 0.0000 1808.2202 -7307.4826 312.4250 -9115.7027 -7348.1982 303.8000 -246.2780 -175.9847 29979.7173 -250.0538 -168.7503
ENERGY: 1500000 1.3008 6.7485 4.1352 0.0000 -10578.9333 1419.0441 0.0000 0.0000 1744.0077 -7403.6970 301.3303 -9147.7047 -7357.7010 302.7561 201.7696 216.2969 29490.9990 -175.7775 -103.5376
TCL: Running FEP window  19: Lambda1 0.9000000000000002 Lambda2 0.9500000000000003 [dLambda 0.050000000000000044]
TCL: Setting parameter firsttimestep to 0
TCL: Setting parameter alchLambda to 0.9000000000000002
Info: NONBONDED TABLE R-SQUARED SPACING: 0.0625
Info: NONBONDED TABLE SIZE: 705 POINTS
TCL: Setting parameter alchLambda2 to 0.9500000000000003
Info: NONBONDED TABLE R-SQUARED SPACING: 0.0625
Info: NONBONDED TABLE SIZE: 705 POINTS
TCL: Running for 1500000 steps
ETITLE: TS BOND ANGLE DIHED IMPRP ELECT VDW BOUNDARY MISC KINETIC TOTAL TEMP POTENTIAL TOTALAVG TEMPAVG PRESSURE GPRESSURE VOLUME PRESSAVG GPRESSAVG
ENERGY: 0 1.3008 6.7485 4.1352 0.0000 -10580.8678 1421.0627 0.0000 0.0000 1743.1814 -7404.4391 301.1876 -9147.6206 -7404.4391 301.1876 164.9577 241.5897 29490.9990 164.9577 241.5897
ENERGY: 300000 0.2822 5.4047 3.7421 0.0000 -10478.8984 1371.1962 0.0000 0.0000 1766.6294 -7331.6437 305.2389 -9098.2731 -7369.2217 301.4977 -229.3543 -226.6619 29969.1610 74.6730 133.9949
ENERGY: 600000 0.6911 6.6280 2.5317 0.0000 -10586.6461 1397.1805 0.0000 0.0000 1706.9560 -7472.6588 294.9285 -9179.6149 -7389.6816 300.3481 -169.2791 -75.3680 29796.4629 32.2897 106.6077
ENERGY: 900000 1.4232 7.0488 2.8925 0.0000 -10574.5794 1410.9910 0.0000 0.0000 1748.4441 -7403.7797 302.0969 -9152.2239 -7372.1395 301.3351 219.0950 330.7945 29213.7762 -53.2670 22.1221
ENERGY: 1200000 0.5086 6.4296 4.6642 0.0000 -10528.6272 1404.5624 0.0000 0.0000 1660.8194 -7451.6429 286.9570 -9112.4624 -7386.7293 300.2022 -228.0140 -113.8424 30119.0875 -108.5235 -33.5568
ENERGY: 1500000 2.1106 6.6881 3.5150 0.0000 -10568.5527 1426.9055 0.0000 0.0000 1764.0414 -7365.2921 304.7918 -9129.3335 -7382.1565 300.8657 37.8734 41.0731 30111.7340 -57.7905 7.2413
TCL: Running FEP window  20: Lambda1 0.9500000000000003 Lambda2 1.0    [dLambda 0.04999999999999971]
TCL: Setting parameter firsttimestep to 0
TCL: Setting parameter alchLambda to 0.9500000000000003
Info: NONBONDED TABLE R-SQUARED SPACING: 0.0625
Info: NONBONDED TABLE SIZE: 705 POINTS
TCL: Setting parameter alchLambda2 to 1.0
Info: NONBONDED TABLE R-SQUARED SPACING: 0.0625
Info: NONBONDED TABLE SIZE: 705 POINTS
TCL: Running for 1500000 steps
ETITLE: TS BOND ANGLE DIHED IMPRP ELECT VDW BOUNDARY MISC KINETIC TOTAL TEMP POTENTIAL TOTALAVG TEMPAVG PRESSURE GPRESSURE VOLUME PRESSAVG GPRESSAVG
ENERGY: 0 2.1106 6.6881 3.5150 0.0000 -10570.5408 1429.4672 0.0000 0.0000 1763.1660 -7365.5940 304.6405 -9128.7600 -7365.5940 304.6405 -22.0858 74.9148 30111.7340 -22.0858 74.9148
ENERGY: 300000 1.7691 3.6588 3.0705 0.0000 -10511.3700 1338.0288 0.0000 0.0000 1679.6506 -7485.1922 290.2107 -9164.8427 -7440.6206 299.3899 -1046.1488 -908.0362 30169.2534 -380.3678 -291.2903
ENERGY: 600000 3.1409 7.8687 2.8790 0.0000 -10628.2575 1459.6385 0.0000 0.0000 1728.9769 -7425.7535 298.7333 -9154.7304 -7454.9752 297.5659 81.5567 147.3968 30289.7766 -99.2876 -30.3010
ENERGY: 900000 0.7707 5.8892 2.9580 0.0000 -10698.9344 1425.7735 0.0000 0.0000 1787.3391 -7476.2040 308.8172 -9263.5431 -7456.7710 298.7689 12.4208 64.5142 29284.5319 -144.8527 -74.7938
ENERGY: 1200000 0.4221 6.3852 2.6336 0.0000 -10421.8517 1304.4145 0.0000 0.0000 1660.3741 -7447.6223 286.8801 -9107.9963 -7426.5812 299.1056 -817.2198 -756.2125 29966.8333 -187.7738 -117.0935
ENERGY: 1500000 0.3156 8.5002 3.4208 0.0000 -10448.2188 1337.9114 0.0000 0.0000 1771.3345 -7326.7364 306.0519 -9098.0709 -7413.4013 299.5326 -128.3036 -85.6019 29252.1343 -219.2225 -151.1523
TCL: Exiting due to exit command.
