Info: SIMULATION PARAMETERS:
Info: TIMESTEP               2
Info: NUMBER OF STEPS        0
Info: STEPS PER CYCLE        10
Info: PERIODIC CELL BASIS 1  30.7818 0 0
Info: PERIODIC CELL BASIS 2  0 30.2958 0
Info: PERIODIC CELL BASIS 3  0 0 33.273
Info: PERIODIC CELL CENTER   0 0 0
Info: WRAPPING WATERS AROUND PERIODIC BOUNDARIES ON OUTPUT.
Info: WRAPPING ALL CLUSTERS AROUND PERIODIC BOUNDARIES ON OUTPUT.
Info: FIRST LDB TIMESTEP     50
Info: LAST LDB TIMESTEP     -1
Info: HOM BACKGROUND SCALING 1
Info: PME BACKGROUND SCALING 1
Info: MIN ATOMS PER PATCH    40
Info: EMPTY PATCH LOAD       40 ATOMS
Info: VELOCITY FILE          mobley_1905088_equil.vel
Info: CENTER OF MASS MOVING INITIALLY? NO
Info: DIELECTRIC             1
Info: EXCLUDE                SCALED ONE-FOUR
Info: 1-4 ELECTROSTATICS SCALED BY 0.833333
Info: MODIFIED 1-4 VDW PARAMETERS WILL BE USED
Info: DCD FILENAME           mobley_1905088_prod.dcd
Info: DCD FREQUENCY          100000
Info: DCD FIRST STEP         100000
Info: DCD FILE WILL CONTAIN UNIT CELL DATA
Info: XST FILENAME           mobley_1905088_prod.xst
Info: XST FREQUENCY          100000
Info: NO VELOCITY DCD OUTPUT
Info: NO FORCE DCD OUTPUT
Info: OUTPUT FILENAME        mobley_1905088_prod
Info: BINARY OUTPUT FILES WILL BE USED
Info: RESTART FILENAME       mobley_1905088_prod.restart
Info: RESTART FREQUENCY      100000
Info: BINARY RESTART FILES WILL BE USED
Info: CUTOFF                 9
Info: PAIRLIST DISTANCE      11
Info: PAIRLIST SHRINK RATE   0.01
Info: PAIRLIST GROW RATE     0.01
Info: PAIRLIST TRIGGER       0.3
Info: PAIRLISTS PER CYCLE    2
Info: PAIRLISTS ENABLED
Info: MARGIN                 2
Info: HYDROGEN GROUP CUTOFF  2.5
Info: PATCH DIMENSION        15.5
Info: ENERGY OUTPUT STEPS    100000
Info: ENERGY EVALUATION STEPS    100000
Info: OUTPUT ENERGY PRECISION 4
Info: CROSSTERM ENERGY INCLUDED IN DIHEDRAL
Info: TIMING OUTPUT STEPS    1000000
Info: PRESSURE OUTPUT STEPS  100000
Info: ALCHEMICAL FEP ON
Info: FEP CURRENT LAMBDA VALUE     1
Info: FEP COMPARISON LAMBDA VALUE  0.95
Info: FEP INTRA-ALCHEMICAL NON-BONDED INTERACTIONS WILL BE RETAINED
Info: FEP INTRA-ALCHEMICAL BONDED INTERACTIONS WILL BE RETAINED
Info: FEP VDW SHIFTING COEFFICIENT 5
Info: FEP ELEC. ACTIVE FOR ANNIHILATED PARTICLES BETWEEN LAMBDA = 0 AND LAMBDA = 0.5
Info: FEP ELEC. ACTIVE FOR EXNIHILATED PARTICLES BETWEEN LAMBDA = 0.5 AND LAMBDA = 1
Info: FEP VDW ACTIVE FOR ANNIHILATED PARTICLES BETWEEN LAMBDA = 0 AND LAMBDA = 1
Info: FEP VDW ACTIVE FOR EXNIHILATED PARTICLES BETWEEN LAMBDA = 0 AND LAMBDA = 1
Info: FEP BOND ACTIVE FOR ANNIHILATED PARTICLES BETWEEN LAMBDA = 1 AND LAMBDA = 1
Info: FEP BOND ACTIVE FOR EXNIHILATED PARTICLES BETWEEN LAMBDA = 0 AND LAMBDA = 0
Info: LANGEVIN DYNAMICS ACTIVE
Info: LANGEVIN TEMPERATURE   300
Info: LANGEVIN USING BBK INTEGRATOR
Info: LANGEVIN DAMPING COEFFICIENT IS 1 INVERSE PS
Info: LANGEVIN DYNAMICS APPLIED TO HYDROGENS
Info: LANGEVIN PISTON PRESSURE CONTROL ACTIVE
Info:        TARGET PRESSURE IS 1.01325 BAR
Info:     OSCILLATION PERIOD IS 50 FS
Info:             DECAY TIME IS 25 FS
Info:     PISTON TEMPERATURE IS 300 K
Info:       PRESSURE CONTROL IS GROUP-BASED
Info:    INITIAL STRAIN RATE IS -0.000161053 -0.000161053 -0.000161053
Info:       CELL FLUCTUATION IS ISOTROPIC
Info: PARTICLE MESH EWALD (PME) ACTIVE
Info: PME TOLERANCE               1e-06
Info: PME EWALD COEFFICIENT       0.348832
Info: PME INTERPOLATION ORDER     4
Info: PME GRID DIMENSIONS         32 32 36
Info: PME MAXIMUM GRID SPACING    1
Info: PME CALCULATION WILL BE PERFORMED ON GPU
Info: FULL ELECTROSTATIC EVALUATION FREQUENCY      2
Info: USING VERLET I (r-RESPA) MTS SCHEME.
Info: C1 SPLITTING OF LONG RANGE ELECTROSTATICS
Info: PLACING ATOMS IN PATCHES BY HYDROGEN GROUPS
Info: RIGID BONDS TO HYDROGEN : ALL
Info:         ERROR TOLERANCE : 1e-08
Info:          MAX ITERATIONS : 100
Info: RIGID WATER USING SETTLE ALGORITHM
Info: RANDOM NUMBER SEED     1743749601
Info: USE HYDROGEN BONDS?    NO
Info: Using AMBER format force field!
Info: AMBER PARM FILE        mobley_1905088.prmtop
Info: COORDINATE PDB         mobley_1905088.pdb
Info: Exclusions will be read from PARM file!
Info: SCNB (VDW SCALING)     2
Info: USING ARITHMETIC MEAN TO COMBINE L-J SIGMA PARAMETERS
Info: BINARY COORDINATES     mobley_1905088_equil.coor
Info: SUMMARY OF PARAMETERS:
Info: 7 BONDS
Info: 7 ANGLES
Info:   7 HARMONIC
Info:   0 COSINE-BASED
Info: 3 DIHEDRAL
Info: 0 IMPROPER
Info: 0 CROSSTERM
Info: 0 VDW
Info: 28 VDW_PAIRS
Info: 0 NBTHOLE_PAIRS
Info: To read alchdata from file: mobley_1905088.pdb
Info: To read alchflag data from column: 5
Info: STRUCTURE SUMMARY:
Info: 2982 ATOMS
Info: 2982 BONDS
Info: 24 ANGLES
Info: 36 DIHEDRALS
Info: 0 IMPROPERS
Info: 0 CROSSTERMS
Info: 3033 EXCLUSIONS
Info: 2974 RIGID BONDS
Info: ALCH: 0 ATOMS TO DISAPPEAR IN FINAL STATE
Info: ALCH: 15 ATOMS TO APPEAR IN FINAL STATE
Info: 5972 DEGREES OF FREEDOM
Info: 997 HYDROGEN GROUPS
Info: 3 ATOMS IN LARGEST HYDROGEN GROUP
Info: 997 MIGRATION GROUPS
Info: 3 ATOMS IN LARGEST MIGRATION GROUP
Info: TOTAL MASS = 17988.9 amu
Info: TOTAL CHARGE = -1.86265e-08 e
Info: MASS DENSITY = 0.962709 g/cm^3
Info: ATOM DENSITY = 0.0961037 atoms/A^3
Info: ADDED 0 IMPLICIT EXCLUSIONS
Info: NONBONDED TABLE R-SQUARED SPACING: 0.0625
Info: NONBONDED TABLE SIZE: 705 POINTS
Info: REMOVING COM VELOCITY -0.025999 0.136009 -0.223428
Info: Use 3D box decompostion in PME FFT.
Info: Updated CUDA force table with 4096 elements.
Info: Updated CUDA LJ table with 7 x 7 elements.
Info: Found 17 unique exclusion lists needing 36 bytes
TCL: Running for 1500000 steps
ETITLE: TS BOND ANGLE DIHED IMPRP ELECT VDW BOUNDARY MISC KINETIC TOTAL TEMP POTENTIAL TOTALAVG TEMPAVG PRESSURE GPRESSURE VOLUME PRESSAVG GPRESSAVG
ENERGY: 0 2.6874 4.8489 1.4008 0.0000 -10775.6648 1431.8655 0.0000 0.0000 1701.6122 -7633.2500 286.7683 -9334.8622 -7633.2500 286.7683 -271.4101 -195.4430 31028.9960 -271.4101 -195.4430
ENERGY: 300000 1.7757 3.7033 3.0169 0.0000 -10665.6602 1338.6476 0.0000 0.0000 1771.7062 -7546.8106 298.5811 -9318.5167 -7564.4223 295.1746 -951.8902 -920.0101 31453.2122 -251.0814 -205.3651
ENERGY: 600000 2.3871 10.2882 1.4224 0.0000 -10720.7268 1391.6504 0.0000 0.0000 1775.7468 -7539.2319 299.2620 -9314.9787 -7567.2785 295.8396 -476.1021 -403.4837 31163.7800 -240.1744 -178.3292
ENERGY: 900000 1.8196 2.1326 4.0987 0.0000 -10703.8663 1368.0567 0.0000 0.0000 1758.2191 -7569.5395 296.3081 -9327.7586 -7566.6468 295.3179 -795.1360 -801.8459 31346.8442 -267.5155 -217.2287
ENERGY: 1200000 3.2058 3.4422 1.6326 0.0000 -10734.3228 1337.0907 0.0000 0.0000 1768.5243 -7620.4272 298.0448 -9388.9515 -7566.2155 296.8851 -1239.4267 -1102.7823 31151.2604 -286.6716 -227.1929
ENERGY: 1500000 1.4318 3.3981 2.4922 0.0000 -10868.6611 1458.3016 0.0000 0.0000 1740.7047 -7662.3326 293.3565 -9403.0373 -7571.2469 297.2913 -474.7685 -358.7700 31418.8775 -296.7438 -231.7466
TCL: Running FEP window   2: Lambda1 0.95   Lambda2 0.8999999999999999 [dLambda -0.050000000000000044]
TCL: Setting parameter firsttimestep to 0
TCL: Setting parameter alchLambda to 0.95
Info: NONBONDED TABLE R-SQUARED SPACING: 0.0625
Info: NONBONDED TABLE SIZE: 705 POINTS
TCL: Setting parameter alchLambda2 to 0.8999999999999999
Info: NONBONDED TABLE R-SQUARED SPACING: 0.0625
Info: NONBONDED TABLE SIZE: 705 POINTS
TCL: Running for 1500000 steps
ETITLE: TS BOND ANGLE DIHED IMPRP ELECT VDW BOUNDARY MISC KINETIC TOTAL TEMP POTENTIAL TOTALAVG TEMPAVG PRESSURE GPRESSURE VOLUME PRESSAVG GPRESSAVG
ENERGY: 0 1.4318 3.3981 2.4922 0.0000 -10867.8175 1458.7098 0.0000 0.0000 1739.7930 -7661.9926 293.2028 -9401.7856 -7661.9926 293.2028 -446.9505 -364.2180 31418.8775 -446.9505 -364.2180
ENERGY: 300000 1.2716 6.6325 2.6602 0.0000 -10894.0982 1492.7584 0.0000 0.0000 1744.5273 -7646.2482 294.0007 -9390.7756 -7643.1901 295.8937 417.5413 497.8555 30383.4850 -81.3990 1.7577
ENERGY: 600000 1.9287 2.6050 5.4092 0.0000 -10833.5086 1517.8417 0.0000 0.0000 1808.4471 -7497.2770 304.7729 -9305.7241 -7597.4735 297.1410 798.9589 769.0865 30626.7254 -103.6483 -44.8009
ENERGY: 900000 2.1365 3.1549 4.2650 0.0000 -10815.3754 1420.3719 0.0000 0.0000 1717.2316 -7668.2155 289.4006 -9385.4472 -7608.0492 296.7682 -381.7052 -324.1342 30850.0848 -90.9586 -31.3116
ENERGY: 1200000 2.6970 5.6468 3.4343 0.0000 -10710.6391 1390.7893 0.0000 0.0000 1805.2289 -7502.8428 304.2306 -9308.0717 -7591.1492 298.3966 -420.7923 -295.7934 30836.5515 -162.2625 -105.5994
ENERGY: 1500000 3.6679 5.4277 3.0326 0.0000 -10780.6457 1423.5288 0.0000 0.0000 1761.8192 -7583.1695 296.9148 -9344.9887 -7585.7143 298.5034 -269.9581 -169.6291 30974.9059 -193.0239 -128.3601
TCL: Running FEP window   3: Lambda1 0.8999999999999999 Lambda2 0.8499999999999999 [dLambda -0.050000000000000044]
TCL: Setting parameter firsttimestep to 0
TCL: Setting parameter alchLambda to 0.8999999999999999
Info: NONBONDED TABLE R-SQUARED SPACING: 0.0625
Info: NONBONDED TABLE SIZE: 705 POINTS
TCL: Setting parameter alchLambda2 to 0.8499999999999999
Info: NONBONDED TABLE R-SQUARED SPACING: 0.0625
Info: NONBONDED TABLE SIZE: 705 POINTS
TCL: Running for 1500000 steps
ETITLE: TS BOND ANGLE DIHED IMPRP ELECT VDW BOUNDARY MISC KINETIC TOTAL TEMP POTENTIAL TOTALAVG TEMPAVG PRESSURE GPRESSURE VOLUME PRESSAVG GPRESSAVG
ENERGY: 0 3.6679 5.4277 3.0326 0.0000 -10779.7610 1422.8662 0.0000 0.0000 1760.9492 -7583.8174 296.7682 -9344.7666 -7583.8174 296.7682 -267.9069 -190.1985 30974.9059 -267.9069 -190.1985
ENERGY: 300000 4.0537 2.6755 2.4460 0.0000 -10885.1912 1531.1172 0.0000 0.0000 1819.1542 -7525.7446 306.5774 -9344.8988 -7561.0815 302.4020 517.9764 597.1849 30637.0855 -68.9185 -7.3209
ENERGY: 600000 3.5797 5.2662 2.8039 0.0000 -10702.6261 1369.3672 0.0000 0.0000 1780.7469 -7540.8621 300.1047 -9321.6090 -7562.6152 300.8111 -456.6239 -405.0380 30589.4596 -162.1893 -99.9870
ENERGY: 900000 2.8888 3.7507 2.1803 0.0000 -10874.7343 1535.1420 0.0000 0.0000 1737.1287 -7593.6438 292.7538 -9330.7724 -7560.7009 300.7701 769.4155 823.5228 30554.5338 -65.9535 -12.7529
ENERGY: 1200000 3.0465 5.2018 2.0838 0.0000 -10752.8544 1501.9685 0.0000 0.0000 1825.0918 -7415.4619 307.5780 -9240.5537 -7552.8230 300.1045 851.7385 882.0808 30723.3985 -16.7865 37.4101
ENERGY: 1500000 2.1368 1.5409 2.5187 0.0000 -10897.7568 1432.3340 0.0000 0.0000 1855.6209 -7603.6055 312.7230 -9459.2264 -7563.2852 300.2650 -477.1783 -357.4069 30693.4874 -36.8638 22.1591
TCL: Running FEP window   4: Lambda1 0.8499999999999999 Lambda2 0.7999999999999998 [dLambda -0.050000000000000044]
TCL: Setting parameter firsttimestep to 0
TCL: Setting parameter alchLambda to 0.8499999999999999
Info: NONBONDED TABLE R-SQUARED SPACING: 0.0625
Info: NONBONDED TABLE SIZE: 705 POINTS
TCL: Setting parameter alchLambda2 to 0.7999999999999998
Info: NONBONDED TABLE R-SQUARED SPACING: 0.0625
Info: NONBONDED TABLE SIZE: 705 POINTS
TCL: Running for 1500000 steps
ETITLE: TS BOND ANGLE DIHED IMPRP ELECT VDW BOUNDARY MISC KINETIC TOTAL TEMP POTENTIAL TOTALAVG TEMPAVG PRESSURE GPRESSURE VOLUME PRESSAVG GPRESSAVG
ENERGY: 0 2.1368 1.5409 2.5187 0.0000 -10896.8496 1432.1396 0.0000 0.0000 1854.7584 -7603.7551 312.5777 -9458.5136 -7603.7551 312.5777 -471.3402 -371.9530 30693.4874 -471.3402 -371.9530
ENERGY: 300000 2.2081 5.3700 2.6592 0.0000 -10746.2275 1348.9676 0.0000 0.0000 1776.0407 -7610.9819 299.3116 -9387.0226 -7602.2972 302.0255 -1110.7481 -1012.6343 31056.6463 -489.9909 -398.4074
ENERGY: 600000 2.2754 8.0131 3.4445 0.0000 -10815.8674 1418.3085 0.0000 0.0000 1819.3650 -7564.4609 306.6129 -9383.8259 -7585.9426 302.0769 -326.9174 -238.2574 30658.9732 -412.7030 -321.0920
ENERGY: 900000 4.8048 2.7256 2.4920 0.0000 -10805.4701 1462.2209 0.0000 0.0000 1807.2003 -7526.0265 304.5628 -9333.2268 -7581.4584 301.7994 -25.9777 24.1513 30925.4478 -263.2773 -173.3222
ENERGY: 1200000 2.9033 3.3695 4.4826 0.0000 -10846.9621 1438.0840 0.0000 0.0000 1706.7099 -7691.4128 287.6274 -9398.1227 -7589.0233 299.9957 -518.5681 -411.0561 30780.2657 -243.8822 -149.0483
ENERGY: 1500000 1.0908 4.2860 1.7479 0.0000 -10750.4817 1358.3979 0.0000 0.0000 1774.4380 -7610.5211 299.0415 -9384.9591 -7592.9815 299.4057 -699.7090 -629.2782 30491.1912 -227.4483 -140.4471
TCL: Running FEP window   5: Lambda1 0.7999999999999998 Lambda2 0.7499999999999998 [dLambda -0.050000000000000044]
TCL: Setting parameter firsttimestep to 0
TCL: Setting parameter alchLambda to 0.7999999999999998
Info: NONBONDED TABLE R-SQUARED SPACING: 0.0625
Info: NONBONDED TABLE SIZE: 705 POINTS
TCL: Setting parameter alchLambda2 to 0.7499999999999998
Info: NONBONDED TABLE R-SQUARED SPACING: 0.0625
Info: NONBONDED TABLE SIZE: 705 POINTS
TCL: Running for 1500000 steps
ETITLE: TS BOND ANGLE DIHED IMPRP ELECT VDW BOUNDARY MISC KINETIC TOTAL TEMP POTENTIAL TOTALAVG TEMPAVG PRESSURE GPRESSURE VOLUME PRESSAVG GPRESSAVG
ENERGY: 0 1.0908 4.2860 1.7479 0.0000 -10750.2026 1358.3865 0.0000 0.0000 1773.5518 -7611.1396 298.8921 -9384.6914 -7611.1396 298.8921 -723.6836 -647.0610 30491.1912 -723.6836 -647.0610
ENERGY: 300000 3.1840 7.8455 2.6109 0.0000 -10865.4148 1491.9357 0.0000 0.0000 1759.5000 -7600.3387 296.5240 -9359.8387 -7595.0496 299.2697 468.6989 567.3960 30297.3950 -111.3520 -32.9373
ENERGY: 600000 2.4769 4.0721 3.3454 0.0000 -10945.7917 1541.9403 0.0000 0.0000 1741.8985 -7652.0584 293.5577 -9393.9569 -7584.4971 300.7200 850.7524 886.2080 30348.9409 96.1757 179.8668
ENERGY: 900000 3.1226 4.5450 2.3802 0.0000 -10632.0167 1361.0712 0.0000 0.0000 1798.8448 -7462.0529 303.1547 -9260.8977 -7556.4247 301.8067 -840.2776 -812.9680 31349.6372 19.4547 87.7030
ENERGY: 1200000 0.8313 6.5801 3.3690 0.0000 -10858.0657 1497.8781 0.0000 0.0000 1727.0970 -7622.3102 291.0632 -9349.4072 -7557.6115 300.2858 266.6497 285.1308 30751.8453 69.8872 131.7527
ENERGY: 1500000 1.8975 5.5189 0.9073 0.0000 -10708.1513 1380.6426 0.0000 0.0000 1765.0243 -7554.1606 297.4550 -9319.1849 -7556.7015 299.9024 -433.9833 -376.0644 30985.1354 54.3897 118.4903
TCL: Running FEP window   6: Lambda1 0.7499999999999998 Lambda2 0.6999999999999997 [dLambda -0.050000000000000044]
TCL: Setting parameter firsttimestep to 0
TCL: Setting parameter alchLambda to 0.7499999999999998
Info: NONBONDED TABLE R-SQUARED SPACING: 0.0625
Info: NONBONDED TABLE SIZE: 705 POINTS
TCL: Setting parameter alchLambda2 to 0.6999999999999997
Info: NONBONDED TABLE R-SQUARED SPACING: 0.0625
Info: NONBONDED TABLE SIZE: 705 POINTS
TCL: Running for 1500000 steps
ETITLE: TS BOND ANGLE DIHED IMPRP ELECT VDW BOUNDARY MISC KINETIC TOTAL TEMP POTENTIAL TOTALAVG TEMPAVG PRESSURE GPRESSURE VOLUME PRESSAVG GPRESSAVG
ENERGY: 0 1.8975 5.5189 0.9073 0.0000 -10707.4521 1380.9362 0.0000 0.0000 1764.1300 -7554.0621 297.3043 -9318.1921 -7554.0621 297.3043 -478.9918 -382.5667 30985.1354 -478.9918 -382.5667
ENERGY: 300000 3.4927 3.7641 4.2878 0.0000 -10813.2018 1485.5374 0.0000 0.0000 1730.1669 -7585.9529 291.5806 -9316.1197 -7541.5622 301.0798 255.4154 344.2120 30289.6134 -171.4254 -106.6198
ENERGY: 600000 1.6615 2.8801 2.6551 0.0000 -10879.3076 1506.2373 0.0000 0.0000 1791.4324 -7574.4412 301.9055 -9365.8736 -7541.2993 300.3160 423.6742 501.1356 30503.0005 -122.6303 -49.4879
ENERGY: 900000 3.3069 4.1006 3.6651 0.0000 -10726.6394 1414.0030 0.0000 0.0000 1764.1064 -7537.4574 297.3003 -9301.5638 -7547.7594 300.3283 -86.8092 -27.0769 30846.4060 -128.8053 -57.6627
ENERGY: 1200000 6.2744 5.4772 5.4948 0.0000 -10736.7791 1420.0985 0.0000 0.0000 1830.9932 -7468.4410 308.5726 -9299.4342 -7544.7685 300.7977 -114.7130 -29.4277 31016.6971 -163.5639 -96.4639
ENERGY: 1500000 4.8060 4.9258 2.1490 0.0000 -10867.9767 1472.6509 0.0000 0.0000 1731.5696 -7651.8755 291.8170 -9383.4451 -7555.0968 299.5966 370.9492 407.6305 29927.4127 -141.0719 -75.3710
TCL: Running FEP window   7: Lambda1 0.6999999999999997 Lambda2 0.6499999999999997 [dLambda -0.050000000000000044]
TCL: Setting parameter firsttimestep to 0
TCL: Setting parameter alchLambda to 0.6999999999999997
Info: NONBONDED TABLE R-SQUARED SPACING: 0.0625
Info: NONBONDED TABLE SIZE: 705 POINTS
TCL: Setting parameter alchLambda2 to 0.6499999999999997
Info: NONBONDED TABLE R-SQUARED SPACING: 0.0625
Info: NONBONDED TABLE SIZE: 705 POINTS
TCL: Running for 1500000 steps
ETITLE: TS BOND ANGLE DIHED IMPRP ELECT VDW BOUNDARY MISC KINETIC TOTAL TEMP POTENTIAL TOTALAVG TEMPAVG PRESSURE GPRESSURE VOLUME PRESSAVG GPRESSAVG
ENERGY: 0 4.8060 4.9258 2.1490 0.0000 -10867.4932 1472.8584 0.0000 0.0000 1730.6897 -7652.0644 291.6687 -9382.7541 -7652.0644 291.6687 321.0879 404.4241 29927.4127 321.0879 404.4241
ENERGY: 300000 3.3154 4.6873 2.4845 0.0000 -10819.1039 1422.6564 0.0000 0.0000 1811.4387 -7574.5216 305.2771 -9385.9603 -7570.2817 301.5048 -292.5041 -275.9661 30659.9465 475.0070 545.5108
ENERGY: 600000 1.2635 3.3724 4.5569 0.0000 -10825.3331 1459.3595 0.0000 0.0000 1792.1821 -7564.5988 302.0318 -9356.7809 -7569.4266 302.3072 -71.6282 -14.7066 30595.5032 324.7647 387.4624
ENERGY: 900000 3.7119 3.2562 2.2278 0.0000 -10620.1144 1389.0973 0.0000 0.0000 1719.3577 -7502.4634 289.7589 -9221.8211 -7557.0283 300.5832 -373.3041 -327.5889 31267.2925 168.7324 229.4843
ENERGY: 1200000 1.4345 3.8935 1.7476 0.0000 -10934.6882 1566.9082 0.0000 0.0000 1759.3357 -7601.3686 296.4963 -9360.7043 -7555.9063 300.2879 786.3365 854.6514 30442.7238 203.7213 266.7205
ENERGY: 1500000 3.7526 3.3064 3.1700 0.0000 -10829.2499 1550.1311 0.0000 0.0000 1775.6145 -7493.2753 299.2397 -9268.8898 -7548.8225 300.1773 846.6676 850.6689 30790.7676 230.4911 289.0632
TCL: Running FEP window   8: Lambda1 0.6499999999999997 Lambda2 0.5999999999999996 [dLambda -0.050000000000000044]
TCL: Setting parameter firsttimestep to 0
TCL: Setting parameter alchLambda to 0.6499999999999997
Info: NONBONDED TABLE R-SQUARED SPACING: 0.0625
Info: NONBONDED TABLE SIZE: 705 POINTS
TCL: Setting parameter alchLambda2 to 0.5999999999999996
Info: NONBONDED TABLE R-SQUARED SPACING: 0.0625
Info: NONBONDED TABLE SIZE: 705 POINTS
TCL: Running for 1500000 steps
ETITLE: TS BOND ANGLE DIHED IMPRP ELECT VDW BOUNDARY MISC KINETIC TOTAL TEMP POTENTIAL TOTALAVG TEMPAVG PRESSURE GPRESSURE VOLUME PRESSAVG GPRESSAVG
ENERGY: 0 3.7526 3.3064 3.1700 0.0000 -10828.7456 1550.7012 0.0000 0.0000 1774.7675 -7493.0480 299.0970 -9267.8155 -7493.0480 299.0970 761.4483 849.7969 30790.7676 761.4483 849.7969
ENERGY: 300000 0.9626 2.0202 1.8269 0.0000 -10743.1566 1358.9532 0.0000 0.0000 1753.6656 -7625.7281 295.5407 -9379.3937 -7552.5271 296.8276 -714.1145 -632.5931 30706.7678 205.9659 291.6918
ENERGY: 600000 1.9378 3.6409 1.8740 0.0000 -10835.2342 1486.1966 0.0000 0.0000 1765.9792 -7575.6058 297.6159 -9341.5849 -7543.3945 300.0244 -69.3313 -5.2721 30982.8744 35.3513 95.1338
ENERGY: 900000 2.1701 3.3031 1.9722 0.0000 -10912.3839 1529.6289 0.0000 0.0000 1746.3307 -7628.9789 294.3046 -9375.3096 -7552.7679 299.5013 906.0225 994.3024 29940.8908 127.5103 201.9748
ENERGY: 1200000 2.6292 2.6116 1.6440 0.0000 -10883.8192 1481.2309 0.0000 0.0000 1782.2284 -7613.4751 300.3544 -9395.7035 -7559.7850 299.4081 128.9277 148.8543 30649.2192 126.2593 192.1438
ENERGY: 1500000 1.1397 6.2279 2.7346 0.0000 -10930.7693 1554.1004 0.0000 0.0000 1744.7672 -7621.7995 294.0411 -9366.5667 -7557.0284 299.5452 475.9903 515.7241 31104.5565 90.4514 149.0090
TCL: Running FEP window   9: Lambda1 0.5999999999999996 Lambda2 0.5499999999999996 [dLambda -0.050000000000000044]
TCL: Setting parameter firsttimestep to 0
TCL: Setting parameter alchLambda to 0.5999999999999996
Info: NONBONDED TABLE R-SQUARED SPACING: 0.0625
Info: NONBONDED TABLE SIZE: 705 POINTS
TCL: Setting parameter alchLambda2 to 0.5499999999999996
Info: NONBONDED TABLE R-SQUARED SPACING: 0.0625
Info: NONBONDED TABLE SIZE: 705 POINTS
TCL: Running for 1500000 steps
ETITLE: TS BOND ANGLE DIHED IMPRP ELECT VDW BOUNDARY MISC KINETIC TOTAL TEMP POTENTIAL TOTALAVG TEMPAVG PRESSURE GPRESSURE VOLUME PRESSAVG GPRESSAVG
ENERGY: 0 1.1398 6.2279 2.7346 0.0000 -10930.7356 1554.3561 0.0000 0.0000 1743.8887 -7622.3886 293.8931 -9366.2773 -7622.3886 293.8931 415.4993 509.2525 31104.5565 415.4993 509.2525
ENERGY: 300000 2.6487 6.2699 4.8994 0.0000 -10985.9177 1519.8739 0.0000 0.0000 1784.9016 -7667.3242 300.8049 -9452.2258 -7602.7020 296.4106 156.2097 203.5373 30829.3626 -91.1883 -14.2881
ENERGY: 600000 3.6821 6.2523 3.0099 0.0000 -10849.5434 1508.1999 0.0000 0.0000 1763.1769 -7565.2224 297.1437 -9328.3993 -7609.2631 296.4393 539.3080 570.8356 30505.3611 55.2497 125.7325
ENERGY: 900000 1.1679 3.3073 2.3323 0.0000 -10789.3886 1466.9039 0.0000 0.0000 1785.1102 -7530.5671 300.8400 -9315.6773 -7594.2912 296.7111 118.6518 140.1424 30846.7746 -14.1796 46.7660
ENERGY: 1200000 3.7867 4.5497 2.3351 0.0000 -10801.9155 1454.7908 0.0000 0.0000 1765.6721 -7570.7812 297.5642 -9336.4533 -7591.2609 296.9547 -169.5054 -90.2022 30759.0112 -117.3782 -56.0092
ENERGY: 1500000 1.8093 2.9454 2.8980 0.0000 -10731.1602 1411.9247 0.0000 0.0000 1769.2729 -7542.3099 298.1710 -9311.5827 -7574.6535 297.7133 -402.7201 -320.5386 30972.1722 -100.0321 -39.1605
TCL: Running FEP window  10: Lambda1 0.5499999999999996 Lambda2 0.4999999999999996 [dLambda -0.04999999999999999]
TCL: Setting parameter firsttimestep to 0
TCL: Setting parameter alchLambda to 0.5499999999999996
Info: NONBONDED TABLE R-SQUARED SPACING: 0.0625
Info: NONBONDED TABLE SIZE: 705 POINTS
TCL: Setting parameter alchLambda2 to 0.4999999999999996
Info: NONBONDED TABLE R-SQUARED SPACING: 0.0625
Info: NONBONDED TABLE SIZE: 705 POINTS
TCL: Running for 1500000 steps
ETITLE: TS BOND ANGLE DIHED IMPRP ELECT VDW BOUNDARY MISC KINETIC TOTAL TEMP POTENTIAL TOTALAVG TEMPAVG PRESSURE GPRESSURE VOLUME PRESSAVG GPRESSAVG
ENERGY: 0 1.8093 2.9454 2.8980 0.0000 -10730.6850 1412.5437 0.0000 0.0000 1768.3777 -7542.1109 298.0201 -9310.4886 -7542.1109 298.0201 -398.5368 -323.5457 30972.1722 -398.5368 -323.5457
ENERGY: 300000 4.2111 3.3609 4.3154 0.0000 -10752.9469 1418.7239 0.0000 0.0000 1767.6265 -7554.7091 297.8935 -9322.3356 -7576.3344 294.3720 -115.6478 -55.4212 30273.8655 -422.3470 -363.2052
ENERGY: 600000 3.5902 3.6255 4.6157 0.0000 -10674.0312 1351.6018 0.0000 0.0000 1740.8790 -7569.7190 293.3859 -9310.5980 -7567.5707 296.0888 -1075.9335 -1033.4936 31088.8494 -507.2308 -462.1272
ENERGY: 900000 2.1195 5.2782 2.7321 0.0000 -10798.4378 1517.2069 0.0000 0.0000 1772.3758 -7498.7253 298.6939 -9271.1011 -7557.5108 297.4243 633.5941 724.6499 30898.5830 -291.0912 -231.5355
ENERGY: 1200000 1.1612 5.0969 1.4035 0.0000 -10945.0331 1550.6455 0.0000 0.0000 1788.4586 -7598.2675 301.4043 -9386.7261 -7560.5283 299.3251 751.0448 791.1277 30315.9243 -89.1204 -32.1414
ENERGY: 1500000 2.9296 5.6409 8.8398 0.0000 -10739.0334 1449.4188 0.0000 0.0000 1813.6489 -7458.5554 305.6496 -9272.2043 -7555.5892 299.5743 219.8664 256.9656 30807.1769 -81.4338 -30.6846
TCL: Running FEP window  11: Lambda1 0.4999999999999996 Lambda2 0.4499999999999996 [dLambda -0.04999999999999999]
TCL: Setting parameter firsttimestep to 0
TCL: Setting parameter alchLambda to 0.4999999999999996
Info: NONBONDED TABLE R-SQUARED SPACING: 0.0625
Info: NONBONDED TABLE SIZE: 705 POINTS
TCL: Setting parameter alchLambda2 to 0.4499999999999996
Info: NONBONDED TABLE R-SQUARED SPACING: 0.0625
Info: NONBONDED TABLE SIZE: 705 POINTS
TCL: Running for 1500000 steps
ETITLE: TS BOND ANGLE DIHED IMPRP ELECT VDW BOUNDARY MISC KINETIC TOTAL TEMP POTENTIAL TOTALAVG TEMPAVG PRESSURE GPRESSURE VOLUME PRESSAVG GPRESSAVG
ENERGY: 0 2.9296 5.6409 8.8398 0.0000 -10738.8116 1448.9379 0.0000 0.0000 1812.7584 -7459.7051 305.4995 -9272.4635 -7459.7051 305.4995 168.8718 247.4689 30807.1769 168.8718 247.4689
ENERGY: 300000 5.6894 5.2732 0.9878 0.0000 -10896.5351 1523.4289 0.0000 0.0000 1787.9967 -7573.1591 301.3265 -9361.1558 -7517.9514 299.7249 151.2945 265.6293 31155.6714 -33.9565 37.3070
ENERGY: 600000 2.7414 7.1925 2.0781 0.0000 -10885.8686 1499.4444 0.0000 0.0000 1810.1637 -7564.2485 305.0622 -9374.4121 -7524.2844 299.4251 105.5027 179.1662 30934.6958 130.9036 199.5072
ENERGY: 900000 1.5358 5.2634 1.1284 0.0000 -10985.0914 1611.2820 0.0000 0.0000 1740.7160 -7625.1658 293.3584 -9365.8818 -7538.8153 299.9974 1247.9756 1295.1834 30493.7956 302.7034 365.7378
ENERGY: 1200000 2.8690 3.4086 5.9859 0.0000 -10779.2952 1463.4538 0.0000 0.0000 1800.1301 -7503.4479 303.3713 -9303.5780 -7528.8194 300.5995 138.3555 230.6033 30494.4908 183.5435 247.3613
ENERGY: 1500000 4.1540 3.9974 1.8091 0.0000 -10797.5853 1451.0279 0.0000 0.0000 1795.9536 -7540.6433 302.6674 -9336.5970 -7536.0562 300.4884 -199.1300 -148.9539 30695.0627 156.7823 215.5014
TCL: Running FEP window  12: Lambda1 0.4499999999999996 Lambda2 0.39999999999999963 [dLambda -0.04999999999999999]
TCL: Setting parameter firsttimestep to 0
TCL: Setting parameter alchLambda to 0.4499999999999996
Info: NONBONDED TABLE R-SQUARED SPACING: 0.0625
Info: NONBONDED TABLE SIZE: 705 POINTS
TCL: Setting parameter alchLambda2 to 0.39999999999999963
Info: NONBONDED TABLE R-SQUARED SPACING: 0.0625
Info: NONBONDED TABLE SIZE: 705 POINTS
TCL: Running for 1500000 steps
ETITLE: TS BOND ANGLE DIHED IMPRP ELECT VDW BOUNDARY MISC KINETIC TOTAL TEMP POTENTIAL TOTALAVG TEMPAVG PRESSURE GPRESSURE VOLUME PRESSAVG GPRESSAVG
ENERGY: 0 4.1540 3.9974 1.8091 0.0000 -10797.5847 1451.6960 0.0000 0.0000 1795.0471 -7540.8811 302.5147 -9335.9282 -7540.8811 302.5147 -235.4469 -147.4395 30695.0627 -235.4469 -147.4395
ENERGY: 300000 2.2760 8.4290 2.8899 0.0000 -10775.6368 1436.9160 0.0000 0.0000 1808.7944 -7516.3314 304.8315 -9325.1258 -7559.9596 302.0412 -368.6298 -232.3535 30961.2178 -142.6418 -41.6725
ENERGY: 600000 2.2248 5.7070 3.1507 0.0000 -10726.7237 1407.3588 0.0000 0.0000 1783.6604 -7524.6220 300.5957 -9308.2824 -7547.6119 300.9185 -491.1289 -475.7216 31210.0851 -327.3577 -249.5165
ENERGY: 900000 0.6226 5.2661 2.3765 0.0000 -10677.2783 1389.4830 0.0000 0.0000 1793.3044 -7486.2256 302.2210 -9279.5301 -7531.9022 300.8737 -439.9483 -388.3373 31045.4202 -254.7186 -180.1550
ENERGY: 1200000 2.9005 3.6659 3.3472 0.0000 -10850.2853 1494.9401 0.0000 0.0000 1739.2996 -7606.1320 293.1197 -9345.4316 -7528.2694 300.2822 523.0619 559.5607 30153.4799 -109.5082 -41.4995
ENERGY: 1500000 6.2185 3.0432 4.1046 0.0000 -10690.1293 1372.1988 0.0000 0.0000 1761.6872 -7542.8770 296.8926 -9304.5642 -7536.5231 300.3194 -1193.6755 -1121.8782 31483.1642 -255.6745 -189.3035
TCL: Running FEP window  13: Lambda1 0.39999999999999963 Lambda2 0.34999999999999964 [dLambda -0.04999999999999999]
TCL: Setting parameter firsttimestep to 0
TCL: Setting parameter alchLambda to 0.39999999999999963
Info: NONBONDED TABLE R-SQUARED SPACING: 0.0625
Info: NONBONDED TABLE SIZE: 705 POINTS
TCL: Setting parameter alchLambda2 to 0.34999999999999964
Info: NONBONDED TABLE R-SQUARED SPACING: 0.0625
Info: NONBONDED TABLE SIZE: 705 POINTS
TCL: Running for 1500000 steps
ETITLE: TS BOND ANGLE DIHED IMPRP ELECT VDW BOUNDARY MISC KINETIC TOTAL TEMP POTENTIAL TOTALAVG TEMPAVG PRESSURE GPRESSURE VOLUME PRESSAVG GPRESSAVG
ENERGY: 0 6.2185 3.0432 4.1046 0.0000 -10690.1300 1372.6538 0.0000 0.0000 1760.8096 -7543.3004 296.7447 -9304.1099 -7543.3004 296.7447 -1207.4581 -1119.6161 31483.1642 -1207.4581 -1119.6161
ENERGY: 300000 2.4606 8.1907 2.5804 0.0000 -10946.2664 1569.6138 0.0000 0.0000 1746.6434 -7616.7775 294.3573 -9363.4210 -7562.2145 298.7717 566.8096 645.0502 30638.5479 -440.3623 -360.2899
ENERGY: 600000 3.9374 2.6587 2.1281 0.0000 -10784.0853 1441.8537 0.0000 0.0000 1752.8592 -7580.6483 295.4048 -9333.5074 -7567.1991 298.3609 -369.6714 -311.4430 30920.0130 -453.8030 -371.0976
ENERGY: 900000 1.6926 4.1366 1.8978 0.0000 -10733.3510 1392.3134 0.0000 0.0000 1701.3153 -7631.9951 286.7183 -9333.3105 -7571.1734 297.8046 -358.6654 -321.8395 30259.5417 -420.6540 -339.5916
ENERGY: 1200000 3.7549 3.9825 4.1354 0.0000 -10763.8291 1458.9040 0.0000 0.0000 1810.1799 -7482.8725 305.0650 -9293.0524 -7556.9745 299.2301 90.9882 146.7362 30935.5772 -306.1814 -222.2888
ENERGY: 1500000 3.5059 4.9297 3.4268 0.0000 -10907.8929 1501.9371 0.0000 0.0000 1786.7988 -7607.2945 301.1246 -9394.0933 -7556.2217 299.1933 -56.4848 -12.7219 30818.8016 -274.9456 -197.9323
TCL: Running FEP window  14: Lambda1 0.34999999999999964 Lambda2 0.29999999999999966 [dLambda -0.04999999999999999]
TCL: Setting parameter firsttimestep to 0
TCL: Setting parameter alchLambda to 0.34999999999999964
Info: NONBONDED TABLE R-SQUARED SPACING: 0.0625
Info: NONBONDED TABLE SIZE: 705 POINTS
TCL: Setting parameter alchLambda2 to 0.29999999999999966
Info: NONBONDED TABLE R-SQUARED SPACING: 0.0625
Info: NONBONDED TABLE SIZE: 705 POINTS
TCL: Running for 1500000 steps
ETITLE: TS BOND ANGLE DIHED IMPRP ELECT VDW BOUNDARY MISC KINETIC TOTAL TEMP POTENTIAL TOTALAVG TEMPAVG PRESSURE GPRESSURE VOLUME PRESSAVG GPRESSAVG
ENERGY: 0 3.5059 4.9297 3.4268 0.0000 -10907.8926 1501.5729 0.0000 0.0000 1785.9241 -7608.5332 300.9772 -9394.4573 -7608.5332 300.9772 -99.9614 -21.5734 30818.8016 -99.9614 -21.5734
ENERGY: 300000 2.9622 2.3635 1.8637 0.0000 -10805.2686 1459.6674 0.0000 0.0000 1773.6299 -7564.7818 298.9053 -9338.4117 -7535.4473 301.7113 8.8196 52.9555 30552.2507 -96.0108 -21.9281
ENERGY: 600000 2.9184 4.6726 1.3922 0.0000 -10872.6889 1530.9896 0.0000 0.0000 1868.8746 -7463.8414 314.9566 -9332.7160 -7525.3037 303.8213 920.7883 955.0752 30306.5330 78.3584 132.6390
ENERGY: 900000 2.8817 5.4561 4.9315 0.0000 -10939.3202 1528.3422 0.0000 0.0000 1785.3611 -7612.3477 300.8823 -9397.7087 -7536.7290 302.0026 603.2705 594.3892 30421.8261 52.6648 107.3451
ENERGY: 1200000 4.8728 4.5828 2.5984 0.0000 -10843.4060 1405.1218 0.0000 0.0000 1812.9416 -7613.2886 305.5304 -9426.2301 -7548.1052 301.3431 -999.0462 -862.6253 30846.2569 -85.9202 -17.8671
ENERGY: 1500000 2.5431 4.1381 2.4146 0.0000 -10851.8106 1493.7330 0.0000 0.0000 1809.8302 -7539.1516 305.0060 -9348.9818 -7549.6914 301.2700 162.5663 183.1081 30638.9539 -85.3958 -18.4832
TCL: Running FEP window  15: Lambda1 0.29999999999999966 Lambda2 0.24999999999999967 [dLambda -0.04999999999999999]
TCL: Setting parameter firsttimestep to 0
TCL: Setting parameter alchLambda to 0.29999999999999966
Info: NONBONDED TABLE R-SQUARED SPACING: 0.0625
Info: NONBONDED TABLE SIZE: 705 POINTS
TCL: Setting parameter alchLambda2 to 0.24999999999999967
Info: NONBONDED TABLE R-SQUARED SPACING: 0.0625
Info: NONBONDED TABLE SIZE: 705 POINTS
TCL: Running for 1500000 steps
ETITLE: TS BOND ANGLE DIHED IMPRP ELECT VDW BOUNDARY MISC KINETIC TOTAL TEMP POTENTIAL TOTALAVG TEMPAVG PRESSURE GPRESSURE VOLUME PRESSAVG GPRESSAVG
ENERGY: 0 2.5431 4.1381 2.4146 0.0000 -10851.8103 1493.4186 0.0000 0.0000 1808.9320 -7540.3639 304.8547 -9349.2959 -7540.3639 304.8547 92.3424 178.1080 30638.9539 92.3424 178.1080
ENERGY: 300000 1.2836 3.6398 1.8604 0.0000 -10859.7179 1474.4687 0.0000 0.0000 1810.9464 -7567.5190 305.1941 -9378.4654 -7552.3292 303.9817 95.3115 190.9280 30447.2671 116.8002 189.9349
ENERGY: 600000 2.9610 4.7685 2.8128 0.0000 -10749.4478 1464.4016 0.0000 0.0000 1769.8842 -7504.6198 298.2740 -9274.5039 -7546.7673 301.2022 78.9083 124.2875 31081.3198 123.7718 186.7250
ENERGY: 900000 1.5196 2.9023 4.0815 0.0000 -10795.5998 1437.6430 0.0000 0.0000 1749.2829 -7600.1707 294.8021 -9349.4536 -7550.9772 301.0574 -399.1561 -341.9362 30819.9711 -17.3918 60.9626
ENERGY: 1200000 1.7991 4.0063 5.0154 0.0000 -10778.9385 1415.2793 0.0000 0.0000 1757.0889 -7595.7495 296.1177 -9352.8384 -7552.7283 301.2023 -389.8930 -309.1038 30321.5735 15.8866 101.5620
ENERGY: 1500000 1.5957 5.0550 0.6957 0.0000 -10814.9729 1439.6290 0.0000 0.0000 1793.0277 -7574.9699 302.1743 -9367.9976 -7546.8671 301.0910 -401.7746 -375.8208 30931.1109 -8.3644 71.5844
TCL: Running FEP window  16: Lambda1 0.24999999999999967 Lambda2 0.19999999999999968 [dLambda -0.04999999999999999]
TCL: Setting parameter firsttimestep to 0
TCL: Setting parameter alchLambda to 0.24999999999999967
Info: NONBONDED TABLE R-SQUARED SPACING: 0.0625
Info: NONBONDED TABLE SIZE: 705 POINTS
TCL: Setting parameter alchLambda2 to 0.19999999999999968
Info: NONBONDED TABLE R-SQUARED SPACING: 0.0625
Info: NONBONDED TABLE SIZE: 705 POINTS
TCL: Running for 1500000 steps
ETITLE: TS BOND ANGLE DIHED IMPRP ELECT VDW BOUNDARY MISC KINETIC TOTAL TEMP POTENTIAL TOTALAVG TEMPAVG PRESSURE GPRESSURE VOLUME PRESSAVG GPRESSAVG
ENERGY: 0 1.5957 5.0550 0.6957 0.0000 -10814.9710 1439.1006 0.0000 0.0000 1792.1175 -7576.4066 302.0209 -9368.5241 -7576.4066 302.0209 -460.7744 -382.5726 30931.1109 -460.7744 -382.5726
ENERGY: 300000 2.5807 5.4149 1.8073 0.0000 -10789.8683 1400.1068 0.0000 0.0000 1801.7195 -7578.2390 303.6391 -9379.9585 -7588.9290 301.3639 -882.0335 -678.8738 30984.6306 -284.8436 -181.5929
ENERGY: 600000 4.3909 5.9470 2.1598 0.0000 -10808.3741 1481.5566 0.0000 0.0000 1817.3555 -7496.9643 306.2742 -9314.3198 -7560.5951 303.4838 341.5241 401.9002 30294.9000 -159.3994 -71.6928
ENERGY: 900000 1.8268 4.8944 4.0114 0.0000 -10750.6230 1451.8177 0.0000 0.0000 1794.8553 -7493.2176 302.4823 -9288.0728 -7548.0201 303.8865 -96.1350 -14.3032 31050.1501 -136.6499 -45.1599
ENERGY: 1200000 2.2361 6.8668 0.9880 0.0000 -10827.5388 1451.6896 0.0000 0.0000 1787.7815 -7577.9769 301.2902 -9365.7584 -7547.3022 303.7214 -3.9786 38.8844 30315.7520 -16.9462 66.7993
ENERGY: 1500000 1.4112 2.2298 4.0242 0.0000 -10667.2088 1388.8764 0.0000 0.0000 1768.7669 -7501.9002 298.0857 -9270.6672 -7551.0126 303.0478 -448.9415 -433.4866 30860.4872 -71.9696 3.4900
TCL: Running FEP window  17: Lambda1 0.19999999999999968 Lambda2 0.1499999999999997 [dLambda -0.04999999999999999]
TCL: Setting parameter firsttimestep to 0
TCL: Setting parameter alchLambda to 0.19999999999999968
Info: NONBONDED TABLE R-SQUARED SPACING: 0.0625
Info: NONBONDED TABLE SIZE: 705 POINTS
TCL: Setting parameter alchLambda2 to 0.1499999999999997
Info: NONBONDED TABLE R-SQUARED SPACING: 0.0625
Info: NONBONDED TABLE SIZE: 705 POINTS
TCL: Running for 1500000 steps
ETITLE: TS BOND ANGLE DIHED IMPRP ELECT VDW BOUNDARY MISC KINETIC TOTAL TEMP POTENTIAL TOTALAVG TEMPAVG PRESSURE GPRESSURE VOLUME PRESSAVG GPRESSAVG
ENERGY: 0 1.4112 2.2298 4.0242 0.0000 -10667.2110 1388.5179 0.0000 0.0000 1767.8151 -7503.2128 297.9253 -9271.0279 -7503.2128 297.9253 -520.1878 -441.6493 30860.4872 -520.1878 -441.6493
ENERGY: 300000 2.6736 2.4075 2.0500 0.0000 -10788.3429 1436.1119 0.0000 0.0000 1790.2848 -7554.8150 301.7121 -9345.0998 -7513.7812 297.4894 -357.6920 -269.2767 30661.4576 -252.7332 -175.8120
ENERGY: 600000 3.6071 3.4323 2.1590 0.0000 -10800.6406 1423.2690 0.0000 0.0000 1811.9933 -7556.1800 305.3706 -9368.1732 -7525.1543 300.5092 -372.1682 -394.9538 30619.1139 -130.8097 -72.5328
ENERGY: 900000 0.7706 2.3117 2.8674 0.0000 -10811.4393 1469.3640 0.0000 0.0000 1729.7372 -7606.3883 291.5082 -9336.1256 -7535.5516 299.5282 6.7009 94.4828 30988.9156 -10.0909 43.4088
ENERGY: 1200000 3.8605 2.2461 2.2633 0.0000 -10821.3856 1417.1328 0.0000 0.0000 1835.4494 -7560.4334 309.3236 -9395.8828 -7539.2492 300.2163 -306.4005 -250.9217 30508.2105 -43.9760 6.1799
ENERGY: 1500000 1.2504 4.1829 1.2752 0.0000 -10837.4988 1461.3145 0.0000 0.0000 1768.8664 -7600.6094 298.1025 -9369.4757 -7543.5951 300.4267 -386.1561 -312.7484 30978.6158 -139.9804 -91.9614
TCL: Running FEP window  18: Lambda1 0.1499999999999997 Lambda2 0.09999999999999969 [dLambda -0.05 ]
TCL: Setting parameter firsttimestep to 0
TCL: Setting parameter alchLambda to 0.1499999999999997
Info: NONBONDED TABLE R-SQUARED SPACING: 0.0625
Info: NONBONDED TABLE SIZE: 705 POINTS
TCL: Setting parameter alchLambda2 to 0.09999999999999969
Info: NONBONDED TABLE R-SQUARED SPACING: 0.0625
Info: NONBONDED TABLE SIZE: 705 POINTS
TCL: Running for 1500000 steps
ETITLE: TS BOND ANGLE DIHED IMPRP ELECT VDW BOUNDARY MISC KINETIC TOTAL TEMP POTENTIAL TOTALAVG TEMPAVG PRESSURE GPRESSURE VOLUME PRESSAVG GPRESSAVG
ENERGY: 0 1.2504 4.1829 1.2752 0.0000 -10837.4983 1461.3451 0.0000 0.0000 1767.9990 -7601.4457 297.9563 -9369.4448 -7601.4457 297.9563 -404.7282 -317.0524 30978.6158 -404.7282 -317.0524
ENERGY: 300000 5.2202 2.0518 2.4707 0.0000 -10713.5867 1419.9655 0.0000 0.0000 1765.5248 -7518.3538 297.5394 -9283.8786 -7544.6713 297.8490 -54.7081 56.2993 30733.7457 89.3534 158.3088
ENERGY: 600000 1.0866 5.5459 3.0755 0.0000 -10743.8661 1457.2023 0.0000 0.0000 1803.0743 -7473.8815 303.8675 -9276.9558 -7521.6716 299.8717 230.8353 235.0717 30419.7373 153.8828 204.2916
ENERGY: 900000 2.7777 5.9697 3.0936 0.0000 -10695.4296 1387.7122 0.0000 0.0000 1761.8953 -7533.9811 296.9277 -9295.8764 -7522.2123 299.4857 -645.2056 -580.3757 31001.0222 -18.4196 37.0042
ENERGY: 1200000 1.9154 5.8121 2.2290 0.0000 -10881.5542 1539.6850 0.0000 0.0000 1810.3952 -7521.5175 305.1012 -9331.9128 -7533.0807 299.4580 564.9193 630.3869 30465.0296 75.0755 133.7039
ENERGY: 1500000 3.1370 6.1202 2.0996 0.0000 -10711.0454 1342.1429 0.0000 0.0000 1814.9795 -7542.5663 305.8738 -9357.5458 -7535.0547 299.6173 -999.6179 -931.3948 30667.2828 -79.2790 -24.4991
TCL: Running FEP window  19: Lambda1 0.09999999999999969 Lambda2 0.049999999999999684 [dLambda -0.05 ]
TCL: Setting parameter firsttimestep to 0
TCL: Setting parameter alchLambda to 0.09999999999999969
Info: NONBONDED TABLE R-SQUARED SPACING: 0.0625
Info: NONBONDED TABLE SIZE: 705 POINTS
TCL: Setting parameter alchLambda2 to 0.049999999999999684
Info: NONBONDED TABLE R-SQUARED SPACING: 0.0625
Info: NONBONDED TABLE SIZE: 705 POINTS
TCL: Running for 1500000 steps
ETITLE: TS BOND ANGLE DIHED IMPRP ELECT VDW BOUNDARY MISC KINETIC TOTAL TEMP POTENTIAL TOTALAVG TEMPAVG PRESSURE GPRESSURE VOLUME PRESSAVG GPRESSAVG
ENERGY: 0 3.1370 6.1202 2.0996 0.0000 -10711.0431 1342.0764 0.0000 0.0000 1814.1013 -7543.5087 305.7258 -9357.6100 -7543.5087 305.7258 -1024.2692 -938.0189 30667.2828 -1024.2692 -938.0189
ENERGY: 300000 2.8804 3.3102 1.2854 0.0000 -10780.1164 1446.8748 0.0000 0.0000 1768.7522 -7557.0133 298.0833 -9325.7655 -7544.3281 299.8526 -245.8906 -190.7986 30858.3335 -54.7790 26.7748
ENERGY: 600000 2.1037 4.0948 4.2139 0.0000 -10921.0821 1560.1539 0.0000 0.0000 1787.1770 -7563.3389 301.1883 -9350.5159 -7538.8329 300.0164 977.2709 1042.7920 30110.1329 -12.0112 74.7191
ENERGY: 900000 1.8206 2.7305 1.9554 0.0000 -10784.1377 1446.4277 0.0000 0.0000 1734.4386 -7596.7650 292.3005 -9331.2036 -7548.4338 298.9633 -259.3551 -182.2667 30962.0767 -212.9385 -120.7151
ENERGY: 1200000 1.5377 3.6525 1.2582 0.0000 -10895.7125 1522.4789 0.0000 0.0000 1829.5507 -7537.2345 308.3295 -9366.7852 -7547.4780 299.7225 374.8225 531.1357 30757.3266 -173.5741 -76.1108
ENERGY: 1500000 1.8196 1.8871 1.3337 0.0000 -10786.8346 1387.1075 0.0000 0.0000 1827.0203 -7567.6665 307.9030 -9394.6867 -7555.1542 299.8237 -662.4720 -555.2912 30513.8091 -130.5413 -37.8285
TCL: Running FEP window  20: Lambda1 0.049999999999999684 Lambda2 0.0    [dLambda -0.049999999999999684]
TCL: Setting parameter firsttimestep to 0
TCL: Setting parameter alchLambda to 0.049999999999999684
Info: NONBONDED TABLE R-SQUARED SPACING: 0.0625
Info: NONBONDED TABLE SIZE: 705 POINTS
TCL: Setting parameter alchLambda2 to 0.0
Info: NONBONDED TABLE R-SQUARED SPACING: 0.0625
Info: NONBONDED TABLE SIZE: 705 POINTS
TCL: Running for 1500000 steps
ETITLE: TS BOND ANGLE DIHED IMPRP ELECT VDW BOUNDARY MISC KINETIC TOTAL TEMP POTENTIAL TOTALAVG TEMPAVG PRESSURE GPRESSURE VOLUME PRESSAVG GPRESSAVG
ENERGY: 0 1.8196 1.8871 1.3337 0.0000 -10786.8348 1387.3303 0.0000 0.0000 1826.1541 -7568.3100 307.7571 -9394.4642 -7568.3100 307.7571 -642.9231 -556.7636 30513.8091 -642.9231 -556.7636
ENERGY: 300000 2.6643 7.3054 1.4124 0.0000 -10848.2364 1474.6400 0.0000 0.0000 1824.5868 -7537.6275 307.4929 -9362.2143 -7539.6507 306.2244 105.7121 244.8799 30249.6382 -6.2751 70.4068
ENERGY: 600000 5.8357 4.7709 3.3016 0.0000 -10755.2941 1393.7409 0.0000 0.0000 1762.6853 -7584.9598 297.0608 -9347.6451 -7529.7798 304.6077 -799.2890 -740.9353 30526.3740 -183.5595 -115.9699
ENERGY: 900000 1.6381 5.5108 1.4389 0.0000 -10668.5009 1335.8086 0.0000 0.0000 1731.9216 -7592.1829 291.8763 -9324.1045 -7530.0716 303.2698 -1064.8473 -944.9852 30773.8431 -321.8346 -251.0468
ENERGY: 1200000 2.9801 5.7397 4.3531 0.0000 -10714.3343 1446.1600 0.0000 0.0000 1756.2968 -7498.8046 295.9842 -9255.1014 -7531.7052 301.7126 139.0725 202.1653 30597.1337 -308.8408 -240.7278
ENERGY: 1500000 2.6530 2.9549 3.6855 0.0000 -10681.7355 1411.6442 0.0000 0.0000 1786.3009 -7474.4970 301.0407 -9260.7979 -7531.1412 301.8069 -271.8301 -258.9597 30876.7148 -263.8098 -202.7118
TCL: Exiting due to exit command.
