Info: SIMULATION PARAMETERS:
Info: TIMESTEP               2
Info: NUMBER OF STEPS        0
Info: STEPS PER CYCLE        10
Info: PERIODIC CELL BASIS 1  32.5308 0 0
Info: PERIODIC CELL BASIS 2  0 30.6328 0
Info: PERIODIC CELL BASIS 3  0 0 31.0746
Info: PERIODIC CELL CENTER   0 0 0
Info: WRAPPING WATERS AROUND PERIODIC BOUNDARIES ON OUTPUT.
Info: WRAPPING ALL CLUSTERS AROUND PERIODIC BOUNDARIES ON OUTPUT.
Info: FIRST LDB TIMESTEP     50
Info: LAST LDB TIMESTEP     -1
Info: HOM BACKGROUND SCALING 1
Info: PME BACKGROUND SCALING 1
Info: MIN ATOMS PER PATCH    40
Info: EMPTY PATCH LOAD       40 ATOMS
Info: VELOCITY FILE          mobley_252413_equil.vel
Info: CENTER OF MASS MOVING INITIALLY? NO
Info: DIELECTRIC             1
Info: EXCLUDE                SCALED ONE-FOUR
Info: 1-4 ELECTROSTATICS SCALED BY 0.833333
Info: MODIFIED 1-4 VDW PARAMETERS WILL BE USED
Info: DCD FILENAME           mobley_252413_prod.dcd
Info: DCD FREQUENCY          100000
Info: DCD FIRST STEP         100000
Info: DCD FILE WILL CONTAIN UNIT CELL DATA
Info: XST FILENAME           mobley_252413_prod.xst
Info: XST FREQUENCY          100000
Info: NO VELOCITY DCD OUTPUT
Info: NO FORCE DCD OUTPUT
Info: OUTPUT FILENAME        mobley_252413_prod
Info: BINARY OUTPUT FILES WILL BE USED
Info: RESTART FILENAME       mobley_252413_prod.restart
Info: RESTART FREQUENCY      100000
Info: BINARY RESTART FILES WILL BE USED
Info: CUTOFF                 9
Info: PAIRLIST DISTANCE      11
Info: PAIRLIST SHRINK RATE   0.01
Info: PAIRLIST GROW RATE     0.01
Info: PAIRLIST TRIGGER       0.3
Info: PAIRLISTS PER CYCLE    2
Info: PAIRLISTS ENABLED
Info: MARGIN                 2
Info: HYDROGEN GROUP CUTOFF  2.5
Info: PATCH DIMENSION        15.5
Info: ENERGY OUTPUT STEPS    100000
Info: ENERGY EVALUATION STEPS    100000
Info: OUTPUT ENERGY PRECISION 4
Info: CROSSTERM ENERGY INCLUDED IN DIHEDRAL
Info: TIMING OUTPUT STEPS    1000000
Info: PRESSURE OUTPUT STEPS  100000
Info: ALCHEMICAL FEP ON
Info: FEP CURRENT LAMBDA VALUE     1
Info: FEP COMPARISON LAMBDA VALUE  0.95
Info: FEP INTRA-ALCHEMICAL NON-BONDED INTERACTIONS WILL BE RETAINED
Info: FEP INTRA-ALCHEMICAL BONDED INTERACTIONS WILL BE RETAINED
Info: FEP VDW SHIFTING COEFFICIENT 5
Info: FEP ELEC. ACTIVE FOR ANNIHILATED PARTICLES BETWEEN LAMBDA = 0 AND LAMBDA = 0.5
Info: FEP ELEC. ACTIVE FOR EXNIHILATED PARTICLES BETWEEN LAMBDA = 0.5 AND LAMBDA = 1
Info: FEP VDW ACTIVE FOR ANNIHILATED PARTICLES BETWEEN LAMBDA = 0 AND LAMBDA = 1
Info: FEP VDW ACTIVE FOR EXNIHILATED PARTICLES BETWEEN LAMBDA = 0 AND LAMBDA = 1
Info: FEP BOND ACTIVE FOR ANNIHILATED PARTICLES BETWEEN LAMBDA = 1 AND LAMBDA = 1
Info: FEP BOND ACTIVE FOR EXNIHILATED PARTICLES BETWEEN LAMBDA = 0 AND LAMBDA = 0
Info: LANGEVIN DYNAMICS ACTIVE
Info: LANGEVIN TEMPERATURE   300
Info: LANGEVIN USING BBK INTEGRATOR
Info: LANGEVIN DAMPING COEFFICIENT IS 1 INVERSE PS
Info: LANGEVIN DYNAMICS APPLIED TO HYDROGENS
Info: LANGEVIN PISTON PRESSURE CONTROL ACTIVE
Info:        TARGET PRESSURE IS 1.01325 BAR
Info:     OSCILLATION PERIOD IS 50 FS
Info:             DECAY TIME IS 25 FS
Info:     PISTON TEMPERATURE IS 300 K
Info:       PRESSURE CONTROL IS GROUP-BASED
Info:    INITIAL STRAIN RATE IS 0.000268242 0.000268242 0.000268242
Info:       CELL FLUCTUATION IS ISOTROPIC
Info: PARTICLE MESH EWALD (PME) ACTIVE
Info: PME TOLERANCE               1e-06
Info: PME EWALD COEFFICIENT       0.348832
Info: PME INTERPOLATION ORDER     4
Info: PME GRID DIMENSIONS         36 32 32
Info: PME MAXIMUM GRID SPACING    1
Info: PME CALCULATION WILL BE PERFORMED ON GPU
Info: FULL ELECTROSTATIC EVALUATION FREQUENCY      2
Info: USING VERLET I (r-RESPA) MTS SCHEME.
Info: C1 SPLITTING OF LONG RANGE ELECTROSTATICS
Info: PLACING ATOMS IN PATCHES BY HYDROGEN GROUPS
Info: RIGID BONDS TO HYDROGEN : ALL
Info:         ERROR TOLERANCE : 1e-08
Info:          MAX ITERATIONS : 100
Info: RIGID WATER USING SETTLE ALGORITHM
Info: RANDOM NUMBER SEED     1743827542
Info: USE HYDROGEN BONDS?    NO
Info: Using AMBER format force field!
Info: AMBER PARM FILE        mobley_252413.prmtop
Info: COORDINATE PDB         mobley_252413.pdb
Info: Exclusions will be read from PARM file!
Info: SCNB (VDW SCALING)     2
Info: USING ARITHMETIC MEAN TO COMBINE L-J SIGMA PARAMETERS
Info: BINARY COORDINATES     mobley_252413_equil.coor
Info: SUMMARY OF PARAMETERS:
Info: 4 BONDS
Info: 3 ANGLES
Info:   3 HARMONIC
Info:   0 COSINE-BASED
Info: 5 DIHEDRAL
Info: 0 IMPROPER
Info: 0 CROSSTERM
Info: 0 VDW
Info: 10 VDW_PAIRS
Info: 0 NBTHOLE_PAIRS
Info: To read alchdata from file: mobley_252413.pdb
Info: To read alchflag data from column: 5
Info: STRUCTURE SUMMARY:
Info: 2957 ATOMS
Info: 2956 BONDS
Info: 42 ANGLES
Info: 62 DIHEDRALS
Info: 0 IMPROPERS
Info: 0 CROSSTERMS
Info: 3052 EXCLUSIONS
Info: 2950 RIGID BONDS
Info: ALCH: 0 ATOMS TO DISAPPEAR IN FINAL STATE
Info: ALCH: 23 ATOMS TO APPEAR IN FINAL STATE
Info: 5921 DEGREES OF FREEDOM
Info: 985 HYDROGEN GROUPS
Info: 4 ATOMS IN LARGEST HYDROGEN GROUP
Info: 985 MIGRATION GROUPS
Info: 4 ATOMS IN LARGEST MIGRATION GROUP
Info: TOTAL MASS = 17719.8 amu
Info: TOTAL CHARGE = -0.000200018 e
Info: MASS DENSITY = 0.950239 g/cm^3
Info: ATOM DENSITY = 0.0954915 atoms/A^3
Info: ADDED 0 IMPLICIT EXCLUSIONS
Info: NONBONDED TABLE R-SQUARED SPACING: 0.0625
Info: NONBONDED TABLE SIZE: 705 POINTS
Info: REMOVING COM VELOCITY 0.0203948 -0.0812178 0.149594
Info: Use 3D box decompostion in PME FFT.
Info: Updated CUDA force table with 4096 elements.
Info: Updated CUDA LJ table with 4 x 4 elements.
Info: Found 26 unique exclusion lists needing 80 bytes
TCL: Running for 1500000 steps
ETITLE: TS BOND ANGLE DIHED IMPRP ELECT VDW BOUNDARY MISC KINETIC TOTAL TEMP POTENTIAL TOTALAVG TEMPAVG PRESSURE GPRESSURE VOLUME PRESSAVG GPRESSAVG
ENERGY: 0 1.7976 9.0728 2.6004 0.0000 -10543.2472 1327.5178 0.0000 0.0000 1828.1747 -7374.0839 310.7513 -9202.2586 -7374.0839 310.7513 -950.2286 -875.9538 30966.0916 -950.2286 -875.9538
ENERGY: 300000 1.0686 14.2125 2.3751 0.0000 -10704.8036 1443.4481 0.0000 0.0000 1808.8286 -7434.8708 307.4629 -9243.6994 -7415.7579 307.3089 -33.1581 58.7387 30555.1856 -503.4120 -447.1874
ENERGY: 600000 1.2135 17.9732 3.6348 0.0000 -10845.8575 1528.0364 0.0000 0.0000 1776.0393 -7518.9604 301.8894 -9294.9996 -7441.6736 303.5563 491.7633 618.2501 30250.4458 -289.0687 -230.6232
ENERGY: 900000 2.0075 12.9323 5.3098 0.0000 -10582.3527 1407.2237 0.0000 0.0000 1777.7497 -7377.1298 302.1802 -9154.8795 -7441.5517 302.2932 -127.0954 -55.3566 30857.7573 -121.6937 -59.7869
ENERGY: 1200000 2.1260 9.4610 3.8724 0.0000 -10676.4827 1427.5446 0.0000 0.0000 1747.3454 -7486.1333 297.0121 -9233.4788 -7462.3306 300.9626 -320.7063 -237.7576 30745.5201 -114.9517 -49.3594
ENERGY: 1500000 3.6895 10.9389 3.2211 0.0000 -10761.1090 1436.7672 0.0000 0.0000 1757.4433 -7549.0489 298.7285 -9306.4923 -7466.0821 301.5711 -403.7004 -364.9923 30747.1646 -119.7281 -56.7103
TCL: Running FEP window   2: Lambda1 0.95   Lambda2 0.8999999999999999 [dLambda -0.050000000000000044]
TCL: Setting parameter firsttimestep to 0
TCL: Setting parameter alchLambda to 0.95
Info: NONBONDED TABLE R-SQUARED SPACING: 0.0625
Info: NONBONDED TABLE SIZE: 705 POINTS
TCL: Setting parameter alchLambda2 to 0.8999999999999999
Info: NONBONDED TABLE R-SQUARED SPACING: 0.0625
Info: NONBONDED TABLE SIZE: 705 POINTS
TCL: Running for 1500000 steps
ETITLE: TS BOND ANGLE DIHED IMPRP ELECT VDW BOUNDARY MISC KINETIC TOTAL TEMP POTENTIAL TOTALAVG TEMPAVG PRESSURE GPRESSURE VOLUME PRESSAVG GPRESSAVG
ENERGY: 0 3.6895 10.9389 3.2211 0.0000 -10761.0988 1437.1365 0.0000 0.0000 1756.5992 -7549.5136 298.5850 -9306.1129 -7549.5136 298.5850 -450.5107 -371.7785 30747.1646 -450.5107 -371.7785
ENERGY: 300000 2.5609 12.1280 4.5182 0.0000 -10805.1300 1581.4685 0.0000 0.0000 1698.5569 -7505.8974 288.7190 -9204.4543 -7477.3087 295.7328 1205.7071 1274.3820 30151.3829 353.8318 406.2933
ENERGY: 600000 2.8590 12.5942 2.7414 0.0000 -10750.3272 1498.5163 0.0000 0.0000 1733.9711 -7499.6451 294.7387 -9233.6162 -7462.1303 296.7495 397.7180 430.5548 30415.4104 241.7796 280.9257
ENERGY: 900000 1.0300 11.0467 3.9907 0.0000 -10688.9285 1360.2811 0.0000 0.0000 1787.8831 -7524.6968 303.9026 -9312.5800 -7461.1400 298.5815 -703.6936 -660.6091 30384.1145 57.3686 107.1215
ENERGY: 1200000 3.2665 8.3977 4.5386 0.0000 -10660.0073 1421.8421 0.0000 0.0000 1780.8471 -7441.1153 302.7067 -9221.9624 -7454.6017 300.2098 -160.1789 -95.7571 30494.7658 -10.7722 48.0711
ENERGY: 1500000 2.9027 8.5490 2.6640 0.0000 -10718.7199 1476.0604 0.0000 0.0000 1797.4939 -7431.0499 305.5362 -9228.5438 -7447.4666 301.3335 481.2078 574.6358 30056.0651 -0.6532 57.5164
TCL: Running FEP window   3: Lambda1 0.8999999999999999 Lambda2 0.8499999999999999 [dLambda -0.050000000000000044]
TCL: Setting parameter firsttimestep to 0
TCL: Setting parameter alchLambda to 0.8999999999999999
Info: NONBONDED TABLE R-SQUARED SPACING: 0.0625
Info: NONBONDED TABLE SIZE: 705 POINTS
TCL: Setting parameter alchLambda2 to 0.8499999999999999
Info: NONBONDED TABLE R-SQUARED SPACING: 0.0625
Info: NONBONDED TABLE SIZE: 705 POINTS
TCL: Running for 1500000 steps
ETITLE: TS BOND ANGLE DIHED IMPRP ELECT VDW BOUNDARY MISC KINETIC TOTAL TEMP POTENTIAL TOTALAVG TEMPAVG PRESSURE GPRESSURE VOLUME PRESSAVG GPRESSAVG
ENERGY: 0 2.9027 8.5490 2.6640 0.0000 -10718.6974 1475.7159 0.0000 0.0000 1796.6166 -7432.2492 305.3871 -9228.8659 -7432.2492 305.3871 472.5182 550.9110 30056.0651 472.5182 550.9110
ENERGY: 300000 1.8835 10.7631 3.1045 0.0000 -10592.0175 1436.6227 0.0000 0.0000 1793.7679 -7345.8759 304.9029 -9139.6438 -7412.9803 300.4516 307.4261 334.4420 30529.9276 -8.7447 30.5177
ENERGY: 600000 0.4506 11.0582 2.9309 0.0000 -10668.6389 1454.3187 0.0000 0.0000 1761.5531 -7438.3275 299.4271 -9199.8805 -7432.7560 299.3439 139.9111 230.7904 30426.5866 -137.5109 -87.3781
ENERGY: 900000 3.4073 11.0993 2.4206 0.0000 -10727.6377 1470.2917 0.0000 0.0000 1797.7662 -7442.6526 305.5825 -9240.4188 -7446.3911 299.9898 181.2677 254.0504 30290.9360 -79.6142 -22.0788
ENERGY: 1200000 2.4195 10.8381 4.3165 0.0000 -10629.6571 1360.3897 0.0000 0.0000 1789.4275 -7462.2658 304.1651 -9251.6933 -7447.9677 300.0041 -549.6156 -513.4602 30560.7930 -123.9850 -67.7301
ENERGY: 1500000 2.1277 12.8177 3.8587 0.0000 -10518.3902 1425.9048 0.0000 0.0000 1769.0009 -7304.6803 300.6930 -9073.6812 -7442.3921 300.3766 324.0813 405.7500 30660.7515 -81.6410 -19.0950
TCL: Running FEP window   4: Lambda1 0.8499999999999999 Lambda2 0.7999999999999998 [dLambda -0.050000000000000044]
TCL: Setting parameter firsttimestep to 0
TCL: Setting parameter alchLambda to 0.8499999999999999
Info: NONBONDED TABLE R-SQUARED SPACING: 0.0625
Info: NONBONDED TABLE SIZE: 705 POINTS
TCL: Setting parameter alchLambda2 to 0.7999999999999998
Info: NONBONDED TABLE R-SQUARED SPACING: 0.0625
Info: NONBONDED TABLE SIZE: 705 POINTS
TCL: Running for 1500000 steps
ETITLE: TS BOND ANGLE DIHED IMPRP ELECT VDW BOUNDARY MISC KINETIC TOTAL TEMP POTENTIAL TOTALAVG TEMPAVG PRESSURE GPRESSURE VOLUME PRESSAVG GPRESSAVG
ENERGY: 0 2.1277 12.8177 3.8587 0.0000 -10518.3711 1426.2985 0.0000 0.0000 1768.1577 -7305.1107 300.5497 -9073.2684 -7305.1107 300.5497 317.3045 401.5409 30660.7515 317.3045 401.5409
ENERGY: 300000 3.8590 8.8308 2.6445 0.0000 -10620.7558 1462.0587 0.0000 0.0000 1740.3805 -7402.9823 295.8282 -9143.3628 -7383.6062 301.2160 544.2936 599.9168 30359.9650 -145.8205 -59.3831
ENERGY: 600000 0.6559 7.7202 4.6944 0.0000 -10797.1623 1625.5131 0.0000 0.0000 1739.2952 -7419.2834 295.6437 -9158.5786 -7394.2789 300.5606 1591.4348 1673.4040 30510.6840 351.0701 422.5488
ENERGY: 900000 2.0531 19.1981 3.0151 0.0000 -10754.1944 1436.7500 0.0000 0.0000 1805.4593 -7487.7187 306.8902 -9293.1781 -7407.3638 302.1817 -332.3535 -328.9713 30675.4948 194.1273 246.6313
ENERGY: 1200000 1.3645 19.0700 2.8951 0.0000 -10669.8148 1381.6337 0.0000 0.0000 1825.5390 -7439.3126 310.3033 -9264.8516 -7420.2556 302.2971 -310.1553 -302.4823 30139.3306 154.4952 206.6777
ENERGY: 1500000 3.5761 16.8081 3.0254 0.0000 -10653.3623 1437.5052 0.0000 0.0000 1786.3105 -7406.1370 303.6353 -9192.4475 -7429.0288 302.3507 423.6363 404.4484 29830.8545 148.2490 194.7135
TCL: Running FEP window   5: Lambda1 0.7999999999999998 Lambda2 0.7499999999999998 [dLambda -0.050000000000000044]
TCL: Setting parameter firsttimestep to 0
TCL: Setting parameter alchLambda to 0.7999999999999998
Info: NONBONDED TABLE R-SQUARED SPACING: 0.0625
Info: NONBONDED TABLE SIZE: 705 POINTS
TCL: Setting parameter alchLambda2 to 0.7499999999999998
Info: NONBONDED TABLE R-SQUARED SPACING: 0.0625
Info: NONBONDED TABLE SIZE: 705 POINTS
TCL: Running for 1500000 steps
ETITLE: TS BOND ANGLE DIHED IMPRP ELECT VDW BOUNDARY MISC KINETIC TOTAL TEMP POTENTIAL TOTALAVG TEMPAVG PRESSURE GPRESSURE VOLUME PRESSAVG GPRESSAVG
ENERGY: 0 3.5761 16.8081 3.0254 0.0000 -10653.3455 1438.2216 0.0000 0.0000 1785.4165 -7406.2978 303.4834 -9191.7143 -7406.2978 303.4834 320.7349 402.7332 29830.8545 320.7349 402.7332
ENERGY: 300000 3.6631 9.2221 3.6226 0.0000 -10645.6858 1350.6250 0.0000 0.0000 1795.0146 -7483.5385 305.1148 -9278.5531 -7484.0149 301.7713 -799.1532 -803.8210 30243.4646 93.8608 135.8932
ENERGY: 600000 0.8825 10.6297 3.4130 0.0000 -10702.2162 1454.7682 0.0000 0.0000 1739.5597 -7492.9630 295.6887 -9232.5227 -7478.1309 301.0046 306.8360 375.8053 30289.1050 26.9278 89.9789
ENERGY: 900000 5.7253 8.7822 3.8107 0.0000 -10658.3914 1396.2701 0.0000 0.0000 1784.6753 -7459.1277 303.3574 -9243.8030 -7473.6716 301.2380 -433.2632 -365.9816 30602.8546 -110.2615 -42.5912
ENERGY: 1200000 2.9483 10.4178 2.8432 0.0000 -10714.0938 1415.7190 0.0000 0.0000 1783.6274 -7498.5382 303.1792 -9282.1655 -7474.4343 300.3533 -361.4241 -274.5370 30286.9463 -169.2127 -101.4899
ENERGY: 1500000 2.9775 11.9837 2.6874 0.0000 -10505.5535 1323.7367 0.0000 0.0000 1797.1658 -7367.0025 305.4805 -9164.1683 -7470.3607 300.5807 -825.0689 -763.7466 30697.3291 -222.6823 -157.7692
TCL: Running FEP window   6: Lambda1 0.7499999999999998 Lambda2 0.6999999999999997 [dLambda -0.050000000000000044]
TCL: Setting parameter firsttimestep to 0
TCL: Setting parameter alchLambda to 0.7499999999999998
Info: NONBONDED TABLE R-SQUARED SPACING: 0.0625
Info: NONBONDED TABLE SIZE: 705 POINTS
TCL: Setting parameter alchLambda2 to 0.6999999999999997
Info: NONBONDED TABLE R-SQUARED SPACING: 0.0625
Info: NONBONDED TABLE SIZE: 705 POINTS
TCL: Running for 1500000 steps
ETITLE: TS BOND ANGLE DIHED IMPRP ELECT VDW BOUNDARY MISC KINETIC TOTAL TEMP POTENTIAL TOTALAVG TEMPAVG PRESSURE GPRESSURE VOLUME PRESSAVG GPRESSAVG
ENERGY: 0 2.9775 11.9837 2.6874 0.0000 -10505.5393 1324.1173 0.0000 0.0000 1796.2870 -7367.4865 305.3311 -9163.7736 -7367.4865 305.3311 -854.2205 -768.0150 30697.3291 -854.2205 -768.0150
ENERGY: 300000 3.7945 10.9297 3.6504 0.0000 -10760.1112 1472.7911 0.0000 0.0000 1751.6654 -7517.2802 297.7464 -9268.9455 -7443.9612 300.1161 60.1516 124.4566 30369.4939 -49.6783 8.7908
ENERGY: 600000 0.6548 11.4270 3.1987 0.0000 -10617.6246 1321.7614 0.0000 0.0000 1736.7732 -7543.8095 295.2150 -9280.5827 -7452.8207 299.6887 -947.6927 -827.7065 30247.0055 -49.8251 17.1292
ENERGY: 900000 1.3237 8.4198 3.2950 0.0000 -10813.4176 1500.8987 0.0000 0.0000 1854.6323 -7444.8482 315.2486 -9299.4804 -7455.8017 300.4414 326.4801 322.3209 30481.5524 -72.4183 -9.3215
ENERGY: 1200000 2.7210 11.4264 2.7297 0.0000 -10584.7707 1354.7044 0.0000 0.0000 1741.4597 -7471.7295 296.0116 -9213.1893 -7456.2887 300.4419 -659.0057 -593.2203 30653.8411 39.1244 100.5891
ENERGY: 1500000 2.3491 14.7004 2.4441 0.0000 -10544.7638 1373.7336 0.0000 0.0000 1741.2857 -7410.2509 295.9820 -9151.5366 -7447.9831 301.1546 -329.9756 -265.9860 30800.1399 44.2017 99.2149
TCL: Running FEP window   7: Lambda1 0.6999999999999997 Lambda2 0.6499999999999997 [dLambda -0.050000000000000044]
TCL: Setting parameter firsttimestep to 0
TCL: Setting parameter alchLambda to 0.6999999999999997
Info: NONBONDED TABLE R-SQUARED SPACING: 0.0625
Info: NONBONDED TABLE SIZE: 705 POINTS
TCL: Setting parameter alchLambda2 to 0.6499999999999997
Info: NONBONDED TABLE R-SQUARED SPACING: 0.0625
Info: NONBONDED TABLE SIZE: 705 POINTS
TCL: Running for 1500000 steps
ETITLE: TS BOND ANGLE DIHED IMPRP ELECT VDW BOUNDARY MISC KINETIC TOTAL TEMP POTENTIAL TOTALAVG TEMPAVG PRESSURE GPRESSURE VOLUME PRESSAVG GPRESSAVG
ENERGY: 0 2.3491 14.7004 2.4441 0.0000 -10544.7199 1373.4918 0.0000 0.0000 1740.4177 -7411.3168 295.8345 -9151.7345 -7411.3168 295.8345 -352.2479 -280.8478 30800.1399 -352.2479 -280.8478
ENERGY: 300000 1.9811 17.0578 3.4095 0.0000 -10793.2548 1524.6906 0.0000 0.0000 1741.5749 -7504.5409 296.0312 -9246.1158 -7482.6050 295.4000 577.3637 626.6473 30285.6979 194.8002 229.3928
ENERGY: 600000 2.0737 13.1536 5.1311 0.0000 -10566.8380 1388.9030 0.0000 0.0000 1726.8249 -7430.7517 293.5240 -9157.5766 -7465.3493 296.5066 -294.6887 -154.4233 30344.4358 189.0628 253.3209
ENERGY: 900000 2.6465 16.7514 3.8227 0.0000 -10595.6433 1393.4056 0.0000 0.0000 1773.4185 -7405.5985 301.4439 -9179.0170 -7470.5543 297.2147 -350.4272 -351.1113 30592.2279 144.2433 200.5480
ENERGY: 1200000 5.3853 8.8369 4.1967 0.0000 -10624.9399 1416.9906 0.0000 0.0000 1728.2544 -7461.2761 293.7670 -9189.5304 -7458.2628 298.4168 -265.2048 -271.4840 30338.8655 93.9089 146.1445
ENERGY: 1500000 3.6121 7.3770 2.7977 0.0000 -10635.4147 1512.5900 0.0000 0.0000 1808.1210 -7300.9168 307.3426 -9109.0378 -7452.1069 299.4664 831.2172 857.3673 30669.6037 144.8245 191.3625
TCL: Running FEP window   8: Lambda1 0.6499999999999997 Lambda2 0.5999999999999996 [dLambda -0.050000000000000044]
TCL: Setting parameter firsttimestep to 0
TCL: Setting parameter alchLambda to 0.6499999999999997
Info: NONBONDED TABLE R-SQUARED SPACING: 0.0625
Info: NONBONDED TABLE SIZE: 705 POINTS
TCL: Setting parameter alchLambda2 to 0.5999999999999996
Info: NONBONDED TABLE R-SQUARED SPACING: 0.0625
Info: NONBONDED TABLE SIZE: 705 POINTS
TCL: Running for 1500000 steps
ETITLE: TS BOND ANGLE DIHED IMPRP ELECT VDW BOUNDARY MISC KINETIC TOTAL TEMP POTENTIAL TOTALAVG TEMPAVG PRESSURE GPRESSURE VOLUME PRESSAVG GPRESSAVG
ENERGY: 0 3.6121 7.3770 2.7977 0.0000 -10635.4521 1512.3839 0.0000 0.0000 1807.2629 -7302.0186 307.1968 -9109.2814 -7302.0186 307.1968 771.6548 848.3002 30669.6037 771.6548 848.3002
ENERGY: 300000 3.7502 8.7370 3.1036 0.0000 -10737.0069 1421.0107 0.0000 0.0000 1720.2756 -7580.1299 292.4108 -9300.4055 -7493.2845 298.3138 -811.6100 -654.1575 30636.3437 -267.4065 -171.2117
ENERGY: 600000 2.9256 11.7627 3.4276 0.0000 -10712.7034 1468.7403 0.0000 0.0000 1789.4631 -7436.3841 304.1712 -9225.8472 -7470.5841 299.6507 156.9071 234.5229 30647.0091 -149.6385 -63.7285
ENERGY: 900000 6.1585 10.7156 2.4687 0.0000 -10671.6216 1392.9379 0.0000 0.0000 1764.8497 -7494.4911 299.9874 -9259.3408 -7464.1333 299.8083 -262.9754 -253.6223 29934.1492 -99.1635 -31.9843
ENERGY: 1200000 2.3907 9.9930 2.4671 0.0000 -10669.7659 1404.0440 0.0000 0.0000 1792.1320 -7458.7393 304.6248 -9250.8712 -7472.6779 299.9378 -318.3428 -257.1261 30306.6768 -97.8426 -37.7811
ENERGY: 1500000 3.6988 14.5659 3.2162 0.0000 -10767.0740 1498.4203 0.0000 0.0000 1741.2028 -7505.9699 295.9679 -9247.1727 -7472.2352 299.4335 462.7595 510.8343 30219.7396 -70.1177 -13.2850
TCL: Running FEP window   9: Lambda1 0.5999999999999996 Lambda2 0.5499999999999996 [dLambda -0.050000000000000044]
TCL: Setting parameter firsttimestep to 0
TCL: Setting parameter alchLambda to 0.5999999999999996
Info: NONBONDED TABLE R-SQUARED SPACING: 0.0625
Info: NONBONDED TABLE SIZE: 705 POINTS
TCL: Setting parameter alchLambda2 to 0.5499999999999996
Info: NONBONDED TABLE R-SQUARED SPACING: 0.0625
Info: NONBONDED TABLE SIZE: 705 POINTS
TCL: Running for 1500000 steps
ETITLE: TS BOND ANGLE DIHED IMPRP ELECT VDW BOUNDARY MISC KINETIC TOTAL TEMP POTENTIAL TOTALAVG TEMPAVG PRESSURE GPRESSURE VOLUME PRESSAVG GPRESSAVG
ENERGY: 0 3.6988 14.5659 3.2162 0.0000 -10767.0900 1498.9927 0.0000 0.0000 1740.3653 -7506.2510 295.8256 -9246.6163 -7506.2510 295.8256 423.5486 509.6701 30219.7396 423.5486 509.6701
ENERGY: 300000 0.5584 12.0659 3.0051 0.0000 -10698.3674 1466.9479 0.0000 0.0000 1756.3506 -7459.4394 298.5428 -9215.7900 -7456.9344 298.3628 238.4521 357.1265 30262.7987 265.0933 347.0915
ENERGY: 600000 2.4942 10.7228 2.4622 0.0000 -10676.0131 1472.7903 0.0000 0.0000 1769.5149 -7418.0288 300.7804 -9187.5436 -7450.6886 301.0085 152.2117 176.1358 30691.4116 180.8661 255.4605
ENERGY: 900000 2.6123 12.4081 3.8606 0.0000 -10734.1227 1428.0777 0.0000 0.0000 1854.0810 -7433.0831 315.1549 -9287.1641 -7446.8636 302.6981 -162.8669 -109.3535 30184.6165 204.7833 280.0884
ENERGY: 1200000 0.7283 13.3915 3.4199 0.0000 -10777.2681 1510.2611 0.0000 0.0000 1722.5419 -7526.9255 292.7960 -9249.4673 -7458.2934 301.5027 965.5719 974.1294 29749.4953 162.6402 229.1626
ENERGY: 1500000 1.2532 16.0889 2.5330 0.0000 -10561.0793 1332.3629 0.0000 0.0000 1770.4923 -7438.3489 300.9466 -9208.8413 -7463.6111 301.1265 -646.6023 -669.1125 30335.3826 77.9759 144.1090
TCL: Running FEP window  10: Lambda1 0.5499999999999996 Lambda2 0.4999999999999996 [dLambda -0.04999999999999999]
TCL: Setting parameter firsttimestep to 0
TCL: Setting parameter alchLambda to 0.5499999999999996
Info: NONBONDED TABLE R-SQUARED SPACING: 0.0625
Info: NONBONDED TABLE SIZE: 705 POINTS
TCL: Setting parameter alchLambda2 to 0.4999999999999996
Info: NONBONDED TABLE R-SQUARED SPACING: 0.0625
Info: NONBONDED TABLE SIZE: 705 POINTS
TCL: Running for 1500000 steps
ETITLE: TS BOND ANGLE DIHED IMPRP ELECT VDW BOUNDARY MISC KINETIC TOTAL TEMP POTENTIAL TOTALAVG TEMPAVG PRESSURE GPRESSURE VOLUME PRESSAVG GPRESSAVG
ENERGY: 0 1.2532 16.0889 2.5330 0.0000 -10561.1662 1332.8984 0.0000 0.0000 1769.6142 -7438.7785 300.7973 -9208.3926 -7438.7785 300.7973 -745.7938 -671.8480 30335.3826 -745.7938 -671.8480
ENERGY: 300000 1.2085 16.4656 3.5273 0.0000 -10716.2257 1484.0645 0.0000 0.0000 1793.0272 -7417.9326 304.7770 -9210.9598 -7439.5215 301.3715 528.1137 601.4842 30269.7715 -201.1726 -145.5151
ENERGY: 600000 3.4632 15.2527 4.3820 0.0000 -10648.8376 1397.6445 0.0000 0.0000 1742.0628 -7486.0324 296.1141 -9228.0952 -7443.1719 299.6995 -322.9594 -221.3839 30105.7835 -114.7508 -34.2220
ENERGY: 900000 2.4939 10.9058 2.6662 0.0000 -10728.1896 1474.8623 0.0000 0.0000 1743.2411 -7494.0204 296.3144 -9237.2615 -7444.9054 298.9378 323.1976 406.2890 30182.0620 -71.9582 9.1899
ENERGY: 1200000 0.5919 13.7780 3.2427 0.0000 -10529.0305 1338.6487 0.0000 0.0000 1789.5892 -7383.1799 304.1926 -9172.7692 -7451.6431 298.4243 -430.2786 -399.1291 30349.6395 -33.7470 37.3948
ENERGY: 1500000 1.4545 13.1012 3.0041 0.0000 -10617.4476 1347.0348 0.0000 0.0000 1737.7437 -7515.1093 295.3800 -9252.8531 -7454.9063 298.7251 -879.0282 -800.3359 30665.7087 -136.3564 -65.0078
TCL: Running FEP window  11: Lambda1 0.4999999999999996 Lambda2 0.4499999999999996 [dLambda -0.04999999999999999]
TCL: Setting parameter firsttimestep to 0
TCL: Setting parameter alchLambda to 0.4999999999999996
Info: NONBONDED TABLE R-SQUARED SPACING: 0.0625
Info: NONBONDED TABLE SIZE: 705 POINTS
TCL: Setting parameter alchLambda2 to 0.4499999999999996
Info: NONBONDED TABLE R-SQUARED SPACING: 0.0625
Info: NONBONDED TABLE SIZE: 705 POINTS
TCL: Running for 1500000 steps
ETITLE: TS BOND ANGLE DIHED IMPRP ELECT VDW BOUNDARY MISC KINETIC TOTAL TEMP POTENTIAL TOTALAVG TEMPAVG PRESSURE GPRESSURE VOLUME PRESSAVG GPRESSAVG
ENERGY: 0 1.4545 13.1012 3.0041 0.0000 -10617.4823 1347.3923 0.0000 0.0000 1736.8690 -7515.6613 295.2313 -9252.5303 -7515.6613 295.2313 -895.9385 -805.4866 30665.7087 -895.9385 -805.4866
ENERGY: 300000 2.3078 12.0211 3.1425 0.0000 -10778.7112 1495.9783 0.0000 0.0000 1759.4199 -7505.8415 299.0645 -9265.2614 -7512.9499 300.8417 542.7111 554.4450 30150.4356 -180.7079 -107.9636
ENERGY: 600000 0.8456 10.9288 4.0244 0.0000 -10624.4648 1408.5206 0.0000 0.0000 1791.2749 -7408.8705 304.4791 -9200.1453 -7494.9716 301.1773 121.1711 120.7156 30179.6010 -63.5070 -0.0719
ENERGY: 900000 2.6357 12.4646 2.7431 0.0000 -10635.6031 1473.1519 0.0000 0.0000 1743.7335 -7400.8742 296.3981 -9144.6077 -7483.5281 300.1542 785.4183 805.2949 30215.1237 56.5574 111.9121
ENERGY: 1200000 3.1161 10.0125 3.3408 0.0000 -10707.9579 1435.9811 0.0000 0.0000 1761.8748 -7493.6326 299.4818 -9255.5074 -7473.2023 300.5624 -131.1439 -98.6882 30256.6643 110.7263 160.6375
ENERGY: 1500000 1.4008 9.0095 3.8511 0.0000 -10742.9759 1509.3499 0.0000 0.0000 1764.2985 -7455.0660 299.8937 -9219.3645 -7465.3086 300.8476 375.8364 469.7781 30624.6554 78.5614 131.8252
TCL: Running FEP window  12: Lambda1 0.4499999999999996 Lambda2 0.39999999999999963 [dLambda -0.04999999999999999]
TCL: Setting parameter firsttimestep to 0
TCL: Setting parameter alchLambda to 0.4499999999999996
Info: NONBONDED TABLE R-SQUARED SPACING: 0.0625
Info: NONBONDED TABLE SIZE: 705 POINTS
TCL: Setting parameter alchLambda2 to 0.39999999999999963
Info: NONBONDED TABLE R-SQUARED SPACING: 0.0625
Info: NONBONDED TABLE SIZE: 705 POINTS
TCL: Running for 1500000 steps
ETITLE: TS BOND ANGLE DIHED IMPRP ELECT VDW BOUNDARY MISC KINETIC TOTAL TEMP POTENTIAL TOTALAVG TEMPAVG PRESSURE GPRESSURE VOLUME PRESSAVG GPRESSAVG
ENERGY: 0 1.4008 9.0095 3.8511 0.0000 -10742.9783 1509.7281 0.0000 0.0000 1763.4460 -7455.5428 299.7488 -9218.9888 -7455.5428 299.7488 361.8790 465.1866 30624.6554 361.8790 465.1866
ENERGY: 300000 3.6503 7.2883 5.3049 0.0000 -10615.5264 1375.0569 0.0000 0.0000 1758.1517 -7466.0743 298.8489 -9224.2261 -7457.6471 301.2769 -763.4760 -689.4117 30601.2954 -117.2260 -25.0525
ENERGY: 600000 0.3126 10.1889 5.4649 0.0000 -10589.7468 1346.8317 0.0000 0.0000 1803.2507 -7423.6979 306.5148 -9226.9486 -7455.7487 302.9283 -580.6667 -539.6113 30185.0369 -163.1181 -94.5787
ENERGY: 900000 2.0413 14.1238 4.1597 0.0000 -10703.4401 1440.0860 0.0000 0.0000 1782.8332 -7460.1960 303.0442 -9243.0292 -7459.7506 302.2292 -216.4752 -144.0288 30460.5600 -97.9256 -26.7757
ENERGY: 1200000 0.3434 16.3713 3.7147 0.0000 -10753.2564 1484.9738 0.0000 0.0000 1767.6811 -7480.1721 300.4687 -9247.8532 -7472.0552 300.7831 492.5169 557.0693 29954.4298 -90.5247 -28.3962
ENERGY: 1500000 1.4636 11.1789 3.6635 0.0000 -10597.0838 1373.6562 0.0000 0.0000 1802.5962 -7404.5255 306.4035 -9207.1217 -7466.6538 300.9813 -462.1139 -422.5909 30471.1497 -119.3440 -60.9781
TCL: Running FEP window  13: Lambda1 0.39999999999999963 Lambda2 0.34999999999999964 [dLambda -0.04999999999999999]
TCL: Setting parameter firsttimestep to 0
TCL: Setting parameter alchLambda to 0.39999999999999963
Info: NONBONDED TABLE R-SQUARED SPACING: 0.0625
Info: NONBONDED TABLE SIZE: 705 POINTS
TCL: Setting parameter alchLambda2 to 0.34999999999999964
Info: NONBONDED TABLE R-SQUARED SPACING: 0.0625
Info: NONBONDED TABLE SIZE: 705 POINTS
TCL: Running for 1500000 steps
ETITLE: TS BOND ANGLE DIHED IMPRP ELECT VDW BOUNDARY MISC KINETIC TOTAL TEMP POTENTIAL TOTALAVG TEMPAVG PRESSURE GPRESSURE VOLUME PRESSAVG GPRESSAVG
ENERGY: 0 1.4636 11.1789 3.6635 0.0000 -10597.0856 1373.9959 0.0000 0.0000 1801.7063 -7405.0774 306.2523 -9206.7837 -7405.0774 306.2523 -522.0662 -426.0663 30471.1497 -522.0662 -426.0663
ENERGY: 300000 3.5996 7.9874 3.7922 0.0000 -10631.2906 1416.4248 0.0000 0.0000 1853.0382 -7346.4484 314.9776 -9199.4866 -7422.9276 304.8714 -116.6982 -36.0864 30414.5164 114.3466 212.0813
ENERGY: 600000 1.4500 15.0400 3.5216 0.0000 -10522.9077 1386.0064 0.0000 0.0000 1780.1664 -7336.7233 302.5909 -9116.8896 -7423.7727 303.3419 -28.4927 -1.9357 30430.6781 125.8521 210.6384
ENERGY: 900000 2.8836 8.5739 3.8329 0.0000 -10586.7581 1337.6554 0.0000 0.0000 1786.5998 -7447.2124 303.6845 -9233.8123 -7436.2103 302.1892 -966.8070 -917.1171 30581.9475 -55.2804 23.8774
ENERGY: 1200000 5.7946 9.4143 2.7109 0.0000 -10566.6121 1383.0323 0.0000 0.0000 1722.5840 -7443.0760 292.8031 -9165.6600 -7451.8746 300.3286 -674.5825 -665.4399 30797.9918 -105.6291 -29.4894
ENERGY: 1500000 0.8333 11.7290 3.1647 0.0000 -10620.8099 1414.3760 0.0000 0.0000 1730.4469 -7460.2599 294.1397 -9190.7068 -7454.2876 299.8249 -37.8521 43.6826 30359.6278 -118.2453 -41.3552
TCL: Running FEP window  14: Lambda1 0.34999999999999964 Lambda2 0.29999999999999966 [dLambda -0.04999999999999999]
TCL: Setting parameter firsttimestep to 0
TCL: Setting parameter alchLambda to 0.34999999999999964
Info: NONBONDED TABLE R-SQUARED SPACING: 0.0625
Info: NONBONDED TABLE SIZE: 705 POINTS
TCL: Setting parameter alchLambda2 to 0.29999999999999966
Info: NONBONDED TABLE R-SQUARED SPACING: 0.0625
Info: NONBONDED TABLE SIZE: 705 POINTS
TCL: Running for 1500000 steps
ETITLE: TS BOND ANGLE DIHED IMPRP ELECT VDW BOUNDARY MISC KINETIC TOTAL TEMP POTENTIAL TOTALAVG TEMPAVG PRESSURE GPRESSURE VOLUME PRESSAVG GPRESSAVG
ENERGY: 0 0.8333 11.7290 3.1647 0.0000 -10620.8095 1414.6242 0.0000 0.0000 1729.5925 -7460.8657 293.9944 -9190.4582 -7460.8657 293.9944 -44.2794 42.4972 30359.6278 -44.2794 42.4972
ENERGY: 300000 2.0933 14.5224 3.7107 0.0000 -10667.8073 1466.9010 0.0000 0.0000 1718.0577 -7462.5221 292.0338 -9180.5798 -7455.8374 297.5488 110.7636 189.5504 30500.9456 -173.4922 -113.6939
ENERGY: 600000 2.6976 11.6355 3.2520 0.0000 -10756.0246 1531.0750 0.0000 0.0000 1720.7430 -7486.6214 292.4902 -9207.3644 -7446.7309 298.3203 845.8342 863.8980 29973.8241 0.7067 50.6685
ENERGY: 900000 2.1468 8.2213 3.3787 0.0000 -10577.5374 1344.4579 0.0000 0.0000 1739.3536 -7479.9790 295.6536 -9219.3327 -7469.4055 297.4055 -616.4437 -585.4221 30180.0674 46.6252 83.4561
ENERGY: 1200000 2.0106 11.6853 2.8132 0.0000 -10667.8911 1457.7519 0.0000 0.0000 1791.8912 -7401.7389 304.5839 -9193.6301 -7463.4967 297.3740 304.5620 442.8594 30060.3277 32.6576 83.5497
ENERGY: 1500000 2.1011 9.0694 4.6735 0.0000 -10667.5884 1466.6651 0.0000 0.0000 1757.4072 -7427.6722 298.7224 -9185.0794 -7460.7459 298.1823 353.4256 425.3865 30407.0909 62.5875 119.0463
TCL: Running FEP window  15: Lambda1 0.29999999999999966 Lambda2 0.24999999999999967 [dLambda -0.04999999999999999]
TCL: Setting parameter firsttimestep to 0
TCL: Setting parameter alchLambda to 0.29999999999999966
Info: NONBONDED TABLE R-SQUARED SPACING: 0.0625
Info: NONBONDED TABLE SIZE: 705 POINTS
TCL: Setting parameter alchLambda2 to 0.24999999999999967
Info: NONBONDED TABLE R-SQUARED SPACING: 0.0625
Info: NONBONDED TABLE SIZE: 705 POINTS
TCL: Running for 1500000 steps
ETITLE: TS BOND ANGLE DIHED IMPRP ELECT VDW BOUNDARY MISC KINETIC TOTAL TEMP POTENTIAL TOTALAVG TEMPAVG PRESSURE GPRESSURE VOLUME PRESSAVG GPRESSAVG
ENERGY: 0 2.1010 9.0694 4.6735 0.0000 -10667.5873 1466.3153 0.0000 0.0000 1756.5541 -7428.8740 298.5773 -9185.4281 -7428.8740 298.5773 326.1878 414.6882 30407.0909 326.1878 414.6882
ENERGY: 300000 2.4344 11.9097 1.9216 0.0000 -10766.2682 1476.6359 0.0000 0.0000 1757.3720 -7515.9946 298.7164 -9273.3666 -7496.3346 297.6467 189.2816 181.2352 30076.4078 -161.2154 -101.5225
ENERGY: 600000 3.1395 11.2389 3.5522 0.0000 -10672.5155 1405.5035 0.0000 0.0000 1764.8610 -7484.2204 299.9893 -9249.0815 -7474.9137 300.9928 -335.1839 -317.1934 30021.2264 -159.5457 -104.6067
ENERGY: 900000 1.2242 10.3190 2.5840 0.0000 -10773.3056 1460.3229 0.0000 0.0000 1732.7446 -7566.1109 294.5302 -9298.8556 -7483.6055 299.6042 62.7426 158.4215 30013.3457 -77.1049 -13.1930
ENERGY: 1200000 1.7599 10.1902 3.0488 0.0000 -10681.8363 1413.2248 0.0000 0.0000 1690.5238 -7563.0889 287.3536 -9253.6127 -7484.3483 298.4014 -14.1677 -9.1457 29988.2455 -84.4618 -23.4186
ENERGY: 1500000 1.3256 14.0311 3.3395 0.0000 -10730.3484 1445.5905 0.0000 0.0000 1787.1560 -7478.9058 303.7790 -9266.0618 -7476.0070 298.9357 -138.5053 -83.6561 30402.5290 -45.7728 14.9183
TCL: Running FEP window  16: Lambda1 0.24999999999999967 Lambda2 0.19999999999999968 [dLambda -0.04999999999999999]
TCL: Setting parameter firsttimestep to 0
TCL: Setting parameter alchLambda to 0.24999999999999967
Info: NONBONDED TABLE R-SQUARED SPACING: 0.0625
Info: NONBONDED TABLE SIZE: 705 POINTS
TCL: Setting parameter alchLambda2 to 0.19999999999999968
Info: NONBONDED TABLE R-SQUARED SPACING: 0.0625
Info: NONBONDED TABLE SIZE: 705 POINTS
TCL: Running for 1500000 steps
ETITLE: TS BOND ANGLE DIHED IMPRP ELECT VDW BOUNDARY MISC KINETIC TOTAL TEMP POTENTIAL TOTALAVG TEMPAVG PRESSURE GPRESSURE VOLUME PRESSAVG GPRESSAVG
ENERGY: 0 1.3256 14.0311 3.3395 0.0000 -10730.3480 1445.6967 0.0000 0.0000 1786.2800 -7479.6752 303.6301 -9265.9552 -7479.6752 303.6301 -158.4680 -85.5413 30402.5290 -158.4680 -85.5413
ENERGY: 300000 1.7922 12.4029 3.2905 0.0000 -10710.8553 1423.4928 0.0000 0.0000 1744.5748 -7525.3021 296.5411 -9269.8769 -7457.0624 301.2784 -232.9790 -152.6462 29983.2085 134.7570 203.0205
ENERGY: 600000 3.6949 15.5864 2.8714 0.0000 -10686.6300 1401.1753 0.0000 0.0000 1788.3160 -7474.9860 303.9762 -9263.3020 -7461.7393 302.1788 -305.1405 -270.9399 30472.8752 23.0890 92.4055
ENERGY: 900000 1.2117 8.7255 4.5822 0.0000 -10676.6125 1454.5009 0.0000 0.0000 1743.6168 -7463.9754 296.3783 -9207.5922 -7457.2569 301.2382 151.1843 309.6240 30307.3197 110.2130 192.7957
ENERGY: 1200000 4.4163 9.5207 3.1838 0.0000 -10576.0248 1405.9219 0.0000 0.0000 1779.2936 -7373.6884 302.4426 -9152.9821 -7448.4536 301.3375 -262.4666 -256.5995 31022.3470 82.6047 152.1485
ENERGY: 1500000 2.0674 13.2692 5.0262 0.0000 -10781.3082 1549.2280 0.0000 0.0000 1736.3759 -7475.3417 295.1475 -9211.7175 -7442.6163 300.8213 963.4416 949.7084 30172.8539 130.4279 195.0086
TCL: Running FEP window  17: Lambda1 0.19999999999999968 Lambda2 0.1499999999999997 [dLambda -0.04999999999999999]
TCL: Setting parameter firsttimestep to 0
TCL: Setting parameter alchLambda to 0.19999999999999968
Info: NONBONDED TABLE R-SQUARED SPACING: 0.0625
Info: NONBONDED TABLE SIZE: 705 POINTS
TCL: Setting parameter alchLambda2 to 0.1499999999999997
Info: NONBONDED TABLE R-SQUARED SPACING: 0.0625
Info: NONBONDED TABLE SIZE: 705 POINTS
TCL: Running for 1500000 steps
ETITLE: TS BOND ANGLE DIHED IMPRP ELECT VDW BOUNDARY MISC KINETIC TOTAL TEMP POTENTIAL TOTALAVG TEMPAVG PRESSURE GPRESSURE VOLUME PRESSAVG GPRESSAVG
ENERGY: 0 2.0674 13.2692 5.0262 0.0000 -10781.3083 1549.4683 0.0000 0.0000 1735.5187 -7475.9586 295.0018 -9211.4773 -7475.9586 295.0018 886.0741 949.0471 30172.8539 886.0741 949.0471
ENERGY: 300000 2.7463 13.9396 3.0175 0.0000 -10718.7066 1430.6901 0.0000 0.0000 1693.9326 -7574.3805 287.9330 -9268.3131 -7478.7164 301.0696 -442.6959 -362.1606 30546.2810 -111.8730 -60.9601
ENERGY: 600000 3.1336 12.8733 3.7043 0.0000 -10813.0903 1457.0344 0.0000 0.0000 1782.4689 -7553.8759 302.9823 -9336.3448 -7475.6189 303.0381 -11.4710 31.5571 30009.4628 -187.6267 -127.6820
ENERGY: 900000 1.4291 15.7211 2.8364 0.0000 -10850.6365 1497.4684 0.0000 0.0000 1799.4307 -7533.7507 305.8655 -9333.1814 -7474.2867 302.7086 271.9203 283.7657 29949.7269 -5.4594 37.4926
ENERGY: 1200000 3.1031 14.4609 4.4027 0.0000 -10506.3938 1403.6977 0.0000 0.0000 1764.3721 -7316.3573 299.9062 -9080.7294 -7458.5591 302.7210 -301.4695 -222.7499 30693.4526 -5.7743 51.4800
ENERGY: 1500000 0.8190 16.7021 3.3280 0.0000 -10581.5766 1368.7838 0.0000 0.0000 1756.7353 -7435.2084 298.6081 -9191.9437 -7462.3412 301.1852 -391.9594 -319.5762 30043.1786 -88.4545 -23.1360
TCL: Running FEP window  18: Lambda1 0.1499999999999997 Lambda2 0.09999999999999969 [dLambda -0.05 ]
TCL: Setting parameter firsttimestep to 0
TCL: Setting parameter alchLambda to 0.1499999999999997
Info: NONBONDED TABLE R-SQUARED SPACING: 0.0625
Info: NONBONDED TABLE SIZE: 705 POINTS
TCL: Setting parameter alchLambda2 to 0.09999999999999969
Info: NONBONDED TABLE R-SQUARED SPACING: 0.0625
Info: NONBONDED TABLE SIZE: 705 POINTS
TCL: Running for 1500000 steps
ETITLE: TS BOND ANGLE DIHED IMPRP ELECT VDW BOUNDARY MISC KINETIC TOTAL TEMP POTENTIAL TOTALAVG TEMPAVG PRESSURE GPRESSURE VOLUME PRESSAVG GPRESSAVG
ENERGY: 0 0.8190 16.7021 3.3280 0.0000 -10581.5763 1367.6042 0.0000 0.0000 1755.8356 -7437.2874 298.4552 -9193.1230 -7437.2874 298.4552 -401.7814 -327.3902 30043.1786 -401.7814 -327.3902
ENERGY: 300000 2.1235 10.3530 3.4096 0.0000 -10697.6423 1472.0221 0.0000 0.0000 1765.0296 -7444.7044 300.0180 -9209.7340 -7470.0163 298.1884 245.0435 281.5404 30429.3072 -92.3510 -34.8341
ENERGY: 600000 1.5271 16.7064 3.6963 0.0000 -10740.6849 1510.9896 0.0000 0.0000 1761.7428 -7446.0228 299.4593 -9207.7655 -7451.2879 299.7855 514.8778 586.0621 30073.1508 82.8569 138.1192
ENERGY: 900000 6.2711 8.7488 2.9902 0.0000 -10675.2971 1447.9394 0.0000 0.0000 1771.3075 -7438.0401 301.0851 -9209.3476 -7439.6114 300.4153 157.5130 192.8578 30196.3804 88.4161 142.1913
ENERGY: 1200000 2.0619 12.5372 2.7924 0.0000 -10662.1053 1437.4200 0.0000 0.0000 1735.8013 -7471.4926 295.0498 -9207.2938 -7444.2850 299.8358 24.3136 123.4351 29992.9437 72.6357 130.2017
ENERGY: 1500000 5.2432 9.1239 2.3351 0.0000 -10493.0216 1327.7070 0.0000 0.0000 1750.6282 -7397.9842 297.5701 -9148.6124 -7440.3255 300.2882 -919.4381 -857.1115 31064.9833 25.0716 80.2356
TCL: Running FEP window  19: Lambda1 0.09999999999999969 Lambda2 0.049999999999999684 [dLambda -0.05 ]
TCL: Setting parameter firsttimestep to 0
TCL: Setting parameter alchLambda to 0.09999999999999969
Info: NONBONDED TABLE R-SQUARED SPACING: 0.0625
Info: NONBONDED TABLE SIZE: 705 POINTS
TCL: Setting parameter alchLambda2 to 0.049999999999999684
Info: NONBONDED TABLE R-SQUARED SPACING: 0.0625
Info: NONBONDED TABLE SIZE: 705 POINTS
TCL: Running for 1500000 steps
ETITLE: TS BOND ANGLE DIHED IMPRP ELECT VDW BOUNDARY MISC KINETIC TOTAL TEMP POTENTIAL TOTALAVG TEMPAVG PRESSURE GPRESSURE VOLUME PRESSAVG GPRESSAVG
ENERGY: 0 5.2432 9.1239 2.3351 0.0000 -10493.0221 1327.9440 0.0000 0.0000 1749.7365 -7398.6395 297.4185 -9148.3760 -7398.6395 297.4185 -932.0689 -861.8239 31064.9833 -932.0689 -861.8239
ENERGY: 300000 3.4976 11.8034 3.8028 0.0000 -10646.3204 1440.1505 0.0000 0.0000 1828.2566 -7358.8096 310.7653 -9187.0662 -7426.7493 304.0374 311.9269 303.4717 29838.6910 -115.1786 -67.8624
ENERGY: 600000 2.1706 8.4996 6.6794 0.0000 -10477.7336 1315.4131 0.0000 0.0000 1765.5514 -7379.4194 300.1067 -9144.9708 -7432.4714 302.4470 -899.7411 -825.9475 30615.7161 -292.2969 -236.4244
ENERGY: 900000 3.4501 11.6481 2.5078 0.0000 -10562.1581 1337.6943 0.0000 0.0000 1772.6553 -7434.2025 301.3142 -9206.8578 -7444.8177 301.7935 -1130.7494 -1058.0039 30634.5267 -263.9384 -203.1196
ENERGY: 1200000 1.5189 10.2866 2.7232 0.0000 -10542.8233 1380.5506 0.0000 0.0000 1724.2041 -7423.5398 293.0785 -9147.7439 -7443.8712 299.9840 -354.8056 -276.9597 30581.5422 -341.4088 -277.9100
ENERGY: 1500000 1.3173 14.8708 3.5753 0.0000 -10801.7099 1486.2411 0.0000 0.0000 1740.7225 -7554.9830 295.8863 -9295.7055 -7444.3081 299.5113 175.8198 193.2833 30201.2172 -223.1488 -163.1545
TCL: Running FEP window  20: Lambda1 0.049999999999999684 Lambda2 0.0    [dLambda -0.049999999999999684]
TCL: Setting parameter firsttimestep to 0
TCL: Setting parameter alchLambda to 0.049999999999999684
Info: NONBONDED TABLE R-SQUARED SPACING: 0.0625
Info: NONBONDED TABLE SIZE: 705 POINTS
TCL: Setting parameter alchLambda2 to 0.0
Info: NONBONDED TABLE R-SQUARED SPACING: 0.0625
Info: NONBONDED TABLE SIZE: 705 POINTS
TCL: Running for 1500000 steps
ETITLE: TS BOND ANGLE DIHED IMPRP ELECT VDW BOUNDARY MISC KINETIC TOTAL TEMP POTENTIAL TOTALAVG TEMPAVG PRESSURE GPRESSURE VOLUME PRESSAVG GPRESSAVG
ENERGY: 0 1.3173 14.8708 3.5753 0.0000 -10801.7110 1486.2846 0.0000 0.0000 1739.8225 -7555.8405 295.7333 -9295.6630 -7555.8405 295.7333 108.7172 191.9347 30201.2172 108.7172 191.9347
ENERGY: 300000 2.1600 8.8528 4.1284 0.0000 -10713.6065 1434.8425 0.0000 0.0000 1759.9942 -7503.6286 299.1621 -9263.6228 -7521.3031 295.9737 -105.4166 -27.5793 30035.0521 -188.5142 -101.7705
ENERGY: 600000 0.7522 10.6767 4.4490 0.0000 -10678.2725 1346.9380 0.0000 0.0000 1758.6791 -7556.7775 298.9386 -9315.4567 -7525.8530 297.8006 -834.1405 -742.4427 29990.0041 -317.9250 -237.5436
ENERGY: 900000 0.9059 12.4163 2.3248 0.0000 -10764.7173 1440.8207 0.0000 0.0000 1786.2840 -7521.9655 303.6308 -9308.2495 -7519.8936 297.8627 -229.7422 -149.8837 30198.0404 -239.7986 -162.6222
ENERGY: 1200000 3.5248 10.7079 4.5585 0.0000 -10707.5276 1405.0100 0.0000 0.0000 1744.6782 -7539.0482 296.5587 -9283.7264 -7519.1734 297.4723 -607.8870 -544.7163 30472.8502 -321.7282 -247.6685
ENERGY: 1500000 1.0151 8.1336 6.5666 0.0000 -10638.7050 1452.1300 0.0000 0.0000 1703.4690 -7467.3908 289.5540 -9170.8598 -7505.8327 297.7327 -2.2094 53.2635 30701.6734 -319.7954 -249.0886
TCL: Exiting due to exit command.
