Info: SIMULATION PARAMETERS:
Info: TIMESTEP               2
Info: NUMBER OF STEPS        0
Info: STEPS PER CYCLE        10
Info: PERIODIC CELL BASIS 1  31.894 0 0
Info: PERIODIC CELL BASIS 2  0 31.4527 0
Info: PERIODIC CELL BASIS 3  0 0 30.4866
Info: PERIODIC CELL CENTER   0 0 0
Info: WRAPPING WATERS AROUND PERIODIC BOUNDARIES ON OUTPUT.
Info: WRAPPING ALL CLUSTERS AROUND PERIODIC BOUNDARIES ON OUTPUT.
Info: FIRST LDB TIMESTEP     50
Info: LAST LDB TIMESTEP     -1
Info: HOM BACKGROUND SCALING 1
Info: PME BACKGROUND SCALING 1
Info: MIN ATOMS PER PATCH    40
Info: EMPTY PATCH LOAD       40 ATOMS
Info: VELOCITY FILE          mobley_2183616_equil.vel
Info: CENTER OF MASS MOVING INITIALLY? NO
Info: DIELECTRIC             1
Info: EXCLUDE                SCALED ONE-FOUR
Info: 1-4 ELECTROSTATICS SCALED BY 0.833333
Info: MODIFIED 1-4 VDW PARAMETERS WILL BE USED
Info: DCD FILENAME           mobley_2183616_prod.dcd
Info: DCD FREQUENCY          100000
Info: DCD FIRST STEP         100000
Info: DCD FILE WILL CONTAIN UNIT CELL DATA
Info: XST FILENAME           mobley_2183616_prod.xst
Info: XST FREQUENCY          100000
Info: NO VELOCITY DCD OUTPUT
Info: NO FORCE DCD OUTPUT
Info: OUTPUT FILENAME        mobley_2183616_prod
Info: BINARY OUTPUT FILES WILL BE USED
Info: RESTART FILENAME       mobley_2183616_prod.restart
Info: RESTART FREQUENCY      100000
Info: BINARY RESTART FILES WILL BE USED
Info: CUTOFF                 9
Info: PAIRLIST DISTANCE      11
Info: PAIRLIST SHRINK RATE   0.01
Info: PAIRLIST GROW RATE     0.01
Info: PAIRLIST TRIGGER       0.3
Info: PAIRLISTS PER CYCLE    2
Info: PAIRLISTS ENABLED
Info: MARGIN                 2
Info: HYDROGEN GROUP CUTOFF  2.5
Info: PATCH DIMENSION        15.5
Info: ENERGY OUTPUT STEPS    100000
Info: ENERGY EVALUATION STEPS    100000
Info: OUTPUT ENERGY PRECISION 4
Info: CROSSTERM ENERGY INCLUDED IN DIHEDRAL
Info: TIMING OUTPUT STEPS    1000000
Info: PRESSURE OUTPUT STEPS  100000
Info: ALCHEMICAL FEP ON
Info: FEP CURRENT LAMBDA VALUE     1
Info: FEP COMPARISON LAMBDA VALUE  0.95
Info: FEP INTRA-ALCHEMICAL NON-BONDED INTERACTIONS WILL BE RETAINED
Info: FEP INTRA-ALCHEMICAL BONDED INTERACTIONS WILL BE RETAINED
Info: FEP VDW SHIFTING COEFFICIENT 5
Info: FEP ELEC. ACTIVE FOR ANNIHILATED PARTICLES BETWEEN LAMBDA = 0 AND LAMBDA = 0.5
Info: FEP ELEC. ACTIVE FOR EXNIHILATED PARTICLES BETWEEN LAMBDA = 0.5 AND LAMBDA = 1
Info: FEP VDW ACTIVE FOR ANNIHILATED PARTICLES BETWEEN LAMBDA = 0 AND LAMBDA = 1
Info: FEP VDW ACTIVE FOR EXNIHILATED PARTICLES BETWEEN LAMBDA = 0 AND LAMBDA = 1
Info: FEP BOND ACTIVE FOR ANNIHILATED PARTICLES BETWEEN LAMBDA = 1 AND LAMBDA = 1
Info: FEP BOND ACTIVE FOR EXNIHILATED PARTICLES BETWEEN LAMBDA = 0 AND LAMBDA = 0
Info: LANGEVIN DYNAMICS ACTIVE
Info: LANGEVIN TEMPERATURE   300
Info: LANGEVIN USING BBK INTEGRATOR
Info: LANGEVIN DAMPING COEFFICIENT IS 1 INVERSE PS
Info: LANGEVIN DYNAMICS APPLIED TO HYDROGENS
Info: LANGEVIN PISTON PRESSURE CONTROL ACTIVE
Info:        TARGET PRESSURE IS 1.01325 BAR
Info:     OSCILLATION PERIOD IS 50 FS
Info:             DECAY TIME IS 25 FS
Info:     PISTON TEMPERATURE IS 300 K
Info:       PRESSURE CONTROL IS GROUP-BASED
Info:    INITIAL STRAIN RATE IS 0.00030776 0.00030776 0.00030776
Info:       CELL FLUCTUATION IS ISOTROPIC
Info: PARTICLE MESH EWALD (PME) ACTIVE
Info: PME TOLERANCE               1e-06
Info: PME EWALD COEFFICIENT       0.348832
Info: PME INTERPOLATION ORDER     4
Info: PME GRID DIMENSIONS         32 32 32
Info: PME MAXIMUM GRID SPACING    1
Info: PME CALCULATION WILL BE PERFORMED ON GPU
Info: FULL ELECTROSTATIC EVALUATION FREQUENCY      2
Info: USING VERLET I (r-RESPA) MTS SCHEME.
Info: C1 SPLITTING OF LONG RANGE ELECTROSTATICS
Info: PLACING ATOMS IN PATCHES BY HYDROGEN GROUPS
Info: RIGID BONDS TO HYDROGEN : ALL
Info:         ERROR TOLERANCE : 1e-08
Info:          MAX ITERATIONS : 100
Info: RIGID WATER USING SETTLE ALGORITHM
Info: RANDOM NUMBER SEED     1743885834
Info: USE HYDROGEN BONDS?    NO
Info: Using AMBER format force field!
Info: AMBER PARM FILE        mobley_2183616.prmtop
Info: COORDINATE PDB         mobley_2183616.pdb
Info: Exclusions will be read from PARM file!
Info: SCNB (VDW SCALING)     2
Info: USING ARITHMETIC MEAN TO COMBINE L-J SIGMA PARAMETERS
Info: BINARY COORDINATES     mobley_2183616_equil.coor
Info: SUMMARY OF PARAMETERS:
Info: 7 BONDS
Info: 8 ANGLES
Info:   8 HARMONIC
Info:   0 COSINE-BASED
Info: 9 DIHEDRAL
Info: 0 IMPROPER
Info: 0 CROSSTERM
Info: 0 VDW
Info: 21 VDW_PAIRS
Info: 0 NBTHOLE_PAIRS
Info: To read alchdata from file: mobley_2183616.pdb
Info: To read alchflag data from column: 5
Info: STRUCTURE SUMMARY:
Info: 2931 ATOMS
Info: 2931 BONDS
Info: 42 ANGLES
Info: 65 DIHEDRALS
Info: 0 IMPROPERS
Info: 0 CROSSTERMS
Info: 3027 EXCLUSIONS
Info: 2921 RIGID BONDS
Info: ALCH: 0 ATOMS TO DISAPPEAR IN FINAL STATE
Info: ALCH: 24 ATOMS TO APPEAR IN FINAL STATE
Info: 5872 DEGREES OF FREEDOM
Info: 979 HYDROGEN GROUPS
Info: 4 ATOMS IN LARGEST HYDROGEN GROUP
Info: 979 MIGRATION GROUPS
Info: 4 ATOMS IN LARGEST MIGRATION GROUP
Info: TOTAL MASS = 17591.7 amu
Info: TOTAL CHARGE = -1.67638e-08 e
Info: MASS DENSITY = 0.95519 g/cm^3
Info: ATOM DENSITY = 0.0958381 atoms/A^3
Info: ADDED 0 IMPLICIT EXCLUSIONS
Info: NONBONDED TABLE R-SQUARED SPACING: 0.0625
Info: NONBONDED TABLE SIZE: 705 POINTS
Info: REDUCING NUMBER OF PATCHES TO IMPROVE LOAD BALANCE
Info: REMOVING COM VELOCITY 0.159402 -0.000371751 -0.0902673
Info: Use 3D box decompostion in PME FFT.
Info: Updated CUDA force table with 4096 elements.
Info: Updated CUDA LJ table with 6 x 6 elements.
Info: Found 23 unique exclusion lists needing 76 bytes
TCL: Running for 1500000 steps
ETITLE: TS BOND ANGLE DIHED IMPRP ELECT VDW BOUNDARY MISC KINETIC TOTAL TEMP POTENTIAL TOTALAVG TEMPAVG PRESSURE GPRESSURE VOLUME PRESSAVG GPRESSAVG
ENERGY: 0 0.7771 8.4590 3.0000 0.0000 -10645.3939 1486.2666 0.0000 0.0000 1748.4108 -7398.4804 299.6731 -9146.8912 -7398.4804 299.6731 214.2374 297.8231 30582.8237 214.2374 297.8231
ENERGY: 300000 2.0112 12.6844 3.4496 0.0000 -10447.5989 1298.4606 0.0000 0.0000 1727.7882 -7403.2049 296.1385 -9130.9931 -7416.4220 298.0158 -699.2860 -685.4166 29929.1239 -507.9953 -466.5953
ENERGY: 600000 3.4173 6.8464 2.7276 0.0000 -10685.8717 1476.5649 0.0000 0.0000 1724.2011 -7472.1145 295.5237 -9196.3156 -7400.0312 299.6909 689.1097 795.4689 29517.6203 -303.6533 -260.4151
ENERGY: 900000 4.0757 8.2876 4.1633 0.0000 -10489.4706 1322.8383 0.0000 0.0000 1733.3372 -7416.7685 297.0896 -9150.1057 -7407.0198 299.6492 -846.8970 -741.3420 30058.4032 -302.0919 -240.1370
ENERGY: 1200000 2.4896 8.4279 6.6706 0.0000 -10485.9042 1334.1177 0.0000 0.0000 1778.2159 -7355.9823 304.7817 -9134.1982 -7399.6318 299.5764 -810.5362 -691.0763 30295.2393 -294.1030 -229.1462
ENERGY: 1500000 4.3022 11.2784 5.1015 0.0000 -10564.9880 1407.1170 0.0000 0.0000 1727.2582 -7409.9306 296.0476 -9137.1889 -7404.4806 299.3725 1.2660 16.0578 29905.3654 -191.6519 -133.2846
TCL: Running FEP window   2: Lambda1 0.95   Lambda2 0.8999999999999999 [dLambda -0.050000000000000044]
TCL: Setting parameter firsttimestep to 0
TCL: Setting parameter alchLambda to 0.95
Info: NONBONDED TABLE R-SQUARED SPACING: 0.0625
Info: NONBONDED TABLE SIZE: 705 POINTS
TCL: Setting parameter alchLambda2 to 0.8999999999999999
Info: NONBONDED TABLE R-SQUARED SPACING: 0.0625
Info: NONBONDED TABLE SIZE: 705 POINTS
TCL: Running for 1500000 steps
ETITLE: TS BOND ANGLE DIHED IMPRP ELECT VDW BOUNDARY MISC KINETIC TOTAL TEMP POTENTIAL TOTALAVG TEMPAVG PRESSURE GPRESSURE VOLUME PRESSAVG GPRESSAVG
ENERGY: 0 4.3022 11.2784 5.1015 0.0000 -10564.5883 1407.8076 0.0000 0.0000 1726.3656 -7409.7331 295.8946 -9136.0987 -7409.7331 295.8946 -72.7455 10.2982 29905.3654 -72.7455 10.2982
ENERGY: 300000 2.7862 5.7636 4.4990 0.0000 -10610.5082 1442.9965 0.0000 0.0000 1723.6293 -7430.8337 295.4256 -9154.4629 -7375.5385 297.8557 172.0282 251.3751 30383.2376 28.0354 111.0117
ENERGY: 600000 3.8739 10.4441 3.7040 0.0000 -10649.4127 1474.1244 0.0000 0.0000 1829.8767 -7327.3895 313.6362 -9157.2662 -7381.2913 301.3277 590.8904 658.7528 29915.0117 -79.7035 3.4866
ENERGY: 900000 3.2062 9.9800 5.2525 0.0000 -10561.3379 1384.3386 0.0000 0.0000 1754.9068 -7403.6539 300.7865 -9158.5606 -7387.6687 301.4294 -492.3293 -385.1456 30409.4794 -115.9409 -31.7930
ENERGY: 1200000 1.7106 8.2943 3.7828 0.0000 -10445.8312 1391.4981 0.0000 0.0000 1746.5608 -7293.9847 299.3561 -9040.5455 -7378.1037 301.5965 86.0801 179.1357 30140.4994 -85.9157 -6.4136
ENERGY: 1500000 3.3027 9.6790 5.3464 0.0000 -10514.0463 1378.1132 0.0000 0.0000 1766.5618 -7351.0432 302.7842 -9117.6049 -7380.2212 301.7787 -88.4310 -88.5624 30068.0862 -31.9201 35.6493
TCL: Running FEP window   3: Lambda1 0.8999999999999999 Lambda2 0.8499999999999999 [dLambda -0.050000000000000044]
TCL: Setting parameter firsttimestep to 0
TCL: Setting parameter alchLambda to 0.8999999999999999
Info: NONBONDED TABLE R-SQUARED SPACING: 0.0625
Info: NONBONDED TABLE SIZE: 705 POINTS
TCL: Setting parameter alchLambda2 to 0.8499999999999999
Info: NONBONDED TABLE R-SQUARED SPACING: 0.0625
Info: NONBONDED TABLE SIZE: 705 POINTS
TCL: Running for 1500000 steps
ETITLE: TS BOND ANGLE DIHED IMPRP ELECT VDW BOUNDARY MISC KINETIC TOTAL TEMP POTENTIAL TOTALAVG TEMPAVG PRESSURE GPRESSURE VOLUME PRESSAVG GPRESSAVG
ENERGY: 0 3.3026 9.6790 5.3464 0.0000 -10513.3257 1378.4592 0.0000 0.0000 1765.7202 -7350.8182 302.6399 -9116.5384 -7350.8182 302.6399 -187.9318 -95.7593 30068.0862 -187.9318 -95.7593
ENERGY: 300000 2.8722 10.3167 4.2956 0.0000 -10497.8448 1366.7615 0.0000 0.0000 1808.0366 -7305.5623 309.8928 -9113.5989 -7349.8678 306.9518 -429.6056 -395.0981 30685.5847 -116.1974 -55.7313
ENERGY: 600000 3.7300 9.3599 2.7239 0.0000 -10700.4159 1514.0951 0.0000 0.0000 1766.5408 -7403.9662 302.7806 -9170.5070 -7380.9995 302.6490 610.6194 659.5162 30052.0349 -24.1313 43.5528
ENERGY: 900000 4.7851 7.2991 5.3802 0.0000 -10575.9412 1310.0175 0.0000 0.0000 1735.3560 -7513.1033 297.4356 -9248.4593 -7398.1754 302.9154 -1044.4487 -966.5456 29942.9762 -218.8427 -150.8081
ENERGY: 1200000 5.5134 9.7677 2.1188 0.0000 -10601.6240 1378.2622 0.0000 0.0000 1727.6156 -7478.3464 296.1089 -9205.9620 -7421.8833 301.5140 -692.1807 -569.3028 30013.7003 -165.9810 -91.1280
ENERGY: 1500000 3.8354 8.9130 7.8058 0.0000 -10566.9406 1428.2569 0.0000 0.0000 1799.8809 -7318.2486 308.4950 -9118.1295 -7408.0884 301.8497 450.2953 444.2070 30169.1879 -166.3596 -93.2326
TCL: Running FEP window   4: Lambda1 0.8499999999999999 Lambda2 0.7999999999999998 [dLambda -0.050000000000000044]
TCL: Setting parameter firsttimestep to 0
TCL: Setting parameter alchLambda to 0.8499999999999999
Info: NONBONDED TABLE R-SQUARED SPACING: 0.0625
Info: NONBONDED TABLE SIZE: 705 POINTS
TCL: Setting parameter alchLambda2 to 0.7999999999999998
Info: NONBONDED TABLE R-SQUARED SPACING: 0.0625
Info: NONBONDED TABLE SIZE: 705 POINTS
TCL: Running for 1500000 steps
ETITLE: TS BOND ANGLE DIHED IMPRP ELECT VDW BOUNDARY MISC KINETIC TOTAL TEMP POTENTIAL TOTALAVG TEMPAVG PRESSURE GPRESSURE VOLUME PRESSAVG GPRESSAVG
ENERGY: 0 3.8354 8.9130 7.8058 0.0000 -10566.2467 1428.4152 0.0000 0.0000 1799.0272 -7318.2501 308.3487 -9117.2773 -7318.2501 308.3487 333.4926 430.3893 30169.1879 333.4926 430.3893
ENERGY: 300000 4.4732 11.5770 4.0468 0.0000 -10613.8925 1444.3477 0.0000 0.0000 1789.1879 -7360.2599 306.6622 -9149.4478 -7362.5666 303.0916 195.3361 232.8650 29898.2299 89.0276 157.9253
ENERGY: 600000 4.4862 4.5565 4.0644 0.0000 -10476.4770 1386.4740 0.0000 0.0000 1748.0228 -7328.8730 299.6066 -9076.8959 -7351.5836 303.5181 -304.9531 -221.3391 30227.3164 15.6720 70.3498
ENERGY: 900000 4.1481 5.5562 4.6946 0.0000 -10619.7301 1417.9787 0.0000 0.0000 1743.0451 -7444.3075 298.7535 -9187.3526 -7377.5555 302.1374 13.4534 122.4201 30069.4114 98.1231 162.7205
ENERGY: 1200000 6.1307 6.7723 4.7733 0.0000 -10457.7562 1399.9445 0.0000 0.0000 1714.7316 -7325.4038 293.9006 -9040.1354 -7385.5847 300.8287 -260.8133 -168.5221 30742.7248 28.0788 100.3158
ENERGY: 1500000 3.2135 7.3252 3.9225 0.0000 -10359.1712 1279.7153 0.0000 0.0000 1730.5804 -7334.4143 296.6171 -9064.9947 -7374.9918 300.4562 -1186.0856 -1093.3876 30523.5057 -8.5029 69.0056
TCL: Running FEP window   5: Lambda1 0.7999999999999998 Lambda2 0.7499999999999998 [dLambda -0.050000000000000044]
TCL: Setting parameter firsttimestep to 0
TCL: Setting parameter alchLambda to 0.7999999999999998
Info: NONBONDED TABLE R-SQUARED SPACING: 0.0625
Info: NONBONDED TABLE SIZE: 705 POINTS
TCL: Setting parameter alchLambda2 to 0.7499999999999998
Info: NONBONDED TABLE R-SQUARED SPACING: 0.0625
Info: NONBONDED TABLE SIZE: 705 POINTS
TCL: Running for 1500000 steps
ETITLE: TS BOND ANGLE DIHED IMPRP ELECT VDW BOUNDARY MISC KINETIC TOTAL TEMP POTENTIAL TOTALAVG TEMPAVG PRESSURE GPRESSURE VOLUME PRESSAVG GPRESSAVG
ENERGY: 0 3.2135 7.3252 3.9225 0.0000 -10358.7807 1280.1824 0.0000 0.0000 1729.7197 -7334.4173 296.4695 -9064.1371 -7334.4173 296.4695 -1189.6770 -1098.4158 30523.5057 -1189.6770 -1098.4158
ENERGY: 300000 2.3084 8.5758 6.9530 0.0000 -10563.3429 1429.2545 0.0000 0.0000 1741.3843 -7374.8670 298.4688 -9116.2513 -7342.4976 299.0639 93.7513 141.7831 30307.0392 -491.8175 -444.7694
ENERGY: 600000 2.3703 9.3802 3.9104 0.0000 -10697.7542 1493.5229 0.0000 0.0000 1783.8768 -7404.6937 305.7519 -9188.5705 -7369.5882 299.4174 567.3379 584.9044 29780.8560 -309.2445 -257.7413
ENERGY: 900000 3.1575 7.5199 5.1325 0.0000 -10732.4165 1491.7214 0.0000 0.0000 1807.6534 -7417.2319 309.8272 -9224.8853 -7384.0806 300.7385 540.6910 607.4537 29704.4235 -33.9097 24.5408
ENERGY: 1200000 2.4001 6.4931 3.3281 0.0000 -10644.4370 1459.6248 0.0000 0.0000 1740.1351 -7432.4558 298.2547 -9172.5909 -7386.9236 300.1583 2.5710 42.0710 30441.1868 -3.3470 57.7696
ENERGY: 1500000 3.4669 11.0385 3.2511 0.0000 -10744.8291 1522.6538 0.0000 0.0000 1760.8134 -7443.6054 301.7989 -9204.4188 -7386.2887 300.5902 519.9448 661.1294 29792.2968 18.5402 87.1586
TCL: Running FEP window   6: Lambda1 0.7499999999999998 Lambda2 0.6999999999999997 [dLambda -0.050000000000000044]
TCL: Setting parameter firsttimestep to 0
TCL: Setting parameter alchLambda to 0.7499999999999998
Info: NONBONDED TABLE R-SQUARED SPACING: 0.0625
Info: NONBONDED TABLE SIZE: 705 POINTS
TCL: Setting parameter alchLambda2 to 0.6999999999999997
Info: NONBONDED TABLE R-SQUARED SPACING: 0.0625
Info: NONBONDED TABLE SIZE: 705 POINTS
TCL: Running for 1500000 steps
ETITLE: TS BOND ANGLE DIHED IMPRP ELECT VDW BOUNDARY MISC KINETIC TOTAL TEMP POTENTIAL TOTALAVG TEMPAVG PRESSURE GPRESSURE VOLUME PRESSAVG GPRESSAVG
ENERGY: 0 3.4669 11.0385 3.2511 0.0000 -10744.3373 1522.2904 0.0000 0.0000 1759.9384 -7444.3520 301.6489 -9204.2905 -7444.3520 301.6489 553.5672 642.6126 29792.2968 553.5672 642.6126
ENERGY: 300000 3.2134 8.4015 3.5879 0.0000 -10631.0486 1493.3298 0.0000 0.0000 1727.7736 -7394.7425 296.1360 -9122.5161 -7446.8904 299.1721 656.9103 751.2604 30057.3345 143.7730 192.6310
ENERGY: 600000 3.1886 8.8283 9.6992 0.0000 -10520.7907 1365.4723 0.0000 0.0000 1772.0204 -7361.5819 303.7198 -9133.6023 -7434.4181 299.4009 -426.9029 -341.1230 30336.2418 110.1188 168.7123
ENERGY: 900000 3.9437 8.6916 4.2358 0.0000 -10562.7860 1365.5699 0.0000 0.0000 1761.1137 -7419.2314 301.8504 -9180.3450 -7425.2997 299.5485 -651.8660 -577.9765 30494.5575 -27.1762 36.3852
ENERGY: 1200000 2.1769 10.7464 2.4878 0.0000 -10528.7732 1329.9123 0.0000 0.0000 1787.5107 -7395.9390 306.3748 -9183.4497 -7411.4336 300.4015 -925.6916 -850.7479 30334.8072 -143.5714 -80.0467
ENERGY: 1500000 4.0368 7.9557 2.7368 0.0000 -10651.5750 1497.3016 0.0000 0.0000 1796.9245 -7342.6196 307.9883 -9139.5441 -7398.8209 300.6663 288.1299 391.8011 30498.8191 -88.6194 -22.2829
TCL: Running FEP window   7: Lambda1 0.6999999999999997 Lambda2 0.6499999999999997 [dLambda -0.050000000000000044]
TCL: Setting parameter firsttimestep to 0
TCL: Setting parameter alchLambda to 0.6999999999999997
Info: NONBONDED TABLE R-SQUARED SPACING: 0.0625
Info: NONBONDED TABLE SIZE: 705 POINTS
TCL: Setting parameter alchLambda2 to 0.6499999999999997
Info: NONBONDED TABLE R-SQUARED SPACING: 0.0625
Info: NONBONDED TABLE SIZE: 705 POINTS
TCL: Running for 1500000 steps
ETITLE: TS BOND ANGLE DIHED IMPRP ELECT VDW BOUNDARY MISC KINETIC TOTAL TEMP POTENTIAL TOTALAVG TEMPAVG PRESSURE GPRESSURE VOLUME PRESSAVG GPRESSAVG
ENERGY: 0 4.0368 7.9557 2.7368 0.0000 -10651.0580 1497.3903 0.0000 0.0000 1796.0083 -7342.9301 307.8312 -9138.9384 -7342.9301 307.8312 309.2872 385.5682 30498.8191 309.2872 385.5682
ENERGY: 300000 4.5064 8.4701 4.7613 0.0000 -10490.6042 1339.0493 0.0000 0.0000 1771.0599 -7362.7571 303.5551 -9133.8170 -7376.0602 301.6986 -615.6745 -541.3448 30038.2636 -89.3588 -35.3175
ENERGY: 600000 2.9146 12.6023 6.2589 0.0000 -10595.2769 1429.2660 0.0000 0.0000 1715.3241 -7428.9111 294.0022 -9144.2352 -7389.9028 299.7900 -10.4013 143.1599 30307.8745 14.4929 80.2140
ENERGY: 900000 4.2773 13.0558 2.4429 0.0000 -10525.6975 1377.4905 0.0000 0.0000 1765.0847 -7363.3463 302.5310 -9128.4311 -7392.1792 298.3941 -456.6350 -338.2593 30218.9652 -51.9784 8.7798
ENERGY: 1200000 3.9390 5.4997 2.6172 0.0000 -10579.5796 1403.7195 0.0000 0.0000 1757.9685 -7405.8357 301.3113 -9163.8042 -7389.4343 299.4256 -213.7922 -167.9858 30485.5494 -38.1224 18.9890
ENERGY: 1500000 4.7335 11.2167 2.7898 0.0000 -10616.4176 1413.5459 0.0000 0.0000 1752.2792 -7431.8526 300.3362 -9184.1318 -7381.8076 300.0569 -122.1793 -45.3463 29611.0231 2.3316 54.3267
TCL: Running FEP window   8: Lambda1 0.6499999999999997 Lambda2 0.5999999999999996 [dLambda -0.050000000000000044]
TCL: Setting parameter firsttimestep to 0
TCL: Setting parameter alchLambda to 0.6499999999999997
Info: NONBONDED TABLE R-SQUARED SPACING: 0.0625
Info: NONBONDED TABLE SIZE: 705 POINTS
TCL: Setting parameter alchLambda2 to 0.5999999999999996
Info: NONBONDED TABLE R-SQUARED SPACING: 0.0625
Info: NONBONDED TABLE SIZE: 705 POINTS
TCL: Running for 1500000 steps
ETITLE: TS BOND ANGLE DIHED IMPRP ELECT VDW BOUNDARY MISC KINETIC TOTAL TEMP POTENTIAL TOTALAVG TEMPAVG PRESSURE GPRESSURE VOLUME PRESSAVG GPRESSAVG
ENERGY: 0 4.7335 11.2167 2.7898 0.0000 -10615.5750 1413.7541 0.0000 0.0000 1751.4249 -7431.6561 300.1898 -9183.0810 -7431.6561 300.1898 -141.8945 -52.9667 29611.0231 -141.8945 -52.9667
ENERGY: 300000 2.9586 11.1932 5.8164 0.0000 -10685.6991 1474.4657 0.0000 0.0000 1703.2007 -7488.0645 291.9242 -9191.2652 -7408.2470 300.2255 318.7379 304.5524 29931.1112 22.6140 103.7425
ENERGY: 600000 4.3372 12.4080 4.5228 0.0000 -10536.5413 1392.9252 0.0000 0.0000 1788.4519 -7333.8962 306.5361 -9122.3481 -7378.8297 300.9301 -96.2493 -44.6890 29825.8139 -189.7305 -103.3341
ENERGY: 900000 4.0565 8.0041 3.1933 0.0000 -10675.2993 1502.0607 0.0000 0.0000 1726.7781 -7431.2066 295.9654 -9157.9847 -7405.3081 299.0098 638.3526 605.6310 30004.5121 -159.7339 -87.8883
ENERGY: 1200000 4.5335 9.3097 3.7416 0.0000 -10573.5152 1407.7710 0.0000 0.0000 1747.0113 -7401.1482 299.4333 -9148.1595 -7395.8698 299.4816 -104.0861 -3.2108 29976.6792 -57.3620 15.1576
ENERGY: 1500000 5.4394 9.7872 5.3529 0.0000 -10720.6472 1457.0712 0.0000 0.0000 1702.4382 -7540.5584 291.7935 -9242.9965 -7402.4985 299.1673 -334.6848 -252.2290 30156.9019 -72.9675 5.0455
TCL: Running FEP window   9: Lambda1 0.5999999999999996 Lambda2 0.5499999999999996 [dLambda -0.050000000000000044]
TCL: Setting parameter firsttimestep to 0
TCL: Setting parameter alchLambda to 0.5999999999999996
Info: NONBONDED TABLE R-SQUARED SPACING: 0.0625
Info: NONBONDED TABLE SIZE: 705 POINTS
TCL: Setting parameter alchLambda2 to 0.5499999999999996
Info: NONBONDED TABLE R-SQUARED SPACING: 0.0625
Info: NONBONDED TABLE SIZE: 705 POINTS
TCL: Running for 1500000 steps
ETITLE: TS BOND ANGLE DIHED IMPRP ELECT VDW BOUNDARY MISC KINETIC TOTAL TEMP POTENTIAL TOTALAVG TEMPAVG PRESSURE GPRESSURE VOLUME PRESSAVG GPRESSAVG
ENERGY: 0 5.4394 9.7872 5.3529 0.0000 -10720.6134 1457.8041 0.0000 0.0000 1701.5778 -7540.6519 291.6461 -9242.2298 -7540.6519 291.6461 -354.0430 -252.4371 30156.9019 -354.0430 -252.4371
ENERGY: 300000 3.5416 12.9525 8.7348 0.0000 -10553.7288 1467.7300 0.0000 0.0000 1717.6481 -7343.1217 294.4005 -9060.7698 -7409.9293 299.8388 376.8423 457.6168 30303.0512 257.9162 320.8456
ENERGY: 600000 2.1888 5.6729 4.4593 0.0000 -10571.0326 1389.5294 0.0000 0.0000 1758.1724 -7411.0098 301.3463 -9169.1822 -7393.0958 300.0413 -146.4097 -37.9130 29858.7027 -112.6274 -40.4870
ENERGY: 900000 1.4497 15.2907 2.4640 0.0000 -10530.9634 1423.7978 0.0000 0.0000 1786.4648 -7301.4965 306.1955 -9087.9613 -7383.0120 300.3675 273.4669 333.2000 30193.0631 -131.4368 -56.9686
ENERGY: 1200000 1.1831 11.7474 3.9237 0.0000 -10597.6079 1435.7391 0.0000 0.0000 1736.8682 -7408.1464 297.6948 -9145.0146 -7386.8776 300.4846 38.4590 135.1019 29994.7613 -74.5678 0.7158
ENERGY: 1500000 3.7204 10.0971 3.5571 0.0000 -10587.0354 1378.4016 0.0000 0.0000 1734.1976 -7457.0616 297.2370 -9191.2592 -7388.1577 300.1322 -519.9913 -410.3948 29942.9072 -6.9149 60.5736
TCL: Running FEP window  10: Lambda1 0.5499999999999996 Lambda2 0.4999999999999996 [dLambda -0.04999999999999999]
TCL: Setting parameter firsttimestep to 0
TCL: Setting parameter alchLambda to 0.5499999999999996
Info: NONBONDED TABLE R-SQUARED SPACING: 0.0625
Info: NONBONDED TABLE SIZE: 705 POINTS
TCL: Setting parameter alchLambda2 to 0.4999999999999996
Info: NONBONDED TABLE R-SQUARED SPACING: 0.0625
Info: NONBONDED TABLE SIZE: 705 POINTS
TCL: Running for 1500000 steps
ETITLE: TS BOND ANGLE DIHED IMPRP ELECT VDW BOUNDARY MISC KINETIC TOTAL TEMP POTENTIAL TOTALAVG TEMPAVG PRESSURE GPRESSURE VOLUME PRESSAVG GPRESSAVG
ENERGY: 0 3.7204 10.0971 3.5571 0.0000 -10587.2066 1379.1867 0.0000 0.0000 1733.3043 -7457.3410 297.0839 -9190.6453 -7457.3410 297.0839 -489.6743 -409.9381 29942.9072 -489.6743 -409.9381
ENERGY: 300000 2.7665 7.4176 2.9484 0.0000 -10563.3572 1379.3617 0.0000 0.0000 1832.7597 -7338.1032 314.1303 -9170.8630 -7400.7347 302.6448 -269.8269 -212.5910 29938.3643 -206.0489 -136.5765
ENERGY: 600000 3.3186 7.4085 4.9656 0.0000 -10600.4753 1444.5252 0.0000 0.0000 1771.3425 -7368.9150 303.6036 -9140.2574 -7395.2474 299.5941 142.1761 197.4659 30128.5253 49.5090 112.7863
ENERGY: 900000 1.3009 11.8808 3.2725 0.0000 -10643.4028 1456.0937 0.0000 0.0000 1744.6359 -7426.2190 299.0261 -9170.8549 -7390.0651 300.9107 169.9998 198.4307 29972.3376 58.2064 117.1437
ENERGY: 1200000 1.3655 14.0305 5.3051 0.0000 -10689.6915 1426.8224 0.0000 0.0000 1727.6358 -7514.5321 296.1124 -9242.1679 -7402.8610 299.6761 -435.9824 -354.2362 30483.0476 17.7250 79.9994
ENERGY: 1500000 2.1782 11.7009 2.3321 0.0000 -10408.5418 1321.0728 0.0000 0.0000 1780.0256 -7291.2321 305.0918 -9071.2577 -7396.7164 300.0035 -665.0428 -576.5400 30369.9538 -50.0994 17.8443
TCL: Running FEP window  11: Lambda1 0.4999999999999996 Lambda2 0.4499999999999996 [dLambda -0.04999999999999999]
TCL: Setting parameter firsttimestep to 0
TCL: Setting parameter alchLambda to 0.4999999999999996
Info: NONBONDED TABLE R-SQUARED SPACING: 0.0625
Info: NONBONDED TABLE SIZE: 705 POINTS
TCL: Setting parameter alchLambda2 to 0.4499999999999996
Info: NONBONDED TABLE R-SQUARED SPACING: 0.0625
Info: NONBONDED TABLE SIZE: 705 POINTS
TCL: Running for 1500000 steps
ETITLE: TS BOND ANGLE DIHED IMPRP ELECT VDW BOUNDARY MISC KINETIC TOTAL TEMP POTENTIAL TOTALAVG TEMPAVG PRESSURE GPRESSURE VOLUME PRESSAVG GPRESSAVG
ENERGY: 0 2.1782 11.7009 2.3321 0.0000 -10408.5637 1321.2306 0.0000 0.0000 1779.1502 -7291.9716 304.9418 -9071.1218 -7291.9716 304.9418 -664.1803 -584.2804 30369.9538 -664.1803 -584.2804
ENERGY: 300000 5.1287 7.6489 4.2293 0.0000 -10429.1781 1316.8330 0.0000 0.0000 1711.1333 -7384.2049 293.2839 -9095.3382 -7334.9173 301.2873 -1069.9777 -990.0782 30456.6430 -121.8539 -63.3694
ENERGY: 600000 1.5461 10.8951 2.3894 0.0000 -10514.6065 1388.9535 0.0000 0.0000 1688.7004 -7422.1219 289.4389 -9110.8224 -7363.0687 298.1069 -27.5947 -32.5130 29851.2873 15.3330 60.4514
ENERGY: 900000 2.8909 8.2408 3.6038 0.0000 -10592.5839 1407.0993 0.0000 0.0000 1744.1928 -7426.5562 298.9502 -9170.7490 -7375.9641 298.6946 -556.7542 -426.2305 30486.8329 -41.8419 7.3261
ENERGY: 1200000 3.8544 7.4632 4.3284 0.0000 -10566.0046 1439.1233 0.0000 0.0000 1731.1615 -7380.0737 296.7167 -9111.2353 -7378.2034 297.3750 179.5813 241.8004 30020.4451 -12.6226 39.1674
ENERGY: 1500000 2.7055 6.8731 2.2666 0.0000 -10530.3449 1455.4896 0.0000 0.0000 1756.0641 -7306.9460 300.9849 -9063.0101 -7379.2936 297.5755 451.3025 463.0167 30047.4369 45.0357 93.9703
TCL: Running FEP window  12: Lambda1 0.4499999999999996 Lambda2 0.39999999999999963 [dLambda -0.04999999999999999]
TCL: Setting parameter firsttimestep to 0
TCL: Setting parameter alchLambda to 0.4499999999999996
Info: NONBONDED TABLE R-SQUARED SPACING: 0.0625
Info: NONBONDED TABLE SIZE: 705 POINTS
TCL: Setting parameter alchLambda2 to 0.39999999999999963
Info: NONBONDED TABLE R-SQUARED SPACING: 0.0625
Info: NONBONDED TABLE SIZE: 705 POINTS
TCL: Running for 1500000 steps
ETITLE: TS BOND ANGLE DIHED IMPRP ELECT VDW BOUNDARY MISC KINETIC TOTAL TEMP POTENTIAL TOTALAVG TEMPAVG PRESSURE GPRESSURE VOLUME PRESSAVG GPRESSAVG
ENERGY: 0 2.7055 6.8731 2.2666 0.0000 -10530.3444 1455.9543 0.0000 0.0000 1755.2059 -7307.3389 300.8378 -9062.5449 -7307.3389 300.8378 385.9984 460.7532 30047.4369 385.9984 460.7532
ENERGY: 300000 6.9205 9.4819 3.8746 0.0000 -10588.0499 1434.6616 0.0000 0.0000 1731.2257 -7401.8855 296.7277 -9133.1112 -7383.8073 300.4832 23.4385 179.8473 29960.1679 16.3789 101.5920
ENERGY: 600000 4.9971 10.6858 2.7151 0.0000 -10599.9087 1427.2657 0.0000 0.0000 1688.0105 -7466.2344 289.3207 -9154.2449 -7400.8373 298.7374 -178.0346 -90.7033 29652.6227 -195.6095 -118.6142
ENERGY: 900000 4.2399 9.1704 5.2791 0.0000 -10510.1631 1353.8751 0.0000 0.0000 1735.3944 -7402.2042 297.4422 -9137.5986 -7404.5177 298.3828 -476.2732 -452.2545 30017.9074 -229.6155 -163.3686
ENERGY: 1200000 1.4231 8.7293 3.4672 0.0000 -10681.9386 1508.1549 0.0000 0.0000 1733.2613 -7426.9027 297.0766 -9160.1641 -7406.4627 298.2659 1255.4459 1269.1109 29286.4398 -51.0637 6.7661
ENERGY: 1500000 3.3586 8.9237 5.4542 0.0000 -10637.2794 1427.5379 0.0000 0.0000 1710.8920 -7481.1130 293.2425 -9192.0050 -7405.5766 297.7004 -181.0702 -116.3239 30207.4455 27.5684 83.0385
TCL: Running FEP window  13: Lambda1 0.39999999999999963 Lambda2 0.34999999999999964 [dLambda -0.04999999999999999]
TCL: Setting parameter firsttimestep to 0
TCL: Setting parameter alchLambda to 0.39999999999999963
Info: NONBONDED TABLE R-SQUARED SPACING: 0.0625
Info: NONBONDED TABLE SIZE: 705 POINTS
TCL: Setting parameter alchLambda2 to 0.34999999999999964
Info: NONBONDED TABLE R-SQUARED SPACING: 0.0625
Info: NONBONDED TABLE SIZE: 705 POINTS
TCL: Running for 1500000 steps
ETITLE: TS BOND ANGLE DIHED IMPRP ELECT VDW BOUNDARY MISC KINETIC TOTAL TEMP POTENTIAL TOTALAVG TEMPAVG PRESSURE GPRESSURE VOLUME PRESSAVG GPRESSAVG
ENERGY: 0 3.3586 8.9237 5.4542 0.0000 -10637.2797 1427.7152 0.0000 0.0000 1710.0143 -7481.8137 293.0921 -9191.8280 -7481.8137 293.0921 -213.5212 -124.9677 30207.4455 -213.5212 -124.9677
ENERGY: 300000 4.5025 8.4435 3.7352 0.0000 -10474.0106 1347.4243 0.0000 0.0000 1748.9774 -7360.9279 299.7702 -9109.9052 -7387.2648 298.5739 -523.8669 -486.7467 30149.4416 60.5778 110.5922
ENERGY: 600000 6.3516 11.0638 2.7499 0.0000 -10641.5490 1480.3934 0.0000 0.0000 1737.8644 -7403.1259 297.8655 -9140.9903 -7389.8930 299.3020 159.3827 221.9298 30081.3134 -130.6451 -72.3716
ENERGY: 900000 2.3928 11.5193 2.9706 0.0000 -10664.9746 1440.2257 0.0000 0.0000 1752.0444 -7455.8218 300.2959 -9207.8663 -7389.9814 298.6429 -34.7996 22.4022 29829.4196 -176.7918 -121.7670
ENERGY: 1200000 3.9618 9.9460 4.3580 0.0000 -10548.8389 1414.4293 0.0000 0.0000 1733.3146 -7382.8293 297.0857 -9116.1439 -7387.9872 299.3010 -268.5144 -238.7672 30213.3680 -247.9546 -198.0342
ENERGY: 1500000 4.4575 9.5025 3.8088 0.0000 -10555.0650 1402.7015 0.0000 0.0000 1778.7984 -7355.7964 304.8815 -9134.5948 -7386.8045 299.7595 -244.7691 -186.9955 30213.6594 -213.8971 -164.9743
TCL: Running FEP window  14: Lambda1 0.34999999999999964 Lambda2 0.29999999999999966 [dLambda -0.04999999999999999]
TCL: Setting parameter firsttimestep to 0
TCL: Setting parameter alchLambda to 0.34999999999999964
Info: NONBONDED TABLE R-SQUARED SPACING: 0.0625
Info: NONBONDED TABLE SIZE: 705 POINTS
TCL: Setting parameter alchLambda2 to 0.29999999999999966
Info: NONBONDED TABLE R-SQUARED SPACING: 0.0625
Info: NONBONDED TABLE SIZE: 705 POINTS
TCL: Running for 1500000 steps
ETITLE: TS BOND ANGLE DIHED IMPRP ELECT VDW BOUNDARY MISC KINETIC TOTAL TEMP POTENTIAL TOTALAVG TEMPAVG PRESSURE GPRESSURE VOLUME PRESSAVG GPRESSAVG
ENERGY: 0 4.4575 9.5025 3.8088 0.0000 -10555.0644 1402.5324 0.0000 0.0000 1777.9653 -7356.7980 304.7387 -9134.7633 -7356.7980 304.7387 -262.0105 -194.6559 30213.6594 -262.0105 -194.6559
ENERGY: 300000 2.0783 15.1301 3.8540 0.0000 -10656.5589 1494.2328 0.0000 0.0000 1763.9943 -7377.2694 302.3441 -9141.2637 -7382.9285 302.3246 716.1118 754.5554 29818.5456 -109.1803 -50.5816
ENERGY: 600000 3.7603 9.3269 6.6239 0.0000 -10603.4062 1456.7665 0.0000 0.0000 1762.9740 -7363.9546 302.1692 -9126.9285 -7388.9714 300.3806 386.0176 484.3254 29701.2884 -50.0837 25.5341
ENERGY: 900000 3.6428 10.4007 4.9433 0.0000 -10590.3276 1441.6730 0.0000 0.0000 1694.6131 -7435.0546 290.4523 -9129.6677 -7390.4684 299.7209 5.1891 59.6377 30186.5285 5.6854 79.2058
ENERGY: 1200000 1.9963 6.8018 2.5358 0.0000 -10584.5753 1416.8058 0.0000 0.0000 1715.2589 -7441.1766 293.9910 -9156.4356 -7387.8193 299.2340 -187.9198 -138.0366 29991.4387 -50.8508 27.1812
ENERGY: 1500000 2.2844 9.1908 4.8362 0.0000 -10519.7581 1344.0308 0.0000 0.0000 1720.3624 -7439.0534 294.8657 -9159.4159 -7392.2453 298.7094 -709.5992 -646.3905 30066.7551 -1.9365 71.3159
TCL: Running FEP window  15: Lambda1 0.29999999999999966 Lambda2 0.24999999999999967 [dLambda -0.04999999999999999]
TCL: Setting parameter firsttimestep to 0
TCL: Setting parameter alchLambda to 0.29999999999999966
Info: NONBONDED TABLE R-SQUARED SPACING: 0.0625
Info: NONBONDED TABLE SIZE: 705 POINTS
TCL: Setting parameter alchLambda2 to 0.24999999999999967
Info: NONBONDED TABLE R-SQUARED SPACING: 0.0625
Info: NONBONDED TABLE SIZE: 705 POINTS
TCL: Running for 1500000 steps
ETITLE: TS BOND ANGLE DIHED IMPRP ELECT VDW BOUNDARY MISC KINETIC TOTAL TEMP POTENTIAL TOTALAVG TEMPAVG PRESSURE GPRESSURE VOLUME PRESSAVG GPRESSAVG
ENERGY: 0 2.2844 9.1908 4.8362 0.0000 -10519.7573 1344.4361 0.0000 0.0000 1719.4659 -7439.5439 294.7121 -9159.0098 -7439.5439 294.7121 -741.8625 -649.6194 30066.7551 -741.8625 -649.6194
ENERGY: 300000 1.1458 15.3644 5.7245 0.0000 -10532.5356 1417.2385 0.0000 0.0000 1771.6212 -7321.4412 303.6513 -9093.0624 -7368.6894 301.3458 14.5342 94.4948 30058.5854 -323.4895 -256.4861
ENERGY: 600000 3.5270 13.4757 3.5621 0.0000 -10537.3487 1407.7545 0.0000 0.0000 1740.3788 -7368.6507 298.2965 -9109.0295 -7378.7358 301.2290 -22.1502 12.8330 29738.5952 -226.1357 -172.4411
ENERGY: 900000 3.0449 9.2599 3.6540 0.0000 -10520.8787 1368.2108 0.0000 0.0000 1826.9062 -7309.8030 313.1270 -9136.7091 -7383.9951 301.0647 -492.4026 -399.6061 30205.6342 -189.0042 -130.7783
ENERGY: 1200000 2.4787 7.8818 4.6609 0.0000 -10542.9389 1393.1271 0.0000 0.0000 1743.6582 -7391.1322 298.8585 -9134.7903 -7384.5089 301.2747 -197.0195 -118.2210 29884.0995 -188.9129 -128.4829
ENERGY: 1500000 3.0392 11.4340 1.8134 0.0000 -10493.1178 1392.5458 0.0000 0.0000 1751.8032 -7332.4822 300.2546 -9084.2854 -7383.7889 300.7530 -309.3359 -220.9131 30138.5830 -137.2591 -82.8652
TCL: Running FEP window  16: Lambda1 0.24999999999999967 Lambda2 0.19999999999999968 [dLambda -0.04999999999999999]
TCL: Setting parameter firsttimestep to 0
TCL: Setting parameter alchLambda to 0.24999999999999967
Info: NONBONDED TABLE R-SQUARED SPACING: 0.0625
Info: NONBONDED TABLE SIZE: 705 POINTS
TCL: Setting parameter alchLambda2 to 0.19999999999999968
Info: NONBONDED TABLE R-SQUARED SPACING: 0.0625
Info: NONBONDED TABLE SIZE: 705 POINTS
TCL: Running for 1500000 steps
ETITLE: TS BOND ANGLE DIHED IMPRP ELECT VDW BOUNDARY MISC KINETIC TOTAL TEMP POTENTIAL TOTALAVG TEMPAVG PRESSURE GPRESSURE VOLUME PRESSAVG GPRESSAVG
ENERGY: 0 3.0392 11.4340 1.8134 0.0000 -10493.1185 1392.0331 0.0000 0.0000 1750.9495 -7333.8493 300.1083 -9084.7988 -7333.8493 300.1083 -320.0054 -228.3312 30138.5830 -320.0054 -228.3312
ENERGY: 300000 1.1112 8.9890 4.5350 0.0000 -10567.8065 1372.4725 0.0000 0.0000 1759.9250 -7420.7737 301.6467 -9180.6987 -7376.1460 300.9349 -567.1242 -526.8509 30339.4549 -132.7537 -77.8705
ENERGY: 600000 3.2516 7.1850 3.3609 0.0000 -10484.1079 1431.6835 0.0000 0.0000 1809.8107 -7228.8161 310.1969 -9038.6268 -7342.5241 302.9610 88.9317 192.5824 30443.0735 -73.2638 -8.5023
ENERGY: 900000 3.4004 12.3042 2.0015 0.0000 -10608.5608 1453.0718 0.0000 0.0000 1805.1649 -7332.6179 309.4006 -9137.7828 -7342.4407 303.1574 340.7265 440.7644 30030.2424 -77.2859 -8.2404
ENERGY: 1200000 2.9403 7.8804 2.6307 0.0000 -10614.1273 1507.6654 0.0000 0.0000 1754.1920 -7338.8186 300.6640 -9093.0105 -7342.7566 302.7924 796.9820 889.1607 29958.3900 77.9972 145.3079
ENERGY: 1500000 4.6380 11.8826 3.5714 0.0000 -10739.4628 1548.6584 0.0000 0.0000 1778.7449 -7391.9675 304.8723 -9170.7123 -7353.2680 301.7152 1079.8765 1117.8328 29880.8166 82.8404 145.1185
TCL: Running FEP window  17: Lambda1 0.19999999999999968 Lambda2 0.1499999999999997 [dLambda -0.04999999999999999]
TCL: Setting parameter firsttimestep to 0
TCL: Setting parameter alchLambda to 0.19999999999999968
Info: NONBONDED TABLE R-SQUARED SPACING: 0.0625
Info: NONBONDED TABLE SIZE: 705 POINTS
TCL: Setting parameter alchLambda2 to 0.1499999999999997
Info: NONBONDED TABLE R-SQUARED SPACING: 0.0625
Info: NONBONDED TABLE SIZE: 705 POINTS
TCL: Running for 1500000 steps
ETITLE: TS BOND ANGLE DIHED IMPRP ELECT VDW BOUNDARY MISC KINETIC TOTAL TEMP POTENTIAL TOTALAVG TEMPAVG PRESSURE GPRESSURE VOLUME PRESSAVG GPRESSAVG
ENERGY: 0 4.6380 11.8826 3.5714 0.0000 -10739.4620 1546.8769 0.0000 0.0000 1777.8640 -7394.6291 304.7213 -9172.4931 -7394.6291 304.7213 1032.2488 1104.7894 29880.8166 1032.2488 1104.7894
ENERGY: 300000 3.0678 18.5887 2.9744 0.0000 -10686.2589 1501.8698 0.0000 0.0000 1766.4238 -7393.3344 302.7605 -9159.7583 -7403.8006 301.6409 656.0850 743.8686 29775.6673 815.5900 888.8381
ENERGY: 600000 3.3332 7.8407 7.1299 0.0000 -10487.6891 1284.0472 0.0000 0.0000 1702.4440 -7482.8940 291.7946 -9185.3380 -7416.6420 298.9446 -1565.1853 -1482.9337 30242.8540 129.2680 197.4090
ENERGY: 900000 6.9273 17.6712 3.3450 0.0000 -10710.3682 1562.6602 0.0000 0.0000 1796.4577 -7323.3069 307.9083 -9119.7646 -7390.4135 299.9869 1074.2384 1159.7037 29998.7795 225.2340 292.2007
ENERGY: 1200000 3.4045 7.2881 2.0760 0.0000 -10624.2212 1455.4605 0.0000 0.0000 1760.4538 -7395.5384 301.7373 -9155.9921 -7386.1128 300.1963 376.5540 423.6732 29515.6169 171.2842 235.5646
ENERGY: 1500000 4.0461 9.2850 3.6498 0.0000 -10653.8629 1473.1593 0.0000 0.0000 1771.2782 -7392.4445 303.5926 -9163.7227 -7383.6341 300.4014 374.3855 421.2869 29652.3460 167.2256 227.9564
TCL: Running FEP window  18: Lambda1 0.1499999999999997 Lambda2 0.09999999999999969 [dLambda -0.05 ]
TCL: Setting parameter firsttimestep to 0
TCL: Setting parameter alchLambda to 0.1499999999999997
Info: NONBONDED TABLE R-SQUARED SPACING: 0.0625
Info: NONBONDED TABLE SIZE: 705 POINTS
TCL: Setting parameter alchLambda2 to 0.09999999999999969
Info: NONBONDED TABLE R-SQUARED SPACING: 0.0625
Info: NONBONDED TABLE SIZE: 705 POINTS
TCL: Running for 1500000 steps
ETITLE: TS BOND ANGLE DIHED IMPRP ELECT VDW BOUNDARY MISC KINETIC TOTAL TEMP POTENTIAL TOTALAVG TEMPAVG PRESSURE GPRESSURE VOLUME PRESSAVG GPRESSAVG
ENERGY: 0 4.0461 9.2850 3.6498 0.0000 -10653.8634 1472.3598 0.0000 0.0000 1770.3989 -7394.1239 303.4418 -9164.5228 -7394.1239 303.4418 336.0024 414.4250 29652.3460 336.0024 414.4250
ENERGY: 300000 2.9381 8.6793 3.6644 0.0000 -10419.0023 1281.8430 0.0000 0.0000 1773.5252 -7348.3524 303.9777 -9121.8776 -7386.5990 303.0999 -818.3451 -846.4291 29685.0161 77.0588 134.3905
ENERGY: 600000 5.8911 8.5049 4.2748 0.0000 -10441.5363 1329.6909 0.0000 0.0000 1732.8441 -7360.3306 297.0050 -9093.1747 -7388.6815 301.3159 -582.2042 -519.7022 29998.9630 -41.6235 14.7095
ENERGY: 900000 2.2063 9.5505 3.6440 0.0000 -10497.1002 1414.1394 0.0000 0.0000 1734.0811 -7333.4788 297.2171 -9067.5599 -7372.1620 301.9173 23.6554 113.9092 30045.4235 -71.3344 -21.7996
ENERGY: 1200000 4.9329 7.1659 4.3889 0.0000 -10462.4878 1359.1722 0.0000 0.0000 1792.8714 -7293.9565 307.2936 -9086.8278 -7374.1624 301.5295 -688.3968 -624.2330 30197.2866 -70.2258 -14.3363
ENERGY: 1500000 4.0112 12.9404 5.7897 0.0000 -10473.7833 1273.5517 0.0000 0.0000 1742.7949 -7434.6953 298.7106 -9177.4902 -7381.0809 301.9164 -1432.0283 -1361.1028 29958.4863 -126.7204 -67.5912
TCL: Running FEP window  19: Lambda1 0.09999999999999969 Lambda2 0.049999999999999684 [dLambda -0.05 ]
TCL: Setting parameter firsttimestep to 0
TCL: Setting parameter alchLambda to 0.09999999999999969
Info: NONBONDED TABLE R-SQUARED SPACING: 0.0625
Info: NONBONDED TABLE SIZE: 705 POINTS
TCL: Setting parameter alchLambda2 to 0.049999999999999684
Info: NONBONDED TABLE R-SQUARED SPACING: 0.0625
Info: NONBONDED TABLE SIZE: 705 POINTS
TCL: Running for 1500000 steps
ETITLE: TS BOND ANGLE DIHED IMPRP ELECT VDW BOUNDARY MISC KINETIC TOTAL TEMP POTENTIAL TOTALAVG TEMPAVG PRESSURE GPRESSURE VOLUME PRESSAVG GPRESSAVG
ENERGY: 0 4.0112 12.9404 5.7897 0.0000 -10473.7843 1272.8569 0.0000 0.0000 1741.9179 -7436.2681 298.5603 -9178.1860 -7436.2681 298.5603 -1448.0836 -1369.3343 29958.4863 -1448.0836 -1369.3343
ENERGY: 300000 2.2559 13.7195 3.1302 0.0000 -10625.9730 1437.0650 0.0000 0.0000 1738.2707 -7431.5316 297.9352 -9169.8024 -7380.5378 299.1208 -142.5729 -63.9334 29991.0111 -649.7016 -576.7899
ENERGY: 600000 1.7979 9.8433 3.2882 0.0000 -10585.9102 1391.7452 0.0000 0.0000 1812.1921 -7367.0436 310.6051 -9179.2357 -7380.5216 301.1990 -361.8975 -252.5169 30063.7378 -479.9025 -409.3513
ENERGY: 900000 3.1296 11.2995 6.5349 0.0000 -10572.4854 1387.8642 0.0000 0.0000 1737.3766 -7426.2806 297.7819 -9163.6573 -7375.0998 300.4141 -400.7642 -385.7449 29734.9537 -564.2594 -499.1937
ENERGY: 1200000 1.6704 8.3543 3.5058 0.0000 -10563.1554 1426.3279 0.0000 0.0000 1750.0433 -7373.2537 299.9530 -9123.2970 -7375.5409 300.1602 172.4584 218.5139 30003.3642 -487.9428 -424.3882
ENERGY: 1500000 2.1910 7.8946 5.8463 0.0000 -10550.2781 1463.6750 0.0000 0.0000 1794.3055 -7276.3657 307.5394 -9070.6712 -7359.0569 301.4757 660.1558 700.6371 29777.9510 -298.4421 -236.5634
TCL: Running FEP window  20: Lambda1 0.049999999999999684 Lambda2 0.0    [dLambda -0.049999999999999684]
TCL: Setting parameter firsttimestep to 0
TCL: Setting parameter alchLambda to 0.049999999999999684
Info: NONBONDED TABLE R-SQUARED SPACING: 0.0625
Info: NONBONDED TABLE SIZE: 705 POINTS
TCL: Setting parameter alchLambda2 to 0.0
Info: NONBONDED TABLE R-SQUARED SPACING: 0.0625
Info: NONBONDED TABLE SIZE: 705 POINTS
TCL: Running for 1500000 steps
ETITLE: TS BOND ANGLE DIHED IMPRP ELECT VDW BOUNDARY MISC KINETIC TOTAL TEMP POTENTIAL TOTALAVG TEMPAVG PRESSURE GPRESSURE VOLUME PRESSAVG GPRESSAVG
ENERGY: 0 2.1910 7.8946 5.8463 0.0000 -10550.2802 1464.1204 0.0000 0.0000 1793.4037 -7276.8242 307.3848 -9070.2279 -7276.8242 307.3848 624.7805 699.4073 29777.9510 624.7805 699.4073
ENERGY: 300000 2.6436 10.6304 3.3663 0.0000 -10707.4666 1551.5434 0.0000 0.0000 1796.6121 -7342.6708 307.9347 -9139.2830 -7341.9316 306.3357 1220.1422 1276.0294 29480.5521 509.8874 558.1234
ENERGY: 600000 2.6228 9.4879 3.1308 0.0000 -10553.6519 1400.5290 0.0000 0.0000 1723.5159 -7414.3655 295.4062 -9137.8814 -7372.9376 301.8554 97.7877 159.6681 29599.6009 398.3209 453.3305
ENERGY: 900000 2.0309 11.2472 4.7898 0.0000 -10563.0775 1445.8242 0.0000 0.0000 1734.8572 -7364.3283 297.3501 -9099.1855 -7366.5574 301.5150 81.9102 153.8839 29923.7571 306.5104 362.2654
ENERGY: 1200000 2.6578 10.7440 4.2955 0.0000 -10562.4920 1356.5883 0.0000 0.0000 1754.8819 -7433.3245 300.7823 -9188.2065 -7375.3688 300.8204 -836.9864 -712.3784 30043.8849 144.7222 199.4368
ENERGY: 1500000 5.9470 9.6884 5.1281 0.0000 -10650.5645 1454.6049 0.0000 0.0000 1765.5421 -7409.6540 302.6094 -9175.1961 -7367.3667 301.5576 -49.5201 -52.1539 30300.3022 119.0176 173.0027
TCL: Exiting due to exit command.
