Info: SIMULATION PARAMETERS:
Info: TIMESTEP               2
Info: NUMBER OF STEPS        0
Info: STEPS PER CYCLE        10
Info: PERIODIC CELL BASIS 1  30.386 0 0
Info: PERIODIC CELL BASIS 2  0 29.7953 0
Info: PERIODIC CELL BASIS 3  0 0 34.092
Info: PERIODIC CELL CENTER   0 0 0
Info: WRAPPING WATERS AROUND PERIODIC BOUNDARIES ON OUTPUT.
Info: WRAPPING ALL CLUSTERS AROUND PERIODIC BOUNDARIES ON OUTPUT.
Info: FIRST LDB TIMESTEP     50
Info: LAST LDB TIMESTEP     -1
Info: HOM BACKGROUND SCALING 1
Info: PME BACKGROUND SCALING 1
Info: MIN ATOMS PER PATCH    40
Info: EMPTY PATCH LOAD       40 ATOMS
Info: VELOCITY FILE          mobley_2923700_equil.vel
Info: CENTER OF MASS MOVING INITIALLY? NO
Info: DIELECTRIC             1
Info: EXCLUDE                SCALED ONE-FOUR
Info: 1-4 ELECTROSTATICS SCALED BY 0.833333
Info: MODIFIED 1-4 VDW PARAMETERS WILL BE USED
Info: DCD FILENAME           mobley_2923700_prod.dcd
Info: DCD FREQUENCY          100000
Info: DCD FIRST STEP         100000
Info: DCD FILE WILL CONTAIN UNIT CELL DATA
Info: XST FILENAME           mobley_2923700_prod.xst
Info: XST FREQUENCY          100000
Info: NO VELOCITY DCD OUTPUT
Info: NO FORCE DCD OUTPUT
Info: OUTPUT FILENAME        mobley_2923700_prod
Info: BINARY OUTPUT FILES WILL BE USED
Info: RESTART FILENAME       mobley_2923700_prod.restart
Info: RESTART FREQUENCY      100000
Info: BINARY RESTART FILES WILL BE USED
Info: CUTOFF                 9
Info: PAIRLIST DISTANCE      11
Info: PAIRLIST SHRINK RATE   0.01
Info: PAIRLIST GROW RATE     0.01
Info: PAIRLIST TRIGGER       0.3
Info: PAIRLISTS PER CYCLE    2
Info: PAIRLISTS ENABLED
Info: MARGIN                 2
Info: HYDROGEN GROUP CUTOFF  2.5
Info: PATCH DIMENSION        15.5
Info: ENERGY OUTPUT STEPS    100000
Info: ENERGY EVALUATION STEPS    100000
Info: OUTPUT ENERGY PRECISION 4
Info: CROSSTERM ENERGY INCLUDED IN DIHEDRAL
Info: TIMING OUTPUT STEPS    1000000
Info: PRESSURE OUTPUT STEPS  100000
Info: ALCHEMICAL FEP ON
Info: FEP CURRENT LAMBDA VALUE     1
Info: FEP COMPARISON LAMBDA VALUE  0.95
Info: FEP INTRA-ALCHEMICAL NON-BONDED INTERACTIONS WILL BE RETAINED
Info: FEP INTRA-ALCHEMICAL BONDED INTERACTIONS WILL BE RETAINED
Info: FEP VDW SHIFTING COEFFICIENT 5
Info: FEP ELEC. ACTIVE FOR ANNIHILATED PARTICLES BETWEEN LAMBDA = 0 AND LAMBDA = 0.5
Info: FEP ELEC. ACTIVE FOR EXNIHILATED PARTICLES BETWEEN LAMBDA = 0.5 AND LAMBDA = 1
Info: FEP VDW ACTIVE FOR ANNIHILATED PARTICLES BETWEEN LAMBDA = 0 AND LAMBDA = 1
Info: FEP VDW ACTIVE FOR EXNIHILATED PARTICLES BETWEEN LAMBDA = 0 AND LAMBDA = 1
Info: FEP BOND ACTIVE FOR ANNIHILATED PARTICLES BETWEEN LAMBDA = 1 AND LAMBDA = 1
Info: FEP BOND ACTIVE FOR EXNIHILATED PARTICLES BETWEEN LAMBDA = 0 AND LAMBDA = 0
Info: LANGEVIN DYNAMICS ACTIVE
Info: LANGEVIN TEMPERATURE   300
Info: LANGEVIN USING BBK INTEGRATOR
Info: LANGEVIN DAMPING COEFFICIENT IS 1 INVERSE PS
Info: LANGEVIN DYNAMICS APPLIED TO HYDROGENS
Info: LANGEVIN PISTON PRESSURE CONTROL ACTIVE
Info:        TARGET PRESSURE IS 1.01325 BAR
Info:     OSCILLATION PERIOD IS 50 FS
Info:             DECAY TIME IS 25 FS
Info:     PISTON TEMPERATURE IS 300 K
Info:       PRESSURE CONTROL IS GROUP-BASED
Info:    INITIAL STRAIN RATE IS 0.00048215 0.00048215 0.00048215
Info:       CELL FLUCTUATION IS ISOTROPIC
Info: PARTICLE MESH EWALD (PME) ACTIVE
Info: PME TOLERANCE               1e-06
Info: PME EWALD COEFFICIENT       0.348832
Info: PME INTERPOLATION ORDER     4
Info: PME GRID DIMENSIONS         32 32 36
Info: PME MAXIMUM GRID SPACING    1
Info: PME CALCULATION WILL BE PERFORMED ON GPU
Info: FULL ELECTROSTATIC EVALUATION FREQUENCY      2
Info: USING VERLET I (r-RESPA) MTS SCHEME.
Info: C1 SPLITTING OF LONG RANGE ELECTROSTATICS
Info: PLACING ATOMS IN PATCHES BY HYDROGEN GROUPS
Info: RIGID BONDS TO HYDROGEN : ALL
Info:         ERROR TOLERANCE : 1e-08
Info:          MAX ITERATIONS : 100
Info: RIGID WATER USING SETTLE ALGORITHM
Info: RANDOM NUMBER SEED     1743783754
Info: USE HYDROGEN BONDS?    NO
Info: Using AMBER format force field!
Info: AMBER PARM FILE        mobley_2923700.prmtop
Info: COORDINATE PDB         mobley_2923700.pdb
Info: Exclusions will be read from PARM file!
Info: SCNB (VDW SCALING)     2
Info: USING ARITHMETIC MEAN TO COMBINE L-J SIGMA PARAMETERS
Info: BINARY COORDINATES     mobley_2923700_equil.coor
Info: SUMMARY OF PARAMETERS:
Info: 9 BONDS
Info: 9 ANGLES
Info:   9 HARMONIC
Info:   0 COSINE-BASED
Info: 6 DIHEDRAL
Info: 0 IMPROPER
Info: 0 CROSSTERM
Info: 0 VDW
Info: 28 VDW_PAIRS
Info: 0 NBTHOLE_PAIRS
Info: To read alchdata from file: mobley_2923700.pdb
Info: To read alchflag data from column: 5
Info: STRUCTURE SUMMARY:
Info: 2989 ATOMS
Info: 2989 BONDS
Info: 31 ANGLES
Info: 47 DIHEDRALS
Info: 0 IMPROPERS
Info: 0 CROSSTERMS
Info: 3058 EXCLUSIONS
Info: 2980 RIGID BONDS
Info: ALCH: 0 ATOMS TO DISAPPEAR IN FINAL STATE
Info: ALCH: 19 ATOMS TO APPEAR IN FINAL STATE
Info: 5987 DEGREES OF FREEDOM
Info: 999 HYDROGEN GROUPS
Info: 4 ATOMS IN LARGEST HYDROGEN GROUP
Info: 999 MIGRATION GROUPS
Info: 4 ATOMS IN LARGEST MIGRATION GROUP
Info: TOTAL MASS = 17958 amu
Info: TOTAL CHARGE = -9.99607e-05 e
Info: MASS DENSITY = 0.966149 g/cm^3
Info: ATOM DENSITY = 0.0968396 atoms/A^3
Info: ADDED 0 IMPLICIT EXCLUSIONS
Info: NONBONDED TABLE R-SQUARED SPACING: 0.0625
Info: NONBONDED TABLE SIZE: 705 POINTS
Info: REMOVING COM VELOCITY -0.0641832 -0.222266 -0.111859
Info: Use 3D box decompostion in PME FFT.
Info: Updated CUDA force table with 4096 elements.
Info: Updated CUDA LJ table with 7 x 7 elements.
Info: Found 21 unique exclusion lists needing 60 bytes
TCL: Running for 1500000 steps
ETITLE: TS BOND ANGLE DIHED IMPRP ELECT VDW BOUNDARY MISC KINETIC TOTAL TEMP POTENTIAL TOTALAVG TEMPAVG PRESSURE GPRESSURE VOLUME PRESSAVG GPRESSAVG
ENERGY: 0 4.2466 4.7670 2.4603 0.0000 -10878.5327 1478.0253 0.0000 0.0000 1760.4509 -7628.5826 295.9409 -9389.0335 -7628.5826 295.9409 -16.1110 71.6811 30865.4790 -16.1110 71.6811
ENERGY: 300000 0.6502 9.6308 6.7644 0.0000 -10858.2249 1402.9110 0.0000 0.0000 1826.2958 -7611.9727 307.0098 -9438.2685 -7574.1995 301.6523 -493.0736 -479.1450 30782.4438 -257.7292 -192.4528
ENERGY: 600000 2.2807 5.6688 4.1651 0.0000 -10791.3996 1386.1845 0.0000 0.0000 1806.4638 -7586.6368 303.6759 -9393.1005 -7583.8260 301.0568 -645.5003 -574.4386 30972.9517 -208.5607 -141.9728
ENERGY: 900000 2.4832 5.7245 4.7903 0.0000 -10800.1491 1365.3913 0.0000 0.0000 1797.4758 -7624.2840 302.1650 -9421.7598 -7593.0625 301.6305 -837.7050 -744.3381 31170.8530 -269.3769 -209.8544
ENERGY: 1200000 1.7927 5.5671 4.6648 0.0000 -10829.6439 1409.2280 0.0000 0.0000 1771.9827 -7636.4086 297.8795 -9408.3913 -7604.2306 300.1447 -357.0180 -197.4438 30660.6917 -305.3468 -241.6554
ENERGY: 1500000 2.1124 3.7211 4.1118 0.0000 -10797.6604 1465.7744 0.0000 0.0000 1744.1168 -7577.8239 293.1951 -9321.9407 -7601.1236 299.6329 70.9119 129.4664 30759.7053 -197.9467 -132.3044
TCL: Running FEP window   2: Lambda1 0.95   Lambda2 0.8999999999999999 [dLambda -0.050000000000000044]
TCL: Setting parameter firsttimestep to 0
TCL: Setting parameter alchLambda to 0.95
Info: NONBONDED TABLE R-SQUARED SPACING: 0.0625
Info: NONBONDED TABLE SIZE: 705 POINTS
TCL: Setting parameter alchLambda2 to 0.8999999999999999
Info: NONBONDED TABLE R-SQUARED SPACING: 0.0625
Info: NONBONDED TABLE SIZE: 705 POINTS
TCL: Running for 1500000 steps
ETITLE: TS BOND ANGLE DIHED IMPRP ELECT VDW BOUNDARY MISC KINETIC TOTAL TEMP POTENTIAL TOTALAVG TEMPAVG PRESSURE GPRESSURE VOLUME PRESSAVG GPRESSAVG
ENERGY: 0 2.1124 3.7211 4.1118 0.0000 -10797.0239 1464.4188 0.0000 0.0000 1743.2207 -7579.4390 293.0444 -9322.6597 -7579.4390 293.0444 13.7166 101.1685 30759.7053 13.7166 101.1685
ENERGY: 300000 2.6896 7.0557 4.3328 0.0000 -10813.4213 1446.4040 0.0000 0.0000 1766.8723 -7586.0669 297.0204 -9352.9392 -7594.3244 297.0347 -160.4720 -82.0685 30766.0252 -134.0554 -44.1698
ENERGY: 600000 4.8838 3.7897 6.3341 0.0000 -10899.8794 1447.9465 0.0000 0.0000 1736.2084 -7700.7169 291.8656 -9436.9252 -7608.0690 296.5039 -346.1939 -330.0048 31083.5067 -198.2323 -127.1405
ENERGY: 900000 2.8021 5.8101 4.2807 0.0000 -10789.8435 1389.0221 0.0000 0.0000 1791.1660 -7596.7624 301.1043 -9387.9284 -7608.2328 297.0567 -924.1559 -812.7918 31412.4768 -136.3454 -56.2790
ENERGY: 1200000 2.4137 4.1342 3.6597 0.0000 -10734.4034 1387.7461 0.0000 0.0000 1787.7370 -7548.7127 300.5279 -9336.4496 -7602.5009 298.5541 -461.2510 -409.6039 30869.4012 -132.6543 -62.1441
ENERGY: 1500000 1.1709 7.2349 4.5494 0.0000 -10740.6084 1435.5705 0.0000 0.0000 1807.3500 -7484.7327 303.8249 -9292.0827 -7587.1939 299.6997 -137.8375 -16.2457 31183.2801 -178.6431 -107.8735
TCL: Running FEP window   3: Lambda1 0.8999999999999999 Lambda2 0.8499999999999999 [dLambda -0.050000000000000044]
TCL: Setting parameter firsttimestep to 0
TCL: Setting parameter alchLambda to 0.8999999999999999
Info: NONBONDED TABLE R-SQUARED SPACING: 0.0625
Info: NONBONDED TABLE SIZE: 705 POINTS
TCL: Setting parameter alchLambda2 to 0.8499999999999999
Info: NONBONDED TABLE R-SQUARED SPACING: 0.0625
Info: NONBONDED TABLE SIZE: 705 POINTS
TCL: Running for 1500000 steps
ETITLE: TS BOND ANGLE DIHED IMPRP ELECT VDW BOUNDARY MISC KINETIC TOTAL TEMP POTENTIAL TOTALAVG TEMPAVG PRESSURE GPRESSURE VOLUME PRESSAVG GPRESSAVG
ENERGY: 0 1.1709 7.2349 4.5494 0.0000 -10737.3950 1433.8055 0.0000 0.0000 1806.4895 -7484.1448 303.6803 -9290.6343 -7484.1448 303.6803 -117.1170 -39.7205 31183.2801 -117.1170 -39.7205
ENERGY: 300000 2.9330 5.6167 1.9646 0.0000 -10763.2028 1367.6761 0.0000 0.0000 1819.9296 -7565.0827 305.9396 -9385.0123 -7564.0708 301.5383 -762.7846 -709.7042 30942.5102 -162.8630 -104.5614
ENERGY: 600000 2.0539 7.5288 2.1006 0.0000 -10766.8756 1401.3481 0.0000 0.0000 1767.0793 -7586.7650 297.0552 -9353.8443 -7577.2287 300.4228 -514.9806 -441.8888 31126.0096 -39.1295 10.2348
ENERGY: 900000 2.7730 4.9093 3.4528 0.0000 -10833.5681 1465.9534 0.0000 0.0000 1774.8111 -7581.6685 298.3550 -9356.4795 -7579.7300 301.0139 102.8002 227.2624 30980.3694 -101.6307 -45.9103
ENERGY: 1200000 2.1835 6.5306 3.3593 0.0000 -10950.9974 1531.8160 0.0000 0.0000 1806.8714 -7600.2367 303.7445 -9407.1081 -7586.6132 300.3997 475.2800 577.9640 30631.0559 -76.3586 -13.5790
ENERGY: 1500000 2.1550 11.6990 4.9904 0.0000 -10718.6312 1415.7517 0.0000 0.0000 1796.4881 -7487.5469 301.9990 -9284.0351 -7580.6502 300.1317 -54.2082 -8.6954 30967.5403 -82.5390 -21.6771
TCL: Running FEP window   4: Lambda1 0.8499999999999999 Lambda2 0.7999999999999998 [dLambda -0.050000000000000044]
TCL: Setting parameter firsttimestep to 0
TCL: Setting parameter alchLambda to 0.8499999999999999
Info: NONBONDED TABLE R-SQUARED SPACING: 0.0625
Info: NONBONDED TABLE SIZE: 705 POINTS
TCL: Setting parameter alchLambda2 to 0.7999999999999998
Info: NONBONDED TABLE R-SQUARED SPACING: 0.0625
Info: NONBONDED TABLE SIZE: 705 POINTS
TCL: Running for 1500000 steps
ETITLE: TS BOND ANGLE DIHED IMPRP ELECT VDW BOUNDARY MISC KINETIC TOTAL TEMP POTENTIAL TOTALAVG TEMPAVG PRESSURE GPRESSURE VOLUME PRESSAVG GPRESSAVG
ENERGY: 0 2.1550 11.6990 4.9904 0.0000 -10716.1197 1414.9728 0.0000 0.0000 1795.6086 -7486.6939 301.8511 -9282.3025 -7486.6939 301.8511 -104.4476 -21.0876 30967.5403 -104.4476 -21.0876
ENERGY: 300000 2.6279 6.8732 4.4169 0.0000 -10903.7056 1541.3477 0.0000 0.0000 1782.1473 -7566.2925 299.5882 -9348.4399 -7608.0662 295.3680 1051.3345 1059.4994 30293.3605 -28.0917 20.6519
ENERGY: 600000 2.2011 11.6026 4.7130 0.0000 -10822.0338 1391.2717 0.0000 0.0000 1703.0882 -7709.1571 286.2980 -9412.2453 -7602.8537 296.0146 -568.9384 -554.7295 30701.6840 -205.7940 -163.0484
ENERGY: 900000 3.8555 8.1492 1.6069 0.0000 -10846.9903 1483.7323 0.0000 0.0000 1792.2333 -7557.4131 301.2837 -9349.6464 -7599.3454 295.6598 114.7483 220.8451 30962.8553 -192.9447 -146.8204
ENERGY: 1200000 2.1131 4.2204 3.1392 0.0000 -10846.7933 1512.6597 0.0000 0.0000 1771.2590 -7553.4018 297.7578 -9324.6608 -7604.2310 295.6009 366.6732 442.3953 31027.9745 -133.9175 -81.0413
ENERGY: 1500000 2.3315 6.7785 2.8194 0.0000 -11018.0845 1499.8212 0.0000 0.0000 1783.6768 -7722.6572 299.8453 -9506.3339 -7599.0791 297.0344 -196.0803 -149.9251 30689.9800 -144.0802 -84.7523
TCL: Running FEP window   5: Lambda1 0.7999999999999998 Lambda2 0.7499999999999998 [dLambda -0.050000000000000044]
TCL: Setting parameter firsttimestep to 0
TCL: Setting parameter alchLambda to 0.7999999999999998
Info: NONBONDED TABLE R-SQUARED SPACING: 0.0625
Info: NONBONDED TABLE SIZE: 705 POINTS
TCL: Setting parameter alchLambda2 to 0.7499999999999998
Info: NONBONDED TABLE R-SQUARED SPACING: 0.0625
Info: NONBONDED TABLE SIZE: 705 POINTS
TCL: Running for 1500000 steps
ETITLE: TS BOND ANGLE DIHED IMPRP ELECT VDW BOUNDARY MISC KINETIC TOTAL TEMP POTENTIAL TOTALAVG TEMPAVG PRESSURE GPRESSURE VOLUME PRESSAVG GPRESSAVG
ENERGY: 0 2.3315 6.7785 2.8194 0.0000 -11016.7130 1499.8775 0.0000 0.0000 1782.8336 -7722.0725 299.7036 -9504.9062 -7722.0725 299.7036 -238.1697 -158.0333 30689.9800 -238.1697 -158.0333
ENERGY: 300000 0.9136 6.0419 4.4383 0.0000 -10724.2264 1338.2087 0.0000 0.0000 1829.2585 -7545.3655 307.5078 -9374.6239 -7598.0648 303.1085 -949.2644 -842.3632 31036.1289 -608.7566 -556.7222
ENERGY: 600000 1.9997 5.9343 4.6464 0.0000 -10795.3843 1477.1341 0.0000 0.0000 1773.1834 -7532.4864 298.0813 -9305.6697 -7557.9339 303.2417 401.1551 505.0580 30456.0958 -373.7296 -312.0550
ENERGY: 900000 4.1442 5.6421 2.6755 0.0000 -10679.2177 1328.5121 0.0000 0.0000 1773.8056 -7564.4382 298.1859 -9338.2438 -7544.7201 302.7429 -1116.4139 -1034.6460 31254.2893 -359.1653 -301.0779
ENERGY: 1200000 2.2350 4.9351 2.6386 0.0000 -10991.6233 1525.3019 0.0000 0.0000 1738.2201 -7718.2927 292.2038 -9456.5128 -7564.5108 301.1009 518.5259 580.7851 30475.7276 -201.8158 -138.2150
ENERGY: 1500000 2.7711 6.7807 3.2471 0.0000 -10775.1239 1405.0964 0.0000 0.0000 1760.2446 -7596.9840 295.9063 -9357.2286 -7561.1697 301.0188 -425.9798 -353.6477 31077.3226 -179.5533 -115.4554
TCL: Running FEP window   6: Lambda1 0.7499999999999998 Lambda2 0.6999999999999997 [dLambda -0.050000000000000044]
TCL: Setting parameter firsttimestep to 0
TCL: Setting parameter alchLambda to 0.7499999999999998
Info: NONBONDED TABLE R-SQUARED SPACING: 0.0625
Info: NONBONDED TABLE SIZE: 705 POINTS
TCL: Setting parameter alchLambda2 to 0.6999999999999997
Info: NONBONDED TABLE R-SQUARED SPACING: 0.0625
Info: NONBONDED TABLE SIZE: 705 POINTS
TCL: Running for 1500000 steps
ETITLE: TS BOND ANGLE DIHED IMPRP ELECT VDW BOUNDARY MISC KINETIC TOTAL TEMP POTENTIAL TOTALAVG TEMPAVG PRESSURE GPRESSURE VOLUME PRESSAVG GPRESSAVG
ENERGY: 0 2.7712 6.7807 3.2471 0.0000 -10774.0568 1404.8692 0.0000 0.0000 1759.3546 -7597.0341 295.7566 -9356.3886 -7597.0341 295.7566 -444.0180 -364.8859 31077.3226 -444.0180 -364.8859
ENERGY: 300000 3.2836 3.9819 4.8438 0.0000 -10703.7614 1387.7280 0.0000 0.0000 1749.9478 -7553.9764 294.1753 -9303.9242 -7578.8284 298.1994 -631.7764 -567.2501 31601.9987 -173.4998 -92.5541
ENERGY: 600000 2.2257 4.6068 3.9623 0.0000 -10814.3500 1469.7364 0.0000 0.0000 1753.2386 -7580.5802 294.7285 -9333.8188 -7579.3588 299.0554 198.9343 257.9909 30827.3663 -224.8677 -156.5689
ENERGY: 900000 2.7032 4.7548 6.4337 0.0000 -10898.5862 1418.4865 0.0000 0.0000 1833.6397 -7632.5682 308.2443 -9466.2079 -7586.8744 300.0753 -431.9084 -370.0649 30550.3987 -233.5845 -167.4422
ENERGY: 1200000 1.5640 5.6852 1.1854 0.0000 -10950.0393 1502.1433 0.0000 0.0000 1755.2780 -7684.1834 295.0713 -9439.4614 -7586.0006 300.1200 26.5240 114.4182 30900.4112 -220.5602 -160.3386
ENERGY: 1500000 4.0916 8.0586 3.0745 0.0000 -10873.8555 1486.3161 0.0000 0.0000 1786.8013 -7585.5135 300.3706 -9372.3149 -7588.1557 299.7452 1.5107 -6.9538 31018.4012 -185.7314 -134.1222
TCL: Running FEP window   7: Lambda1 0.6999999999999997 Lambda2 0.6499999999999997 [dLambda -0.050000000000000044]
TCL: Setting parameter firsttimestep to 0
TCL: Setting parameter alchLambda to 0.6999999999999997
Info: NONBONDED TABLE R-SQUARED SPACING: 0.0625
Info: NONBONDED TABLE SIZE: 705 POINTS
TCL: Setting parameter alchLambda2 to 0.6499999999999997
Info: NONBONDED TABLE R-SQUARED SPACING: 0.0625
Info: NONBONDED TABLE SIZE: 705 POINTS
TCL: Running for 1500000 steps
ETITLE: TS BOND ANGLE DIHED IMPRP ELECT VDW BOUNDARY MISC KINETIC TOTAL TEMP POTENTIAL TOTALAVG TEMPAVG PRESSURE GPRESSURE VOLUME PRESSAVG GPRESSAVG
ENERGY: 0 4.0916 8.0586 3.0745 0.0000 -10871.8453 1485.5543 0.0000 0.0000 1785.8932 -7585.1732 300.2179 -9371.0664 -7585.1732 300.2179 -113.9725 -15.9715 31018.4012 -113.9725 -15.9715
ENERGY: 300000 3.3054 5.6674 4.6236 0.0000 -10800.9156 1385.7506 0.0000 0.0000 1799.3325 -7602.2361 302.4771 -9401.5686 -7559.1341 300.1789 -748.0717 -596.3598 30603.9233 -286.5584 -190.6176
ENERGY: 600000 3.7012 11.7190 1.4101 0.0000 -10789.6074 1506.8787 0.0000 0.0000 1775.6453 -7490.2531 298.4952 -9265.8984 -7563.6911 300.4605 743.2438 888.7087 30516.9703 -78.1207 22.1644
ENERGY: 900000 3.6495 8.8822 1.2467 0.0000 -10862.9201 1550.8137 0.0000 0.0000 1795.6409 -7502.6872 301.8566 -9298.3280 -7560.7454 300.7246 671.1830 787.6206 30878.7105 -47.8075 39.9785
ENERGY: 1200000 1.3036 4.3901 3.2823 0.0000 -10849.1022 1363.7104 0.0000 0.0000 1759.7160 -7716.6998 295.8174 -9476.4158 -7573.6374 300.3095 -917.3638 -816.7415 30309.4230 -64.5271 20.4072
ENERGY: 1500000 5.6854 4.4805 2.6820 0.0000 -10883.0019 1474.0138 0.0000 0.0000 1767.2024 -7628.9378 297.0759 -9396.1402 -7576.8844 300.1644 59.4710 164.1504 30431.8569 9.7226 90.7513
TCL: Running FEP window   8: Lambda1 0.6499999999999997 Lambda2 0.5999999999999996 [dLambda -0.050000000000000044]
TCL: Setting parameter firsttimestep to 0
TCL: Setting parameter alchLambda to 0.6499999999999997
Info: NONBONDED TABLE R-SQUARED SPACING: 0.0625
Info: NONBONDED TABLE SIZE: 705 POINTS
TCL: Setting parameter alchLambda2 to 0.5999999999999996
Info: NONBONDED TABLE R-SQUARED SPACING: 0.0625
Info: NONBONDED TABLE SIZE: 705 POINTS
TCL: Running for 1500000 steps
ETITLE: TS BOND ANGLE DIHED IMPRP ELECT VDW BOUNDARY MISC KINETIC TOTAL TEMP POTENTIAL TOTALAVG TEMPAVG PRESSURE GPRESSURE VOLUME PRESSAVG GPRESSAVG
ENERGY: 0 5.6854 4.4805 2.6820 0.0000 -10881.9020 1474.3604 0.0000 0.0000 1766.3257 -7628.3680 296.9285 -9394.6937 -7628.3680 296.9285 84.0603 165.6958 30431.8569 84.0603 165.6958
ENERGY: 300000 1.0864 9.7828 1.7203 0.0000 -10895.5282 1484.1070 0.0000 0.0000 1796.3033 -7602.5285 301.9679 -9398.8318 -7597.8869 298.2377 188.5414 195.0378 30658.3455 -120.0149 -74.8088
ENERGY: 600000 3.2098 6.5533 4.8280 0.0000 -10948.4792 1551.4233 0.0000 0.0000 1814.0281 -7568.4366 304.9475 -9382.4648 -7582.8181 299.4219 736.8535 846.4031 30532.9438 -152.6880 -91.6538
ENERGY: 900000 2.1964 7.0865 5.0866 0.0000 -10749.6548 1357.1904 0.0000 0.0000 1766.2045 -7611.8904 296.9081 -9378.0949 -7583.4871 298.7167 -955.0318 -893.5363 31005.9763 -73.4513 -19.5275
ENERGY: 1200000 1.1542 6.5257 8.5570 0.0000 -10941.0934 1506.3208 0.0000 0.0000 1773.7678 -7644.7678 298.1796 -9418.5356 -7591.1678 299.1309 -35.4606 70.3538 31037.0215 -102.0360 -46.6212
ENERGY: 1500000 2.0913 7.0484 5.0250 0.0000 -10890.0413 1508.5813 0.0000 0.0000 1743.5300 -7623.7653 293.0964 -9367.2953 -7596.3428 298.3870 769.9613 785.0507 30239.7389 0.5276 54.4027
TCL: Running FEP window   9: Lambda1 0.5999999999999996 Lambda2 0.5499999999999996 [dLambda -0.050000000000000044]
TCL: Setting parameter firsttimestep to 0
TCL: Setting parameter alchLambda to 0.5999999999999996
Info: NONBONDED TABLE R-SQUARED SPACING: 0.0625
Info: NONBONDED TABLE SIZE: 705 POINTS
TCL: Setting parameter alchLambda2 to 0.5499999999999996
Info: NONBONDED TABLE R-SQUARED SPACING: 0.0625
Info: NONBONDED TABLE SIZE: 705 POINTS
TCL: Running for 1500000 steps
ETITLE: TS BOND ANGLE DIHED IMPRP ELECT VDW BOUNDARY MISC KINETIC TOTAL TEMP POTENTIAL TOTALAVG TEMPAVG PRESSURE GPRESSURE VOLUME PRESSAVG GPRESSAVG
ENERGY: 0 2.0913 7.0484 5.0250 0.0000 -10888.6520 1509.0558 0.0000 0.0000 1742.6596 -7622.7719 292.9501 -9365.4316 -7622.7719 292.9501 703.7042 785.5075 30239.7389 703.7042 785.5075
ENERGY: 300000 2.2017 8.1053 2.8513 0.0000 -10764.5689 1384.2111 0.0000 0.0000 1785.5523 -7581.6472 300.1606 -9367.1995 -7598.5290 301.7300 -612.8950 -561.2822 30556.8123 239.8532 321.2941
ENERGY: 600000 2.4099 6.0551 0.4767 0.0000 -10881.9481 1529.6244 0.0000 0.0000 1781.7738 -7561.6082 299.5254 -9343.3820 -7597.2048 300.2982 593.5973 665.8128 30669.0593 377.4353 447.9560
ENERGY: 900000 2.6365 10.0662 2.5706 0.0000 -10818.1167 1426.6130 0.0000 0.0000 1801.9238 -7574.3065 302.9127 -9376.2303 -7595.0641 300.0850 -387.6473 -285.0040 30815.8454 212.7966 280.5559
ENERGY: 1200000 1.6625 4.3713 5.1853 0.0000 -10771.3104 1416.3133 0.0000 0.0000 1747.9468 -7595.8313 293.8389 -9343.7780 -7584.8422 299.5659 -416.2183 -335.1737 30965.1369 91.9193 158.0973
ENERGY: 1500000 1.7381 5.9535 2.3216 0.0000 -10772.5491 1431.6951 0.0000 0.0000 1800.9528 -7529.8878 302.7495 -9330.8407 -7584.7521 299.6010 -34.5049 -13.6522 30617.4341 151.3315 208.6265
TCL: Running FEP window  10: Lambda1 0.5499999999999996 Lambda2 0.4999999999999996 [dLambda -0.04999999999999999]
TCL: Setting parameter firsttimestep to 0
TCL: Setting parameter alchLambda to 0.5499999999999996
Info: NONBONDED TABLE R-SQUARED SPACING: 0.0625
Info: NONBONDED TABLE SIZE: 705 POINTS
TCL: Setting parameter alchLambda2 to 0.4999999999999996
Info: NONBONDED TABLE R-SQUARED SPACING: 0.0625
Info: NONBONDED TABLE SIZE: 705 POINTS
TCL: Running for 1500000 steps
ETITLE: TS BOND ANGLE DIHED IMPRP ELECT VDW BOUNDARY MISC KINETIC TOTAL TEMP POTENTIAL TOTALAVG TEMPAVG PRESSURE GPRESSURE VOLUME PRESSAVG GPRESSAVG
ENERGY: 0 1.7381 5.9535 2.3216 0.0000 -10771.0645 1430.5375 0.0000 0.0000 1800.0013 -7530.5125 302.5896 -9330.5138 -7530.5125 302.5896 -109.7241 -29.3213 30617.4341 -109.7241 -29.3213
ENERGY: 300000 2.1475 5.0518 5.6231 0.0000 -10918.7565 1461.7052 0.0000 0.0000 1801.1953 -7643.0336 302.7903 -9444.2289 -7554.9999 305.0398 120.1645 136.4753 30333.0543 -80.4290 -24.8599
ENERGY: 600000 2.8498 5.6112 2.5911 0.0000 -10718.2886 1476.4820 0.0000 0.0000 1756.9567 -7473.7977 295.3535 -9230.7545 -7541.5379 302.7838 204.4115 351.1425 31277.9378 -51.8638 9.6115
ENERGY: 900000 4.7717 6.1281 3.2496 0.0000 -10912.3183 1445.8995 0.0000 0.0000 1781.2498 -7671.0196 299.4373 -9452.2694 -7563.2907 302.2873 -184.5620 -142.3983 30153.2558 26.0332 83.5826
ENERGY: 1200000 3.8142 5.4166 4.1896 0.0000 -10701.2026 1366.9178 0.0000 0.0000 1777.4351 -7543.4292 298.7961 -9320.8643 -7565.2041 301.5719 -510.9750 -511.9976 30860.7572 65.4662 117.9491
ENERGY: 1500000 1.6691 6.0639 4.7027 0.0000 -10756.2458 1462.1761 0.0000 0.0000 1763.9677 -7517.6664 296.5321 -9281.6340 -7565.4943 301.1494 13.7733 89.3168 30999.8160 65.7855 115.0339
TCL: Running FEP window  11: Lambda1 0.4999999999999996 Lambda2 0.4499999999999996 [dLambda -0.04999999999999999]
TCL: Setting parameter firsttimestep to 0
TCL: Setting parameter alchLambda to 0.4999999999999996
Info: NONBONDED TABLE R-SQUARED SPACING: 0.0625
Info: NONBONDED TABLE SIZE: 705 POINTS
TCL: Setting parameter alchLambda2 to 0.4499999999999996
Info: NONBONDED TABLE R-SQUARED SPACING: 0.0625
Info: NONBONDED TABLE SIZE: 705 POINTS
TCL: Running for 1500000 steps
ETITLE: TS BOND ANGLE DIHED IMPRP ELECT VDW BOUNDARY MISC KINETIC TOTAL TEMP POTENTIAL TOTALAVG TEMPAVG PRESSURE GPRESSURE VOLUME PRESSAVG GPRESSAVG
ENERGY: 0 1.6691 6.0639 4.7027 0.0000 -10755.5967 1462.2623 0.0000 0.0000 1763.0970 -7517.8018 296.3858 -9280.8988 -7517.8018 296.3858 8.3827 83.8043 30999.8160 8.3827 83.8043
ENERGY: 300000 2.1845 9.1561 2.0572 0.0000 -10716.7973 1427.0652 0.0000 0.0000 1785.2759 -7491.0584 300.1141 -9276.3343 -7490.9973 306.6815 -117.2615 -55.0153 30946.6150 69.7550 154.7025
ENERGY: 600000 2.3346 7.6005 7.4663 0.0000 -10672.3713 1411.8519 0.0000 0.0000 1807.6107 -7435.5072 303.8687 -9243.1179 -7495.9760 305.3363 -132.1665 -95.0946 31231.5669 -74.2358 -2.6550
ENERGY: 900000 2.1378 4.7445 2.4463 0.0000 -10856.0618 1526.7305 0.0000 0.0000 1798.9383 -7521.0645 302.4109 -9320.0028 -7501.2153 304.6231 455.2606 513.5615 30911.4531 -92.0877 -23.0128
ENERGY: 1200000 5.3363 5.7878 1.0879 0.0000 -10717.2793 1352.7765 0.0000 0.0000 1797.2566 -7555.0342 302.1282 -9352.2908 -7509.9758 304.2689 -498.2929 -498.3890 30592.5641 -102.6405 -41.2194
ENERGY: 1500000 2.5785 4.5343 2.0612 0.0000 -10740.1131 1387.4617 0.0000 0.0000 1811.9603 -7531.5171 304.5999 -9343.4774 -7508.5689 304.7559 -604.3619 -582.5786 30908.6837 -58.1648 0.5406
TCL: Running FEP window  12: Lambda1 0.4499999999999996 Lambda2 0.39999999999999963 [dLambda -0.04999999999999999]
TCL: Setting parameter firsttimestep to 0
TCL: Setting parameter alchLambda to 0.4499999999999996
Info: NONBONDED TABLE R-SQUARED SPACING: 0.0625
Info: NONBONDED TABLE SIZE: 705 POINTS
TCL: Setting parameter alchLambda2 to 0.39999999999999963
Info: NONBONDED TABLE R-SQUARED SPACING: 0.0625
Info: NONBONDED TABLE SIZE: 705 POINTS
TCL: Running for 1500000 steps
ETITLE: TS BOND ANGLE DIHED IMPRP ELECT VDW BOUNDARY MISC KINETIC TOTAL TEMP POTENTIAL TOTALAVG TEMPAVG PRESSURE GPRESSURE VOLUME PRESSAVG GPRESSAVG
ENERGY: 0 2.5785 4.5343 2.0612 0.0000 -10740.1121 1386.9093 0.0000 0.0000 1811.0376 -7532.9912 304.4448 -9344.0288 -7532.9912 304.4448 -658.4530 -591.3931 30908.6837 -658.4530 -591.3931
ENERGY: 300000 1.3685 5.5359 1.7829 0.0000 -10910.4172 1502.8434 0.0000 0.0000 1786.7010 -7612.1855 300.3537 -9398.8865 -7601.3110 299.6523 124.8575 138.8677 31022.9326 -166.0734 -82.7323
ENERGY: 600000 3.3388 5.0079 4.4052 0.0000 -10878.7077 1435.0739 0.0000 0.0000 1784.7658 -7646.1161 300.0284 -9430.8819 -7605.6016 300.3047 -368.2387 -319.1067 30848.0732 -132.4905 -79.7724
ENERGY: 900000 1.1771 3.0308 2.3499 0.0000 -10802.5335 1465.5569 0.0000 0.0000 1763.9447 -7566.4742 296.5283 -9330.4188 -7578.9525 301.2786 184.6357 253.5988 30806.7852 -167.9490 -111.2401
ENERGY: 1200000 2.3965 4.4810 3.1992 0.0000 -10890.1825 1492.4060 0.0000 0.0000 1679.3407 -7708.3591 282.3059 -9387.6998 -7593.3880 299.6871 185.2477 293.9627 30490.6437 -136.9549 -80.2993
ENERGY: 1500000 2.6427 4.8563 5.2158 0.0000 -10811.1782 1442.4984 0.0000 0.0000 1759.1824 -7596.7827 295.7277 -9355.9651 -7581.1916 300.0102 -530.6986 -469.8830 31391.5823 -164.7402 -105.3454
TCL: Running FEP window  13: Lambda1 0.39999999999999963 Lambda2 0.34999999999999964 [dLambda -0.04999999999999999]
TCL: Setting parameter firsttimestep to 0
TCL: Setting parameter alchLambda to 0.39999999999999963
Info: NONBONDED TABLE R-SQUARED SPACING: 0.0625
Info: NONBONDED TABLE SIZE: 705 POINTS
TCL: Setting parameter alchLambda2 to 0.34999999999999964
Info: NONBONDED TABLE R-SQUARED SPACING: 0.0625
Info: NONBONDED TABLE SIZE: 705 POINTS
TCL: Running for 1500000 steps
ETITLE: TS BOND ANGLE DIHED IMPRP ELECT VDW BOUNDARY MISC KINETIC TOTAL TEMP POTENTIAL TOTALAVG TEMPAVG PRESSURE GPRESSURE VOLUME PRESSAVG GPRESSAVG
ENERGY: 0 2.6427 4.8563 5.2158 0.0000 -10811.1797 1442.7148 0.0000 0.0000 1758.3323 -7597.4179 295.5848 -9355.7501 -7597.4179 295.5848 -559.1031 -474.6911 31391.5823 -559.1031 -474.6911
ENERGY: 300000 4.5270 2.8717 2.6156 0.0000 -10808.5828 1443.1078 0.0000 0.0000 1774.2898 -7581.1708 298.2673 -9355.4607 -7579.1206 299.8241 -95.6252 -11.7072 30407.1329 -253.3898 -161.8044
ENERGY: 600000 3.0201 7.1797 3.1194 0.0000 -10884.1367 1570.3365 0.0000 0.0000 1762.0515 -7538.4295 296.2100 -9300.4811 -7581.3372 298.6894 991.4358 1081.5145 30773.4656 51.2145 127.6085
ENERGY: 900000 2.5457 4.0163 3.7206 0.0000 -10860.3472 1534.1204 0.0000 0.0000 1761.7062 -7554.2380 296.1520 -9315.9442 -7582.3251 298.9965 563.8126 601.2985 30947.0709 97.8737 163.0193
ENERGY: 1200000 2.9060 6.8003 2.0322 0.0000 -10754.4768 1455.1845 0.0000 0.0000 1797.6374 -7489.9164 302.1922 -9287.5539 -7579.3383 298.3040 290.4038 305.4648 30730.8715 -29.1275 33.2285
ENERGY: 1500000 3.9793 8.4249 1.6673 0.0000 -10664.1994 1362.1388 0.0000 0.0000 1805.1127 -7482.8765 303.4488 -9287.9892 -7577.3624 297.7674 -666.0898 -655.2078 31205.1929 -106.3253 -45.6377
TCL: Running FEP window  14: Lambda1 0.34999999999999964 Lambda2 0.29999999999999966 [dLambda -0.04999999999999999]
TCL: Setting parameter firsttimestep to 0
TCL: Setting parameter alchLambda to 0.34999999999999964
Info: NONBONDED TABLE R-SQUARED SPACING: 0.0625
Info: NONBONDED TABLE SIZE: 705 POINTS
TCL: Setting parameter alchLambda2 to 0.29999999999999966
Info: NONBONDED TABLE R-SQUARED SPACING: 0.0625
Info: NONBONDED TABLE SIZE: 705 POINTS
TCL: Running for 1500000 steps
ETITLE: TS BOND ANGLE DIHED IMPRP ELECT VDW BOUNDARY MISC KINETIC TOTAL TEMP POTENTIAL TOTALAVG TEMPAVG PRESSURE GPRESSURE VOLUME PRESSAVG GPRESSAVG
ENERGY: 0 3.9793 8.4249 1.6673 0.0000 -10664.1993 1362.0718 0.0000 0.0000 1804.2175 -7483.8386 303.2983 -9288.0562 -7483.8386 303.2983 -726.8688 -657.1573 31205.1929 -726.8688 -657.1573
ENERGY: 300000 2.6943 7.1514 4.5552 0.0000 -10903.7428 1490.3834 0.0000 0.0000 1862.1016 -7536.8569 313.0289 -9398.9585 -7535.0417 305.2023 32.8153 117.5890 30556.5362 -464.5418 -417.3261
ENERGY: 600000 2.1971 6.6052 4.2628 0.0000 -10792.5736 1443.5123 0.0000 0.0000 1826.9710 -7509.0253 307.1233 -9335.9963 -7537.6181 302.8509 -283.2792 -245.8726 31274.5046 -211.0336 -156.5386
ENERGY: 900000 0.7916 2.8455 4.3335 0.0000 -10658.8640 1359.1743 0.0000 0.0000 1791.2913 -7500.4277 301.1254 -9291.7190 -7533.4170 301.8319 -625.1670 -560.0248 31036.9091 -341.0397 -289.1496
ENERGY: 1200000 2.4579 6.3077 3.7593 0.0000 -10818.4081 1455.9461 0.0000 0.0000 1732.8341 -7617.1031 291.2984 -9349.9371 -7544.3887 300.6464 -62.0114 10.4229 30671.2654 -378.2990 -322.2629
ENERGY: 1500000 2.5232 6.0918 2.1620 0.0000 -10786.4203 1443.6506 0.0000 0.0000 1756.2766 -7575.7162 295.2392 -9331.9928 -7555.1670 300.7016 -323.8947 -269.9224 31705.4152 -311.9199 -259.4920
TCL: Running FEP window  15: Lambda1 0.29999999999999966 Lambda2 0.24999999999999967 [dLambda -0.04999999999999999]
TCL: Setting parameter firsttimestep to 0
TCL: Setting parameter alchLambda to 0.29999999999999966
Info: NONBONDED TABLE R-SQUARED SPACING: 0.0625
Info: NONBONDED TABLE SIZE: 705 POINTS
TCL: Setting parameter alchLambda2 to 0.24999999999999967
Info: NONBONDED TABLE R-SQUARED SPACING: 0.0625
Info: NONBONDED TABLE SIZE: 705 POINTS
TCL: Running for 1500000 steps
ETITLE: TS BOND ANGLE DIHED IMPRP ELECT VDW BOUNDARY MISC KINETIC TOTAL TEMP POTENTIAL TOTALAVG TEMPAVG PRESSURE GPRESSURE VOLUME PRESSAVG GPRESSAVG
ENERGY: 0 2.5232 6.0918 2.1620 0.0000 -10786.4216 1444.0808 0.0000 0.0000 1755.3889 -7576.1749 295.0900 -9331.5638 -7576.1749 295.0900 -343.8595 -271.9829 31705.4152 -343.8595 -271.9829
ENERGY: 300000 2.9971 6.0324 2.3347 0.0000 -10969.1455 1588.5364 0.0000 0.0000 1834.9914 -7534.2534 308.4716 -9369.2448 -7541.2202 300.5438 855.8641 908.1009 30900.9555 -178.5403 -92.0898
ENERGY: 600000 3.8055 5.9054 1.6062 0.0000 -10803.7171 1428.5878 0.0000 0.0000 1764.4839 -7599.3282 296.6189 -9363.8121 -7562.0022 298.9576 -464.7213 -395.9495 30929.3411 -160.3142 -94.3764
ENERGY: 900000 3.4682 7.2709 5.9717 0.0000 -10671.7080 1425.4213 0.0000 0.0000 1759.2952 -7470.2807 295.7467 -9229.5759 -7551.4081 298.8292 -101.8651 -35.8503 30790.6189 -31.1283 29.4373
ENERGY: 1200000 3.3353 7.2813 1.0892 0.0000 -10766.7611 1391.6004 0.0000 0.0000 1843.6308 -7519.8241 309.9239 -9363.4549 -7546.2941 300.2333 -653.0086 -591.4313 30827.0692 -101.5705 -42.3568
ENERGY: 1500000 2.7426 6.8754 1.8156 0.0000 -10800.5335 1465.0907 0.0000 0.0000 1794.9353 -7529.0739 301.7379 -9324.0092 -7541.5994 301.5848 20.0093 110.2830 30880.4552 -125.3989 -60.9779
TCL: Running FEP window  16: Lambda1 0.24999999999999967 Lambda2 0.19999999999999968 [dLambda -0.04999999999999999]
TCL: Setting parameter firsttimestep to 0
TCL: Setting parameter alchLambda to 0.24999999999999967
Info: NONBONDED TABLE R-SQUARED SPACING: 0.0625
Info: NONBONDED TABLE SIZE: 705 POINTS
TCL: Setting parameter alchLambda2 to 0.19999999999999968
Info: NONBONDED TABLE R-SQUARED SPACING: 0.0625
Info: NONBONDED TABLE SIZE: 705 POINTS
TCL: Running for 1500000 steps
ETITLE: TS BOND ANGLE DIHED IMPRP ELECT VDW BOUNDARY MISC KINETIC TOTAL TEMP POTENTIAL TOTALAVG TEMPAVG PRESSURE GPRESSURE VOLUME PRESSAVG GPRESSAVG
ENERGY: 0 2.7426 6.8754 1.8156 0.0000 -10800.5335 1465.5655 0.0000 0.0000 1794.0633 -7529.4711 301.5914 -9323.5345 -7529.4711 301.5914 42.6445 105.7449 30880.4552 42.6445 105.7449
ENERGY: 300000 2.0655 4.3247 2.6531 0.0000 -10863.4953 1509.5549 0.0000 0.0000 1791.5385 -7553.3586 301.1669 -9344.8970 -7564.4449 298.2991 282.4518 375.3592 30793.5396 416.6443 466.3576
ENERGY: 600000 4.2207 3.6912 3.0086 0.0000 -10746.4373 1392.3774 0.0000 0.0000 1779.0481 -7564.0914 299.0672 -9343.1395 -7568.8747 299.5015 -785.5804 -687.1308 30955.2916 101.6006 166.3110
ENERGY: 900000 1.9369 5.3992 3.9566 0.0000 -10993.8200 1590.1178 0.0000 0.0000 1797.9752 -7594.4343 302.2490 -9392.4095 -7572.4986 300.3025 701.0949 752.9856 30899.3366 158.5231 220.0836
ENERGY: 1200000 4.2683 7.3408 3.3679 0.0000 -10709.3626 1417.5934 0.0000 0.0000 1829.2101 -7447.5820 307.4997 -9276.7921 -7556.7413 301.2226 -182.8026 -127.7231 30937.6166 94.8940 152.4965
ENERGY: 1500000 4.0193 6.2247 3.8981 0.0000 -10747.0648 1479.5036 0.0000 0.0000 1809.3742 -7444.0450 304.1652 -9253.4192 -7544.4944 302.1853 280.3069 306.6892 30988.5602 159.4873 206.5479
TCL: Running FEP window  17: Lambda1 0.19999999999999968 Lambda2 0.1499999999999997 [dLambda -0.04999999999999999]
TCL: Setting parameter firsttimestep to 0
TCL: Setting parameter alchLambda to 0.19999999999999968
Info: NONBONDED TABLE R-SQUARED SPACING: 0.0625
Info: NONBONDED TABLE SIZE: 705 POINTS
TCL: Setting parameter alchLambda2 to 0.1499999999999997
Info: NONBONDED TABLE R-SQUARED SPACING: 0.0625
Info: NONBONDED TABLE SIZE: 705 POINTS
TCL: Running for 1500000 steps
ETITLE: TS BOND ANGLE DIHED IMPRP ELECT VDW BOUNDARY MISC KINETIC TOTAL TEMP POTENTIAL TOTALAVG TEMPAVG PRESSURE GPRESSURE VOLUME PRESSAVG GPRESSAVG
ENERGY: 0 4.0193 6.2247 3.8981 0.0000 -10747.0647 1479.4931 0.0000 0.0000 1808.5122 -7444.9174 304.0203 -9253.4296 -7444.9174 304.0203 234.3476 304.7350 30988.5602 234.3476 304.7350
ENERGY: 300000 1.9575 6.8882 3.2046 0.0000 -10853.3050 1487.8245 0.0000 0.0000 1754.5695 -7598.8607 294.9522 -9353.4302 -7559.9457 299.2342 179.4704 257.0595 30823.2799 127.0249 185.7994
ENERGY: 600000 1.7177 8.9758 2.9004 0.0000 -10798.0318 1474.9162 0.0000 0.0000 1802.4507 -7507.0710 303.0013 -9309.5218 -7569.7503 300.1184 292.4866 316.9587 30984.6446 142.4028 192.7027
ENERGY: 900000 1.4784 9.8777 3.1975 0.0000 -10858.1099 1556.3533 0.0000 0.0000 1767.2723 -7519.9306 297.0877 -9287.2030 -7574.2712 300.0203 889.9119 963.9021 30685.6197 118.4283 174.9891
ENERGY: 1200000 3.8068 4.6219 8.6291 0.0000 -10933.8670 1514.8100 0.0000 0.0000 1746.9230 -7655.0763 293.6668 -9401.9993 -7575.4476 299.7451 357.5347 381.7160 30369.7389 76.1055 138.7888
ENERGY: 1500000 3.3779 6.6345 4.7782 0.0000 -10700.1488 1345.3353 0.0000 0.0000 1782.3736 -7557.6492 299.6263 -9340.0229 -7569.8282 299.5794 -1031.2890 -955.4696 30633.8386 51.0943 114.6256
TCL: Running FEP window  18: Lambda1 0.1499999999999997 Lambda2 0.09999999999999969 [dLambda -0.05 ]
TCL: Setting parameter firsttimestep to 0
TCL: Setting parameter alchLambda to 0.1499999999999997
Info: NONBONDED TABLE R-SQUARED SPACING: 0.0625
Info: NONBONDED TABLE SIZE: 705 POINTS
TCL: Setting parameter alchLambda2 to 0.09999999999999969
Info: NONBONDED TABLE R-SQUARED SPACING: 0.0625
Info: NONBONDED TABLE SIZE: 705 POINTS
TCL: Running for 1500000 steps
ETITLE: TS BOND ANGLE DIHED IMPRP ELECT VDW BOUNDARY MISC KINETIC TOTAL TEMP POTENTIAL TOTALAVG TEMPAVG PRESSURE GPRESSURE VOLUME PRESSAVG GPRESSAVG
ENERGY: 0 3.3779 6.6345 4.7782 0.0000 -10700.1493 1345.5759 0.0000 0.0000 1781.5155 -7558.2674 299.4820 -9339.7828 -7558.2674 299.4820 -1043.5888 -956.5282 30633.8386 -1043.5888 -956.5282
ENERGY: 300000 2.2791 8.7928 1.7005 0.0000 -10889.0232 1510.4800 0.0000 0.0000 1813.5936 -7552.1772 304.8745 -9365.7708 -7577.9848 302.0917 303.4372 341.7067 30592.3577 -75.4151 -19.4605
ENERGY: 600000 2.2963 5.8658 2.8495 0.0000 -10812.9736 1437.1798 0.0000 0.0000 1795.8993 -7568.8829 301.9000 -9364.7822 -7605.0515 298.4439 -291.6757 -258.6874 30798.1007 -70.2077 -11.2698
ENERGY: 900000 4.3332 5.0368 4.0936 0.0000 -10714.0188 1383.4809 0.0000 0.0000 1817.3889 -7499.6853 305.5125 -9317.0743 -7592.7507 298.7967 -456.9001 -419.4028 30742.6530 -195.7641 -132.0495
ENERGY: 1200000 2.2254 6.4340 2.7661 0.0000 -10823.1406 1484.0119 0.0000 0.0000 1709.0947 -7618.6086 287.3077 -9327.7033 -7586.9824 298.1919 41.2233 119.1188 31169.1428 -85.3932 -22.2049
ENERGY: 1500000 1.5317 5.5636 3.8081 0.0000 -10759.5006 1394.9246 0.0000 0.0000 1776.6793 -7576.9933 298.6690 -9353.6726 -7588.6794 298.4059 -344.6531 -313.0054 30318.8363 -113.9294 -50.6167
TCL: Running FEP window  19: Lambda1 0.09999999999999969 Lambda2 0.049999999999999684 [dLambda -0.05 ]
TCL: Setting parameter firsttimestep to 0
TCL: Setting parameter alchLambda to 0.09999999999999969
Info: NONBONDED TABLE R-SQUARED SPACING: 0.0625
Info: NONBONDED TABLE SIZE: 705 POINTS
TCL: Setting parameter alchLambda2 to 0.049999999999999684
Info: NONBONDED TABLE R-SQUARED SPACING: 0.0625
Info: NONBONDED TABLE SIZE: 705 POINTS
TCL: Running for 1500000 steps
ETITLE: TS BOND ANGLE DIHED IMPRP ELECT VDW BOUNDARY MISC KINETIC TOTAL TEMP POTENTIAL TOTALAVG TEMPAVG PRESSURE GPRESSURE VOLUME PRESSAVG GPRESSAVG
ENERGY: 0 1.5317 5.5636 3.8081 0.0000 -10759.4992 1395.0952 0.0000 0.0000 1775.8046 -7577.6960 298.5220 -9353.5006 -7577.6960 298.5220 -397.2261 -314.3049 30318.8363 -397.2261 -314.3049
ENERGY: 300000 5.5724 6.0270 1.0848 0.0000 -10829.1556 1448.0831 0.0000 0.0000 1797.2975 -7571.0907 302.1350 -9368.3882 -7583.8628 300.1442 -83.4599 -26.2853 30589.0435 59.9504 116.8235
ENERGY: 600000 1.8983 9.1442 3.1864 0.0000 -10844.4968 1462.0553 0.0000 0.0000 1800.1832 -7568.0295 302.6201 -9368.2127 -7559.4075 300.9693 161.2961 256.5607 30432.8310 -13.3191 53.6734
ENERGY: 900000 3.1423 8.6409 1.8783 0.0000 -10877.9355 1492.5540 0.0000 0.0000 1766.5899 -7605.1301 296.9729 -9371.7200 -7560.8453 300.2567 455.9209 525.9399 30165.8098 -56.7422 10.5371
ENERGY: 1200000 3.5810 6.3342 3.1575 0.0000 -10901.3924 1493.0200 0.0000 0.0000 1754.3143 -7640.9853 294.9093 -9395.2995 -7565.8228 299.6066 16.6177 13.5453 30634.4419 -26.6008 37.2907
ENERGY: 1500000 4.9008 5.8080 3.3179 0.0000 -10926.8133 1543.0998 0.0000 0.0000 1781.3238 -7588.3629 299.4498 -9369.6867 -7569.8468 300.3603 681.9097 693.3267 30827.9100 40.2760 103.1381
TCL: Running FEP window  20: Lambda1 0.049999999999999684 Lambda2 0.0    [dLambda -0.049999999999999684]
TCL: Setting parameter firsttimestep to 0
TCL: Setting parameter alchLambda to 0.049999999999999684
Info: NONBONDED TABLE R-SQUARED SPACING: 0.0625
Info: NONBONDED TABLE SIZE: 705 POINTS
TCL: Setting parameter alchLambda2 to 0.0
Info: NONBONDED TABLE R-SQUARED SPACING: 0.0625
Info: NONBONDED TABLE SIZE: 705 POINTS
TCL: Running for 1500000 steps
ETITLE: TS BOND ANGLE DIHED IMPRP ELECT VDW BOUNDARY MISC KINETIC TOTAL TEMP POTENTIAL TOTALAVG TEMPAVG PRESSURE GPRESSURE VOLUME PRESSAVG GPRESSAVG
ENERGY: 0 4.9009 5.8080 3.3179 0.0000 -10926.8150 1543.5996 0.0000 0.0000 1780.4418 -7588.7467 299.3015 -9369.1885 -7588.7467 299.3015 604.4569 691.3257 30827.9100 604.4569 691.3257
ENERGY: 300000 2.5685 7.8071 4.3098 0.0000 -10702.4023 1383.6060 0.0000 0.0000 1845.1001 -7459.0109 310.1709 -9304.1110 -7519.0315 302.9212 -472.5425 -342.1946 30306.7295 -93.6501 -20.4949
ENERGY: 600000 3.3921 8.1494 5.7889 0.0000 -10855.8197 1487.2800 0.0000 0.0000 1757.2221 -7593.9872 295.3982 -9351.2093 -7553.8446 301.2505 112.4512 124.8123 30785.7163 -18.6214 44.9434
ENERGY: 900000 2.0555 8.1800 1.1757 0.0000 -10852.3252 1497.7151 0.0000 0.0000 1780.8223 -7562.3767 299.3655 -9343.1990 -7553.3696 300.2322 278.1252 388.1958 30758.3145 -9.2035 66.2271
ENERGY: 1200000 2.3708 11.3094 3.4357 0.0000 -10842.3065 1466.3293 0.0000 0.0000 1780.0646 -7578.7967 299.2381 -9358.8613 -7564.7966 299.7718 -116.7367 -45.1514 30561.9374 -68.0963 5.8431
ENERGY: 1500000 3.8296 6.4492 3.4302 0.0000 -10865.2179 1499.4121 0.0000 0.0000 1746.7329 -7605.3639 293.6349 -9352.0968 -7567.1808 299.6783 -72.3302 15.0571 30943.2345 -55.7581 21.0667
TCL: Exiting due to exit command.
